#       Name:                AV-unprocessed.smi:1154
#       Creating user name   scv26
#       Creation time:       Fri Mar 27 03:47:59 2020


#       File generated by GOLD software.
#

@<TRIPOS>MOLECULE
AV-unprocessed.smi:1154
    47    48     1
SMALL
NO_CHARGES


@<TRIPOS>ATOM
      1 ****        -0.3716   2.3051  -3.9681 C.3            1 S1                 0.0000
      2 ****        -0.7912   2.1143  -2.5036 C.3            1 S1                 0.0000
      3 ****        -2.3172   2.2334  -2.3382 C.3            1 S1                 0.0000
      4 ****        -2.7546   1.9788  -0.8839 C.3            1 S1                 0.0000
      5 ****        -2.4222   3.1513   0.0559 C.3            1 S1                 0.0000
      6 ****        -2.1813   0.6418  -0.3736 C.3            1 S1                 0.0000
      7 ****        -0.7044   0.5823  -0.5290 N.4            1 S1                 1.0000
      8 ****        -0.1211  -0.6316   0.0961 C.3            1 S1                 0.0000
      9 ****         1.3568  -0.4405   0.4741 C.3            1 S1                 0.0000
     10 ****         1.8722  -1.6317   1.1339 N.am           1 S1                 0.0000
     11 ****         3.0578  -1.6985   1.7590 C.2            1 S1                 0.0000
     12 ****         3.8454  -0.7548   1.8085 O.2            1 S1                 0.0000
     13 ****         3.4201  -3.0309   2.4214 C.3            1 S1                 0.0000
     14 ****         2.4152  -3.4457   3.3840 N.pl3          1 S1                 0.0000
     15 ****         1.4285  -4.3393   3.2904 C.2            1 S1                 0.0000
     16 ****         0.7192  -4.4034   4.4066 N.2            1 S1                 0.0000
     17 ****         1.3407  -3.4776   5.2280 N.2            1 S1                 0.0000
     18 ****         2.3484  -2.9067   4.6270 N.2            1 S1                 0.0000
     19 ****        -0.2971   0.7649  -1.9476 C.3            1 S1                 0.0000
     20 ****        -0.8074   1.5387  -4.6099 H              1 S1                 0.0000
     21 ****         0.7122   2.2534  -4.0764 H              1 S1                 0.0000
     22 ****        -0.6930   3.2767  -4.3446 H              1 S1                 0.0000
     23 ****        -0.3183   2.9105  -1.9278 H              1 S1                 0.0000
     24 ****        -2.6606   3.2145  -2.6690 H              1 S1                 0.0000
     25 ****        -2.8063   1.5059  -2.9878 H              1 S1                 0.0000
     26 ****        -3.8417   1.8882  -0.8851 H              1 S1                 0.0000
     27 ****        -1.3476   3.3048   0.1543 H              1 S1                 0.0000
     28 ****        -2.8207   2.9747   1.0554 H              1 S1                 0.0000
     29 ****        -2.8582   4.0817  -0.3089 H              1 S1                 0.0000
     30 ****        -2.4544   0.5078   0.6741 H              1 S1                 0.0000
     31 ****        -2.6303  -0.1888  -0.9210 H              1 S1                 0.0000
     32 ****        -0.6716  -0.8660   1.0085 H              1 S1                 0.0000
     33 ****        -0.2477  -1.4881  -0.5682 H              1 S1                 0.0000
     34 ****         1.9691  -0.2441  -0.4058 H              1 S1                 0.0000
     35 ****         1.4593   0.4197   1.1381 H              1 S1                 0.0000
     36 ****         1.2849  -2.4530   1.1318 H              1 S1                 0.0000
     37 ****         3.5205  -3.8030   1.6578 H              1 S1                 0.0000
     38 ****         4.3827  -2.9510   2.9290 H              1 S1                 0.0000
     39 ****         1.2264  -4.9314   2.4101 H              1 S1                 0.0000
     40 ****        -0.6897  -0.0585  -2.5467 H              1 S1                 0.0000
     41 ****         0.7882   0.7248  -2.0341 H              1 S1                 0.0000
     42 ****        -0.3391   1.3703  -0.0133 H              1 S1                 0.0000
     43 ****         3.6136   0.1134   1.3697 LP             1 S1                 0.0000
     44 ****         4.7174  -0.8559   2.2874 LP             1 S1                 0.0000
     45 ****        -0.0727  -4.9800   4.6076 LP             1 S1                 0.0000
     46 ****         1.0534  -3.2725   6.1636 LP             1 S1                 0.0000
     47 ****         2.9536  -2.2079   5.0084 LP             1 S1                 0.0000
@<TRIPOS>BOND
    1    1    2 1     
    2    1   20 1     
    3    1   21 1     
    4    1   22 1     
    5    2   19 1     
    6    2    3 1     
    7    2   23 1     
    8    3    4 1     
    9    3   24 1     
   10    3   25 1     
   11    4    5 1     
   12    4    6 1     
   13    4   26 1     
   14    5   27 1     
   15    5   28 1     
   16    5   29 1     
   17    6    7 1     
   18    6   30 1     
   19    6   31 1     
   20    7    8 1     
   21    7   19 1     
   22    7   42 1     
   23    8    9 1     
   24    8   32 1     
   25    8   33 1     
   26    9   10 1     
   27    9   34 1     
   28    9   35 1     
   29   10   11 am    
   30   10   36 1     
   31   11   12 2     
   32   11   13 1     
   33   13   14 1     
   34   13   37 1     
   35   13   38 1     
   36   14   18 1     
   37   14   15 1     
   38   15   16 2     
   39   15   39 1     
   40   16   17 1     
   41   17   18 2     
   42   19   40 1     
   43   19   41 1     
   44   12   43 1     
   45   12   44 1     
   46   16   45 1     
   47   17   46 1     
   48   18   47 1     
@<TRIPOS>SUBSTRUCTURE
      1 S1             1
@<TRIPOS>SET
LONE_PAIRS      STATIC     ATOMS    <user>   **** ""
5 43 44 45 46 47
DONOR_HYDROGENS      STATIC     ATOMS    <user>   **** ""
2 42 36
ATOM$BLUE        STATIC     ATOMS    COLORGROUP SYSTEM
5 43 44 45 46 47
ATOM$RED        STATIC     ATOMS    COLORGROUP SYSTEM
2 42 36
