#       Name:                AV-unprocessed.smi:1084
#       Creating user name   scv26
#       Creation time:       Fri Mar 27 03:24:48 2020


#       File generated by GOLD software.
#

@<TRIPOS>MOLECULE
AV-unprocessed.smi:1084
    61    63     1
SMALL
NO_CHARGES


@<TRIPOS>ATOM
      1 ****        -2.9061  -1.1783   1.3973 C.3            1 S1                 0.0000
      2 ****        -2.4736  -2.6652   1.3691 C.3            1 S1                 0.0000
      3 ****        -0.9261  -2.7901   1.2686 C.3            1 S1                 0.0000
      4 ****        -0.3477  -2.0476   0.1503 N.am           1 S1                 0.0000
      5 ****         0.3128  -0.8846   0.2513 C.2            1 S1                 0.0000
      6 ****         0.4701  -0.2885   1.3160 O.2            1 S1                 0.0000
      7 ****         0.7472  -0.4678  -0.9507 N.am           1 S1                 0.0000
      8 ****         1.4628   0.7149  -1.2857 C.ar           1 S1                 0.0000
      9 ****         2.1053   1.5627  -0.3532 C.ar           1 S1                 0.0000
     10 ****         2.7853   2.7025  -0.8226 C.ar           1 S1                 0.0000
     11 ****         2.8162   2.9697  -2.2110 C.ar           1 S1                 0.0000
     12 ****         3.4888   4.1111  -2.6980 N.3            1 S1                 0.0000
     13 ****         3.0943   5.3803  -2.0919 C.3            1 S1                 0.0000
     14 ****         4.0921   6.4885  -2.4705 C.3            1 S1                 0.0000
     15 ****         4.2158   6.5646  -3.8869 O.3            1 S1                 0.0000
     16 ****         4.7094   5.3500  -4.4415 C.3            1 S1                 0.0000
     17 ****         3.7277   4.2059  -4.1369 C.3            1 S1                 0.0000
     18 ****         2.2160   2.1452  -3.1037 N.ar           1 S1                 0.0000
     19 ****         1.5629   1.0554  -2.6495 C.ar           1 S1                 0.0000
     20 ****        -3.0286  -3.4172   2.5458 N.4            1 S1                 1.0000
     21 ****        -4.5179  -3.4070   2.6086 C.3            1 S1                 0.0000
     22 ****        -5.0383  -4.1675   3.8394 C.3            1 S1                 0.0000
     23 ****        -4.5528  -5.4997   3.8184 O.3            1 S1                 0.0000
     24 ****        -3.1369  -5.5279   3.8928 C.3            1 S1                 0.0000
     25 ****        -2.5354  -4.8190   2.6675 C.3            1 S1                 0.0000
     26 ****        -2.5030  -0.6191   0.5543 H              1 S1                 0.0000
     27 ****        -2.5697  -0.6859   2.3103 H              1 S1                 0.0000
     28 ****        -3.9840  -1.0505   1.3201 H              1 S1                 0.0000
     29 ****        -2.8944  -3.1142   0.4677 H              1 S1                 0.0000
     30 ****        -0.4604  -2.5011   2.2124 H              1 S1                 0.0000
     31 ****        -0.6355  -3.8236   1.0858 H              1 S1                 0.0000
     32 ****        -0.4368  -2.4629  -0.7657 H              1 S1                 0.0000
     33 ****         0.4951  -1.0500  -1.7360 H              1 S1                 0.0000
     34 ****         2.1063   1.3646   0.7065 H              1 S1                 0.0000
     35 ****         3.2879   3.3460  -0.1162 H              1 S1                 0.0000
     36 ****         2.0957   5.6419  -2.4439 H              1 S1                 0.0000
     37 ****         3.0388   5.3097  -1.0065 H              1 S1                 0.0000
     38 ****         3.7448   7.4501  -2.0927 H              1 S1                 0.0000
     39 ****         5.0680   6.3031  -2.0187 H              1 S1                 0.0000
     40 ****         4.8224   5.4708  -5.5189 H              1 S1                 0.0000
     41 ****         5.6999   5.1300  -4.0399 H              1 S1                 0.0000
     42 ****         4.1367   3.2679  -4.5146 H              1 S1                 0.0000
     43 ****         2.7810   4.3805  -4.6500 H              1 S1                 0.0000
     44 ****         1.1011   0.4355  -3.4043 H              1 S1                 0.0000
     45 ****        -4.9047  -2.3925   2.6750 H              1 S1                 0.0000
     46 ****        -4.9253  -3.8497   1.6984 H              1 S1                 0.0000
     47 ****        -4.7386  -3.6689   4.7629 H              1 S1                 0.0000
     48 ****        -6.1281  -4.1904   3.8318 H              1 S1                 0.0000
     49 ****        -2.7972  -5.0617   4.8193 H              1 S1                 0.0000
     50 ****        -2.8077  -6.5667   3.9225 H              1 S1                 0.0000
     51 ****        -2.7780  -5.3725   1.7590 H              1 S1                 0.0000
     52 ****        -1.4539  -4.8458   2.7889 H              1 S1                 0.0000
     53 ****        -2.7030  -2.9334   3.3708 H              1 S1                 0.0000
     54 ****         0.0967  -0.6691   2.1620 LP             1 S1                 0.0000
     55 ****         0.9714   0.5765   1.3354 LP             1 S1                 0.0000
     56 ****         4.4039   3.9148  -2.3458 LP             1 S1                 0.0000
     57 ****         4.8468   7.3053  -4.1172 LP             1 S1                 0.0000
     58 ****         3.3170   6.7580  -4.2802 LP             1 S1                 0.0000
     59 ****         2.2565   2.3414  -4.0834 LP             1 S1                 0.0000
     60 ****        -4.8442  -5.9402   2.9692 LP             1 S1                 0.0000
     61 ****        -4.9309  -5.9976   4.5989 LP             1 S1                 0.0000
@<TRIPOS>BOND
    1    1    2 1     
    2    1   26 1     
    3    1   27 1     
    4    1   28 1     
    5    2    3 1     
    6    2   20 1     
    7    2   29 1     
    8    3    4 1     
    9    3   30 1     
   10    3   31 1     
   11    4    5 am    
   12    4   32 1     
   13    5    6 2     
   14    5    7 am    
   15    7    8 1     
   16    7   33 1     
   17    8   19 ar    
   18    8    9 ar    
   19    9   10 ar    
   20    9   34 1     
   21   10   11 ar    
   22   10   35 1     
   23   11   12 1     
   24   11   18 ar    
   25   12   17 1     
   26   12   13 1     
   27   13   14 1     
   28   13   36 1     
   29   13   37 1     
   30   14   15 1     
   31   14   38 1     
   32   14   39 1     
   33   15   16 1     
   34   16   17 1     
   35   16   40 1     
   36   16   41 1     
   37   17   42 1     
   38   17   43 1     
   39   18   19 ar    
   40   19   44 1     
   41   20   25 1     
   42   20   21 1     
   43   20   53 1     
   44   21   22 1     
   45   21   45 1     
   46   21   46 1     
   47   22   23 1     
   48   22   47 1     
   49   22   48 1     
   50   23   24 1     
   51   24   25 1     
   52   24   49 1     
   53   24   50 1     
   54   25   51 1     
   55   25   52 1     
   56    6   54 1     
   57    6   55 1     
   58   12   56 1     
   59   15   57 1     
   60   15   58 1     
   61   18   59 1     
   62   23   60 1     
   63   23   61 1     
@<TRIPOS>SUBSTRUCTURE
      1 S1             1
@<TRIPOS>SET
LONE_PAIRS      STATIC     ATOMS    <user>   **** ""
8 54 55 56 57 58 59 60 61
DONOR_HYDROGENS      STATIC     ATOMS    <user>   **** ""
3 32 33 53
ATOM$BLUE        STATIC     ATOMS    COLORGROUP SYSTEM
8 54 55 56 57 58 59 60 61
ATOM$RED        STATIC     ATOMS    COLORGROUP SYSTEM
3 32 33 53
