AV-unprocessed.smi:2853|AV-procd|sdf|10973|dock3
  -GOLD-   2272015423D 1   1.00000     0.00000
 Structure written by MMmdl.
 43 44  0  0  0  0  0  0  0  0  1 V2000
  143.2679  143.8199  162.4132 C   0  0  0  0  0  0  0  0  0  0  0  0
  144.3207  144.2793  161.4638 C   0  0  0  0  0  0  0  0  0  0  0  0
  144.0703  145.0033  160.3741 N   0  0  0  0  0  0  0  0  0  0  0  0
  145.2249  145.3016  159.6444 C   0  0  0  0  0  0  0  0  0  0  0  0
  145.0939  146.1104  158.3830 C   0  0  0  0  0  0  0  0  0  0  0  0
  144.9462  147.6249  158.6366 C   0  0  0  0  0  0  0  0  0  0  0  0
  145.1819  148.4594  157.3657 C   0  0  0  0  0  0  0  0  0  0  0  0
  145.8778  148.0828  159.7687 C   0  0  0  0  0  0  0  0  0  0  0  0
  146.3845  144.7916  160.1877 C   0  0  0  0  0  0  0  0  0  0  0  0
  147.6198  144.9300  159.6367 N   0  0  0  0  0  0  0  0  0  0  0  0
  148.8186  144.5842  160.1371 C   0  0  0  0  0  0  0  0  0  0  0  0
  149.0223  144.1619  161.2749 O   0  0  0  0  0  0  0  0  0  0  0  0
  149.7868  144.7764  159.2252 N   0  0  0  0  0  0  0  0  0  0  0  0
  151.2295  144.5279  159.3531 C   0  0  1  0  0  0  0  0  0  0  0  0
  151.8813  144.8957  158.0071 C   0  0  0  0  0  0  0  0  0  0  0  0
  151.8761  145.3248  160.4996 C   0  0  0  0  0  0  0  0  0  0  0  0
  152.3996  144.2545  161.4555 C   0  0  0  0  0  0  0  0  0  0  0  0
  152.6472  143.1471  160.6067 O   0  0  0  0  0  0  0  0  0  0  0  0
  151.5451  143.0605  159.7175 C   0  0  0  0  0  0  0  0  0  0  0  0
  146.0238  143.9121  161.6656 S   0  0  0  0  0  0  0  0  0  0  0  0
  142.3025  144.2585  162.1591 H   0  0  0  0  0  0  0  0  0  0  0  0
  143.5284  144.1141  163.4300 H   0  0  0  0  0  0  0  0  0  0  0  0
  143.1801  142.7341  162.3739 H   0  0  0  0  0  0  0  0  0  0  0  0
  145.9724  145.9389  157.7592 H   0  0  0  0  0  0  0  0  0  0  0  0
  144.2501  145.7566  157.7894 H   0  0  0  0  0  0  0  0  0  0  0  0
  143.9242  147.8107  158.9704 H   0  0  0  0  0  0  0  0  0  0  0  0
  146.1795  148.2893  156.9595 H   0  0  0  0  0  0  0  0  0  0  0  0
  145.0848  149.5255  157.5732 H   0  0  0  0  0  0  0  0  0  0  0  0
  144.4590  148.2163  156.5869 H   0  0  0  0  0  0  0  0  0  0  0  0
  146.9252  147.9276  159.5075 H   0  0  0  0  0  0  0  0  0  0  0  0
  145.6790  147.5330  160.6892 H   0  0  0  0  0  0  0  0  0  0  0  0
  145.7425  149.1429  159.9855 H   0  0  0  0  0  0  0  0  0  0  0  0
  147.6286  145.3173  158.7046 H   0  0  0  0  0  0  0  0  0  0  0  0
  149.4926  145.1332  158.3280 H   0  0  0  0  0  0  0  0  0  0  0  0
  152.9553  144.7052  158.0208 H   0  0  0  0  0  0  0  0  0  0  0  0
  151.7363  145.9506  157.7708 H   0  0  0  0  0  0  0  0  0  0  0  0
  151.4574  144.3129  157.1884 H   0  0  0  0  0  0  0  0  0  0  0  0
  152.7151  145.9174  160.1327 H   0  0  0  0  0  0  0  0  0  0  0  0
  151.1988  146.0178  160.9997 H   0  0  0  0  0  0  0  0  0  0  0  0
  153.3009  144.5670  161.9833 H   0  0  0  0  0  0  0  0  0  0  0  0
  151.6447  143.9862  162.1959 H   0  0  0  0  0  0  0  0  0  0  0  0
  150.7240  142.5673  160.2386 H   0  0  0  0  0  0  0  0  0  0  0  0
  151.7902  142.4470  158.8500 H   0  0  0  0  0  0  0  0  0  0  0  0
  1  2  1  0  0  0  0
  1 21  1  0  0  0  0
  1 22  1  0  0  0  0
  1 23  1  0  0  0  0
  2 20  1  0  0  0  0
  2  3  2  0  0  0  0
  3  4  1  0  0  0  0
  4  5  1  0  0  0  0
  4  9  2  0  0  0  0
  5  6  1  0  0  0  0
  5 24  1  0  0  0  0
  5 25  1  0  0  0  0
  6  7  1  0  0  0  0
  6  8  1  0  0  0  0
  6 26  1  0  0  0  0
  7 27  1  0  0  0  0
  7 28  1  0  0  0  0
  7 29  1  0  0  0  0
  8 30  1  0  0  0  0
  8 31  1  0  0  0  0
  8 32  1  0  0  0  0
  9 10  1  0  0  0  0
  9 20  1  0  0  0  0
 10 11  1  0  0  0  0
 10 33  1  0  0  0  0
 11 12  2  0  0  0  0
 11 13  1  0  0  0  0
 13 14  1  0  0  0  0
 13 34  1  0  0  0  0
 14 19  1  0  0  0  0
 14 15  1  0  0  0  0
 14 16  1  0  0  0  0
 15 35  1  0  0  0  0
 15 36  1  0  0  0  0
 15 37  1  0  0  0  0
 16 17  1  0  0  0  0
 16 38  1  0  0  0  0
 16 39  1  0  0  0  0
 17 18  1  0  0  0  0
 17 40  1  0  0  0  0
 17 41  1  0  0  0  0
 18 19  1  0  0  0  0
 19 42  1  0  0  0  0
 19 43  1  0  0  0  0
M  END
> <s_m_source_file>
AV-unprocessed.smi

> <i_m_source_file_index>
2853

> <i_lp_mmshare_version>
43012

> <i_f3d_flags>
0

> <s_epik_input>
W0NIM11jMW5jKFtDSDJdW0NIXShbQ0gzXSlbQ0gzXSljKHMxKVtOSF1DKD1PKVtOSF1bQ0BAXTIoW0NIM10pW0NIMl1bQ0gyXU9bQ0gyXTI=

> <s_epik_cmdline>
J2VwaWtfcHl0aG9uJywgJy1waCcsICc3LjAnLCAnLXRuJywgJzgnLCAnLW1hJywgJzIwMCcsICctbWV0YWxfYmluZGluZycsICctaW1hZScsICc8aW5maWxlLm1hZT4nLCAnLW9tYWUnLCAnPG91dGZpbGUubWFlPic=

> <r_epik_Ionization_Penalty>
0.000723394

> <r_epik_Ionization_Penalty_Charging>
0

> <r_epik_Ionization_Penalty_Neutral>
0.000723394

> <r_epik_State_Penalty>
0.000446791

> <r_epik_Charging_Adjusted_Penalty>
0.000446791

> <i_epik_Tot_Q>
0

> <i_epik_Tot_abs_Q>
0

> <r_epik_Metal_State_Penalty>
-0

> <b_epik_Metal_Only>
0

> <s_lp_Force_Field>
OPLS_2005

> <r_lp_Energy>
15.1609

> <b_lp_Chiralities_Consistent>
1

> <s_lp_Variant>
AV-unprocessed.smi:2853-1

> <Gold.Version>
5.8.1

> <Gold.Id.Protein>
6NUR|6NUR_protein|mol2

> <Gold.PLP.Fitness>
49.3705

> <Gold.PLP.PLP>
-42.7959

> <Gold.PLP.part.hbond>
-3.0000

> <Gold.PLP.part.metal>
0.0000

> <Gold.PLP.part.buried>
-6.7104

> <Gold.PLP.part.nonpolar>
-33.2079

> <Gold.PLP.part.repulsive>
0.6159

> <Gold.PLP.ligand.clash>
0.0000

> <Gold.PLP.ligand.torsion>
0.4297

> <Gold.PLP.Chemscore.Hbond>
2.4642

> <Gold.PLP.Chemscore.CHOScore>
0.0000

> <Gold.PLP.Chemscore.Metal>
0.0000

> <Gold.Chemscore.Hbonds>
donor molecule, donor type, donor heavy atom, donor atom, acceptor molecule, acceptor atom, score
      L1  H    10    33       P1  8029  1.00
      L1  H    13    34       P1  8029  0.83
      P1  H  6933  6944       L1    12  0.58

> <Gold.PLP.Chemscore.Internal.Correction>
0.0416

> <Gold.Rescore>
     Score         DG    S(hbond)    S(metal)    S(lipo)     H(rot)  DE(clash)    DE(int)     intcor
     22.42     -23.54       2.44        0.00     112.48       1.28       0.08       1.05       ----

> <Gold.Chemscore.Fitness>
22.4196

> <Gold.Chemscore.DG>
-23.5412

> <Gold.Chemscore.ZeroCoef>
-5.4800

> <Gold.Chemscore.Hbond>
2.4449

> <Gold.Chemscore.Metal>
0.0000

> <Gold.Chemscore.Lipo>
112.4788

> <Gold.Chemscore.Internal_Hbond>
0.0000

> <Gold.Chemscore.DEClash>
0.0764

> <Gold.Chemscore.DEInternal>
1.0451

> <Gold.Chemscore.Rot>
1.2753

> <Gold.Chemscore.Internal.Correction>
   9.000000E+99

> <Gold.Chemscore.Hbonds>
donor molecule, donor type, donor heavy atom, donor atom, acceptor molecule, acceptor atom, score
      L1  H    10    33       P1  8029  0.97
      L1  H    13    34       P1  8029  0.42
      P1  H  6933  6944       L1    12  0.50

> <Gold.Chemscore.Hbond.Weighted>
-8.1658

> <Gold.Chemscore.Metal.Weighted>
-0.0000

> <Gold.Chemscore.Lipo.Weighted>
-13.1600

> <Gold.Chemscore.Internal_Hbond.Weighted>
0.0000

> <Gold.Chemscore.DEClash.Weighted>
0.0764

> <Gold.Chemscore.DEInternal.Weighted>
1.0451

> <Gold.Chemscore.Rot.Weighted>
3.2646

> <Gold.Chemscore.Internal.Correction.Weighted>
   9.000000E+99

> <Gold.Protein.RotatedTorsions>
[ 6907 6896 6895 6894 ] final   84.99 input  -60.11 | X-H torsion
[ 7974 7965 7964 7962 ] final   39.69 input  175.53 | X-H torsion
[ 8008 7997 7996 7995 ] final -104.35 input   59.86 | X-H torsion
[ 10167 10162 10161 10158 ] final   57.40 input  -65.29 | X-H torsion
[ 10718 10713 10712 10709 ] final -134.82 input   66.30 | X-H torsion
[ 10763 10752 10751 10750 ] final  119.47 input  -60.55 | X-H torsion
[ 11005 11000 10999 10996 ] final  147.96 input  -57.11 | X-H torsion

> <Gold.Protein.ActiveResidues>
 VAL166  LYS551  ARG553  GLY616  TRP617  ASP618  TYR619  PRO620  LYS621  CYS622 
 ASP623  PHE694  ASN695  SER759  ASP760  ASP761  ALA762  ILE779  LEU786  VAL792 
 PHE793  MET794  SER795  GLU796  ALA797  LYS798  CYS799  TRP800  GLU811  SER814 

> <Gold.Protein.RotatedAtoms>
  152.5365  134.2655  159.8951 H   0  0  0  0  0  0  0  0  0  0  0  0  # atno 6907 bound_to 6896
  151.2614  133.4294  159.2624 H   0  0  0  0  0  0  0  0  0  0  0  0  # atno 6908 bound_to 6896
  151.0450  134.9648  159.8238 H   0  0  0  0  0  0  0  0  0  0  0  0  # atno 6909 bound_to 6896
  146.0964  139.5622  142.9442 H   0  0  0  0  0  0  0  0  0  0  0  0  # atno 7974 bound_to 7965
  154.8840  140.0418  157.1799 H   0  0  0  0  0  0  0  0  0  0  0  0  # atno 8008 bound_to 7997
  154.8610  140.2944  155.5518 H   0  0  0  0  0  0  0  0  0  0  0  0  # atno 8009 bound_to 7997
  156.2998  140.2447  156.3584 H   0  0  0  0  0  0  0  0  0  0  0  0  # atno 8010 bound_to 7997
  140.1984  144.4013  150.6540 H   0  0  0  0  0  0  0  0  0  0  0  0  # atno 10167 bound_to 10162
  156.2595  130.7201  151.1130 H   0  0  0  0  0  0  0  0  0  0  0  0  # atno 10718 bound_to 10713
  153.5835  135.3479  155.2884 H   0  0  0  0  0  0  0  0  0  0  0  0  # atno 10763 bound_to 10752
  154.8664  135.4187  154.2595 H   0  0  0  0  0  0  0  0  0  0  0  0  # atno 10764 bound_to 10752
  153.3386  135.7048  153.6957 H   0  0  0  0  0  0  0  0  0  0  0  0  # atno 10765 bound_to 10752
  140.0920  134.9035  157.1665 H   0  0  0  0  0  0  0  0  0  0  0  0  # atno 11005 bound_to 11000
  145.5939  141.0365  143.2055 LP  0  0  0  0  0  0  0  0  0  0  0  0  # atno 17320 bound_to 7965
  144.7399  139.7479  143.7315 LP  0  0  0  0  0  0  0  0  0  0  0  0  # atno 17321 bound_to 7965
  140.6407  143.2203  151.6295 LP  0  0  0  0  0  0  0  0  0  0  0  0  # atno 17342 bound_to 10162
  139.5227  144.3155  152.0956 LP  0  0  0  0  0  0  0  0  0  0  0  0  # atno 17343 bound_to 10162
  157.7245  131.0659  150.5992 LP  0  0  0  0  0  0  0  0  0  0  0  0  # atno 17370 bound_to 10713
  156.6078  130.4372  149.5871 LP  0  0  0  0  0  0  0  0  0  0  0  0  # atno 17371 bound_to 10713
  140.3339  134.2779  155.7223 LP  0  0  0  0  0  0  0  0  0  0  0  0  # atno 17394 bound_to 11000
  141.2080  133.7788  157.0082 LP  0  0  0  0  0  0  0  0  0  0  0  0  # atno 17395 bound_to 11000

$$$$
