AV-unprocessed.smi:3037|AV-procd|sdf|11587|dock9
  -GOLD-   2272016563D 1   1.00000     0.00000
 Structure written by MMmdl.
 47 48  0  0  0  0  0  0  0  0  2 V2000
  145.1145  131.9468  150.9152 C   0  0  0  0  0  0  0  0  0  0  0  0
  144.8633  133.3602  151.3552 C   0  0  0  0  0  0  0  0  0  0  0  0
  145.4121  134.5570  150.8128 C   0  0  0  0  0  0  0  0  0  0  0  0
  144.9839  135.6455  151.4314 N   0  0  0  0  0  0  0  0  0  0  0  0
  144.1511  135.1838  152.3879 N   0  0  0  0  0  0  0  0  0  0  0  0
  143.4837  136.1157  153.2789 C   0  0  0  0  0  0  0  0  0  0  0  0
  142.3458  135.4581  154.0932 C   0  0  1  0  0  0  0  0  0  0  0  0
  141.3258  134.7246  153.2057 C   0  0  0  0  0  0  0  0  0  0  0  0
  142.8882  134.5106  155.0924 N   0  3  0  0  0  0  0  0  0  0  0  0
  144.0183  135.0164  155.8998 C   0  0  0  0  0  0  0  0  0  0  0  0
  144.4029  134.0042  156.9938 C   0  0  0  0  0  0  0  0  0  0  0  0
  143.4273  133.9729  158.1837 C   0  0  0  0  0  0  0  0  0  0  0  0
  142.8298  135.0061  158.4887 O   0  0  0  0  0  0  0  0  0  0  0  0
  143.2503  132.8097  158.8574 N   0  0  0  0  0  0  0  0  0  0  0  0
  142.2762  132.6655  159.9481 C   0  0  0  0  0  0  0  0  0  0  0  0
  141.1274  131.7557  159.4745 C   0  0  0  0  0  0  0  0  0  0  0  0
  141.6639  130.3954  158.9910 C   0  0  0  0  0  0  0  0  0  0  0  0
  142.8134  130.5656  157.9803 C   0  0  0  0  0  0  0  0  0  0  0  0
  143.8853  131.5257  158.5267 C   0  0  0  0  0  0  0  0  0  0  0  0
  144.0576  133.8086  152.3631 C   0  0  0  0  0  0  0  0  0  0  0  0
  145.8982  131.8904  150.1595 H   0  0  0  0  0  0  0  0  0  0  0  0
  144.2204  131.4953  150.4851 H   0  0  0  0  0  0  0  0  0  0  0  0
  145.4256  131.3156  151.7479 H   0  0  0  0  0  0  0  0  0  0  0  0
  146.1052  134.6658  149.9918 H   0  0  0  0  0  0  0  0  0  0  0  0
  144.2252  136.5510  153.9513 H   0  0  0  0  0  0  0  0  0  0  0  0
  143.1021  136.9342  152.6690 H   0  0  0  0  0  0  0  0  0  0  0  0
  141.8025  136.2371  154.6301 H   0  0  0  0  0  0  0  0  0  0  0  0
  140.8158  135.4091  152.5275 H   0  0  0  0  0  0  0  0  0  0  0  0
  140.5567  134.2414  153.8092 H   0  0  0  0  0  0  0  0  0  0  0  0
  141.8075  133.9548  152.6019 H   0  0  0  0  0  0  0  0  0  0  0  0
  142.1408  134.2874  155.7343 H   0  0  0  0  0  0  0  0  0  0  0  0
  144.8748  135.2084  155.2530 H   0  0  0  0  0  0  0  0  0  0  0  0
  143.7321  135.9670  156.3530 H   0  0  0  0  0  0  0  0  0  0  0  0
  144.4458  133.0072  156.5532 H   0  0  0  0  0  0  0  0  0  0  0  0
  145.4005  134.2405  157.3661 H   0  0  0  0  0  0  0  0  0  0  0  0
  142.7688  132.2265  160.8168 H   0  0  0  0  0  0  0  0  0  0  0  0
  141.8733  133.6202  160.2885 H   0  0  0  0  0  0  0  0  0  0  0  0
  140.4083  131.6079  160.2806 H   0  0  0  0  0  0  0  0  0  0  0  0
  140.5868  132.2447  158.6629 H   0  0  0  0  0  0  0  0  0  0  0  0
  142.0270  129.8304  159.8505 H   0  0  0  0  0  0  0  0  0  0  0  0
  140.8586  129.8054  158.5525 H   0  0  0  0  0  0  0  0  0  0  0  0
  143.2572  129.5956  157.7545 H   0  0  0  0  0  0  0  0  0  0  0  0
  142.4204  130.9538  157.0397 H   0  0  0  0  0  0  0  0  0  0  0  0
  144.7046  131.6084  157.8146 H   0  0  0  0  0  0  0  0  0  0  0  0
  144.3313  131.1066  159.4298 H   0  0  0  0  0  0  0  0  0  0  0  0
  143.4328  133.2678  153.0586 H   0  0  0  0  0  0  0  0  0  0  0  0
  143.1673  133.6624  154.6201 H   0  0  0  0  0  0  0  0  0  0  0  0
  1  2  1  0  0  0  0
  1 21  1  0  0  0  0
  1 22  1  0  0  0  0
  1 23  1  0  0  0  0
  2 20  2  0  0  0  0
  2  3  1  0  0  0  0
  3  4  2  0  0  0  0
  3 24  1  0  0  0  0
  4  5  1  0  0  0  0
  5  6  1  0  0  0  0
  5 20  1  0  0  0  0
  6  7  1  0  0  0  0
  6 25  1  0  0  0  0
  6 26  1  0  0  0  0
  7  8  1  0  0  0  0
  7  9  1  0  0  0  0
  7 27  1  0  0  0  0
  8 28  1  0  0  0  0
  8 29  1  0  0  0  0
  8 30  1  0  0  0  0
  9 10  1  0  0  0  0
  9 31  1  0  0  0  0
  9 47  1  0  0  0  0
 10 11  1  0  0  0  0
 10 32  1  0  0  0  0
 10 33  1  0  0  0  0
 11 12  1  0  0  0  0
 11 34  1  0  0  0  0
 11 35  1  0  0  0  0
 12 13  2  0  0  0  0
 12 14  1  0  0  0  0
 14 19  1  0  0  0  0
 14 15  1  0  0  0  0
 15 16  1  0  0  0  0
 15 36  1  0  0  0  0
 15 37  1  0  0  0  0
 16 17  1  0  0  0  0
 16 38  1  0  0  0  0
 16 39  1  0  0  0  0
 17 18  1  0  0  0  0
 17 40  1  0  0  0  0
 17 41  1  0  0  0  0
 18 19  1  0  0  0  0
 18 42  1  0  0  0  0
 18 43  1  0  0  0  0
 19 44  1  0  0  0  0
 19 45  1  0  0  0  0
 20 46  1  0  0  0  0
M  CHG  1   9   1
M  END
> <s_m_source_file>
AV-unprocessed.smi

> <i_m_source_file_index>
3037

> <i_lp_mmshare_version>
43012

> <i_f3d_flags>
0

> <s_epik_input>
W0NIM11jMVtjSF1ubihbY0hdMSlbQ0gyXVtDQEhdKFtDSDNdKVtOSF1bQ0gyXVtDSDJdQyg9TylOMltDSDJdW0NIMl1bQ0gyXVtDSDJdW0NIMl0y

> <s_epik_cmdline>
J2VwaWtfcHl0aG9uJywgJy1waCcsICc3LjAnLCAnLXRuJywgJzgnLCAnLW1hJywgJzIwMCcsICctbWV0YWxfYmluZGluZycsICctaW1hZScsICc8aW5maWxlLm1hZT4nLCAnLW9tYWUnLCAnPG91dGZpbGUubWFlPic=

> <r_lp_tautomer_probability>
1

> <r_epik_Ionization_Penalty>
0.00574983

> <r_epik_Ionization_Penalty_Charging>
0.00574185

> <r_epik_Ionization_Penalty_Neutral>
7.97936e-06

> <r_epik_State_Penalty>
0.00421386

> <r_epik_Charging_Adjusted_Penalty>
0.00995571

> <i_epik_Tot_Q>
1

> <i_epik_Tot_abs_Q>
1

> <r_epik_Metal_State_Penalty>
-0

> <b_epik_Metal_Only>
0

> <s_lp_Force_Field>
OPLS_2005

> <r_lp_Energy>
26.5412

> <b_lp_Chiralities_Consistent>
1

> <s_lp_Variant>
AV-unprocessed.smi:3037-2

> <Gold.Version>
5.8.1

> <Gold.Id.Protein>
6NUR|6NUR_protein|mol2

> <Gold.PLP.Fitness>
44.2663

> <Gold.PLP.PLP>
-32.4120

> <Gold.PLP.part.hbond>
-2.5385

> <Gold.PLP.part.metal>
0.0000

> <Gold.PLP.part.buried>
-6.3101

> <Gold.PLP.part.nonpolar>
-23.0582

> <Gold.PLP.part.repulsive>
0.2190

> <Gold.PLP.ligand.clash>
0.0000

> <Gold.PLP.ligand.torsion>
0.6766

> <Gold.PLP.Chemscore.Hbond>
2.3760

> <Gold.PLP.Chemscore.CHOScore>
2.0000

> <Gold.PLP.Chemscore.Metal>
0.0000

> <Gold.Chemscore.Hbonds>
donor molecule, donor type, donor heavy atom, donor atom, acceptor molecule, acceptor atom, score
      L1  H     9    31       P1 11000  1.00
      L1  H     9    47       P1 10957  1.34
      L1  C     3    24       P1  7921  1.00
      L1  C    20    46       P1 10957  1.00

> <Gold.PLP.Chemscore.Internal.Correction>
0.0796

> <Gold.Rescore>
     Score         DG    S(hbond)    S(metal)    S(lipo)     H(rot)  DE(clash)    DE(int)     intcor
     12.10     -14.56       1.71        0.00      69.06       1.84       0.03       2.43       ----

> <Gold.Chemscore.Fitness>
12.0966

> <Gold.Chemscore.DG>
-14.5614

> <Gold.Chemscore.ZeroCoef>
-5.4800

> <Gold.Chemscore.Hbond>
1.7088

> <Gold.Chemscore.Metal>
0.0000

> <Gold.Chemscore.Lipo>
69.0627

> <Gold.Chemscore.Internal_Hbond>
0.0000

> <Gold.Chemscore.DEClash>
0.0333

> <Gold.Chemscore.DEInternal>
2.4315

> <Gold.Chemscore.Rot>
1.8383

> <Gold.Chemscore.Internal.Correction>
   9.000000E+99

> <Gold.Chemscore.Hbonds>
donor molecule, donor type, donor heavy atom, donor atom, acceptor molecule, acceptor atom, score
      L1  H     9    31       P1 11000  0.53
      L1  H     9    47       P1 10957  0.67

> <Gold.Chemscore.Hbond.Weighted>
-5.7072

> <Gold.Chemscore.Metal.Weighted>
-0.0000

> <Gold.Chemscore.Lipo.Weighted>
-8.0803

> <Gold.Chemscore.Internal_Hbond.Weighted>
0.0000

> <Gold.Chemscore.DEClash.Weighted>
0.0333

> <Gold.Chemscore.DEInternal.Weighted>
2.4315

> <Gold.Chemscore.Rot.Weighted>
4.7062

> <Gold.Chemscore.Internal.Correction.Weighted>
   9.000000E+99

> <Gold.Protein.RotatedTorsions>
[ 6907 6896 6895 6894 ] final  -35.47 input  -60.11 | X-H torsion
[ 7974 7965 7964 7962 ] final   10.99 input  175.53 | X-H torsion
[ 8008 7997 7996 7995 ] final   -9.55 input   59.86 | X-H torsion
[ 10167 10162 10161 10158 ] final    2.81 input  -65.29 | X-H torsion
[ 10718 10713 10712 10709 ] final  -87.45 input   66.30 | X-H torsion
[ 10763 10752 10751 10750 ] final   93.72 input  -60.55 | X-H torsion
[ 11005 11000 10999 10996 ] final  172.12 input  -57.11 | X-H torsion

> <Gold.Protein.ActiveResidues>
 VAL166  LYS551  ARG553  GLY616  TRP617  ASP618  TYR619  PRO620  LYS621  CYS622 
 ASP623  PHE694  ASN695  SER759  ASP760  ASP761  ALA762  ILE779  LEU786  VAL792 
 PHE793  MET794  SER795  GLU796  ALA797  LYS798  CYS799  TRP800  GLU811  SER814 

> <Gold.Protein.RotatedAtoms>
  151.0393  134.9596  159.8152 H   0  0  0  0  0  0  0  0  0  0  0  0  # atno 6907 bound_to 6896
  152.5361  134.2678  159.8970 H   0  0  0  0  0  0  0  0  0  0  0  0  # atno 6908 bound_to 6896
  151.2690  133.4222  159.2654 H   0  0  0  0  0  0  0  0  0  0  0  0  # atno 6909 bound_to 6896
  146.2379  139.9552  142.8465 H   0  0  0  0  0  0  0  0  0  0  0  0  # atno 7974 bound_to 7965
  154.5636  140.2352  155.8297 H   0  0  0  0  0  0  0  0  0  0  0  0  # atno 8008 bound_to 7997
  156.2050  140.3042  155.9566 H   0  0  0  0  0  0  0  0  0  0  0  0  # atno 8009 bound_to 7997
  155.2842  140.0424  157.3008 H   0  0  0  0  0  0  0  0  0  0  0  0  # atno 8010 bound_to 7997
  140.6617  143.7286  150.7751 H   0  0  0  0  0  0  0  0  0  0  0  0  # atno 10167 bound_to 10162
  155.9985  130.4800  150.4869 H   0  0  0  0  0  0  0  0  0  0  0  0  # atno 10718 bound_to 10713
  153.2335  135.4315  155.0621 H   0  0  0  0  0  0  0  0  0  0  0  0  # atno 10763 bound_to 10752
  154.8308  135.3385  154.6753 H   0  0  0  0  0  0  0  0  0  0  0  0  # atno 10764 bound_to 10752
  153.7179  135.7019  153.5076 H   0  0  0  0  0  0  0  0  0  0  0  0  # atno 10765 bound_to 10752
  140.3263  134.7394  157.4102 H   0  0  0  0  0  0  0  0  0  0  0  0  # atno 11005 bound_to 11000
  145.1824  140.9773  143.4259 LP  0  0  0  0  0  0  0  0  0  0  0  0  # atno 17320 bound_to 7965
  144.9930  139.3671  143.6205 LP  0  0  0  0  0  0  0  0  0  0  0  0  # atno 17321 bound_to 7965
  140.0956  143.4836  152.2454 LP  0  0  0  0  0  0  0  0  0  0  0  0  # atno 17342 bound_to 10162
  139.5853  144.7528  151.3536 LP  0  0  0  0  0  0  0  0  0  0  0  0  # atno 17343 bound_to 10162
  157.2868  131.0618  151.2160 LP  0  0  0  0  0  0  0  0  0  0  0  0  # atno 17370 bound_to 10713
  157.3187  130.6926  149.6257 LP  0  0  0  0  0  0  0  0  0  0  0  0  # atno 17371 bound_to 10713
  140.0898  134.5616  155.8455 LP  0  0  0  0  0  0  0  0  0  0  0  0  # atno 17394 bound_to 11000
  141.2074  133.6664  156.6305 LP  0  0  0  0  0  0  0  0  0  0  0  0  # atno 17395 bound_to 11000

$$$$
