#       Name:                AV-unprocessed.smi:923
#       Creating user name   scv26
#       Creation time:       Fri Mar 27 02:08:23 2020


#       File generated by GOLD software.
#

@<TRIPOS>MOLECULE
AV-unprocessed.smi:923
    39    40     1
SMALL
NO_CHARGES


@<TRIPOS>ATOM
      1 ****        -6.7697   2.5610  -0.9448 C.3            1 S1                 0.0000
      2 ****        -5.4225   2.3480  -0.3440 C.2            1 S1                 0.0000
      3 ****        -5.2416   2.1113   0.9575 N.2            1 S1                 0.0000
      4 ****        -3.9020   1.9427   1.2768 N.2            1 S1                 0.0000
      5 ****        -3.0913   2.0425   0.2135 C.2            1 S1                 0.0000
      6 ****        -1.7579   1.9092   0.3076 N.pl3          1 S1                -1.0000
      7 ****        -1.1764   0.7220   0.0201 C.2            1 S1                 0.0000
      8 ****        -1.7573  -0.3101  -0.3235 O.2            1 S1                 0.0000
      9 ****         0.1600   0.7334   0.1370 N.am           1 S1                 0.0000
     10 ****         1.0634  -0.3886  -0.1146 C.3            1 S1                 0.0000
     11 ****         1.2013  -1.2257   1.1737 C.3            1 S1                 0.0000
     12 ****         2.1606  -2.4249   1.0795 C.3            1 S1                 0.0000
     13 ****         3.6395  -2.0059   1.0785 C.3            1 S1                 0.0000
     14 ****         4.2256  -1.6596  -0.3012 C.3            1 S1                 0.0000
     15 ****         3.2946  -0.9207  -1.2788 C.3            1 S1                 0.0000
     16 ****         2.3988   0.1632  -0.6554 C.3            1 S1                 0.0000
     17 ****        -3.9449   2.3838  -1.2912 S.3            1 S1                 0.0000
     18 ****        -7.2924   1.6085  -1.0329 H              1 S1                 0.0000
     19 ****        -6.6763   3.0028  -1.9371 H              1 S1                 0.0000
     20 ****        -7.3607   3.2305  -0.3194 H              1 S1                 0.0000
     21 ****         0.5873   1.6014   0.4249 H              1 S1                 0.0000
     22 ****         0.6254  -1.0169  -0.8923 H              1 S1                 0.0000
     23 ****         1.5030  -0.5834   2.0024 H              1 S1                 0.0000
     24 ****         0.2147  -1.6047   1.4438 H              1 S1                 0.0000
     25 ****         1.9907  -3.0497   1.9571 H              1 S1                 0.0000
     26 ****         1.9266  -3.0521   0.2186 H              1 S1                 0.0000
     27 ****         3.7765  -1.1617   1.7554 H              1 S1                 0.0000
     28 ****         4.2378  -2.8123   1.5039 H              1 S1                 0.0000
     29 ****         5.1268  -1.0653  -0.1471 H              1 S1                 0.0000
     30 ****         4.5614  -2.5773  -0.7856 H              1 S1                 0.0000
     31 ****         3.9171  -0.4628  -2.0481 H              1 S1                 0.0000
     32 ****         2.6735  -1.6430  -1.8098 H              1 S1                 0.0000
     33 ****         2.1718   0.8870  -1.4396 H              1 S1                 0.0000
     34 ****         2.9372   0.7187   0.1139 H              1 S1                 0.0000
     35 ****        -5.9851   2.0613   1.6245 LP             1 S1                 0.0000
     36 ****        -3.5747   1.7649   2.2049 LP             1 S1                 0.0000
     37 ****        -1.1958   2.6866   0.5899 LP             1 S1                 0.0000
     38 ****        -2.7534  -0.3176  -0.4115 LP             1 S1                 0.0000
     39 ****        -1.2323  -1.1396  -0.5141 LP             1 S1                 0.0000
@<TRIPOS>BOND
    1    1    2 1     
    2    1   18 1     
    3    1   19 1     
    4    1   20 1     
    5    2   17 1     
    6    2    3 2     
    7    3    4 1     
    8    4    5 2     
    9    5    6 1     
   10    5   17 1     
   11    6    7 1     
   12    7    8 2     
   13    7    9 am    
   14    9   10 1     
   15    9   21 1     
   16   10   16 1     
   17   10   11 1     
   18   10   22 1     
   19   11   12 1     
   20   11   23 1     
   21   11   24 1     
   22   12   13 1     
   23   12   25 1     
   24   12   26 1     
   25   13   14 1     
   26   13   27 1     
   27   13   28 1     
   28   14   15 1     
   29   14   29 1     
   30   14   30 1     
   31   15   16 1     
   32   15   31 1     
   33   15   32 1     
   34   16   33 1     
   35   16   34 1     
   36    3   35 1     
   37    4   36 1     
   38    6   37 1     
   39    8   38 1     
   40    8   39 1     
@<TRIPOS>SUBSTRUCTURE
      1 S1             1
@<TRIPOS>SET
LONE_PAIRS      STATIC     ATOMS    <user>   **** ""
5 35 36 37 38 39
DONOR_HYDROGENS      STATIC     ATOMS    <user>   **** ""
1 21
ATOM$BLUE        STATIC     ATOMS    COLORGROUP SYSTEM
5 35 36 37 38 39
ATOM$RED        STATIC     ATOMS    COLORGROUP SYSTEM
1 21
