#       Name:                AV-unprocessed.smi:157
#       Creating user name   scv26
#       Creation time:       Thu Mar 26 18:58:02 2020


#       File generated by GOLD software.
#

@<TRIPOS>MOLECULE
AV-unprocessed.smi:157
    45    47     1
SMALL
NO_CHARGES


@<TRIPOS>ATOM
      1 ****        -3.1535   1.0229  -3.1221 O.3            1 S1                 0.0000
      2 ****        -2.6579  -0.1824  -2.5790 C.3            1 S1                 0.0000
      3 ****        -1.1349  -0.2602  -2.7650 C.3            1 S1                 0.0000
      4 ****        -0.4960   0.4842  -1.7369 O.3            1 S1                 0.0000
      5 ****         0.7907  -0.0122  -1.6071 C.3            1 S1                 0.0000
      6 ****         1.3305   0.3899  -0.2694 N.pl3          1 S1                 0.0000
      7 ****         2.5225   0.9615  -0.0607 C.2            1 S1                 0.0000
      8 ****         2.7898   1.2315   1.2054 N.2            1 S1                 0.0000
      9 ****         1.6528   0.8026   1.8877 C.2            1 S1                 0.0000
     10 ****         0.7291   0.2831   0.9916 C.2            1 S1                 0.0000
     11 ****        -0.5324  -0.2761   1.0788 N.2            1 S1                 0.0000
     12 ****        -1.2212  -0.0692   2.1563 C.2            1 S1                 0.0000
     13 ****        -0.8674   0.5657   3.3378 N.pl3          1 S1                 0.0000
     14 ****         0.3710   0.2973   4.0484 C.3            1 S1                 0.0000
     15 ****         1.6039   0.9212   3.3839 C.3            1 S1                 0.0000
     16 ****         1.6512   2.2994   3.6918 O.3            1 S1                 0.0000
     17 ****         0.6769  -1.5285  -1.7423 C.3            1 S1                 0.0000
     18 ****        -0.5696  -1.6867  -2.6069 C.3            1 S1                 0.0000
     19 ****        -0.2332  -2.2370  -3.8647 O.3            1 S1                 0.0000
     20 ****        -0.8361   0.1544  -3.7305 H              1 S1                 0.0000
     21 ****         1.4512   0.4390  -2.3498 H              1 S1                 0.0000
     22 ****         2.4959   0.4699   3.8197 H              1 S1                 0.0000
     23 ****        -1.2802  -2.3452  -2.1055 H              1 S1                 0.0000
     24 ****        -4.0883   1.0512  -2.9874 H              1 S1                 0.0000
     25 ****        -2.9326  -0.2683  -1.5270 H              1 S1                 0.0000
     26 ****        -3.1427  -1.0020  -3.1100 H              1 S1                 0.0000
     27 ****         3.2165   1.1800  -0.8590 H              1 S1                 0.0000
     28 ****        -2.2465  -0.4400   2.1940 H              1 S1                 0.0000
     29 ****        -1.6014   0.8448   3.9726 H              1 S1                 0.0000
     30 ****         0.2821   0.6238   5.0850 H              1 S1                 0.0000
     31 ****         0.4989  -0.7858   4.0801 H              1 S1                 0.0000
     32 ****         2.4476   2.6562   3.3286 H              1 S1                 0.0000
     33 ****         1.5881  -1.9416  -2.1768 H              1 S1                 0.0000
     34 ****         0.5189  -1.9883  -0.7665 H              1 S1                 0.0000
     35 ****         0.3751  -1.6550  -4.2940 H              1 S1                 0.0000
     36 ****        -2.9526   1.0593  -4.1011 LP             1 S1                 0.0000
     37 ****        -2.7232   1.8010  -2.6645 LP             1 S1                 0.0000
     38 ****        -0.9932   0.3752  -0.8762 LP             1 S1                 0.0000
     39 ****        -0.4657   1.4527  -1.9841 LP             1 S1                 0.0000
     40 ****         3.6162   1.6471   1.5854 LP             1 S1                 0.0000
     41 ****        -0.9032  -0.8256   0.3301 LP             1 S1                 0.0000
     42 ****         1.6457   2.4250   4.6838 LP             1 S1                 0.0000
     43 ****         0.8600   2.7627   3.2927 LP             1 S1                 0.0000
     44 ****        -1.0579  -2.3337  -4.4220 LP             1 S1                 0.0000
     45 ****         0.1905  -3.1339  -3.7380 LP             1 S1                 0.0000
@<TRIPOS>BOND
    1    1    2 1     
    2    1   24 1     
    3    2    3 1     
    4    2   25 1     
    5    2   26 1     
    6    3   20 1     
    7    3   18 1     
    8    3    4 1     
    9    4    5 1     
   10    5   21 1     
   11    5    6 1     
   12    5   17 1     
   13    6   10 1     
   14    6    7 1     
   15    7    8 2     
   16    7   27 1     
   17    8    9 1     
   18    9   15 1     
   19    9   10 2     
   20   10   11 1     
   21   11   12 2     
   22   12   13 1     
   23   12   28 1     
   24   13   14 1     
   25   13   29 1     
   26   14   15 1     
   27   14   30 1     
   28   14   31 1     
   29   15   22 1     
   30   15   16 1     
   31   16   32 1     
   32   17   18 1     
   33   17   33 1     
   34   17   34 1     
   35   18   23 1     
   36   18   19 1     
   37   19   35 1     
   38    1   36 1     
   39    1   37 1     
   40    4   38 1     
   41    4   39 1     
   42    8   40 1     
   43   11   41 1     
   44   16   42 1     
   45   16   43 1     
   46   19   44 1     
   47   19   45 1     
@<TRIPOS>SUBSTRUCTURE
      1 S1             1
@<TRIPOS>SET
LONE_PAIRS      STATIC     ATOMS    <user>   **** ""
10 36 37 38 39 40 41 42 43 44 45
DONOR_HYDROGENS      STATIC     ATOMS    <user>   **** ""
4 24 29 32 35
ATOM$BLUE        STATIC     ATOMS    COLORGROUP SYSTEM
10 36 37 38 39 40 41 42 43 44 45
ATOM$RED        STATIC     ATOMS    COLORGROUP SYSTEM
4 24 29 32 35
