AV-unprocessed.smi:1554|AV-procd|sdf|6255|dock2
  -GOLD-   22720 6443D 1   1.00000     0.00000
 Structure written by MMmdl.
 48 50  0  0  0  0  0  0  0  0  2 V2000
  152.2041  144.0991  159.9816 C   0  0  0  0  0  0  0  0  0  0  0  0
  151.9547  142.9882  158.9756 C   0  0  0  0  0  0  0  0  0  0  0  0
  151.1464  143.2664  157.8503 C   0  0  0  0  0  0  0  0  0  0  0  0
  150.9379  142.2305  156.9475 C   0  0  0  0  0  0  0  0  0  0  0  0
  150.2064  142.1878  155.7588 N   0  3  0  0  0  0  0  0  0  0  0  0
  150.2959  140.9428  155.2146 C   0  0  0  0  0  0  0  0  0  0  0  0
  151.0731  140.1890  156.0386 N   0  0  0  0  0  0  0  0  0  0  0  0
  151.4800  138.7815  155.9145 C   0  0  0  0  0  0  0  0  0  0  0  0
  150.6902  138.0208  154.8312 C   0  0  1  0  0  0  0  0  0  0  0  0
  151.5424  137.0937  154.1884 O   0  0  0  0  0  0  0  0  0  0  0  0
  149.5011  137.2493  155.4373 C   0  0  0  0  0  0  0  0  0  0  0  0
  148.9212  136.2100  154.5845 N   0  0  0  0  0  0  0  0  0  0  0  0
  147.4713  136.0969  154.7319 C   0  0  0  0  0  0  0  0  0  0  0  0
  146.8908  134.9787  153.8491 C   0  0  0  0  0  0  0  0  0  0  0  0
  147.5339  133.7452  154.1526 O   0  0  0  0  0  0  0  0  0  0  0  0
  148.9466  133.7960  153.9739 C   0  0  2  0  0  0  0  0  0  0  0  0
  149.5262  132.4198  154.3181 C   0  0  0  0  0  0  0  0  0  0  0  0
  149.5251  134.9116  154.8658 C   0  0  0  0  0  0  0  0  0  0  0  0
  151.4982  140.9516  157.1333 C   0  0  0  0  0  0  0  0  0  0  0  0
  152.2977  140.6616  158.2364 C   0  0  0  0  0  0  0  0  0  0  0  0
  152.5246  141.7025  159.1649 C   0  0  0  0  0  0  0  0  0  0  0  0
  153.3948  141.4149  160.3766 C   0  0  0  0  0  0  0  0  0  0  0  0
  151.6698  145.0101  159.7107 H   0  0  0  0  0  0  0  0  0  0  0  0
  153.2666  144.3384  160.0319 H   0  0  0  0  0  0  0  0  0  0  0  0
  151.8686  143.8001  160.9747 H   0  0  0  0  0  0  0  0  0  0  0  0
  150.7107  144.2432  157.6982 H   0  0  0  0  0  0  0  0  0  0  0  0
  149.8332  140.6129  154.2956 H   0  0  0  0  0  0  0  0  0  0  0  0
  152.5544  138.7310  155.7345 H   0  0  0  0  0  0  0  0  0  0  0  0
  151.3130  138.3160  156.8867 H   0  0  0  0  0  0  0  0  0  0  0  0
  150.3460  138.7425  154.0915 H   0  0  0  0  0  0  0  0  0  0  0  0
  151.2252  136.9620  153.3073 H   0  0  0  0  0  0  0  0  0  0  0  0
  149.8360  136.7994  156.3735 H   0  0  0  0  0  0  0  0  0  0  0  0
  148.7189  137.9575  155.7151 H   0  0  0  0  0  0  0  0  0  0  0  0
  147.2190  135.9002  155.7750 H   0  0  0  0  0  0  0  0  0  0  0  0
  146.9848  137.0333  154.4632 H   0  0  0  0  0  0  0  0  0  0  0  0
  145.8200  134.8742  154.0244 H   0  0  0  0  0  0  0  0  0  0  0  0
  147.0207  135.2144  152.7917 H   0  0  0  0  0  0  0  0  0  0  0  0
  149.1635  134.0160  152.9271 H   0  0  0  0  0  0  0  0  0  0  0  0
  150.6088  132.4058  154.1890 H   0  0  0  0  0  0  0  0  0  0  0  0
  149.1047  131.6477  153.6741 H   0  0  0  0  0  0  0  0  0  0  0  0
  149.3085  132.1478  155.3513 H   0  0  0  0  0  0  0  0  0  0  0  0
  150.6039  134.9675  154.7149 H   0  0  0  0  0  0  0  0  0  0  0  0
  149.3711  134.6536  155.9150 H   0  0  0  0  0  0  0  0  0  0  0  0
  152.7364  139.6851  158.3785 H   0  0  0  0  0  0  0  0  0  0  0  0
  153.8052  140.4050  160.3424 H   0  0  0  0  0  0  0  0  0  0  0  0
  152.8132  141.5082  161.2939 H   0  0  0  0  0  0  0  0  0  0  0  0
  154.2323  142.1113  160.4238 H   0  0  0  0  0  0  0  0  0  0  0  0
  149.6846  142.9506  155.3464 H   0  0  0  0  0  0  0  0  0  0  0  0
  1  2  1  0  0  0  0
  1 23  1  0  0  0  0
  1 24  1  0  0  0  0
  1 25  1  0  0  0  0
  2 21  1  0  0  0  0
  2  3  2  0  0  0  0
  3  4  1  0  0  0  0
  3 26  1  0  0  0  0
  4 19  2  0  0  0  0
  4  5  1  0  0  0  0
  5  6  2  0  0  0  0
  5 48  1  0  0  0  0
  6  7  1  0  0  0  0
  6 27  1  0  0  0  0
  7  8  1  0  0  0  0
  7 19  1  0  0  0  0
  8  9  1  0  0  0  0
  8 28  1  0  0  0  0
  8 29  1  0  0  0  0
  9 10  1  0  0  0  0
  9 11  1  0  0  0  0
  9 30  1  0  0  0  0
 10 31  1  0  0  0  0
 11 12  1  0  0  0  0
 11 32  1  0  0  0  0
 11 33  1  0  0  0  0
 12 18  1  0  0  0  0
 12 13  1  0  0  0  0
 13 14  1  0  0  0  0
 13 34  1  0  0  0  0
 13 35  1  0  0  0  0
 14 15  1  0  0  0  0
 14 36  1  0  0  0  0
 14 37  1  0  0  0  0
 15 16  1  0  0  0  0
 16 17  1  0  0  0  0
 16 18  1  0  0  0  0
 16 38  1  0  0  0  0
 17 39  1  0  0  0  0
 17 40  1  0  0  0  0
 17 41  1  0  0  0  0
 18 42  1  0  0  0  0
 18 43  1  0  0  0  0
 19 20  1  0  0  0  0
 20 21  2  0  0  0  0
 20 44  1  0  0  0  0
 21 22  1  0  0  0  0
 22 45  1  0  0  0  0
 22 46  1  0  0  0  0
 22 47  1  0  0  0  0
M  CHG  1   5   1
M  END
> <s_m_source_file>
AV-unprocessed.smi

> <i_m_source_file_index>
1554

> <i_lp_mmshare_version>
43012

> <i_f3d_flags>
0

> <s_epik_input>
W0NIM11jKFtjSF0xKWMoW0NIM10pW2NIXWMoYzEyKW4oW2NIXW4yKVtDSDJdW0NASF0oW09IXSlbQ0gyXU4zW0NIMl1bQ0gyXU9bQ0BASF0oW0NIM10pW0NIMl0z

> <s_epik_cmdline>
J2VwaWtfcHl0aG9uJywgJy1waCcsICc3LjAnLCAnLXRuJywgJzgnLCAnLW1hJywgJzIwMCcsICctbWV0YWxfYmluZGluZycsICctaW1hZScsICc8aW5maWxlLm1hZT4nLCAnLW9tYWUnLCAnPG91dGZpbGUubWFlPic=

> <r_epik_Ionization_Penalty>
1.42504

> <r_epik_Ionization_Penalty_Charging>
1.21068

> <r_epik_Ionization_Penalty_Neutral>
0.214359

> <r_epik_State_Penalty>
1.46962

> <r_epik_Charging_Adjusted_Penalty>
2.6803

> <i_epik_Tot_Q>
1

> <i_epik_Tot_abs_Q>
1

> <r_epik_Metal_State_Penalty>
5.48754

> <b_epik_Metal_Only>
0

> <s_lp_Force_Field>
OPLS_2005

> <r_lp_Energy>
34.6572

> <b_lp_Chiralities_Consistent>
1

> <s_lp_Variant>
AV-unprocessed.smi:1554-16

> <Gold.Version>
5.8.1

> <Gold.Id.Protein>
6NUR|6NUR_protein|mol2

> <Gold.PLP.Fitness>
51.7003

> <Gold.PLP.PLP>
-42.3361

> <Gold.PLP.part.hbond>
-3.0000

> <Gold.PLP.part.metal>
0.0000

> <Gold.PLP.part.buried>
-4.9234

> <Gold.PLP.part.nonpolar>
-35.4796

> <Gold.PLP.part.repulsive>
1.9515

> <Gold.PLP.ligand.clash>
0.0000

> <Gold.PLP.ligand.torsion>
1.2187

> <Gold.PLP.Chemscore.Hbond>
3.9192

> <Gold.PLP.Chemscore.CHOScore>
0.0000

> <Gold.PLP.Chemscore.Metal>
0.0000

> <Gold.Chemscore.Hbonds>
donor molecule, donor type, donor heavy atom, donor atom, acceptor molecule, acceptor atom, score
      L1  H     5    48       P1  8028  1.86
      L1  H    10    31       P1  7949  0.93
      P1  H 10752 10764       L1    10  0.90

> <Gold.PLP.Chemscore.Internal.Correction>
0.0440

> <Gold.Rescore>
     Score         DG    S(hbond)    S(metal)    S(lipo)     H(rot)  DE(clash)    DE(int)     intcor
     18.05     -19.64       1.86        0.00     112.47       2.04       0.22       1.36       ----

> <Gold.Chemscore.Fitness>
18.0533

> <Gold.Chemscore.DG>
-19.6362

> <Gold.Chemscore.ZeroCoef>
-5.4800

> <Gold.Chemscore.Hbond>
1.8644

> <Gold.Chemscore.Metal>
0.0000

> <Gold.Chemscore.Lipo>
112.4661

> <Gold.Chemscore.Internal_Hbond>
0.0000

> <Gold.Chemscore.DEClash>
0.2234

> <Gold.Chemscore.DEInternal>
1.3596

> <Gold.Chemscore.Rot>
2.0427

> <Gold.Chemscore.Internal.Correction>
   9.000000E+99

> <Gold.Chemscore.Hbonds>
donor molecule, donor type, donor heavy atom, donor atom, acceptor molecule, acceptor atom, score
      L1  H     5    48       P1  8028  0.88
      L1  H    10    31       P1  7949  0.52
      P1  H 10752 10764       L1    10  0.17

> <Gold.Chemscore.Hbond.Weighted>
-6.2271

> <Gold.Chemscore.Metal.Weighted>
-0.0000

> <Gold.Chemscore.Lipo.Weighted>
-13.1585

> <Gold.Chemscore.Internal_Hbond.Weighted>
0.0000

> <Gold.Chemscore.DEClash.Weighted>
0.2234

> <Gold.Chemscore.DEInternal.Weighted>
1.3596

> <Gold.Chemscore.Rot.Weighted>
5.2294

> <Gold.Chemscore.Internal.Correction.Weighted>
   9.000000E+99

> <Gold.Protein.RotatedTorsions>
[ 6907 6896 6895 6894 ] final  168.00 input  -60.11 | X-H torsion
[ 7974 7965 7964 7962 ] final -177.00 input  175.53 | X-H torsion
[ 8008 7997 7996 7995 ] final  113.71 input   59.86 | X-H torsion
[ 10167 10162 10161 10158 ] final   33.98 input  -65.29 | X-H torsion
[ 10718 10713 10712 10709 ] final  146.65 input   66.30 | X-H torsion
[ 10763 10752 10751 10750 ] final  -82.73 input  -60.55 | X-H torsion
[ 11005 11000 10999 10996 ] final  -15.85 input  -57.11 | X-H torsion

> <Gold.Protein.ActiveResidues>
 VAL166  LYS551  ARG553  GLY616  TRP617  ASP618  TYR619  PRO620  LYS621  CYS622 
 ASP623  PHE694  ASN695  SER759  ASP760  ASP761  ALA762  ILE779  LEU786  VAL792 
 PHE793  MET794  SER795  GLU796  ALA797  LYS798  CYS799  TRP800  GLU811  SER814 

> <Gold.Protein.RotatedAtoms>
  151.8544  133.3446  159.3683 H   0  0  0  0  0  0  0  0  0  0  0  0  # atno 6907 bound_to 6896
  150.7197  134.5267  159.5689 H   0  0  0  0  0  0  0  0  0  0  0  0  # atno 6908 bound_to 6896
  152.2767  134.7874  160.0455 H   0  0  0  0  0  0  0  0  0  0  0  0  # atno 6909 bound_to 6896
  144.7127  140.1086  143.6412 H   0  0  0  0  0  0  0  0  0  0  0  0  # atno 7974 bound_to 7965
  156.2276  140.2974  156.0105 H   0  0  0  0  0  0  0  0  0  0  0  0  # atno 8008 bound_to 7997
  155.2315  140.0419  157.2980 H   0  0  0  0  0  0  0  0  0  0  0  0  # atno 8009 bound_to 7997
  154.5941  140.2409  155.7889 H   0  0  0  0  0  0  0  0  0  0  0  0  # atno 8010 bound_to 7997
  140.4358  144.1260  150.6166 H   0  0  0  0  0  0  0  0  0  0  0  0  # atno 10167 bound_to 10162
  157.3306  131.0919  151.1165 H   0  0  0  0  0  0  0  0  0  0  0  0  # atno 10718 bound_to 10713
  154.5792  135.5581  153.7169 H   0  0  0  0  0  0  0  0  0  0  0  0  # atno 10763 bound_to 10752
  153.0075  135.6316  154.2006 H   0  0  0  0  0  0  0  0  0  0  0  0  # atno 10764 bound_to 10752
  154.1946  135.2881  155.2990 H   0  0  0  0  0  0  0  0  0  0  0  0  # atno 10765 bound_to 10752
  140.8008  133.8215  155.9468 H   0  0  0  0  0  0  0  0  0  0  0  0  # atno 11005 bound_to 11000
  145.9475  139.2711  143.1232 LP  0  0  0  0  0  0  0  0  0  0  0  0  # atno 17320 bound_to 7965
  145.9358  140.9015  143.0333 LP  0  0  0  0  0  0  0  0  0  0  0  0  # atno 17321 bound_to 7965
  140.4376  143.2540  151.9515 LP  0  0  0  0  0  0  0  0  0  0  0  0  # atno 17342 bound_to 10162
  139.4787  144.5685  151.8126 LP  0  0  0  0  0  0  0  0  0  0  0  0  # atno 17343 bound_to 10162
  157.2415  130.6572  149.5892 LP  0  0  0  0  0  0  0  0  0  0  0  0  # atno 17370 bound_to 10713
  155.9695  130.4567  150.5934 LP  0  0  0  0  0  0  0  0  0  0  0  0  # atno 17371 bound_to 10713
  140.9296  134.2038  157.4872 LP  0  0  0  0  0  0  0  0  0  0  0  0  # atno 17394 bound_to 11000
  139.8722  134.9827  156.5168 LP  0  0  0  0  0  0  0  0  0  0  0  0  # atno 17395 bound_to 11000

$$$$
