#       Name:                AV-unprocessed.smi:170
#       Creating user name   scv26
#       Creation time:       Thu Mar 26 19:17:07 2020


#       File generated by GOLD software.
#

@<TRIPOS>MOLECULE
AV-unprocessed.smi:170
    67    71     1
SMALL
NO_CHARGES


@<TRIPOS>ATOM
      1 ****        -2.9796   3.5265   0.7100 O.3            1 S1                 0.0000
      2 ****        -3.5322   2.3208   0.2158 C.3            1 S1                 0.0000
      3 ****        -2.9525   1.1354   1.0122 C.3            1 S1                 0.0000
      4 ****        -1.5068   1.0503   0.9082 N.pl3          1 S1                 0.0000
      5 ****        -0.5853   1.4287   1.8588 C.2            1 S1                 0.0000
      6 ****         0.6640   1.2438   1.5278 N.2            1 S1                 0.0000
      7 ****         0.5944   0.6984   0.2524 C.ar           1 S1                 0.0000
      8 ****         1.5634   0.2521  -0.6825 C.ar           1 S1                 0.0000
      9 ****         2.8869   0.2900  -0.4079 N.3            1 S1                 0.0000
     10 ****         3.5937   1.2120  -1.2908 C.3            1 S1                 0.0000
     11 ****         5.0541   1.3575  -0.8447 C.3            1 S1                 0.0000
     12 ****         5.6592   0.0718  -0.8351 O.3            1 S1                 0.0000
     13 ****         5.0286  -0.8062   0.0909 C.3            1 S1                 0.0000
     14 ****         3.5409  -1.0187  -0.2803 C.3            1 S1                 0.0000
     15 ****         2.8244  -1.9395   0.7439 C.3            1 S1                 0.0000
     16 ****         3.4531  -3.3229   0.8977 C.3            1 S1                 0.0000
     17 ****         3.5763  -4.2491  -0.3217 C.3            1 S1                 0.0000
     18 ****         3.3162  -5.4352   0.6106 C.3            1 S1                 0.0000
     19 ****         2.6552  -4.4470   1.5753 C.3            1 S1                 0.0000
     20 ****         1.1244  -0.2487  -1.8678 N.ar           1 S1                 0.0000
     21 ****        -0.1871  -0.3059  -2.1207 C.ar           1 S1                 0.0000
     22 ****        -1.2056   0.0697  -1.3429 N.ar           1 S1                 0.0000
     23 ****        -0.7623   0.5698  -0.1536 C.ar           1 S1                 0.0000
     24 ****        -5.0669   2.3963   0.3175 C.3            1 S1                 0.0000
     25 ****        -5.7015   3.5164  -0.5064 C.3            1 S1                 0.0000
     26 ****        -7.1227   3.0214  -0.6492 C.3            1 S1                 0.0000
     27 ****        -6.9290   1.5131  -0.7927 C.3            1 S1                 0.0000
     28 ****        -5.6622   1.2143  -0.2100 O.3            1 S1                 0.0000
     29 ****        -3.2351   3.6255   1.6143 H              1 S1                 0.0000
     30 ****        -3.2462   2.2246  -0.8325 H              1 S1                 0.0000
     31 ****        -3.2236   1.2122   2.0658 H              1 S1                 0.0000
     32 ****        -3.3710   0.1952   0.6516 H              1 S1                 0.0000
     33 ****        -0.8708   1.8492   2.8121 H              1 S1                 0.0000
     34 ****         3.5585   0.8449  -2.3180 H              1 S1                 0.0000
     35 ****         3.1038   2.1868  -1.2783 H              1 S1                 0.0000
     36 ****         5.5977   2.0021  -1.5354 H              1 S1                 0.0000
     37 ****         5.1196   1.8160   0.1434 H              1 S1                 0.0000
     38 ****         5.5725  -1.7500   0.0679 H              1 S1                 0.0000
     39 ****         5.1249  -0.4079   1.1024 H              1 S1                 0.0000
     40 ****         3.5061  -1.5002  -1.2589 H              1 S1                 0.0000
     41 ****         2.7960  -1.4432   1.7147 H              1 S1                 0.0000
     42 ****         1.7816  -2.0726   0.4545 H              1 S1                 0.0000
     43 ****         4.4264  -3.2581   1.3879 H              1 S1                 0.0000
     44 ****         2.7754  -4.1018  -1.0485 H              1 S1                 0.0000
     45 ****         4.5570  -4.2465  -0.7984 H              1 S1                 0.0000
     46 ****         2.6479  -6.1962   0.2069 H              1 S1                 0.0000
     47 ****         4.2337  -5.8694   1.0111 H              1 S1                 0.0000
     48 ****         2.8939  -4.6063   2.6272 H              1 S1                 0.0000
     49 ****         1.5788  -4.3620   1.4161 H              1 S1                 0.0000
     50 ****        -0.4598  -0.7135  -3.0830 H              1 S1                 0.0000
     51 ****        -5.3764   2.4934   1.3597 H              1 S1                 0.0000
     52 ****        -5.6364   4.4917  -0.0233 H              1 S1                 0.0000
     53 ****        -5.2305   3.5877  -1.4879 H              1 S1                 0.0000
     54 ****        -7.6857   3.2422   0.2588 H              1 S1                 0.0000
     55 ****        -7.6496   3.4666  -1.4935 H              1 S1                 0.0000
     56 ****        -7.7274   0.9525  -0.3058 H              1 S1                 0.0000
     57 ****        -6.9045   1.2234  -1.8438 H              1 S1                 0.0000
     58 ****        -3.3235   4.2988   0.1759 LP             1 S1                 0.0000
     59 ****        -1.9824   3.4927   0.6431 LP             1 S1                 0.0000
     60 ****         1.4811   1.4475   2.0671 LP             1 S1                 0.0000
     61 ****         2.9500   0.6593   0.5192 LP             1 S1                 0.0000
     62 ****         6.6220   0.1697  -0.5832 LP             1 S1                 0.0000
     63 ****         5.5930  -0.3233  -1.7514 LP             1 S1                 0.0000
     64 ****         1.7809  -0.5735  -2.5487 LP             1 S1                 0.0000
     65 ****        -2.1692  -0.0059  -1.5993 LP             1 S1                 0.0000
     66 ****        -5.7871   0.5508   0.5277 LP             1 S1                 0.0000
     67 ****        -5.0613   0.8264  -0.9089 LP             1 S1                 0.0000
@<TRIPOS>BOND
    1    1    2 1     
    2    1   29 1     
    3    2    3 1     
    4    2   24 1     
    5    2   30 1     
    6    3    4 1     
    7    3   31 1     
    8    3   32 1     
    9    4   23 1     
   10    4    5 1     
   11    5    6 2     
   12    5   33 1     
   13    6    7 1     
   14    7   23 ar    
   15    7    8 ar    
   16    8    9 1     
   17    8   20 ar    
   18    9   14 1     
   19    9   10 1     
   20   10   11 1     
   21   10   34 1     
   22   10   35 1     
   23   11   12 1     
   24   11   36 1     
   25   11   37 1     
   26   12   13 1     
   27   13   14 1     
   28   13   38 1     
   29   13   39 1     
   30   14   15 1     
   31   14   40 1     
   32   15   16 1     
   33   15   41 1     
   34   15   42 1     
   35   16   19 1     
   36   16   17 1     
   37   16   43 1     
   38   17   18 1     
   39   17   44 1     
   40   17   45 1     
   41   18   19 1     
   42   18   46 1     
   43   18   47 1     
   44   19   48 1     
   45   19   49 1     
   46   20   21 ar    
   47   21   22 ar    
   48   21   50 1     
   49   22   23 ar    
   50   24   28 1     
   51   24   25 1     
   52   24   51 1     
   53   25   26 1     
   54   25   52 1     
   55   25   53 1     
   56   26   27 1     
   57   26   54 1     
   58   26   55 1     
   59   27   28 1     
   60   27   56 1     
   61   27   57 1     
   62    1   58 1     
   63    1   59 1     
   64    6   60 1     
   65    9   61 1     
   66   12   62 1     
   67   12   63 1     
   68   20   64 1     
   69   22   65 1     
   70   28   66 1     
   71   28   67 1     
@<TRIPOS>SUBSTRUCTURE
      1 S1             1
@<TRIPOS>SET
LONE_PAIRS      STATIC     ATOMS    <user>   **** ""
10 58 59 60 61 62 63 64 65 66 67
DONOR_HYDROGENS      STATIC     ATOMS    <user>   **** ""
1 29
ATOM$BLUE        STATIC     ATOMS    COLORGROUP SYSTEM
10 58 59 60 61 62 63 64 65 66 67
ATOM$RED        STATIC     ATOMS    COLORGROUP SYSTEM
1 29
