#       Name:                AV-unprocessed.smi:1847
#       Creating user name   scv26
#       Creation time:       Fri Mar 27 09:22:44 2020


#       File generated by GOLD software.
#

@<TRIPOS>MOLECULE
AV-unprocessed.smi:1847
    32    33     1
SMALL
NO_CHARGES


@<TRIPOS>ATOM
      1 ****        -1.8709   1.0789  -0.1099 O.2            1 S1                 0.0000
      2 ****        -1.0228   0.1861  -0.0485 C.2            1 S1                 0.0000
      3 ****         0.3624   0.3262  -0.0098 N.2            1 S1                 0.0000
      4 ****         0.9982   1.4416  -0.0012 C.2            1 S1                 0.0000
      5 ****         2.4779   1.3418   0.0164 C.2            1 S1                 0.0000
      6 ****         3.2282   2.4626   0.0122 C.2            1 S1                 0.0000
      7 ****         2.6839   3.7400  -0.0062 N.pl3          1 S1                 0.0000
      8 ****         1.3021   3.8803  -0.0068 C.2            1 S1                 0.0000
      9 ****         0.4485   2.8350  -0.0041 C.2            1 S1                 0.0000
     10 ****        -1.3863  -1.2287  -0.0128 C.2            1 S1                 0.0000
     11 ****        -2.6910  -1.5877  -0.0654 C.2            1 S1                 0.0000
     12 ****        -3.1290  -2.8868   0.0004 O.3            1 S1                 0.0000
     13 ****        -2.1351  -3.8296   0.3832 C.3            1 S1                 0.0000
     14 ****        -0.8004  -3.5045  -0.3017 C.3            1 S1                 0.0000
     15 ****        -0.3911  -2.1817   0.0270 O.3            1 S1                 0.0000
     16 ****         2.9157   0.3538   0.0310 H              1 S1                 0.0000
     17 ****         4.3079   2.4415   0.0237 H              1 S1                 0.0000
     18 ****         0.9634   4.9059  -0.0058 H              1 S1                 0.0000
     19 ****        -0.6126   3.0113   0.0025 H              1 S1                 0.0000
     20 ****        -3.5198  -0.8967  -0.1232 H              1 S1                 0.0000
     21 ****        -2.0207  -3.8110   1.4678 H              1 S1                 0.0000
     22 ****        -2.4696  -4.8311   0.1123 H              1 S1                 0.0000
     23 ****        -0.0279  -4.2061   0.0134 H              1 S1                 0.0000
     24 ****        -0.8941  -3.5936  -1.3849 H              1 S1                 0.0000
     25 ****         3.2829   4.5535  -0.0105 H              1 S1                 0.0000
     26 ****        -1.5868   2.0373  -0.1377 LP             1 S1                 0.0000
     27 ****        -2.8428   0.8446  -0.1318 LP             1 S1                 0.0000
     28 ****         0.9073  -0.5120   0.0132 LP             1 S1                 0.0000
     29 ****        -3.4731  -3.1458  -0.9021 LP             1 S1                 0.0000
     30 ****        -3.8737  -2.9313   0.6664 LP             1 S1                 0.0000
     31 ****        -0.0145  -2.1963   0.9533 LP             1 S1                 0.0000
     32 ****         0.3225  -1.9100  -0.6186 LP             1 S1                 0.0000
@<TRIPOS>BOND
    1    1    2 2     
    2    2    3 1     
    3    2   10 1     
    4    3    4 2     
    5    4    9 1     
    6    4    5 1     
    7    5    6 2     
    8    5   16 1     
    9    6    7 1     
   10    6   17 1     
   11    7    8 1     
   12    7   25 1     
   13    8    9 2     
   14    8   18 1     
   15    9   19 1     
   16   10   15 1     
   17   10   11 2     
   18   11   12 1     
   19   11   20 1     
   20   12   13 1     
   21   13   14 1     
   22   13   21 1     
   23   13   22 1     
   24   14   15 1     
   25   14   23 1     
   26   14   24 1     
   27    1   26 1     
   28    1   27 1     
   29    3   28 1     
   30   12   29 1     
   31   12   30 1     
   32   15   31 1     
   33   15   32 1     
@<TRIPOS>SUBSTRUCTURE
      1 S1             1
@<TRIPOS>SET
LONE_PAIRS      STATIC     ATOMS    <user>   **** ""
7 26 27 28 29 30 31 32
DONOR_HYDROGENS      STATIC     ATOMS    <user>   **** ""
1 25
ATOM$BLUE        STATIC     ATOMS    COLORGROUP SYSTEM
7 26 27 28 29 30 31 32
ATOM$RED        STATIC     ATOMS    COLORGROUP SYSTEM
1 25
