#       Name:                AV-unprocessed.smi:54
#       Creating user name   scv26
#       Creation time:       Thu Mar 26 16:45:24 2020


#       File generated by GOLD software.
#

@<TRIPOS>MOLECULE
AV-unprocessed.smi:54
    58    60     1
SMALL
NO_CHARGES


@<TRIPOS>ATOM
      1 ****        -1.9251   5.7033   0.9839 C.3            1 S1                 0.0000
      2 ****        -1.8107   4.8294  -0.2759 C.3            1 S1                 0.0000
      3 ****        -2.4556   5.5157  -1.4915 C.3            1 S1                 0.0000
      4 ****        -2.4335   3.4467  -0.0348 C.2            1 S1                 0.0000
      5 ****        -3.6421   3.3656   0.1950 O.2            1 S1                 0.0000
      6 ****        -1.5694   2.4087  -0.0850 N.am           1 S1                 0.0000
      7 ****        -1.8134   1.0431   0.1026 C.2            1 S1                 0.0000
      8 ****        -0.7223   0.3547   0.3367 N.2            1 S1                 0.0000
      9 ****        -0.9689  -0.9957   0.4968 C.2            1 S1                 0.0000
     10 ****        -2.1746  -1.6385   0.4401 C.2            1 S1                 0.0000
     11 ****        -2.0345  -3.0007   0.6735 N.2            1 S1                 0.0000
     12 ****        -0.7211  -3.1171   0.8627 C.2            1 S1                 0.0000
     13 ****        -0.0120  -1.9734   0.7505 N.pl3          1 S1                 0.0000
     14 ****         1.4646  -1.7657   0.9352 C.3            1 S1                 0.0000
     15 ****         2.0713  -2.9952   1.1879 O.3            1 S1                 0.0000
     16 ****         2.4285  -3.6043  -0.0463 C.3            1 S1                 0.0000
     17 ****         3.5074  -4.6726   0.1883 C.3            1 S1                 0.0000
     18 ****         2.9095  -5.8839   0.5978 O.3            1 S1                 0.0000
     19 ****         2.9187  -2.4118  -0.8764 C.3            1 S1                 0.0000
     20 ****         2.6494  -2.6372  -2.2457 O.3            1 S1                 0.0000
     21 ****         2.1032  -1.2254  -0.3574 C.3            1 S1                 0.0000
     22 ****         2.9436  -0.1216  -0.0891 O.3            1 S1                 0.0000
     23 ****        -3.3669  -0.8029   0.1649 C.2            1 S1                 0.0000
     24 ****        -4.4720  -1.3383   0.1025 O.2            1 S1                 0.0000
     25 ****        -3.1226   0.5313  -0.0018 N.pl3          1 S1                -1.0000
     26 ****         1.5299  -1.0956   1.7933 H              1 S1                 0.0000
     27 ****         1.5430  -4.0422  -0.5113 H              1 S1                 0.0000
     28 ****         3.9874  -2.2526  -0.7228 H              1 S1                 0.0000
     29 ****         1.3312  -0.9188  -1.0650 H              1 S1                 0.0000
     30 ****        -1.4696   5.2157   1.8468 H              1 S1                 0.0000
     31 ****        -2.9657   5.9160   1.2324 H              1 S1                 0.0000
     32 ****        -1.4181   6.6581   0.8426 H              1 S1                 0.0000
     33 ****        -0.7498   4.6959  -0.4944 H              1 S1                 0.0000
     34 ****        -2.3877   4.8901  -2.3825 H              1 S1                 0.0000
     35 ****        -1.9565   6.4588  -1.7160 H              1 S1                 0.0000
     36 ****        -3.5101   5.7343  -1.3173 H              1 S1                 0.0000
     37 ****        -0.6044   2.6703  -0.2226 H              1 S1                 0.0000
     38 ****        -0.2653  -4.0688   1.0922 H              1 S1                 0.0000
     39 ****         4.0453  -4.8717  -0.7391 H              1 S1                 0.0000
     40 ****         4.2412  -4.3423   0.9240 H              1 S1                 0.0000
     41 ****         3.5907  -6.5257   0.7292 H              1 S1                 0.0000
     42 ****         1.7171  -2.7505  -2.3523 H              1 S1                 0.0000
     43 ****         3.5878  -0.3848   0.5498 H              1 S1                 0.0000
     44 ****        -4.2025   4.1934   0.2223 LP             1 S1                 0.0000
     45 ****        -4.0619   2.4720   0.3540 LP             1 S1                 0.0000
     46 ****         0.1891   0.7624   0.3932 LP             1 S1                 0.0000
     47 ****        -2.7382  -3.7109   0.6941 LP             1 S1                 0.0000
     48 ****         1.4339  -3.5874   1.6807 LP             1 S1                 0.0000
     49 ****         2.8923  -2.8553   1.7415 LP             1 S1                 0.0000
     50 ****         2.2770  -6.2032  -0.1079 LP             1 S1                 0.0000
     51 ****         2.4108  -5.7416   1.4528 LP             1 S1                 0.0000
     52 ****         3.1268  -3.4606  -2.5526 LP             1 S1                 0.0000
     53 ****         2.9579  -1.8529  -2.7840 LP             1 S1                 0.0000
     54 ****         2.4004   0.6364   0.2718 LP             1 S1                 0.0000
     55 ****         3.4008   0.1669  -0.9304 LP             1 S1                 0.0000
     56 ****        -4.5575  -2.3255   0.2367 LP             1 S1                 0.0000
     57 ****        -5.2851  -0.7865  -0.0826 LP             1 S1                 0.0000
     58 ****        -3.8814   1.1517  -0.2002 LP             1 S1                 0.0000
@<TRIPOS>BOND
    1    1    2 1     
    2    1   30 1     
    3    1   31 1     
    4    1   32 1     
    5    2    3 1     
    6    2    4 1     
    7    2   33 1     
    8    3   34 1     
    9    3   35 1     
   10    3   36 1     
   11    4    5 2     
   12    4    6 am    
   13    6   37 1     
   14    6    7 1     
   15    7   25 1     
   16    7    8 2     
   17    8    9 1     
   18    9   13 1     
   19    9   10 2     
   20   10   11 1     
   21   10   23 1     
   22   11   12 2     
   23   12   13 1     
   24   12   38 1     
   25   13   14 1     
   26   14   26 1     
   27   14   21 1     
   28   14   15 1     
   29   15   16 1     
   30   16   27 1     
   31   16   17 1     
   32   16   19 1     
   33   17   18 1     
   34   17   39 1     
   35   17   40 1     
   36   18   41 1     
   37   19   28 1     
   38   19   20 1     
   39   19   21 1     
   40   20   42 1     
   41   21   29 1     
   42   21   22 1     
   43   22   43 1     
   44   23   24 2     
   45   23   25 1     
   46    5   44 1     
   47    5   45 1     
   48    8   46 1     
   49   11   47 1     
   50   15   48 1     
   51   15   49 1     
   52   18   50 1     
   53   18   51 1     
   54   20   52 1     
   55   20   53 1     
   56   22   54 1     
   57   22   55 1     
   58   24   56 1     
   59   24   57 1     
   60   25   58 1     
@<TRIPOS>SUBSTRUCTURE
      1 S1             1
@<TRIPOS>SET
LONE_PAIRS      STATIC     ATOMS    <user>   **** ""
15 44 45 46 47 48 49 50 51 52 53 54 55 56 57 58
DONOR_HYDROGENS      STATIC     ATOMS    <user>   **** ""
4 37 41 42 43
ATOM$BLUE        STATIC     ATOMS    COLORGROUP SYSTEM
15 44 45 46 47 48 49 50 51 52 53 54 55 56 57 58
ATOM$RED        STATIC     ATOMS    COLORGROUP SYSTEM
4 37 41 42 43
