AV-unprocessed.smi:2083|AV-procd|sdf|8503|dock10
  -GOLD-   2272011213D 1   1.00000     0.00000
 Structure written by MMmdl.
 44 45  0  0  0  0  0  0  0  0  3 V2000
  152.3276  140.7055  159.1588 C   0  0  0  0  0  0  0  0  0  0  0  0
  151.9937  140.3827  157.7426 C   0  0  0  0  0  0  0  0  0  0  0  0
  150.9743  140.7685  156.9192 C   0  0  0  0  0  0  0  0  0  0  0  0
  151.2602  140.0837  155.7066 C   0  0  0  0  0  0  0  0  0  0  0  0
  150.5403  140.1458  154.5759 N   0  5  0  0  0  0  0  0  0  0  0  0
  149.1960  140.2793  154.6334 C   0  0  0  0  0  0  0  0  0  0  0  0
  148.5345  140.6156  155.6186 O   0  0  0  0  0  0  0  0  0  0  0  0
  148.5772  140.0114  153.4747 N   0  0  0  0  0  0  0  0  0  0  0  0
  147.1378  140.0851  153.2411 C   0  0  0  0  0  0  0  0  0  0  0  0
  146.3201  139.2034  154.2261 C   0  0  1  0  0  0  0  0  0  0  0  0
  145.6101  140.0903  155.2740 C   0  0  0  0  0  0  0  0  0  0  0  0
  145.3196  138.3025  153.5647 N   0  3  1  0  0  0  0  0  0  0  0  0
  145.8710  137.2959  152.6108 C   0  0  0  0  0  0  0  0  0  0  0  0
  144.7522  136.5298  151.8848 C   0  0  0  0  0  0  0  0  0  0  0  0
  143.7844  135.8728  152.8755 C   0  0  0  0  0  0  0  0  0  0  0  0
  143.2493  136.9015  153.8846 C   0  0  2  0  0  0  0  0  0  0  0  0
  142.2184  137.8664  153.2723 C   0  0  0  0  0  0  0  0  0  0  0  0
  144.4188  137.6468  154.5573 C   0  0  0  0  0  0  0  0  0  0  0  0
  152.3655  139.3618  155.7817 N   0  0  0  0  0  0  0  0  0  0  0  0
  152.8392  139.5436  157.0864 O   0  0  0  0  0  0  0  0  0  0  0  0
  152.6291  141.7486  159.2543 H   0  0  0  0  0  0  0  0  0  0  0  0
  153.1444  140.0819  159.5227 H   0  0  0  0  0  0  0  0  0  0  0  0
  151.4649  140.5414  159.8045 H   0  0  0  0  0  0  0  0  0  0  0  0
  150.1527  141.4306  157.1480 H   0  0  0  0  0  0  0  0  0  0  0  0
  149.1555  139.7347  152.6945 H   0  0  0  0  0  0  0  0  0  0  0  0
  146.8397  141.1299  153.3339 H   0  0  0  0  0  0  0  0  0  0  0  0
  146.9619  139.7963  152.2039 H   0  0  0  0  0  0  0  0  0  0  0  0
  147.0337  138.5641  154.7481 H   0  0  0  0  0  0  0  0  0  0  0  0
  146.3175  140.7089  155.8266 H   0  0  0  0  0  0  0  0  0  0  0  0
  145.0718  139.5090  156.0206 H   0  0  0  0  0  0  0  0  0  0  0  0
  144.8916  140.7583  154.7982 H   0  0  0  0  0  0  0  0  0  0  0  0
  146.4693  137.7773  151.8382 H   0  0  0  0  0  0  0  0  0  0  0  0
  146.5233  136.6027  153.1449 H   0  0  0  0  0  0  0  0  0  0  0  0
  144.2077  137.2105  151.2300 H   0  0  0  0  0  0  0  0  0  0  0  0
  145.1866  135.7688  151.2357 H   0  0  0  0  0  0  0  0  0  0  0  0
  142.9626  135.3920  152.3436 H   0  0  0  0  0  0  0  0  0  0  0  0
  144.3075  135.0798  153.4121 H   0  0  0  0  0  0  0  0  0  0  0  0
  142.7246  136.3461  154.6632 H   0  0  0  0  0  0  0  0  0  0  0  0
  142.6568  138.4945  152.4969 H   0  0  0  0  0  0  0  0  0  0  0  0
  141.8040  138.5277  154.0337 H   0  0  0  0  0  0  0  0  0  0  0  0
  141.3867  137.3202  152.8261 H   0  0  0  0  0  0  0  0  0  0  0  0
  145.0046  136.9441  155.1523 H   0  0  0  0  0  0  0  0  0  0  0  0
  144.0133  138.3714  155.2616 H   0  0  0  0  0  0  0  0  0  0  0  0
  144.7395  138.9100  153.0041 H   0  0  0  0  0  0  0  0  0  0  0  0
  1  2  1  0  0  0  0
  1 21  1  0  0  0  0
  1 22  1  0  0  0  0
  1 23  1  0  0  0  0
  2 20  1  0  0  0  0
  2  3  2  0  0  0  0
  3  4  1  0  0  0  0
  3 24  1  0  0  0  0
  4  5  1  0  0  0  0
  4 19  2  0  0  0  0
  5  6  1  0  0  0  0
  6  7  2  0  0  0  0
  6  8  1  0  0  0  0
  8  9  1  0  0  0  0
  8 25  1  0  0  0  0
  9 10  1  0  0  0  0
  9 26  1  0  0  0  0
  9 27  1  0  0  0  0
 10 11  1  0  0  0  0
 10 12  1  0  0  0  0
 10 28  1  0  0  0  0
 11 29  1  0  0  0  0
 11 30  1  0  0  0  0
 11 31  1  0  0  0  0
 12 18  1  0  0  0  0
 12 13  1  0  0  0  0
 12 44  1  0  0  0  0
 13 14  1  0  0  0  0
 13 32  1  0  0  0  0
 13 33  1  0  0  0  0
 14 15  1  0  0  0  0
 14 34  1  0  0  0  0
 14 35  1  0  0  0  0
 15 16  1  0  0  0  0
 15 36  1  0  0  0  0
 15 37  1  0  0  0  0
 16 17  1  0  0  0  0
 16 18  1  0  0  0  0
 16 38  1  0  0  0  0
 17 39  1  0  0  0  0
 17 40  1  0  0  0  0
 17 41  1  0  0  0  0
 18 42  1  0  0  0  0
 18 43  1  0  0  0  0
 19 20  1  0  0  0  0
M  CHG  1   5  -1
M  CHG  1  12   1
M  END
> <s_m_source_file>
AV-unprocessed.smi

> <i_m_source_file_index>
2083

> <i_lp_mmshare_version>
43012

> <i_f3d_flags>
0

> <s_epik_input>
W0NIM11jMVtjSF1jKG5vMSlbTkhdQyg9TylbTkhdW0NIMl1bQ0BIXShbQ0gzXSlOMltDSDJdW0NIMl1bQ0gyXVtDQEBIXShbQ0gzXSlbQ0gyXTI=

> <s_epik_cmdline>
J2VwaWtfcHl0aG9uJywgJy1waCcsICc3LjAnLCAnLXRuJywgJzgnLCAnLW1hJywgJzIwMCcsICctbWV0YWxfYmluZGluZycsICctaW1hZScsICc8aW5maWxlLm1hZT4nLCAnLW9tYWUnLCAnPG91dGZpbGUubWFlPic=

> <r_epik_Ionization_Penalty>
6.22434

> <r_epik_Ionization_Penalty_Charging>
6.22425

> <r_epik_Ionization_Penalty_Neutral>
9.62407e-05

> <r_epik_State_Penalty>
6.22423

> <r_epik_Charging_Adjusted_Penalty>
12.4485

> <i_epik_Tot_Q>
0

> <i_epik_Tot_abs_Q>
2

> <r_epik_Metal_State_Penalty>
2.16764

> <b_epik_Metal_Only>
1

> <s_lp_Force_Field>
OPLS_2005

> <r_lp_Energy>
12.2098

> <b_lp_Chiralities_Consistent>
1

> <s_lp_Variant>
AV-unprocessed.smi:2083-14

> <Gold.Version>
5.8.1

> <Gold.Id.Protein>
6NUR|6NUR_protein|mol2

> <Gold.PLP.Fitness>
41.8356

> <Gold.PLP.PLP>
-28.9589

> <Gold.PLP.part.hbond>
-4.3483

> <Gold.PLP.part.metal>
0.0000

> <Gold.PLP.part.buried>
-2.5012

> <Gold.PLP.part.nonpolar>
-22.1444

> <Gold.PLP.part.repulsive>
0.2922

> <Gold.PLP.ligand.clash>
0.0000

> <Gold.PLP.ligand.torsion>
1.0365

> <Gold.PLP.Chemscore.Hbond>
4.9500

> <Gold.PLP.Chemscore.CHOScore>
0.0000

> <Gold.PLP.Chemscore.Metal>
0.0000

> <Gold.Chemscore.Hbonds>
donor molecule, donor type, donor heavy atom, donor atom, acceptor molecule, acceptor atom, score
      L1  H     8    25       P1  7957  0.94
      L1  H    12    44       P1 10175  2.00
      P1  H  7989  7998       L1     5  1.00
      P1  H  7997  8009       L1    20  0.70

> <Gold.PLP.Chemscore.Internal.Correction>
0.0998

> <Gold.Rescore>
     Score         DG    S(hbond)    S(metal)    S(lipo)     H(rot)  DE(clash)    DE(int)     intcor
     11.59     -16.53       2.60        0.00      53.51       1.52       0.23       4.71       ----

> <Gold.Chemscore.Fitness>
11.5877

> <Gold.Chemscore.DG>
-16.5270

> <Gold.Chemscore.ZeroCoef>
-5.4800

> <Gold.Chemscore.Hbond>
2.5971

> <Gold.Chemscore.Metal>
0.0000

> <Gold.Chemscore.Lipo>
53.5147

> <Gold.Chemscore.Internal_Hbond>
0.0000

> <Gold.Chemscore.DEClash>
0.2323

> <Gold.Chemscore.DEInternal>
4.7070

> <Gold.Chemscore.Rot>
1.5190

> <Gold.Chemscore.Internal.Correction>
   9.000000E+99

> <Gold.Chemscore.Hbonds>
donor molecule, donor type, donor heavy atom, donor atom, acceptor molecule, acceptor atom, score
      L1  H     8    25       P1  7957  0.90
      L1  H    12    44       P1 10175  0.99
      P1  H  7989  7998       L1     5  0.40
      P1  H  7997  8009       L1    20  0.07

> <Gold.Chemscore.Hbond.Weighted>
-8.6744

> <Gold.Chemscore.Metal.Weighted>
-0.0000

> <Gold.Chemscore.Lipo.Weighted>
-6.2612

> <Gold.Chemscore.Internal_Hbond.Weighted>
0.0000

> <Gold.Chemscore.DEClash.Weighted>
0.2323

> <Gold.Chemscore.DEInternal.Weighted>
4.7070

> <Gold.Chemscore.Rot.Weighted>
3.8886

> <Gold.Chemscore.Internal.Correction.Weighted>
   9.000000E+99

> <Gold.Protein.RotatedTorsions>
[ 6907 6896 6895 6894 ] final  -48.15 input  -60.11 | X-H torsion
[ 7974 7965 7964 7962 ] final  -52.71 input  175.53 | X-H torsion
[ 8008 7997 7996 7995 ] final -176.38 input   59.86 | X-H torsion
[ 10167 10162 10161 10158 ] final   27.35 input  -65.29 | X-H torsion
[ 10718 10713 10712 10709 ] final -105.90 input   66.30 | X-H torsion
[ 10763 10752 10751 10750 ] final -157.64 input  -60.55 | X-H torsion
[ 11005 11000 10999 10996 ] final   39.81 input  -57.11 | X-H torsion

> <Gold.Protein.ActiveResidues>
 VAL166  LYS551  ARG553  GLY616  TRP617  ASP618  TYR619  PRO620  LYS621  CYS622 
 ASP623  PHE694  ASN695  SER759  ASP760  ASP761  ALA762  ILE779  LEU786  VAL792 
 PHE793  MET794  SER795  GLU796  ALA797  LYS798  CYS799  TRP800  GLU811  SER814 

> <Gold.Protein.RotatedAtoms>
  150.8935  134.8341  159.7309 H   0  0  0  0  0  0  0  0  0  0  0  0  # atno 6907 bound_to 6896
  152.4851  134.4612  159.9615 H   0  0  0  0  0  0  0  0  0  0  0  0  # atno 6908 bound_to 6896
  151.4672  133.3539  159.2853 H   0  0  0  0  0  0  0  0  0  0  0  0  # atno 6909 bound_to 6896
  145.9049  140.7963  142.9724 H   0  0  0  0  0  0  0  0  0  0  0  0  # atno 7974 bound_to 7965
  155.9941  140.1207  157.0610 H   0  0  0  0  0  0  0  0  0  0  0  0  # atno 8008 bound_to 7997
  154.4221  140.1120  156.5675 H   0  0  0  0  0  0  0  0  0  0  0  0  # atno 8009 bound_to 7997
  155.6302  140.3473  155.4682 H   0  0  0  0  0  0  0  0  0  0  0  0  # atno 8010 bound_to 7997
  140.4946  144.0413  150.6309 H   0  0  0  0  0  0  0  0  0  0  0  0  # atno 10167 bound_to 10162
  156.0366  130.5586  150.7605 H   0  0  0  0  0  0  0  0  0  0  0  0  # atno 10718 bound_to 10713
  154.7620  135.3120  154.8360 H   0  0  0  0  0  0  0  0  0  0  0  0  # atno 10763 bound_to 10752
  153.9119  135.6805  153.4755 H   0  0  0  0  0  0  0  0  0  0  0  0  # atno 10764 bound_to 10752
  153.1221  135.4818  154.9144 H   0  0  0  0  0  0  0  0  0  0  0  0  # atno 10765 bound_to 10752
  140.1991  134.3892  155.8105 H   0  0  0  0  0  0  0  0  0  0  0  0  # atno 11005 bound_to 11000
  144.6738  140.1735  143.7412 LP  0  0  0  0  0  0  0  0  0  0  0  0  # atno 17320 bound_to 7965
  145.8744  139.2289  143.1642 LP  0  0  0  0  0  0  0  0  0  0  0  0  # atno 17321 bound_to 7965
  140.3692  143.2864  152.0298 LP  0  0  0  0  0  0  0  0  0  0  0  0  # atno 17342 bound_to 10162
  139.4858  144.6243  151.7194 LP  0  0  0  0  0  0  0  0  0  0  0  0  # atno 17343 bound_to 10162
  157.5126  131.0926  151.0179 LP  0  0  0  0  0  0  0  0  0  0  0  0  # atno 17370 bound_to 10713
  157.0531  130.5795  149.5373 LP  0  0  0  0  0  0  0  0  0  0  0  0  # atno 17371 bound_to 10713
  141.2227  133.7085  156.8227 LP  0  0  0  0  0  0  0  0  0  0  0  0  # atno 17394 bound_to 11000
  140.2074  134.8853  157.3236 LP  0  0  0  0  0  0  0  0  0  0  0  0  # atno 17395 bound_to 11000

$$$$
