AV-unprocessed.smi:3018|AV-procd|sdf|11482|dock2
  -GOLD-   2272016423D 1   1.00000     0.00000
 Structure written by MMmdl.
 44 45  0  0  0  0  0  0  0  0  2 V2000
  152.8300  138.0631  156.3458 C   0  0  0  0  0  0  0  0  0  0  0  0
  151.9860  139.2152  156.9056 C   0  0  0  0  0  0  0  0  0  0  0  0
  151.7767  139.1136  158.4277 C   0  0  1  0  0  0  0  0  0  0  0  0
  151.0633  140.2759  158.8460 O   0  0  0  0  0  0  0  0  0  0  0  0
  151.7046  141.5305  158.6313 C   0  0  0  0  0  0  0  0  0  0  0  0
  152.7671  141.6970  159.7312 C   0  0  0  0  0  0  0  0  0  0  0  0
  153.4597  143.0662  159.6395 C   0  0  0  0  0  0  0  0  0  0  0  0
  152.4356  144.2111  159.6944 C   0  0  0  0  0  0  0  0  0  0  0  0
  151.3626  144.0500  158.6059 C   0  0  0  0  0  0  0  0  0  0  0  0
  150.6753  142.6776  158.6967 C   0  0  0  0  0  0  0  0  0  0  0  0
  150.9747  137.8562  158.7974 C   0  0  0  0  0  0  0  0  0  0  0  0
  151.4638  137.0044  159.5398 O   0  0  0  0  0  0  0  0  0  0  0  0
  149.7499  137.7495  158.2596 N   0  0  0  0  0  0  0  0  0  0  0  0
  148.8330  136.6368  158.4757 C   0  0  0  0  0  0  0  0  0  0  0  0
  147.6027  137.0724  159.2983 C   0  0  0  0  0  0  0  0  0  0  0  0
  147.4915  136.4425  160.6798 C   0  0  0  0  0  0  0  0  0  0  0  0
  147.5038  137.0326  161.8187 N   0  0  0  0  0  0  0  0  0  0  0  0
  147.3678  135.9813  162.7830 N   0  5  0  0  0  0  0  0  0  0  0  0
  147.2859  134.8181  162.0926 C   0  0  0  0  0  0  0  0  0  0  0  0
  147.1637  133.6742  162.5248 O   0  0  0  0  0  0  0  0  0  0  0  0
  147.3597  135.0864  160.7934 N   0  0  0  0  0  0  0  0  0  0  0  0
  147.3297  134.4257  160.0314 H   0  0  0  0  0  0  0  0  0  0  0  0
  152.9496  138.1584  155.2665 H   0  0  0  0  0  0  0  0  0  0  0  0
  152.3616  137.0989  156.5451 H   0  0  0  0  0  0  0  0  0  0  0  0
  153.8257  138.0501  156.7900 H   0  0  0  0  0  0  0  0  0  0  0  0
  152.4625  140.1643  156.6554 H   0  0  0  0  0  0  0  0  0  0  0  0
  151.0189  139.2153  156.4004 H   0  0  0  0  0  0  0  0  0  0  0  0
  152.7556  139.0724  158.9072 H   0  0  0  0  0  0  0  0  0  0  0  0
  152.2122  141.5509  157.6661 H   0  0  0  0  0  0  0  0  0  0  0  0
  152.3014  141.5902  160.7119 H   0  0  0  0  0  0  0  0  0  0  0  0
  153.5088  140.9013  159.6534 H   0  0  0  0  0  0  0  0  0  0  0  0
  154.1809  143.1732  160.4501 H   0  0  0  0  0  0  0  0  0  0  0  0
  154.0277  143.1271  158.7101 H   0  0  0  0  0  0  0  0  0  0  0  0
  151.9600  144.2283  160.6758 H   0  0  0  0  0  0  0  0  0  0  0  0
  152.9421  145.1698  159.5794 H   0  0  0  0  0  0  0  0  0  0  0  0
  150.6207  144.8439  158.6957 H   0  0  0  0  0  0  0  0  0  0  0  0
  151.8202  144.1639  157.6224 H   0  0  0  0  0  0  0  0  0  0  0  0
  149.9456  142.5872  157.8927 H   0  0  0  0  0  0  0  0  0  0  0  0
  150.1143  142.6125  159.6298 H   0  0  0  0  0  0  0  0  0  0  0  0
  149.4298  138.4939  157.6574 H   0  0  0  0  0  0  0  0  0  0  0  0
  148.5205  136.2718  157.4966 H   0  0  0  0  0  0  0  0  0  0  0  0
  149.3586  135.8143  158.9645 H   0  0  0  0  0  0  0  0  0  0  0  0
  147.6046  138.1559  159.4212 H   0  0  0  0  0  0  0  0  0  0  0  0
  146.6958  136.8292  158.7438 H   0  0  0  0  0  0  0  0  0  0  0  0
  1  2  1  0  0  0  0
  1 23  1  0  0  0  0
  1 24  1  0  0  0  0
  1 25  1  0  0  0  0
  2  3  1  0  0  0  0
  2 26  1  0  0  0  0
  2 27  1  0  0  0  0
  3  4  1  0  0  0  0
  3 11  1  0  0  0  0
  3 28  1  0  0  0  0
  4  5  1  0  0  0  0
  5 10  1  0  0  0  0
  5  6  1  0  0  0  0
  5 29  1  0  0  0  0
  6  7  1  0  0  0  0
  6 30  1  0  0  0  0
  6 31  1  0  0  0  0
  7  8  1  0  0  0  0
  7 32  1  0  0  0  0
  7 33  1  0  0  0  0
  8  9  1  0  0  0  0
  8 34  1  0  0  0  0
  8 35  1  0  0  0  0
  9 10  1  0  0  0  0
  9 36  1  0  0  0  0
  9 37  1  0  0  0  0
 10 38  1  0  0  0  0
 10 39  1  0  0  0  0
 11 12  2  0  0  0  0
 11 13  1  0  0  0  0
 13 14  1  0  0  0  0
 13 40  1  0  0  0  0
 14 15  1  0  0  0  0
 14 41  1  0  0  0  0
 14 42  1  0  0  0  0
 15 16  1  0  0  0  0
 15 43  1  0  0  0  0
 15 44  1  0  0  0  0
 16 21  1  0  0  0  0
 16 17  2  0  0  0  0
 17 18  1  0  0  0  0
 18 19  1  0  0  0  0
 19 20  2  0  0  0  0
 19 21  1  0  0  0  0
 21 22  1  0  0  0  0
M  CHG  1  18  -1
M  END
> <s_m_source_file>
AV-unprocessed.smi

> <i_m_source_file_index>
3018

> <i_lp_mmshare_version>
43012

> <i_f3d_flags>
0

> <s_epik_input>
W0NIMl0xW0NIMl1bQ0gyXVtDSDJdW0NIMl1bQ0hdMU9bQ0BASF0oW0NIMl1bQ0gzXSlDKD1PKVtOSF1bQ0gyXVtDSDJdYzJuW25IXWMoPU8pW25IXTI=

> <s_epik_cmdline>
J2VwaWtfcHl0aG9uJywgJy1waCcsICc3LjAnLCAnLXRuJywgJzgnLCAnLW1hJywgJzIwMCcsICctbWV0YWxfYmluZGluZycsICctaW1hZScsICc8aW5maWxlLm1hZT4nLCAnLW9tYWUnLCAnPG91dGZpbGUubWFlPic=

> <r_lp_tautomer_probability>
1

> <r_epik_Ionization_Penalty>
14.1812

> <r_epik_Ionization_Penalty_Charging>
13.7758

> <r_epik_Ionization_Penalty_Neutral>
0.405355

> <r_epik_State_Penalty>
4.92413

> <r_epik_Charging_Adjusted_Penalty>
18.7

> <i_epik_Tot_Q>
-1

> <i_epik_Tot_abs_Q>
1

> <r_epik_Metal_State_Penalty>
1.32654

> <b_epik_Metal_Only>
1

> <s_lp_Force_Field>
OPLS_2005

> <r_lp_Energy>
19.6137

> <b_lp_Chiralities_Consistent>
1

> <s_lp_Variant>
AV-unprocessed.smi:3018-4

> <Gold.Version>
5.8.1

> <Gold.Id.Protein>
6NUR|6NUR_protein|mol2

> <Gold.PLP.Fitness>
46.1214

> <Gold.PLP.PLP>
-38.8093

> <Gold.PLP.part.hbond>
-3.0000

> <Gold.PLP.part.metal>
0.0000

> <Gold.PLP.part.buried>
-7.1653

> <Gold.PLP.part.nonpolar>
-29.1172

> <Gold.PLP.part.repulsive>
0.1941

> <Gold.PLP.ligand.clash>
0.0000

> <Gold.PLP.ligand.torsion>
0.5695

> <Gold.PLP.Chemscore.Hbond>
2.7280

> <Gold.PLP.Chemscore.CHOScore>
0.0000

> <Gold.PLP.Chemscore.Metal>
0.0000

> <Gold.Chemscore.Hbonds>
donor molecule, donor type, donor heavy atom, donor atom, acceptor molecule, acceptor atom, score
      P1  H  6896  6909       L1    12  1.00
      P1  H  6931  6943       L1    17  1.00
      P1  H  6934  6947       L1    17  0.32

> <Gold.PLP.Chemscore.Internal.Correction>
0.2671

> <Gold.Rescore>
     Score         DG    S(hbond)    S(metal)    S(lipo)     H(rot)  DE(clash)    DE(int)     intcor
     14.35     -14.98       2.30        0.00      80.70       2.98       0.00       0.63       ----

> <Gold.Chemscore.Fitness>
14.3519

> <Gold.Chemscore.DG>
-14.9774

> <Gold.Chemscore.ZeroCoef>
-5.4800

> <Gold.Chemscore.Hbond>
2.2986

> <Gold.Chemscore.Metal>
0.0000

> <Gold.Chemscore.Lipo>
80.6971

> <Gold.Chemscore.Internal_Hbond>
0.0000

> <Gold.Chemscore.DEClash>
0.0000

> <Gold.Chemscore.DEInternal>
0.6256

> <Gold.Chemscore.Rot>
2.9772

> <Gold.Chemscore.Internal.Correction>
   9.000000E+99

> <Gold.Chemscore.Hbonds>
donor molecule, donor type, donor heavy atom, donor atom, acceptor molecule, acceptor atom, score
      P1  H  6896  6909       L1    12  1.00
      P1  H  6931  6943       L1    17  0.69
      P1  H  6934  6947       L1    17  0.03

> <Gold.Chemscore.Hbond.Weighted>
-7.6775

> <Gold.Chemscore.Metal.Weighted>
-0.0000

> <Gold.Chemscore.Lipo.Weighted>
-9.4416

> <Gold.Chemscore.Internal_Hbond.Weighted>
0.0000

> <Gold.Chemscore.DEClash.Weighted>
0.0000

> <Gold.Chemscore.DEInternal.Weighted>
0.6256

> <Gold.Chemscore.Rot.Weighted>
7.6216

> <Gold.Chemscore.Internal.Correction.Weighted>
   9.000000E+99

> <Gold.Protein.RotatedTorsions>
[ 6907 6896 6895 6894 ] final  111.76 input  -60.11 | X-H torsion
[ 7974 7965 7964 7962 ] final -145.24 input  175.53 | X-H torsion
[ 8008 7997 7996 7995 ] final -130.92 input   59.86 | X-H torsion
[ 10167 10162 10161 10158 ] final  177.52 input  -65.29 | X-H torsion
[ 10718 10713 10712 10709 ] final   -9.32 input   66.30 | X-H torsion
[ 10763 10752 10751 10750 ] final  -14.77 input  -60.55 | X-H torsion
[ 11005 11000 10999 10996 ] final   69.06 input  -57.11 | X-H torsion

> <Gold.Protein.ActiveResidues>
 VAL166  LYS551  ARG553  GLY616  TRP617  ASP618  TYR619  PRO620  LYS621  CYS622 
 ASP623  PHE694  ASN695  SER759  ASP760  ASP761  ALA762  ILE779  LEU786  VAL792 
 PHE793  MET794  SER795  GLU796  ALA797  LYS798  CYS799  TRP800  GLU811  SER814 

> <Gold.Protein.RotatedAtoms>
  152.4952  133.8611  159.7250 H   0  0  0  0  0  0  0  0  0  0  0  0  # atno 6907 bound_to 6896
  150.9122  133.6974  159.2858 H   0  0  0  0  0  0  0  0  0  0  0  0  # atno 6908 bound_to 6896
  151.4379  135.1021  159.9714 H   0  0  0  0  0  0  0  0  0  0  0  0  # atno 6909 bound_to 6896
  144.8241  140.5608  143.5559 H   0  0  0  0  0  0  0  0  0  0  0  0  # atno 7974 bound_to 7965
  155.3037  140.0454  157.3031 H   0  0  0  0  0  0  0  0  0  0  0  0  # atno 8008 bound_to 7997
  154.5472  140.2306  155.8510 H   0  0  0  0  0  0  0  0  0  0  0  0  # atno 8009 bound_to 7997
  156.1935  140.3044  155.9386 H   0  0  0  0  0  0  0  0  0  0  0  0  # atno 8010 bound_to 7997
  139.5256  144.2788  152.0564 H   0  0  0  0  0  0  0  0  0  0  0  0  # atno 10167 bound_to 10162
  156.6897  130.5061  149.5947 H   0  0  0  0  0  0  0  0  0  0  0  0  # atno 10718 bound_to 10713
  153.5333  135.7014  153.5672 H   0  0  0  0  0  0  0  0  0  0  0  0  # atno 10763 bound_to 10752
  153.3670  135.3954  155.1760 H   0  0  0  0  0  0  0  0  0  0  0  0  # atno 10764 bound_to 10752
  154.8682  135.3802  154.4832 H   0  0  0  0  0  0  0  0  0  0  0  0  # atno 10765 bound_to 10752
  139.9675  134.6955  156.0514 H   0  0  0  0  0  0  0  0  0  0  0  0  # atno 11005 bound_to 11000
  145.5039  139.1482  143.3642 LP  0  0  0  0  0  0  0  0  0  0  0  0  # atno 17320 bound_to 7965
  146.2546  140.5179  142.8879 LP  0  0  0  0  0  0  0  0  0  0  0  0  # atno 17321 bound_to 7965
  140.2244  144.4433  150.6327 LP  0  0  0  0  0  0  0  0  0  0  0  0  # atno 17342 bound_to 10162
  140.6397  143.2201  151.6318 LP  0  0  0  0  0  0  0  0  0  0  0  0  # atno 17343 bound_to 10162
  156.1806  130.6497  151.0947 LP  0  0  0  0  0  0  0  0  0  0  0  0  # atno 17370 bound_to 10713
  157.7013  131.0774  150.6810 LP  0  0  0  0  0  0  0  0  0  0  0  0  # atno 17371 bound_to 10713
  141.1355  133.6576  156.3582 LP  0  0  0  0  0  0  0  0  0  0  0  0  # atno 17394 bound_to 11000
  140.5364  134.6163  157.5366 LP  0  0  0  0  0  0  0  0  0  0  0  0  # atno 17395 bound_to 11000

$$$$
