AV-unprocessed.smi:3222|AV-procd|sdf|12305|dock4
  -GOLD-   2272018143D 1   1.00000     0.00000
 Structure written by MMmdl.
 41 42  0  0  0  0  0  0  0  0  2 V2000
  147.2286  141.8364  156.5044 C   0  0  0  0  0  0  0  0  0  0  0  0
  148.5446  141.0480  156.3713 C   0  0  2  0  0  0  0  0  0  0  0  0
  149.6781  141.9867  156.5333 N   0  3  0  0  0  0  0  0  0  0  0  0
  150.1941  142.1076  157.9119 C   0  0  0  0  0  0  0  0  0  0  0  0
  151.2162  143.2499  158.0171 C   0  0  0  0  0  0  0  0  0  0  0  0
  151.7398  143.3807  159.3741 N   0  0  0  0  0  0  0  0  0  0  0  0
  152.5893  142.3497  159.9461 C   0  0  0  0  0  0  0  0  0  0  0  0
  152.7839  142.7601  161.4131 C   0  0  0  0  0  0  0  0  0  0  0  0
  152.2874  144.2066  161.5129 C   0  0  0  0  0  0  0  0  0  0  0  0
  151.5667  144.4242  160.1935 C   0  0  0  0  0  0  0  0  0  0  0  0
  150.9190  145.4398  159.9446 O   0  0  0  0  0  0  0  0  0  0  0  0
  148.6595  140.2798  155.0261 C   0  0  1  0  0  0  0  0  0  0  0  0
  148.4506  141.1827  153.7953 C   0  0  0  0  0  0  0  0  0  0  0  0
  149.9254  139.5670  154.9087 N   0  0  0  0  0  0  0  0  0  0  0  0
  150.3240  138.6903  153.9204 C   0  0  0  0  0  0  0  0  0  0  0  0
  151.5879  138.2753  154.2280 C   0  0  0  0  0  0  0  0  0  0  0  0
  151.8852  138.9631  155.4374 C   0  0  0  0  0  0  0  0  0  0  0  0
  150.8899  139.7352  155.8418 N   0  0  0  0  0  0  0  0  0  0  0  0
  146.3584  141.1800  156.4980 H   0  0  0  0  0  0  0  0  0  0  0  0
  147.1112  142.5529  155.6908 H   0  0  0  0  0  0  0  0  0  0  0  0
  147.1997  142.3915  157.4425 H   0  0  0  0  0  0  0  0  0  0  0  0
  148.5637  140.3243  157.1884 H   0  0  0  0  0  0  0  0  0  0  0  0
  150.4288  141.6914  155.9256 H   0  0  0  0  0  0  0  0  0  0  0  0
  149.3545  142.2844  158.5852 H   0  0  0  0  0  0  0  0  0  0  0  0
  150.6565  141.1674  158.2143 H   0  0  0  0  0  0  0  0  0  0  0  0
  152.0429  143.0738  157.3273 H   0  0  0  0  0  0  0  0  0  0  0  0
  150.7602  144.1947  157.7165 H   0  0  0  0  0  0  0  0  0  0  0  0
  152.1303  141.3640  159.8602 H   0  0  0  0  0  0  0  0  0  0  0  0
  153.5426  142.3318  159.4160 H   0  0  0  0  0  0  0  0  0  0  0  0
  152.1898  142.1182  162.0649 H   0  0  0  0  0  0  0  0  0  0  0  0
  153.8254  142.6659  161.7223 H   0  0  0  0  0  0  0  0  0  0  0  0
  151.6180  144.3547  162.3609 H   0  0  0  0  0  0  0  0  0  0  0  0
  153.1177  144.9087  161.5940 H   0  0  0  0  0  0  0  0  0  0  0  0
  147.8758  139.5206  155.0088 H   0  0  0  0  0  0  0  0  0  0  0  0
  147.4465  141.6059  153.7741 H   0  0  0  0  0  0  0  0  0  0  0  0
  148.5787  140.6179  152.8712 H   0  0  0  0  0  0  0  0  0  0  0  0
  149.1615  142.0095  153.7793 H   0  0  0  0  0  0  0  0  0  0  0  0
  149.6828  138.4361  153.0891 H   0  0  0  0  0  0  0  0  0  0  0  0
  152.2069  137.5863  153.6726 H   0  0  0  0  0  0  0  0  0  0  0  0
  152.7882  138.9246  156.0288 H   0  0  0  0  0  0  0  0  0  0  0  0
  149.3703  142.9027  156.2397 H   0  0  0  0  0  0  0  0  0  0  0  0
  1  2  1  0  0  0  0
  1 19  1  0  0  0  0
  1 20  1  0  0  0  0
  1 21  1  0  0  0  0
  2  3  1  0  0  0  0
  2 12  1  0  0  0  0
  2 22  1  0  0  0  0
  3  4  1  0  0  0  0
  3 23  1  0  0  0  0
  3 41  1  0  0  0  0
  4  5  1  0  0  0  0
  4 24  1  0  0  0  0
  4 25  1  0  0  0  0
  5  6  1  0  0  0  0
  5 26  1  0  0  0  0
  5 27  1  0  0  0  0
  6 10  1  0  0  0  0
  6  7  1  0  0  0  0
  7  8  1  0  0  0  0
  7 28  1  0  0  0  0
  7 29  1  0  0  0  0
  8  9  1  0  0  0  0
  8 30  1  0  0  0  0
  8 31  1  0  0  0  0
  9 10  1  0  0  0  0
  9 32  1  0  0  0  0
  9 33  1  0  0  0  0
 10 11  2  0  0  0  0
 12 13  1  0  0  0  0
 12 14  1  0  0  0  0
 12 34  1  0  0  0  0
 13 35  1  0  0  0  0
 13 36  1  0  0  0  0
 13 37  1  0  0  0  0
 14 18  1  0  0  0  0
 14 15  1  0  0  0  0
 15 16  2  0  0  0  0
 15 38  1  0  0  0  0
 16 17  1  0  0  0  0
 16 39  1  0  0  0  0
 17 18  2  0  0  0  0
 17 40  1  0  0  0  0
M  CHG  1   3   1
M  END
> <s_m_source_file>
AV-unprocessed.smi

> <i_m_source_file_index>
3222

> <i_lp_mmshare_version>
43012

> <i_f3d_flags>
0

> <s_epik_input>
bjFbY0hdW2NIXVtjSF1uMVtDQEBIXShbQ0gzXSlbQ0BIXShbQ0gzXSlbTkhdW0NIMl1bQ0gyXU4yW0NIMl1bQ0gyXVtDSDJdQzI9Tw==

> <s_epik_cmdline>
J2VwaWtfcHl0aG9uJywgJy1waCcsICc3LjAnLCAnLXRuJywgJzgnLCAnLW1hJywgJzIwMCcsICctbWV0YWxfYmluZGluZycsICctaW1hZScsICc8aW5maWxlLm1hZT4nLCAnLW9tYWUnLCAnPG91dGZpbGUubWFlPic=

> <r_lp_tautomer_probability>
1

> <r_epik_Ionization_Penalty>
0.0064019

> <r_epik_Ionization_Penalty_Charging>
0.00639164

> <r_epik_Ionization_Penalty_Neutral>
1.02567e-05

> <r_epik_State_Penalty>
0.00472531

> <r_epik_Charging_Adjusted_Penalty>
0.011117

> <i_epik_Tot_Q>
1

> <i_epik_Tot_abs_Q>
1

> <r_epik_Metal_State_Penalty>
-0

> <b_epik_Metal_Only>
0

> <s_lp_Force_Field>
OPLS_2005

> <r_lp_Energy>
25.0095

> <b_lp_Chiralities_Consistent>
1

> <s_lp_Variant>
AV-unprocessed.smi:3222-3

> <Gold.Version>
5.8.1

> <Gold.Id.Protein>
6NUR|6NUR_protein|mol2

> <Gold.PLP.Fitness>
49.6707

> <Gold.PLP.PLP>
-40.0099

> <Gold.PLP.part.hbond>
-1.5192

> <Gold.PLP.part.metal>
0.0000

> <Gold.PLP.part.buried>
-4.0177

> <Gold.PLP.part.nonpolar>
-35.0705

> <Gold.PLP.part.repulsive>
0.2537

> <Gold.PLP.ligand.clash>
0.0000

> <Gold.PLP.ligand.torsion>
0.6091

> <Gold.PLP.Chemscore.Hbond>
2.0000

> <Gold.PLP.Chemscore.CHOScore>
1.5785

> <Gold.PLP.Chemscore.Metal>
0.0000

> <Gold.Chemscore.Hbonds>
donor molecule, donor type, donor heavy atom, donor atom, acceptor molecule, acceptor atom, score
      L1  H     3    41       P1  8028  2.00
      L1  C    15    38       P1  7948  0.87
      L1  C    15    38       P1  7957  0.76

> <Gold.PLP.Chemscore.Internal.Correction>
0.1435

> <Gold.Rescore>
     Score         DG    S(hbond)    S(metal)    S(lipo)     H(rot)  DE(clash)    DE(int)     intcor
     12.58     -14.82       1.00        0.00      94.93       1.99       0.14       2.09       ----

> <Gold.Chemscore.Fitness>
12.5830

> <Gold.Chemscore.DG>
-14.8188

> <Gold.Chemscore.ZeroCoef>
-5.4800

> <Gold.Chemscore.Hbond>
0.9975

> <Gold.Chemscore.Metal>
0.0000

> <Gold.Chemscore.Lipo>
94.9329

> <Gold.Chemscore.Internal_Hbond>
0.0000

> <Gold.Chemscore.DEClash>
0.1434

> <Gold.Chemscore.DEInternal>
2.0924

> <Gold.Chemscore.Rot>
1.9922

> <Gold.Chemscore.Internal.Correction>
   9.000000E+99

> <Gold.Chemscore.Hbonds>
donor molecule, donor type, donor heavy atom, donor atom, acceptor molecule, acceptor atom, score
      L1  H     3    41       P1  8028  0.98

> <Gold.Chemscore.Hbond.Weighted>
-3.3318

> <Gold.Chemscore.Metal.Weighted>
-0.0000

> <Gold.Chemscore.Lipo.Weighted>
-11.1071

> <Gold.Chemscore.Internal_Hbond.Weighted>
0.0000

> <Gold.Chemscore.DEClash.Weighted>
0.1434

> <Gold.Chemscore.DEInternal.Weighted>
2.0924

> <Gold.Chemscore.Rot.Weighted>
5.1002

> <Gold.Chemscore.Internal.Correction.Weighted>
   9.000000E+99

> <Gold.Protein.RotatedTorsions>
[ 6907 6896 6895 6894 ] final   78.41 input  -60.11 | X-H torsion
[ 7974 7965 7964 7962 ] final  -52.21 input  175.53 | X-H torsion
[ 8008 7997 7996 7995 ] final   73.87 input   59.86 | X-H torsion
[ 10167 10162 10161 10158 ] final  156.70 input  -65.29 | X-H torsion
[ 10718 10713 10712 10709 ] final  -20.18 input   66.30 | X-H torsion
[ 10763 10752 10751 10750 ] final  167.46 input  -60.55 | X-H torsion
[ 11005 11000 10999 10996 ] final  -92.72 input  -57.11 | X-H torsion

> <Gold.Protein.ActiveResidues>
 VAL166  LYS551  ARG553  GLY616  TRP617  ASP618  TYR619  PRO620  LYS621  CYS622 
 ASP623  PHE694  ASN695  SER759  ASP760  ASP761  ALA762  ILE779  LEU786  VAL792 
 PHE793  MET794  SER795  GLU796  ALA797  LYS798  CYS799  TRP800  GLU811  SER814 

> <Gold.Protein.RotatedAtoms>
  152.5158  134.3668  159.9303 H   0  0  0  0  0  0  0  0  0  0  0  0  # atno 6907 bound_to 6896
  151.3621  133.3879  159.2698 H   0  0  0  0  0  0  0  0  0  0  0  0  # atno 6908 bound_to 6896
  150.9643  134.9046  159.7808 H   0  0  0  0  0  0  0  0  0  0  0  0  # atno 6909 bound_to 6896
  145.9105  140.7919  142.9697 H   0  0  0  0  0  0  0  0  0  0  0  0  # atno 7974 bound_to 7965
  155.7901  140.3479  155.5344 H   0  0  0  0  0  0  0  0  0  0  0  0  # atno 8008 bound_to 7997
  155.8642  140.0976  157.1613 H   0  0  0  0  0  0  0  0  0  0  0  0  # atno 8009 bound_to 7997
  154.4013  140.1352  156.3986 H   0  0  0  0  0  0  0  0  0  0  0  0  # atno 8010 bound_to 7997
  139.4821  144.4985  151.8204 H   0  0  0  0  0  0  0  0  0  0  0  0  # atno 10167 bound_to 10162
  156.5354  130.4665  149.6526 H   0  0  0  0  0  0  0  0  0  0  0  0  # atno 10718 bound_to 10713
  154.3542  135.2753  155.2355 H   0  0  0  0  0  0  0  0  0  0  0  0  # atno 10763 bound_to 10752
  154.4571  135.5916  153.6234 H   0  0  0  0  0  0  0  0  0  0  0  0  # atno 10764 bound_to 10752
  152.9848  135.6056  154.3756 H   0  0  0  0  0  0  0  0  0  0  0  0  # atno 10765 bound_to 10752
  141.1515  133.7839  157.0059 H   0  0  0  0  0  0  0  0  0  0  0  0  # atno 11005 bound_to 11000
  144.6743  140.1818  143.7405 LP  0  0  0  0  0  0  0  0  0  0  0  0  # atno 17320 bound_to 7965
  145.8677  139.2256  143.1679 LP  0  0  0  0  0  0  0  0  0  0  0  0  # atno 17321 bound_to 7965
  140.4475  144.1901  150.5895 LP  0  0  0  0  0  0  0  0  0  0  0  0  # atno 17342 bound_to 10162
  140.4619  143.2445  151.9208 LP  0  0  0  0  0  0  0  0  0  0  0  0  # atno 17343 bound_to 10162
  156.3021  130.7182  151.2056 LP  0  0  0  0  0  0  0  0  0  0  0  0  # atno 17370 bound_to 10713
  157.7414  131.0503  150.5095 LP  0  0  0  0  0  0  0  0  0  0  0  0  # atno 17371 bound_to 10713
  140.0909  134.9593  157.1775 LP  0  0  0  0  0  0  0  0  0  0  0  0  # atno 17394 bound_to 11000
  140.3447  134.2665  155.7207 LP  0  0  0  0  0  0  0  0  0  0  0  0  # atno 17395 bound_to 11000

$$$$
