#       Name:                AV-unprocessed.smi:243
#       Creating user name   scv26
#       Creation time:       Thu Mar 26 20:49:52 2020


#       File generated by GOLD software.
#

@<TRIPOS>MOLECULE
AV-unprocessed.smi:243
    66    69     1
SMALL
NO_CHARGES


@<TRIPOS>ATOM
      1 ****        -5.6107  -1.9237   0.1073 C.3            1 S1                 0.0000
      2 ****        -4.8665  -1.6218  -1.2016 C.3            1 S1                 0.0000
      3 ****        -3.4308  -1.9935  -1.1369 N.4            1 S1                 1.0000
      4 ****        -2.8403  -2.1942  -2.4835 C.3            1 S1                 0.0000
      5 ****        -1.3945  -2.7100  -2.3933 C.3            1 S1                 0.0000
      6 ****        -0.5106  -1.7636  -1.5513 C.3            1 S1                 0.0000
      7 ****         0.8907  -2.2115  -1.4864 N.3            1 S1                 0.0000
      8 ****         1.5700  -2.4970  -2.7466 C.3            1 S1                 0.0000
      9 ****         1.7113  -1.5100  -0.6696 C.ar           1 S1                 0.0000
     10 ****         2.4530  -2.2193   0.2167 N.ar           1 S1                 0.0000
     11 ****         3.2755  -1.5862   1.0582 C.ar           1 S1                 0.0000
     12 ****         3.5053  -0.2766   1.1738 N.ar           1 S1                 0.0000
     13 ****         2.7723   0.4383   0.2727 C.ar           1 S1                 0.0000
     14 ****         1.8635  -0.0938  -0.6845 C.ar           1 S1                 0.0000
     15 ****         1.3149   0.9362  -1.4395 N.2            1 S1                 0.0000
     16 ****         1.8608   2.0157  -0.9501 C.2            1 S1                 0.0000
     17 ****         2.7381   1.8096   0.0905 N.pl3          1 S1                 0.0000
     18 ****         3.4724   2.8259   0.8277 C.3            1 S1                 0.0000
     19 ****         2.6979   3.3766   2.0479 C.3            1 S1                 0.0000
     20 ****         2.4525   2.3195   2.9592 O.3            1 S1                 0.0000
     21 ****         1.3633   4.0295   1.6951 C.3            1 S1                 0.0000
     22 ****         1.2427   5.1409   2.7281 C.3            1 S1                 0.0000
     23 ****         2.5735   5.6181   2.8194 O.3            1 S1                 0.0000
     24 ****         3.4521   4.4984   2.7905 C.3            1 S1                 0.0000
     25 ****        -1.1697  -1.5585  -0.1553 C.3            1 S1                 0.0000
     26 ****        -1.1219  -2.7992   0.7615 C.3            1 S1                 0.0000
     27 ****        -2.6161  -1.0532  -0.3229 C.3            1 S1                 0.0000
     28 ****        -6.6775  -1.7288  -0.0049 H              1 S1                 0.0000
     29 ****        -5.2571  -1.3079   0.9335 H              1 S1                 0.0000
     30 ****        -5.4959  -2.9697   0.3931 H              1 S1                 0.0000
     31 ****        -5.3496  -2.1937  -1.9950 H              1 S1                 0.0000
     32 ****        -4.9705  -0.5703  -1.4723 H              1 S1                 0.0000
     33 ****        -3.4393  -2.9117  -3.0460 H              1 S1                 0.0000
     34 ****        -2.8697  -1.2541  -3.0369 H              1 S1                 0.0000
     35 ****        -1.3822  -3.7167  -1.9749 H              1 S1                 0.0000
     36 ****        -1.0050  -2.7977  -3.4074 H              1 S1                 0.0000
     37 ****        -0.5142  -0.8025  -2.0652 H              1 S1                 0.0000
     38 ****         2.6512  -2.5811  -2.6229 H              1 S1                 0.0000
     39 ****         1.3733  -1.7107  -3.4765 H              1 S1                 0.0000
     40 ****         1.2192  -3.4434  -3.1579 H              1 S1                 0.0000
     41 ****         3.8265  -2.2193   1.7378 H              1 S1                 0.0000
     42 ****         1.6317   2.9993  -1.3335 H              1 S1                 0.0000
     43 ****         4.4265   2.4028   1.1447 H              1 S1                 0.0000
     44 ****         3.7123   3.6369   0.1386 H              1 S1                 0.0000
     45 ****         2.0118   2.6721   3.7171 H              1 S1                 0.0000
     46 ****         1.4149   4.4814   0.7036 H              1 S1                 0.0000
     47 ****         0.5177   3.3403   1.7023 H              1 S1                 0.0000
     48 ****         0.5514   5.9273   2.4247 H              1 S1                 0.0000
     49 ****         0.9227   4.7490   3.6949 H              1 S1                 0.0000
     50 ****         3.7077   4.2136   3.8127 H              1 S1                 0.0000
     51 ****         4.3788   4.7815   2.2902 H              1 S1                 0.0000
     52 ****        -0.6338  -0.7661   0.3677 H              1 S1                 0.0000
     53 ****        -1.6708  -3.6420   0.3425 H              1 S1                 0.0000
     54 ****        -1.5608  -2.5774   1.7346 H              1 S1                 0.0000
     55 ****        -0.1003  -3.1308   0.9425 H              1 S1                 0.0000
     56 ****        -2.6131  -0.0727  -0.8020 H              1 S1                 0.0000
     57 ****        -3.0617  -0.9133   0.6614 H              1 S1                 0.0000
     58 ****        -3.3901  -2.8915  -0.6763 H              1 S1                 0.0000
     59 ****         0.7210  -3.0982  -1.0563 LP             1 S1                 0.0000
     60 ****         2.3843  -3.2166   0.2406 LP             1 S1                 0.0000
     61 ****         4.1347   0.1289   1.8367 LP             1 S1                 0.0000
     62 ****         0.6536   0.8661  -2.1863 LP             1 S1                 0.0000
     63 ****         3.3194   1.9049   3.2359 LP             1 S1                 0.0000
     64 ****         1.8755   1.6275   2.5254 LP             1 S1                 0.0000
     65 ****         2.6945   6.1210   3.6753 LP             1 S1                 0.0000
     66 ****         2.7699   6.2222   2.0472 LP             1 S1                 0.0000
@<TRIPOS>BOND
    1    1    2 1     
    2    1   28 1     
    3    1   29 1     
    4    1   30 1     
    5    2    3 1     
    6    2   31 1     
    7    2   32 1     
    8    3   27 1     
    9    3    4 1     
   10    3   58 1     
   11    4    5 1     
   12    4   33 1     
   13    4   34 1     
   14    5    6 1     
   15    5   35 1     
   16    5   36 1     
   17    6    7 1     
   18    6   25 1     
   19    6   37 1     
   20    7    8 1     
   21    7    9 1     
   22    8   38 1     
   23    8   39 1     
   24    8   40 1     
   25    9   14 ar    
   26    9   10 ar    
   27   10   11 ar    
   28   11   12 ar    
   29   11   41 1     
   30   12   13 ar    
   31   13   17 1     
   32   13   14 ar    
   33   14   15 1     
   34   15   16 2     
   35   16   17 1     
   36   16   42 1     
   37   17   18 1     
   38   18   19 1     
   39   18   43 1     
   40   18   44 1     
   41   19   24 1     
   42   19   20 1     
   43   19   21 1     
   44   20   45 1     
   45   21   22 1     
   46   21   46 1     
   47   21   47 1     
   48   22   23 1     
   49   22   48 1     
   50   22   49 1     
   51   23   24 1     
   52   24   50 1     
   53   24   51 1     
   54   25   26 1     
   55   25   27 1     
   56   25   52 1     
   57   26   53 1     
   58   26   54 1     
   59   26   55 1     
   60   27   56 1     
   61   27   57 1     
   62    7   59 1     
   63   10   60 1     
   64   12   61 1     
   65   15   62 1     
   66   20   63 1     
   67   20   64 1     
   68   23   65 1     
   69   23   66 1     
@<TRIPOS>SUBSTRUCTURE
      1 S1             1
@<TRIPOS>SET
LONE_PAIRS      STATIC     ATOMS    <user>   **** ""
8 59 60 61 62 63 64 65 66
DONOR_HYDROGENS      STATIC     ATOMS    <user>   **** ""
2 58 45
ATOM$BLUE        STATIC     ATOMS    COLORGROUP SYSTEM
8 59 60 61 62 63 64 65 66
ATOM$RED        STATIC     ATOMS    COLORGROUP SYSTEM
2 58 45
