AV-unprocessed.smi:2871|AV-procd|sdf|11030|dock9
  -GOLD-   2272015493D 1   1.00000     0.00000
 Structure written by MMmdl.
 38 40  0  0  0  0  0  0  0  0  1 V2000
  152.5404  143.9612  162.1891 C   0  0  0  0  0  0  0  0  0  0  0  0
  152.2639  143.7982  160.7657 N   0  0  0  0  0  0  0  0  0  0  0  0
  151.8871  144.9504  159.9565 C   0  0  0  0  0  0  0  0  0  0  0  0
  152.4611  142.5398  160.1556 C   0  0  0  0  0  0  0  0  0  0  0  0
  153.3541  141.5777  160.6876 C   0  0  0  0  0  0  0  0  0  0  0  0
  153.4658  140.3523  159.9926 C   0  0  0  0  0  0  0  0  0  0  0  0
  154.3876  139.2373  160.4632 C   0  0  0  0  0  0  0  0  0  0  0  0
  155.2883  138.9686  159.5175 F   0  0  0  0  0  0  0  0  0  0  0  0
  155.0353  139.5727  161.5795 F   0  0  0  0  0  0  0  0  0  0  0  0
  153.6743  138.1368  160.7033 F   0  0  0  0  0  0  0  0  0  0  0  0
  152.7519  140.1084  158.8708 N   0  0  0  0  0  0  0  0  0  0  0  0
  151.9390  141.0756  158.4477 C   0  0  0  0  0  0  0  0  0  0  0  0
  151.2214  140.7917  157.3004 N   0  0  0  0  0  0  0  0  0  0  0  0
  151.1117  139.4676  156.7008 C   0  0  2  0  0  0  0  0  0  0  0  0
  152.4274  138.9735  156.0864 C   0  0  0  0  0  0  0  0  0  0  0  0
  152.0072  138.6688  154.6433 C   0  0  1  0  0  0  0  0  0  0  0  0
  151.0683  137.4579  154.5530 C   0  0  0  0  0  0  0  0  0  0  0  0
  149.7653  138.0305  155.1104 C   0  0  0  0  0  0  0  0  0  0  0  0
  150.1802  139.4617  155.4771 C   0  0  2  0  0  0  0  0  0  0  0  0
  151.0924  139.7278  154.4236 O   0  0  0  0  0  0  0  0  0  0  0  0
  151.7623  142.2668  159.0274 N   0  0  0  0  0  0  0  0  0  0  0  0
  151.9013  143.3044  162.7802 H   0  0  0  0  0  0  0  0  0  0  0  0
  152.3590  144.9853  162.5153 H   0  0  0  0  0  0  0  0  0  0  0  0
  153.5813  143.7198  162.4072 H   0  0  0  0  0  0  0  0  0  0  0  0
  150.9250  144.7804  159.4722 H   0  0  0  0  0  0  0  0  0  0  0  0
  152.6372  145.1414  159.1886 H   0  0  0  0  0  0  0  0  0  0  0  0
  151.7974  145.8503  160.5652 H   0  0  0  0  0  0  0  0  0  0  0  0
  153.9294  141.7574  161.5829 H   0  0  0  0  0  0  0  0  0  0  0  0
  150.8047  141.5707  156.8117 H   0  0  0  0  0  0  0  0  0  0  0  0
  150.7398  138.7719  157.4545 H   0  0  0  0  0  0  0  0  0  0  0  0
  153.1939  139.7500  156.0974 H   0  0  0  0  0  0  0  0  0  0  0  0
  152.8272  138.0983  156.5994 H   0  0  0  0  0  0  0  0  0  0  0  0
  152.8381  138.6395  153.9382 H   0  0  0  0  0  0  0  0  0  0  0  0
  150.9355  137.1436  153.5171 H   0  0  0  0  0  0  0  0  0  0  0  0
  151.4368  136.6059  155.1253 H   0  0  0  0  0  0  0  0  0  0  0  0
  148.9923  138.0386  154.3412 H   0  0  0  0  0  0  0  0  0  0  0  0
  149.3878  137.4714  155.9673 H   0  0  0  0  0  0  0  0  0  0  0  0
  149.3414  140.1561  155.5408 H   0  0  0  0  0  0  0  0  0  0  0  0
  1  2  1  0  0  0  0
  1 22  1  0  0  0  0
  1 23  1  0  0  0  0
  1 24  1  0  0  0  0
  2  3  1  0  0  0  0
  2  4  1  0  0  0  0
  3 25  1  0  0  0  0
  3 26  1  0  0  0  0
  3 27  1  0  0  0  0
  4 21  1  0  0  0  0
  4  5  2  0  0  0  0
  5  6  1  0  0  0  0
  5 28  1  0  0  0  0
  6  7  1  0  0  0  0
  6 11  2  0  0  0  0
  7  8  1  0  0  0  0
  7  9  1  0  0  0  0
  7 10  1  0  0  0  0
 11 12  1  0  0  0  0
 12 13  1  0  0  0  0
 12 21  2  0  0  0  0
 13 14  1  0  0  0  0
 13 29  1  0  0  0  0
 14 19  1  0  0  0  0
 14 15  1  0  0  0  0
 14 30  1  0  0  0  0
 15 16  1  0  0  0  0
 15 31  1  0  0  0  0
 15 32  1  0  0  0  0
 16 20  1  0  0  0  0
 16 17  1  0  0  0  0
 16 33  1  0  0  0  0
 17 18  1  0  0  0  0
 17 34  1  0  0  0  0
 17 35  1  0  0  0  0
 18 19  1  0  0  0  0
 18 36  1  0  0  0  0
 18 37  1  0  0  0  0
 19 20  1  0  0  0  0
 19 38  1  0  0  0  0
M  END
> <s_m_source_file>
AV-unprocessed.smi

> <i_m_source_file_index>
2871

> <i_lp_mmshare_version>
43012

> <i_f3d_flags>
0

> <s_epik_input>
W0NIM11OKFtDSDNdKWMxW2NIXWMoQyhGKShGKUYpbmMobjEpW05IXVtDQEhdKFtDSDJdW0NAQEhdMjMpW0NAQEhdKE8zKVtDSDJdW0NIMl0y

> <s_epik_cmdline>
J2VwaWtfcHl0aG9uJywgJy1waCcsICc3LjAnLCAnLXRuJywgJzgnLCAnLW1hJywgJzIwMCcsICctbWV0YWxfYmluZGluZycsICctaW1hZScsICc8aW5maWxlLm1hZT4nLCAnLW9tYWUnLCAnPG91dGZpbGUubWFlPic=

> <r_lp_tautomer_probability>
1

> <r_epik_Ionization_Penalty>
0.00695968

> <r_epik_Ionization_Penalty_Charging>
0

> <r_epik_Ionization_Penalty_Neutral>
0.00695968

> <r_epik_State_Penalty>
0.0050343

> <r_epik_Charging_Adjusted_Penalty>
0.0050343

> <i_epik_Tot_Q>
0

> <i_epik_Tot_abs_Q>
0

> <r_epik_Metal_State_Penalty>
-0

> <b_epik_Metal_Only>
0

> <s_lp_Force_Field>
OPLS_2005

> <r_lp_Energy>
32.5714

> <b_lp_Chiralities_Consistent>
1

> <s_lp_Variant>
AV-unprocessed.smi:2871-1

> <Gold.Version>
5.8.1

> <Gold.Id.Protein>
6NUR|6NUR_protein|mol2

> <Gold.PLP.Fitness>
45.2236

> <Gold.PLP.PLP>
-42.9699

> <Gold.PLP.part.hbond>
-1.0000

> <Gold.PLP.part.metal>
0.0000

> <Gold.PLP.part.buried>
-5.4342

> <Gold.PLP.part.nonpolar>
-37.1225

> <Gold.PLP.part.repulsive>
0.1809

> <Gold.PLP.ligand.clash>
0.0000

> <Gold.PLP.ligand.torsion>
0.3770

> <Gold.PLP.Chemscore.Hbond>
0.9913

> <Gold.PLP.Chemscore.CHOScore>
0.0000

> <Gold.PLP.Chemscore.Metal>
0.0000

> <Gold.Chemscore.Hbonds>
donor molecule, donor type, donor heavy atom, donor atom, acceptor molecule, acceptor atom, score
      P1  H  7989  7998       L1    20  1.00

> <Gold.PLP.Chemscore.Internal.Correction>
0.0340

> <Gold.Rescore>
     Score         DG    S(hbond)    S(metal)    S(lipo)     H(rot)  DE(clash)    DE(int)     intcor
     16.10     -16.76       1.00        0.00      89.70       1.00       0.11       0.55       ----

> <Gold.Chemscore.Fitness>
16.0981

> <Gold.Chemscore.DG>
-16.7563

> <Gold.Chemscore.ZeroCoef>
-5.4800

> <Gold.Chemscore.Hbond>
1.0005

> <Gold.Chemscore.Metal>
0.0000

> <Gold.Chemscore.Lipo>
89.6992

> <Gold.Chemscore.Internal_Hbond>
0.0000

> <Gold.Chemscore.DEClash>
0.1071

> <Gold.Chemscore.DEInternal>
0.5512

> <Gold.Chemscore.Rot>
1.0000

> <Gold.Chemscore.Internal.Correction>
   9.000000E+99

> <Gold.Chemscore.Hbonds>
donor molecule, donor type, donor heavy atom, donor atom, acceptor molecule, acceptor atom, score
      P1  H  7989  7998       L1    20  0.85

> <Gold.Chemscore.Hbond.Weighted>
-3.3415

> <Gold.Chemscore.Metal.Weighted>
-0.0000

> <Gold.Chemscore.Lipo.Weighted>
-10.4948

> <Gold.Chemscore.Internal_Hbond.Weighted>
0.0000

> <Gold.Chemscore.DEClash.Weighted>
0.1071

> <Gold.Chemscore.DEInternal.Weighted>
0.5512

> <Gold.Chemscore.Rot.Weighted>
2.5600

> <Gold.Chemscore.Internal.Correction.Weighted>
   9.000000E+99

> <Gold.Protein.RotatedTorsions>
[ 6907 6896 6895 6894 ] final  150.03 input  -60.11 | X-H torsion
[ 7974 7965 7964 7962 ] final  -57.23 input  175.53 | X-H torsion
[ 8008 7997 7996 7995 ] final   19.71 input   59.86 | X-H torsion
[ 10167 10162 10161 10158 ] final -153.29 input  -65.29 | X-H torsion
[ 10718 10713 10712 10709 ] final   90.76 input   66.30 | X-H torsion
[ 10763 10752 10751 10750 ] final  -12.22 input  -60.55 | X-H torsion
[ 11005 11000 10999 10996 ] final   27.76 input  -57.11 | X-H torsion

> <Gold.Protein.ActiveResidues>
 VAL166  LYS551  ARG553  GLY616  TRP617  ASP618  TYR619  PRO620  LYS621  CYS622 
 ASP623  PHE694  ASN695  SER759  ASP760  ASP761  ALA762  ILE779  LEU786  VAL792 
 PHE793  MET794  SER795  GLU796  ALA797  LYS798  CYS799  TRP800  GLU811  SER814 

> <Gold.Protein.RotatedAtoms>
  152.1200  133.4348  159.4670 H   0  0  0  0  0  0  0  0  0  0  0  0  # atno 6907 bound_to 6896
  150.6871  134.2546  159.4534 H   0  0  0  0  0  0  0  0  0  0  0  0  # atno 6908 bound_to 6896
  152.0422  134.9704  160.0624 H   0  0  0  0  0  0  0  0  0  0  0  0  # atno 6909 bound_to 6896
  145.8535  140.8336  142.9973 H   0  0  0  0  0  0  0  0  0  0  0  0  # atno 7974 bound_to 7965
  154.9248  140.3032  155.5197 H   0  0  0  0  0  0  0  0  0  0  0  0  # atno 8008 bound_to 7997
  156.3007  140.2365  156.4238 H   0  0  0  0  0  0  0  0  0  0  0  0  # atno 8009 bound_to 7997
  154.8295  140.0419  157.1456 H   0  0  0  0  0  0  0  0  0  0  0  0  # atno 8010 bound_to 7997
  139.7109  143.9110  152.2467 H   0  0  0  0  0  0  0  0  0  0  0  0  # atno 10167 bound_to 10162
  157.6959  131.0382  150.3626 H   0  0  0  0  0  0  0  0  0  0  0  0  # atno 10718 bound_to 10713
  153.4953  135.7017  153.5862 H   0  0  0  0  0  0  0  0  0  0  0  0  # atno 10763 bound_to 10752
  153.4016  135.3870  155.1992 H   0  0  0  0  0  0  0  0  0  0  0  0  # atno 10764 bound_to 10752
  154.8714  135.3883  154.4418 H   0  0  0  0  0  0  0  0  0  0  0  0  # atno 10765 bound_to 10752
  140.3229  134.2524  155.7714 H   0  0  0  0  0  0  0  0  0  0  0  0  # atno 11005 bound_to 11000
  144.6728  140.0988  143.7461 LP  0  0  0  0  0  0  0  0  0  0  0  0  # atno 17320 bound_to 7965
  145.9331  139.2619  143.1313 LP  0  0  0  0  0  0  0  0  0  0  0  0  # atno 17321 bound_to 7965
  139.8979  144.6928  150.8697 LP  0  0  0  0  0  0  0  0  0  0  0  0  # atno 17342 bound_to 10162
  140.7733  143.3536  151.1965 LP  0  0  0  0  0  0  0  0  0  0  0  0  # atno 17343 bound_to 10162
  156.4060  130.3925  149.6925 LP  0  0  0  0  0  0  0  0  0  0  0  0  # atno 17370 bound_to 10713
  156.4226  130.7776  151.2793 LP  0  0  0  0  0  0  0  0  0  0  0  0  # atno 17371 bound_to 10713
  141.2082  133.7783  157.0072 LP  0  0  0  0  0  0  0  0  0  0  0  0  # atno 17394 bound_to 11000
  140.0927  134.9583  157.1801 LP  0  0  0  0  0  0  0  0  0  0  0  0  # atno 17395 bound_to 11000

$$$$
