AV-unprocessed.smi:2152|AV-procd|sdf|8763|dock2
  -GOLD-   2272011543D 1   1.00000     0.00000
 Structure written by MMmdl.
 41 42  0  0  0  0  0  0  0  0  1 V2000
  143.8537  137.0873  153.7074 C   0  0  0  0  0  0  0  0  0  0  0  0
  144.5506  135.7823  153.2849 C   0  0  1  0  0  0  0  0  0  0  0  0
  144.5143  135.5896  151.7543 C   0  0  0  0  0  0  0  0  0  0  0  0
  145.1653  134.2620  151.3346 C   0  0  0  0  0  0  0  0  0  0  0  0
  146.6027  134.1514  151.8643 C   0  0  0  0  0  0  0  0  0  0  0  0
  146.6486  134.3394  153.3904 C   0  0  0  0  0  0  0  0  0  0  0  0
  145.9947  135.6667  153.8340 C   0  0  1  0  0  0  0  0  0  0  0  0
  146.8072  136.8125  153.4246 N   0  0  0  0  0  0  0  0  0  0  0  0
  146.9909  137.9353  154.1349 C   0  0  0  0  0  0  0  0  0  0  0  0
  146.4591  138.1415  155.2265 O   0  0  0  0  0  0  0  0  0  0  0  0
  147.9061  138.9903  153.5003 C   0  0  0  0  0  0  0  0  0  0  0  0
  149.1500  139.1931  154.2542 N   0  0  0  0  0  0  0  0  0  0  0  0
  150.1111  138.1985  154.2713 C   0  0  0  0  0  0  0  0  0  0  0  0
  151.2858  138.3091  154.9289 C   0  0  0  0  0  0  0  0  0  0  0  0
  151.6118  139.5167  155.6769 C   0  0  0  0  0  0  0  0  0  0  0  0
  152.6729  139.6726  156.2831 O   0  0  0  0  0  0  0  0  0  0  0  0
  150.6106  140.5142  155.6510 N   0  0  0  0  0  0  0  0  0  0  0  0
  150.9006  141.7376  156.3692 C   0  0  0  0  0  0  0  0  0  0  0  0
  149.3845  140.3969  154.9552 C   0  0  0  0  0  0  0  0  0  0  0  0
  148.5417  141.2974  154.9435 O   0  0  0  0  0  0  0  0  0  0  0  0
  144.3353  137.9633  153.2726 H   0  0  0  0  0  0  0  0  0  0  0  0
  143.8644  137.2036  154.7915 H   0  0  0  0  0  0  0  0  0  0  0  0
  142.8115  137.0937  153.3874 H   0  0  0  0  0  0  0  0  0  0  0  0
  143.9759  134.9655  153.7245 H   0  0  0  0  0  0  0  0  0  0  0  0
  143.4829  135.6147  151.4008 H   0  0  0  0  0  0  0  0  0  0  0  0
  145.0257  136.4174  151.2618 H   0  0  0  0  0  0  0  0  0  0  0  0
  144.5717  133.4291  151.7134 H   0  0  0  0  0  0  0  0  0  0  0  0
  145.1621  134.1744  150.2478 H   0  0  0  0  0  0  0  0  0  0  0  0
  147.0215  133.1806  151.5984 H   0  0  0  0  0  0  0  0  0  0  0  0
  147.2318  134.8999  151.3805 H   0  0  0  0  0  0  0  0  0  0  0  0
  146.1258  133.5085  153.8657 H   0  0  0  0  0  0  0  0  0  0  0  0
  147.6799  134.2837  153.7409 H   0  0  0  0  0  0  0  0  0  0  0  0
  145.9361  135.6687  154.9241 H   0  0  0  0  0  0  0  0  0  0  0  0
  147.2784  136.7355  152.5349 H   0  0  0  0  0  0  0  0  0  0  0  0
  148.1387  138.7138  152.4702 H   0  0  0  0  0  0  0  0  0  0  0  0
  147.3490  139.9259  153.4351 H   0  0  0  0  0  0  0  0  0  0  0  0
  149.9179  137.2854  153.7270 H   0  0  0  0  0  0  0  0  0  0  0  0
  151.9951  137.4950  154.8986 H   0  0  0  0  0  0  0  0  0  0  0  0
  150.0240  142.3823  156.4230 H   0  0  0  0  0  0  0  0  0  0  0  0
  151.7098  142.2363  155.8333 H   0  0  0  0  0  0  0  0  0  0  0  0
  151.2023  141.4640  157.3820 H   0  0  0  0  0  0  0  0  0  0  0  0
  1  2  1  0  0  0  0
  1 21  1  0  0  0  0
  1 22  1  0  0  0  0
  1 23  1  0  0  0  0
  2  7  1  0  0  0  0
  2  3  1  0  0  0  0
  2 24  1  0  0  0  0
  3  4  1  0  0  0  0
  3 25  1  0  0  0  0
  3 26  1  0  0  0  0
  4  5  1  0  0  0  0
  4 27  1  0  0  0  0
  4 28  1  0  0  0  0
  5  6  1  0  0  0  0
  5 29  1  0  0  0  0
  5 30  1  0  0  0  0
  6  7  1  0  0  0  0
  6 31  1  0  0  0  0
  6 32  1  0  0  0  0
  7  8  1  0  0  0  0
  7 33  1  0  0  0  0
  8  9  1  0  0  0  0
  8 34  1  0  0  0  0
  9 10  2  0  0  0  0
  9 11  1  0  0  0  0
 11 12  1  0  0  0  0
 11 35  1  0  0  0  0
 11 36  1  0  0  0  0
 12 19  1  0  0  0  0
 12 13  1  0  0  0  0
 13 14  2  0  0  0  0
 13 37  1  0  0  0  0
 14 15  1  0  0  0  0
 14 38  1  0  0  0  0
 15 16  2  0  0  0  0
 15 17  1  0  0  0  0
 17 18  1  0  0  0  0
 17 19  1  0  0  0  0
 18 39  1  0  0  0  0
 18 40  1  0  0  0  0
 18 41  1  0  0  0  0
 19 20  2  0  0  0  0
M  END
> <s_m_source_file>
AV-unprocessed.smi

> <i_m_source_file_index>
2152

> <i_lp_mmshare_version>
43012

> <i_f3d_flags>
0

> <s_epik_input>
W0NIM11bQ0BASF0xW0NIMl1bQ0gyXVtDSDJdW0NIMl1bQ0BIXTFbTkhdQyg9TylbQ0gyXW4yW2NIXVtjSF1jKD1PKW4oW0NIM10pYzI9Tw==

> <s_epik_cmdline>
J2VwaWtfcHl0aG9uJywgJy1waCcsICc3LjAnLCAnLXRuJywgJzgnLCAnLW1hJywgJzIwMCcsICctbWV0YWxfYmluZGluZycsICctaW1hZScsICc8aW5maWxlLm1hZT4nLCAnLW9tYWUnLCAnPG91dGZpbGUubWFlPic=

> <r_lp_tautomer_probability>
1

> <r_epik_Ionization_Penalty>
3.20555e-08

> <r_epik_Ionization_Penalty_Charging>
1.30086e-08

> <r_epik_Ionization_Penalty_Neutral>
1.90469e-08

> <r_epik_State_Penalty>
-0

> <r_epik_Charging_Adjusted_Penalty>
1.30086e-08

> <i_epik_Tot_Q>
0

> <i_epik_Tot_abs_Q>
0

> <r_epik_Metal_State_Penalty>
-0

> <b_epik_Metal_Only>
0

> <s_lp_Force_Field>
OPLS_2005

> <r_lp_Energy>
17.5723

> <b_lp_Chiralities_Consistent>
1

> <s_lp_Variant>
AV-unprocessed.smi:2152-2

> <Gold.Version>
5.8.1

> <Gold.Id.Protein>
6NUR|6NUR_protein|mol2

> <Gold.PLP.Fitness>
37.9127

> <Gold.PLP.PLP>
-30.5415

> <Gold.PLP.part.hbond>
-2.0000

> <Gold.PLP.part.metal>
0.0000

> <Gold.PLP.part.buried>
-2.0746

> <Gold.PLP.part.nonpolar>
-26.6666

> <Gold.PLP.part.repulsive>
0.1683

> <Gold.PLP.ligand.clash>
0.0000

> <Gold.PLP.ligand.torsion>
0.4714

> <Gold.PLP.Chemscore.Hbond>
1.7680

> <Gold.PLP.Chemscore.CHOScore>
1.0000

> <Gold.PLP.Chemscore.Metal>
0.0000

> <Gold.Chemscore.Hbonds>
donor molecule, donor type, donor heavy atom, donor atom, acceptor molecule, acceptor atom, score
      L1  H     8    34       P1  7948  0.80
      P1  H  7997  8010       L1    16  1.00
      L1  C    13    37       P1  7948  1.00

> <Gold.PLP.Chemscore.Internal.Correction>
0.0100

> <Gold.Rescore>
     Score         DG    S(hbond)    S(metal)    S(lipo)     H(rot)  DE(clash)    DE(int)     intcor
     13.29     -13.94       1.94        0.00      50.25       1.52       0.01       0.64       ----

> <Gold.Chemscore.Fitness>
13.2863

> <Gold.Chemscore.DG>
-13.9398

> <Gold.Chemscore.ZeroCoef>
-5.4800

> <Gold.Chemscore.Hbond>
1.9409

> <Gold.Chemscore.Metal>
0.0000

> <Gold.Chemscore.Lipo>
50.2471

> <Gold.Chemscore.Internal_Hbond>
0.0000

> <Gold.Chemscore.DEClash>
0.0093

> <Gold.Chemscore.DEInternal>
0.6442

> <Gold.Chemscore.Rot>
1.5242

> <Gold.Chemscore.Internal.Correction>
   9.000000E+99

> <Gold.Chemscore.Hbonds>
donor molecule, donor type, donor heavy atom, donor atom, acceptor molecule, acceptor atom, score
      L1  H     8    34       P1  7948  0.80
      P1  H  7997  8010       L1    16  0.97

> <Gold.Chemscore.Hbond.Weighted>
-6.4827

> <Gold.Chemscore.Metal.Weighted>
-0.0000

> <Gold.Chemscore.Lipo.Weighted>
-5.8789

> <Gold.Chemscore.Internal_Hbond.Weighted>
0.0000

> <Gold.Chemscore.DEClash.Weighted>
0.0093

> <Gold.Chemscore.DEInternal.Weighted>
0.6442

> <Gold.Chemscore.Rot.Weighted>
3.9019

> <Gold.Chemscore.Internal.Correction.Weighted>
   9.000000E+99

> <Gold.Protein.RotatedTorsions>
[ 6907 6896 6895 6894 ] final  -59.60 input  -60.11 | X-H torsion
[ 7974 7965 7964 7962 ] final   70.77 input  175.53 | X-H torsion
[ 8008 7997 7996 7995 ] final   94.36 input   59.86 | X-H torsion
[ 10167 10162 10161 10158 ] final -159.26 input  -65.29 | X-H torsion
[ 10718 10713 10712 10709 ] final  -15.71 input   66.30 | X-H torsion
[ 10763 10752 10751 10750 ] final   61.20 input  -60.55 | X-H torsion
[ 11005 11000 10999 10996 ] final   -0.04 input  -57.11 | X-H torsion

> <Gold.Protein.ActiveResidues>
 VAL166  LYS551  ARG553  GLY616  TRP617  ASP618  TYR619  PRO620  LYS621  CYS622 
 ASP623  PHE694  ASN695  SER759  ASP760  ASP761  ALA762  ILE779  LEU786  VAL792 
 PHE793  MET794  SER795  GLU796  ALA797  LYS798  CYS799  TRP800  GLU811  SER814 

> <Gold.Protein.RotatedAtoms>
  150.7918  134.6948  159.6516 H   0  0  0  0  0  0  0  0  0  0  0  0  # atno 6907 bound_to 6896
  152.4025  134.6259  160.0073 H   0  0  0  0  0  0  0  0  0  0  0  0  # atno 6908 bound_to 6896
  151.6526  133.3283  159.3191 H   0  0  0  0  0  0  0  0  0  0  0  0  # atno 6909 bound_to 6896
  145.7740  139.2856  143.1304 H   0  0  0  0  0  0  0  0  0  0  0  0  # atno 7974 bound_to 7965
  156.0571  140.3301  155.7418 H   0  0  0  0  0  0  0  0  0  0  0  0  # atno 8008 bound_to 7997
  155.5512  140.0610  157.2867 H   0  0  0  0  0  0  0  0  0  0  0  0  # atno 8009 bound_to 7997
  154.4463  140.1893  156.0677 H   0  0  0  0  0  0  0  0  0  0  0  0  # atno 8010 bound_to 7997
  139.6629  143.9881  152.2236 H   0  0  0  0  0  0  0  0  0  0  0  0  # atno 10167 bound_to 10162
  156.5979  130.4816  149.6252 H   0  0  0  0  0  0  0  0  0  0  0  0  # atno 10718 bound_to 10713
  152.9943  135.5509  154.5996 H   0  0  0  0  0  0  0  0  0  0  0  0  # atno 10763 bound_to 10752
  154.5340  135.2815  155.1157 H   0  0  0  0  0  0  0  0  0  0  0  0  # atno 10764 bound_to 10752
  154.2461  135.6407  153.5276 H   0  0  0  0  0  0  0  0  0  0  0  0  # atno 10765 bound_to 10752
  140.6319  133.9567  155.8279 H   0  0  0  0  0  0  0  0  0  0  0  0  # atno 11005 bound_to 11000
  146.0141  140.8408  142.9956 LP  0  0  0  0  0  0  0  0  0  0  0  0  # atno 17320 bound_to 7965
  144.6807  140.2533  143.7329 LP  0  0  0  0  0  0  0  0  0  0  0  0  # atno 17321 bound_to 7965
  139.9625  144.6548  150.8066 LP  0  0  0  0  0  0  0  0  0  0  0  0  # atno 17342 bound_to 10162
  140.7587  143.3113  151.2838 LP  0  0  0  0  0  0  0  0  0  0  0  0  # atno 17343 bound_to 10162
  156.2494  130.6898  151.1630 LP  0  0  0  0  0  0  0  0  0  0  0  0  # atno 17370 bound_to 10713
  157.7287  131.0630  150.5808 LP  0  0  0  0  0  0  0  0  0  0  0  0  # atno 17371 bound_to 10713
  141.0669  134.0263  157.3581 LP  0  0  0  0  0  0  0  0  0  0  0  0  # atno 17394 bound_to 11000
  139.9113  135.0190  156.7701 LP  0  0  0  0  0  0  0  0  0  0  0  0  # atno 17395 bound_to 11000

$$$$
