#       Name:                AV-unprocessed.smi:2083
#       Creating user name   scv26
#       Creation time:       Fri Mar 27 11:21:55 2020


#       File generated by GOLD software.
#

@<TRIPOS>MOLECULE
AV-unprocessed.smi:2083
    50    51     1
SMALL
NO_CHARGES


@<TRIPOS>ATOM
      1 ****        -5.5585   6.6409  -0.0039 C.3            1 S1                 0.0000
      2 ****        -4.8172   5.3494   0.0543 C.2            1 S1                 0.0000
      3 ****        -3.4871   5.0389   0.0253 C.2            1 S1                 0.0000
      4 ****        -3.4859   3.6212   0.1135 C.2            1 S1                 0.0000
      5 ****        -2.2641   2.8980   0.1072 N.am           1 S1                 0.0000
      6 ****        -2.0710   1.5672   0.1532 C.2            1 S1                 0.0000
      7 ****        -3.0367   0.7975   0.2245 O.2            1 S1                 0.0000
      8 ****        -0.7509   1.2391   0.1106 N.pl3          1 S1                -1.0000
      9 ****        -0.2362  -0.1291   0.1303 C.3            1 S1                 0.0000
     10 ****         1.2906  -0.1408  -0.2019 C.3            1 S1                 0.0000
     11 ****         1.6077   0.3104  -1.6477 C.3            1 S1                 0.0000
     12 ****         2.0127  -1.4235   0.1037 N.4            1 S1                 1.0000
     13 ****         2.2823  -1.6682   1.5488 C.3            1 S1                 0.0000
     14 ****         3.3309  -2.7775   1.7231 C.3            1 S1                 0.0000
     15 ****         2.8909  -4.0667   1.0161 C.3            1 S1                 0.0000
     16 ****         2.5878  -3.7898  -0.4670 C.3            1 S1                 0.0000
     17 ****         2.1277  -5.0622  -1.1924 C.3            1 S1                 0.0000
     18 ****         1.5483  -2.6588  -0.5971 C.3            1 S1                 0.0000
     19 ****        -4.7069   3.1131   0.1942 N.2            1 S1                 0.0000
     20 ****        -5.5660   4.2179   0.1570 O.3            1 S1                 0.0000
     21 ****        -4.8986   7.4556  -0.3026 H              1 S1                 0.0000
     22 ****        -5.9812   6.8870   0.9700 H              1 S1                 0.0000
     23 ****        -6.3745   6.5870  -0.7247 H              1 S1                 0.0000
     24 ****        -2.6506   5.7174  -0.0501 H              1 S1                 0.0000
     25 ****        -1.4272   3.4587   0.0498 H              1 S1                 0.0000
     26 ****        -0.3872  -0.5823   1.1103 H              1 S1                 0.0000
     27 ****        -0.7562  -0.7774  -0.5760 H              1 S1                 0.0000
     28 ****         1.7582   0.6074   0.4405 H              1 S1                 0.0000
     29 ****         1.2811   1.3343  -1.8388 H              1 S1                 0.0000
     30 ****         1.1408  -0.3242  -2.4022 H              1 S1                 0.0000
     31 ****         2.6829   0.2909  -1.8285 H              1 S1                 0.0000
     32 ****         2.6474  -0.7562   2.0223 H              1 S1                 0.0000
     33 ****         1.3617  -1.9474   2.0630 H              1 S1                 0.0000
     34 ****         4.2870  -2.4443   1.3171 H              1 S1                 0.0000
     35 ****         3.4957  -2.9712   2.7834 H              1 S1                 0.0000
     36 ****         3.6705  -4.8236   1.1086 H              1 S1                 0.0000
     37 ****         2.0044  -4.4697   1.5080 H              1 S1                 0.0000
     38 ****         3.5105  -3.4557  -0.9440 H              1 S1                 0.0000
     39 ****         1.2011  -5.4485  -0.7666 H              1 S1                 0.0000
     40 ****         2.8798  -5.8482  -1.1215 H              1 S1                 0.0000
     41 ****         1.9527  -4.8692  -2.2512 H              1 S1                 0.0000
     42 ****         0.5945  -2.9915  -0.1841 H              1 S1                 0.0000
     43 ****         1.3797  -2.4520  -1.6533 H              1 S1                 0.0000
     44 ****         2.9308  -1.2560  -0.2813 H              1 S1                 0.0000
     45 ****        -3.9671   1.1635   0.2482 LP             1 S1                 0.0000
     46 ****        -2.8871  -0.1906   0.2584 LP             1 S1                 0.0000
     47 ****        -0.0871   1.9855   0.0625 LP             1 S1                 0.0000
     48 ****        -4.9602   2.1484   0.2662 LP             1 S1                 0.0000
     49 ****        -6.1748   4.1444  -0.6329 LP             1 S1                 0.0000
     50 ****        -6.1102   4.2495   0.9954 LP             1 S1                 0.0000
@<TRIPOS>BOND
    1    1    2 1     
    2    1   21 1     
    3    1   22 1     
    4    1   23 1     
    5    2   20 1     
    6    2    3 2     
    7    3    4 1     
    8    3   24 1     
    9    4    5 1     
   10    4   19 2     
   11    5    6 am    
   12    5   25 1     
   13    6    7 2     
   14    6    8 1     
   15    8    9 1     
   16    9   10 1     
   17    9   26 1     
   18    9   27 1     
   19   10   11 1     
   20   10   12 1     
   21   10   28 1     
   22   11   29 1     
   23   11   30 1     
   24   11   31 1     
   25   12   18 1     
   26   12   13 1     
   27   12   44 1     
   28   13   14 1     
   29   13   32 1     
   30   13   33 1     
   31   14   15 1     
   32   14   34 1     
   33   14   35 1     
   34   15   16 1     
   35   15   36 1     
   36   15   37 1     
   37   16   17 1     
   38   16   18 1     
   39   16   38 1     
   40   17   39 1     
   41   17   40 1     
   42   17   41 1     
   43   18   42 1     
   44   18   43 1     
   45   19   20 1     
   46    7   45 1     
   47    7   46 1     
   48    8   47 1     
   49   19   48 1     
   50   20   49 1     
   51   20   50 1     
@<TRIPOS>SUBSTRUCTURE
      1 S1             1
@<TRIPOS>SET
LONE_PAIRS      STATIC     ATOMS    <user>   **** ""
6 45 46 47 48 49 50
DONOR_HYDROGENS      STATIC     ATOMS    <user>   **** ""
2 25 44
ATOM$BLUE        STATIC     ATOMS    COLORGROUP SYSTEM
6 45 46 47 48 49 50
ATOM$RED        STATIC     ATOMS    COLORGROUP SYSTEM
2 25 44
