#       Name:                AV-unprocessed.smi:1833
#       Creating user name   scv26
#       Creation time:       Fri Mar 27 09:15:53 2020


#       File generated by GOLD software.
#

@<TRIPOS>MOLECULE
AV-unprocessed.smi:1833
    45    46     1
SMALL
NO_CHARGES


@<TRIPOS>ATOM
      1 ****        -3.9859  -0.9230  -3.4518 C.3            1 S1                 0.0000
      2 ****        -4.0799  -1.8547  -2.2347 C.3            1 S1                 0.0000
      3 ****        -3.4340  -1.2826  -1.0264 N.4            1 S1                 1.0000
      4 ****        -3.9301  -1.9125   0.2252 C.3            1 S1                 0.0000
      5 ****        -3.3548  -1.2127   1.4679 C.3            1 S1                 0.0000
      6 ****        -1.8212  -1.2007   1.4344 C.3            1 S1                 0.0000
      7 ****        -1.3313  -0.5732   0.1199 C.3            1 S1                 0.0000
      8 ****         0.1261  -0.6313   0.0453 N.am           1 S1                 0.0000
      9 ****         0.9540   0.4193   0.1370 C.2            1 S1                 0.0000
     10 ****         0.5827   1.5819   0.2970 O.2            1 S1                 0.0000
     11 ****         2.2379   0.0501   0.0306 N.am           1 S1                 0.0000
     12 ****         3.3747   0.9626   0.0720 C.3            1 S1                 0.0000
     13 ****         3.7322   1.3628   1.5124 C.3            1 S1                 0.0000
     14 ****         4.9222   2.2603   1.5732 C.2            1 S1                 0.0000
     15 ****         4.8471   3.5909   1.4801 N.2            1 S1                 0.0000
     16 ****         6.1025   4.2018   1.5302 C.2            1 S1                 0.0000
     17 ****         7.1399   3.3120   1.6487 C.2            1 S1                 0.0000
     18 ****         6.5742   1.6649   1.7023 S.3            1 S1                 0.0000
     19 ****        -1.9478  -1.2980  -1.0911 C.3            1 S1                 0.0000
     20 ****        -4.5535  -1.3300  -4.2889 H              1 S1                 0.0000
     21 ****        -2.9594  -0.7943  -3.7934 H              1 S1                 0.0000
     22 ****        -4.3934   0.0630  -3.2265 H              1 S1                 0.0000
     23 ****        -5.1380  -2.0226  -2.0291 H              1 S1                 0.0000
     24 ****        -3.6512  -2.8316  -2.4627 H              1 S1                 0.0000
     25 ****        -5.0190  -1.8596   0.2593 H              1 S1                 0.0000
     26 ****        -3.6639  -2.9707   0.2317 H              1 S1                 0.0000
     27 ****        -3.7277  -0.1886   1.5168 H              1 S1                 0.0000
     28 ****        -3.7035  -1.7115   2.3726 H              1 S1                 0.0000
     29 ****        -1.4330  -0.6451   2.2891 H              1 S1                 0.0000
     30 ****        -1.4452  -2.2208   1.5266 H              1 S1                 0.0000
     31 ****        -1.6667   0.4655   0.0909 H              1 S1                 0.0000
     32 ****         0.5380  -1.5443  -0.0834 H              1 S1                 0.0000
     33 ****         2.4460  -0.9296  -0.0965 H              1 S1                 0.0000
     34 ****         4.2238   0.4629  -0.3951 H              1 S1                 0.0000
     35 ****         3.1654   1.8483  -0.5309 H              1 S1                 0.0000
     36 ****         2.8908   1.8690   1.9877 H              1 S1                 0.0000
     37 ****         3.9385   0.4737   2.1091 H              1 S1                 0.0000
     38 ****         6.1659   5.2783   1.4715 H              1 S1                 0.0000
     39 ****         8.1972   3.5245   1.7048 H              1 S1                 0.0000
     40 ****        -1.5973  -2.3306  -1.1369 H              1 S1                 0.0000
     41 ****        -1.6075  -0.8087  -2.0033 H              1 S1                 0.0000
     42 ****        -3.7161  -0.3136  -0.9839 H              1 S1                 0.0000
     43 ****        -0.3929   1.7900   0.3669 LP             1 S1                 0.0000
     44 ****         1.2567   2.3182   0.3570 LP             1 S1                 0.0000
     45 ****         3.9879   4.0936   1.3851 LP             1 S1                 0.0000
@<TRIPOS>BOND
    1    1    2 1     
    2    1   20 1     
    3    1   21 1     
    4    1   22 1     
    5    2    3 1     
    6    2   23 1     
    7    2   24 1     
    8    3   19 1     
    9    3    4 1     
   10    3   42 1     
   11    4    5 1     
   12    4   25 1     
   13    4   26 1     
   14    5    6 1     
   15    5   27 1     
   16    5   28 1     
   17    6    7 1     
   18    6   29 1     
   19    6   30 1     
   20    7    8 1     
   21    7   19 1     
   22    7   31 1     
   23    8    9 am    
   24    8   32 1     
   25    9   10 2     
   26    9   11 am    
   27   11   12 1     
   28   11   33 1     
   29   12   13 1     
   30   12   34 1     
   31   12   35 1     
   32   13   14 1     
   33   13   36 1     
   34   13   37 1     
   35   14   18 1     
   36   14   15 2     
   37   15   16 1     
   38   16   17 2     
   39   16   38 1     
   40   17   18 1     
   41   17   39 1     
   42   19   40 1     
   43   19   41 1     
   44   10   43 1     
   45   10   44 1     
   46   15   45 1     
@<TRIPOS>SUBSTRUCTURE
      1 S1             1
@<TRIPOS>SET
LONE_PAIRS      STATIC     ATOMS    <user>   **** ""
3 43 44 45
DONOR_HYDROGENS      STATIC     ATOMS    <user>   **** ""
3 42 32 33
ATOM$BLUE        STATIC     ATOMS    COLORGROUP SYSTEM
3 43 44 45
ATOM$RED        STATIC     ATOMS    COLORGROUP SYSTEM
3 42 32 33
