AV-unprocessed.smi:719|AV-procd|sdf|3493|dock7
  -GOLD-   22720 0483D 1   1.00000     0.00000
 Structure written by MMmdl.
 41 43  0  0  0  0  0  0  0  0  1 V2000
  146.1638  142.3741  154.6429 C   0  0  0  0  0  0  0  0  0  0  0  0
  146.7880  141.5853  153.4866 C   0  0  0  0  0  0  0  0  0  0  0  0
  147.7659  140.5532  153.9653 C   0  0  0  0  0  0  0  0  0  0  0  0
  148.8426  140.9491  154.7640 N   0  0  0  0  0  0  0  0  0  0  0  0
  149.6296  139.9286  155.1119 C   0  0  0  0  0  0  0  0  0  0  0  0
  150.8114  140.0657  156.0167 C   0  0  0  0  0  0  0  0  0  0  0  0
  150.4826  140.6880  157.3871 C   0  0  0  0  0  0  0  0  0  0  0  0
  151.2483  141.9040  157.6514 N   0  0  0  0  0  0  0  0  0  0  0  0
  150.7537  143.0415  158.1647 C   0  0  0  0  0  0  0  0  0  0  0  0
  149.5680  143.1957  158.4580 O   0  0  0  0  0  0  0  0  0  0  0  0
  151.7560  144.1394  158.2860 C   0  0  2  0  0  0  0  0  0  0  0  0
  153.0647  143.9029  159.0228 C   0  0  2  0  0  0  0  0  0  0  0  0
  153.3537  142.7440  159.9564 C   0  0  0  0  0  0  0  0  0  0  0  0
  152.2558  142.7581  161.0326 C   0  0  0  0  0  0  0  0  0  0  0  0
  151.6376  144.1656  160.9907 C   0  0  0  0  0  0  0  0  0  0  0  0
  152.0087  144.7682  159.6491 C   0  0  2  0  0  0  0  0  0  0  0  0
  149.0845  138.3864  154.4698 S   0  0  0  0  0  0  0  0  0  0  0  0
  147.7464  139.2029  153.7035 C   0  0  0  0  0  0  0  0  0  0  0  0
  146.7535  138.4426  152.8890 C   0  0  0  0  0  0  0  0  0  0  0  0
  145.4595  143.1182  154.2710 H   0  0  0  0  0  0  0  0  0  0  0  0
  146.9282  142.8971  155.2186 H   0  0  0  0  0  0  0  0  0  0  0  0
  145.6237  141.7156  155.3239 H   0  0  0  0  0  0  0  0  0  0  0  0
  145.9952  141.1069  152.9100 H   0  0  0  0  0  0  0  0  0  0  0  0
  147.2745  142.2786  152.8000 H   0  0  0  0  0  0  0  0  0  0  0  0
  151.2514  139.0786  156.1593 H   0  0  0  0  0  0  0  0  0  0  0  0
  151.5685  140.6672  155.5118 H   0  0  0  0  0  0  0  0  0  0  0  0
  149.4117  140.8857  157.4584 H   0  0  0  0  0  0  0  0  0  0  0  0
  150.7091  139.9696  158.1751 H   0  0  0  0  0  0  0  0  0  0  0  0
  152.2310  141.8811  157.4201 H   0  0  0  0  0  0  0  0  0  0  0  0
  151.7691  144.8340  157.4483 H   0  0  0  0  0  0  0  0  0  0  0  0
  153.9426  144.3767  158.5879 H   0  0  0  0  0  0  0  0  0  0  0  0
  153.3893  141.8013  159.4098 H   0  0  0  0  0  0  0  0  0  0  0  0
  154.3298  142.9030  160.4153 H   0  0  0  0  0  0  0  0  0  0  0  0
  151.4945  142.0168  160.7880 H   0  0  0  0  0  0  0  0  0  0  0  0
  152.6425  142.5068  162.0205 H   0  0  0  0  0  0  0  0  0  0  0  0
  150.5563  144.1509  161.1284 H   0  0  0  0  0  0  0  0  0  0  0  0
  152.0667  144.7856  161.7784 H   0  0  0  0  0  0  0  0  0  0  0  0
  152.1496  145.8473  159.6520 H   0  0  0  0  0  0  0  0  0  0  0  0
  146.6140  138.9088  151.9136 H   0  0  0  0  0  0  0  0  0  0  0  0
  145.7867  138.4128  153.3913 H   0  0  0  0  0  0  0  0  0  0  0  0
  147.0797  137.4151  152.7262 H   0  0  0  0  0  0  0  0  0  0  0  0
  1  2  1  0  0  0  0
  1 20  1  0  0  0  0
  1 21  1  0  0  0  0
  1 22  1  0  0  0  0
  2  3  1  0  0  0  0
  2 23  1  0  0  0  0
  2 24  1  0  0  0  0
  3 18  2  0  0  0  0
  3  4  1  0  0  0  0
  4  5  2  0  0  0  0
  5  6  1  0  0  0  0
  5 17  1  0  0  0  0
  6  7  1  0  0  0  0
  6 25  1  0  0  0  0
  6 26  1  0  0  0  0
  7  8  1  0  0  0  0
  7 27  1  0  0  0  0
  7 28  1  0  0  0  0
  8  9  1  0  0  0  0
  8 29  1  0  0  0  0
  9 10  2  0  0  0  0
  9 11  1  0  0  0  0
 11 16  1  0  0  0  0
 11 12  1  0  0  0  0
 11 30  1  0  0  0  0
 12 16  1  0  0  0  0
 12 13  1  0  0  0  0
 12 31  1  0  0  0  0
 13 14  1  0  0  0  0
 13 32  1  0  0  0  0
 13 33  1  0  0  0  0
 14 15  1  0  0  0  0
 14 34  1  0  0  0  0
 14 35  1  0  0  0  0
 15 16  1  0  0  0  0
 15 36  1  0  0  0  0
 15 37  1  0  0  0  0
 16 38  1  0  0  0  0
 17 18  1  0  0  0  0
 18 19  1  0  0  0  0
 19 39  1  0  0  0  0
 19 40  1  0  0  0  0
 19 41  1  0  0  0  0
M  END
> <s_m_source_file>
AV-unprocessed.smi

> <i_m_source_file_index>
719

> <i_lp_mmshare_version>
43012

> <i_f3d_flags>
0

> <s_epik_input>
W0NIM11bQ0gyXWMxbmMoc2MxW0NIM10pW0NIMl1bQ0gyXVtOSF1DKD1PKVtDQEhdMltDQEhdKFtDQEBIXTIzKVtDSDJdW0NIMl1bQ0gyXTM=

> <s_epik_cmdline>
J2VwaWtfcHl0aG9uJywgJy1waCcsICc3LjAnLCAnLXRuJywgJzgnLCAnLW1hJywgJzIwMCcsICctbWV0YWxfYmluZGluZycsICctaW1hZScsICc8aW5maWxlLm1hZT4nLCAnLW9tYWUnLCAnPG91dGZpbGUubWFlPic=

> <r_epik_Ionization_Penalty>
0.00247473

> <r_epik_Ionization_Penalty_Charging>
0

> <r_epik_Ionization_Penalty_Neutral>
0.00247473

> <r_epik_State_Penalty>
0.00171502

> <r_epik_Charging_Adjusted_Penalty>
0.00171502

> <i_epik_Tot_Q>
0

> <i_epik_Tot_abs_Q>
0

> <r_epik_Metal_State_Penalty>
-0

> <b_epik_Metal_Only>
0

> <s_lp_Force_Field>
OPLS_2005

> <r_lp_Energy>
22.4904

> <b_lp_Chiralities_Consistent>
1

> <s_lp_Variant>
AV-unprocessed.smi:719-1

> <Gold.Version>
5.8.1

> <Gold.Id.Protein>
6NUR|6NUR_protein|mol2

> <Gold.PLP.Fitness>
45.0457

> <Gold.PLP.PLP>
-46.0560

> <Gold.PLP.part.hbond>
0.0000

> <Gold.PLP.part.metal>
0.0000

> <Gold.PLP.part.buried>
-4.7284

> <Gold.PLP.part.nonpolar>
-42.2115

> <Gold.PLP.part.repulsive>
0.3573

> <Gold.PLP.ligand.clash>
0.0000

> <Gold.PLP.ligand.torsion>
0.5656

> <Gold.PLP.Chemscore.Hbond>
0.0000

> <Gold.PLP.Chemscore.CHOScore>
0.0000

> <Gold.PLP.Chemscore.Metal>
0.0000

> <Gold.PLP.Chemscore.Internal.Correction>
0.1208

> <Gold.Rescore>
     Score         DG    S(hbond)    S(metal)    S(lipo)     H(rot)  DE(clash)    DE(int)     intcor
     16.58     -17.24       0.00        0.00     131.61       1.42       0.18       0.48       ----

> <Gold.Chemscore.Fitness>
16.5792

> <Gold.Chemscore.DG>
-17.2409

> <Gold.Chemscore.ZeroCoef>
-5.4800

> <Gold.Chemscore.Hbond>
0.0000

> <Gold.Chemscore.Metal>
0.0000

> <Gold.Chemscore.Lipo>
131.6109

> <Gold.Chemscore.Internal_Hbond>
0.0000

> <Gold.Chemscore.DEClash>
0.1822

> <Gold.Chemscore.DEInternal>
0.4795

> <Gold.Chemscore.Rot>
1.4209

> <Gold.Chemscore.Internal.Correction>
   9.000000E+99

> <Gold.Chemscore.Hbond.Weighted>
-0.0000

> <Gold.Chemscore.Metal.Weighted>
-0.0000

> <Gold.Chemscore.Lipo.Weighted>
-15.3985

> <Gold.Chemscore.Internal_Hbond.Weighted>
0.0000

> <Gold.Chemscore.DEClash.Weighted>
0.1822

> <Gold.Chemscore.DEInternal.Weighted>
0.4795

> <Gold.Chemscore.Rot.Weighted>
3.6376

> <Gold.Chemscore.Internal.Correction.Weighted>
   9.000000E+99

> <Gold.Protein.RotatedTorsions>
[ 6907 6896 6895 6894 ] final  124.78 input  -60.11 | X-H torsion
[ 7974 7965 7964 7962 ] final  171.19 input  175.53 | X-H torsion
[ 8008 7997 7996 7995 ] final   96.62 input   59.86 | X-H torsion
[ 10167 10162 10161 10158 ] final -119.19 input  -65.29 | X-H torsion
[ 10718 10713 10712 10709 ] final -152.51 input   66.30 | X-H torsion
[ 10763 10752 10751 10750 ] final -137.27 input  -60.55 | X-H torsion
[ 11005 11000 10999 10996 ] final  114.22 input  -57.11 | X-H torsion

> <Gold.Protein.ActiveResidues>
 VAL166  LYS551  ARG553  GLY616  TRP617  ASP618  TYR619  PRO620  LYS621  CYS622 
 ASP623  PHE694  ASN695  SER759  ASP760  ASP761  ALA762  ILE779  LEU786  VAL792 
 PHE793  MET794  SER795  GLU796  ALA797  LYS798  CYS799  TRP800  GLU811  SER814 

> <Gold.Protein.RotatedAtoms>
  152.4049  133.6874  159.6347 H   0  0  0  0  0  0  0  0  0  0  0  0  # atno 6907 bound_to 6896
  150.7935  133.8726  159.3272 H   0  0  0  0  0  0  0  0  0  0  0  0  # atno 6908 bound_to 6896
  151.6483  135.1006  160.0207 H   0  0  0  0  0  0  0  0  0  0  0  0  # atno 6909 bound_to 6896
  144.7302  139.9313  143.6425 H   0  0  0  0  0  0  0  0  0  0  0  0  # atno 7974 bound_to 7965
  156.0815  140.3270  155.7700 H   0  0  0  0  0  0  0  0  0  0  0  0  # atno 8008 bound_to 7997
  155.5145  140.0580  157.2935 H   0  0  0  0  0  0  0  0  0  0  0  0  # atno 8009 bound_to 7997
  154.4585  140.1955  156.0328 H   0  0  0  0  0  0  0  0  0  0  0  0  # atno 8010 bound_to 7997
  140.0493  143.5076  152.2090 H   0  0  0  0  0  0  0  0  0  0  0  0  # atno 10167 bound_to 10162
  156.4734  130.8269  151.2498 H   0  0  0  0  0  0  0  0  0  0  0  0  # atno 10718 bound_to 10713
  154.8665  135.3647  154.5196 H   0  0  0  0  0  0  0  0  0  0  0  0  # atno 10763 bound_to 10752
  153.5827  135.7018  153.5461 H   0  0  0  0  0  0  0  0  0  0  0  0  # atno 10764 bound_to 10752
  153.3443  135.4089  155.1559 H   0  0  0  0  0  0  0  0  0  0  0  0  # atno 10765 bound_to 10752
  139.8974  134.9564  156.6858 H   0  0  0  0  0  0  0  0  0  0  0  0  # atno 11005 bound_to 11000
  146.0855  139.3844  143.0438 LP  0  0  0  0  0  0  0  0  0  0  0  0  # atno 17320 bound_to 7965
  145.7782  140.9867  143.1113 LP  0  0  0  0  0  0  0  0  0  0  0  0  # atno 17321 bound_to 7965
  139.5963  144.7568  151.3278 LP  0  0  0  0  0  0  0  0  0  0  0  0  # atno 17342 bound_to 10162
  140.7224  143.7099  150.7778 LP  0  0  0  0  0  0  0  0  0  0  0  0  # atno 17343 bound_to 10162
  157.7489  131.0069  150.3168 LP  0  0  0  0  0  0  0  0  0  0  0  0  # atno 17370 bound_to 10713
  156.3595  130.3844  149.7263 LP  0  0  0  0  0  0  0  0  0  0  0  0  # atno 17371 bound_to 10713
  140.7264  133.9097  155.8181 LP  0  0  0  0  0  0  0  0  0  0  0  0  # atno 17394 bound_to 11000
  141.0188  134.0918  157.4143 LP  0  0  0  0  0  0  0  0  0  0  0  0  # atno 17395 bound_to 11000

$$$$
