AV-unprocessed.smi:2299|AV-procd|sdf|9231|dock9
  -GOLD-   2272012453D 1   1.00000     0.00000
 Structure written by MMmdl.
 42 43  0  0  0  0  0  0  0  0  1 V2000
  150.6922  141.6832  155.9265 C   0  0  0  0  0  0  0  0  0  0  0  0
  149.9886  140.3844  155.5070 C   0  0  0  0  0  0  0  0  0  0  0  0
  150.9507  139.4042  154.8201 C   0  0  0  0  0  0  0  0  0  0  0  0
  148.7788  140.6635  154.6557 C   0  0  0  0  0  0  0  0  0  0  0  0
  148.4972  141.8712  154.1718 N   0  0  0  0  0  0  0  0  0  0  0  0
  147.3080  141.7140  153.4714 C   0  0  0  0  0  0  0  0  0  0  0  0
  146.9020  140.4056  153.5578 C   0  0  0  0  0  0  0  0  0  0  0  0
  147.8506  139.7377  154.3232 N   0  0  0  0  0  0  0  0  0  0  0  0
  147.7924  138.3256  154.6721 C   0  0  0  0  0  0  0  0  0  0  0  0
  146.4975  137.6880  154.1654 C   0  0  0  0  0  0  0  0  0  0  0  0
  145.4103  138.0950  154.5745 O   0  0  0  0  0  0  0  0  0  0  0  0
  146.6288  136.6843  153.2844 N   0  0  0  0  0  0  0  0  0  0  0  0
  145.5371  135.8877  152.7243 C   0  0  1  0  0  0  0  0  0  0  0  0
  145.9025  135.4010  151.3044 C   0  0  0  0  0  0  0  0  0  0  0  0
  144.6845  135.0538  150.4327 C   0  0  0  0  0  0  0  0  0  0  0  0
  143.8238  133.8943  150.9567 C   0  0  0  0  0  0  0  0  0  0  0  0
  143.1289  134.1939  152.2965 C   0  0  0  0  0  0  0  0  0  0  0  0
  144.0249  134.0478  153.4369 N   0  0  0  0  0  0  0  0  0  0  0  0
  145.1311  134.7621  153.6944 C   0  0  0  0  0  0  0  0  0  0  0  0
  145.8164  134.5177  154.6872 O   0  0  0  0  0  0  0  0  0  0  0  0
  150.0115  142.3367  156.4727 H   0  0  0  0  0  0  0  0  0  0  0  0
  151.0618  142.2342  155.0610 H   0  0  0  0  0  0  0  0  0  0  0  0
  151.5424  141.4774  156.5774 H   0  0  0  0  0  0  0  0  0  0  0  0
  149.6689  139.8967  156.4251 H   0  0  0  0  0  0  0  0  0  0  0  0
  150.4496  138.4646  154.5850 H   0  0  0  0  0  0  0  0  0  0  0  0
  151.8001  139.1728  155.4632 H   0  0  0  0  0  0  0  0  0  0  0  0
  151.3420  139.8156  153.8891 H   0  0  0  0  0  0  0  0  0  0  0  0
  146.8396  142.5464  152.9675 H   0  0  0  0  0  0  0  0  0  0  0  0
  146.0333  139.9070  153.1535 H   0  0  0  0  0  0  0  0  0  0  0  0
  148.6410  137.8151  154.2153 H   0  0  0  0  0  0  0  0  0  0  0  0
  147.9052  138.2056  155.7501 H   0  0  0  0  0  0  0  0  0  0  0  0
  147.5626  136.4173  153.0074 H   0  0  0  0  0  0  0  0  0  0  0  0
  144.6722  136.5497  152.6499 H   0  0  0  0  0  0  0  0  0  0  0  0
  146.4609  136.1801  150.7836 H   0  0  0  0  0  0  0  0  0  0  0  0
  146.5773  134.5457  151.3632 H   0  0  0  0  0  0  0  0  0  0  0  0
  144.0624  135.9411  150.3085 H   0  0  0  0  0  0  0  0  0  0  0  0
  145.0378  134.7980  149.4334 H   0  0  0  0  0  0  0  0  0  0  0  0
  143.0546  133.6855  150.2122 H   0  0  0  0  0  0  0  0  0  0  0  0
  144.4193  132.9835  151.0328 H   0  0  0  0  0  0  0  0  0  0  0  0
  142.6748  135.1858  152.2927 H   0  0  0  0  0  0  0  0  0  0  0  0
  142.3126  133.4858  152.4411 H   0  0  0  0  0  0  0  0  0  0  0  0
  143.7880  133.3202  154.0960 H   0  0  0  0  0  0  0  0  0  0  0  0
  1  2  1  0  0  0  0
  1 21  1  0  0  0  0
  1 22  1  0  0  0  0
  1 23  1  0  0  0  0
  2  3  1  0  0  0  0
  2  4  1  0  0  0  0
  2 24  1  0  0  0  0
  3 25  1  0  0  0  0
  3 26  1  0  0  0  0
  3 27  1  0  0  0  0
  4  8  1  0  0  0  0
  4  5  2  0  0  0  0
  5  6  1  0  0  0  0
  6  7  2  0  0  0  0
  6 28  1  0  0  0  0
  7  8  1  0  0  0  0
  7 29  1  0  0  0  0
  8  9  1  0  0  0  0
  9 10  1  0  0  0  0
  9 30  1  0  0  0  0
  9 31  1  0  0  0  0
 10 11  2  0  0  0  0
 10 12  1  0  0  0  0
 12 13  1  0  0  0  0
 12 32  1  0  0  0  0
 13 19  1  0  0  0  0
 13 14  1  0  0  0  0
 13 33  1  0  0  0  0
 14 15  1  0  0  0  0
 14 34  1  0  0  0  0
 14 35  1  0  0  0  0
 15 16  1  0  0  0  0
 15 36  1  0  0  0  0
 15 37  1  0  0  0  0
 16 17  1  0  0  0  0
 16 38  1  0  0  0  0
 16 39  1  0  0  0  0
 17 18  1  0  0  0  0
 17 40  1  0  0  0  0
 17 41  1  0  0  0  0
 18 19  1  0  0  0  0
 18 42  1  0  0  0  0
 19 20  2  0  0  0  0
M  END
> <s_m_source_file>
AV-unprocessed.smi

> <i_m_source_file_index>
2299

> <i_lp_mmshare_version>
43012

> <i_f3d_flags>
0

> <s_epik_input>
W0NIM11bQ0hdKFtDSDNdKWMxbltjSF1bY0hdbjFbQ0gyXUMoPU8pW05IXVtDQEBIXTJbQ0gyXVtDSDJdW0NIMl1bQ0gyXVtOSF1DMj1P

> <s_epik_cmdline>
J2VwaWtfcHl0aG9uJywgJy1waCcsICc3LjAnLCAnLXRuJywgJzgnLCAnLW1hJywgJzIwMCcsICctbWV0YWxfYmluZGluZycsICctaW1hZScsICc8aW5maWxlLm1hZT4nLCAnLW9tYWUnLCAnPG91dGZpbGUubWFlPic=

> <r_lp_tautomer_probability>
1

> <r_epik_Ionization_Penalty>
0.557868

> <r_epik_Ionization_Penalty_Charging>
0.557868

> <r_epik_Ionization_Penalty_Neutral>
1.99744e-07

> <r_epik_State_Penalty>
0.568774

> <r_epik_Charging_Adjusted_Penalty>
1.12664

> <i_epik_Tot_Q>
0

> <i_epik_Tot_abs_Q>
0

> <r_epik_Metal_State_Penalty>
0.289303

> <b_epik_Metal_Only>
0

> <s_lp_Force_Field>
OPLS_2005

> <r_lp_Energy>
10.2382

> <b_lp_Chiralities_Consistent>
1

> <s_lp_Variant>
AV-unprocessed.smi:2299-4

> <Gold.Version>
5.8.1

> <Gold.Id.Protein>
6NUR|6NUR_protein|mol2

> <Gold.PLP.Fitness>
38.0271

> <Gold.PLP.PLP>
-29.3188

> <Gold.PLP.part.hbond>
-3.0000

> <Gold.PLP.part.metal>
0.0000

> <Gold.PLP.part.buried>
-3.4280

> <Gold.PLP.part.nonpolar>
-22.6416

> <Gold.PLP.part.repulsive>
0.3249

> <Gold.PLP.ligand.clash>
0.0000

> <Gold.PLP.ligand.torsion>
0.4862

> <Gold.PLP.Chemscore.Hbond>
2.2036

> <Gold.PLP.Chemscore.CHOScore>
0.9993

> <Gold.PLP.Chemscore.Metal>
0.0000

> <Gold.Chemscore.Hbonds>
donor molecule, donor type, donor heavy atom, donor atom, acceptor molecule, acceptor atom, score
      L1  H    12    32       P1  7948  1.00
      L1  H    18    42       P1 10957  0.98
      P1  H  8011  8017       L1     5  0.11
      L1  C     7    29       P1 10175  1.00

> <Gold.PLP.Chemscore.Internal.Correction>
0.0721

> <Gold.Rescore>
     Score         DG    S(hbond)    S(metal)    S(lipo)     H(rot)  DE(clash)    DE(int)     intcor
     13.41     -15.23       1.95        0.00      64.95       1.70       0.15       1.67       ----

> <Gold.Chemscore.Fitness>
13.4128

> <Gold.Chemscore.DG>
-15.2343

> <Gold.Chemscore.ZeroCoef>
-5.4800

> <Gold.Chemscore.Hbond>
1.9484

> <Gold.Chemscore.Metal>
0.0000

> <Gold.Chemscore.Lipo>
64.9534

> <Gold.Chemscore.Internal_Hbond>
0.0000

> <Gold.Chemscore.DEClash>
0.1543

> <Gold.Chemscore.DEInternal>
1.6672

> <Gold.Chemscore.Rot>
1.7004

> <Gold.Chemscore.Internal.Correction>
   9.000000E+99

> <Gold.Chemscore.Hbonds>
donor molecule, donor type, donor heavy atom, donor atom, acceptor molecule, acceptor atom, score
      L1  H    12    32       P1  7948  0.98
      L1  H    18    42       P1 10957  0.90
      P1  H  8011  8017       L1     5  0.01

> <Gold.Chemscore.Hbond.Weighted>
-6.5078

> <Gold.Chemscore.Metal.Weighted>
-0.0000

> <Gold.Chemscore.Lipo.Weighted>
-7.5995

> <Gold.Chemscore.Internal_Hbond.Weighted>
0.0000

> <Gold.Chemscore.DEClash.Weighted>
0.1543

> <Gold.Chemscore.DEInternal.Weighted>
1.6672

> <Gold.Chemscore.Rot.Weighted>
4.3530

> <Gold.Chemscore.Internal.Correction.Weighted>
   9.000000E+99

> <Gold.Protein.RotatedTorsions>
[ 6907 6896 6895 6894 ] final   36.41 input  -60.11 | X-H torsion
[ 7974 7965 7964 7962 ] final -167.67 input  175.53 | X-H torsion
[ 8008 7997 7996 7995 ] final  -62.16 input   59.86 | X-H torsion
[ 10167 10162 10161 10158 ] final -143.06 input  -65.29 | X-H torsion
[ 10718 10713 10712 10709 ] final -176.72 input   66.30 | X-H torsion
[ 10763 10752 10751 10750 ] final  -14.90 input  -60.55 | X-H torsion
[ 11005 11000 10999 10996 ] final  -74.86 input  -57.11 | X-H torsion

> <Gold.Protein.ActiveResidues>
 VAL166  LYS551  ARG553  GLY616  TRP617  ASP618  TYR619  PRO620  LYS621  CYS622 
 ASP623  PHE694  ASN695  SER759  ASP760  ASP761  ALA762  ILE779  LEU786  VAL792 
 PHE793  MET794  SER795  GLU796  ALA797  LYS798  CYS799  TRP800  GLU811  SER814 

> <Gold.Protein.RotatedAtoms>
  152.1294  134.9146  160.0559 H   0  0  0  0  0  0  0  0  0  0  0  0  # atno 6907 bound_to 6896
  152.0257  133.3911  159.4284 H   0  0  0  0  0  0  0  0  0  0  0  0  # atno 6908 bound_to 6896
  150.6855  134.3498  159.4948 H   0  0  0  0  0  0  0  0  0  0  0  0  # atno 6909 bound_to 6896
  144.7218  140.2484  143.6282 H   0  0  0  0  0  0  0  0  0  0  0  0  # atno 7974 bound_to 7965
  154.4485  140.1002  156.6543 H   0  0  0  0  0  0  0  0  0  0  0  0  # atno 8008 bound_to 7997
  155.5363  140.3482  155.4418 H   0  0  0  0  0  0  0  0  0  0  0  0  # atno 8009 bound_to 7997
  156.0629  140.1331  156.9909 H   0  0  0  0  0  0  0  0  0  0  0  0  # atno 8010 bound_to 7997
  139.8029  143.7808  152.2659 H   0  0  0  0  0  0  0  0  0  0  0  0  # atno 10167 bound_to 10162
  156.8189  130.9613  151.3112 H   0  0  0  0  0  0  0  0  0  0  0  0  # atno 10718 bound_to 10713
  153.5353  135.7014  153.5663 H   0  0  0  0  0  0  0  0  0  0  0  0  # atno 10763 bound_to 10752
  153.3653  135.3959  155.1748 H   0  0  0  0  0  0  0  0  0  0  0  0  # atno 10764 bound_to 10752
  154.8680  135.3798  154.4853 H   0  0  0  0  0  0  0  0  0  0  0  0  # atno 10765 bound_to 10752
  141.1639  133.6926  156.7428 H   0  0  0  0  0  0  0  0  0  0  0  0  # atno 11005 bound_to 11000
  145.8252  139.2061  143.1915 LP  0  0  0  0  0  0  0  0  0  0  0  0  # atno 17320 bound_to 7965
  146.0479  140.8099  142.9796 LP  0  0  0  0  0  0  0  0  0  0  0  0  # atno 17321 bound_to 7965
  139.7934  144.7402  150.9924 LP  0  0  0  0  0  0  0  0  0  0  0  0  # atno 17342 bound_to 10162
  140.7820  143.4419  151.0539 LP  0  0  0  0  0  0  0  0  0  0  0  0  # atno 17343 bound_to 10162
  157.6467  130.8850  149.9552 LP  0  0  0  0  0  0  0  0  0  0  0  0  # atno 17370 bound_to 10713
  156.1000  130.3656  150.0235 LP  0  0  0  0  0  0  0  0  0  0  0  0  # atno 17371 bound_to 10713
  140.2661  134.8428  157.3804 LP  0  0  0  0  0  0  0  0  0  0  0  0  # atno 17394 bound_to 11000
  140.1565  134.4783  155.7924 LP  0  0  0  0  0  0  0  0  0  0  0  0  # atno 17395 bound_to 11000

$$$$
