AV-unprocessed.smi:529|AV-procd|sdf|2841|dock5
  -GOLD-   2262023333D 1   1.00000     0.00000
 Structure written by MMmdl.
 30 31  0  0  0  0  0  0  0  0  1 V2000
  149.6117  138.4317  153.6929 N   0  0  0  0  0  0  0  0  0  0  0  0
  148.9386  139.5071  153.9078 C   0  0  0  0  0  0  0  0  0  0  0  0
  147.2511  139.8744  153.3104 S   0  0  0  0  0  0  0  0  0  0  0  0
  147.3130  141.4269  154.1173 C   0  0  0  0  0  0  0  0  0  0  0  0
  148.4710  141.6204  154.7464 C   0  0  0  0  0  0  0  0  0  0  0  0
  149.3929  140.5977  154.6526 N   0  0  0  0  0  0  0  0  0  0  0  0
  150.6862  140.6411  155.3359 C   0  0  0  0  0  0  0  0  0  0  0  0
  150.5755  141.0031  156.8231 C   0  0  0  0  0  0  0  0  0  0  0  0
  149.9843  140.2671  157.6148 O   0  0  0  0  0  0  0  0  0  0  0  0
  151.1421  142.1640  157.1851 N   0  0  0  0  0  0  0  0  0  0  0  0
  151.1615  142.7009  158.5430 C   0  0  0  0  0  0  0  0  0  0  0  0
  150.1973  143.8953  158.7044 C   0  0  0  0  0  0  0  0  0  0  0  0
  151.0088  145.0097  159.3673 C   0  0  0  0  0  0  0  0  0  0  0  0
  152.4410  144.7576  158.9080 C   0  0  0  0  0  0  0  0  0  0  0  0
  152.5631  143.2338  158.8924 C   0  0  0  0  0  0  0  0  0  0  0  0
  149.0732  137.7899  153.1288 H   0  0  0  0  0  0  0  0  0  0  0  0
  146.4781  142.1109  154.0808 H   0  0  0  0  0  0  0  0  0  0  0  0
  148.7522  142.4928  155.3179 H   0  0  0  0  0  0  0  0  0  0  0  0
  151.1987  139.6834  155.2304 H   0  0  0  0  0  0  0  0  0  0  0  0
  151.3262  141.3786  154.8500 H   0  0  0  0  0  0  0  0  0  0  0  0
  151.6024  142.7102  156.4715 H   0  0  0  0  0  0  0  0  0  0  0  0
  150.9011  141.9074  159.2461 H   0  0  0  0  0  0  0  0  0  0  0  0
  149.8468  144.2432  157.7312 H   0  0  0  0  0  0  0  0  0  0  0  0
  149.3141  143.6333  159.2876 H   0  0  0  0  0  0  0  0  0  0  0  0
  150.6501  146.0047  159.1024 H   0  0  0  0  0  0  0  0  0  0  0  0
  150.9493  144.9118  160.4521 H   0  0  0  0  0  0  0  0  0  0  0  0
  152.5771  145.1480  157.8986 H   0  0  0  0  0  0  0  0  0  0  0  0
  153.1805  145.2326  159.5531 H   0  0  0  0  0  0  0  0  0  0  0  0
  152.8394  142.8875  159.8893 H   0  0  0  0  0  0  0  0  0  0  0  0
  153.3415  142.8913  158.2090 H   0  0  0  0  0  0  0  0  0  0  0  0
  1  2  2  0  0  0  0
  1 16  1  0  0  0  0
  2  6  1  0  0  0  0
  2  3  1  0  0  0  0
  3  4  1  0  0  0  0
  4  5  2  0  0  0  0
  4 17  1  0  0  0  0
  5  6  1  0  0  0  0
  5 18  1  0  0  0  0
  6  7  1  0  0  0  0
  7  8  1  0  0  0  0
  7 19  1  0  0  0  0
  7 20  1  0  0  0  0
  8  9  2  0  0  0  0
  8 10  1  0  0  0  0
 10 11  1  0  0  0  0
 10 21  1  0  0  0  0
 11 15  1  0  0  0  0
 11 12  1  0  0  0  0
 11 22  1  0  0  0  0
 12 13  1  0  0  0  0
 12 23  1  0  0  0  0
 12 24  1  0  0  0  0
 13 14  1  0  0  0  0
 13 25  1  0  0  0  0
 13 26  1  0  0  0  0
 14 15  1  0  0  0  0
 14 27  1  0  0  0  0
 14 28  1  0  0  0  0
 15 29  1  0  0  0  0
 15 30  1  0  0  0  0
M  END
> <s_m_source_file>
AV-unprocessed.smi

> <i_m_source_file_index>
529

> <i_lp_mmshare_version>
43012

> <i_f3d_flags>
0

> <s_epik_input>
W0hdL049YzFcc1tjSF1bY0hdbjFbQ0gyXUMoPU8pW05IXVtDSF0yW0NIMl1bQ0gyXVtDSDJdW0NIMl0y

> <s_epik_cmdline>
J2VwaWtfcHl0aG9uJywgJy1waCcsICc3LjAnLCAnLXRuJywgJzgnLCAnLW1hJywgJzIwMCcsICctbWV0YWxfYmluZGluZycsICctaW1hZScsICc8aW5maWxlLm1hZT4nLCAnLW9tYWUnLCAnPG91dGZpbGUubWFlPic=

> <r_epik_Ionization_Penalty>
2.18041

> <r_epik_Ionization_Penalty_Charging>
2.18041

> <r_epik_Ionization_Penalty_Neutral>
1.25369e-07

> <r_epik_State_Penalty>
2.33404

> <r_epik_Charging_Adjusted_Penalty>
4.51444

> <i_epik_Tot_Q>
0

> <i_epik_Tot_abs_Q>
0

> <r_epik_Metal_State_Penalty>
2.33404

> <b_epik_Metal_Only>
0

> <s_lp_Force_Field>
OPLS_2005

> <r_lp_Energy>
18.55

> <b_lp_Chiralities_Consistent>
1

> <s_lp_Variant>
AV-unprocessed.smi:529-3

> <Gold.Version>
5.8.1

> <Gold.Id.Protein>
6NUR|6NUR_protein|mol2

> <Gold.PLP.Fitness>
39.3794

> <Gold.PLP.PLP>
-34.1094

> <Gold.PLP.part.hbond>
-2.0000

> <Gold.PLP.part.metal>
0.0000

> <Gold.PLP.part.buried>
0.2678

> <Gold.PLP.part.nonpolar>
-32.8004

> <Gold.PLP.part.repulsive>
0.0499

> <Gold.PLP.ligand.clash>
0.0000

> <Gold.PLP.ligand.torsion>
0.2625

> <Gold.PLP.Chemscore.Hbond>
0.9280

> <Gold.PLP.Chemscore.CHOScore>
1.0000

> <Gold.PLP.Chemscore.Metal>
0.0000

> <Gold.Chemscore.Hbonds>
donor molecule, donor type, donor heavy atom, donor atom, acceptor molecule, acceptor atom, score
      L1  H     1    16       P1  7948  0.99
      L1  C     5    18       P1  8028  1.00

> <Gold.PLP.Chemscore.Internal.Correction>
0.0108

> <Gold.Rescore>
     Score         DG    S(hbond)    S(metal)    S(lipo)     H(rot)  DE(clash)    DE(int)     intcor
     13.90     -14.16       0.93        0.00      81.72       1.56       0.03       0.22       ----

> <Gold.Chemscore.Fitness>
13.9034

> <Gold.Chemscore.DG>
-14.1562

> <Gold.Chemscore.ZeroCoef>
-5.4800

> <Gold.Chemscore.Hbond>
0.9335

> <Gold.Chemscore.Metal>
0.0000

> <Gold.Chemscore.Lipo>
81.7156

> <Gold.Chemscore.Internal_Hbond>
0.0000

> <Gold.Chemscore.DEClash>
0.0285

> <Gold.Chemscore.DEInternal>
0.2244

> <Gold.Chemscore.Rot>
1.5635

> <Gold.Chemscore.Internal.Correction>
   9.000000E+99

> <Gold.Chemscore.Hbonds>
donor molecule, donor type, donor heavy atom, donor atom, acceptor molecule, acceptor atom, score
      L1  H     1    16       P1  7948  0.92

> <Gold.Chemscore.Hbond.Weighted>
-3.1180

> <Gold.Chemscore.Metal.Weighted>
-0.0000

> <Gold.Chemscore.Lipo.Weighted>
-9.5607

> <Gold.Chemscore.Internal_Hbond.Weighted>
0.0000

> <Gold.Chemscore.DEClash.Weighted>
0.0285

> <Gold.Chemscore.DEInternal.Weighted>
0.2244

> <Gold.Chemscore.Rot.Weighted>
4.0025

> <Gold.Chemscore.Internal.Correction.Weighted>
   9.000000E+99

> <Gold.Protein.RotatedTorsions>
[ 6907 6896 6895 6894 ] final  102.05 input  -60.11 | X-H torsion
[ 7974 7965 7964 7962 ] final  139.82 input  175.53 | X-H torsion
[ 8008 7997 7996 7995 ] final  -63.75 input   59.86 | X-H torsion
[ 10167 10162 10161 10158 ] final  -35.62 input  -65.29 | X-H torsion
[ 10718 10713 10712 10709 ] final  -84.06 input   66.30 | X-H torsion
[ 10763 10752 10751 10750 ] final   77.73 input  -60.55 | X-H torsion
[ 11005 11000 10999 10996 ] final  171.50 input  -57.11 | X-H torsion

> <Gold.Protein.ActiveResidues>
 VAL166  LYS551  ARG553  GLY616  TRP617  ASP618  TYR619  PRO620  LYS621  CYS622 
 ASP623  PHE694  ASN695  SER759  ASP760  ASP761  ALA762  ILE779  LEU786  VAL792 
 PHE793  MET794  SER795  GLU796  ALA797  LYS798  CYS799  TRP800  GLU811  SER814 

> <Gold.Protein.RotatedAtoms>
  152.5334  134.0033  159.7904 H   0  0  0  0  0  0  0  0  0  0  0  0  # atno 6907 bound_to 6896
  151.0248  133.5836  159.2674 H   0  0  0  0  0  0  0  0  0  0  0  0  # atno 6908 bound_to 6896
  151.2862  135.0735  159.9241 H   0  0  0  0  0  0  0  0  0  0  0  0  # atno 6909 bound_to 6896
  144.9243  139.5127  143.5648 H   0  0  0  0  0  0  0  0  0  0  0  0  # atno 7974 bound_to 7965
  154.4572  140.0968  156.6791 H   0  0  0  0  0  0  0  0  0  0  0  0  # atno 8008 bound_to 7997
  155.5102  140.3476  155.4368 H   0  0  0  0  0  0  0  0  0  0  0  0  # atno 8009 bound_to 7997
  156.0801  140.1371  156.9712 H   0  0  0  0  0  0  0  0  0  0  0  0  # atno 8010 bound_to 7997
  140.7161  143.3465  151.2246 H   0  0  0  0  0  0  0  0  0  0  0  0  # atno 10167 bound_to 10162
  156.0010  130.4686  150.4353 H   0  0  0  0  0  0  0  0  0  0  0  0  # atno 10718 bound_to 10713
  153.0821  135.4903  154.8523 H   0  0  0  0  0  0  0  0  0  0  0  0  # atno 10763 bound_to 10752
  154.7164  135.3030  154.9120 H   0  0  0  0  0  0  0  0  0  0  0  0  # atno 10764 bound_to 10752
  153.9797  135.6791  153.4802 H   0  0  0  0  0  0  0  0  0  0  0  0  # atno 10765 bound_to 10752
  140.3197  134.7448  157.4054 H   0  0  0  0  0  0  0  0  0  0  0  0  # atno 11005 bound_to 11000
  146.3219  139.8147  142.8939 LP  0  0  0  0  0  0  0  0  0  0  0  0  # atno 17320 bound_to 7965
  145.3244  141.0252  143.3482 LP  0  0  0  0  0  0  0  0  0  0  0  0  # atno 17321 bound_to 7965
  139.6985  143.9572  152.2894 LP  0  0  0  0  0  0  0  0  0  0  0  0  # atno 17342 bound_to 10162
  139.9257  144.6772  150.8415 LP  0  0  0  0  0  0  0  0  0  0  0  0  # atno 17343 bound_to 10162
  157.2398  131.0523  151.2443 LP  0  0  0  0  0  0  0  0  0  0  0  0  # atno 17370 bound_to 10713
  157.3631  130.7141  149.6515 LP  0  0  0  0  0  0  0  0  0  0  0  0  # atno 17371 bound_to 10713
  140.0953  134.5546  155.8405 LP  0  0  0  0  0  0  0  0  0  0  0  0  # atno 17394 bound_to 11000
  141.2089  133.6679  156.6405 LP  0  0  0  0  0  0  0  0  0  0  0  0  # atno 17395 bound_to 11000

$$$$
