AV-unprocessed.smi:3155|AV-procd|sdf|12026|dock10
  -GOLD-   2272017443D 1   1.00000     0.00000
 Structure written by MMmdl.
 38 39  0  0  0  0  0  0  0  0  2 V2000
  146.9560  142.4864  154.5976 C   0  0  0  0  0  0  0  0  0  0  0  0
  147.9488  141.3946  155.0427 C   0  0  1  0  0  0  0  0  0  0  0  0
  148.6669  140.7324  153.8484 C   0  0  0  0  0  0  0  0  0  0  0  0
  149.7819  139.8933  154.2493 N   0  0  0  0  0  0  0  0  0  0  0  0
  149.9354  138.5321  154.0875 C   0  0  0  0  0  0  0  0  0  0  0  0
  151.1488  138.1953  154.6152 C   0  0  0  0  0  0  0  0  0  0  0  0
  151.6743  139.4350  155.0750 C   0  0  0  0  0  0  0  0  0  0  0  0
  150.8548  140.4498  154.8515 N   0  0  0  0  0  0  0  0  0  0  0  0
  148.9584  141.9391  155.9775 N   0  3  0  0  0  0  0  0  0  0  0  0
  148.9359  141.3665  157.3420 C   0  0  0  0  0  0  0  0  0  0  0  0
  149.1126  142.4380  158.4272 C   0  0  0  0  0  0  0  0  0  0  0  0
  148.2296  142.6036  159.2702 O   0  0  0  0  0  0  0  0  0  0  0  0
  150.2440  143.1725  158.4189 N   0  0  0  0  0  0  0  0  0  0  0  0
  150.5392  144.2136  159.4016 C   0  0  0  0  0  0  0  0  0  0  0  0
  152.0038  144.5906  159.1787 C   0  0  0  0  0  0  0  0  0  0  0  0
  152.2605  144.2368  157.7204 C   0  0  0  0  0  0  0  0  0  0  0  0
  151.3352  143.0492  157.4526 C   0  0  0  0  0  0  0  0  0  0  0  0
  146.1920  142.0835  153.9323 H   0  0  0  0  0  0  0  0  0  0  0  0
  147.4657  143.2909  154.0667 H   0  0  0  0  0  0  0  0  0  0  0  0
  146.4308  142.9266  155.4445 H   0  0  0  0  0  0  0  0  0  0  0  0
  147.3949  140.6166  155.5704 H   0  0  0  0  0  0  0  0  0  0  0  0
  147.9658  140.1228  153.2763 H   0  0  0  0  0  0  0  0  0  0  0  0
  149.0468  141.4937  153.1653 H   0  0  0  0  0  0  0  0  0  0  0  0
  149.1768  137.9228  153.6187 H   0  0  0  0  0  0  0  0  0  0  0  0
  151.5950  137.2130  154.6634 H   0  0  0  0  0  0  0  0  0  0  0  0
  152.6206  139.6266  155.5595 H   0  0  0  0  0  0  0  0  0  0  0  0
  149.8714  141.7419  155.5926 H   0  0  0  0  0  0  0  0  0  0  0  0
  147.9922  140.8471  157.5072 H   0  0  0  0  0  0  0  0  0  0  0  0
  149.7402  140.6358  157.4342 H   0  0  0  0  0  0  0  0  0  0  0  0
  149.8906  145.0708  159.2149 H   0  0  0  0  0  0  0  0  0  0  0  0
  150.3686  143.8756  160.4250 H   0  0  0  0  0  0  0  0  0  0  0  0
  152.2100  145.6377  159.4031 H   0  0  0  0  0  0  0  0  0  0  0  0
  152.6407  143.9802  159.8201 H   0  0  0  0  0  0  0  0  0  0  0  0
  151.9709  145.0761  157.0864 H   0  0  0  0  0  0  0  0  0  0  0  0
  153.3079  144.0117  157.5170 H   0  0  0  0  0  0  0  0  0  0  0  0
  151.8626  142.1102  157.6259 H   0  0  0  0  0  0  0  0  0  0  0  0
  150.9811  143.0577  156.4211 H   0  0  0  0  0  0  0  0  0  0  0  0
  148.8506  142.9418  156.0361 H   0  0  0  0  0  0  0  0  0  0  0  0
  1  2  1  0  0  0  0
  1 18  1  0  0  0  0
  1 19  1  0  0  0  0
  1 20  1  0  0  0  0
  2  3  1  0  0  0  0
  2  9  1  0  0  0  0
  2 21  1  0  0  0  0
  3  4  1  0  0  0  0
  3 22  1  0  0  0  0
  3 23  1  0  0  0  0
  4  8  1  0  0  0  0
  4  5  1  0  0  0  0
  5  6  2  0  0  0  0
  5 24  1  0  0  0  0
  6  7  1  0  0  0  0
  6 25  1  0  0  0  0
  7  8  2  0  0  0  0
  7 26  1  0  0  0  0
  9 10  1  0  0  0  0
  9 27  1  0  0  0  0
  9 38  1  0  0  0  0
 10 11  1  0  0  0  0
 10 28  1  0  0  0  0
 10 29  1  0  0  0  0
 11 12  2  0  0  0  0
 11 13  1  0  0  0  0
 13 17  1  0  0  0  0
 13 14  1  0  0  0  0
 14 15  1  0  0  0  0
 14 30  1  0  0  0  0
 14 31  1  0  0  0  0
 15 16  1  0  0  0  0
 15 32  1  0  0  0  0
 15 33  1  0  0  0  0
 16 17  1  0  0  0  0
 16 34  1  0  0  0  0
 16 35  1  0  0  0  0
 17 36  1  0  0  0  0
 17 37  1  0  0  0  0
M  CHG  1   9   1
M  END
> <s_m_source_file>
AV-unprocessed.smi

> <i_m_source_file_index>
3155

> <i_lp_mmshare_version>
43012

> <i_f3d_flags>
0

> <s_epik_input>
bjFbY0hdW2NIXVtjSF1uMVtDSDJdW0NAQEhdKFtDSDNdKVtOSF1bQ0gyXUMoPU8pTjJbQ0gyXVtDSDJdW0NIMl1bQ0gyXTI=

> <s_epik_cmdline>
J2VwaWtfcHl0aG9uJywgJy1waCcsICc3LjAnLCAnLXRuJywgJzgnLCAnLW1hJywgJzIwMCcsICctbWV0YWxfYmluZGluZycsICctaW1hZScsICc8aW5maWxlLm1hZT4nLCAnLW9tYWUnLCAnPG91dGZpbGUubWFlPic=

> <r_lp_tautomer_probability>
1

> <r_epik_Ionization_Penalty>
0.120138

> <r_epik_Ionization_Penalty_Charging>
0.120135

> <r_epik_Ionization_Penalty_Neutral>
3.43791e-06

> <r_epik_State_Penalty>
0.109683

> <r_epik_Charging_Adjusted_Penalty>
0.229818

> <i_epik_Tot_Q>
1

> <i_epik_Tot_abs_Q>
1

> <r_epik_Metal_State_Penalty>
0.109693

> <b_epik_Metal_Only>
0

> <s_lp_Force_Field>
OPLS_2005

> <r_lp_Energy>
27.7776

> <b_lp_Chiralities_Consistent>
1

> <s_lp_Variant>
AV-unprocessed.smi:3155-2

> <Gold.Version>
5.8.1

> <Gold.Id.Protein>
6NUR|6NUR_protein|mol2

> <Gold.PLP.Fitness>
48.6366

> <Gold.PLP.PLP>
-39.2599

> <Gold.PLP.part.hbond>
-3.0493

> <Gold.PLP.part.metal>
0.0000

> <Gold.PLP.part.buried>
-2.3132

> <Gold.PLP.part.nonpolar>
-34.4452

> <Gold.PLP.part.repulsive>
0.2537

> <Gold.PLP.ligand.clash>
0.0000

> <Gold.PLP.ligand.torsion>
1.1479

> <Gold.PLP.Chemscore.Hbond>
2.8812

> <Gold.PLP.Chemscore.CHOScore>
1.0000

> <Gold.PLP.Chemscore.Metal>
0.0000

> <Gold.Chemscore.Hbonds>
donor molecule, donor type, donor heavy atom, donor atom, acceptor molecule, acceptor atom, score
      L1  H     9    38       P1  8028  2.00
      P1  H  6933  6944       L1    12  0.24
      P1  H  7989  7998       L1     8  0.55
      L1  C     5    24       P1  7948  1.00

> <Gold.PLP.Chemscore.Internal.Correction>
0.0288

> <Gold.Rescore>
     Score         DG    S(hbond)    S(metal)    S(lipo)     H(rot)  DE(clash)    DE(int)     intcor
     14.23     -16.37       1.49        0.00      90.61       1.84       0.03       2.11       ----

> <Gold.Chemscore.Fitness>
14.2324

> <Gold.Chemscore.DG>
-16.3685

> <Gold.Chemscore.ZeroCoef>
-5.4800

> <Gold.Chemscore.Hbond>
1.4936

> <Gold.Chemscore.Metal>
0.0000

> <Gold.Chemscore.Lipo>
90.6118

> <Gold.Chemscore.Internal_Hbond>
0.0000

> <Gold.Chemscore.DEClash>
0.0264

> <Gold.Chemscore.DEInternal>
2.1097

> <Gold.Chemscore.Rot>
1.8366

> <Gold.Chemscore.Internal.Correction>
   9.000000E+99

> <Gold.Chemscore.Hbonds>
donor molecule, donor type, donor heavy atom, donor atom, acceptor molecule, acceptor atom, score
      L1  H     9    38       P1  8028  1.00
      P1  H  6933  6944       L1    12  0.24
      P1  H  7989  7998       L1     8  0.01

> <Gold.Chemscore.Hbond.Weighted>
-4.9886

> <Gold.Chemscore.Metal.Weighted>
-0.0000

> <Gold.Chemscore.Lipo.Weighted>
-10.6016

> <Gold.Chemscore.Internal_Hbond.Weighted>
0.0000

> <Gold.Chemscore.DEClash.Weighted>
0.0264

> <Gold.Chemscore.DEInternal.Weighted>
2.1097

> <Gold.Chemscore.Rot.Weighted>
4.7017

> <Gold.Chemscore.Internal.Correction.Weighted>
   9.000000E+99

> <Gold.Protein.RotatedTorsions>
[ 6907 6896 6895 6894 ] final  -75.24 input  -60.11 | X-H torsion
[ 7974 7965 7964 7962 ] final   49.55 input  175.53 | X-H torsion
[ 8008 7997 7996 7995 ] final   27.77 input   59.86 | X-H torsion
[ 10167 10162 10161 10158 ] final -103.13 input  -65.29 | X-H torsion
[ 10718 10713 10712 10709 ] final  -84.42 input   66.30 | X-H torsion
[ 10763 10752 10751 10750 ] final  107.25 input  -60.55 | X-H torsion
[ 11005 11000 10999 10996 ] final   53.47 input  -57.11 | X-H torsion

> <Gold.Protein.ActiveResidues>
 VAL166  LYS551  ARG553  GLY616  TRP617  ASP618  TYR619  PRO620  LYS621  CYS622 
 ASP623  PHE694  ASN695  SER759  ASP760  ASP761  ALA762  ILE779  LEU786  VAL792 
 PHE793  MET794  SER795  GLU796  ALA797  LYS798  CYS799  TRP800  GLU811  SER814 

> <Gold.Protein.RotatedAtoms>
  150.7065  134.4750  159.5442 H   0  0  0  0  0  0  0  0  0  0  0  0  # atno 6907 bound_to 6896
  152.2398  134.8236  160.0471 H   0  0  0  0  0  0  0  0  0  0  0  0  # atno 6908 bound_to 6896
  151.9022  133.3505  159.3871 H   0  0  0  0  0  0  0  0  0  0  0  0  # atno 6909 bound_to 6896
  146.0098  139.4530  142.9963 H   0  0  0  0  0  0  0  0  0  0  0  0  # atno 7974 bound_to 7965
  155.0481  140.3177  155.4701 H   0  0  0  0  0  0  0  0  0  0  0  0  # atno 8008 bound_to 7997
  156.2840  140.2151  156.5550 H   0  0  0  0  0  0  0  0  0  0  0  0  # atno 8009 bound_to 7997
  154.7233  140.0487  157.0647 H   0  0  0  0  0  0  0  0  0  0  0  0  # atno 8010 bound_to 7997
  140.2233  143.3660  152.0951 H   0  0  0  0  0  0  0  0  0  0  0  0  # atno 10167 bound_to 10162
  156.0006  130.4697  150.4406 H   0  0  0  0  0  0  0  0  0  0  0  0  # atno 10718 bound_to 10713
  153.4042  135.3850  155.2008 H   0  0  0  0  0  0  0  0  0  0  0  0  # atno 10763 bound_to 10752
  154.8732  135.3778  154.4581 H   0  0  0  0  0  0  0  0  0  0  0  0  # atno 10764 bound_to 10752
  153.5082  135.7087  153.5857 H   0  0  0  0  0  0  0  0  0  0  0  0  # atno 10765 bound_to 10752
  140.0765  134.5398  155.8991 H   0  0  0  0  0  0  0  0  0  0  0  0  # atno 11005 bound_to 11000
  145.7360  141.0025  143.1326 LP  0  0  0  0  0  0  0  0  0  0  0  0  # atno 17320 bound_to 7965
  144.6949  139.9041  143.7460 LP  0  0  0  0  0  0  0  0  0  0  0  0  # atno 17321 bound_to 7965
  139.5136  144.6935  151.5694 LP  0  0  0  0  0  0  0  0  0  0  0  0  # atno 17342 bound_to 10162
  140.6239  143.9206  150.6549 LP  0  0  0  0  0  0  0  0  0  0  0  0  # atno 17343 bound_to 10162
  157.2448  131.0533  151.2415 LP  0  0  0  0  0  0  0  0  0  0  0  0  # atno 17370 bound_to 10713
  157.3586  130.7119  149.6487 LP  0  0  0  0  0  0  0  0  0  0  0  0  # atno 17371 bound_to 10713
  141.2031  133.6629  156.6044 LP  0  0  0  0  0  0  0  0  0  0  0  0  # atno 17394 bound_to 11000
  140.3551  134.7736  157.4494 LP  0  0  0  0  0  0  0  0  0  0  0  0  # atno 17395 bound_to 11000

$$$$
