AV-unprocessed.smi:1489|AV-procd|sdf|6028|dock3
  -GOLD-   22720 6133D 1   1.00000     0.00000
 Structure written by MMmdl.
 47 49  0  0  0  0  0  0  0  0  2 V2000
  150.6841  140.6146  156.6913 O   0  0  0  0  0  0  0  0  0  0  0  0
  150.1691  141.6697  156.3228 C   0  0  0  0  0  0  0  0  0  0  0  0
  149.2149  141.7735  155.3818 N   0  0  0  0  0  0  0  0  0  0  0  0
  148.6331  140.7388  154.6009 C   0  0  0  0  0  0  0  0  0  0  0  0
  147.3130  140.9246  154.1375 C   0  0  0  0  0  0  0  0  0  0  0  0
  146.7027  139.9304  153.3456 C   0  0  0  0  0  0  0  0  0  0  0  0
  147.4295  138.7626  153.0163 C   0  0  0  0  0  0  0  0  0  0  0  0
  146.9182  137.7205  152.2298 N   0  0  0  0  0  0  0  0  0  0  0  0
  145.8172  136.9815  152.8249 C   0  0  0  0  0  0  0  0  0  0  0  0
  145.1694  136.2147  151.6704 C   0  0  0  0  0  0  0  0  0  0  0  0
  145.5653  136.9932  150.4103 C   0  0  0  0  0  0  0  0  0  0  0  0
  146.4629  138.1287  150.9110 C   0  0  0  0  0  0  0  0  0  0  0  0
  148.6964  138.6292  153.4659 N   0  3  0  0  0  0  0  0  0  0  0  0
  149.3160  139.5548  154.2299 C   0  0  0  0  0  0  0  0  0  0  0  0
  150.4774  142.8733  156.8325 N   0  0  0  0  0  0  0  0  0  0  0  0
  151.4393  143.1713  157.8958 C   0  0  2  0  0  0  0  0  0  0  0  0
  151.6329  141.9938  158.8745 C   0  0  0  0  0  0  0  0  0  0  0  0
  152.7138  142.3179  159.9217 C   0  0  0  0  0  0  0  0  0  0  0  0
  152.4307  143.6380  160.6665 C   0  0  2  0  0  0  0  0  0  0  0  0
  151.3138  143.4839  161.5196 O   0  0  0  0  0  0  0  0  0  0  0  0
  152.1877  144.8057  159.6901 C   0  0  0  0  0  0  0  0  0  0  0  0
  151.1048  144.4764  158.6477 C   0  0  0  0  0  0  0  0  0  0  0  0
  148.8235  142.6941  155.2465 H   0  0  0  0  0  0  0  0  0  0  0  0
  146.7655  141.8211  154.3898 H   0  0  0  0  0  0  0  0  0  0  0  0
  145.6905  140.0713  152.9954 H   0  0  0  0  0  0  0  0  0  0  0  0
  146.1738  136.3057  153.6029 H   0  0  0  0  0  0  0  0  0  0  0  0
  145.0928  137.6608  153.2755 H   0  0  0  0  0  0  0  0  0  0  0  0
  145.5693  135.2012  151.6196 H   0  0  0  0  0  0  0  0  0  0  0  0
  144.0884  136.1393  151.7919 H   0  0  0  0  0  0  0  0  0  0  0  0
  146.1148  136.3437  149.7276 H   0  0  0  0  0  0  0  0  0  0  0  0
  144.6979  137.3795  149.8741 H   0  0  0  0  0  0  0  0  0  0  0  0
  145.8942  139.0579  150.9709 H   0  0  0  0  0  0  0  0  0  0  0  0
  147.3068  138.2948  150.2407 H   0  0  0  0  0  0  0  0  0  0  0  0
  150.3334  139.3132  154.4987 H   0  0  0  0  0  0  0  0  0  0  0  0
  149.9888  143.6708  156.4526 H   0  0  0  0  0  0  0  0  0  0  0  0
  152.3886  143.3261  157.3812 H   0  0  0  0  0  0  0  0  0  0  0  0
  150.6988  141.7625  159.3864 H   0  0  0  0  0  0  0  0  0  0  0  0
  151.9142  141.0942  158.3260 H   0  0  0  0  0  0  0  0  0  0  0  0
  152.8058  141.4954  160.6318 H   0  0  0  0  0  0  0  0  0  0  0  0
  153.6796  142.3942  159.4205 H   0  0  0  0  0  0  0  0  0  0  0  0
  153.2838  143.8781  161.3020 H   0  0  0  0  0  0  0  0  0  0  0  0
  151.3294  144.1749  162.1639 H   0  0  0  0  0  0  0  0  0  0  0  0
  151.9169  145.7081  160.2397 H   0  0  0  0  0  0  0  0  0  0  0  0
  153.1195  145.0351  159.1718 H   0  0  0  0  0  0  0  0  0  0  0  0
  151.0142  145.3026  157.9419 H   0  0  0  0  0  0  0  0  0  0  0  0
  150.1398  144.3938  159.1486 H   0  0  0  0  0  0  0  0  0  0  0  0
  149.2141  137.7867  153.2140 H   0  0  0  0  0  0  0  0  0  0  0  0
  1  2  2  0  0  0  0
  2  3  1  0  0  0  0
  2 15  1  0  0  0  0
  3  4  1  0  0  0  0
  3 23  1  0  0  0  0
  4 14  1  0  0  0  0
  4  5  2  0  0  0  0
  5  6  1  0  0  0  0
  5 24  1  0  0  0  0
  6  7  2  0  0  0  0
  6 25  1  0  0  0  0
  7  8  1  0  0  0  0
  7 13  1  0  0  0  0
  8 12  1  0  0  0  0
  8  9  1  0  0  0  0
  9 10  1  0  0  0  0
  9 26  1  0  0  0  0
  9 27  1  0  0  0  0
 10 11  1  0  0  0  0
 10 28  1  0  0  0  0
 10 29  1  0  0  0  0
 11 12  1  0  0  0  0
 11 30  1  0  0  0  0
 11 31  1  0  0  0  0
 12 32  1  0  0  0  0
 12 33  1  0  0  0  0
 13 14  2  0  0  0  0
 13 47  1  0  0  0  0
 14 34  1  0  0  0  0
 15 16  1  0  0  0  0
 15 35  1  0  0  0  0
 16 22  1  0  0  0  0
 16 17  1  0  0  0  0
 16 36  1  0  0  0  0
 17 18  1  0  0  0  0
 17 37  1  0  0  0  0
 17 38  1  0  0  0  0
 18 19  1  0  0  0  0
 18 39  1  0  0  0  0
 18 40  1  0  0  0  0
 19 20  1  0  0  0  0
 19 21  1  0  0  0  0
 19 41  1  0  0  0  0
 20 42  1  0  0  0  0
 21 22  1  0  0  0  0
 21 43  1  0  0  0  0
 21 44  1  0  0  0  0
 22 45  1  0  0  0  0
 22 46  1  0  0  0  0
M  CHG  1  13   1
M  END
> <s_m_source_file>
AV-unprocessed.smi

> <i_m_source_file_index>
1489

> <i_lp_mmshare_version>
43012

> <i_f3d_flags>
0

> <s_epik_input>
W0NIMl0xW0NIMl1bQ0BIXShbT0hdKVtDSDJdW0NIMl1bQ0BIXTFbTkhdQyg9TylbTkhdYzJbY0hdW2NIXWMobltjSF0yKU4zW0NIMl1bQ0gyXVtDSDJdW0NIMl0z

> <s_epik_cmdline>
J2VwaWtfcHl0aG9uJywgJy1waCcsICc3LjAnLCAnLXRuJywgJzgnLCAnLW1hJywgJzIwMCcsICctbWV0YWxfYmluZGluZycsICctaW1hZScsICc8aW5maWxlLm1hZT4nLCAnLW9tYWUnLCAnPG91dGZpbGUubWFlPic=

> <r_lp_tautomer_probability>
0.999994

> <r_epik_Ionization_Penalty>
1.08454

> <r_epik_Ionization_Penalty_Charging>
1.08452

> <r_epik_Ionization_Penalty_Neutral>
2.18252e-05

> <r_epik_State_Penalty>
1.14025

> <r_epik_Charging_Adjusted_Penalty>
2.22477

> <i_epik_Tot_Q>
1

> <i_epik_Tot_abs_Q>
1

> <r_epik_Metal_State_Penalty>
1.22975

> <b_epik_Metal_Only>
0

> <s_lp_Force_Field>
OPLS_2005

> <r_lp_Energy>
45.8336

> <b_lp_Chiralities_Consistent>
1

> <s_lp_Variant>
AV-unprocessed.smi:1489-4

> <Gold.Version>
5.8.1

> <Gold.Id.Protein>
6NUR|6NUR_protein|mol2

> <Gold.PLP.Fitness>
48.7753

> <Gold.PLP.PLP>
-38.8090

> <Gold.PLP.part.hbond>
-5.7709

> <Gold.PLP.part.metal>
0.0000

> <Gold.PLP.part.buried>
7.2653

> <Gold.PLP.part.nonpolar>
-45.3958

> <Gold.PLP.part.repulsive>
3.7246

> <Gold.PLP.ligand.clash>
0.0000

> <Gold.PLP.ligand.torsion>
0.5815

> <Gold.PLP.Chemscore.Hbond>
3.6971

> <Gold.PLP.Chemscore.CHOScore>
0.0000

> <Gold.PLP.Chemscore.Metal>
0.0000

> <Gold.Chemscore.Hbonds>
donor molecule, donor type, donor heavy atom, donor atom, acceptor molecule, acceptor atom, score
      L1  H     3    23       P1  8028  0.92
      L1  H    13    47       P1  7948  1.38
      L1  H    15    35       P1  8028  1.00
      P1  H  6933  6945       L1    20  0.19

> <Gold.PLP.Chemscore.Internal.Correction>
0.0381

> <Gold.Rescore>
     Score         DG    S(hbond)    S(metal)    S(lipo)     H(rot)  DE(clash)    DE(int)     intcor
     16.64     -24.83       2.69        0.00     125.46       1.69       5.16       3.03       ----

> <Gold.Chemscore.Fitness>
16.6353

> <Gold.Chemscore.DG>
-24.8259

> <Gold.Chemscore.ZeroCoef>
-5.4800

> <Gold.Chemscore.Hbond>
2.6948

> <Gold.Chemscore.Metal>
0.0000

> <Gold.Chemscore.Lipo>
125.4623

> <Gold.Chemscore.Internal_Hbond>
0.0000

> <Gold.Chemscore.DEClash>
5.1633

> <Gold.Chemscore.DEInternal>
3.0273

> <Gold.Chemscore.Rot>
1.6929

> <Gold.Chemscore.Internal.Correction>
   9.000000E+99

> <Gold.Chemscore.Hbonds>
donor molecule, donor type, donor heavy atom, donor atom, acceptor molecule, acceptor atom, score
      L1  H     3    23       P1  8028  0.84
      L1  H    13    47       P1  7948  0.64
      L1  H    15    35       P1  8028  1.00
      P1  H  6933  6945       L1    20  0.14

> <Gold.Chemscore.Hbond.Weighted>
-9.0006

> <Gold.Chemscore.Metal.Weighted>
-0.0000

> <Gold.Chemscore.Lipo.Weighted>
-14.6791

> <Gold.Chemscore.Internal_Hbond.Weighted>
0.0000

> <Gold.Chemscore.DEClash.Weighted>
5.1633

> <Gold.Chemscore.DEInternal.Weighted>
3.0273

> <Gold.Chemscore.Rot.Weighted>
4.3338

> <Gold.Chemscore.Internal.Correction.Weighted>
   9.000000E+99

> <Gold.Protein.RotatedTorsions>
[ 6907 6896 6895 6894 ] final   -4.37 input  -60.11 | X-H torsion
[ 7974 7965 7964 7962 ] final  104.43 input  175.53 | X-H torsion
[ 8008 7997 7996 7995 ] final  106.96 input   59.86 | X-H torsion
[ 10167 10162 10161 10158 ] final    3.51 input  -65.29 | X-H torsion
[ 10718 10713 10712 10709 ] final  -76.76 input   66.30 | X-H torsion
[ 10763 10752 10751 10750 ] final  126.41 input  -60.55 | X-H torsion
[ 11005 11000 10999 10996 ] final -104.18 input  -57.11 | X-H torsion

> <Gold.Protein.ActiveResidues>
 VAL166  LYS551  ARG553  GLY616  TRP617  ASP618  TYR619  PRO620  LYS621  CYS622 
 ASP623  PHE694  ASN695  SER759  ASP760  ASP761  ALA762  ILE779  LEU786  VAL792 
 PHE793  MET794  SER795  GLU796  ALA797  LYS798  CYS799  TRP800  GLU811  SER814 

> <Gold.Protein.RotatedAtoms>
  151.4987  135.1061  159.9822 H   0  0  0  0  0  0  0  0  0  0  0  0  # atno 6907 bound_to 6896
  152.4711  133.8027  159.6972 H   0  0  0  0  0  0  0  0  0  0  0  0  # atno 6908 bound_to 6896
  150.8720  133.7429  159.2984 H   0  0  0  0  0  0  0  0  0  0  0  0  # atno 6909 bound_to 6896
  145.3328  139.2482  143.3651 H   0  0  0  0  0  0  0  0  0  0  0  0  # atno 7974 bound_to 7965
  156.1785  140.3103  155.9104 H   0  0  0  0  0  0  0  0  0  0  0  0  # atno 8008 bound_to 7997
  155.3435  140.0467  157.3062 H   0  0  0  0  0  0  0  0  0  0  0  0  # atno 8009 bound_to 7997
  154.5317  140.2232  155.8803 H   0  0  0  0  0  0  0  0  0  0  0  0  # atno 8010 bound_to 7997
  140.6582  143.7372  150.7691 H   0  0  0  0  0  0  0  0  0  0  0  0  # atno 10167 bound_to 10162
  156.0165  130.4474  150.3243 H   0  0  0  0  0  0  0  0  0  0  0  0  # atno 10718 bound_to 10713
  153.6928  135.3296  155.3206 H   0  0  0  0  0  0  0  0  0  0  0  0  # atno 10763 bound_to 10752
  154.8435  135.4435  154.1491 H   0  0  0  0  0  0  0  0  0  0  0  0  # atno 10764 bound_to 10752
  153.2537  135.6984  153.7730 H   0  0  0  0  0  0  0  0  0  0  0  0  # atno 10765 bound_to 10752
  141.1112  133.8702  157.1579 H   0  0  0  0  0  0  0  0  0  0  0  0  # atno 11005 bound_to 11000
  146.3038  140.3910  142.8694 LP  0  0  0  0  0  0  0  0  0  0  0  0  # atno 17320 bound_to 7965
  144.8850  140.7451  143.5962 LP  0  0  0  0  0  0  0  0  0  0  0  0  # atno 17321 bound_to 7965
  140.1036  143.4764  152.2411 LP  0  0  0  0  0  0  0  0  0  0  0  0  # atno 17342 bound_to 10162
  139.5809  144.7510  151.3642 LP  0  0  0  0  0  0  0  0  0  0  0  0  # atno 17343 bound_to 10162
  157.1342  131.0280  151.2956 LP  0  0  0  0  0  0  0  0  0  0  0  0  # atno 17370 bound_to 10713
  157.4525  130.7606  149.7164 LP  0  0  0  0  0  0  0  0  0  0  0  0  # atno 17371 bound_to 10713
  140.0007  135.0029  157.0184 LP  0  0  0  0  0  0  0  0  0  0  0  0  # atno 17394 bound_to 11000
  140.4769  134.1329  155.7211 LP  0  0  0  0  0  0  0  0  0  0  0  0  # atno 17395 bound_to 11000

$$$$
