AV-unprocessed.smi:3002|AV-procd|sdf|11435|dock10
  -GOLD-   2272016363D 1   1.00000     0.00000
 Structure written by MMmdl.
 34 35  0  0  0  0  0  0  0  0  1 V2000
  147.2096  136.0019  161.9711 C   0  0  0  0  0  0  0  0  0  0  0  0
  147.9966  135.7373  160.6711 C   0  0  2  0  0  0  0  0  0  0  0  0
  147.7844  136.8281  159.6101 C   0  0  0  0  0  0  0  0  0  0  0  0
  146.9222  137.6946  159.7601 O   0  0  0  0  0  0  0  0  0  0  0  0
  148.5655  136.7503  158.5205 N   0  0  0  0  0  0  0  0  0  0  0  0
  148.4508  137.5909  157.3335 C   0  0  0  0  0  0  0  0  0  0  0  0
  149.7119  137.5015  156.4516 C   0  0  1  0  0  0  0  0  0  0  0  0
  149.6522  138.3709  155.1763 C   0  0  0  0  0  0  0  0  0  0  0  0
  151.0483  138.4222  154.5490 C   0  0  0  0  0  0  0  0  0  0  0  0
  152.2245  138.3599  155.9508 S   0  0  0  0  0  0  0  0  0  0  0  0
  153.1611  137.2458  155.7397 O   0  0  0  0  0  0  0  0  0  0  0  0
  152.7136  139.7155  156.2434 O   0  0  0  0  0  0  0  0  0  0  0  0
  150.9866  137.8874  157.2177 C   0  0  0  0  0  0  0  0  0  0  0  0
  147.6938  134.4294  160.1011 N   0  0  0  0  0  0  0  0  0  0  0  0
  146.9108  133.4525  160.5642 C   0  0  0  0  0  0  0  0  0  0  0  0
  146.9117  132.3594  159.8142 N   0  0  0  0  0  0  0  0  0  0  0  0
  147.7840  132.7525  158.8395 C   0  0  0  0  0  0  0  0  0  0  0  0
  148.2905  133.9785  158.9691 N   0  0  0  0  0  0  0  0  0  0  0  0
  147.4898  136.9589  162.4125 H   0  0  0  0  0  0  0  0  0  0  0  0
  147.4148  135.2294  162.7127 H   0  0  0  0  0  0  0  0  0  0  0  0
  146.1320  136.0189  161.8028 H   0  0  0  0  0  0  0  0  0  0  0  0
  149.0572  135.7377  160.9291 H   0  0  0  0  0  0  0  0  0  0  0  0
  149.2536  136.0121  158.4862 H   0  0  0  0  0  0  0  0  0  0  0  0
  147.5602  137.3373  156.7557 H   0  0  0  0  0  0  0  0  0  0  0  0
  148.3121  138.6191  157.6684 H   0  0  0  0  0  0  0  0  0  0  0  0
  149.8314  136.4659  156.1284 H   0  0  0  0  0  0  0  0  0  0  0  0
  148.9186  137.9991  154.4603 H   0  0  0  0  0  0  0  0  0  0  0  0
  149.3480  139.3830  155.4473 H   0  0  0  0  0  0  0  0  0  0  0  0
  151.2228  137.5471  153.9226 H   0  0  0  0  0  0  0  0  0  0  0  0
  151.2164  139.3190  153.9523 H   0  0  0  0  0  0  0  0  0  0  0  0
  150.8151  138.7571  157.8525 H   0  0  0  0  0  0  0  0  0  0  0  0
  151.3732  137.0776  157.8366 H   0  0  0  0  0  0  0  0  0  0  0  0
  146.3348  133.5390  161.4737 H   0  0  0  0  0  0  0  0  0  0  0  0
  148.0602  132.1132  158.0139 H   0  0  0  0  0  0  0  0  0  0  0  0
  1  2  1  0  0  0  0
  1 19  1  0  0  0  0
  1 20  1  0  0  0  0
  1 21  1  0  0  0  0
  2  3  1  0  0  0  0
  2 14  1  0  0  0  0
  2 22  1  0  0  0  0
  3  4  2  0  0  0  0
  3  5  1  0  0  0  0
  5  6  1  0  0  0  0
  5 23  1  0  0  0  0
  6  7  1  0  0  0  0
  6 24  1  0  0  0  0
  6 25  1  0  0  0  0
  7 13  1  0  0  0  0
  7  8  1  0  0  0  0
  7 26  1  0  0  0  0
  8  9  1  0  0  0  0
  8 27  1  0  0  0  0
  8 28  1  0  0  0  0
  9 10  1  0  0  0  0
  9 29  1  0  0  0  0
  9 30  1  0  0  0  0
 10 11  2  0  0  0  0
 10 12  2  0  0  0  0
 10 13  1  0  0  0  0
 13 31  1  0  0  0  0
 13 32  1  0  0  0  0
 14 18  1  0  0  0  0
 14 15  1  0  0  0  0
 15 16  2  0  0  0  0
 15 33  1  0  0  0  0
 16 17  1  0  0  0  0
 17 18  2  0  0  0  0
 17 34  1  0  0  0  0
M  END
> <s_m_source_file>
AV-unprocessed.smi

> <i_m_source_file_index>
3002

> <i_lp_mmshare_version>
43012

> <i_f3d_flags>
0

> <s_epik_input>
bjFbY0hdbltjSF1uMVtDQEhdKFtDSDNdKUMoPU8pW05IXVtDSDJdW0NAQEhdKFtDSDJdMilbQ0gyXVtDSDJdUzIoPU8pPU8=

> <s_epik_cmdline>
J2VwaWtfcHl0aG9uJywgJy1waCcsICc3LjAnLCAnLXRuJywgJzgnLCAnLW1hJywgJzIwMCcsICctbWV0YWxfYmluZGluZycsICctaW1hZScsICc8aW5maWxlLm1hZT4nLCAnLW9tYWUnLCAnPG91dGZpbGUubWFlPic=

> <r_lp_tautomer_probability>
1

> <r_epik_Ionization_Penalty>
1.1748e-05

> <r_epik_Ionization_Penalty_Charging>
0

> <r_epik_Ionization_Penalty_Neutral>
1.1748e-05

> <r_epik_State_Penalty>
-0

> <r_epik_Charging_Adjusted_Penalty>
0

> <i_epik_Tot_Q>
0

> <i_epik_Tot_abs_Q>
0

> <r_epik_Metal_State_Penalty>
-0

> <b_epik_Metal_Only>
0

> <s_lp_Force_Field>
OPLS_2005

> <r_lp_Energy>
9.21474

> <b_lp_Chiralities_Consistent>
1

> <s_lp_Variant>
AV-unprocessed.smi:3002-3

> <Gold.Version>
5.8.1

> <Gold.Id.Protein>
6NUR|6NUR_protein|mol2

> <Gold.PLP.Fitness>
32.5503

> <Gold.PLP.PLP>
-22.8986

> <Gold.PLP.part.hbond>
-4.0000

> <Gold.PLP.part.metal>
0.0000

> <Gold.PLP.part.buried>
-3.5351

> <Gold.PLP.part.nonpolar>
-15.5642

> <Gold.PLP.part.repulsive>
0.1297

> <Gold.PLP.ligand.clash>
0.0000

> <Gold.PLP.ligand.torsion>
0.2460

> <Gold.PLP.Chemscore.Hbond>
3.3440

> <Gold.PLP.Chemscore.CHOScore>
0.0000

> <Gold.PLP.Chemscore.Metal>
0.0000

> <Gold.Chemscore.Hbonds>
donor molecule, donor type, donor heavy atom, donor atom, acceptor molecule, acceptor atom, score
      P1  H  6896  6908       L1    18  0.11
      P1  H  6934  6947       L1     4  0.94
      P1  H  7997  8009       L1    12  1.00
      P1  H 10752 10765       L1    11  0.43

> <Gold.PLP.Chemscore.Internal.Correction>
0.1116

> <Gold.Rescore>
     Score         DG    S(hbond)    S(metal)    S(lipo)     H(rot)  DE(clash)    DE(int)     intcor
     12.92     -14.50       3.36        0.00      33.68       2.39       0.02       1.56       ----

> <Gold.Chemscore.Fitness>
12.9209

> <Gold.Chemscore.DG>
-14.5032

> <Gold.Chemscore.ZeroCoef>
-5.4800

> <Gold.Chemscore.Hbond>
3.3573

> <Gold.Chemscore.Metal>
0.0000

> <Gold.Chemscore.Lipo>
33.6752

> <Gold.Chemscore.Internal_Hbond>
0.0000

> <Gold.Chemscore.DEClash>
0.0232

> <Gold.Chemscore.DEInternal>
1.5590

> <Gold.Chemscore.Rot>
2.3946

> <Gold.Chemscore.Internal.Correction>
   9.000000E+99

> <Gold.Chemscore.Hbonds>
donor molecule, donor type, donor heavy atom, donor atom, acceptor molecule, acceptor atom, score
      P1  H  6896  6908       L1    18  0.07
      P1  H  6934  6947       L1     4  0.89
      P1  H  7997  8009       L1    12  0.99
      P1  H 10752 10765       L1    11  0.44

> <Gold.Chemscore.Hbond.Weighted>
-11.2133

> <Gold.Chemscore.Metal.Weighted>
-0.0000

> <Gold.Chemscore.Lipo.Weighted>
-3.9400

> <Gold.Chemscore.Internal_Hbond.Weighted>
0.0000

> <Gold.Chemscore.DEClash.Weighted>
0.0232

> <Gold.Chemscore.DEInternal.Weighted>
1.5590

> <Gold.Chemscore.Rot.Weighted>
6.1301

> <Gold.Chemscore.Internal.Correction.Weighted>
   9.000000E+99

> <Gold.Protein.RotatedTorsions>
[ 6907 6896 6895 6894 ] final  144.15 input  -60.11 | X-H torsion
[ 7974 7965 7964 7962 ] final -124.09 input  175.53 | X-H torsion
[ 8008 7997 7996 7995 ] final -158.61 input   59.86 | X-H torsion
[ 10167 10162 10161 10158 ] final -127.30 input  -65.29 | X-H torsion
[ 10718 10713 10712 10709 ] final   95.88 input   66.30 | X-H torsion
[ 10763 10752 10751 10750 ] final -148.72 input  -60.55 | X-H torsion
[ 11005 11000 10999 10996 ] final   16.33 input  -57.11 | X-H torsion

> <Gold.Protein.ActiveResidues>
 VAL166  LYS551  ARG553  GLY616  TRP617  ASP618  TYR619  PRO620  LYS621  CYS622 
 ASP623  PHE694  ASN695  SER759  ASP760  ASP761  ALA762  ILE779  LEU786  VAL792 
 PHE793  MET794  SER795  GLU796  ALA797  LYS798  CYS799  TRP800  GLU811  SER814 

> <Gold.Protein.RotatedAtoms>
  152.1973  133.4816  159.5039 H   0  0  0  0  0  0  0  0  0  0  0  0  # atno 6907 bound_to 6896
  150.6962  134.1635  159.4194 H   0  0  0  0  0  0  0  0  0  0  0  0  # atno 6908 bound_to 6896
  151.9552  135.0150  160.0595 H   0  0  0  0  0  0  0  0  0  0  0  0  # atno 6909 bound_to 6896
  145.0117  140.7912  143.4434 H   0  0  0  0  0  0  0  0  0  0  0  0  # atno 7974 bound_to 7965
  155.7501  140.0825  157.2205 H   0  0  0  0  0  0  0  0  0  0  0  0  # atno 8008 bound_to 7997
  154.4013  140.1562  156.2770 H   0  0  0  0  0  0  0  0  0  0  0  0  # atno 8009 bound_to 7997
  155.8938  140.3414  155.5978 H   0  0  0  0  0  0  0  0  0  0  0  0  # atno 8010 bound_to 7997
  139.9623  143.5936  152.2441 H   0  0  0  0  0  0  0  0  0  0  0  0  # atno 10167 bound_to 10162
  157.6934  131.0560  150.4406 H   0  0  0  0  0  0  0  0  0  0  0  0  # atno 10718 bound_to 10713
  154.8217  135.3327  154.7018 H   0  0  0  0  0  0  0  0  0  0  0  0  # atno 10763 bound_to 10752
  153.7650  135.6930  153.4922 H   0  0  0  0  0  0  0  0  0  0  0  0  # atno 10764 bound_to 10752
  153.2084  135.4491  155.0299 H   0  0  0  0  0  0  0  0  0  0  0  0  # atno 10765 bound_to 10752
  140.4483  134.1251  155.7699 H   0  0  0  0  0  0  0  0  0  0  0  0  # atno 11005 bound_to 11000
  145.2014  139.2250  143.5191 LP  0  0  0  0  0  0  0  0  0  0  0  0  # atno 17320 bound_to 7965
  146.3471  140.1832  142.8589 LP  0  0  0  0  0  0  0  0  0  0  0  0  # atno 17321 bound_to 7965
  139.6544  144.7662  151.2084 LP  0  0  0  0  0  0  0  0  0  0  0  0  # atno 17342 bound_to 10162
  140.7549  143.6108  150.8607 LP  0  0  0  0  0  0  0  0  0  0  0  0  # atno 17343 bound_to 10162
  156.4765  130.4064  149.6487 LP  0  0  0  0  0  0  0  0  0  0  0  0  # atno 17370 bound_to 10713
  156.3548  130.7451  151.2415 LP  0  0  0  0  0  0  0  0  0  0  0  0  # atno 17371 bound_to 10713
  141.1675  133.8673  157.1670 LP  0  0  0  0  0  0  0  0  0  0  0  0  # atno 17394 bound_to 11000
  140.0024  135.0022  157.0218 LP  0  0  0  0  0  0  0  0  0  0  0  0  # atno 17395 bound_to 11000

$$$$
