AV-unprocessed.smi:62|AV-procd|sdf|603|dock1
  -GOLD-   2262016493D 1   1.00000     0.00000
 Structure written by MMmdl.
 31 32  0  0  0  0  0  0  0  0  3 V2000
  148.7010  141.7111  154.2834 C   0  0  0  0  0  0  0  0  0  0  0  0
  149.8046  141.2464  155.0957 N   0  0  0  0  0  0  0  0  0  0  0  0
  150.2943  141.7752  156.2679 C   0  0  0  0  0  0  0  0  0  0  0  0
  151.3443  140.9991  156.6748 C   0  0  0  0  0  0  0  0  0  0  0  0
  152.1803  141.2112  157.9150 C   0  0  0  0  0  0  0  0  0  0  0  0
  151.6711  142.3415  158.7266 N   0  3  1  0  0  0  0  0  0  0  0  0
  152.2024  142.4216  160.1053 C   0  0  0  0  0  0  0  0  0  0  0  0
  152.1054  143.8960  160.4842 C   0  0  0  0  0  0  0  0  0  0  0  0
  152.4391  144.5913  159.1682 C   0  0  2  0  0  0  0  0  0  0  0  0
  151.9153  145.9014  159.1130 O   0  0  0  0  0  0  0  0  0  0  0  0
  151.8329  143.6734  158.0975 C   0  0  0  0  0  0  0  0  0  0  0  0
  151.4199  139.9933  155.6519 C   0  0  0  0  0  0  0  0  0  0  0  0
  152.4583  138.9028  155.6673 C   0  0  0  0  0  0  0  0  0  0  0  0
  153.2193  138.7777  156.6523 O   0  0  0  0  0  0  0  0  0  0  0  0
  152.5327  138.1519  154.6705 O   0  5  0  0  0  0  0  0  0  0  0  0
  150.4931  140.1539  154.7171 N   0  0  0  0  0  0  0  0  0  0  0  0
  148.2676  142.6114  154.7198 H   0  0  0  0  0  0  0  0  0  0  0  0
  147.9330  140.9387  154.2278 H   0  0  0  0  0  0  0  0  0  0  0  0
  149.0534  141.9390  153.2769 H   0  0  0  0  0  0  0  0  0  0  0  0
  149.8580  142.6558  156.7161 H   0  0  0  0  0  0  0  0  0  0  0  0
  152.1951  140.3135  158.5349 H   0  0  0  0  0  0  0  0  0  0  0  0
  153.2209  141.4030  157.6511 H   0  0  0  0  0  0  0  0  0  0  0  0
  151.6477  141.7768  160.7879 H   0  0  0  0  0  0  0  0  0  0  0  0
  153.2479  142.1088  160.1189 H   0  0  0  0  0  0  0  0  0  0  0  0
  151.0844  144.1283  160.7921 H   0  0  0  0  0  0  0  0  0  0  0  0
  152.7772  144.1735  161.2970 H   0  0  0  0  0  0  0  0  0  0  0  0
  153.5222  144.6297  159.0442 H   0  0  0  0  0  0  0  0  0  0  0  0
  152.2968  146.4100  159.8125 H   0  0  0  0  0  0  0  0  0  0  0  0
  152.4603  143.6449  157.2053 H   0  0  0  0  0  0  0  0  0  0  0  0
  150.8433  144.0163  157.7921 H   0  0  0  0  0  0  0  0  0  0  0  0
  150.6731  142.2026  158.8120 H   0  0  0  0  0  0  0  0  0  0  0  0
  1  2  1  0  0  0  0
  1 17  1  0  0  0  0
  1 18  1  0  0  0  0
  1 19  1  0  0  0  0
  2 16  1  0  0  0  0
  2  3  1  0  0  0  0
  3  4  2  0  0  0  0
  3 20  1  0  0  0  0
  4  5  1  0  0  0  0
  4 12  1  0  0  0  0
  5  6  1  0  0  0  0
  5 21  1  0  0  0  0
  5 22  1  0  0  0  0
  6 11  1  0  0  0  0
  6  7  1  0  0  0  0
  6 31  1  0  0  0  0
  7  8  1  0  0  0  0
  7 23  1  0  0  0  0
  7 24  1  0  0  0  0
  8  9  1  0  0  0  0
  8 25  1  0  0  0  0
  8 26  1  0  0  0  0
  9 10  1  0  0  0  0
  9 11  1  0  0  0  0
  9 27  1  0  0  0  0
 10 28  1  0  0  0  0
 11 29  1  0  0  0  0
 11 30  1  0  0  0  0
 12 13  1  0  0  0  0
 12 16  2  0  0  0  0
 13 14  2  0  0  0  0
 13 15  1  0  0  0  0
M  CHG  1   6   1
M  CHG  1  15  -1
M  END
> <s_m_source_file>
AV-unprocessed.smi

> <i_m_source_file_index>
62

> <i_lp_mmshare_version>
43012

> <i_f3d_flags>
0

> <s_epik_input>
W0NIM11uMVtjSF1jKGMobjEpQyg9TylbT0hdKVtDSDJdTjJbQ0gyXVtDSDJdW0NAQEhdKFtPSF0pW0NIMl0y

> <s_epik_cmdline>
J2VwaWtfcHl0aG9uJywgJy1waCcsICc3LjAnLCAnLXRuJywgJzgnLCAnLW1hJywgJzIwMCcsICctbWV0YWxfYmluZGluZycsICctaW1hZScsICc8aW5maWxlLm1hZT4nLCAnLW9tYWUnLCAnPG91dGZpbGUubWFlPic=

> <r_epik_Ionization_Penalty>
0.0522993

> <r_epik_Ionization_Penalty_Charging>
0.0522915

> <r_epik_Ionization_Penalty_Neutral>
7.84975e-06

> <r_epik_State_Penalty>
0.0448084

> <r_epik_Charging_Adjusted_Penalty>
0.0970998

> <i_epik_Tot_Q>
0

> <i_epik_Tot_abs_Q>
2

> <r_epik_Metal_State_Penalty>
0.0448097

> <b_epik_Metal_Only>
0

> <s_lp_Force_Field>
OPLS_2005

> <r_lp_Energy>
17.4079

> <b_lp_Chiralities_Consistent>
1

> <s_lp_Variant>
AV-unprocessed.smi:62-3

> <Gold.Version>
5.8.1

> <Gold.Id.Protein>
6NUR|6NUR_protein|mol2

> <Gold.PLP.Fitness>
49.1363

> <Gold.PLP.PLP>
-38.2307

> <Gold.PLP.part.hbond>
-3.2685

> <Gold.PLP.part.metal>
0.0000

> <Gold.PLP.part.buried>
-2.2930

> <Gold.PLP.part.nonpolar>
-30.6463

> <Gold.PLP.part.repulsive>
0.1955

> <Gold.PLP.ligand.clash>
0.0000

> <Gold.PLP.ligand.torsion>
0.1021

> <Gold.PLP.Chemscore.Hbond>
2.7000

> <Gold.PLP.Chemscore.CHOScore>
0.9973

> <Gold.PLP.Chemscore.Metal>
0.0000

> <Gold.Chemscore.Hbonds>
donor molecule, donor type, donor heavy atom, donor atom, acceptor molecule, acceptor atom, score
      P1  H  7989  7998       L1    16  0.75
      P1  H  7997  8009       L1    14  2.00
      L1  C     3    20       P1  8028  1.00

> <Gold.PLP.Chemscore.Internal.Correction>
0.0179

> <Gold.Rescore>
     Score         DG    S(hbond)    S(metal)    S(lipo)     H(rot)  DE(clash)    DE(int)     intcor
     12.04     -13.98       0.99        0.00      84.12       1.81       0.60       1.34       ----

> <Gold.Chemscore.Fitness>
12.0385

> <Gold.Chemscore.DG>
-13.9807

> <Gold.Chemscore.ZeroCoef>
-5.4800

> <Gold.Chemscore.Hbond>
0.9851

> <Gold.Chemscore.Metal>
0.0000

> <Gold.Chemscore.Lipo>
84.1184

> <Gold.Chemscore.Internal_Hbond>
0.0000

> <Gold.Chemscore.DEClash>
0.6006

> <Gold.Chemscore.DEInternal>
1.3415

> <Gold.Chemscore.Rot>
1.8091

> <Gold.Chemscore.Internal.Correction>
   9.000000E+99

> <Gold.Chemscore.Hbonds>
donor molecule, donor type, donor heavy atom, donor atom, acceptor molecule, acceptor atom, score
      P1  H  7989  7998       L1    16  0.03
      P1  H  7997  8009       L1    14  0.29

> <Gold.Chemscore.Hbond.Weighted>
-3.2902

> <Gold.Chemscore.Metal.Weighted>
-0.0000

> <Gold.Chemscore.Lipo.Weighted>
-9.8418

> <Gold.Chemscore.Internal_Hbond.Weighted>
0.0000

> <Gold.Chemscore.DEClash.Weighted>
0.6006

> <Gold.Chemscore.DEInternal.Weighted>
1.3415

> <Gold.Chemscore.Rot.Weighted>
4.6314

> <Gold.Chemscore.Internal.Correction.Weighted>
   9.000000E+99

> <Gold.Protein.RotatedTorsions>
[ 6907 6896 6895 6894 ] final   65.90 input  -60.11 | X-H torsion
[ 7974 7965 7964 7962 ] final   14.35 input  175.53 | X-H torsion
[ 8008 7997 7996 7995 ] final -164.41 input   59.86 | X-H torsion
[ 10167 10162 10161 10158 ] final  159.16 input  -65.29 | X-H torsion
[ 10718 10713 10712 10709 ] final  -73.47 input   66.30 | X-H torsion
[ 10763 10752 10751 10750 ] final  -49.92 input  -60.55 | X-H torsion
[ 11005 11000 10999 10996 ] final  -22.63 input  -57.11 | X-H torsion

> <Gold.Protein.ActiveResidues>
 VAL166  LYS551  ARG553  GLY616  TRP617  ASP618  TYR619  PRO620  LYS621  CYS622 
 ASP623  PHE694  ASN695  SER759  ASP760  ASP761  ALA762  ILE779  LEU786  VAL792 
 PHE793  MET794  SER795  GLU796  ALA797  LYS798  CYS799  TRP800  GLU811  SER814 

> <Gold.Protein.RotatedAtoms>
  152.4442  134.5529  159.9871 H   0  0  0  0  0  0  0  0  0  0  0  0  # atno 6907 bound_to 6896
  151.5619  133.3396  159.2980 H   0  0  0  0  0  0  0  0  0  0  0  0  # atno 6908 bound_to 6896
  150.8354  134.7658  159.6952 H   0  0  0  0  0  0  0  0  0  0  0  0  # atno 6909 bound_to 6896
  146.2307  139.9055  142.8532 H   0  0  0  0  0  0  0  0  0  0  0  0  # atno 7974 bound_to 7965
  155.8353  140.0940  157.1768 H   0  0  0  0  0  0  0  0  0  0  0  0  # atno 8008 bound_to 7997
  154.3980  140.1411  156.3724 H   0  0  0  0  0  0  0  0  0  0  0  0  # atno 8009 bound_to 7997
  155.8123  140.3449  155.5467 H   0  0  0  0  0  0  0  0  0  0  0  0  # atno 8010 bound_to 7997
  139.4831  144.4756  151.8516 H   0  0  0  0  0  0  0  0  0  0  0  0  # atno 10167 bound_to 10162
  156.0279  130.4395  150.2748 H   0  0  0  0  0  0  0  0  0  0  0  0  # atno 10718 bound_to 10713
  154.1019  135.6562  153.4870 H   0  0  0  0  0  0  0  0  0  0  0  0  # atno 10763 bound_to 10752
  153.0285  135.5227  154.7277 H   0  0  0  0  0  0  0  0  0  0  0  0  # atno 10764 bound_to 10752
  154.6432  135.2991  155.0047 H   0  0  0  0  0  0  0  0  0  0  0  0  # atno 10765 bound_to 10752
  140.8675  133.7744  156.0147 H   0  0  0  0  0  0  0  0  0  0  0  0  # atno 11005 bound_to 11000
  145.2281  140.9962  143.4006 LP  0  0  0  0  0  0  0  0  0  0  0  0  # atno 17320 bound_to 7965
  144.9553  139.4038  143.6382 LP  0  0  0  0  0  0  0  0  0  0  0  0  # atno 17321 bound_to 7965
  140.4228  144.2220  150.5887 LP  0  0  0  0  0  0  0  0  0  0  0  0  # atno 17342 bound_to 10162
  140.4857  143.2364  151.8891 LP  0  0  0  0  0  0  0  0  0  0  0  0  # atno 17343 bound_to 10162
  157.0851  131.0154  151.3142 LP  0  0  0  0  0  0  0  0  0  0  0  0  # atno 17370 bound_to 10713
  157.4897  130.7815  149.7496 LP  0  0  0  0  0  0  0  0  0  0  0  0  # atno 17371 bound_to 10713
  140.8611  134.2839  157.5234 LP  0  0  0  0  0  0  0  0  0  0  0  0  # atno 17394 bound_to 11000
  139.8710  134.9518  156.4097 LP  0  0  0  0  0  0  0  0  0  0  0  0  # atno 17395 bound_to 11000

$$$$
