AV-unprocessed.smi:2413|AV-procd|sdf|9534|dock4
  -GOLD-   2272013163D 1   1.00000     0.00000
 Structure written by MMmdl.
 45 46  0  0  0  0  0  0  0  0  1 V2000
  147.7292  138.9839  153.7750 C   0  0  0  0  0  0  0  0  0  0  0  0
  149.1475  139.1801  154.3019 C   0  0  0  0  0  0  0  0  0  0  0  0
  149.3919  140.1141  155.0646 O   0  0  0  0  0  0  0  0  0  0  0  0
  150.0699  138.2977  153.8881 N   0  0  0  0  0  0  0  0  0  0  0  0
  151.4814  138.3154  154.2593 C   0  0  0  0  0  0  0  0  0  0  0  0
  151.6705  138.1809  155.7797 C   0  0  2  0  0  0  0  0  0  0  0  0
  152.2500  139.4679  156.3997 C   0  0  0  0  0  0  0  0  0  0  0  0
  152.4817  139.2759  157.8258 N   0  0  0  0  0  0  0  0  0  0  0  0
  152.8995  140.4305  158.4998 C   0  0  0  0  0  0  0  0  0  0  0  0
  154.0505  140.4527  159.3182 C   0  0  0  0  0  0  0  0  0  0  0  0
  154.3526  141.6813  159.9356 C   0  0  0  0  0  0  0  0  0  0  0  0
  153.5812  142.7744  159.7577 N   0  0  0  0  0  0  0  0  0  0  0  0
  152.4872  142.6447  158.9950 C   0  0  0  0  0  0  0  0  0  0  0  0
  151.6976  143.9251  158.6731 C   0  0  0  0  0  0  0  0  0  0  0  0
  150.2117  143.7789  159.0778 C   0  0  0  0  0  0  0  0  0  0  0  0
  151.7944  144.2204  157.1651 C   0  0  0  0  0  0  0  0  0  0  0  0
  152.2426  145.1313  159.4737 C   0  0  0  0  0  0  0  0  0  0  0  0
  152.1365  141.5321  158.3357 N   0  0  0  0  0  0  0  0  0  0  0  0
  153.3254  138.1231  158.1079 C   0  0  0  0  0  0  0  0  0  0  0  0
  152.7410  136.8688  157.4382 C   0  0  0  0  0  0  0  0  0  0  0  0
  152.5746  137.1088  156.0442 O   0  0  0  0  0  0  0  0  0  0  0  0
  147.6526  138.0972  153.1444 H   0  0  0  0  0  0  0  0  0  0  0  0
  147.4249  139.8491  153.1856 H   0  0  0  0  0  0  0  0  0  0  0  0
  147.0313  138.8726  154.6051 H   0  0  0  0  0  0  0  0  0  0  0  0
  149.7737  137.5643  153.2605 H   0  0  0  0  0  0  0  0  0  0  0  0
  152.0367  137.5384  153.7311 H   0  0  0  0  0  0  0  0  0  0  0  0
  151.8930  139.2677  153.9241 H   0  0  0  0  0  0  0  0  0  0  0  0
  150.7041  137.9611  156.2382 H   0  0  0  0  0  0  0  0  0  0  0  0
  153.1845  139.7299  155.9021 H   0  0  0  0  0  0  0  0  0  0  0  0
  151.5603  140.2999  156.2514 H   0  0  0  0  0  0  0  0  0  0  0  0
  154.6709  139.5814  159.4669 H   0  0  0  0  0  0  0  0  0  0  0  0
  155.2192  141.7889  160.5711 H   0  0  0  0  0  0  0  0  0  0  0  0
  149.6585  144.7016  158.8989 H   0  0  0  0  0  0  0  0  0  0  0  0
  150.1104  143.5361  160.1364 H   0  0  0  0  0  0  0  0  0  0  0  0
  149.7083  142.9961  158.5092 H   0  0  0  0  0  0  0  0  0  0  0  0
  151.3880  143.3988  156.5742 H   0  0  0  0  0  0  0  0  0  0  0  0
  152.8303  144.3658  156.8561 H   0  0  0  0  0  0  0  0  0  0  0  0
  151.2419  145.1220  156.8992 H   0  0  0  0  0  0  0  0  0  0  0  0
  151.6554  146.0308  159.2852 H   0  0  0  0  0  0  0  0  0  0  0  0
  153.2730  145.3678  159.2061 H   0  0  0  0  0  0  0  0  0  0  0  0
  152.2146  144.9409  160.5472 H   0  0  0  0  0  0  0  0  0  0  0  0
  154.3345  138.3063  157.7360 H   0  0  0  0  0  0  0  0  0  0  0  0
  153.3996  137.9723  159.1856 H   0  0  0  0  0  0  0  0  0  0  0  0
  153.4122  136.0210  157.5758 H   0  0  0  0  0  0  0  0  0  0  0  0
  151.7852  136.5955  157.8885 H   0  0  0  0  0  0  0  0  0  0  0  0
  1  2  1  0  0  0  0
  1 22  1  0  0  0  0
  1 23  1  0  0  0  0
  1 24  1  0  0  0  0
  2  3  2  0  0  0  0
  2  4  1  0  0  0  0
  4  5  1  0  0  0  0
  4 25  1  0  0  0  0
  5  6  1  0  0  0  0
  5 26  1  0  0  0  0
  5 27  1  0  0  0  0
  6 21  1  0  0  0  0
  6  7  1  0  0  0  0
  6 28  1  0  0  0  0
  7  8  1  0  0  0  0
  7 29  1  0  0  0  0
  7 30  1  0  0  0  0
  8  9  1  0  0  0  0
  8 19  1  0  0  0  0
  9 18  1  0  0  0  0
  9 10  2  0  0  0  0
 10 11  1  0  0  0  0
 10 31  1  0  0  0  0
 11 12  2  0  0  0  0
 11 32  1  0  0  0  0
 12 13  1  0  0  0  0
 13 14  1  0  0  0  0
 13 18  2  0  0  0  0
 14 15  1  0  0  0  0
 14 16  1  0  0  0  0
 14 17  1  0  0  0  0
 15 33  1  0  0  0  0
 15 34  1  0  0  0  0
 15 35  1  0  0  0  0
 16 36  1  0  0  0  0
 16 37  1  0  0  0  0
 16 38  1  0  0  0  0
 17 39  1  0  0  0  0
 17 40  1  0  0  0  0
 17 41  1  0  0  0  0
 19 20  1  0  0  0  0
 19 42  1  0  0  0  0
 19 43  1  0  0  0  0
 20 21  1  0  0  0  0
 20 44  1  0  0  0  0
 20 45  1  0  0  0  0
M  END
> <s_m_source_file>
AV-unprocessed.smi

> <i_m_source_file_index>
2413

> <i_lp_mmshare_version>
43012

> <i_f3d_flags>
0

> <s_epik_input>
W0NIM11DKD1PKVtOSF1bQ0gyXVtDQEBIXTFbQ0gyXU4oW0NIMl1bQ0gyXU8xKWMyW2NIXVtjSF1uYyhuMilDKFtDSDNdKShbQ0gzXSlbQ0gzXQ==

> <s_epik_cmdline>
J2VwaWtfcHl0aG9uJywgJy1waCcsICc3LjAnLCAnLXRuJywgJzgnLCAnLW1hJywgJzIwMCcsICctbWV0YWxfYmluZGluZycsICctaW1hZScsICc8aW5maWxlLm1hZT4nLCAnLW9tYWUnLCAnPG91dGZpbGUubWFlPic=

> <r_lp_tautomer_probability>
1

> <r_epik_Ionization_Penalty>
0.0132021

> <r_epik_Ionization_Penalty_Charging>
0

> <r_epik_Ionization_Penalty_Neutral>
0.0132021

> <r_epik_State_Penalty>
0.0102452

> <r_epik_Charging_Adjusted_Penalty>
0.0102452

> <i_epik_Tot_Q>
0

> <i_epik_Tot_abs_Q>
0

> <r_epik_Metal_State_Penalty>
0.0100219

> <b_epik_Metal_Only>
0

> <s_lp_Force_Field>
OPLS_2005

> <r_lp_Energy>
13.0347

> <b_lp_Chiralities_Consistent>
1

> <s_lp_Variant>
AV-unprocessed.smi:2413-1

> <Gold.Version>
5.8.1

> <Gold.Id.Protein>
6NUR|6NUR_protein|mol2

> <Gold.PLP.Fitness>
41.5082

> <Gold.PLP.PLP>
-38.1156

> <Gold.PLP.part.hbond>
-2.1556

> <Gold.PLP.part.metal>
0.0000

> <Gold.PLP.part.buried>
-5.2122

> <Gold.PLP.part.nonpolar>
-30.7141

> <Gold.PLP.part.repulsive>
0.1414

> <Gold.PLP.ligand.clash>
0.9544

> <Gold.PLP.ligand.torsion>
0.8685

> <Gold.PLP.Chemscore.Hbond>
1.9440

> <Gold.PLP.Chemscore.CHOScore>
0.0000

> <Gold.PLP.Chemscore.Metal>
0.0000

> <Gold.Chemscore.Hbonds>
donor molecule, donor type, donor heavy atom, donor atom, acceptor molecule, acceptor atom, score
      L1  H     4    25       P1  7948  0.93
      P1  H 10752 10763       L1    21  0.78

> <Gold.PLP.Chemscore.Internal.Correction>
0.2519

> <Gold.Rescore>
     Score         DG    S(hbond)    S(metal)    S(lipo)     H(rot)  DE(clash)    DE(int)     intcor
     17.26     -18.17       1.76        0.00      96.14       1.73       0.03       0.88       ----

> <Gold.Chemscore.Fitness>
17.2567

> <Gold.Chemscore.DG>
-18.1712

> <Gold.Chemscore.ZeroCoef>
-5.4800

> <Gold.Chemscore.Hbond>
1.7604

> <Gold.Chemscore.Metal>
0.0000

> <Gold.Chemscore.Lipo>
96.1409

> <Gold.Chemscore.Internal_Hbond>
0.0000

> <Gold.Chemscore.DEClash>
0.0336

> <Gold.Chemscore.DEInternal>
0.8808

> <Gold.Chemscore.Rot>
1.7332

> <Gold.Chemscore.Internal.Correction>
   9.000000E+99

> <Gold.Chemscore.Hbonds>
donor molecule, donor type, donor heavy atom, donor atom, acceptor molecule, acceptor atom, score
      L1  H     4    25       P1  7948  0.58
      P1  H 10752 10763       L1    21  0.42

> <Gold.Chemscore.Hbond.Weighted>
-5.8797

> <Gold.Chemscore.Metal.Weighted>
-0.0000

> <Gold.Chemscore.Lipo.Weighted>
-11.2485

> <Gold.Chemscore.Internal_Hbond.Weighted>
0.0000

> <Gold.Chemscore.DEClash.Weighted>
0.0336

> <Gold.Chemscore.DEInternal.Weighted>
0.8808

> <Gold.Chemscore.Rot.Weighted>
4.4370

> <Gold.Chemscore.Internal.Correction.Weighted>
   9.000000E+99

> <Gold.Protein.RotatedTorsions>
[ 6907 6896 6895 6894 ] final  -19.87 input  -60.11 | X-H torsion
[ 7974 7965 7964 7962 ] final   92.27 input  175.53 | X-H torsion
[ 8008 7997 7996 7995 ] final   97.56 input   59.86 | X-H torsion
[ 10167 10162 10161 10158 ] final  -42.11 input  -65.29 | X-H torsion
[ 10718 10713 10712 10709 ] final -173.65 input   66.30 | X-H torsion
[ 10763 10752 10751 10750 ] final   96.89 input  -60.55 | X-H torsion
[ 11005 11000 10999 10996 ] final -144.06 input  -57.11 | X-H torsion

> <Gold.Protein.ActiveResidues>
 VAL166  LYS551  ARG553  GLY616  TRP617  ASP618  TYR619  PRO620  LYS621  CYS622 
 ASP623  PHE694  ASN695  SER759  ASP760  ASP761  ALA762  ILE779  LEU786  VAL792 
 PHE793  MET794  SER795  GLU796  ALA797  LYS798  CYS799  TRP800  GLU811  SER814 

> <Gold.Protein.RotatedAtoms>
  151.2566  135.0640  159.9082 H   0  0  0  0  0  0  0  0  0  0  0  0  # atno 6907 bound_to 6896
  152.5372  134.0275  159.8020 H   0  0  0  0  0  0  0  0  0  0  0  0  # atno 6908 bound_to 6896
  151.0491  133.5590  159.2675 H   0  0  0  0  0  0  0  0  0  0  0  0  # atno 6909 bound_to 6896
  145.4946  139.2276  143.2811 H   0  0  0  0  0  0  0  0  0  0  0  0  # atno 7974 bound_to 7965
  156.0914  140.3256  155.7821 H   0  0  0  0  0  0  0  0  0  0  0  0  # atno 8008 bound_to 7997
  155.4990  140.0567  157.2959 H   0  0  0  0  0  0  0  0  0  0  0  0  # atno 8009 bound_to 7997
  154.4640  140.1980  156.0184 H   0  0  0  0  0  0  0  0  0  0  0  0  # atno 8010 bound_to 7997
  140.6980  143.3056  151.3162 H   0  0  0  0  0  0  0  0  0  0  0  0  # atno 10167 bound_to 10162
  156.7735  130.9457  151.3120 H   0  0  0  0  0  0  0  0  0  0  0  0  # atno 10718 bound_to 10713
  153.2703  135.4202  155.0981 H   0  0  0  0  0  0  0  0  0  0  0  0  # atno 10763 bound_to 10752
  154.8453  135.3470  154.6253 H   0  0  0  0  0  0  0  0  0  0  0  0  # atno 10764 bound_to 10752
  153.6673  135.7045  153.5215 H   0  0  0  0  0  0  0  0  0  0  0  0  # atno 10765 bound_to 10752
  140.8063  134.2798  157.4959 H   0  0  0  0  0  0  0  0  0  0  0  0  # atno 11005 bound_to 11000
  146.2263  140.5742  142.8995 LP  0  0  0  0  0  0  0  0  0  0  0  0  # atno 17320 bound_to 7965
  144.7814  140.5849  143.6603 LP  0  0  0  0  0  0  0  0  0  0  0  0  # atno 17321 bound_to 7965
  139.6461  144.0449  152.2591 LP  0  0  0  0  0  0  0  0  0  0  0  0  # atno 17342 bound_to 10162
  139.9970  144.6321  150.7763 LP  0  0  0  0  0  0  0  0  0  0  0  0  # atno 17343 bound_to 10162
  157.6680  130.9025  149.9975 LP  0  0  0  0  0  0  0  0  0  0  0  0  # atno 17370 bound_to 10713
  156.1263  130.3644  149.9804 LP  0  0  0  0  0  0  0  0  0  0  0  0  # atno 17371 bound_to 10713
  139.8717  134.9458  156.3919 LP  0  0  0  0  0  0  0  0  0  0  0  0  # atno 17394 bound_to 11000
  140.9244  133.7623  155.9946 LP  0  0  0  0  0  0  0  0  0  0  0  0  # atno 17395 bound_to 11000

$$$$
