AV-unprocessed.smi:2246|AV-procd|sdf|9082|dock2
  -GOLD-   2272012283D 1   1.00000     0.00000
 Structure written by MMmdl.
 29 30  0  0  0  0  0  0  0  0  1 V2000
  153.1317  139.6720  157.8289 O   0  0  0  0  0  0  0  0  0  0  0  0
  152.1337  140.2627  157.4175 C   0  0  0  0  0  0  0  0  0  0  0  0
  151.6937  140.2123  155.9542 C   0  0  1  0  0  0  0  0  0  0  0  0
  151.3177  138.8269  155.5834 N   0  0  0  0  0  0  0  0  0  0  0  0
  151.6615  137.7109  156.3376 C   0  0  0  0  0  0  0  0  0  0  0  0
  151.3661  136.4408  155.9707 C   0  0  0  0  0  0  0  0  0  0  0  0
  151.8311  135.1097  156.9684 Cl  0  0  0  0  0  0  0  0  0  0  0  0
  150.6573  136.1870  154.7182 C   0  0  0  0  0  0  0  0  0  0  0  0
  150.3322  135.0795  154.2948 O   0  0  0  0  0  0  0  0  0  0  0  0
  150.3543  137.3323  153.9773 N   0  0  0  0  0  0  0  0  0  0  0  0
  150.6620  138.6430  154.3428 C   0  0  0  0  0  0  0  0  0  0  0  0
  150.3599  139.5685  153.5900 O   0  0  0  0  0  0  0  0  0  0  0  0
  150.4912  141.1832  155.9468 C   0  0  0  0  0  0  0  0  0  0  0  0
  150.1800  141.5237  157.4093 C   0  0  0  0  0  0  0  0  0  0  0  0
  151.3159  141.0201  158.1576 N   0  0  0  0  0  0  0  0  0  0  0  0
  151.4345  141.2791  159.5915 C   0  0  0  0  0  0  0  0  0  0  0  0
  152.5955  142.2343  159.9211 C   0  0  0  0  0  0  0  0  0  0  0  0
  152.4463  142.6851  161.1659 F   0  0  0  0  0  0  0  0  0  0  0  0
  153.7711  141.6127  159.8348 F   0  0  0  0  0  0  0  0  0  0  0  0
  152.5882  143.2755  159.0887 F   0  0  0  0  0  0  0  0  0  0  0  0
  149.8778  137.1988  153.0971 H   0  0  0  0  0  0  0  0  0  0  0  0
  152.4808  140.6404  155.3308 H   0  0  0  0  0  0  0  0  0  0  0  0
  152.1994  137.8478  157.2638 H   0  0  0  0  0  0  0  0  0  0  0  0
  150.7795  142.0983  155.4275 H   0  0  0  0  0  0  0  0  0  0  0  0
  149.6179  140.8024  155.4163 H   0  0  0  0  0  0  0  0  0  0  0  0
  150.0517  142.5969  157.5560 H   0  0  0  0  0  0  0  0  0  0  0  0
  149.2719  141.0214  157.7451 H   0  0  0  0  0  0  0  0  0  0  0  0
  150.4975  141.7039  159.9539 H   0  0  0  0  0  0  0  0  0  0  0  0
  151.5642  140.3355  160.1240 H   0  0  0  0  0  0  0  0  0  0  0  0
  1  2  2  0  0  0  0
  2 15  1  0  0  0  0
  2  3  1  0  0  0  0
  3  4  1  0  0  0  0
  3 13  1  0  0  0  0
  3 22  1  0  0  0  0
  4 11  1  0  0  0  0
  4  5  1  0  0  0  0
  5  6  2  0  0  0  0
  5 23  1  0  0  0  0
  6  7  1  0  0  0  0
  6  8  1  0  0  0  0
  8  9  2  0  0  0  0
  8 10  1  0  0  0  0
 10 21  1  0  0  0  0
 10 11  1  0  0  0  0
 11 12  2  0  0  0  0
 13 14  1  0  0  0  0
 13 24  1  0  0  0  0
 13 25  1  0  0  0  0
 14 15  1  0  0  0  0
 14 26  1  0  0  0  0
 14 27  1  0  0  0  0
 15 16  1  0  0  0  0
 16 17  1  0  0  0  0
 16 28  1  0  0  0  0
 16 29  1  0  0  0  0
 17 18  1  0  0  0  0
 17 19  1  0  0  0  0
 17 20  1  0  0  0  0
M  END
> <s_m_source_file>
AV-unprocessed.smi

> <i_m_source_file_index>
2246

> <i_lp_mmshare_version>
43012

> <i_f3d_flags>
0

> <s_epik_input>
RkMoRikoRilbQ0gyXU4xW0NIMl1bQ0gyXVtDQEBIXShDMT1PKW4yW2NIXWMoQ2wpYyg9TylbbkhdYzI9Tw==

> <s_epik_cmdline>
J2VwaWtfcHl0aG9uJywgJy1waCcsICc3LjAnLCAnLXRuJywgJzgnLCAnLW1hJywgJzIwMCcsICctbWV0YWxfYmluZGluZycsICctaW1hZScsICc8aW5maWxlLm1hZT4nLCAnLW9tYWUnLCAnPG91dGZpbGUubWFlPic=

> <r_lp_tautomer_probability>
0.999537

> <r_epik_Ionization_Penalty>
0.0656354

> <r_epik_Ionization_Penalty_Charging>
0.0656354

> <r_epik_Ionization_Penalty_Neutral>
1.30579e-10

> <r_epik_State_Penalty>
0.0572525

> <r_epik_Charging_Adjusted_Penalty>
0.122888

> <i_epik_Tot_Q>
0

> <i_epik_Tot_abs_Q>
0

> <r_epik_Metal_State_Penalty>
2.74286

> <b_epik_Metal_Only>
0

> <s_lp_Force_Field>
OPLS_2005

> <r_lp_Energy>
21.6737

> <b_lp_Chiralities_Consistent>
1

> <s_lp_Variant>
AV-unprocessed.smi:2246-1

> <Gold.Version>
5.8.1

> <Gold.Id.Protein>
6NUR|6NUR_protein|mol2

> <Gold.PLP.Fitness>
42.4065

> <Gold.PLP.PLP>
-34.2777

> <Gold.PLP.part.hbond>
-3.1460

> <Gold.PLP.part.metal>
0.0000

> <Gold.PLP.part.buried>
-2.4243

> <Gold.PLP.part.nonpolar>
-32.1274

> <Gold.PLP.part.repulsive>
2.6529

> <Gold.PLP.ligand.clash>
0.0000

> <Gold.PLP.ligand.torsion>
0.4879

> <Gold.PLP.Chemscore.Hbond>
2.9920

> <Gold.PLP.Chemscore.CHOScore>
0.0000

> <Gold.PLP.Chemscore.Metal>
0.0000

> <Gold.Chemscore.Hbonds>
donor molecule, donor type, donor heavy atom, donor atom, acceptor molecule, acceptor atom, score
      L1  H    10    21       P1  7948  1.00
      P1  H  7989  7998       L1    12  0.86
      P1  H  7997  8009       L1     1  0.99

> <Gold.PLP.Chemscore.Internal.Correction>
0.1286

> <Gold.Rescore>
     Score         DG    S(hbond)    S(metal)    S(lipo)     H(rot)  DE(clash)    DE(int)     intcor
     10.69     -15.94       2.57        0.00      48.13       1.46       2.22       3.04       ----

> <Gold.Chemscore.Fitness>
10.6866

> <Gold.Chemscore.DG>
-15.9448

> <Gold.Chemscore.ZeroCoef>
-5.4800

> <Gold.Chemscore.Hbond>
2.5685

> <Gold.Chemscore.Metal>
0.0000

> <Gold.Chemscore.Lipo>
48.1343

> <Gold.Chemscore.Internal_Hbond>
0.0000

> <Gold.Chemscore.DEClash>
2.2186

> <Gold.Chemscore.DEInternal>
3.0396

> <Gold.Chemscore.Rot>
1.4632

> <Gold.Chemscore.Internal.Correction>
   9.000000E+99

> <Gold.Chemscore.Hbonds>
donor molecule, donor type, donor heavy atom, donor atom, acceptor molecule, acceptor atom, score
      L1  H    10    21       P1  7948  0.29
      P1  H  7989  7998       L1    12  0.75
      P1  H  7997  8009       L1     1  0.92

> <Gold.Chemscore.Hbond.Weighted>
-8.5789

> <Gold.Chemscore.Metal.Weighted>
-0.0000

> <Gold.Chemscore.Lipo.Weighted>
-5.6317

> <Gold.Chemscore.Internal_Hbond.Weighted>
0.0000

> <Gold.Chemscore.DEClash.Weighted>
2.2186

> <Gold.Chemscore.DEInternal.Weighted>
3.0396

> <Gold.Chemscore.Rot.Weighted>
3.7458

> <Gold.Chemscore.Internal.Correction.Weighted>
   9.000000E+99

> <Gold.Protein.RotatedTorsions>
[ 6907 6896 6895 6894 ] final   74.46 input  -60.11 | X-H torsion
[ 7974 7965 7964 7962 ] final -135.95 input  175.53 | X-H torsion
[ 8008 7997 7996 7995 ] final  143.87 input   59.86 | X-H torsion
[ 10167 10162 10161 10158 ] final    5.95 input  -65.29 | X-H torsion
[ 10718 10713 10712 10709 ] final   75.45 input   66.30 | X-H torsion
[ 10763 10752 10751 10750 ] final  -62.26 input  -60.55 | X-H torsion
[ 11005 11000 10999 10996 ] final -123.23 input  -57.11 | X-H torsion

> <Gold.Protein.ActiveResidues>
 VAL166  LYS551  ARG553  GLY616  TRP617  ASP618  TYR619  PRO620  LYS621  CYS622 
 ASP623  PHE694  ASN695  SER759  ASP760  ASP761  ALA762  ILE779  LEU786  VAL792 
 PHE793  MET794  SER795  GLU796  ALA797  LYS798  CYS799  TRP800  GLU811  SER814 

> <Gold.Protein.RotatedAtoms>
  152.4977  134.4267  159.9498 H   0  0  0  0  0  0  0  0  0  0  0  0  # atno 6907 bound_to 6896
  151.4243  133.3683  159.2768 H   0  0  0  0  0  0  0  0  0  0  0  0  # atno 6908 bound_to 6896
  150.9200  134.8640  159.7542 H   0  0  0  0  0  0  0  0  0  0  0  0  # atno 6909 bound_to 6896
  144.8969  140.6719  143.5109 H   0  0  0  0  0  0  0  0  0  0  0  0  # atno 7974 bound_to 7965
  156.2921  140.2251  156.4961 H   0  0  0  0  0  0  0  0  0  0  0  0  # atno 8008 bound_to 7997
  154.7730  140.0465  157.1088 H   0  0  0  0  0  0  0  0  0  0  0  0  # atno 8009 bound_to 7997
  154.9851  140.3083  155.4933 H   0  0  0  0  0  0  0  0  0  0  0  0  # atno 8010 bound_to 7997
  140.6454  143.7674  150.7491 H   0  0  0  0  0  0  0  0  0  0  0  0  # atno 10167 bound_to 10162
  157.6634  130.9727  150.1355 H   0  0  0  0  0  0  0  0  0  0  0  0  # atno 10718 bound_to 10713
  154.2972  135.6242  153.5410 H   0  0  0  0  0  0  0  0  0  0  0  0  # atno 10763 bound_to 10752
  152.9845  135.5670  154.5324 H   0  0  0  0  0  0  0  0  0  0  0  0  # atno 10764 bound_to 10752
  154.4947  135.2869  155.1445 H   0  0  0  0  0  0  0  0  0  0  0  0  # atno 10765 bound_to 10752
  140.9935  134.0505  157.3625 H   0  0  0  0  0  0  0  0  0  0  0  0  # atno 11005 bound_to 11000
  145.3684  139.1664  143.4345 LP  0  0  0  0  0  0  0  0  0  0  0  0  # atno 17320 bound_to 7965
  146.3086  140.3753  142.8678 LP  0  0  0  0  0  0  0  0  0  0  0  0  # atno 17321 bound_to 7965
  140.1314  143.4523  152.2252 LP  0  0  0  0  0  0  0  0  0  0  0  0  # atno 17342 bound_to 10162
  139.5665  144.7438  151.4008 LP  0  0  0  0  0  0  0  0  0  0  0  0  # atno 17343 bound_to 10162
  156.2191  130.3672  149.8578 LP  0  0  0  0  0  0  0  0  0  0  0  0  # atno 17370 bound_to 10713
  156.6436  130.8715  151.3518 LP  0  0  0  0  0  0  0  0  0  0  0  0  # atno 17371 bound_to 10713
  139.9003  135.0162  156.7238 LP  0  0  0  0  0  0  0  0  0  0  0  0  # atno 17394 bound_to 11000
  140.7002  133.9313  155.8020 LP  0  0  0  0  0  0  0  0  0  0  0  0  # atno 17395 bound_to 11000

$$$$
