AV-unprocessed.smi:131|AV-procd|sdf|1162|dock6
  -GOLD-   2262018303D 1   1.00000     0.00000
 Structure written by MMmdl.
 55 58  0  0  0  0  0  0  0  0  1 V2000
  146.3649  138.2016  154.7821 O   0  0  0  0  0  0  0  0  0  0  0  0
  146.9687  138.6189  153.7948 C   0  0  0  0  0  0  0  0  0  0  0  0
  146.3159  138.4411  152.4116 C   0  0  0  0  0  0  0  0  0  0  0  0
  145.3853  137.2943  152.2932 N   0  0  0  0  0  0  0  0  0  0  0  0
  144.2397  137.2597  153.1267 C   0  0  0  0  0  0  0  0  0  0  0  0
  144.0084  138.1635  153.9307 O   0  0  0  0  0  0  0  0  0  0  0  0
  143.3689  136.1025  152.9532 C   0  0  0  0  0  0  0  0  0  0  0  0
  142.2579  135.9883  153.7002 F   0  0  0  0  0  0  0  0  0  0  0  0
  143.6580  135.1439  152.0492 C   0  0  0  0  0  0  0  0  0  0  0  0
  144.7804  135.1904  151.2410 N   0  0  0  0  0  0  0  0  0  0  0  0
  145.0837  134.1124  150.2203 C   0  0  1  0  0  0  0  0  0  0  0  0
  145.5548  132.8204  150.9162 C   0  0  0  0  0  0  0  0  0  0  0  0
  144.6362  131.7666  150.3294 C   0  0  0  0  0  0  0  0  0  0  0  0
  143.3870  132.5754  150.0154 C   0  0  0  0  0  0  0  0  0  0  0  0
  143.9227  133.7904  149.5085 O   0  0  0  0  0  0  0  0  0  0  0  0
  145.6660  136.2854  151.3413 C   0  0  0  0  0  0  0  0  0  0  0  0
  146.6559  136.3607  150.6102 O   0  0  0  0  0  0  0  0  0  0  0  0
  148.1817  139.2048  153.8457 N   0  0  0  0  0  0  0  0  0  0  0  0
  148.9821  139.4892  154.9834 C   0  0  0  0  0  0  0  0  0  0  0  0
  148.3149  139.9108  156.1535 C   0  0  0  0  0  0  0  0  0  0  0  0
  149.0397  140.1958  157.3268 C   0  0  0  0  0  0  0  0  0  0  0  0
  150.4395  140.0419  157.3330 C   0  0  0  0  0  0  0  0  0  0  0  0
  151.3755  140.4192  158.8089 S   0  0  0  0  0  0  0  0  0  0  0  0
  150.5419  140.1757  159.9969 O   0  0  0  0  0  0  0  0  0  0  0  0
  152.6895  139.7703  158.6783 O   0  0  0  0  0  0  0  0  0  0  0  0
  151.6219  142.1275  158.6728 N   0  0  0  0  0  0  0  0  0  0  0  0
  152.5667  142.7917  159.5792 C   0  0  0  0  0  0  0  0  0  0  0  0
  151.8466  144.0464  160.0761 C   0  0  0  0  0  0  0  0  0  0  0  0
  150.8888  144.3784  158.9400 C   0  0  0  0  0  0  0  0  0  0  0  0
  150.4700  143.0026  158.4235 C   0  0  0  0  0  0  0  0  0  0  0  0
  151.1167  139.6056  156.1782 C   0  0  0  0  0  0  0  0  0  0  0  0
  150.3889  139.3237  155.0061 C   0  0  0  0  0  0  0  0  0  0  0  0
  145.8120  139.3742  152.1552 H   0  0  0  0  0  0  0  0  0  0  0  0
  147.1137  138.3693  151.6705 H   0  0  0  0  0  0  0  0  0  0  0  0
  142.9688  134.3174  151.9680 H   0  0  0  0  0  0  0  0  0  0  0  0
  145.8187  134.5490  149.5415 H   0  0  0  0  0  0  0  0  0  0  0  0
  146.6093  132.6302  150.7142 H   0  0  0  0  0  0  0  0  0  0  0  0
  145.4080  132.8949  151.9950 H   0  0  0  0  0  0  0  0  0  0  0  0
  145.0628  131.3661  149.4089 H   0  0  0  0  0  0  0  0  0  0  0  0
  144.4477  130.9360  151.0101 H   0  0  0  0  0  0  0  0  0  0  0  0
  142.7385  132.0876  149.2875 H   0  0  0  0  0  0  0  0  0  0  0  0
  142.8092  132.7653  150.9211 H   0  0  0  0  0  0  0  0  0  0  0  0
  148.6090  139.4076  152.9537 H   0  0  0  0  0  0  0  0  0  0  0  0
  147.2406  140.0256  156.1530 H   0  0  0  0  0  0  0  0  0  0  0  0
  148.5187  140.5271  158.2128 H   0  0  0  0  0  0  0  0  0  0  0  0
  152.8519  142.1392  160.4052 H   0  0  0  0  0  0  0  0  0  0  0  0
  153.4671  143.0499  159.0209 H   0  0  0  0  0  0  0  0  0  0  0  0
  151.2811  143.8152  160.9799 H   0  0  0  0  0  0  0  0  0  0  0  0
  152.5309  144.8636  160.3065 H   0  0  0  0  0  0  0  0  0  0  0  0
  150.0421  144.9851  159.2626 H   0  0  0  0  0  0  0  0  0  0  0  0
  151.4171  144.9244  158.1573 H   0  0  0  0  0  0  0  0  0  0  0  0
  150.2102  143.0128  157.3646 H   0  0  0  0  0  0  0  0  0  0  0  0
  149.6082  142.6385  158.9839 H   0  0  0  0  0  0  0  0  0  0  0  0
  152.1899  139.4823  156.1905 H   0  0  0  0  0  0  0  0  0  0  0  0
  150.9278  138.9692  154.1411 H   0  0  0  0  0  0  0  0  0  0  0  0
  1  2  2  0  0  0  0
  2  3  1  0  0  0  0
  2 18  1  0  0  0  0
  3  4  1  0  0  0  0
  3 33  1  0  0  0  0
  3 34  1  0  0  0  0
  4 16  1  0  0  0  0
  4  5  1  0  0  0  0
  5  6  2  0  0  0  0
  5  7  1  0  0  0  0
  7  8  1  0  0  0  0
  7  9  2  0  0  0  0
  9 10  1  0  0  0  0
  9 35  1  0  0  0  0
 10 11  1  0  0  0  0
 10 16  1  0  0  0  0
 11 15  1  0  0  0  0
 11 12  1  0  0  0  0
 11 36  1  0  0  0  0
 12 13  1  0  0  0  0
 12 37  1  0  0  0  0
 12 38  1  0  0  0  0
 13 14  1  0  0  0  0
 13 39  1  0  0  0  0
 13 40  1  0  0  0  0
 14 15  1  0  0  0  0
 14 41  1  0  0  0  0
 14 42  1  0  0  0  0
 16 17  2  0  0  0  0
 18 19  1  0  0  0  0
 18 43  1  0  0  0  0
 19 32  1  0  0  0  0
 19 20  2  0  0  0  0
 20 21  1  0  0  0  0
 20 44  1  0  0  0  0
 21 22  2  0  0  0  0
 21 45  1  0  0  0  0
 22 23  1  0  0  0  0
 22 31  1  0  0  0  0
 23 24  2  0  0  0  0
 23 25  2  0  0  0  0
 23 26  1  0  0  0  0
 26 30  1  0  0  0  0
 26 27  1  0  0  0  0
 27 28  1  0  0  0  0
 27 46  1  0  0  0  0
 27 47  1  0  0  0  0
 28 29  1  0  0  0  0
 28 48  1  0  0  0  0
 28 49  1  0  0  0  0
 29 30  1  0  0  0  0
 29 50  1  0  0  0  0
 29 51  1  0  0  0  0
 30 52  1  0  0  0  0
 30 53  1  0  0  0  0
 31 32  2  0  0  0  0
 31 54  1  0  0  0  0
 32 55  1  0  0  0  0
M  END
> <s_m_source_file>
AV-unprocessed.smi

> <i_m_source_file_index>
131

> <i_lp_mmshare_version>
43012

> <i_f3d_flags>
0

> <s_epik_input>
W0NIMl0xW0NIMl1bQ0gyXVtDSDJdTjFTKD1PKSg9TyljKFtjSF1bY0hdMilbY0hdW2NIXWMyW05IXUMoPU8pW0NIMl1uM2MoPU8pYyhGKVtjSF1uKGMzPU8pW0NAQEhdNFtDSDJdW0NIMl1bQ0gyXU80

> <s_epik_cmdline>
J2VwaWtfcHl0aG9uJywgJy1waCcsICc3LjAnLCAnLXRuJywgJzgnLCAnLW1hJywgJzIwMCcsICctbWV0YWxfYmluZGluZycsICctaW1hZScsICc8aW5maWxlLm1hZT4nLCAnLW9tYWUnLCAnPG91dGZpbGUubWFlPic=

> <r_lp_tautomer_probability>
1

> <r_epik_Ionization_Penalty>
1.92533e-06

> <r_epik_Ionization_Penalty_Charging>
3.88729e-08

> <r_epik_Ionization_Penalty_Neutral>
1.88646e-06

> <r_epik_State_Penalty>
-0

> <r_epik_Charging_Adjusted_Penalty>
3.88729e-08

> <i_epik_Tot_Q>
0

> <i_epik_Tot_abs_Q>
0

> <r_epik_Metal_State_Penalty>
-0

> <b_epik_Metal_Only>
0

> <s_epik_Chemistry_Notes>
This compound contains an acetal/aminal-like group ( X-CH(R)-Y where X, Y are N, S, or O) that may be acid/base labile, releasing an aldehyde.

> <s_lp_Force_Field>
OPLS_2005

> <r_lp_Energy>
42.789

> <b_lp_Chiralities_Consistent>
1

> <s_lp_Variant>
AV-unprocessed.smi:131-2

> <Gold.Version>
5.8.1

> <Gold.Id.Protein>
6NUR|6NUR_protein|mol2

> <Gold.PLP.Fitness>
49.3614

> <Gold.PLP.PLP>
-44.2544

> <Gold.PLP.part.hbond>
-3.8231

> <Gold.PLP.part.metal>
0.0000

> <Gold.PLP.part.buried>
3.3042

> <Gold.PLP.part.nonpolar>
-49.5717

> <Gold.PLP.part.repulsive>
5.2400

> <Gold.PLP.ligand.clash>
0.0000

> <Gold.PLP.ligand.torsion>
2.2851

> <Gold.PLP.Chemscore.Hbond>
2.3432

> <Gold.PLP.Chemscore.CHOScore>
0.0000

> <Gold.PLP.Chemscore.Metal>
0.0000

> <Gold.Chemscore.Hbonds>
donor molecule, donor type, donor heavy atom, donor atom, acceptor molecule, acceptor atom, score
      L1  H    18    43       P1  7957  0.71
      P1  H  7954  7966       L1    17  0.37

> <Gold.PLP.Chemscore.Internal.Correction>
2.6476

> <Gold.Rescore>
     Score         DG    S(hbond)    S(metal)    S(lipo)     H(rot)  DE(clash)    DE(int)     intcor
      9.90     -21.52       2.20        0.00     116.35       1.92       4.40       7.22       ----

> <Gold.Chemscore.Fitness>
9.8965

> <Gold.Chemscore.DG>
-21.5175

> <Gold.Chemscore.ZeroCoef>
-5.4800

> <Gold.Chemscore.Hbond>
2.1950

> <Gold.Chemscore.Metal>
0.0000

> <Gold.Chemscore.Lipo>
116.3472

> <Gold.Chemscore.Internal_Hbond>
0.0000

> <Gold.Chemscore.DEClash>
4.4048

> <Gold.Chemscore.DEInternal>
7.2162

> <Gold.Chemscore.Rot>
1.9166

> <Gold.Chemscore.Internal.Correction>
   9.000000E+99

> <Gold.Chemscore.Hbonds>
donor molecule, donor type, donor heavy atom, donor atom, acceptor molecule, acceptor atom, score
      L1  H    18    43       P1  7957  0.71
      P1  H  7954  7966       L1    17  0.37
      P1  H  7997  8009       L1    25  0.01

> <Gold.Chemscore.Hbond.Weighted>
-7.3313

> <Gold.Chemscore.Metal.Weighted>
-0.0000

> <Gold.Chemscore.Lipo.Weighted>
-13.6126

> <Gold.Chemscore.Internal_Hbond.Weighted>
0.0000

> <Gold.Chemscore.DEClash.Weighted>
4.4048

> <Gold.Chemscore.DEInternal.Weighted>
7.2162

> <Gold.Chemscore.Rot.Weighted>
4.9064

> <Gold.Chemscore.Internal.Correction.Weighted>
   9.000000E+99

> <Gold.Protein.RotatedTorsions>
[ 6907 6896 6895 6894 ] final  -81.43 input  -60.11 | X-H torsion
[ 7974 7965 7964 7962 ] final  149.15 input  175.53 | X-H torsion
[ 8008 7997 7996 7995 ] final  159.04 input   59.86 | X-H torsion
[ 10167 10162 10161 10158 ] final -111.64 input  -65.29 | X-H torsion
[ 10718 10713 10712 10709 ] final -102.01 input   66.30 | X-H torsion
[ 10763 10752 10751 10750 ] final  -92.30 input  -60.55 | X-H torsion
[ 11005 11000 10999 10996 ] final  105.20 input  -57.11 | X-H torsion

> <Gold.Protein.ActiveResidues>
 VAL166  LYS551  ARG553  GLY616  TRP617  ASP618  TYR619  PRO620  LYS621  CYS622 
 ASP623  PHE694  ASN695  SER759  ASP760  ASP761  ALA762  ILE779  LEU786  VAL792 
 PHE793  MET794  SER795  GLU796  ALA797  LYS798  CYS799  TRP800  GLU811  SER814 

> <Gold.Protein.RotatedAtoms>
  150.6912  134.3819  159.5037 H   0  0  0  0  0  0  0  0  0  0  0  0  # atno 6907 bound_to 6896
  152.1620  134.8902  160.0550 H   0  0  0  0  0  0  0  0  0  0  0  0  # atno 6908 bound_to 6896
  151.9960  133.3773  159.4200 H   0  0  0  0  0  0  0  0  0  0  0  0  # atno 6909 bound_to 6896
  144.8460  139.6243  143.5995 H   0  0  0  0  0  0  0  0  0  0  0  0  # atno 7974 bound_to 7965
  156.2264  140.1842  156.7352 H   0  0  0  0  0  0  0  0  0  0  0  0  # atno 8008 bound_to 7997
  154.5949  140.0645  156.9317 H   0  0  0  0  0  0  0  0  0  0  0  0  # atno 8009 bound_to 7997
  155.2273  140.3312  155.4310 H   0  0  0  0  0  0  0  0  0  0  0  0  # atno 8010 bound_to 7997
  140.1314  143.4357  152.1624 H   0  0  0  0  0  0  0  0  0  0  0  0  # atno 10167 bound_to 10162
  156.0214  130.5400  150.7046 H   0  0  0  0  0  0  0  0  0  0  0  0  # atno 10718 bound_to 10713
  154.6847  135.5236  153.8310 H   0  0  0  0  0  0  0  0  0  0  0  0  # atno 10763 bound_to 10752
  153.0589  135.6561  154.0520 H   0  0  0  0  0  0  0  0  0  0  0  0  # atno 10764 bound_to 10752
  154.0402  135.2978  155.3336 H   0  0  0  0  0  0  0  0  0  0  0  0  # atno 10765 bound_to 10752
  139.8799  134.9327  156.5478 H   0  0  0  0  0  0  0  0  0  0  0  0  # atno 11005 bound_to 11000
  146.2744  139.6716  142.9273 LP  0  0  0  0  0  0  0  0  0  0  0  0  # atno 17320 bound_to 7965
  145.4596  141.0432  143.2759 LP  0  0  0  0  0  0  0  0  0  0  0  0  # atno 17321 bound_to 7965
  139.5517  144.7343  151.4414 LP  0  0  0  0  0  0  0  0  0  0  0  0  # atno 17342 bound_to 10162
  140.6814  143.8072  150.7127 LP  0  0  0  0  0  0  0  0  0  0  0  0  # atno 17343 bound_to 10162
  157.4698  131.0892  151.0655 LP  0  0  0  0  0  0  0  0  0  0  0  0  # atno 17370 bound_to 10713
  157.1118  130.6025  149.5484 LP  0  0  0  0  0  0  0  0  0  0  0  0  # atno 17371 bound_to 10713
  140.8263  133.8314  155.8942 LP  0  0  0  0  0  0  0  0  0  0  0  0  # atno 17394 bound_to 11000
  140.9371  134.1948  157.4824 LP  0  0  0  0  0  0  0  0  0  0  0  0  # atno 17395 bound_to 11000

$$$$
