AV-unprocessed.smi:2822|AV-procd|sdf|10874|dock1
  -GOLD-   2272015313D 1   1.00000     0.00000
 Structure written by MMmdl.
 40 42  0  0  0  0  0  0  0  0  2 V2000
  146.6458  142.2115  153.8071 Cl  0  0  0  0  0  0  0  0  0  0  0  0
  147.8392  140.9776  154.0162 C   0  0  0  0  0  0  0  0  0  0  0  0
  149.0984  141.3073  154.5583 C   0  0  0  0  0  0  0  0  0  0  0  0
  150.0843  140.4059  154.7501 N   0  0  0  0  0  0  0  0  0  0  0  0
  149.8409  139.1250  154.4035 C   0  0  0  0  0  0  0  0  0  0  0  0
  148.6185  138.6882  153.8546 C   0  0  0  0  0  0  0  0  0  0  0  0
  147.5868  139.6350  153.6518 C   0  0  0  0  0  0  0  0  0  0  0  0
  146.3405  139.2885  153.1087 N   0  0  0  0  0  0  0  0  0  0  0  0
  146.1510  138.0294  152.4058 C   0  0  0  0  0  0  0  0  0  0  0  0
  145.3399  137.0294  153.2535 C   0  0  2  0  0  0  0  0  0  0  0  0
  146.2076  136.2308  154.2442 C   0  0  0  0  0  0  0  0  0  0  0  0
  147.0498  135.2330  153.5436 N   0  3  1  0  0  0  0  0  0  0  0  0
  147.9203  134.4793  154.4816 C   0  0  0  0  0  0  0  0  0  0  0  0
  148.8455  133.5117  153.7273 C   0  0  0  0  0  0  0  0  0  0  0  0
  148.0322  132.5565  152.8457 C   0  0  0  0  0  0  0  0  0  0  0  0
  147.1255  133.3581  151.9026 C   0  0  0  0  0  0  0  0  0  0  0  0
  146.2274  134.3393  152.6834 C   0  0  2  0  0  0  0  0  0  0  0  0
  145.3628  135.1794  151.7244 C   0  0  0  0  0  0  0  0  0  0  0  0
  144.5825  136.1217  152.4527 O   0  0  0  0  0  0  0  0  0  0  0  0
  149.3211  142.3245  154.8448 H   0  0  0  0  0  0  0  0  0  0  0  0
  150.6457  138.4239  154.5690 H   0  0  0  0  0  0  0  0  0  0  0  0
  148.4950  137.6453  153.6051 H   0  0  0  0  0  0  0  0  0  0  0  0
  145.6255  139.9986  153.0308 H   0  0  0  0  0  0  0  0  0  0  0  0
  145.6726  138.2068  151.4429 H   0  0  0  0  0  0  0  0  0  0  0  0
  147.1340  137.6074  152.1932 H   0  0  0  0  0  0  0  0  0  0  0  0
  144.6208  137.6050  153.8379 H   0  0  0  0  0  0  0  0  0  0  0  0
  146.8366  136.9083  154.8231 H   0  0  0  0  0  0  0  0  0  0  0  0
  145.5625  135.7139  154.9568 H   0  0  0  0  0  0  0  0  0  0  0  0
  148.5215  135.1791  155.0632 H   0  0  0  0  0  0  0  0  0  0  0  0
  147.3015  133.9273  155.1911 H   0  0  0  0  0  0  0  0  0  0  0  0
  149.5455  134.0767  153.1103 H   0  0  0  0  0  0  0  0  0  0  0  0
  149.4470  132.9425  154.4366 H   0  0  0  0  0  0  0  0  0  0  0  0
  148.6995  131.9132  152.2712 H   0  0  0  0  0  0  0  0  0  0  0  0
  147.4263  131.9001  153.4717 H   0  0  0  0  0  0  0  0  0  0  0  0
  147.7428  133.9075  151.1901 H   0  0  0  0  0  0  0  0  0  0  0  0
  146.5115  132.6745  151.3148 H   0  0  0  0  0  0  0  0  0  0  0  0
  145.5631  133.7647  153.3318 H   0  0  0  0  0  0  0  0  0  0  0  0
  145.9765  135.6839  150.9777 H   0  0  0  0  0  0  0  0  0  0  0  0
  144.6835  134.5300  151.1716 H   0  0  0  0  0  0  0  0  0  0  0  0
  147.6620  135.7479  152.9268 H   0  0  0  0  0  0  0  0  0  0  0  0
  1  2  1  0  0  0  0
  2  7  1  0  0  0  0
  2  3  2  0  0  0  0
  3  4  1  0  0  0  0
  3 20  1  0  0  0  0
  4  5  2  0  0  0  0
  5  6  1  0  0  0  0
  5 21  1  0  0  0  0
  6  7  2  0  0  0  0
  6 22  1  0  0  0  0
  7  8  1  0  0  0  0
  8  9  1  0  0  0  0
  8 23  1  0  0  0  0
  9 10  1  0  0  0  0
  9 24  1  0  0  0  0
  9 25  1  0  0  0  0
 10 19  1  0  0  0  0
 10 11  1  0  0  0  0
 10 26  1  0  0  0  0
 11 12  1  0  0  0  0
 11 27  1  0  0  0  0
 11 28  1  0  0  0  0
 12 17  1  0  0  0  0
 12 13  1  0  0  0  0
 12 40  1  0  0  0  0
 13 14  1  0  0  0  0
 13 29  1  0  0  0  0
 13 30  1  0  0  0  0
 14 15  1  0  0  0  0
 14 31  1  0  0  0  0
 14 32  1  0  0  0  0
 15 16  1  0  0  0  0
 15 33  1  0  0  0  0
 15 34  1  0  0  0  0
 16 17  1  0  0  0  0
 16 35  1  0  0  0  0
 16 36  1  0  0  0  0
 17 18  1  0  0  0  0
 17 37  1  0  0  0  0
 18 19  1  0  0  0  0
 18 38  1  0  0  0  0
 18 39  1  0  0  0  0
M  CHG  1  12   1
M  END
> <s_m_source_file>
AV-unprocessed.smi

> <i_m_source_file_index>
2822

> <i_lp_mmshare_version>
43012

> <i_f3d_flags>
0

> <s_epik_input>
Q2xjMVtjSF1uW2NIXVtjSF1jMVtOSF1bQ0gyXVtDQEhdKFtDSDJdMilPW0NIMl1bQ0BASF0oTjIzKVtDSDJdW0NIMl1bQ0gyXVtDSDJdMw==

> <s_epik_cmdline>
J2VwaWtfcHl0aG9uJywgJy1waCcsICc3LjAnLCAnLXRuJywgJzgnLCAnLW1hJywgJzIwMCcsICctbWV0YWxfYmluZGluZycsICctaW1hZScsICc8aW5maWxlLm1hZT4nLCAnLW9tYWUnLCAnPG91dGZpbGUubWFlPic=

> <r_lp_tautomer_probability>
0.999999

> <r_epik_Ionization_Penalty>
0.88937

> <r_epik_Ionization_Penalty_Charging>
0.0803403

> <r_epik_Ionization_Penalty_Neutral>
0.80903

> <r_epik_State_Penalty>
0.931884

> <r_epik_Charging_Adjusted_Penalty>
1.01222

> <i_epik_Tot_Q>
1

> <i_epik_Tot_abs_Q>
1

> <r_epik_Metal_State_Penalty>
0.0782275

> <b_epik_Metal_Only>
0

> <s_lp_Force_Field>
OPLS_2005

> <r_lp_Energy>
31.959

> <b_lp_Chiralities_Consistent>
1

> <s_lp_Variant>
AV-unprocessed.smi:2822-15

> <Gold.Version>
5.8.1

> <Gold.Id.Protein>
6NUR|6NUR_protein|mol2

> <Gold.PLP.Fitness>
47.3747

> <Gold.PLP.PLP>
-33.5571

> <Gold.PLP.part.hbond>
-3.0000

> <Gold.PLP.part.metal>
0.0000

> <Gold.PLP.part.buried>
-2.1838

> <Gold.PLP.part.nonpolar>
-29.0149

> <Gold.PLP.part.repulsive>
0.2294

> <Gold.PLP.ligand.clash>
0.0000

> <Gold.PLP.ligand.torsion>
0.4506

> <Gold.PLP.Chemscore.Hbond>
3.9040

> <Gold.PLP.Chemscore.CHOScore>
1.0000

> <Gold.PLP.Chemscore.Metal>
0.0000

> <Gold.Chemscore.Hbonds>
donor molecule, donor type, donor heavy atom, donor atom, acceptor molecule, acceptor atom, score
      L1  H     8    23       P1 10175  0.86
      L1  H    12    40       P1  7948  2.00
      P1  H  7989  7998       L1     4  0.95
      L1  C     3    20       P1  8028  0.93

> <Gold.PLP.Chemscore.Internal.Correction>
0.0068

> <Gold.Rescore>
     Score         DG    S(hbond)    S(metal)    S(lipo)     H(rot)  DE(clash)    DE(int)     intcor
     18.98     -19.84       2.26        0.00      83.79       1.17       0.39       0.47       ----

> <Gold.Chemscore.Fitness>
18.9822

> <Gold.Chemscore.DG>
-19.8398

> <Gold.Chemscore.ZeroCoef>
-5.4800

> <Gold.Chemscore.Hbond>
2.2605

> <Gold.Chemscore.Metal>
0.0000

> <Gold.Chemscore.Lipo>
83.7875

> <Gold.Chemscore.Internal_Hbond>
0.0000

> <Gold.Chemscore.DEClash>
0.3889

> <Gold.Chemscore.DEInternal>
0.4687

> <Gold.Chemscore.Rot>
1.1693

> <Gold.Chemscore.Internal.Correction>
   9.000000E+99

> <Gold.Chemscore.Hbonds>
donor molecule, donor type, donor heavy atom, donor atom, acceptor molecule, acceptor atom, score
      L1  H     8    23       P1 10175  0.79
      L1  H    12    40       P1  7948  1.00
      P1  H  7989  7998       L1     4  0.19

> <Gold.Chemscore.Hbond.Weighted>
-7.5501

> <Gold.Chemscore.Metal.Weighted>
-0.0000

> <Gold.Chemscore.Lipo.Weighted>
-9.8031

> <Gold.Chemscore.Internal_Hbond.Weighted>
0.0000

> <Gold.Chemscore.DEClash.Weighted>
0.3889

> <Gold.Chemscore.DEInternal.Weighted>
0.4687

> <Gold.Chemscore.Rot.Weighted>
2.9934

> <Gold.Chemscore.Internal.Correction.Weighted>
   9.000000E+99

> <Gold.Protein.RotatedTorsions>
[ 6907 6896 6895 6894 ] final  150.45 input  -60.11 | X-H torsion
[ 7974 7965 7964 7962 ] final   27.94 input  175.53 | X-H torsion
[ 8008 7997 7996 7995 ] final -143.46 input   59.86 | X-H torsion
[ 10167 10162 10161 10158 ] final -172.59 input  -65.29 | X-H torsion
[ 10718 10713 10712 10709 ] final   -2.80 input   66.30 | X-H torsion
[ 10763 10752 10751 10750 ] final   68.19 input  -60.55 | X-H torsion
[ 11005 11000 10999 10996 ] final  -81.31 input  -57.11 | X-H torsion

> <Gold.Protein.ActiveResidues>
 VAL166  LYS551  ARG553  GLY616  TRP617  ASP618  TYR619  PRO620  LYS621  CYS622 
 ASP623  PHE694  ASN695  SER759  ASP760  ASP761  ALA762  ILE779  LEU786  VAL792 
 PHE793  MET794  SER795  GLU796  ALA797  LYS798  CYS799  TRP800  GLU811  SER814 

> <Gold.Protein.RotatedAtoms>
  152.1142  133.4317  159.4644 H   0  0  0  0  0  0  0  0  0  0  0  0  # atno 6907 bound_to 6896
  150.6868  134.2612  159.4559 H   0  0  0  0  0  0  0  0  0  0  0  0  # atno 6908 bound_to 6896
  152.0483  134.9668  160.0625 H   0  0  0  0  0  0  0  0  0  0  0  0  # atno 6909 bound_to 6896
  146.1757  139.7124  142.8936 H   0  0  0  0  0  0  0  0  0  0  0  0  # atno 7974 bound_to 7965
  155.5110  140.0583  157.2923 H   0  0  0  0  0  0  0  0  0  0  0  0  # atno 8008 bound_to 7997
  154.4552  140.1969  156.0350 H   0  0  0  0  0  0  0  0  0  0  0  0  # atno 8009 bound_to 7997
  156.0784  140.3250  155.7667 H   0  0  0  0  0  0  0  0  0  0  0  0  # atno 8010 bound_to 7997
  139.5736  144.1584  152.1419 H   0  0  0  0  0  0  0  0  0  0  0  0  # atno 10167 bound_to 10162
  156.7855  130.5344  149.5744 H   0  0  0  0  0  0  0  0  0  0  0  0  # atno 10718 bound_to 10713
  153.0223  135.5256  154.7097 H   0  0  0  0  0  0  0  0  0  0  0  0  # atno 10763 bound_to 10752
  154.6182  135.2886  155.0358 H   0  0  0  0  0  0  0  0  0  0  0  0  # atno 10764 bound_to 10752
  154.1354  135.6586  153.4983 H   0  0  0  0  0  0  0  0  0  0  0  0  # atno 10765 bound_to 10752
  141.1667  133.7190  156.8403 H   0  0  0  0  0  0  0  0  0  0  0  0  # atno 11005 bound_to 11000
  145.4219  141.0407  143.2959 LP  0  0  0  0  0  0  0  0  0  0  0  0  # atno 17320 bound_to 7965
  144.8232  139.5755  143.6977 LP  0  0  0  0  0  0  0  0  0  0  0  0  # atno 17321 bound_to 7965
  140.1122  144.5447  150.6917 LP  0  0  0  0  0  0  0  0  0  0  0  0  # atno 17342 bound_to 10162
  140.7020  143.2441  151.4838 LP  0  0  0  0  0  0  0  0  0  0  0  0  # atno 17343 bound_to 10162
  156.1191  130.6097  151.0166 LP  0  0  0  0  0  0  0  0  0  0  0  0  # atno 17370 bound_to 10713
  157.6626  131.0878  150.7804 LP  0  0  0  0  0  0  0  0  0  0  0  0  # atno 17371 bound_to 10713
  140.1988  134.8912  157.3145 LP  0  0  0  0  0  0  0  0  0  0  0  0  # atno 17394 bound_to 11000
  140.2210  134.4024  155.7566 LP  0  0  0  0  0  0  0  0  0  0  0  0  # atno 17395 bound_to 11000

$$$$
