AV-unprocessed.smi:255|AV-procd|sdf|1953|dock9
  -GOLD-   2262021 93D 1   1.00000     0.00000
 Structure written by MMmdl.
 44 47  0  0  0  0  0  0  0  0  1 V2000
  143.5483  133.5450  149.6484 O   0  0  0  0  0  0  0  0  0  0  0  0
  143.7923  134.0130  150.9581 C   0  0  0  0  0  0  0  0  0  0  0  0
  145.1782  133.5509  151.4469 C   0  0  2  0  0  0  0  0  0  0  0  0
  145.3476  132.0317  151.4250 C   0  0  0  0  0  0  0  0  0  0  0  0
  146.5393  131.8413  152.3560 C   0  0  2  0  0  0  0  0  0  0  0  0
  146.5911  130.6155  152.8765 F   0  0  0  0  0  0  0  0  0  0  0  0
  146.3454  132.9261  153.4199 C   0  0  0  0  0  0  0  0  0  0  0  0
  145.4367  133.9123  152.8391 N   0  0  0  0  0  0  0  0  0  0  0  0
  145.7749  135.2043  153.0434 C   0  0  0  0  0  0  0  0  0  0  0  0
  145.1888  136.1887  152.3121 N   0  0  0  0  0  0  0  0  0  0  0  0
  145.5158  137.4657  152.5325 C   0  0  0  0  0  0  0  0  0  0  0  0
  146.3844  137.9652  153.4152 N   0  0  0  0  0  0  0  0  0  0  0  0
  146.9723  136.9762  154.1485 C   0  0  0  0  0  0  0  0  0  0  0  0
  146.7227  135.5810  154.0294 C   0  0  0  0  0  0  0  0  0  0  0  0
  147.4910  134.8765  154.9463 N   0  0  0  0  0  0  0  0  0  0  0  0
  148.1639  135.8045  155.5708 C   0  0  0  0  0  0  0  0  0  0  0  0
  147.9222  137.0935  155.1487 N   0  0  0  0  0  0  0  0  0  0  0  0
  148.5319  138.3088  155.6679 C   0  0  0  0  0  0  0  0  0  0  0  0
  149.4917  138.9991  154.6681 C   0  0  2  0  0  0  0  0  0  0  0  0
  148.7870  139.2669  153.4690 O   0  0  0  0  0  0  0  0  0  0  0  0
  150.7141  138.1375  154.3440 C   0  0  0  0  0  0  0  0  0  0  0  0
  151.8521  138.8466  155.0678 C   0  0  0  0  0  0  0  0  0  0  0  0
  151.4977  140.2112  154.9334 O   0  0  0  0  0  0  0  0  0  0  0  0
  150.1066  140.3092  155.2021 C   0  0  0  0  0  0  0  0  0  0  0  0
  145.9514  133.9770  150.8042 H   0  0  0  0  0  0  0  0  0  0  0  0
  147.4701  132.0101  151.8130 H   0  0  0  0  0  0  0  0  0  0  0  0
  142.6287  133.6505  149.4583 H   0  0  0  0  0  0  0  0  0  0  0  0
  143.6894  135.0978  151.0026 H   0  0  0  0  0  0  0  0  0  0  0  0
  143.0140  133.5917  151.5949 H   0  0  0  0  0  0  0  0  0  0  0  0
  144.4637  131.5438  151.8396 H   0  0  0  0  0  0  0  0  0  0  0  0
  145.5206  131.6346  150.4242 H   0  0  0  0  0  0  0  0  0  0  0  0
  145.8587  132.5081  154.3017 H   0  0  0  0  0  0  0  0  0  0  0  0
  147.3003  133.3444  153.7415 H   0  0  0  0  0  0  0  0  0  0  0  0
  145.0085  138.1914  151.9140 H   0  0  0  0  0  0  0  0  0  0  0  0
  148.8647  135.5728  156.3598 H   0  0  0  0  0  0  0  0  0  0  0  0
  147.7349  138.9963  155.9544 H   0  0  0  0  0  0  0  0  0  0  0  0
  149.0611  138.0575  156.5882 H   0  0  0  0  0  0  0  0  0  0  0  0
  149.4064  139.5613  152.8187 H   0  0  0  0  0  0  0  0  0  0  0  0
  150.6087  137.0966  154.6525 H   0  0  0  0  0  0  0  0  0  0  0  0
  150.9229  138.1406  153.2726 H   0  0  0  0  0  0  0  0  0  0  0  0
  151.8785  138.5725  156.1238 H   0  0  0  0  0  0  0  0  0  0  0  0
  152.8280  138.6371  154.6295 H   0  0  0  0  0  0  0  0  0  0  0  0
  149.6772  141.2078  154.7575 H   0  0  0  0  0  0  0  0  0  0  0  0
  149.9892  140.3893  156.2827 H   0  0  0  0  0  0  0  0  0  0  0  0
  1  2  1  0  0  0  0
  1 27  1  0  0  0  0
  2  3  1  0  0  0  0
  2 28  1  0  0  0  0
  2 29  1  0  0  0  0
  3 25  1  0  0  0  0
  3  8  1  0  0  0  0
  3  4  1  0  0  0  0
  4  5  1  0  0  0  0
  4 30  1  0  0  0  0
  4 31  1  0  0  0  0
  5 26  1  0  0  0  0
  5  6  1  0  0  0  0
  5  7  1  0  0  0  0
  7  8  1  0  0  0  0
  7 32  1  0  0  0  0
  7 33  1  0  0  0  0
  8  9  1  0  0  0  0
  9 14  1  0  0  0  0
  9 10  2  0  0  0  0
 10 11  1  0  0  0  0
 11 12  2  0  0  0  0
 11 34  1  0  0  0  0
 12 13  1  0  0  0  0
 13 17  1  0  0  0  0
 13 14  2  0  0  0  0
 14 15  1  0  0  0  0
 15 16  2  0  0  0  0
 16 17  1  0  0  0  0
 16 35  1  0  0  0  0
 17 18  1  0  0  0  0
 18 19  1  0  0  0  0
 18 36  1  0  0  0  0
 18 37  1  0  0  0  0
 19 24  1  0  0  0  0
 19 20  1  0  0  0  0
 19 21  1  0  0  0  0
 20 38  1  0  0  0  0
 21 22  1  0  0  0  0
 21 39  1  0  0  0  0
 21 40  1  0  0  0  0
 22 23  1  0  0  0  0
 22 41  1  0  0  0  0
 22 42  1  0  0  0  0
 23 24  1  0  0  0  0
 24 43  1  0  0  0  0
 24 44  1  0  0  0  0
M  END
> <s_m_source_file>
AV-unprocessed.smi

> <i_m_source_file_index>
255

> <i_lp_mmshare_version>
43012

> <i_f3d_flags>
0

> <s_epik_input>
W09IXVtDSDJdW0NAQEhdMVtDSDJdW0NASF0oRilbQ0gyXU4xYyhuW2NIXW4yKWMoYzIzKW5bY0hdbjNbQ0gyXVtDQEBdNChbT0hdKVtDSDJdW0NIMl1PW0NIMl00

> <s_epik_cmdline>
J2VwaWtfcHl0aG9uJywgJy1waCcsICc3LjAnLCAnLXRuJywgJzgnLCAnLW1hJywgJzIwMCcsICctbWV0YWxfYmluZGluZycsICctaW1hZScsICc8aW5maWxlLm1hZT4nLCAnLW9tYWUnLCAnPG91dGZpbGUubWFlPic=

> <r_lp_tautomer_probability>
1

> <r_epik_Ionization_Penalty>
0.0058098

> <r_epik_Ionization_Penalty_Charging>
0

> <r_epik_Ionization_Penalty_Neutral>
0.0058098

> <r_epik_State_Penalty>
0.00411166

> <r_epik_Charging_Adjusted_Penalty>
0.00411166

> <i_epik_Tot_Q>
0

> <i_epik_Tot_abs_Q>
0

> <r_epik_Metal_State_Penalty>
-0

> <b_epik_Metal_Only>
0

> <s_lp_Force_Field>
OPLS_2005

> <r_lp_Energy>
52.96

> <b_lp_Chiralities_Consistent>
1

> <s_lp_Variant>
AV-unprocessed.smi:255-5

> <Gold.Version>
5.8.1

> <Gold.Id.Protein>
6NUR|6NUR_protein|mol2

> <Gold.PLP.Fitness>
40.7133

> <Gold.PLP.PLP>
-28.4938

> <Gold.PLP.part.hbond>
-2.8215

> <Gold.PLP.part.metal>
0.0000

> <Gold.PLP.part.buried>
-3.3672

> <Gold.PLP.part.nonpolar>
-22.9775

> <Gold.PLP.part.repulsive>
0.5693

> <Gold.PLP.ligand.clash>
0.7672

> <Gold.PLP.ligand.torsion>
0.6230

> <Gold.PLP.Chemscore.Hbond>
2.9600

> <Gold.PLP.Chemscore.CHOScore>
1.7546

> <Gold.PLP.Chemscore.Metal>
0.0000

> <Gold.Chemscore.Hbonds>
donor molecule, donor type, donor heavy atom, donor atom, acceptor molecule, acceptor atom, score
      L1  H     1    27       P1 10186  1.00
      L1  H    20    38       P1  7957  0.90
      P1  H  7989  7998       L1    23  1.00
      L1  C    11    34       P1 10171  1.00
      L1  C    11    34       P1 10175  0.64

> <Gold.PLP.Chemscore.Internal.Correction>
0.0890

> <Gold.Rescore>
     Score         DG    S(hbond)    S(metal)    S(lipo)     H(rot)  DE(clash)    DE(int)     intcor
      9.13     -12.54       2.57        0.00      59.89       3.33       0.23       3.18       ----

> <Gold.Chemscore.Fitness>
9.1280

> <Gold.Chemscore.DG>
-12.5363

> <Gold.Chemscore.ZeroCoef>
-5.4800

> <Gold.Chemscore.Hbond>
2.5651

> <Gold.Chemscore.Metal>
0.0000

> <Gold.Chemscore.Lipo>
59.8862

> <Gold.Chemscore.Internal_Hbond>
0.0000

> <Gold.Chemscore.DEClash>
0.2261

> <Gold.Chemscore.DEInternal>
3.1822

> <Gold.Chemscore.Rot>
3.3273

> <Gold.Chemscore.Internal.Correction>
   9.000000E+99

> <Gold.Chemscore.Hbonds>
donor molecule, donor type, donor heavy atom, donor atom, acceptor molecule, acceptor atom, score
      L1  H     1    27       P1 10186  0.99
      L1  H    20    38       P1  7957  0.88
      P1  H  7989  7998       L1    23  0.40

> <Gold.Chemscore.Hbond.Weighted>
-8.5675

> <Gold.Chemscore.Metal.Weighted>
-0.0000

> <Gold.Chemscore.Lipo.Weighted>
-7.0067

> <Gold.Chemscore.Internal_Hbond.Weighted>
0.0000

> <Gold.Chemscore.DEClash.Weighted>
0.2261

> <Gold.Chemscore.DEInternal.Weighted>
3.1822

> <Gold.Chemscore.Rot.Weighted>
8.5179

> <Gold.Chemscore.Internal.Correction.Weighted>
   9.000000E+99

> <Gold.Protein.RotatedTorsions>
[ 6907 6896 6895 6894 ] final   35.39 input  -60.11 | X-H torsion
[ 7974 7965 7964 7962 ] final  105.67 input  175.53 | X-H torsion
[ 8008 7997 7996 7995 ] final  140.04 input   59.86 | X-H torsion
[ 10167 10162 10161 10158 ] final  119.86 input  -65.29 | X-H torsion
[ 10718 10713 10712 10709 ] final   63.34 input   66.30 | X-H torsion
[ 10763 10752 10751 10750 ] final  -60.44 input  -60.55 | X-H torsion
[ 11005 11000 10999 10996 ] final  119.46 input  -57.11 | X-H torsion

> <Gold.Protein.ActiveResidues>
 VAL166  LYS551  ARG553  GLY616  TRP617  ASP618  TYR619  PRO620  LYS621  CYS622 
 ASP623  PHE694  ASN695  SER759  ASP760  ASP761  ALA762  ILE779  LEU786  VAL792 
 PHE793  MET794  SER795  GLU796  ALA797  LYS798  CYS799  TRP800  GLU811  SER814 

> <Gold.Protein.RotatedAtoms>
  152.1155  134.9243  160.0564 H   0  0  0  0  0  0  0  0  0  0  0  0  # atno 6907 bound_to 6896
  152.0404  133.3970  159.4343 H   0  0  0  0  0  0  0  0  0  0  0  0  # atno 6908 bound_to 6896
  150.6846  134.3342  159.4883 H   0  0  0  0  0  0  0  0  0  0  0  0  # atno 6909 bound_to 6896
  145.3167  139.2524  143.3734 H   0  0  0  0  0  0  0  0  0  0  0  0  # atno 7974 bound_to 7965
  156.2983  140.2352  156.4336 H   0  0  0  0  0  0  0  0  0  0  0  0  # atno 8008 bound_to 7997
  154.8248  140.0436  157.1456 H   0  0  0  0  0  0  0  0  0  0  0  0  # atno 8009 bound_to 7997
  154.9274  140.3012  155.5189 H   0  0  0  0  0  0  0  0  0  0  0  0  # atno 8010 bound_to 7997
  139.6019  144.7059  151.3043 H   0  0  0  0  0  0  0  0  0  0  0  0  # atno 10167 bound_to 10162
  157.5964  130.9100  149.9704 H   0  0  0  0  0  0  0  0  0  0  0  0  # atno 10718 bound_to 10713
  154.2692  135.6293  153.5304 H   0  0  0  0  0  0  0  0  0  0  0  0  # atno 10763 bound_to 10752
  152.9883  135.5606  154.5619 H   0  0  0  0  0  0  0  0  0  0  0  0  # atno 10764 bound_to 10752
  154.5185  135.2881  155.1258 H   0  0  0  0  0  0  0  0  0  0  0  0  # atno 10765 bound_to 10752
  139.9147  134.9628  156.7659 H   0  0  0  0  0  0  0  0  0  0  0  0  # atno 11005 bound_to 11000
  146.3098  140.3715  142.8674 LP  0  0  0  0  0  0  0  0  0  0  0  0  # atno 17320 bound_to 7965
  144.8972  140.7598  143.5889 LP  0  0  0  0  0  0  0  0  0  0  0  0  # atno 17321 bound_to 7965
  140.7256  143.7013  150.7842 LP  0  0  0  0  0  0  0  0  0  0  0  0  # atno 17342 bound_to 10162
  140.0591  143.5172  152.2636 LP  0  0  0  0  0  0  0  0  0  0  0  0  # atno 17343 bound_to 10162
  156.1028  130.3654  150.0187 LP  0  0  0  0  0  0  0  0  0  0  0  0  # atno 17370 bound_to 10713
  156.8299  130.9389  151.3637 LP  0  0  0  0  0  0  0  0  0  0  0  0  # atno 17371 bound_to 10713
  140.6660  133.9602  155.7830 LP  0  0  0  0  0  0  0  0  0  0  0  0  # atno 17394 bound_to 11000
  141.0610  134.0346  157.3658 LP  0  0  0  0  0  0  0  0  0  0  0  0  # atno 17395 bound_to 11000

$$$$
