AV-unprocessed.smi:148|AV-procd|sdf|1202|dock4
  -GOLD-   2262018363D 1   1.00000     0.00000
 Structure written by MMmdl.
 63 67  0  0  0  0  0  0  0  0  1 V2000
  148.6111  135.8235  156.8037 O   0  0  0  0  0  0  0  0  0  0  0  0
  149.3413  136.5621  155.8467 C   0  0  0  0  0  0  0  0  0  0  0  0
  149.7351  137.9545  156.3940 C   0  0  2  0  0  0  0  0  0  0  0  0
  148.4916  138.7575  156.8567 C   0  0  0  0  0  0  0  0  0  0  0  0
  147.2647  138.2919  156.2346 N   0  0  0  0  0  0  0  0  0  0  0  0
  146.1630  137.7765  156.8785 C   0  0  0  0  0  0  0  0  0  0  0  0
  145.1806  137.4174  156.0980 N   0  0  0  0  0  0  0  0  0  0  0  0
  145.6402  137.7094  154.8192 C   0  0  0  0  0  0  0  0  0  0  0  0
  145.1009  137.5647  153.5095 C   0  0  0  0  0  0  0  0  0  0  0  0
  143.8878  137.0373  153.2276 N   0  0  0  0  0  0  0  0  0  0  0  0
  142.8423  137.8026  153.9061 C   0  0  0  0  0  0  0  0  0  0  0  0
  141.4456  137.3931  153.4226 C   0  0  0  0  0  0  0  0  0  0  0  0
  141.2476  135.8840  153.5933 C   0  0  0  0  0  0  0  0  0  0  0  0
  142.3575  135.1232  152.8556 C   0  0  0  0  0  0  0  0  0  0  0  0
  143.7692  135.5698  153.3191 C   0  0  1  0  0  0  0  0  0  0  0  0
  144.9276  134.8198  152.5880 C   0  0  2  0  0  0  0  0  0  0  0  0
  145.1126  135.1451  151.0926 C   0  0  0  0  0  0  0  0  0  0  0  0
  145.6758  133.8729  150.4379 C   0  0  0  0  0  0  0  0  0  0  0  0
  145.8884  132.8653  151.5717 C   0  0  0  0  0  0  0  0  0  0  0  0
  144.8822  133.2855  152.6420 C   0  0  1  0  0  0  0  0  0  0  0  0
  145.2412  132.7854  153.9134 O   0  0  0  0  0  0  0  0  0  0  0  0
  145.8509  137.9858  152.4616 N   0  0  0  0  0  0  0  0  0  0  0  0
  147.0663  138.4991  152.6743 C   0  0  0  0  0  0  0  0  0  0  0  0
  147.7054  138.6810  153.8323 N   0  0  0  0  0  0  0  0  0  0  0  0
  146.9455  138.2708  154.8883 C   0  0  0  0  0  0  0  0  0  0  0  0
  150.6370  138.7346  155.3978 C   0  0  2  0  0  0  0  0  0  0  0  0
  151.4831  137.8727  154.4581 C   0  0  0  0  0  0  0  0  0  0  0  0
  152.8977  138.4295  154.6118 C   0  0  0  0  0  0  0  0  0  0  0  0
  152.6941  139.7594  155.0600 O   0  0  0  0  0  0  0  0  0  0  0  0
  151.6504  139.7071  156.0183 C   0  0  0  0  0  0  0  0  0  0  0  0
  148.8660  134.9157  156.7403 H   0  0  0  0  0  0  0  0  0  0  0  0
  150.2237  135.9963  155.5472 H   0  0  0  0  0  0  0  0  0  0  0  0
  148.7083  136.6499  154.9641 H   0  0  0  0  0  0  0  0  0  0  0  0
  150.3427  137.7810  157.2838 H   0  0  0  0  0  0  0  0  0  0  0  0
  148.3545  138.6912  157.9350 H   0  0  0  0  0  0  0  0  0  0  0  0
  148.6065  139.8165  156.6290 H   0  0  0  0  0  0  0  0  0  0  0  0
  146.1141  137.6689  157.9525 H   0  0  0  0  0  0  0  0  0  0  0  0
  142.9195  137.6441  154.9829 H   0  0  0  0  0  0  0  0  0  0  0  0
  142.9872  138.8700  153.7318 H   0  0  0  0  0  0  0  0  0  0  0  0
  140.6826  137.9379  153.9790 H   0  0  0  0  0  0  0  0  0  0  0  0
  141.3235  137.6664  152.3736 H   0  0  0  0  0  0  0  0  0  0  0  0
  141.2640  135.6263  154.6530 H   0  0  0  0  0  0  0  0  0  0  0  0
  140.2699  135.5866  153.2130 H   0  0  0  0  0  0  0  0  0  0  0  0
  142.2101  134.0585  153.0288 H   0  0  0  0  0  0  0  0  0  0  0  0
  142.2362  135.2831  151.7849 H   0  0  0  0  0  0  0  0  0  0  0  0
  143.8393  135.3129  154.3764 H   0  0  0  0  0  0  0  0  0  0  0  0
  145.8681  135.0891  153.0712 H   0  0  0  0  0  0  0  0  0  0  0  0
  144.1752  135.4180  150.6106 H   0  0  0  0  0  0  0  0  0  0  0  0
  145.7906  135.9891  150.9633 H   0  0  0  0  0  0  0  0  0  0  0  0
  144.9508  133.4789  149.7248 H   0  0  0  0  0  0  0  0  0  0  0  0
  146.5995  134.0652  149.8912 H   0  0  0  0  0  0  0  0  0  0  0  0
  145.7534  131.8330  151.2478 H   0  0  0  0  0  0  0  0  0  0  0  0
  146.9057  132.9623  151.9547 H   0  0  0  0  0  0  0  0  0  0  0  0
  143.9017  132.9016  152.3644 H   0  0  0  0  0  0  0  0  0  0  0  0
  144.5100  132.2986  154.2623 H   0  0  0  0  0  0  0  0  0  0  0  0
  147.6053  138.8044  151.7896 H   0  0  0  0  0  0  0  0  0  0  0  0
  149.9906  139.3269  154.7487 H   0  0  0  0  0  0  0  0  0  0  0  0
  151.4442  136.8053  154.6728 H   0  0  0  0  0  0  0  0  0  0  0  0
  151.1388  138.0033  153.4313 H   0  0  0  0  0  0  0  0  0  0  0  0
  153.4514  137.8732  155.3701 H   0  0  0  0  0  0  0  0  0  0  0  0
  153.4655  138.3999  153.6816 H   0  0  0  0  0  0  0  0  0  0  0  0
  151.2252  140.6951  156.1969 H   0  0  0  0  0  0  0  0  0  0  0  0
  152.0620  139.3428  156.9588 H   0  0  0  0  0  0  0  0  0  0  0  0
  1  2  1  0  0  0  0
  1 31  1  0  0  0  0
  2  3  1  0  0  0  0
  2 32  1  0  0  0  0
  2 33  1  0  0  0  0
  3  4  1  0  0  0  0
  3 26  1  0  0  0  0
  3 34  1  0  0  0  0
  4  5  1  0  0  0  0
  4 35  1  0  0  0  0
  4 36  1  0  0  0  0
  5 25  1  0  0  0  0
  5  6  1  0  0  0  0
  6  7  2  0  0  0  0
  6 37  1  0  0  0  0
  7  8  1  0  0  0  0
  8 25  2  0  0  0  0
  8  9  1  0  0  0  0
  9 10  1  0  0  0  0
  9 22  2  0  0  0  0
 10 15  1  0  0  0  0
 10 11  1  0  0  0  0
 11 12  1  0  0  0  0
 11 38  1  0  0  0  0
 11 39  1  0  0  0  0
 12 13  1  0  0  0  0
 12 40  1  0  0  0  0
 12 41  1  0  0  0  0
 13 14  1  0  0  0  0
 13 42  1  0  0  0  0
 13 43  1  0  0  0  0
 14 15  1  0  0  0  0
 14 44  1  0  0  0  0
 14 45  1  0  0  0  0
 15 16  1  0  0  0  0
 15 46  1  0  0  0  0
 16 20  1  0  0  0  0
 16 17  1  0  0  0  0
 16 47  1  0  0  0  0
 17 18  1  0  0  0  0
 17 48  1  0  0  0  0
 17 49  1  0  0  0  0
 18 19  1  0  0  0  0
 18 50  1  0  0  0  0
 18 51  1  0  0  0  0
 19 20  1  0  0  0  0
 19 52  1  0  0  0  0
 19 53  1  0  0  0  0
 20 21  1  0  0  0  0
 20 54  1  0  0  0  0
 21 55  1  0  0  0  0
 22 23  1  0  0  0  0
 23 24  2  0  0  0  0
 23 56  1  0  0  0  0
 24 25  1  0  0  0  0
 26 30  1  0  0  0  0
 26 27  1  0  0  0  0
 26 57  1  0  0  0  0
 27 28  1  0  0  0  0
 27 58  1  0  0  0  0
 27 59  1  0  0  0  0
 28 29  1  0  0  0  0
 28 60  1  0  0  0  0
 28 61  1  0  0  0  0
 29 30  1  0  0  0  0
 30 62  1  0  0  0  0
 30 63  1  0  0  0  0
M  END
> <s_m_source_file>
AV-unprocessed.smi

> <i_m_source_file_index>
148

> <i_lp_mmshare_version>
43012

> <i_f3d_flags>
0

> <s_epik_input>
W0NIMl0xT1tDSDJdW0NIMl1bQ0BIXTFbQ0BIXShbQ0gyXVtPSF0pW0NIMl1uKFtjSF1uMiljKGMyMyluW2NIXW5jM040W0NIMl1bQ0gyXVtDSDJdW0NIMl1bQ0BIXTRbQ0BASF01W0NIMl1bQ0gyXVtDSDJdW0NASF01W09IXQ==

> <s_epik_cmdline>
J2VwaWtfcHl0aG9uJywgJy1waCcsICc3LjAnLCAnLXRuJywgJzgnLCAnLW1hJywgJzIwMCcsICctbWV0YWxfYmluZGluZycsICctaW1hZScsICc8aW5maWxlLm1hZT4nLCAnLW9tYWUnLCAnPG91dGZpbGUubWFlPic=

> <r_lp_tautomer_probability>
1

> <r_epik_Ionization_Penalty>
0.00556303

> <r_epik_Ionization_Penalty_Charging>
0

> <r_epik_Ionization_Penalty_Neutral>
0.00556303

> <r_epik_State_Penalty>
0.00401767

> <r_epik_Charging_Adjusted_Penalty>
0.00401767

> <i_epik_Tot_Q>
0

> <i_epik_Tot_abs_Q>
0

> <r_epik_Metal_State_Penalty>
-0

> <b_epik_Metal_Only>
0

> <s_lp_Force_Field>
OPLS_2005

> <r_lp_Energy>
68.457

> <b_lp_Chiralities_Consistent>
1

> <s_lp_Variant>
AV-unprocessed.smi:148-1

> <Gold.Version>
5.8.1

> <Gold.Id.Protein>
6NUR|6NUR_protein|mol2

> <Gold.PLP.Fitness>
42.7331

> <Gold.PLP.PLP>
-34.8473

> <Gold.PLP.part.hbond>
-3.0000

> <Gold.PLP.part.metal>
0.0000

> <Gold.PLP.part.buried>
-3.6878

> <Gold.PLP.part.nonpolar>
-29.1838

> <Gold.PLP.part.repulsive>
0.6398

> <Gold.PLP.ligand.clash>
0.0000

> <Gold.PLP.ligand.torsion>
1.5055

> <Gold.PLP.Chemscore.Hbond>
2.4864

> <Gold.PLP.Chemscore.CHOScore>
1.0128

> <Gold.PLP.Chemscore.Metal>
0.0000

> <Gold.Chemscore.Hbonds>
donor molecule, donor type, donor heavy atom, donor atom, acceptor molecule, acceptor atom, score
      L1  H    21    55       P1 10957  1.00
      P1  H  7989  7998       L1    29  0.37
      P1  H  7997  8009       L1    29  1.00
      L1  C    23    56       P1  7948  0.03
      L1  C    23    56       P1  7957  1.00

> <Gold.PLP.Chemscore.Internal.Correction>
0.3991

> <Gold.Rescore>
     Score         DG    S(hbond)    S(metal)    S(lipo)     H(rot)  DE(clash)    DE(int)     intcor
      9.05     -10.85       1.52        0.00      75.19       3.32       0.13       1.67       ----

> <Gold.Chemscore.Fitness>
9.0522

> <Gold.Chemscore.DG>
-10.8496

> <Gold.Chemscore.ZeroCoef>
-5.4800

> <Gold.Chemscore.Hbond>
1.5186

> <Gold.Chemscore.Metal>
0.0000

> <Gold.Chemscore.Lipo>
75.1914

> <Gold.Chemscore.Internal_Hbond>
0.0000

> <Gold.Chemscore.DEClash>
0.1261

> <Gold.Chemscore.DEInternal>
1.6713

> <Gold.Chemscore.Rot>
3.3203

> <Gold.Chemscore.Internal.Correction>
   9.000000E+99

> <Gold.Chemscore.Hbonds>
donor molecule, donor type, donor heavy atom, donor atom, acceptor molecule, acceptor atom, score
      L1  H    21    55       P1 10957  0.44
      P1  H  7989  7998       L1    29  0.06
      P1  H  7997  8009       L1    29  0.29

> <Gold.Chemscore.Hbond.Weighted>
-5.0722

> <Gold.Chemscore.Metal.Weighted>
-0.0000

> <Gold.Chemscore.Lipo.Weighted>
-8.7974

> <Gold.Chemscore.Internal_Hbond.Weighted>
0.0000

> <Gold.Chemscore.DEClash.Weighted>
0.1261

> <Gold.Chemscore.DEInternal.Weighted>
1.6713

> <Gold.Chemscore.Rot.Weighted>
8.5000

> <Gold.Chemscore.Internal.Correction.Weighted>
   9.000000E+99

> <Gold.Protein.RotatedTorsions>
[ 6907 6896 6895 6894 ] final   91.08 input  -60.11 | X-H torsion
[ 7974 7965 7964 7962 ] final   48.19 input  175.53 | X-H torsion
[ 8008 7997 7996 7995 ] final -133.26 input   59.86 | X-H torsion
[ 10167 10162 10161 10158 ] final  109.02 input  -65.29 | X-H torsion
[ 10718 10713 10712 10709 ] final   38.88 input   66.30 | X-H torsion
[ 10763 10752 10751 10750 ] final   95.27 input  -60.55 | X-H torsion
[ 11005 11000 10999 10996 ] final  -72.48 input  -57.11 | X-H torsion

> <Gold.Protein.ActiveResidues>
 VAL166  LYS551  ARG553  GLY616  TRP617  ASP618  TYR619  PRO620  LYS621  CYS622 
 ASP623  PHE694  ASN695  SER759  ASP760  ASP761  ALA762  ILE779  LEU786  VAL792 
 PHE793  MET794  SER795  GLU796  ALA797  LYS798  CYS799  TRP800  GLU811  SER814 

> <Gold.Protein.RotatedAtoms>
  152.5448  134.1711  159.8596 H   0  0  0  0  0  0  0  0  0  0  0  0  # atno 6907 bound_to 6896
  151.1721  133.4770  159.2601 H   0  0  0  0  0  0  0  0  0  0  0  0  # atno 6908 bound_to 6896
  151.1264  135.0118  159.8617 H   0  0  0  0  0  0  0  0  0  0  0  0  # atno 6909 bound_to 6896
  146.0227  139.4670  142.9887 H   0  0  0  0  0  0  0  0  0  0  0  0  # atno 7974 bound_to 7965
  155.3426  140.0473  157.3045 H   0  0  0  0  0  0  0  0  0  0  0  0  # atno 8008 bound_to 7997
  154.5269  140.2244  155.8838 H   0  0  0  0  0  0  0  0  0  0  0  0  # atno 8009 bound_to 7997
  156.1749  140.3087  155.9046 H   0  0  0  0  0  0  0  0  0  0  0  0  # atno 8010 bound_to 7997
  139.6800  144.7119  151.1533 H   0  0  0  0  0  0  0  0  0  0  0  0  # atno 10167 bound_to 10162
  157.3640  130.7665  149.7069 H   0  0  0  0  0  0  0  0  0  0  0  0  # atno 10718 bound_to 10713
  153.2513  135.4260  155.0800 H   0  0  0  0  0  0  0  0  0  0  0  0  # atno 10763 bound_to 10752
  154.8383  135.3426  154.6509 H   0  0  0  0  0  0  0  0  0  0  0  0  # atno 10764 bound_to 10752
  153.6930  135.7032  153.5141 H   0  0  0  0  0  0  0  0  0  0  0  0  # atno 10765 bound_to 10752
  141.1609  133.6848  156.7065 H   0  0  0  0  0  0  0  0  0  0  0  0  # atno 11005 bound_to 11000
  145.7167  141.0088  143.1424 LP  0  0  0  0  0  0  0  0  0  0  0  0  # atno 17320 bound_to 7965
  144.6997  139.8821  143.7448 LP  0  0  0  0  0  0  0  0  0  0  0  0  # atno 17321 bound_to 7965
  140.7649  143.5714  150.8992 LP  0  0  0  0  0  0  0  0  0  0  0  0  # atno 17342 bound_to 10162
  139.9385  143.6409  152.3059 LP  0  0  0  0  0  0  0  0  0  0  0  0  # atno 17343 bound_to 10162
  155.9743  130.4106  150.3937 LP  0  0  0  0  0  0  0  0  0  0  0  0  # atno 17370 bound_to 10713
  157.2018  131.0440  151.2646 LP  0  0  0  0  0  0  0  0  0  0  0  0  # atno 17371 bound_to 10713
  140.2920  134.8233  157.4024 LP  0  0  0  0  0  0  0  0  0  0  0  0  # atno 17394 bound_to 11000
  140.1339  134.5060  155.8084 LP  0  0  0  0  0  0  0  0  0  0  0  0  # atno 17395 bound_to 11000

$$$$
