AV-unprocessed.smi:2106|AV-procd|sdf|8597|dock6
  -GOLD-   2272011333D 1   1.00000     0.00000
 Structure written by MMmdl.
 48 49  0  0  0  0  0  0  0  0  2 V2000
  145.1448  135.6335  150.9791 C   0  0  0  0  0  0  0  0  0  0  0  0
  145.6468  134.2694  151.3506 C   0  0  0  0  0  0  0  0  0  0  0  0
  145.0131  133.0119  151.1474 C   0  0  0  0  0  0  0  0  0  0  0  0
  145.8936  132.1024  151.6619 C   0  0  0  0  0  0  0  0  0  0  0  0
  145.8007  130.6138  151.7432 C   0  0  0  0  0  0  0  0  0  0  0  0
  146.9782  132.8189  152.1370 N   0  0  0  0  0  0  0  0  0  0  0  0
  148.1956  132.3339  152.7678 C   0  0  0  0  0  0  0  0  0  0  0  0
  148.4810  133.0921  154.0648 C   0  0  0  0  0  0  0  0  0  0  0  0
  148.5656  132.4821  155.1306 O   0  0  0  0  0  0  0  0  0  0  0  0
  148.6319  134.4217  153.9618 N   0  0  0  0  0  0  0  0  0  0  0  0
  148.9490  135.3160  155.0687 C   0  0  0  0  0  0  0  0  0  0  0  0
  150.4123  135.7981  155.0144 C   0  0  0  0  0  0  0  0  0  0  0  0
  150.5391  137.2612  155.2286 N   0  3  1  0  0  0  0  0  0  0  0  0
  151.8641  137.7763  154.8085 C   0  0  0  0  0  0  0  0  0  0  0  0
  151.9964  139.2843  155.0981 C   0  0  2  0  0  0  0  0  0  0  0  0
  152.1826  139.6102  156.5908 C   0  0  0  0  0  0  0  0  0  0  0  0
  150.9010  139.9951  154.5213 O   0  0  0  0  0  0  0  0  0  0  0  0
  149.6128  139.5454  154.9324 C   0  0  1  0  0  0  0  0  0  0  0  0
  148.5621  140.4092  154.2261 C   0  0  0  0  0  0  0  0  0  0  0  0
  149.4581  138.0521  154.5919 C   0  0  0  0  0  0  0  0  0  0  0  0
  146.8227  134.1473  151.9441 N   0  0  0  0  0  0  0  0  0  0  0  0
  144.1502  135.5799  150.5359 H   0  0  0  0  0  0  0  0  0  0  0  0
  145.8049  136.1106  150.2545 H   0  0  0  0  0  0  0  0  0  0  0  0
  145.0831  136.2819  151.8536 H   0  0  0  0  0  0  0  0  0  0  0  0
  144.0561  132.8083  150.6905 H   0  0  0  0  0  0  0  0  0  0  0  0
  144.8811  130.2555  151.2802 H   0  0  0  0  0  0  0  0  0  0  0  0
  145.8049  130.2801  152.7809 H   0  0  0  0  0  0  0  0  0  0  0  0
  146.6381  130.1415  151.2299 H   0  0  0  0  0  0  0  0  0  0  0  0
  148.0996  131.2651  152.9674 H   0  0  0  0  0  0  0  0  0  0  0  0
  149.0304  132.4510  152.0760 H   0  0  0  0  0  0  0  0  0  0  0  0
  148.5530  134.8362  153.0439 H   0  0  0  0  0  0  0  0  0  0  0  0
  148.2488  136.1514  155.0537 H   0  0  0  0  0  0  0  0  0  0  0  0
  148.7702  134.7775  155.9996 H   0  0  0  0  0  0  0  0  0  0  0  0
  150.9685  135.2755  155.7943 H   0  0  0  0  0  0  0  0  0  0  0  0
  150.8835  135.5289  154.0679 H   0  0  0  0  0  0  0  0  0  0  0  0
  152.6606  137.2300  155.3156 H   0  0  0  0  0  0  0  0  0  0  0  0
  151.9904  137.5965  153.7395 H   0  0  0  0  0  0  0  0  0  0  0  0
  152.8900  139.6420  154.5857 H   0  0  0  0  0  0  0  0  0  0  0  0
  153.1006  139.1627  156.9723 H   0  0  0  0  0  0  0  0  0  0  0  0
  151.3626  139.2360  157.2030 H   0  0  0  0  0  0  0  0  0  0  0  0
  152.2534  140.6870  156.7468 H   0  0  0  0  0  0  0  0  0  0  0  0
  149.4979  139.6895  156.0069 H   0  0  0  0  0  0  0  0  0  0  0  0
  147.5523  140.1132  154.5121 H   0  0  0  0  0  0  0  0  0  0  0  0
  148.6419  140.3227  153.1422 H   0  0  0  0  0  0  0  0  0  0  0  0
  148.6844  141.4610  154.4858 H   0  0  0  0  0  0  0  0  0  0  0  0
  149.4861  137.9047  153.5109 H   0  0  0  0  0  0  0  0  0  0  0  0
  148.4821  137.7097  154.9335 H   0  0  0  0  0  0  0  0  0  0  0  0
  150.4753  137.4153  156.2248 H   0  0  0  0  0  0  0  0  0  0  0  0
  1  2  1  0  0  0  0
  1 22  1  0  0  0  0
  1 23  1  0  0  0  0
  1 24  1  0  0  0  0
  2 21  2  0  0  0  0
  2  3  1  0  0  0  0
  3  4  2  0  0  0  0
  3 25  1  0  0  0  0
  4  5  1  0  0  0  0
  4  6  1  0  0  0  0
  5 26  1  0  0  0  0
  5 27  1  0  0  0  0
  5 28  1  0  0  0  0
  6  7  1  0  0  0  0
  6 21  1  0  0  0  0
  7  8  1  0  0  0  0
  7 29  1  0  0  0  0
  7 30  1  0  0  0  0
  8  9  2  0  0  0  0
  8 10  1  0  0  0  0
 10 11  1  0  0  0  0
 10 31  1  0  0  0  0
 11 12  1  0  0  0  0
 11 32  1  0  0  0  0
 11 33  1  0  0  0  0
 12 13  1  0  0  0  0
 12 34  1  0  0  0  0
 12 35  1  0  0  0  0
 13 20  1  0  0  0  0
 13 14  1  0  0  0  0
 13 48  1  0  0  0  0
 14 15  1  0  0  0  0
 14 36  1  0  0  0  0
 14 37  1  0  0  0  0
 15 16  1  0  0  0  0
 15 17  1  0  0  0  0
 15 38  1  0  0  0  0
 16 39  1  0  0  0  0
 16 40  1  0  0  0  0
 16 41  1  0  0  0  0
 17 18  1  0  0  0  0
 18 19  1  0  0  0  0
 18 20  1  0  0  0  0
 18 42  1  0  0  0  0
 19 43  1  0  0  0  0
 19 44  1  0  0  0  0
 19 45  1  0  0  0  0
 20 46  1  0  0  0  0
 20 47  1  0  0  0  0
M  CHG  1  13   1
M  END
> <s_m_source_file>
AV-unprocessed.smi

> <i_m_source_file_index>
2106

> <i_lp_mmshare_version>
43012

> <i_f3d_flags>
0

> <s_epik_input>
W0NIM11jMVtjSF1jKFtDSDNdKW4objEpW0NIMl1DKD1PKVtOSF1bQ0gyXVtDSDJdTjJbQ0gyXVtDQEBIXShbQ0gzXSlPW0NAQEhdKFtDSDNdKVtDSDJdMg==

> <s_epik_cmdline>
J2VwaWtfcHl0aG9uJywgJy1waCcsICc3LjAnLCAnLXRuJywgJzgnLCAnLW1hJywgJzIwMCcsICctbWV0YWxfYmluZGluZycsICctaW1hZScsICc8aW5maWxlLm1hZT4nLCAnLW9tYWUnLCAnPG91dGZpbGUubWFlPic=

> <r_lp_tautomer_probability>
1

> <r_epik_Ionization_Penalty>
0.748586

> <r_epik_Ionization_Penalty_Charging>
0.748396

> <r_epik_Ionization_Penalty_Neutral>
0.000189656

> <r_epik_State_Penalty>
0.775162

> <r_epik_Charging_Adjusted_Penalty>
1.52356

> <i_epik_Tot_Q>
1

> <i_epik_Tot_abs_Q>
1

> <r_epik_Metal_State_Penalty>
0.775295

> <b_epik_Metal_Only>
0

> <s_lp_Force_Field>
OPLS_2005

> <r_lp_Energy>
15.7435

> <b_lp_Chiralities_Consistent>
1

> <s_lp_Variant>
AV-unprocessed.smi:2106-5

> <Gold.Version>
5.8.1

> <Gold.Id.Protein>
6NUR|6NUR_protein|mol2

> <Gold.PLP.Fitness>
41.7750

> <Gold.PLP.PLP>
-37.0744

> <Gold.PLP.part.hbond>
-2.0000

> <Gold.PLP.part.metal>
0.0000

> <Gold.PLP.part.buried>
-4.6865

> <Gold.PLP.part.nonpolar>
-33.0091

> <Gold.PLP.part.repulsive>
1.6576

> <Gold.PLP.ligand.clash>
0.0000

> <Gold.PLP.ligand.torsion>
0.6801

> <Gold.PLP.Chemscore.Hbond>
2.0000

> <Gold.PLP.Chemscore.CHOScore>
0.0000

> <Gold.PLP.Chemscore.Metal>
0.0000

> <Gold.Chemscore.Hbonds>
donor molecule, donor type, donor heavy atom, donor atom, acceptor molecule, acceptor atom, score
      L1  H    10    31       P1  7948  1.00
      P1  H  7989  7998       L1    17  1.00

> <Gold.PLP.Chemscore.Internal.Correction>
0.0608

> <Gold.Rescore>
     Score         DG    S(hbond)    S(metal)    S(lipo)     H(rot)  DE(clash)    DE(int)     intcor
     15.11     -17.28       1.85        0.00      86.10       1.73       0.10       2.07       ----

> <Gold.Chemscore.Fitness>
15.1133

> <Gold.Chemscore.DG>
-17.2846

> <Gold.Chemscore.ZeroCoef>
-5.4800

> <Gold.Chemscore.Hbond>
1.8456

> <Gold.Chemscore.Metal>
0.0000

> <Gold.Chemscore.Lipo>
86.0973

> <Gold.Chemscore.Internal_Hbond>
0.0000

> <Gold.Chemscore.DEClash>
0.1013

> <Gold.Chemscore.DEInternal>
2.0699

> <Gold.Chemscore.Rot>
1.7316

> <Gold.Chemscore.Internal.Correction>
   9.000000E+99

> <Gold.Chemscore.Hbonds>
donor molecule, donor type, donor heavy atom, donor atom, acceptor molecule, acceptor atom, score
      L1  H    10    31       P1  7948  0.47
      P1  H  7989  7998       L1    17  0.28

> <Gold.Chemscore.Hbond.Weighted>
-6.1642

> <Gold.Chemscore.Metal.Weighted>
-0.0000

> <Gold.Chemscore.Lipo.Weighted>
-10.0734

> <Gold.Chemscore.Internal_Hbond.Weighted>
0.0000

> <Gold.Chemscore.DEClash.Weighted>
0.1013

> <Gold.Chemscore.DEInternal.Weighted>
2.0699

> <Gold.Chemscore.Rot.Weighted>
4.4330

> <Gold.Chemscore.Internal.Correction.Weighted>
   9.000000E+99

> <Gold.Protein.RotatedTorsions>
[ 6907 6896 6895 6894 ] final   62.11 input  -60.11 | X-H torsion
[ 7974 7965 7964 7962 ] final  124.74 input  175.53 | X-H torsion
[ 8008 7997 7996 7995 ] final -146.83 input   59.86 | X-H torsion
[ 10167 10162 10161 10158 ] final -158.55 input  -65.29 | X-H torsion
[ 10718 10713 10712 10709 ] final  134.63 input   66.30 | X-H torsion
[ 10763 10752 10751 10750 ] final -164.13 input  -60.55 | X-H torsion
[ 11005 11000 10999 10996 ] final  -98.38 input  -57.11 | X-H torsion

> <Gold.Protein.ActiveResidues>
 VAL166  LYS551  ARG553  GLY616  TRP617  ASP618  TYR619  PRO620  LYS621  CYS622 
 ASP623  PHE694  ASN695  SER759  ASP760  ASP761  ALA762  ILE779  LEU786  VAL792 
 PHE793  MET794  SER795  GLU796  ALA797  LYS798  CYS799  TRP800  GLU811  SER814 

> <Gold.Protein.RotatedAtoms>
  152.4145  134.6066  160.0014 H   0  0  0  0  0  0  0  0  0  0  0  0  # atno 6907 bound_to 6896
  151.6234  133.3332  159.3101 H   0  0  0  0  0  0  0  0  0  0  0  0  # atno 6908 bound_to 6896
  150.8034  134.7183  159.6688 H   0  0  0  0  0  0  0  0  0  0  0  0  # atno 6909 bound_to 6896
  145.0810  139.3657  143.4909 H   0  0  0  0  0  0  0  0  0  0  0  0  # atno 7974 bound_to 7965
  155.5657  140.0629  157.2818 H   0  0  0  0  0  0  0  0  0  0  0  0  # atno 8008 bound_to 7997
  154.4376  140.1878  156.0873 H   0  0  0  0  0  0  0  0  0  0  0  0  # atno 8009 bound_to 7997
  156.0414  140.3295  155.7251 H   0  0  0  0  0  0  0  0  0  0  0  0  # atno 8010 bound_to 7997
  139.6683  143.9789  152.2268 H   0  0  0  0  0  0  0  0  0  0  0  0  # atno 10167 bound_to 10162
  157.4653  131.1076  150.9870 H   0  0  0  0  0  0  0  0  0  0  0  0  # atno 10718 bound_to 10713
  154.7057  135.2996  154.9274 H   0  0  0  0  0  0  0  0  0  0  0  0  # atno 10763 bound_to 10752
  154.0191  135.6685  153.4775 H   0  0  0  0  0  0  0  0  0  0  0  0  # atno 10764 bound_to 10752
  153.0715  135.5058  154.8227 H   0  0  0  0  0  0  0  0  0  0  0  0  # atno 10765 bound_to 10752
  141.1346  133.8241  157.0832 H   0  0  0  0  0  0  0  0  0  0  0  0  # atno 11005 bound_to 11000
  146.3531  140.0600  142.8630 LP  0  0  0  0  0  0  0  0  0  0  0  0  # atno 17320 bound_to 7965
  145.1178  140.9444  143.4618 LP  0  0  0  0  0  0  0  0  0  0  0  0  # atno 17321 bound_to 7965
  139.9547  144.6597  150.8137 LP  0  0  0  0  0  0  0  0  0  0  0  0  # atno 17342 bound_to 10162
  140.7608  143.3160  151.2733 LP  0  0  0  0  0  0  0  0  0  0  0  0  # atno 17343 bound_to 10162
  157.0654  130.5842  149.5393 LP  0  0  0  0  0  0  0  0  0  0  0  0  # atno 17370 bound_to 10713
  156.0047  130.5132  150.7789 LP  0  0  0  0  0  0  0  0  0  0  0  0  # atno 17371 bound_to 10713
  140.0438  134.9841  157.1011 LP  0  0  0  0  0  0  0  0  0  0  0  0  # atno 17394 bound_to 11000
  140.4094  134.1997  155.7163 LP  0  0  0  0  0  0  0  0  0  0  0  0  # atno 17395 bound_to 11000

$$$$
