#       Name:                AV-unprocessed.smi:2006
#       Creating user name   scv26
#       Creation time:       Fri Mar 27 10:36:34 2020


#       File generated by GOLD software.
#

@<TRIPOS>MOLECULE
AV-unprocessed.smi:2006
    37    38     1
SMALL
NO_CHARGES


@<TRIPOS>ATOM
      1 ****        -3.9627  -1.5237  -2.0214 C.3            1 S1                 0.0000
      2 ****        -3.3394  -0.8318  -0.8048 C.3            1 S1                 0.0000
      3 ****        -1.8017  -0.7870  -0.8896 C.3            1 S1                 0.0000
      4 ****        -1.2586  -0.0441   0.2409 N.3            1 S1                 0.0000
      5 ****         0.1419  -0.0619   0.3006 C.ar           1 S1                 0.0000
      6 ****         0.7724  -0.6899   1.3954 C.ar           1 S1                 0.0000
      7 ****         2.1793  -0.7111   1.4467 C.ar           1 S1                 0.0000
      8 ****         2.9075  -0.1022   0.4041 C.ar           1 S1                 0.0000
      9 ****         4.4230  -0.0976   0.4105 C.3            1 S1                 0.0000
     10 ****         4.9451   1.1183   1.0556 N.4            1 S1                 1.0000
     11 ****         2.1861   0.5002  -0.6479 C.ar           1 S1                 0.0000
     12 ****         0.8379   0.5252  -0.7028 N.ar           1 S1                 0.0000
     13 ****        -1.8294   1.2921   0.3538 C.3            1 S1                 0.0000
     14 ****        -3.3641   1.2047   0.4049 C.3            1 S1                 0.0000
     15 ****        -3.8406   0.5019  -0.7395 O.3            1 S1                 0.0000
     16 ****        -3.6150  -2.5534  -2.1075 H              1 S1                 0.0000
     17 ****        -3.7056  -1.0043  -2.9451 H              1 S1                 0.0000
     18 ****        -5.0499  -1.5456  -1.9425 H              1 S1                 0.0000
     19 ****        -3.6420  -1.3712   0.0944 H              1 S1                 0.0000
     20 ****        -1.3960  -1.7995  -0.8912 H              1 S1                 0.0000
     21 ****        -1.4943  -0.3141  -1.8236 H              1 S1                 0.0000
     22 ****         0.1896  -1.1496   2.1806 H              1 S1                 0.0000
     23 ****         2.6875  -1.1868   2.2726 H              1 S1                 0.0000
     24 ****         4.7961  -0.9746   0.9407 H              1 S1                 0.0000
     25 ****         4.7990  -0.1542  -0.6116 H              1 S1                 0.0000
     26 ****         5.9550   1.0965   1.0483 H              1 S1                 0.0000
     27 ****         4.6168   1.1619   2.0098 H              1 S1                 0.0000
     28 ****         2.7038   0.9787  -1.4664 H              1 S1                 0.0000
     29 ****        -1.4513   1.7817   1.2521 H              1 S1                 0.0000
     30 ****        -1.5218   1.8985  -0.4993 H              1 S1                 0.0000
     31 ****        -3.6959   0.7045   1.3161 H              1 S1                 0.0000
     32 ****        -3.7973   2.2049   0.4143 H              1 S1                 0.0000
     33 ****         4.6231   1.9324   0.5520 H              1 S1                 0.0000
     34 ****        -1.5519  -0.5370   1.0600 LP             1 S1                 0.0000
     35 ****         0.3643   0.9662  -1.4652 LP             1 S1                 0.0000
     36 ****        -4.8393   0.4685  -0.7032 LP             1 S1                 0.0000
     37 ****        -3.5532   0.9938  -1.5614 LP             1 S1                 0.0000
@<TRIPOS>BOND
    1    1    2 1     
    2    1   16 1     
    3    1   17 1     
    4    1   18 1     
    5    2   15 1     
    6    2    3 1     
    7    2   19 1     
    8    3    4 1     
    9    3   20 1     
   10    3   21 1     
   11    4    5 1     
   12    4   13 1     
   13    5   12 ar    
   14    5    6 ar    
   15    6    7 ar    
   16    6   22 1     
   17    7    8 ar    
   18    7   23 1     
   19    8    9 1     
   20    8   11 ar    
   21    9   10 1     
   22    9   24 1     
   23    9   25 1     
   24   10   26 1     
   25   10   27 1     
   26   10   33 1     
   27   11   12 ar    
   28   11   28 1     
   29   13   14 1     
   30   13   29 1     
   31   13   30 1     
   32   14   15 1     
   33   14   31 1     
   34   14   32 1     
   35    4   34 1     
   36   12   35 1     
   37   15   36 1     
   38   15   37 1     
@<TRIPOS>SUBSTRUCTURE
      1 S1             1
@<TRIPOS>SET
LONE_PAIRS      STATIC     ATOMS    <user>   **** ""
4 34 35 36 37
DONOR_HYDROGENS      STATIC     ATOMS    <user>   **** ""
3 26 27 33
ATOM$BLUE        STATIC     ATOMS    COLORGROUP SYSTEM
4 34 35 36 37
ATOM$RED        STATIC     ATOMS    COLORGROUP SYSTEM
3 26 27 33
