AV-unprocessed.smi:1023|AV-procd|sdf|4462|dock3
  -GOLD-   22720 2433D 1   1.00000     0.00000
 Structure written by MMmdl.
 32 33  0  0  0  0  0  0  0  0  1 V2000
  146.6193  142.3371  154.0459 C   0  0  0  0  0  0  0  0  0  0  0  0
  147.5054  141.0799  154.0935 C   0  0  0  0  0  0  0  0  0  0  0  0
  148.9487  141.4528  154.4632 C   0  0  0  0  0  0  0  0  0  0  0  0
  147.4723  140.2755  152.7774 C   0  0  0  0  0  0  0  0  0  0  0  0
  146.2169  139.5498  152.6069 N   0  0  0  0  0  0  0  0  0  0  0  0
  146.0873  138.2190  152.4732 C   0  0  0  0  0  0  0  0  0  0  0  0
  147.0468  137.4502  152.4995 O   0  0  0  0  0  0  0  0  0  0  0  0
  144.8310  137.7521  152.3084 N   0  0  0  0  0  0  0  0  0  0  0  0
  144.3246  136.4305  152.1388 C   0  0  0  0  0  0  0  0  0  0  0  0
  143.1637  135.9876  152.6431 N   0  0  0  0  0  0  0  0  0  0  0  0
  142.9204  134.6638  152.3077 N   0  0  0  0  0  0  0  0  0  0  0  0
  143.8964  134.1431  151.5550 C   0  0  0  0  0  0  0  0  0  0  0  0
  143.8601  132.7331  151.0672 C   0  0  0  0  0  0  0  0  0  0  0  0
  145.0510  132.1297  150.3587 C   0  0  0  0  0  0  0  0  0  0  0  0
  143.7839  132.4072  149.5913 C   0  0  0  0  0  0  0  0  0  0  0  0
  145.2130  135.2521  151.1875 S   0  0  0  0  0  0  0  0  0  0  0  0
  146.9193  143.0011  153.2347 H   0  0  0  0  0  0  0  0  0  0  0  0
  146.6857  142.8990  154.9778 H   0  0  0  0  0  0  0  0  0  0  0  0
  145.5694  142.0839  153.8987 H   0  0  0  0  0  0  0  0  0  0  0  0
  147.1230  140.4378  154.8883 H   0  0  0  0  0  0  0  0  0  0  0  0
  149.3963  142.1010  153.7089 H   0  0  0  0  0  0  0  0  0  0  0  0
  149.5741  140.5642  154.5521 H   0  0  0  0  0  0  0  0  0  0  0  0
  148.9875  141.9774  155.4184 H   0  0  0  0  0  0  0  0  0  0  0  0
  147.6703  140.9306  151.9275 H   0  0  0  0  0  0  0  0  0  0  0  0
  148.2739  139.5364  152.7807 H   0  0  0  0  0  0  0  0  0  0  0  0
  145.3747  140.1070  152.5740 H   0  0  0  0  0  0  0  0  0  0  0  0
  144.1173  138.4653  152.3447 H   0  0  0  0  0  0  0  0  0  0  0  0
  143.3036  132.1018  151.7573 H   0  0  0  0  0  0  0  0  0  0  0  0
  145.9056  132.7754  150.1658 H   0  0  0  0  0  0  0  0  0  0  0  0
  145.2909  131.0913  150.5780 H   0  0  0  0  0  0  0  0  0  0  0  0
  143.1778  131.5529  149.2971 H   0  0  0  0  0  0  0  0  0  0  0  0
  143.8049  133.2300  148.8796 H   0  0  0  0  0  0  0  0  0  0  0  0
  1  2  1  0  0  0  0
  1 17  1  0  0  0  0
  1 18  1  0  0  0  0
  1 19  1  0  0  0  0
  2  3  1  0  0  0  0
  2  4  1  0  0  0  0
  2 20  1  0  0  0  0
  3 21  1  0  0  0  0
  3 22  1  0  0  0  0
  3 23  1  0  0  0  0
  4  5  1  0  0  0  0
  4 24  1  0  0  0  0
  4 25  1  0  0  0  0
  5  6  1  0  0  0  0
  5 26  1  0  0  0  0
  6  7  2  0  0  0  0
  6  8  1  0  0  0  0
  8  9  1  0  0  0  0
  8 27  1  0  0  0  0
  9 16  1  0  0  0  0
  9 10  2  0  0  0  0
 10 11  1  0  0  0  0
 11 12  2  0  0  0  0
 12 13  1  0  0  0  0
 12 16  1  0  0  0  0
 13 15  1  0  0  0  0
 13 14  1  0  0  0  0
 13 28  1  0  0  0  0
 14 15  1  0  0  0  0
 14 29  1  0  0  0  0
 14 30  1  0  0  0  0
 15 31  1  0  0  0  0
 15 32  1  0  0  0  0
M  END
> <s_m_source_file>
AV-unprocessed.smi

> <i_m_source_file_index>
1023

> <i_lp_mmshare_version>
43012

> <i_f3d_flags>
0

> <s_epik_input>
W0NIM11bQ0hdKFtDSDNdKVtDSDJdW05IXUMoPU8pW05IXWMxbm5jKHMxKVtDSF0yW0NIMl1bQ0gyXTI=

> <s_epik_cmdline>
J2VwaWtfcHl0aG9uJywgJy1waCcsICc3LjAnLCAnLXRuJywgJzgnLCAnLW1hJywgJzIwMCcsICctbWV0YWxfYmluZGluZycsICctaW1hZScsICc8aW5maWxlLm1hZT4nLCAnLW9tYWUnLCAnPG91dGZpbGUubWFlPic=

> <r_lp_tautomer_probability>
1

> <r_epik_Ionization_Penalty>
0.000943136

> <r_epik_Ionization_Penalty_Charging>
0

> <r_epik_Ionization_Penalty_Neutral>
0.000943136

> <r_epik_State_Penalty>
-0

> <r_epik_Charging_Adjusted_Penalty>
0

> <i_epik_Tot_Q>
0

> <i_epik_Tot_abs_Q>
0

> <r_epik_Metal_State_Penalty>
0.281646

> <b_epik_Metal_Only>
0

> <s_lp_Force_Field>
OPLS_2005

> <r_lp_Energy>
5.4251

> <b_lp_Chiralities_Consistent>
1

> <s_lp_Variant>
AV-unprocessed.smi:1023-1

> <Gold.Version>
5.8.1

> <Gold.Id.Protein>
6NUR|6NUR_protein|mol2

> <Gold.PLP.Fitness>
34.3228

> <Gold.PLP.PLP>
-29.1861

> <Gold.PLP.part.hbond>
-3.0000

> <Gold.PLP.part.metal>
0.0000

> <Gold.PLP.part.buried>
-2.5289

> <Gold.PLP.part.nonpolar>
-29.1966

> <Gold.PLP.part.repulsive>
5.5617

> <Gold.PLP.ligand.clash>
0.0000

> <Gold.PLP.ligand.torsion>
0.4623

> <Gold.PLP.Chemscore.Hbond>
1.9760

> <Gold.PLP.Chemscore.CHOScore>
0.0000

> <Gold.PLP.Chemscore.Metal>
0.0000

> <Gold.Chemscore.Hbonds>
donor molecule, donor type, donor heavy atom, donor atom, acceptor molecule, acceptor atom, score
      L1  H     5    26       P1 10175  1.00
      L1  H     8    27       P1 10175  0.98

> <Gold.PLP.Chemscore.Internal.Correction>
0.1333

> <Gold.Rescore>
     Score         DG    S(hbond)    S(metal)    S(lipo)     H(rot)  DE(clash)    DE(int)     intcor
     13.52     -15.71       1.84        0.00      66.03       1.42       1.69       0.51       ----

> <Gold.Chemscore.Fitness>
13.5174

> <Gold.Chemscore.DG>
-15.7117

> <Gold.Chemscore.ZeroCoef>
-5.4800

> <Gold.Chemscore.Hbond>
1.8382

> <Gold.Chemscore.Metal>
0.0000

> <Gold.Chemscore.Lipo>
66.0288

> <Gold.Chemscore.Internal_Hbond>
0.0000

> <Gold.Chemscore.DEClash>
1.6859

> <Gold.Chemscore.DEInternal>
0.5084

> <Gold.Chemscore.Rot>
1.4193

> <Gold.Chemscore.Internal.Correction>
   9.000000E+99

> <Gold.Chemscore.Hbonds>
donor molecule, donor type, donor heavy atom, donor atom, acceptor molecule, acceptor atom, score
      L1  H     5    26       P1 10175  0.94
      L1  H     8    27       P1 10175  0.87

> <Gold.Chemscore.Hbond.Weighted>
-6.1396

> <Gold.Chemscore.Metal.Weighted>
-0.0000

> <Gold.Chemscore.Lipo.Weighted>
-7.7254

> <Gold.Chemscore.Internal_Hbond.Weighted>
0.0000

> <Gold.Chemscore.DEClash.Weighted>
1.6859

> <Gold.Chemscore.DEInternal.Weighted>
0.5084

> <Gold.Chemscore.Rot.Weighted>
3.6333

> <Gold.Chemscore.Internal.Correction.Weighted>
   9.000000E+99

> <Gold.Protein.RotatedTorsions>
[ 6907 6896 6895 6894 ] final  -79.85 input  -60.11 | X-H torsion
[ 7974 7965 7964 7962 ] final -168.57 input  175.53 | X-H torsion
[ 8008 7997 7996 7995 ] final   46.55 input   59.86 | X-H torsion
[ 10167 10162 10161 10158 ] final  173.95 input  -65.29 | X-H torsion
[ 10718 10713 10712 10709 ] final  -39.68 input   66.30 | X-H torsion
[ 10763 10752 10751 10750 ] final   51.21 input  -60.55 | X-H torsion
[ 11005 11000 10999 10996 ] final -148.05 input  -57.11 | X-H torsion

> <Gold.Protein.ActiveResidues>
 VAL166  LYS551  ARG553  GLY616  TRP617  ASP618  TYR619  PRO620  LYS621  CYS622 
 ASP623  PHE694  ASN695  SER759  ASP760  ASP761  ALA762  ILE779  LEU786  VAL792 
 PHE793  MET794  SER795  GLU796  ALA797  LYS798  CYS799  TRP800  GLU811  SER814 

> <Gold.Protein.RotatedAtoms>
  150.6941  134.4059  159.5139 H   0  0  0  0  0  0  0  0  0  0  0  0  # atno 6907 bound_to 6896
  152.1825  134.8739  160.0534 H   0  0  0  0  0  0  0  0  0  0  0  0  # atno 6908 bound_to 6896
  151.9724  133.3695  159.4113 H   0  0  0  0  0  0  0  0  0  0  0  0  # atno 6909 bound_to 6896
  144.7200  140.2350  143.6299 H   0  0  0  0  0  0  0  0  0  0  0  0  # atno 7974 bound_to 7965
  155.3543  140.3415  155.4239 H   0  0  0  0  0  0  0  0  0  0  0  0  # atno 8008 bound_to 7997
  156.1747  140.1643  156.8419 H   0  0  0  0  0  0  0  0  0  0  0  0  # atno 8009 bound_to 7997
  154.5270  140.0754  156.8258 H   0  0  0  0  0  0  0  0  0  0  0  0  # atno 8010 bound_to 7997
  139.5125  144.3202  152.0210 H   0  0  0  0  0  0  0  0  0  0  0  0  # atno 10167 bound_to 10162
  156.2898  130.4227  149.8250 H   0  0  0  0  0  0  0  0  0  0  0  0  # atno 10718 bound_to 10713
  152.9785  135.5853  154.4378 H   0  0  0  0  0  0  0  0  0  0  0  0  # atno 10763 bound_to 10752
  154.3983  135.2768  155.2114 H   0  0  0  0  0  0  0  0  0  0  0  0  # atno 10764 bound_to 10752
  154.3956  135.6115  153.5922 H   0  0  0  0  0  0  0  0  0  0  0  0  # atno 10765 bound_to 10752
  140.7653  134.3251  157.5090 H   0  0  0  0  0  0  0  0  0  0  0  0  # atno 11005 bound_to 11000
  145.8374  139.2114  143.1847 LP  0  0  0  0  0  0  0  0  0  0  0  0  # atno 17320 bound_to 7965
  146.0377  140.8196  142.9844 LP  0  0  0  0  0  0  0  0  0  0  0  0  # atno 17321 bound_to 7965
  140.2644  144.4032  150.6174 LP  0  0  0  0  0  0  0  0  0  0  0  0  # atno 17342 bound_to 10162
  140.6134  143.2171  151.6840 LP  0  0  0  0  0  0  0  0  0  0  0  0  # atno 17343 bound_to 10162
  156.5667  130.8407  151.3345 LP  0  0  0  0  0  0  0  0  0  0  0  0  # atno 17370 bound_to 10713
  157.7339  130.9738  150.2001 LP  0  0  0  0  0  0  0  0  0  0  0  0  # atno 17371 bound_to 10713
  139.8764  134.9227  156.3307 LP  0  0  0  0  0  0  0  0  0  0  0  0  # atno 17394 bound_to 11000
  140.9625  133.7379  156.0421 LP  0  0  0  0  0  0  0  0  0  0  0  0  # atno 17395 bound_to 11000

$$$$
