AV-unprocessed.smi:2065|AV-procd|sdf|8418|dock4
  -GOLD-   2272011113D 1   1.00000     0.00000
 Structure written by MMmdl.
 38 39  0  0  0  0  0  0  0  0  1 V2000
  153.6850  143.0656  163.9427 C   0  0  0  0  0  0  0  0  0  0  0  0
  153.2197  142.9763  162.5193 C   0  0  0  0  0  0  0  0  0  0  0  0
  153.4542  141.9269  161.5836 C   0  0  0  0  0  0  0  0  0  0  0  0
  152.8062  142.3719  160.4639 C   0  0  0  0  0  0  0  0  0  0  0  0
  152.6931  141.7762  159.2470 N   0  0  0  0  0  0  0  0  0  0  0  0
  151.5809  141.5187  158.5372 C   0  0  0  0  0  0  0  0  0  0  0  0
  150.4315  141.7908  158.8851 O   0  0  0  0  0  0  0  0  0  0  0  0
  151.8789  140.9185  157.3757 N   0  0  0  0  0  0  0  0  0  0  0  0
  150.9133  140.4753  156.3684 C   0  0  1  0  0  0  0  0  0  0  0  0
  150.3173  141.6950  155.6301 C   0  0  0  0  0  0  0  0  0  0  0  0
  148.9550  141.4228  154.9720 C   0  0  0  0  0  0  0  0  0  0  0  0
  148.9749  140.3625  153.8609 C   0  0  0  0  0  0  0  0  0  0  0  0
  149.3258  138.9504  154.3610 C   0  0  0  0  0  0  0  0  0  0  0  0
  150.7573  138.7683  154.5664 N   0  0  0  0  0  0  0  0  0  0  0  0
  151.5412  139.4187  155.4396 C   0  0  0  0  0  0  0  0  0  0  0  0
  152.7476  139.1800  155.4935 O   0  0  0  0  0  0  0  0  0  0  0  0
  152.2374  143.5962  160.7357 N   0  0  0  0  0  0  0  0  0  0  0  0
  151.4558  144.4600  159.8725 C   0  0  0  0  0  0  0  0  0  0  0  0
  152.4951  143.9657  162.0090 N   0  0  0  0  0  0  0  0  0  0  0  0
  154.3307  142.2255  164.1994 H   0  0  0  0  0  0  0  0  0  0  0  0
  152.8407  143.0573  164.6323 H   0  0  0  0  0  0  0  0  0  0  0  0
  154.2495  143.9821  164.1156 H   0  0  0  0  0  0  0  0  0  0  0  0
  154.0077  141.0119  161.7309 H   0  0  0  0  0  0  0  0  0  0  0  0
  153.5652  141.4952  158.8235 H   0  0  0  0  0  0  0  0  0  0  0  0
  152.8501  140.7284  157.1750 H   0  0  0  0  0  0  0  0  0  0  0  0
  150.1082  139.9687  156.9042 H   0  0  0  0  0  0  0  0  0  0  0  0
  150.1761  142.5153  156.3352 H   0  0  0  0  0  0  0  0  0  0  0  0
  151.0247  142.0658  154.8868 H   0  0  0  0  0  0  0  0  0  0  0  0
  148.2331  141.1348  155.7374 H   0  0  0  0  0  0  0  0  0  0  0  0
  148.5824  142.3574  154.5514 H   0  0  0  0  0  0  0  0  0  0  0  0
  147.9818  140.3288  153.4117 H   0  0  0  0  0  0  0  0  0  0  0  0
  149.6538  140.6619  153.0612 H   0  0  0  0  0  0  0  0  0  0  0  0
  148.7760  138.7056  155.2708 H   0  0  0  0  0  0  0  0  0  0  0  0
  149.0170  138.2207  153.6121 H   0  0  0  0  0  0  0  0  0  0  0  0
  151.2048  138.0819  153.9761 H   0  0  0  0  0  0  0  0  0  0  0  0
  150.5692  143.9270  159.5272 H   0  0  0  0  0  0  0  0  0  0  0  0
  152.0545  144.7526  159.0097 H   0  0  0  0  0  0  0  0  0  0  0  0
  151.1425  145.3578  160.4073 H   0  0  0  0  0  0  0  0  0  0  0  0
  1  2  1  0  0  0  0
  1 20  1  0  0  0  0
  1 21  1  0  0  0  0
  1 22  1  0  0  0  0
  2 19  2  0  0  0  0
  2  3  1  0  0  0  0
  3  4  2  0  0  0  0
  3 23  1  0  0  0  0
  4  5  1  0  0  0  0
  4 17  1  0  0  0  0
  5  6  1  0  0  0  0
  5 24  1  0  0  0  0
  6  7  2  0  0  0  0
  6  8  1  0  0  0  0
  8  9  1  0  0  0  0
  8 25  1  0  0  0  0
  9 15  1  0  0  0  0
  9 10  1  0  0  0  0
  9 26  1  0  0  0  0
 10 11  1  0  0  0  0
 10 27  1  0  0  0  0
 10 28  1  0  0  0  0
 11 12  1  0  0  0  0
 11 29  1  0  0  0  0
 11 30  1  0  0  0  0
 12 13  1  0  0  0  0
 12 31  1  0  0  0  0
 12 32  1  0  0  0  0
 13 14  1  0  0  0  0
 13 33  1  0  0  0  0
 13 34  1  0  0  0  0
 14 15  1  0  0  0  0
 14 35  1  0  0  0  0
 15 16  2  0  0  0  0
 17 18  1  0  0  0  0
 17 19  1  0  0  0  0
 18 36  1  0  0  0  0
 18 37  1  0  0  0  0
 18 38  1  0  0  0  0
M  END
> <s_m_source_file>
AV-unprocessed.smi

> <i_m_source_file_index>
2065

> <i_lp_mmshare_version>
43012

> <i_f3d_flags>
0

> <s_epik_input>
W0NIM11jMVtjSF1jKG4objEpW0NIM10pW05IXUMoPU8pW05IXVtDQEBIXTJbQ0gyXVtDSDJdW0NIMl1bQ0gyXVtOSF1DMj1P

> <s_epik_cmdline>
J2VwaWtfcHl0aG9uJywgJy1waCcsICc3LjAnLCAnLXRuJywgJzgnLCAnLW1hJywgJzIwMCcsICctbWV0YWxfYmluZGluZycsICctaW1hZScsICc8aW5maWxlLm1hZT4nLCAnLW9tYWUnLCAnPG91dGZpbGUubWFlPic=

> <r_lp_tautomer_probability>
1

> <r_epik_Ionization_Penalty>
8.1752e-05

> <r_epik_Ionization_Penalty_Charging>
0

> <r_epik_Ionization_Penalty_Neutral>
8.1752e-05

> <r_epik_State_Penalty>
-0

> <r_epik_Charging_Adjusted_Penalty>
0

> <i_epik_Tot_Q>
0

> <i_epik_Tot_abs_Q>
0

> <r_epik_Metal_State_Penalty>
-0

> <b_epik_Metal_Only>
0

> <s_lp_Force_Field>
OPLS_2005

> <r_lp_Energy>
11.1948

> <b_lp_Chiralities_Consistent>
1

> <s_lp_Variant>
AV-unprocessed.smi:2065-2

> <Gold.Version>
5.8.1

> <Gold.Id.Protein>
6NUR|6NUR_protein|mol2

> <Gold.PLP.Fitness>
43.9843

> <Gold.PLP.PLP>
-42.3292

> <Gold.PLP.part.hbond>
-1.6663

> <Gold.PLP.part.metal>
0.0000

> <Gold.PLP.part.buried>
-3.2234

> <Gold.PLP.part.nonpolar>
-37.1564

> <Gold.PLP.part.repulsive>
0.4692

> <Gold.PLP.ligand.clash>
0.0000

> <Gold.PLP.ligand.torsion>
0.6860

> <Gold.PLP.Chemscore.Hbond>
1.0000

> <Gold.PLP.Chemscore.CHOScore>
0.0000

> <Gold.PLP.Chemscore.Metal>
0.0000

> <Gold.Chemscore.Hbonds>
donor molecule, donor type, donor heavy atom, donor atom, acceptor molecule, acceptor atom, score
      P1  H  7997  8009       L1    16  1.00

> <Gold.PLP.Chemscore.Internal.Correction>
0.0271

> <Gold.Rescore>
     Score         DG    S(hbond)    S(metal)    S(lipo)     H(rot)  DE(clash)    DE(int)     intcor
     14.58     -15.53       1.00        0.00      79.20       1.00       0.17       0.77       ----

> <Gold.Chemscore.Fitness>
14.5845

> <Gold.Chemscore.DG>
-15.5261

> <Gold.Chemscore.ZeroCoef>
-5.4800

> <Gold.Chemscore.Hbond>
1.0000

> <Gold.Chemscore.Metal>
0.0000

> <Gold.Chemscore.Lipo>
79.1974

> <Gold.Chemscore.Internal_Hbond>
0.0000

> <Gold.Chemscore.DEClash>
0.1669

> <Gold.Chemscore.DEInternal>
0.7747

> <Gold.Chemscore.Rot>
1.0000

> <Gold.Chemscore.Internal.Correction>
   9.000000E+99

> <Gold.Chemscore.Hbonds>
donor molecule, donor type, donor heavy atom, donor atom, acceptor molecule, acceptor atom, score
      P1  H  7997  8009       L1    16  0.96

> <Gold.Chemscore.Hbond.Weighted>
-3.3400

> <Gold.Chemscore.Metal.Weighted>
-0.0000

> <Gold.Chemscore.Lipo.Weighted>
-9.2661

> <Gold.Chemscore.Internal_Hbond.Weighted>
0.0000

> <Gold.Chemscore.DEClash.Weighted>
0.1669

> <Gold.Chemscore.DEInternal.Weighted>
0.7747

> <Gold.Chemscore.Rot.Weighted>
2.5600

> <Gold.Chemscore.Internal.Correction.Weighted>
   9.000000E+99

> <Gold.Protein.RotatedTorsions>
[ 6907 6896 6895 6894 ] final   19.67 input  -60.11 | X-H torsion
[ 7974 7965 7964 7962 ] final   87.06 input  175.53 | X-H torsion
[ 8008 7997 7996 7995 ] final -157.31 input   59.86 | X-H torsion
[ 10167 10162 10161 10158 ] final  179.42 input  -65.29 | X-H torsion
[ 10718 10713 10712 10709 ] final  128.37 input   66.30 | X-H torsion
[ 10763 10752 10751 10750 ] final -132.32 input  -60.55 | X-H torsion
[ 11005 11000 10999 10996 ] final  121.94 input  -57.11 | X-H torsion

> <Gold.Protein.ActiveResidues>
 VAL166  LYS551  ARG553  GLY616  TRP617  ASP618  TYR619  PRO620  LYS621  CYS622 
 ASP623  PHE694  ASN695  SER759  ASP760  ASP761  ALA762  ILE779  LEU786  VAL792 
 PHE793  MET794  SER795  GLU796  ALA797  LYS798  CYS799  TRP800  GLU811  SER814 

> <Gold.Protein.RotatedAtoms>
  151.8845  135.0441  160.0491 H   0  0  0  0  0  0  0  0  0  0  0  0  # atno 6907 bound_to 6896
  152.2486  133.5191  159.5320 H   0  0  0  0  0  0  0  0  0  0  0  0  # atno 6908 bound_to 6896
  150.7076  134.0907  159.3973 H   0  0  0  0  0  0  0  0  0  0  0  0  # atno 6909 bound_to 6896
  145.5639  139.2306  143.2444 H   0  0  0  0  0  0  0  0  0  0  0  0  # atno 7974 bound_to 7965
  155.7305  140.0801  157.2291 H   0  0  0  0  0  0  0  0  0  0  0  0  # atno 8008 bound_to 7997
  154.4033  140.1596  156.2558 H   0  0  0  0  0  0  0  0  0  0  0  0  # atno 8009 bound_to 7997
  155.9113  140.3403  155.6104 H   0  0  0  0  0  0  0  0  0  0  0  0  # atno 8010 bound_to 7997
  139.5336  144.2563  152.0744 H   0  0  0  0  0  0  0  0  0  0  0  0  # atno 10167 bound_to 10162
  157.5250  131.1098  150.9096 H   0  0  0  0  0  0  0  0  0  0  0  0  # atno 10718 bound_to 10713
  154.8744  135.3802  154.4390 H   0  0  0  0  0  0  0  0  0  0  0  0  # atno 10763 bound_to 10752
  153.5076  135.7030  153.5803 H   0  0  0  0  0  0  0  0  0  0  0  0  # atno 10764 bound_to 10752
  153.4106  135.3925  155.2014 H   0  0  0  0  0  0  0  0  0  0  0  0  # atno 10765 bound_to 10752
  139.9247  134.9640  156.8034 H   0  0  0  0  0  0  0  0  0  0  0  0  # atno 11005 bound_to 11000
  146.1831  140.6465  142.9180 LP  0  0  0  0  0  0  0  0  0  0  0  0  # atno 17320 bound_to 7965
  144.7469  140.5092  143.6829 LP  0  0  0  0  0  0  0  0  0  0  0  0  # atno 17321 bound_to 7965
  140.2030  144.4639  150.6422 LP  0  0  0  0  0  0  0  0  0  0  0  0  # atno 17342 bound_to 10162
  140.6529  143.2229  151.6036 LP  0  0  0  0  0  0  0  0  0  0  0  0  # atno 17343 bound_to 10162
  156.9695  130.5485  149.5290 LP  0  0  0  0  0  0  0  0  0  0  0  0  # atno 17370 bound_to 10713
  156.0380  130.5466  150.8702 LP  0  0  0  0  0  0  0  0  0  0  0  0  # atno 17371 bound_to 10713
  140.6371  133.9852  155.7689 LP  0  0  0  0  0  0  0  0  0  0  0  0  # atno 17394 bound_to 11000
  141.0796  134.0083  157.3406 LP  0  0  0  0  0  0  0  0  0  0  0  0  # atno 17395 bound_to 11000

$$$$
