AV-unprocessed.smi:2226|AV-procd|sdf|9019|dock6
  -GOLD-   2272012223D 1   1.00000     0.00000
 Structure written by MMmdl.
 39 41  0  0  0  0  0  0  0  0  3 V2000
  146.1274  142.8314  153.9696 C   0  0  0  0  0  0  0  0  0  0  0  0
  147.3149  142.4480  154.7693 N   0  3  2  0  0  0  0  0  0  0  0  0
  148.2523  141.5219  154.0890 C   0  0  2  0  0  0  0  0  0  0  0  0
  147.6406  140.1052  153.9443 C   0  0  0  0  0  0  0  0  0  0  0  0
  147.1020  139.5195  155.2630 C   0  0  0  0  0  0  0  0  0  0  0  0
  146.3395  140.5631  156.1010 C   0  0  0  0  0  0  0  0  0  0  0  0
  147.0148  141.9576  156.1363 C   0  0  1  0  0  0  0  0  0  0  0  0
  148.3042  142.0304  156.9845 C   0  0  0  0  0  0  0  0  0  0  0  0
  149.5362  141.3381  156.3455 C   0  0  2  0  0  0  0  0  0  0  0  0
  150.7644  141.8345  156.9618 N   0  0  0  0  0  0  0  0  0  0  0  0
  151.3185  141.3831  158.0967 C   0  0  0  0  0  0  0  0  0  0  0  0
  150.7839  140.4622  158.7187 O   0  0  0  0  0  0  0  0  0  0  0  0
  152.4546  142.0300  158.4392 N   0  5  0  0  0  0  0  0  0  0  0  0
  152.5704  142.5744  159.6612 C   0  0  0  0  0  0  0  0  0  0  0  0
  153.4776  142.2550  160.5856 N   0  0  0  0  0  0  0  0  0  0  0  0
  153.2076  143.0655  161.6774 C   0  0  0  0  0  0  0  0  0  0  0  0
  152.1309  143.8485  161.3628 C   0  0  0  0  0  0  0  0  0  0  0  0
  151.7171  143.5449  160.0953 O   0  0  0  0  0  0  0  0  0  0  0  0
  149.6149  141.5690  154.8170 C   0  0  0  0  0  0  0  0  0  0  0  0
  145.4769  141.9826  153.7611 H   0  0  0  0  0  0  0  0  0  0  0  0
  146.4351  143.2623  153.0164 H   0  0  0  0  0  0  0  0  0  0  0  0
  145.5416  143.5846  154.4970 H   0  0  0  0  0  0  0  0  0  0  0  0
  148.4271  141.9037  153.0820 H   0  0  0  0  0  0  0  0  0  0  0  0
  146.8211  140.1478  153.2264 H   0  0  0  0  0  0  0  0  0  0  0  0
  148.3714  139.4233  153.5085 H   0  0  0  0  0  0  0  0  0  0  0  0
  146.4441  138.6776  155.0450 H   0  0  0  0  0  0  0  0  0  0  0  0
  147.9120  139.0866  155.8440 H   0  0  0  0  0  0  0  0  0  0  0  0
  145.3357  140.6685  155.6890 H   0  0  0  0  0  0  0  0  0  0  0  0
  146.1980  140.1888  157.1154 H   0  0  0  0  0  0  0  0  0  0  0  0
  146.3058  142.6504  156.5921 H   0  0  0  0  0  0  0  0  0  0  0  0
  148.5389  143.0859  157.1326 H   0  0  0  0  0  0  0  0  0  0  0  0
  148.1209  141.6284  157.9816 H   0  0  0  0  0  0  0  0  0  0  0  0
  149.4919  140.2678  156.5326 H   0  0  0  0  0  0  0  0  0  0  0  0
  151.2409  142.5885  156.4885 H   0  0  0  0  0  0  0  0  0  0  0  0
  153.7963  143.0210  162.5814 H   0  0  0  0  0  0  0  0  0  0  0  0
  151.5755  144.6119  161.8866 H   0  0  0  0  0  0  0  0  0  0  0  0
  150.3099  140.8588  154.3674 H   0  0  0  0  0  0  0  0  0  0  0  0
  150.0451  142.5557  154.6365 H   0  0  0  0  0  0  0  0  0  0  0  0
  147.8276  143.3089  154.8970 H   0  0  0  0  0  0  0  0  0  0  0  0
  1  2  1  0  0  0  0
  1 20  1  0  0  0  0
  1 21  1  0  0  0  0
  1 22  1  0  0  0  0
  2  7  1  0  0  0  0
  2  3  1  0  0  0  0
  2 39  1  0  0  0  0
  3 19  1  0  0  0  0
  3  4  1  0  0  0  0
  3 23  1  0  0  0  0
  4  5  1  0  0  0  0
  4 24  1  0  0  0  0
  4 25  1  0  0  0  0
  5  6  1  0  0  0  0
  5 26  1  0  0  0  0
  5 27  1  0  0  0  0
  6  7  1  0  0  0  0
  6 28  1  0  0  0  0
  6 29  1  0  0  0  0
  7  8  1  0  0  0  0
  7 30  1  0  0  0  0
  8  9  1  0  0  0  0
  8 31  1  0  0  0  0
  8 32  1  0  0  0  0
  9 10  1  0  0  0  0
  9 19  1  0  0  0  0
  9 33  1  0  0  0  0
 10 34  1  0  0  0  0
 10 11  1  0  0  0  0
 11 13  1  0  0  0  0
 11 12  2  0  0  0  0
 13 14  1  0  0  0  0
 14 18  1  0  0  0  0
 14 15  2  0  0  0  0
 15 16  1  0  0  0  0
 16 35  1  0  0  0  0
 16 17  2  0  0  0  0
 17 36  1  0  0  0  0
 17 18  1  0  0  0  0
 19 37  1  0  0  0  0
 19 38  1  0  0  0  0
M  CHG  1   2   1
M  CHG  1  13  -1
M  END
> <s_m_source_file>
AV-unprocessed.smi

> <i_m_source_file_index>
2226

> <i_lp_mmshare_version>
43012

> <i_f3d_flags>
0

> <s_epik_input>
W0NIMl0xW0NIMl1bQ0gyXVtDQEhdKE4oW0NIM10pW0NIXTEyKVtDSDJdW0NASF0oW0NIMl0yKVtOSF1DKD1PKVtOSF1jM25bY0hdW2NIXW8z

> <s_epik_cmdline>
J2VwaWtfcHl0aG9uJywgJy1waCcsICc3LjAnLCAnLXRuJywgJzgnLCAnLW1hJywgJzIwMCcsICctbWV0YWxfYmluZGluZycsICctaW1hZScsICc8aW5maWxlLm1hZT4nLCAnLW9tYWUnLCAnPG91dGZpbGUubWFlPic=

> <r_lp_tautomer_probability>
0.107061

> <r_epik_Ionization_Penalty>
10.5612

> <r_epik_Ionization_Penalty_Charging>
7.48913

> <r_epik_Ionization_Penalty_Neutral>
3.07202

> <r_epik_State_Penalty>
5.6431

> <r_epik_Charging_Adjusted_Penalty>
13.1322

> <i_epik_Tot_Q>
0

> <i_epik_Tot_abs_Q>
2

> <r_epik_Metal_State_Penalty>
1.58163

> <b_epik_Metal_Only>
1

> <s_lp_Force_Field>
OPLS_2005

> <r_lp_Energy>
24.9808

> <b_lp_Chiralities_Consistent>
1

> <s_lp_Variant>
AV-unprocessed.smi:2226-19

> <Gold.Version>
5.8.1

> <Gold.Id.Protein>
6NUR|6NUR_protein|mol2

> <Gold.PLP.Fitness>
36.1315

> <Gold.PLP.PLP>
-32.9552

> <Gold.PLP.part.hbond>
-1.0298

> <Gold.PLP.part.metal>
0.0000

> <Gold.PLP.part.buried>
-6.2712

> <Gold.PLP.part.nonpolar>
-25.7664

> <Gold.PLP.part.repulsive>
0.2019

> <Gold.PLP.ligand.clash>
0.0000

> <Gold.PLP.ligand.torsion>
1.4159

> <Gold.PLP.Chemscore.Hbond>
2.0000

> <Gold.PLP.Chemscore.CHOScore>
0.0000

> <Gold.PLP.Chemscore.Metal>
0.0000

> <Gold.Chemscore.Hbonds>
donor molecule, donor type, donor heavy atom, donor atom, acceptor molecule, acceptor atom, score
      L1  H     2    39       P1  8028  2.00

> <Gold.PLP.Chemscore.Internal.Correction>
0.0080

> <Gold.Rescore>
     Score         DG    S(hbond)    S(metal)    S(lipo)     H(rot)  DE(clash)    DE(int)     intcor
     12.85     -14.19       0.95        0.00      69.12       1.00       0.15       1.19       ----

> <Gold.Chemscore.Fitness>
12.8474

> <Gold.Chemscore.DG>
-14.1851

> <Gold.Chemscore.ZeroCoef>
-5.4800

> <Gold.Chemscore.Hbond>
0.9516

> <Gold.Chemscore.Metal>
0.0000

> <Gold.Chemscore.Lipo>
69.1170

> <Gold.Chemscore.Internal_Hbond>
0.0000

> <Gold.Chemscore.DEClash>
0.1495

> <Gold.Chemscore.DEInternal>
1.1882

> <Gold.Chemscore.Rot>
1.0000

> <Gold.Chemscore.Internal.Correction>
   9.000000E+99

> <Gold.Chemscore.Hbonds>
donor molecule, donor type, donor heavy atom, donor atom, acceptor molecule, acceptor atom, score
      L1  H     2    39       P1  8028  0.65

> <Gold.Chemscore.Hbond.Weighted>
-3.1784

> <Gold.Chemscore.Metal.Weighted>
-0.0000

> <Gold.Chemscore.Lipo.Weighted>
-8.0867

> <Gold.Chemscore.Internal_Hbond.Weighted>
0.0000

> <Gold.Chemscore.DEClash.Weighted>
0.1495

> <Gold.Chemscore.DEInternal.Weighted>
1.1882

> <Gold.Chemscore.Rot.Weighted>
2.5600

> <Gold.Chemscore.Internal.Correction.Weighted>
   9.000000E+99

> <Gold.Protein.RotatedTorsions>
[ 6907 6896 6895 6894 ] final -168.33 input  -60.11 | X-H torsion
[ 7974 7965 7964 7962 ] final -114.45 input  175.53 | X-H torsion
[ 8008 7997 7996 7995 ] final -160.04 input   59.86 | X-H torsion
[ 10167 10162 10161 10158 ] final   19.45 input  -65.29 | X-H torsion
[ 10718 10713 10712 10709 ] final  174.23 input   66.30 | X-H torsion
[ 10763 10752 10751 10750 ] final   76.23 input  -60.55 | X-H torsion
[ 11005 11000 10999 10996 ] final -117.69 input  -57.11 | X-H torsion

> <Gold.Protein.ActiveResidues>
 VAL166  LYS551  ARG553  GLY616  TRP617  ASP618  TYR619  PRO620  LYS621  CYS622 
 ASP623  PHE694  ASN695  SER759  ASP760  ASP761  ALA762  ILE779  LEU786  VAL792 
 PHE793  MET794  SER795  GLU796  ALA797  LYS798  CYS799  TRP800  GLU811  SER814 

> <Gold.Protein.RotatedAtoms>
  151.4738  133.3562  159.2827 H   0  0  0  0  0  0  0  0  0  0  0  0  # atno 6907 bound_to 6896
  150.8943  134.8351  159.7326 H   0  0  0  0  0  0  0  0  0  0  0  0  # atno 6908 bound_to 6896
  152.4842  134.4651  159.9669 H   0  0  0  0  0  0  0  0  0  0  0  0  # atno 6909 bound_to 6896
  145.1200  140.8663  143.3819 H   0  0  0  0  0  0  0  0  0  0  0  0  # atno 7974 bound_to 7965
  155.7715  140.0852  157.2105 H   0  0  0  0  0  0  0  0  0  0  0  0  # atno 8008 bound_to 7997
  154.3996  140.1524  156.3004 H   0  0  0  0  0  0  0  0  0  0  0  0  # atno 8009 bound_to 7997
  155.8743  140.3424  155.5845 H   0  0  0  0  0  0  0  0  0  0  0  0  # atno 8010 bound_to 7997
  140.5578  143.9393  150.6621 H   0  0  0  0  0  0  0  0  0  0  0  0  # atno 10167 bound_to 10162
  156.9527  131.0036  151.2945 H   0  0  0  0  0  0  0  0  0  0  0  0  # atno 10718 bound_to 10713
  153.0711  135.4959  154.8305 H   0  0  0  0  0  0  0  0  0  0  0  0  # atno 10763 bound_to 10752
  154.7023  135.3004  154.9325 H   0  0  0  0  0  0  0  0  0  0  0  0  # atno 10764 bound_to 10752
  154.0045  135.6762  153.4814 H   0  0  0  0  0  0  0  0  0  0  0  0  # atno 10765 bound_to 10752
  141.0338  133.9941  157.3103 H   0  0  0  0  0  0  0  0  0  0  0  0  # atno 11005 bound_to 11000
  145.0751  139.3002  143.5812 LP  0  0  0  0  0  0  0  0  0  0  0  0  # atno 17320 bound_to 7965
  146.3521  140.0238  142.8656 LP  0  0  0  0  0  0  0  0  0  0  0  0  # atno 17321 bound_to 7965
  140.2836  143.3372  152.1128 LP  0  0  0  0  0  0  0  0  0  0  0  0  # atno 17342 bound_to 10162
  139.5056  144.6797  151.6039 LP  0  0  0  0  0  0  0  0  0  0  0  0  # atno 17343 bound_to 10162
  157.5711  130.8311  149.8393 LP  0  0  0  0  0  0  0  0  0  0  0  0  # atno 17370 bound_to 10713
  156.0356  130.3752  150.1570 LP  0  0  0  0  0  0  0  0  0  0  0  0  # atno 17371 bound_to 10713
  139.9226  135.0201  156.8119 LP  0  0  0  0  0  0  0  0  0  0  0  0  # atno 17394 bound_to 11000
  140.6360  133.9862  155.7684 LP  0  0  0  0  0  0  0  0  0  0  0  0  # atno 17395 bound_to 11000

$$$$
