AV-unprocessed.smi:2104|AV-procd|sdf|8583|dock4
  -GOLD-   2272011313D 1   1.00000     0.00000
 Structure written by MMmdl.
 43 44  0  0  0  0  0  0  0  0  1 V2000
  153.6134  137.7271  157.0329 C   0  0  0  0  0  0  0  0  0  0  0  0
  152.5227  138.1485  156.1087 C   0  0  0  0  0  0  0  0  0  0  0  0
  151.5357  137.4614  155.4596 C   0  0  0  0  0  0  0  0  0  0  0  0
  150.8509  138.4818  154.7475 C   0  0  0  0  0  0  0  0  0  0  0  0
  149.7344  138.1739  153.9288 N   0  0  0  0  0  0  0  0  0  0  0  0
  148.5585  138.8215  153.8697 C   0  0  0  0  0  0  0  0  0  0  0  0
  148.2488  139.7930  154.5601 O   0  0  0  0  0  0  0  0  0  0  0  0
  147.7490  138.2747  152.9509 N   0  0  0  0  0  0  0  0  0  0  0  0
  146.4180  138.7626  152.6045 C   0  0  0  0  0  0  0  0  0  0  0  0
  145.5809  137.6730  151.9192 C   0  0  0  0  0  0  0  0  0  0  0  0
  145.8189  136.4316  152.5645 O   0  0  0  0  0  0  0  0  0  0  0  0
  145.7636  135.2974  151.7111 C   0  0  2  0  0  0  0  0  0  0  0  0
  144.4705  135.3634  150.8708 C   0  0  0  0  0  0  0  0  0  0  0  0
  144.2733  134.0900  150.0354 C   0  0  0  0  0  0  0  0  0  0  0  0
  144.2790  132.8415  150.9282 C   0  0  0  0  0  0  0  0  0  0  0  0
  145.5701  132.7642  151.7568 C   0  0  0  0  0  0  0  0  0  0  0  0
  145.7836  134.0354  152.6031 C   0  0  1  0  0  0  0  0  0  0  0  0
  147.0851  133.9341  153.4152 C   0  0  0  0  0  0  0  0  0  0  0  0
  151.3733  139.6829  154.9433 N   0  0  0  0  0  0  0  0  0  0  0  0
  152.4472  139.4752  155.8171 O   0  0  0  0  0  0  0  0  0  0  0  0
  153.5736  136.6539  157.2195 H   0  0  0  0  0  0  0  0  0  0  0  0
  153.5277  138.2403  157.9907 H   0  0  0  0  0  0  0  0  0  0  0  0
  154.5903  137.9609  156.6093 H   0  0  0  0  0  0  0  0  0  0  0  0
  151.3385  136.4001  155.4913 H   0  0  0  0  0  0  0  0  0  0  0  0
  149.8489  137.3845  153.3109 H   0  0  0  0  0  0  0  0  0  0  0  0
  148.0862  137.4754  152.4352 H   0  0  0  0  0  0  0  0  0  0  0  0
  145.9294  139.0633  153.5315 H   0  0  0  0  0  0  0  0  0  0  0  0
  146.4755  139.6568  151.9818 H   0  0  0  0  0  0  0  0  0  0  0  0
  144.5246  137.9427  151.9421 H   0  0  0  0  0  0  0  0  0  0  0  0
  145.8712  137.5887  150.8711 H   0  0  0  0  0  0  0  0  0  0  0  0
  146.6341  135.2736  151.0522 H   0  0  0  0  0  0  0  0  0  0  0  0
  143.6136  135.4987  151.5322 H   0  0  0  0  0  0  0  0  0  0  0  0
  144.4853  136.2292  150.2094 H   0  0  0  0  0  0  0  0  0  0  0  0
  143.3349  134.1487  149.4834 H   0  0  0  0  0  0  0  0  0  0  0  0
  145.0672  134.0128  149.2915 H   0  0  0  0  0  0  0  0  0  0  0  0
  143.4160  132.8632  151.5949 H   0  0  0  0  0  0  0  0  0  0  0  0
  144.1753  131.9451  150.3161 H   0  0  0  0  0  0  0  0  0  0  0  0
  145.5340  131.8874  152.4043 H   0  0  0  0  0  0  0  0  0  0  0  0
  146.4201  132.6190  151.0885 H   0  0  0  0  0  0  0  0  0  0  0  0
  144.9561  134.1082  153.3109 H   0  0  0  0  0  0  0  0  0  0  0  0
  147.9559  133.8729  152.7621 H   0  0  0  0  0  0  0  0  0  0  0  0
  147.0829  133.0488  154.0513 H   0  0  0  0  0  0  0  0  0  0  0  0
  147.2166  134.8004  154.0641 H   0  0  0  0  0  0  0  0  0  0  0  0
  1  2  1  0  0  0  0
  1 21  1  0  0  0  0
  1 22  1  0  0  0  0
  1 23  1  0  0  0  0
  2 20  1  0  0  0  0
  2  3  2  0  0  0  0
  3  4  1  0  0  0  0
  3 24  1  0  0  0  0
  4  5  1  0  0  0  0
  4 19  2  0  0  0  0
  5  6  1  0  0  0  0
  5 25  1  0  0  0  0
  6  7  2  0  0  0  0
  6  8  1  0  0  0  0
  8  9  1  0  0  0  0
  8 26  1  0  0  0  0
  9 10  1  0  0  0  0
  9 27  1  0  0  0  0
  9 28  1  0  0  0  0
 10 11  1  0  0  0  0
 10 29  1  0  0  0  0
 10 30  1  0  0  0  0
 11 12  1  0  0  0  0
 12 17  1  0  0  0  0
 12 13  1  0  0  0  0
 12 31  1  0  0  0  0
 13 14  1  0  0  0  0
 13 32  1  0  0  0  0
 13 33  1  0  0  0  0
 14 15  1  0  0  0  0
 14 34  1  0  0  0  0
 14 35  1  0  0  0  0
 15 16  1  0  0  0  0
 15 36  1  0  0  0  0
 15 37  1  0  0  0  0
 16 17  1  0  0  0  0
 16 38  1  0  0  0  0
 16 39  1  0  0  0  0
 17 18  1  0  0  0  0
 17 40  1  0  0  0  0
 18 41  1  0  0  0  0
 18 42  1  0  0  0  0
 18 43  1  0  0  0  0
 19 20  1  0  0  0  0
M  END
> <s_m_source_file>
AV-unprocessed.smi

> <i_m_source_file_index>
2104

> <i_lp_mmshare_version>
43012

> <i_f3d_flags>
0

> <s_epik_input>
W0NIM11jMVtjSF1jKG5vMSlbTkhdQyg9TylbTkhdW0NIMl1bQ0gyXU9bQ0BASF0yW0NIMl1bQ0gyXVtDSDJdW0NIMl1bQ0BIXTJbQ0gzXQ==

> <s_epik_cmdline>
J2VwaWtfcHl0aG9uJywgJy1waCcsICc3LjAnLCAnLXRuJywgJzgnLCAnLW1hJywgJzIwMCcsICctbWV0YWxfYmluZGluZycsICctaW1hZScsICc8aW5maWxlLm1hZT4nLCAnLW9tYWUnLCAnPG91dGZpbGUubWFlPic=

> <r_lp_tautomer_probability>
1

> <r_epik_Ionization_Penalty>
2.94418e-05

> <r_epik_Ionization_Penalty_Charging>
0

> <r_epik_Ionization_Penalty_Neutral>
2.94418e-05

> <r_epik_State_Penalty>
-0

> <r_epik_Charging_Adjusted_Penalty>
0

> <i_epik_Tot_Q>
0

> <i_epik_Tot_abs_Q>
0

> <r_epik_Metal_State_Penalty>
0.0104148

> <b_epik_Metal_Only>
0

> <s_lp_Force_Field>
OPLS_2005

> <r_lp_Energy>
8.87971

> <b_lp_Chiralities_Consistent>
1

> <s_lp_Variant>
AV-unprocessed.smi:2104-1

> <Gold.Version>
5.8.1

> <Gold.Id.Protein>
6NUR|6NUR_protein|mol2

> <Gold.PLP.Fitness>
41.0677

> <Gold.PLP.PLP>
-31.1123

> <Gold.PLP.part.hbond>
-5.3323

> <Gold.PLP.part.metal>
0.0000

> <Gold.PLP.part.buried>
1.0064

> <Gold.PLP.part.nonpolar>
-28.0949

> <Gold.PLP.part.repulsive>
0.6692

> <Gold.PLP.ligand.clash>
0.0000

> <Gold.PLP.ligand.torsion>
0.8885

> <Gold.PLP.Chemscore.Hbond>
3.8960

> <Gold.PLP.Chemscore.CHOScore>
0.0000

> <Gold.PLP.Chemscore.Metal>
0.0000

> <Gold.Chemscore.Hbonds>
donor molecule, donor type, donor heavy atom, donor atom, acceptor molecule, acceptor atom, score
      L1  H     5    25       P1  7948  0.93
      L1  H     8    26       P1  7948  1.00
      P1  H  7989  7998       L1    19  1.00
      P1  H  7997  8009       L1    20  0.96

> <Gold.PLP.Chemscore.Internal.Correction>
0.0445

> <Gold.Rescore>
     Score         DG    S(hbond)    S(metal)    S(lipo)     H(rot)  DE(clash)    DE(int)     intcor
     17.63     -19.62       3.18        0.00      68.31       1.75       0.95       1.04       ----

> <Gold.Chemscore.Fitness>
17.6309

> <Gold.Chemscore.DG>
-19.6214

> <Gold.Chemscore.ZeroCoef>
-5.4800

> <Gold.Chemscore.Hbond>
3.1843

> <Gold.Chemscore.Metal>
0.0000

> <Gold.Chemscore.Lipo>
68.3087

> <Gold.Chemscore.Internal_Hbond>
0.0000

> <Gold.Chemscore.DEClash>
0.9496

> <Gold.Chemscore.DEInternal>
1.0409

> <Gold.Chemscore.Rot>
1.7524

> <Gold.Chemscore.Internal.Correction>
   9.000000E+99

> <Gold.Chemscore.Hbonds>
donor molecule, donor type, donor heavy atom, donor atom, acceptor molecule, acceptor atom, score
      L1  H     5    25       P1  7948  0.42
      L1  H     8    26       P1  7948  0.99
      P1  H  7989  7998       L1    19  0.93
      P1  H  7997  8009       L1    20  0.36

> <Gold.Chemscore.Hbond.Weighted>
-10.6355

> <Gold.Chemscore.Metal.Weighted>
-0.0000

> <Gold.Chemscore.Lipo.Weighted>
-7.9921

> <Gold.Chemscore.Internal_Hbond.Weighted>
0.0000

> <Gold.Chemscore.DEClash.Weighted>
0.9496

> <Gold.Chemscore.DEInternal.Weighted>
1.0409

> <Gold.Chemscore.Rot.Weighted>
4.4861

> <Gold.Chemscore.Internal.Correction.Weighted>
   9.000000E+99

> <Gold.Protein.RotatedTorsions>
[ 6907 6896 6895 6894 ] final   90.63 input  -60.11 | X-H torsion
[ 7974 7965 7964 7962 ] final -131.19 input  175.53 | X-H torsion
[ 8008 7997 7996 7995 ] final -153.30 input   59.86 | X-H torsion
[ 10167 10162 10161 10158 ] final  162.64 input  -65.29 | X-H torsion
[ 10718 10713 10712 10709 ] final  -89.30 input   66.30 | X-H torsion
[ 10763 10752 10751 10750 ] final  -78.01 input  -60.55 | X-H torsion
[ 11005 11000 10999 10996 ] final   99.15 input  -57.11 | X-H torsion

> <Gold.Protein.ActiveResidues>
 VAL166  LYS551  ARG553  GLY616  TRP617  ASP618  TYR619  PRO620  LYS621  CYS622 
 ASP623  PHE694  ASN695  SER759  ASP760  ASP761  ALA762  ILE779  LEU786  VAL792 
 PHE793  MET794  SER795  GLU796  ALA797  LYS798  CYS799  TRP800  GLU811  SER814 

> <Gold.Protein.RotatedAtoms>
  152.5446  134.1781  159.8623 H   0  0  0  0  0  0  0  0  0  0  0  0  # atno 6907 bound_to 6896
  151.1786  133.4732  159.2601 H   0  0  0  0  0  0  0  0  0  0  0  0  # atno 6908 bound_to 6896
  151.1202  135.0086  159.8590 H   0  0  0  0  0  0  0  0  0  0  0  0  # atno 6909 bound_to 6896
  144.9402  140.7230  143.4851 H   0  0  0  0  0  0  0  0  0  0  0  0  # atno 7974 bound_to 7965
  155.6687  140.0731  157.2528 H   0  0  0  0  0  0  0  0  0  0  0  0  # atno 8008 bound_to 7997
  154.4127  140.1703  156.1907 H   0  0  0  0  0  0  0  0  0  0  0  0  # atno 8009 bound_to 7997
  155.9635  140.3368  155.6514 H   0  0  0  0  0  0  0  0  0  0  0  0  # atno 8010 bound_to 7997
  139.4863  144.4418  151.8943 H   0  0  0  0  0  0  0  0  0  0  0  0  # atno 10167 bound_to 10162
  155.9984  130.4867  150.5150 H   0  0  0  0  0  0  0  0  0  0  0  0  # atno 10718 bound_to 10713
  154.5204  135.5744  153.6676 H   0  0  0  0  0  0  0  0  0  0  0  0  # atno 10763 bound_to 10752
  152.9916  135.6180  154.2762 H   0  0  0  0  0  0  0  0  0  0  0  0  # atno 10764 bound_to 10752
  154.2683  135.2854  155.2729 H   0  0  0  0  0  0  0  0  0  0  0  0  # atno 10765 bound_to 10752
  139.8771  134.9082  156.4563 H   0  0  0  0  0  0  0  0  0  0  0  0  # atno 11005 bound_to 11000
  145.3003  139.1853  143.4693 LP  0  0  0  0  0  0  0  0  0  0  0  0  # atno 17320 bound_to 7965
  146.3283  140.2993  142.8620 LP  0  0  0  0  0  0  0  0  0  0  0  0  # atno 17321 bound_to 7965
  140.3870  144.2664  150.5903 LP  0  0  0  0  0  0  0  0  0  0  0  0  # atno 17342 bound_to 10162
  140.5181  143.2273  151.8431 LP  0  0  0  0  0  0  0  0  0  0  0  0  # atno 17343 bound_to 10162
  157.3118  131.0665  151.1995 LP  0  0  0  0  0  0  0  0  0  0  0  0  # atno 17370 bound_to 10713
  157.2939  130.6809  149.6128 LP  0  0  0  0  0  0  0  0  0  0  0  0  # atno 17371 bound_to 10713
  140.8895  133.7858  155.9556 LP  0  0  0  0  0  0  0  0  0  0  0  0  # atno 17394 bound_to 11000
  140.8768  134.2660  157.5164 LP  0  0  0  0  0  0  0  0  0  0  0  0  # atno 17395 bound_to 11000

$$$$
