#       Name:                AV-unprocessed.smi:615
#       Creating user name   scv26
#       Creation time:       Thu Mar 26 23:59:45 2020


#       File generated by GOLD software.
#

@<TRIPOS>MOLECULE
AV-unprocessed.smi:615
    30    31     1
SMALL
NO_CHARGES


@<TRIPOS>ATOM
      1 ****        -4.4853   1.7326  -2.0334 C.3            1 S1                 0.0000
      2 ****        -4.1796   0.2451  -1.8129 C.3            1 S1                 0.0000
      3 ****        -2.7457   0.0017  -1.7036 N.am           1 S1                 0.0000
      4 ****        -2.0157   0.1848  -0.5936 C.2            1 S1                 0.0000
      5 ****        -2.4890   0.5833   0.4709 O.2            1 S1                 0.0000
      6 ****        -0.7232  -0.1220  -0.8041 N.am           1 S1                 0.0000
      7 ****         0.3604  -0.0413   0.1107 C.2            1 S1                 0.0000
      8 ****         0.2344   0.3745   1.3784 N.2            1 S1                 0.0000
      9 ****         1.4481   0.3627   2.0508 N.2            1 S1                 0.0000
     10 ****         2.4540  -0.0618   1.2768 C.2            1 S1                 0.0000
     11 ****         3.8563  -0.1594   1.7786 C.3            1 S1                 0.0000
     12 ****         4.7859  -1.2643   1.3263 C.3            1 S1                 0.0000
     13 ****         4.2581  -1.2560   2.7383 C.3            1 S1                 0.0000
     14 ****         1.9893  -0.4880  -0.3673 S.3            1 S1                 0.0000
     15 ****        -5.5572   1.8935  -2.1492 H              1 S1                 0.0000
     16 ****        -3.9940   2.1078  -2.9315 H              1 S1                 0.0000
     17 ****        -4.1504   2.3370  -1.1898 H              1 S1                 0.0000
     18 ****        -4.6950  -0.1215  -0.9235 H              1 S1                 0.0000
     19 ****        -4.5598  -0.3363  -2.6530 H              1 S1                 0.0000
     20 ****        -2.2765  -0.3286  -2.5342 H              1 S1                 0.0000
     21 ****        -0.4845  -0.4436  -1.7304 H              1 S1                 0.0000
     22 ****         4.2805   0.8315   1.9292 H              1 S1                 0.0000
     23 ****         4.3942  -2.0251   0.6542 H              1 S1                 0.0000
     24 ****         5.8336  -1.0089   1.1804 H              1 S1                 0.0000
     25 ****         4.9526  -0.9959   3.5345 H              1 S1                 0.0000
     26 ****         3.5080  -2.0006   2.9979 H              1 S1                 0.0000
     27 ****        -3.4654   0.7883   0.5383 LP             1 S1                 0.0000
     28 ****        -1.8970   0.7019   1.2680 LP             1 S1                 0.0000
     29 ****        -0.6310   0.6592   1.7906 LP             1 S1                 0.0000
     30 ****         1.5586   0.6398   3.0052 LP             1 S1                 0.0000
@<TRIPOS>BOND
    1    1    2 1     
    2    1   15 1     
    3    1   16 1     
    4    1   17 1     
    5    2    3 1     
    6    2   18 1     
    7    2   19 1     
    8    3    4 am    
    9    3   20 1     
   10    4    5 2     
   11    4    6 am    
   12    6    7 1     
   13    6   21 1     
   14    7   14 1     
   15    7    8 2     
   16    8    9 1     
   17    9   10 2     
   18   10   11 1     
   19   10   14 1     
   20   11   13 1     
   21   11   12 1     
   22   11   22 1     
   23   12   13 1     
   24   12   23 1     
   25   12   24 1     
   26   13   25 1     
   27   13   26 1     
   28    5   27 1     
   29    5   28 1     
   30    8   29 1     
   31    9   30 1     
@<TRIPOS>SUBSTRUCTURE
      1 S1             1
@<TRIPOS>SET
LONE_PAIRS      STATIC     ATOMS    <user>   **** ""
4 27 28 29 30
DONOR_HYDROGENS      STATIC     ATOMS    <user>   **** ""
2 20 21
ATOM$BLUE        STATIC     ATOMS    COLORGROUP SYSTEM
4 27 28 29 30
ATOM$RED        STATIC     ATOMS    COLORGROUP SYSTEM
2 20 21
