#       Name:                AV-unprocessed.smi:1419
#       Creating user name   scv26
#       Creation time:       Fri Mar 27 05:42:35 2020


#       File generated by GOLD software.
#

@<TRIPOS>MOLECULE
AV-unprocessed.smi:1419
    46    47     1
SMALL
NO_CHARGES


@<TRIPOS>ATOM
      1 ****        -3.8762  -0.8655   1.3666 C.3            1 S1                 0.0000
      2 ****        -2.9314  -0.3296   0.2828 C.3            1 S1                 0.0000
      3 ****        -2.8124  -1.3154  -0.8991 C.3            1 S1                 0.0000
      4 ****        -1.9502  -0.8203  -1.9575 N.pl3          1 S1                 0.0000
      5 ****        -0.6766  -1.2719  -2.2785 C.2            1 S1                 0.0000
      6 ****        -0.2397  -0.5008  -3.3316 C.2            1 S1                 0.0000
      7 ****        -1.2255   0.4198  -3.6786 N.2            1 S1                 0.0000
      8 ****        -2.2092   0.1684  -2.8244 C.2            1 S1                 0.0000
      9 ****        -1.6171  -0.0786   0.8734 N.am           1 S1                 0.0000
     10 ****        -0.8520   1.0067   0.6600 C.2            1 S1                 0.0000
     11 ****        -1.2499   1.9758   0.0121 O.2            1 S1                 0.0000
     12 ****         0.3825   0.9452   1.2167 N.am           1 S1                 0.0000
     13 ****         1.0351  -0.2518   1.7639 C.3            1 S1                 0.0000
     14 ****         2.0819  -0.7327   0.7383 C.3            1 S1                 0.0000
     15 ****         2.8601  -1.9561   1.2329 C.3            1 S1                 0.0000
     16 ****         3.0145   0.3207   0.4950 O.3            1 S1                 0.0000
     17 ****         2.4156   1.5246   0.0144 C.3            1 S1                 0.0000
     18 ****         3.5260   2.5547  -0.2169 C.3            1 S1                 0.0000
     19 ****         1.3713   2.0106   1.0402 C.3            1 S1                 0.0000
     20 ****        -4.8755  -1.0361   0.9651 H              1 S1                 0.0000
     21 ****        -3.9699  -0.1581   2.1914 H              1 S1                 0.0000
     22 ****        -3.5169  -1.8102   1.7765 H              1 S1                 0.0000
     23 ****        -3.3610   0.6036  -0.0856 H              1 S1                 0.0000
     24 ****        -2.4262  -2.2766  -0.5565 H              1 S1                 0.0000
     25 ****        -3.7965  -1.5088  -1.3280 H              1 S1                 0.0000
     26 ****        -0.1965  -2.0763  -1.7411 H              1 S1                 0.0000
     27 ****         0.7001  -0.5381  -3.8623 H              1 S1                 0.0000
     28 ****        -3.1357   0.7236  -2.8219 H              1 S1                 0.0000
     29 ****        -1.2260  -0.8206   1.4350 H              1 S1                 0.0000
     30 ****         1.5212   0.0042   2.7067 H              1 S1                 0.0000
     31 ****         0.3444  -1.0604   2.0028 H              1 S1                 0.0000
     32 ****         1.5869  -0.9905  -0.1994 H              1 S1                 0.0000
     33 ****         2.1922  -2.7970   1.4208 H              1 S1                 0.0000
     34 ****         3.3921  -1.7366   2.1591 H              1 S1                 0.0000
     35 ****         3.5954  -2.2745   0.4936 H              1 S1                 0.0000
     36 ****         1.9259   1.3199  -0.9397 H              1 S1                 0.0000
     37 ****         3.1179   3.4911  -0.5978 H              1 S1                 0.0000
     38 ****         4.2512   2.1883  -0.9437 H              1 S1                 0.0000
     39 ****         4.0612   2.7732   0.7076 H              1 S1                 0.0000
     40 ****         0.9229   2.9487   0.7096 H              1 S1                 0.0000
     41 ****         1.8479   2.2286   1.9973 H              1 S1                 0.0000
     42 ****        -1.1983   1.1092  -4.4024 LP             1 S1                 0.0000
     43 ****        -2.1714   1.9732  -0.3764 LP             1 S1                 0.0000
     44 ****        -0.6515   2.7651  -0.1253 LP             1 S1                 0.0000
     45 ****         3.6758   0.0047  -0.1853 LP             1 S1                 0.0000
     46 ****         3.4889   0.5251   1.3513 LP             1 S1                 0.0000
@<TRIPOS>BOND
    1    1    2 1     
    2    1   20 1     
    3    1   21 1     
    4    1   22 1     
    5    2    3 1     
    6    2    9 1     
    7    2   23 1     
    8    3    4 1     
    9    3   24 1     
   10    3   25 1     
   11    4    8 1     
   12    4    5 1     
   13    5    6 2     
   14    5   26 1     
   15    6    7 1     
   16    6   27 1     
   17    7    8 2     
   18    8   28 1     
   19    9   10 am    
   20    9   29 1     
   21   10   11 2     
   22   10   12 am    
   23   12   19 1     
   24   12   13 1     
   25   13   14 1     
   26   13   30 1     
   27   13   31 1     
   28   14   15 1     
   29   14   16 1     
   30   14   32 1     
   31   15   33 1     
   32   15   34 1     
   33   15   35 1     
   34   16   17 1     
   35   17   18 1     
   36   17   19 1     
   37   17   36 1     
   38   18   37 1     
   39   18   38 1     
   40   18   39 1     
   41   19   40 1     
   42   19   41 1     
   43    7   42 1     
   44   11   43 1     
   45   11   44 1     
   46   16   45 1     
   47   16   46 1     
@<TRIPOS>SUBSTRUCTURE
      1 S1             1
@<TRIPOS>SET
LONE_PAIRS      STATIC     ATOMS    <user>   **** ""
5 42 43 44 45 46
DONOR_HYDROGENS      STATIC     ATOMS    <user>   **** ""
1 29
ATOM$BLUE        STATIC     ATOMS    COLORGROUP SYSTEM
5 42 43 44 45 46
ATOM$RED        STATIC     ATOMS    COLORGROUP SYSTEM
1 29
