#       Name:                AV-unprocessed.smi:144
#       Creating user name   scv26
#       Creation time:       Thu Mar 26 18:35:20 2020


#       File generated by GOLD software.
#

@<TRIPOS>MOLECULE
AV-unprocessed.smi:144
    54    56     1
SMALL
NO_CHARGES


@<TRIPOS>ATOM
      1 ****        -0.5729   3.3025  -2.0732 O.2            1 S1                 0.0000
      2 ****        -0.0501   2.6104  -1.2013 C.2            1 S1                 0.0000
      3 ****         1.4019   2.9216  -0.7914 C.3            1 S1                 0.0000
      4 ****         1.9667   2.0243   0.2441 N.am           1 S1                 0.0000
      5 ****         1.8585   2.4010   1.6059 C.2            1 S1                 0.0000
      6 ****         1.3102   3.4534   1.9355 O.2            1 S1                 0.0000
      7 ****         2.4210   1.4587   2.5669 C.2            1 S1                 0.0000
      8 ****         2.3729   1.7399   3.8799 F              1 S1                 0.0000
      9 ****         2.9847   0.3029   2.1595 C.2            1 S1                 0.0000
     10 ****         3.0671  -0.0604   0.8272 N.am           1 S1                 0.0000
     11 ****         3.6804  -1.3729   0.3879 C.3            1 S1                 0.0000
     12 ****         2.5807  -2.3779  -0.0021 C.3            1 S1                 0.0000
     13 ****         2.9777  -3.6194   0.7709 C.3            1 S1                 0.0000
     14 ****         3.6593  -3.0220   1.9927 C.3            1 S1                 0.0000
     15 ****         4.4006  -1.9390   1.4457 O.3            1 S1                 0.0000
     16 ****         2.5602   0.8060  -0.1647 C.2            1 S1                 0.0000
     17 ****         2.6184   0.4977  -1.3572 O.2            1 S1                 0.0000
     18 ****        -0.6601   1.5762  -0.5888 N.am           1 S1                 0.0000
     19 ****        -1.9609   1.0480  -0.7993 C.ar           1 S1                 0.0000
     20 ****        -2.1712  -0.2945  -0.4260 C.ar           1 S1                 0.0000
     21 ****        -3.4341  -0.9003  -0.5956 C.ar           1 S1                 0.0000
     22 ****        -3.6599  -2.3516  -0.1996 C.3            1 S1                 0.0000
     23 ****        -4.2706  -2.3926   0.9838 F              1 S1                 0.0000
     24 ****        -4.4279  -2.9628  -1.1017 F              1 S1                 0.0000
     25 ****        -2.5088  -3.0193  -0.1107 F              1 S1                 0.0000
     26 ****        -4.4999  -0.1419  -1.1227 C.ar           1 S1                 0.0000
     27 ****        -4.3130   1.2115  -1.4765 C.ar           1 S1                 0.0000
     28 ****        -5.4637   2.0324  -2.0402 C.3            1 S1                 0.0000
     29 ****        -5.4250   3.2771  -1.5638 F              1 S1                 0.0000
     30 ****        -5.3608   2.0771  -3.3678 F              1 S1                 0.0000
     31 ****        -6.6440   1.5008  -1.7201 F              1 S1                 0.0000
     32 ****        -3.0414   1.8018  -1.3154 C.ar           1 S1                 0.0000
     33 ****         2.0190   2.8993  -1.6911 H              1 S1                 0.0000
     34 ****         1.4457   3.9648  -0.4749 H              1 S1                 0.0000
     35 ****         3.3806  -0.3512   2.9211 H              1 S1                 0.0000
     36 ****         4.3688  -1.1256  -0.4223 H              1 S1                 0.0000
     37 ****         1.6054  -2.0188   0.3310 H              1 S1                 0.0000
     38 ****         2.5532  -2.5307  -1.0812 H              1 S1                 0.0000
     39 ****         2.1297  -4.2566   1.0229 H              1 S1                 0.0000
     40 ****         3.6922  -4.2091   0.1950 H              1 S1                 0.0000
     41 ****         2.9211  -2.6513   2.7051 H              1 S1                 0.0000
     42 ****         4.3074  -3.7330   2.5055 H              1 S1                 0.0000
     43 ****        -0.0818   1.0512   0.0509 H              1 S1                 0.0000
     44 ****        -1.3510  -0.8638  -0.0129 H              1 S1                 0.0000
     45 ****        -5.4673  -0.6051  -1.2486 H              1 S1                 0.0000
     46 ****        -2.9190   2.8403  -1.5811 H              1 S1                 0.0000
     47 ****        -0.0566   4.0463  -2.4977 LP             1 S1                 0.0000
     48 ****        -1.5143   3.1215  -2.3577 LP             1 S1                 0.0000
     49 ****         0.9312   4.0600   1.2366 LP             1 S1                 0.0000
     50 ****         1.2440   3.7013   2.9020 LP             1 S1                 0.0000
     51 ****         4.5541  -1.2485   2.1525 LP             1 S1                 0.0000
     52 ****         5.2811  -2.2730   1.1093 LP             1 S1                 0.0000
     53 ****         2.2431   1.1120  -2.0514 LP             1 S1                 0.0000
     54 ****         3.0409  -0.3666  -1.6302 LP             1 S1                 0.0000
@<TRIPOS>BOND
    1    1    2 2     
    2    2    3 1     
    3    2   18 am    
    4    3    4 1     
    5    3   33 1     
    6    3   34 1     
    7    4   16 am    
    8    4    5 am    
    9    5    6 2     
   10    5    7 1     
   11    7    8 1     
   12    7    9 2     
   13    9   10 1     
   14    9   35 1     
   15   10   11 1     
   16   10   16 am    
   17   11   15 1     
   18   11   12 1     
   19   11   36 1     
   20   12   13 1     
   21   12   37 1     
   22   12   38 1     
   23   13   14 1     
   24   13   39 1     
   25   13   40 1     
   26   14   15 1     
   27   14   41 1     
   28   14   42 1     
   29   16   17 2     
   30   18   19 1     
   31   18   43 1     
   32   19   32 ar    
   33   19   20 ar    
   34   20   21 ar    
   35   20   44 1     
   36   21   22 1     
   37   21   26 ar    
   38   22   23 1     
   39   22   24 1     
   40   22   25 1     
   41   26   27 ar    
   42   26   45 1     
   43   27   28 1     
   44   27   32 ar    
   45   28   29 1     
   46   28   30 1     
   47   28   31 1     
   48   32   46 1     
   49    1   47 1     
   50    1   48 1     
   51    6   49 1     
   52    6   50 1     
   53   15   51 1     
   54   15   52 1     
   55   17   53 1     
   56   17   54 1     
@<TRIPOS>SUBSTRUCTURE
      1 S1             1
@<TRIPOS>SET
LONE_PAIRS      STATIC     ATOMS    <user>   **** ""
8 47 48 49 50 51 52 53 54
DONOR_HYDROGENS      STATIC     ATOMS    <user>   **** ""
1 43
ATOM$BLUE        STATIC     ATOMS    COLORGROUP SYSTEM
8 47 48 49 50 51 52 53 54
ATOM$RED        STATIC     ATOMS    COLORGROUP SYSTEM
1 43
