AV-unprocessed.smi:4|AV-procd|sdf|33|dock10
  -GOLD-   2262015143D 1   1.00000     0.00000
 Structure written by MMmdl.
 44 45  0  0  0  0  0  0  0  0  2 V2000
  149.6377  136.5823  157.2211 C   0  0  0  0  0  0  0  0  0  0  0  0
  150.4246  135.8359  156.1123 C   0  0  0  0  0  0  0  0  0  0  0  0
  150.4447  136.8035  154.9006 C   0  0  0  0  0  0  0  0  0  0  0  0
  151.8528  135.6367  156.6825 C   0  0  0  0  0  0  0  0  0  0  0  0
  149.8080  134.5417  155.7509 N   0  0  0  0  0  0  0  0  0  0  0  0
  149.3984  134.2061  154.4580 C   0  0  0  0  0  0  0  0  0  0  0  0
  148.8435  133.0182  154.1056 C   0  0  0  0  0  0  0  0  0  0  0  0
  148.3971  132.7356  152.6753 C   0  0  0  0  0  0  0  0  0  0  0  0
  147.4084  133.7266  152.1967 N   0  3  0  0  0  0  0  0  0  0  0  0
  146.8430  133.4660  150.8549 C   0  0  0  0  0  0  0  0  0  0  0  0
  145.6725  132.4790  150.9204 C   0  0  0  0  0  0  0  0  0  0  0  0
  146.2259  131.2241  151.2605 O   0  0  0  0  0  0  0  0  0  0  0  0
  144.4760  132.8890  151.7987 C   0  0  0  0  0  0  0  0  0  0  0  0
  143.7521  133.3686  150.5404 C   0  0  0  0  0  0  0  0  0  0  0  0
  144.6822  132.4567  149.7398 C   0  0  0  0  0  0  0  0  0  0  0  0
  148.6181  131.9992  155.1309 C   0  0  0  0  0  0  0  0  0  0  0  0
  148.1186  130.8917  154.9406 O   0  0  0  0  0  0  0  0  0  0  0  0
  149.0304  132.3582  156.4117 N   0  0  0  0  0  0  0  0  0  0  0  0
  149.6145  133.5697  156.7741 C   0  0  0  0  0  0  0  0  0  0  0  0
  149.9274  133.7300  157.9524 O   0  0  0  0  0  0  0  0  0  0  0  0
  148.8951  131.6783  157.1463 H   0  0  0  0  0  0  0  0  0  0  0  0
  150.1094  137.5342  157.4693 H   0  0  0  0  0  0  0  0  0  0  0  0
  149.5953  136.0102  158.1490 H   0  0  0  0  0  0  0  0  0  0  0  0
  148.6183  136.8172  156.9117 H   0  0  0  0  0  0  0  0  0  0  0  0
  149.4514  136.9050  154.4619 H   0  0  0  0  0  0  0  0  0  0  0  0
  151.1244  136.4958  154.1081 H   0  0  0  0  0  0  0  0  0  0  0  0
  150.7692  137.8009  155.1993 H   0  0  0  0  0  0  0  0  0  0  0  0
  152.2521  136.5713  157.0779 H   0  0  0  0  0  0  0  0  0  0  0  0
  152.5740  135.2960  155.9420 H   0  0  0  0  0  0  0  0  0  0  0  0
  151.8537  134.9143  157.4995 H   0  0  0  0  0  0  0  0  0  0  0  0
  149.5140  134.9052  153.6462 H   0  0  0  0  0  0  0  0  0  0  0  0
  149.2452  132.6853  151.9910 H   0  0  0  0  0  0  0  0  0  0  0  0
  147.9263  131.7525  152.6441 H   0  0  0  0  0  0  0  0  0  0  0  0
  146.6403  133.7402  152.8524 H   0  0  0  0  0  0  0  0  0  0  0  0
  146.5161  134.4037  150.4046 H   0  0  0  0  0  0  0  0  0  0  0  0
  147.6351  133.0750  150.2149 H   0  0  0  0  0  0  0  0  0  0  0  0
  147.1573  131.2807  151.1074 H   0  0  0  0  0  0  0  0  0  0  0  0
  143.9785  132.0405  152.2724 H   0  0  0  0  0  0  0  0  0  0  0  0
  144.6870  133.6782  152.5212 H   0  0  0  0  0  0  0  0  0  0  0  0
  142.6962  133.1014  150.4908 H   0  0  0  0  0  0  0  0  0  0  0  0
  143.9145  134.4278  150.3350 H   0  0  0  0  0  0  0  0  0  0  0  0
  145.0536  132.9007  148.8159 H   0  0  0  0  0  0  0  0  0  0  0  0
  144.2512  131.4701  149.5602 H   0  0  0  0  0  0  0  0  0  0  0  0
  147.8367  134.6415  152.1903 H   0  0  0  0  0  0  0  0  0  0  0  0
  1  2  1  0  0  0  0
  1 22  1  0  0  0  0
  1 23  1  0  0  0  0
  1 24  1  0  0  0  0
  2  3  1  0  0  0  0
  2  4  1  0  0  0  0
  2  5  1  0  0  0  0
  3 25  1  0  0  0  0
  3 26  1  0  0  0  0
  3 27  1  0  0  0  0
  4 28  1  0  0  0  0
  4 29  1  0  0  0  0
  4 30  1  0  0  0  0
  5 19  1  0  0  0  0
  5  6  1  0  0  0  0
  6  7  2  0  0  0  0
  6 31  1  0  0  0  0
  7  8  1  0  0  0  0
  7 16  1  0  0  0  0
  8  9  1  0  0  0  0
  8 32  1  0  0  0  0
  8 33  1  0  0  0  0
  9 10  1  0  0  0  0
  9 34  1  0  0  0  0
  9 44  1  0  0  0  0
 10 11  1  0  0  0  0
 10 35  1  0  0  0  0
 10 36  1  0  0  0  0
 11 15  1  0  0  0  0
 11 12  1  0  0  0  0
 11 13  1  0  0  0  0
 12 37  1  0  0  0  0
 13 14  1  0  0  0  0
 13 38  1  0  0  0  0
 13 39  1  0  0  0  0
 14 15  1  0  0  0  0
 14 40  1  0  0  0  0
 14 41  1  0  0  0  0
 15 42  1  0  0  0  0
 15 43  1  0  0  0  0
 16 17  2  0  0  0  0
 16 18  1  0  0  0  0
 18 21  1  0  0  0  0
 18 19  1  0  0  0  0
 19 20  2  0  0  0  0
M  CHG  1   9   1
M  END
> <s_m_source_file>
AV-unprocessed.smi

> <i_m_source_file_index>
4

> <i_lp_mmshare_version>
43012

> <i_f3d_flags>
0

> <s_epik_input>
W0NIM11DKFtDSDNdKShbQ0gzXSluMVtjSF1jKGMoPU8pW25IXWMxPU8pW0NIMl1bTkhdW0NIMl1DMihbT0hdKVtDSDJdW0NIMl1bQ0gyXTI=

> <s_epik_cmdline>
J2VwaWtfcHl0aG9uJywgJy1waCcsICc3LjAnLCAnLXRuJywgJzgnLCAnLW1hJywgJzIwMCcsICctbWV0YWxfYmluZGluZycsICctaW1hZScsICc8aW5maWxlLm1hZT4nLCAnLW9tYWUnLCAnPG91dGZpbGUubWFlPic=

> <r_lp_tautomer_probability>
0.999537

> <r_epik_Ionization_Penalty>
0.0188443

> <r_epik_Ionization_Penalty_Charging>
0.0188443

> <r_epik_Ionization_Penalty_Neutral>
1.97485e-08

> <r_epik_State_Penalty>
0.0134361

> <r_epik_Charging_Adjusted_Penalty>
0.0322804

> <i_epik_Tot_Q>
1

> <i_epik_Tot_abs_Q>
1

> <r_epik_Metal_State_Penalty>
0.855907

> <b_epik_Metal_Only>
0

> <s_lp_Force_Field>
OPLS_2005

> <r_lp_Energy>
23.9463

> <b_lp_Chiralities_Consistent>
1

> <s_lp_Variant>
AV-unprocessed.smi:4-1

> <Gold.Version>
5.8.1

> <Gold.Id.Protein>
6NUR|6NUR_protein|mol2

> <Gold.PLP.Fitness>
44.9721

> <Gold.PLP.PLP>
-30.5951

> <Gold.PLP.part.hbond>
-3.0000

> <Gold.PLP.part.metal>
0.0000

> <Gold.PLP.part.buried>
-3.7957

> <Gold.PLP.part.nonpolar>
-24.0373

> <Gold.PLP.part.repulsive>
0.0656

> <Gold.PLP.ligand.clash>
0.0000

> <Gold.PLP.ligand.torsion>
0.2854

> <Gold.PLP.Chemscore.Hbond>
4.0000

> <Gold.PLP.Chemscore.CHOScore>
0.9317

> <Gold.PLP.Chemscore.Metal>
0.0000

> <Gold.Chemscore.Hbonds>
donor molecule, donor type, donor heavy atom, donor atom, acceptor molecule, acceptor atom, score
      L1  H     9    44       P1  7948  2.00
      L1  H    12    37       P1 10747  0.96
      P1  H  6896  6908       L1    20  1.00
      L1  C     6    31       P1  7948  0.59

> <Gold.PLP.Chemscore.Internal.Correction>
0.1527

> <Gold.Rescore>
     Score         DG    S(hbond)    S(metal)    S(lipo)     H(rot)  DE(clash)    DE(int)     intcor
     14.14     -16.12       2.73        0.00      68.34       2.53       0.00       1.98       ----

> <Gold.Chemscore.Fitness>
14.1406

> <Gold.Chemscore.DG>
-16.1239

> <Gold.Chemscore.ZeroCoef>
-5.4800

> <Gold.Chemscore.Hbond>
2.7322

> <Gold.Chemscore.Metal>
0.0000

> <Gold.Chemscore.Lipo>
68.3351

> <Gold.Chemscore.Internal_Hbond>
0.0000

> <Gold.Chemscore.DEClash>
0.0018

> <Gold.Chemscore.DEInternal>
1.9816

> <Gold.Chemscore.Rot>
2.5300

> <Gold.Chemscore.Internal.Correction>
   9.000000E+99

> <Gold.Chemscore.Hbonds>
donor molecule, donor type, donor heavy atom, donor atom, acceptor molecule, acceptor atom, score
      L1  H     9    44       P1  7948  0.50
      L1  H    12    37       P1 10747  0.90
      P1  H  6896  6908       L1    20  0.96

> <Gold.Chemscore.Hbond.Weighted>
-9.1255

> <Gold.Chemscore.Metal.Weighted>
-0.0000

> <Gold.Chemscore.Lipo.Weighted>
-7.9952

> <Gold.Chemscore.Internal_Hbond.Weighted>
0.0000

> <Gold.Chemscore.DEClash.Weighted>
0.0018

> <Gold.Chemscore.DEInternal.Weighted>
1.9816

> <Gold.Chemscore.Rot.Weighted>
6.4768

> <Gold.Chemscore.Internal.Correction.Weighted>
   9.000000E+99

> <Gold.Protein.RotatedTorsions>
[ 6907 6896 6895 6894 ] final  134.25 input  -60.11 | X-H torsion
[ 7974 7965 7964 7962 ] final -114.89 input  175.53 | X-H torsion
[ 8008 7997 7996 7995 ] final -178.30 input   59.86 | X-H torsion
[ 10167 10162 10161 10158 ] final -105.88 input  -65.29 | X-H torsion
[ 10718 10713 10712 10709 ] final  -43.01 input   66.30 | X-H torsion
[ 10763 10752 10751 10750 ] final -122.01 input  -60.55 | X-H torsion
[ 11005 11000 10999 10996 ] final  -17.28 input  -57.11 | X-H torsion

> <Gold.Protein.ActiveResidues>
 VAL166  LYS551  ARG553  GLY616  TRP617  ASP618  TYR619  PRO620  LYS621  CYS622 
 ASP623  PHE694  ASN695  SER759  ASP760  ASP761  ALA762  ILE779  LEU786  VAL792 
 PHE793  MET794  SER795  GLU796  ALA797  LYS798  CYS799  TRP800  GLU811  SER814 

> <Gold.Protein.RotatedAtoms>
  152.3133  133.5776  159.5695 H   0  0  0  0  0  0  0  0  0  0  0  0  # atno 6907 bound_to 6896
  150.7334  134.0120  159.3681 H   0  0  0  0  0  0  0  0  0  0  0  0  # atno 6908 bound_to 6896
  151.8010  135.0709  160.0451 H   0  0  0  0  0  0  0  0  0  0  0  0  # atno 6909 bound_to 6896
  145.1148  140.8633  143.3849 H   0  0  0  0  0  0  0  0  0  0  0  0  # atno 7974 bound_to 7965
  156.0172  140.1253  157.0394 H   0  0  0  0  0  0  0  0  0  0  0  0  # atno 8008 bound_to 7997
  154.4298  140.1076  156.5983 H   0  0  0  0  0  0  0  0  0  0  0  0  # atno 8009 bound_to 7997
  155.5996  140.3470  155.4592 H   0  0  0  0  0  0  0  0  0  0  0  0  # atno 8010 bound_to 7997
  140.1938  143.3871  152.1185 H   0  0  0  0  0  0  0  0  0  0  0  0  # atno 10167 bound_to 10162
  156.2535  130.4190  149.8623 H   0  0  0  0  0  0  0  0  0  0  0  0  # atno 10718 bound_to 10713
  154.8680  135.4148  154.2712 H   0  0  0  0  0  0  0  0  0  0  0  0  # atno 10763 bound_to 10752
  153.3622  135.7004  153.6709 H   0  0  0  0  0  0  0  0  0  0  0  0  # atno 10764 bound_to 10752
  153.5605  135.3611  155.2769 H   0  0  0  0  0  0  0  0  0  0  0  0  # atno 10765 bound_to 10752
  140.8152  133.8110  155.9603 H   0  0  0  0  0  0  0  0  0  0  0  0  # atno 11005 bound_to 11000
  145.0806  139.2962  143.5785 LP  0  0  0  0  0  0  0  0  0  0  0  0  # atno 17320 bound_to 7965
  146.3524  140.0311  142.8650 LP  0  0  0  0  0  0  0  0  0  0  0  0  # atno 17321 bound_to 7965
  139.5245  144.7084  151.5282 LP  0  0  0  0  0  0  0  0  0  0  0  0  # atno 17342 bound_to 10162
  140.6438  143.8836  150.6717 LP  0  0  0  0  0  0  0  0  0  0  0  0  # atno 17343 bound_to 10162
  156.6163  130.8608  151.3465 LP  0  0  0  0  0  0  0  0  0  0  0  0  # atno 17370 bound_to 10713
  157.7223  130.9575  150.1491 LP  0  0  0  0  0  0  0  0  0  0  0  0  # atno 17371 bound_to 10713
  140.9156  134.2205  157.4958 LP  0  0  0  0  0  0  0  0  0  0  0  0  # atno 17394 bound_to 11000
  139.8711  134.9770  156.4941 LP  0  0  0  0  0  0  0  0  0  0  0  0  # atno 17395 bound_to 11000

$$$$
