AV-unprocessed.smi:2030|AV-procd|sdf|8226|dock8
  -GOLD-   2272010493D 1   1.00000     0.00000
 Structure written by MMmdl.
 34 35  0  0  0  0  0  0  0  0  2 V2000
  148.6059  137.3413  158.7932 C   0  0  0  0  0  0  0  0  0  0  0  0
  149.4223  137.0838  157.6090 N   0  0  0  0  0  0  0  0  0  0  0  0
  150.1805  138.1555  157.1869 N   0  0  0  0  0  0  0  0  0  0  0  0
  150.7830  138.1708  156.0386 C   0  0  0  0  0  0  0  0  0  0  0  0
  151.5694  139.3750  155.6345 C   0  0  0  0  0  0  0  0  0  0  0  0
  152.7983  139.2325  155.6456 O   0  0  0  0  0  0  0  0  0  0  0  0
  150.8924  140.5099  155.2872 N   0  5  0  0  0  0  0  0  0  0  0  0
  150.9150  141.7693  156.0316 C   0  0  0  0  0  0  0  0  0  0  0  0
  150.6239  141.5238  157.5311 C   0  0  0  0  0  0  0  0  0  0  0  0
  150.8985  142.7099  158.4541 C   0  0  0  0  0  0  0  0  0  0  0  0
  151.3087  143.9544  157.9232 C   0  0  0  0  0  0  0  0  0  0  0  0
  151.5435  145.0227  158.8098 C   0  0  0  0  0  0  0  0  0  0  0  0
  151.3563  144.8136  160.1893 C   0  0  0  0  0  0  0  0  0  0  0  0
  150.9377  143.5401  160.6223 C   0  0  0  0  0  0  0  0  0  0  0  0
  150.7053  142.5107  159.7810 N   0  0  0  0  0  0  0  0  0  0  0  0
  150.6592  136.9869  155.0951 C   0  0  0  0  0  0  0  0  0  0  0  0
  150.3815  135.6695  155.8458 C   0  0  0  0  0  0  0  0  0  0  0  0
  149.4214  135.8618  157.0223 C   0  0  0  0  0  0  0  0  0  0  0  0
  148.7221  134.9214  157.4000 O   0  0  0  0  0  0  0  0  0  0  0  0
  147.5470  137.2197  158.5617 H   0  0  0  0  0  0  0  0  0  0  0  0
  148.7460  138.3543  159.1741 H   0  0  0  0  0  0  0  0  0  0  0  0
  148.8632  136.6501  159.5970 H   0  0  0  0  0  0  0  0  0  0  0  0
  151.8699  142.2876  155.9330 H   0  0  0  0  0  0  0  0  0  0  0  0
  150.1640  142.4605  155.6470 H   0  0  0  0  0  0  0  0  0  0  0  0
  149.5746  141.2492  157.6439 H   0  0  0  0  0  0  0  0  0  0  0  0
  151.1907  140.6596  157.8812 H   0  0  0  0  0  0  0  0  0  0  0  0
  151.4468  144.0839  156.8598 H   0  0  0  0  0  0  0  0  0  0  0  0
  151.8616  145.9853  158.4379 H   0  0  0  0  0  0  0  0  0  0  0  0
  151.5287  145.6095  160.8983 H   0  0  0  0  0  0  0  0  0  0  0  0
  150.7819  143.3440  161.6729 H   0  0  0  0  0  0  0  0  0  0  0  0
  149.8616  137.1826  154.3779 H   0  0  0  0  0  0  0  0  0  0  0  0
  151.5720  136.8567  154.5129 H   0  0  0  0  0  0  0  0  0  0  0  0
  149.9903  134.9173  155.1599 H   0  0  0  0  0  0  0  0  0  0  0  0
  151.3149  135.2736  156.2477 H   0  0  0  0  0  0  0  0  0  0  0  0
  1  2  1  0  0  0  0
  1 20  1  0  0  0  0
  1 21  1  0  0  0  0
  1 22  1  0  0  0  0
  2 18  1  0  0  0  0
  2  3  1  0  0  0  0
  3  4  2  0  0  0  0
  4  5  1  0  0  0  0
  4 16  1  0  0  0  0
  5  6  2  0  0  0  0
  5  7  1  0  0  0  0
  7  8  1  0  0  0  0
  8  9  1  0  0  0  0
  8 23  1  0  0  0  0
  8 24  1  0  0  0  0
  9 10  1  0  0  0  0
  9 25  1  0  0  0  0
  9 26  1  0  0  0  0
 10 15  1  0  0  0  0
 10 11  2  0  0  0  0
 11 12  1  0  0  0  0
 11 27  1  0  0  0  0
 12 13  2  0  0  0  0
 12 28  1  0  0  0  0
 13 14  1  0  0  0  0
 13 29  1  0  0  0  0
 14 15  2  0  0  0  0
 14 30  1  0  0  0  0
 16 17  1  0  0  0  0
 16 31  1  0  0  0  0
 16 32  1  0  0  0  0
 17 18  1  0  0  0  0
 17 33  1  0  0  0  0
 17 34  1  0  0  0  0
 18 19  2  0  0  0  0
M  CHG  1   7  -1
M  END
> <s_m_source_file>
AV-unprocessed.smi

> <i_m_source_file_index>
2030

> <i_lp_mmshare_version>
43012

> <i_f3d_flags>
0

> <s_epik_input>
Tz1DMVtDSDJdW0NIMl1DKD1OTjFbQ0gzXSlDKD1PKVtOSF1bQ0gyXVtDSDJdYzJbY0hdW2NIXVtjSF1bY0hdbjI=

> <s_epik_cmdline>
J2VwaWtfcHl0aG9uJywgJy1waCcsICc3LjAnLCAnLXRuJywgJzgnLCAnLW1hJywgJzIwMCcsICctbWV0YWxfYmluZGluZycsICctaW1hZScsICc8aW5maWxlLm1hZT4nLCAnLW9tYWUnLCAnPG91dGZpbGUubWFlPic=

> <r_epik_Ionization_Penalty>
5.44594

> <r_epik_Ionization_Penalty_Charging>
5.3715

> <r_epik_Ionization_Penalty_Neutral>
0.0744438

> <r_epik_State_Penalty>
5.38529

> <r_epik_Charging_Adjusted_Penalty>
10.7568

> <i_epik_Tot_Q>
-1

> <i_epik_Tot_abs_Q>
1

> <r_epik_Metal_State_Penalty>
1.42988

> <b_epik_Metal_Only>
1

> <s_epik_Chemistry_Notes>
This compound has an imine and may undergo hydrolysis.

> <s_lp_Force_Field>
OPLS_2005

> <r_lp_Energy>
26.3213

> <b_lp_Chiralities_Consistent>
1

> <s_lp_Variant>
AV-unprocessed.smi:2030-3

> <Gold.Version>
5.8.1

> <Gold.Id.Protein>
6NUR|6NUR_protein|mol2

> <Gold.PLP.Fitness>
41.7131

> <Gold.PLP.PLP>
-37.3200

> <Gold.PLP.part.hbond>
-3.2713

> <Gold.PLP.part.metal>
0.0000

> <Gold.PLP.part.buried>
-6.8422

> <Gold.PLP.part.nonpolar>
-27.1511

> <Gold.PLP.part.repulsive>
0.0402

> <Gold.PLP.ligand.clash>
0.0000

> <Gold.PLP.ligand.torsion>
2.0936

> <Gold.PLP.Chemscore.Hbond>
2.8500

> <Gold.PLP.Chemscore.CHOScore>
0.0000

> <Gold.PLP.Chemscore.Metal>
0.0000

> <Gold.Chemscore.Hbonds>
donor molecule, donor type, donor heavy atom, donor atom, acceptor molecule, acceptor atom, score
      P1  H  7989  7998       L1     7  0.98
      P1  H  7997  8008       L1     6  1.00

> <Gold.PLP.Chemscore.Internal.Correction>
0.0304

> <Gold.Rescore>
     Score         DG    S(hbond)    S(metal)    S(lipo)     H(rot)  DE(clash)    DE(int)     intcor
     16.77     -19.29       1.92        0.00      94.38       1.42       0.28       2.24       ----

> <Gold.Chemscore.Fitness>
16.7693

> <Gold.Chemscore.DG>
-19.2914

> <Gold.Chemscore.ZeroCoef>
-5.4800

> <Gold.Chemscore.Hbond>
1.9157

> <Gold.Chemscore.Metal>
0.0000

> <Gold.Chemscore.Lipo>
94.3809

> <Gold.Chemscore.Internal_Hbond>
0.0000

> <Gold.Chemscore.DEClash>
0.2782

> <Gold.Chemscore.DEInternal>
2.2439

> <Gold.Chemscore.Rot>
1.4178

> <Gold.Chemscore.Internal.Correction>
   9.000000E+99

> <Gold.Chemscore.Hbonds>
donor molecule, donor type, donor heavy atom, donor atom, acceptor molecule, acceptor atom, score
      P1  H  7989  7998       L1     7  0.19
      P1  H  7997  8008       L1     6  1.00

> <Gold.Chemscore.Hbond.Weighted>
-6.3983

> <Gold.Chemscore.Metal.Weighted>
-0.0000

> <Gold.Chemscore.Lipo.Weighted>
-11.0426

> <Gold.Chemscore.Internal_Hbond.Weighted>
0.0000

> <Gold.Chemscore.DEClash.Weighted>
0.2782

> <Gold.Chemscore.DEInternal.Weighted>
2.2439

> <Gold.Chemscore.Rot.Weighted>
3.6295

> <Gold.Chemscore.Internal.Correction.Weighted>
   9.000000E+99

> <Gold.Protein.RotatedTorsions>
[ 6907 6896 6895 6894 ] final   19.58 input  -60.11 | X-H torsion
[ 7974 7965 7964 7962 ] final  134.48 input  175.53 | X-H torsion
[ 8008 7997 7996 7995 ] final  -26.02 input   59.86 | X-H torsion
[ 10167 10162 10161 10158 ] final -149.99 input  -65.29 | X-H torsion
[ 10718 10713 10712 10709 ] final -126.81 input   66.30 | X-H torsion
[ 10763 10752 10751 10750 ] final   67.46 input  -60.55 | X-H torsion
[ 11005 11000 10999 10996 ] final -166.18 input  -57.11 | X-H torsion

> <Gold.Protein.ActiveResidues>
 VAL166  LYS551  ARG553  GLY616  TRP617  ASP618  TYR619  PRO620  LYS621  CYS622 
 ASP623  PHE694  ASN695  SER759  ASP760  ASP761  ALA762  ILE779  LEU786  VAL792 
 PHE793  MET794  SER795  GLU796  ALA797  LYS798  CYS799  TRP800  GLU811  SER814 

> <Gold.Protein.RotatedAtoms>
  151.8831  135.0446  160.0490 H   0  0  0  0  0  0  0  0  0  0  0  0  # atno 6907 bound_to 6896
  152.2496  133.5199  159.5326 H   0  0  0  0  0  0  0  0  0  0  0  0  # atno 6908 bound_to 6896
  150.7079  134.0894  159.3969 H   0  0  0  0  0  0  0  0  0  0  0  0  # atno 6909 bound_to 6896
  144.9759  139.4555  143.5410 H   0  0  0  0  0  0  0  0  0  0  0  0  # atno 7974 bound_to 7965
  154.4446  140.1910  156.0711 H   0  0  0  0  0  0  0  0  0  0  0  0  # atno 8008 bound_to 7997
  156.0511  140.3308  155.7325 H   0  0  0  0  0  0  0  0  0  0  0  0  # atno 8009 bound_to 7997
  155.5556  140.0599  157.2831 H   0  0  0  0  0  0  0  0  0  0  0  0  # atno 8010 bound_to 7997
  139.7393  143.8686  152.2558 H   0  0  0  0  0  0  0  0  0  0  0  0  # atno 10167 bound_to 10162
  156.1799  130.6725  151.0291 H   0  0  0  0  0  0  0  0  0  0  0  0  # atno 10718 bound_to 10713
  153.0187  135.5283  154.6983 H   0  0  0  0  0  0  0  0  0  0  0  0  # atno 10763 bound_to 10752
  154.6099  135.2877  155.0446 H   0  0  0  0  0  0  0  0  0  0  0  0  # atno 10764 bound_to 10752
  154.1471  135.6569  153.5007 H   0  0  0  0  0  0  0  0  0  0  0  0  # atno 10765 bound_to 10752
  140.5674  134.5272  157.5155 H   0  0  0  0  0  0  0  0  0  0  0  0  # atno 11005 bound_to 11000
  146.3395  139.9001  142.8795 LP  0  0  0  0  0  0  0  0  0  0  0  0  # atno 17320 bound_to 7965
  145.2491  141.0037  143.3892 LP  0  0  0  0  0  0  0  0  0  0  0  0  # atno 17321 bound_to 7965
  139.8632  144.7106  150.9074 LP  0  0  0  0  0  0  0  0  0  0  0  0  # atno 17342 bound_to 10162
  140.7783  143.3800  151.1494 LP  0  0  0  0  0  0  0  0  0  0  0  0  # atno 17343 bound_to 10162
  157.6861  131.0824  150.7238 LP  0  0  0  0  0  0  0  0  0  0  0  0  # atno 17370 bound_to 10713
  156.7295  130.4705  149.5503 LP  0  0  0  0  0  0  0  0  0  0  0  0  # atno 17371 bound_to 10713
  139.9378  134.7842  156.0756 LP  0  0  0  0  0  0  0  0  0  0  0  0  # atno 17394 bound_to 11000
  141.1077  133.6654  156.2904 LP  0  0  0  0  0  0  0  0  0  0  0  0  # atno 17395 bound_to 11000

$$$$
