AV-unprocessed.smi:67|AV-procd|sdf|634|dock10
  -GOLD-   2262016533D 1   1.00000     0.00000
 Structure written by MMmdl.
 48 50  0  0  0  0  0  0  0  0  2 V2000
  149.2837  138.8703  153.2609 O   0  0  0  0  0  0  0  0  0  0  0  0
  148.0377  138.9136  153.9333 C   0  0  2  0  0  0  0  0  0  0  0  0
  148.3673  138.8502  155.4449 C   0  0  0  0  0  0  0  0  0  0  0  0
  149.1777  139.9522  155.9702 N   0  0  0  0  0  0  0  0  0  0  0  0
  150.2465  139.4602  156.8426 C   0  0  0  0  0  0  0  0  0  0  0  0
  151.1946  140.5788  157.3067 C   0  0  0  0  0  0  0  0  0  0  0  0
  150.3964  141.7166  157.9795 C   0  0  0  0  0  0  0  0  0  0  0  0
  151.1936  142.7901  158.4862 O   0  0  0  0  0  0  0  0  0  0  0  0
  151.8755  142.7260  159.6868 C   0  0  0  0  0  0  0  0  0  0  0  0
  151.6021  143.5001  160.8422 C   0  0  0  0  0  0  0  0  0  0  0  0
  152.3701  143.3370  162.0105 C   0  0  0  0  0  0  0  0  0  0  0  0
  153.4230  142.4052  162.0439 C   0  0  0  0  0  0  0  0  0  0  0  0
  153.7156  141.6310  160.9023 C   0  0  0  0  0  0  0  0  0  0  0  0
  154.8467  140.6139  160.9163 C   0  0  0  0  0  0  0  0  0  0  0  0
  155.7994  140.9723  160.0552 F   0  0  0  0  0  0  0  0  0  0  0  0
  155.3964  140.5088  162.1267 F   0  0  0  0  0  0  0  0  0  0  0  0
  154.3701  139.4223  160.5580 F   0  0  0  0  0  0  0  0  0  0  0  0
  152.9345  141.7956  159.7389 C   0  0  0  0  0  0  0  0  0  0  0  0
  149.1615  142.1518  157.1613 C   0  0  0  0  0  0  0  0  0  0  0  0
  148.3612  140.9162  156.7184 C   0  0  0  0  0  0  0  0  0  0  0  0
  147.1352  137.8204  153.3492 C   0  0  0  0  0  0  0  0  0  0  0  0
  146.6425  138.4320  152.0362 C   0  0  0  0  0  0  0  0  0  0  0  0
  146.5892  139.8902  152.2616 N   0  3  0  0  0  0  0  0  0  0  0  0
  147.3248  140.2058  153.5040 C   0  0  0  0  0  0  0  0  0  0  0  0
  149.3188  138.0814  152.7408 H   0  0  0  0  0  0  0  0  0  0  0  0
  147.4469  138.7665  156.0258 H   0  0  0  0  0  0  0  0  0  0  0  0
  148.8869  137.9046  155.6098 H   0  0  0  0  0  0  0  0  0  0  0  0
  149.8152  138.9591  157.7107 H   0  0  0  0  0  0  0  0  0  0  0  0
  150.8363  138.7092  156.3156 H   0  0  0  0  0  0  0  0  0  0  0  0
  151.9234  140.1757  158.0103 H   0  0  0  0  0  0  0  0  0  0  0  0
  151.7677  140.9251  156.4506 H   0  0  0  0  0  0  0  0  0  0  0  0
  149.9879  141.2725  158.8883 H   0  0  0  0  0  0  0  0  0  0  0  0
  150.8113  144.2291  160.8738 H   0  0  0  0  0  0  0  0  0  0  0  0
  152.1497  143.9301  162.8856 H   0  0  0  0  0  0  0  0  0  0  0  0
  154.0002  142.2900  162.9496 H   0  0  0  0  0  0  0  0  0  0  0  0
  153.1514  141.1973  158.8659 H   0  0  0  0  0  0  0  0  0  0  0  0
  148.5294  142.8007  157.7682 H   0  0  0  0  0  0  0  0  0  0  0  0
  149.4251  142.7317  156.2810 H   0  0  0  0  0  0  0  0  0  0  0  0
  147.5072  141.2435  156.1287 H   0  0  0  0  0  0  0  0  0  0  0  0
  147.9388  140.4305  157.5998 H   0  0  0  0  0  0  0  0  0  0  0  0
  147.6350  136.8599  153.2178 H   0  0  0  0  0  0  0  0  0  0  0  0
  146.2627  137.6626  153.9822 H   0  0  0  0  0  0  0  0  0  0  0  0
  147.3561  138.2318  151.2359 H   0  0  0  0  0  0  0  0  0  0  0  0
  145.6736  138.0383  151.7280 H   0  0  0  0  0  0  0  0  0  0  0  0
  147.0144  140.3652  151.4781 H   0  0  0  0  0  0  0  0  0  0  0  0
  146.5869  140.4991  154.2517 H   0  0  0  0  0  0  0  0  0  0  0  0
  148.0042  141.0484  153.3682 H   0  0  0  0  0  0  0  0  0  0  0  0
  145.6296  140.1892  152.3613 H   0  0  0  0  0  0  0  0  0  0  0  0
  1  2  1  0  0  0  0
  1 25  1  0  0  0  0
  2 24  1  0  0  0  0
  2  3  1  0  0  0  0
  2 21  1  0  0  0  0
  3  4  1  0  0  0  0
  3 26  1  0  0  0  0
  3 27  1  0  0  0  0
  4 20  1  0  0  0  0
  4  5  1  0  0  0  0
  5  6  1  0  0  0  0
  5 28  1  0  0  0  0
  5 29  1  0  0  0  0
  6  7  1  0  0  0  0
  6 30  1  0  0  0  0
  6 31  1  0  0  0  0
  7  8  1  0  0  0  0
  7 19  1  0  0  0  0
  7 32  1  0  0  0  0
  8  9  1  0  0  0  0
  9 18  1  0  0  0  0
  9 10  2  0  0  0  0
 10 11  1  0  0  0  0
 10 33  1  0  0  0  0
 11 12  2  0  0  0  0
 11 34  1  0  0  0  0
 12 13  1  0  0  0  0
 12 35  1  0  0  0  0
 13 14  1  0  0  0  0
 13 18  2  0  0  0  0
 14 15  1  0  0  0  0
 14 16  1  0  0  0  0
 14 17  1  0  0  0  0
 18 36  1  0  0  0  0
 19 20  1  0  0  0  0
 19 37  1  0  0  0  0
 19 38  1  0  0  0  0
 20 39  1  0  0  0  0
 20 40  1  0  0  0  0
 21 22  1  0  0  0  0
 21 41  1  0  0  0  0
 21 42  1  0  0  0  0
 22 23  1  0  0  0  0
 22 43  1  0  0  0  0
 22 44  1  0  0  0  0
 23 24  1  0  0  0  0
 23 45  1  0  0  0  0
 23 48  1  0  0  0  0
 24 46  1  0  0  0  0
 24 47  1  0  0  0  0
M  CHG  1  23   1
M  END
> <s_m_source_file>
AV-unprocessed.smi

> <i_m_source_file_index>
67

> <i_lp_mmshare_version>
43012

> <i_f3d_flags>
0

> <s_epik_input>
W0NIMl0xW05IXVtDSDJdW0NIMl1bQ0BAXTEoW09IXSlbQ0gyXU4yW0NIMl1bQ0gyXVtDSF0oW0NIMl1bQ0gyXTIpT2MzW2NIXVtjSF1bY0hdYyhDKEYpKEYpRilbY0hdMw==

> <s_epik_cmdline>
J2VwaWtfcHl0aG9uJywgJy1waCcsICc3LjAnLCAnLXRuJywgJzgnLCAnLW1hJywgJzIwMCcsICctbWV0YWxfYmluZGluZycsICctaW1hZScsICc8aW5maWxlLm1hZT4nLCAnLW9tYWUnLCAnPG91dGZpbGUubWFlPic=

> <r_lp_tautomer_probability>
1

> <r_epik_Ionization_Penalty>
1.18002

> <r_epik_Ionization_Penalty_Charging>
0.00399663

> <r_epik_Ionization_Penalty_Neutral>
1.17602

> <r_epik_State_Penalty>
1.25421

> <r_epik_Charging_Adjusted_Penalty>
1.25821

> <i_epik_Tot_Q>
1

> <i_epik_Tot_abs_Q>
1

> <r_epik_Metal_State_Penalty>
1.25387

> <b_epik_Metal_Only>
0

> <s_lp_Force_Field>
OPLS_2005

> <r_lp_Energy>
62.5676

> <b_lp_Chiralities_Consistent>
1

> <s_lp_Variant>
AV-unprocessed.smi:67-6

> <Gold.Version>
5.8.1

> <Gold.Id.Protein>
6NUR|6NUR_protein|mol2

> <Gold.PLP.Fitness>
53.8713

> <Gold.PLP.PLP>
-46.7506

> <Gold.PLP.part.hbond>
-3.6700

> <Gold.PLP.part.metal>
0.0000

> <Gold.PLP.part.buried>
-2.9162

> <Gold.PLP.part.nonpolar>
-40.9484

> <Gold.PLP.part.repulsive>
0.1123

> <Gold.PLP.ligand.clash>
0.4309

> <Gold.PLP.ligand.torsion>
1.0630

> <Gold.PLP.Chemscore.Hbond>
3.0000

> <Gold.PLP.Chemscore.CHOScore>
0.0000

> <Gold.PLP.Chemscore.Metal>
0.0000

> <Gold.Chemscore.Hbonds>
donor molecule, donor type, donor heavy atom, donor atom, acceptor molecule, acceptor atom, score
      L1  H     1    25       P1  7948  0.98
      L1  H    23    48       P1 10175  2.00

> <Gold.PLP.Chemscore.Internal.Correction>
0.6776

> <Gold.Rescore>
     Score         DG    S(hbond)    S(metal)    S(lipo)     H(rot)  DE(clash)    DE(int)     intcor
     17.92     -20.09       1.89        0.00     118.73       2.19       1.18       0.99       ----

> <Gold.Chemscore.Fitness>
17.9186

> <Gold.Chemscore.DG>
-20.0864

> <Gold.Chemscore.ZeroCoef>
-5.4800

> <Gold.Chemscore.Hbond>
1.8916

> <Gold.Chemscore.Metal>
0.0000

> <Gold.Chemscore.Lipo>
118.7335

> <Gold.Chemscore.Internal_Hbond>
0.0000

> <Gold.Chemscore.DEClash>
1.1760

> <Gold.Chemscore.DEInternal>
0.9919

> <Gold.Chemscore.Rot>
2.1887

> <Gold.Chemscore.Internal.Correction>
   9.000000E+99

> <Gold.Chemscore.Hbonds>
donor molecule, donor type, donor heavy atom, donor atom, acceptor molecule, acceptor atom, score
      L1  H     1    25       P1  7948  0.85
      L1  H    23    48       P1 10175  0.69

> <Gold.Chemscore.Hbond.Weighted>
-6.3178

> <Gold.Chemscore.Metal.Weighted>
-0.0000

> <Gold.Chemscore.Lipo.Weighted>
-13.8918

> <Gold.Chemscore.Internal_Hbond.Weighted>
0.0000

> <Gold.Chemscore.DEClash.Weighted>
1.1760

> <Gold.Chemscore.DEInternal.Weighted>
0.9919

> <Gold.Chemscore.Rot.Weighted>
5.6032

> <Gold.Chemscore.Internal.Correction.Weighted>
   9.000000E+99

> <Gold.Protein.RotatedTorsions>
[ 6907 6896 6895 6894 ] final   16.28 input  -60.11 | X-H torsion
[ 7974 7965 7964 7962 ] final  -72.49 input  175.53 | X-H torsion
[ 8008 7997 7996 7995 ] final   52.42 input   59.86 | X-H torsion
[ 10167 10162 10161 10158 ] final   10.32 input  -65.29 | X-H torsion
[ 10718 10713 10712 10709 ] final -106.52 input   66.30 | X-H torsion
[ 10763 10752 10751 10750 ] final -175.90 input  -60.55 | X-H torsion
[ 11005 11000 10999 10996 ] final  104.57 input  -57.11 | X-H torsion

> <Gold.Protein.ActiveResidues>
 VAL166  LYS551  ARG553  GLY616  TRP617  ASP618  TYR619  PRO620  LYS621  CYS622 
 ASP623  PHE694  ASN695  SER759  ASP760  ASP761  ALA762  ILE779  LEU786  VAL792 
 PHE793  MET794  SER795  GLU796  ALA797  LYS798  CYS799  TRP800  GLU811  SER814 

> <Gold.Protein.RotatedAtoms>
  151.8313  135.0620  160.0436 H   0  0  0  0  0  0  0  0  0  0  0  0  # atno 6907 bound_to 6896
  152.2878  133.5527  159.5546 H   0  0  0  0  0  0  0  0  0  0  0  0  # atno 6908 bound_to 6896
  150.7217  134.0388  159.3801 H   0  0  0  0  0  0  0  0  0  0  0  0  # atno 6909 bound_to 6896
  145.6644  140.9242  143.0916 H   0  0  0  0  0  0  0  0  0  0  0  0  # atno 7974 bound_to 7965
  155.4515  140.3458  155.4301 H   0  0  0  0  0  0  0  0  0  0  0  0  # atno 8008 bound_to 7997
  156.1217  140.1489  156.9225 H   0  0  0  0  0  0  0  0  0  0  0  0  # atno 8009 bound_to 7997
  154.4828  140.0864  156.7397 H   0  0  0  0  0  0  0  0  0  0  0  0  # atno 8010 bound_to 7997
  140.6201  143.8222  150.7165 H   0  0  0  0  0  0  0  0  0  0  0  0  # atno 10167 bound_to 10162
  156.0394  130.5617  150.7693 H   0  0  0  0  0  0  0  0  0  0  0  0  # atno 10718 bound_to 10713
  154.5788  135.2834  155.0753 H   0  0  0  0  0  0  0  0  0  0  0  0  # atno 10763 bound_to 10752
  154.2097  135.6410  153.5115 H   0  0  0  0  0  0  0  0  0  0  0  0  # atno 10764 bound_to 10752
  153.0081  135.5489  154.6435 H   0  0  0  0  0  0  0  0  0  0  0  0  # atno 10765 bound_to 10752
  139.8793  134.9305  156.5382 H   0  0  0  0  0  0  0  0  0  0  0  0  # atno 11005 bound_to 11000
  144.7078  139.8491  143.7424 LP  0  0  0  0  0  0  0  0  0  0  0  0  # atno 17320 bound_to 7965
  146.1098  139.4102  143.0295 LP  0  0  0  0  0  0  0  0  0  0  0  0  # atno 17321 bound_to 7965
  140.1811  143.4114  152.1932 LP  0  0  0  0  0  0  0  0  0  0  0  0  # atno 17342 bound_to 10162
  139.5431  144.7275  151.4668 LP  0  0  0  0  0  0  0  0  0  0  0  0  # atno 17343 bound_to 10162
  157.5191  131.0930  151.0101 LP  0  0  0  0  0  0  0  0  0  0  0  0  # atno 17370 bound_to 10713
  157.0437  130.5759  149.5360 LP  0  0  0  0  0  0  0  0  0  0  0  0  # atno 17371 bound_to 10713
  140.8330  133.8264  155.9002 LP  0  0  0  0  0  0  0  0  0  0  0  0  # atno 17394 bound_to 11000
  140.9310  134.2021  157.4863 LP  0  0  0  0  0  0  0  0  0  0  0  0  # atno 17395 bound_to 11000

$$$$
