AV-unprocessed.smi:3165|AV-procd|sdf|12089|dock2
  -GOLD-   2272017523D 1   1.00000     0.00000
 Structure written by MMmdl.
 37 38  0  0  0  0  0  0  0  0  1 V2000
  148.1951  142.0207  154.0061 C   0  0  0  0  0  0  0  0  0  0  0  0
  149.4620  141.4104  154.6261 C   0  0  2  0  0  0  0  0  0  0  0  0
  149.4494  139.8609  154.5872 C   0  0  0  0  0  0  0  0  0  0  0  0
  150.7728  139.2576  154.6090 N   0  0  0  0  0  0  0  0  0  0  0  0
  151.1063  137.9192  154.6301 C   0  0  0  0  0  0  0  0  0  0  0  0
  152.4692  137.8387  154.6393 C   0  0  0  0  0  0  0  0  0  0  0  0
  152.8879  139.1982  154.6170 C   0  0  0  0  0  0  0  0  0  0  0  0
  151.8713  140.0440  154.5927 N   0  0  0  0  0  0  0  0  0  0  0  0
  149.6514  141.9531  155.9762 N   0  0  0  0  0  0  0  0  0  0  0  0
  150.9641  141.7192  156.5766 C   0  0  0  0  0  0  0  0  0  0  0  0
  151.1121  142.4906  157.8954 C   0  0  2  0  0  0  0  0  0  0  0  0
  151.3822  143.9876  157.6483 C   0  0  0  0  0  0  0  0  0  0  0  0
  151.6219  144.7205  158.9731 C   0  0  0  0  0  0  0  0  0  0  0  0
  152.7230  144.0084  159.7659 C   0  0  0  0  0  0  0  0  0  0  0  0
  152.4011  142.5118  159.9003 C   0  0  0  0  0  0  0  0  0  0  0  0
  152.2174  141.9393  158.6095 O   0  0  0  0  0  0  0  0  0  0  0  0
  148.0268  141.6367  152.9996 H   0  0  0  0  0  0  0  0  0  0  0  0
  148.2797  143.1053  153.9323 H   0  0  0  0  0  0  0  0  0  0  0  0
  147.3076  141.8007  154.6000 H   0  0  0  0  0  0  0  0  0  0  0  0
  150.3003  141.7368  154.0096 H   0  0  0  0  0  0  0  0  0  0  0  0
  148.9026  139.4871  155.4535 H   0  0  0  0  0  0  0  0  0  0  0  0
  148.9037  139.4864  153.7209 H   0  0  0  0  0  0  0  0  0  0  0  0
  150.3533  137.1450  154.6397 H   0  0  0  0  0  0  0  0  0  0  0  0
  153.0749  136.9452  154.6585 H   0  0  0  0  0  0  0  0  0  0  0  0
  153.8931  139.5930  154.6146 H   0  0  0  0  0  0  0  0  0  0  0  0
  149.4472  142.9473  155.9781 H   0  0  0  0  0  0  0  0  0  0  0  0
  151.1325  140.6582  156.7589 H   0  0  0  0  0  0  0  0  0  0  0  0
  151.7388  142.0469  155.8824 H   0  0  0  0  0  0  0  0  0  0  0  0
  150.1994  142.3807  158.4845 H   0  0  0  0  0  0  0  0  0  0  0  0
  152.2568  144.1014  157.0062 H   0  0  0  0  0  0  0  0  0  0  0  0
  150.5446  144.4420  157.1184 H   0  0  0  0  0  0  0  0  0  0  0  0
  151.8965  145.7597  158.7899 H   0  0  0  0  0  0  0  0  0  0  0  0
  150.7002  144.7363  159.5563 H   0  0  0  0  0  0  0  0  0  0  0  0
  153.6792  144.1298  159.2556 H   0  0  0  0  0  0  0  0  0  0  0  0
  152.8336  144.4620  160.7510 H   0  0  0  0  0  0  0  0  0  0  0  0
  153.2212  141.9961  160.4001 H   0  0  0  0  0  0  0  0  0  0  0  0
  151.5094  142.3568  160.5095 H   0  0  0  0  0  0  0  0  0  0  0  0
  1  2  1  0  0  0  0
  1 17  1  0  0  0  0
  1 18  1  0  0  0  0
  1 19  1  0  0  0  0
  2  3  1  0  0  0  0
  2  9  1  0  0  0  0
  2 20  1  0  0  0  0
  3  4  1  0  0  0  0
  3 21  1  0  0  0  0
  3 22  1  0  0  0  0
  4  8  1  0  0  0  0
  4  5  1  0  0  0  0
  5  6  2  0  0  0  0
  5 23  1  0  0  0  0
  6  7  1  0  0  0  0
  6 24  1  0  0  0  0
  7  8  2  0  0  0  0
  7 25  1  0  0  0  0
  9 10  1  0  0  0  0
  9 26  1  0  0  0  0
 10 11  1  0  0  0  0
 10 27  1  0  0  0  0
 10 28  1  0  0  0  0
 11 16  1  0  0  0  0
 11 12  1  0  0  0  0
 11 29  1  0  0  0  0
 12 13  1  0  0  0  0
 12 30  1  0  0  0  0
 12 31  1  0  0  0  0
 13 14  1  0  0  0  0
 13 32  1  0  0  0  0
 13 33  1  0  0  0  0
 14 15  1  0  0  0  0
 14 34  1  0  0  0  0
 14 35  1  0  0  0  0
 15 16  1  0  0  0  0
 15 36  1  0  0  0  0
 15 37  1  0  0  0  0
M  END
> <s_m_source_file>
AV-unprocessed.smi

> <i_m_source_file_index>
3165

> <i_lp_mmshare_version>
43012

> <i_f3d_flags>
0

> <s_epik_input>
bjFbY0hdW2NIXVtjSF1uMVtDSDJdW0NAQEhdKFtDSDNdKVtOSF1bQ0gyXVtDQEBIXTJbQ0gyXVtDSDJdW0NIMl1bQ0gyXU8y

> <s_epik_cmdline>
J2VwaWtfcHl0aG9uJywgJy1waCcsICc3LjAnLCAnLXRuJywgJzgnLCAnLW1hJywgJzIwMCcsICctbWV0YWxfYmluZGluZycsICctaW1hZScsICc8aW5maWxlLm1hZT4nLCAnLW9tYWUnLCAnPG91dGZpbGUubWFlPic=

> <r_lp_tautomer_probability>
1

> <r_epik_Ionization_Penalty>
2.51982

> <r_epik_Ionization_Penalty_Charging>
0

> <r_epik_Ionization_Penalty_Neutral>
2.51982

> <r_epik_State_Penalty>
2.68614

> <r_epik_Charging_Adjusted_Penalty>
2.68614

> <i_epik_Tot_Q>
0

> <i_epik_Tot_abs_Q>
0

> <r_epik_Metal_State_Penalty>
2.6861

> <b_epik_Metal_Only>
0

> <s_lp_Force_Field>
OPLS_2005

> <r_lp_Energy>
14.3424

> <b_lp_Chiralities_Consistent>
1

> <s_lp_Variant>
AV-unprocessed.smi:3165-5

> <Gold.Version>
5.8.1

> <Gold.Id.Protein>
6NUR|6NUR_protein|mol2

> <Gold.PLP.Fitness>
46.0136

> <Gold.PLP.PLP>
-40.8298

> <Gold.PLP.part.hbond>
-1.8653

> <Gold.PLP.part.metal>
0.0000

> <Gold.PLP.part.buried>
-1.0109

> <Gold.PLP.part.nonpolar>
-37.7022

> <Gold.PLP.part.repulsive>
0.0707

> <Gold.PLP.ligand.clash>
0.0000

> <Gold.PLP.ligand.torsion>
0.4604

> <Gold.PLP.Chemscore.Hbond>
2.0000

> <Gold.PLP.Chemscore.CHOScore>
0.0000

> <Gold.PLP.Chemscore.Metal>
0.0000

> <Gold.Chemscore.Hbonds>
donor molecule, donor type, donor heavy atom, donor atom, acceptor molecule, acceptor atom, score
      L1  H     9    26       P1  8028  1.00
      P1  H  7989  7998       L1     8  0.57

> <Gold.PLP.Chemscore.Internal.Correction>
0.1046

> <Gold.Rescore>
     Score         DG    S(hbond)    S(metal)    S(lipo)     H(rot)  DE(clash)    DE(int)     intcor
     18.23     -20.17       1.88        0.00     106.23       1.57       0.17       1.77       ----

> <Gold.Chemscore.Fitness>
18.2301

> <Gold.Chemscore.DG>
-20.1664

> <Gold.Chemscore.ZeroCoef>
-5.4800

> <Gold.Chemscore.Hbond>
1.8818

> <Gold.Chemscore.Metal>
0.0000

> <Gold.Chemscore.Lipo>
106.2251

> <Gold.Chemscore.Internal_Hbond>
0.0000

> <Gold.Chemscore.DEClash>
0.1694

> <Gold.Chemscore.DEInternal>
1.7669

> <Gold.Chemscore.Rot>
1.5731

> <Gold.Chemscore.Internal.Correction>
   9.000000E+99

> <Gold.Chemscore.Hbonds>
donor molecule, donor type, donor heavy atom, donor atom, acceptor molecule, acceptor atom, score
      L1  H     9    26       P1  8028  1.00
      P1  H  7989  7998       L1     8  0.25

> <Gold.Chemscore.Hbond.Weighted>
-6.2853

> <Gold.Chemscore.Metal.Weighted>
-0.0000

> <Gold.Chemscore.Lipo.Weighted>
-12.4283

> <Gold.Chemscore.Internal_Hbond.Weighted>
0.0000

> <Gold.Chemscore.DEClash.Weighted>
0.1694

> <Gold.Chemscore.DEInternal.Weighted>
1.7669

> <Gold.Chemscore.Rot.Weighted>
4.0273

> <Gold.Chemscore.Internal.Correction.Weighted>
   9.000000E+99

> <Gold.Protein.RotatedTorsions>
[ 6907 6896 6895 6894 ] final  163.49 input  -60.11 | X-H torsion
[ 7974 7965 7964 7962 ] final  175.55 input  175.53 | X-H torsion
[ 8008 7997 7996 7995 ] final  -91.89 input   59.86 | X-H torsion
[ 10167 10162 10161 10158 ] final   82.47 input  -65.29 | X-H torsion
[ 10718 10713 10712 10709 ] final   40.80 input   66.30 | X-H torsion
[ 10763 10752 10751 10750 ] final  -51.72 input  -60.55 | X-H torsion
[ 11005 11000 10999 10996 ] final  -59.92 input  -57.11 | X-H torsion

> <Gold.Protein.ActiveResidues>
 VAL166  LYS551  ARG553  GLY616  TRP617  ASP618  TYR619  PRO620  LYS621  CYS622 
 ASP623  PHE694  ASN695  SER759  ASP760  ASP761  ALA762  ILE779  LEU786  VAL792 
 PHE793  MET794  SER795  GLU796  ALA797  LYS798  CYS799  TRP800  GLU811  SER814 

> <Gold.Protein.RotatedAtoms>
  151.9244  133.3594  159.3908 H   0  0  0  0  0  0  0  0  0  0  0  0  # atno 6907 bound_to 6896
  150.7030  134.4602  159.5386 H   0  0  0  0  0  0  0  0  0  0  0  0  # atno 6908 bound_to 6896
  152.2231  134.8394  160.0534 H   0  0  0  0  0  0  0  0  0  0  0  0  # atno 6909 bound_to 6896
  144.7200  139.9963  143.6440 H   0  0  0  0  0  0  0  0  0  0  0  0  # atno 7974 bound_to 7965
  154.7163  140.0515  157.0597 H   0  0  0  0  0  0  0  0  0  0  0  0  # atno 8008 bound_to 7997
  155.0487  140.3177  155.4680 H   0  0  0  0  0  0  0  0  0  0  0  0  # atno 8009 bound_to 7997
  156.2804  140.2119  156.5612 H   0  0  0  0  0  0  0  0  0  0  0  0  # atno 8010 bound_to 7997
  139.9285  144.6167  150.8369 H   0  0  0  0  0  0  0  0  0  0  0  0  # atno 10167 bound_to 10162
  157.3863  130.7782  149.7233 H   0  0  0  0  0  0  0  0  0  0  0  0  # atno 10718 bound_to 10713
  154.1311  135.6520  153.4922 H   0  0  0  0  0  0  0  0  0  0  0  0  # atno 10763 bound_to 10752
  153.0195  135.5293  154.7000 H   0  0  0  0  0  0  0  0  0  0  0  0  # atno 10764 bound_to 10752
  154.6235  135.2967  155.0269 H   0  0  0  0  0  0  0  0  0  0  0  0  # atno 10765 bound_to 10752
  141.1267  133.6619  156.5145 H   0  0  0  0  0  0  0  0  0  0  0  0  # atno 11005 bound_to 11000
  146.0371  139.3387  143.0720 LP  0  0  0  0  0  0  0  0  0  0  0  0  # atno 17320 bound_to 7965
  145.8381  140.9595  143.0814 LP  0  0  0  0  0  0  0  0  0  0  0  0  # atno 17321 bound_to 7965
  140.7644  143.3247  151.2543 LP  0  0  0  0  0  0  0  0  0  0  0  0  # atno 17342 bound_to 10162
  139.6802  143.9867  152.2804 LP  0  0  0  0  0  0  0  0  0  0  0  0  # atno 17343 bound_to 10162
  155.9787  130.4048  150.3629 LP  0  0  0  0  0  0  0  0  0  0  0  0  # atno 17370 bound_to 10713
  157.1740  131.0375  151.2781 LP  0  0  0  0  0  0  0  0  0  0  0  0  # atno 17371 bound_to 10713
  140.4342  134.7074  157.4958 LP  0  0  0  0  0  0  0  0  0  0  0  0  # atno 17394 bound_to 11000
  140.0273  134.6458  155.9155 LP  0  0  0  0  0  0  0  0  0  0  0  0  # atno 17395 bound_to 11000

$$$$
