AV-unprocessed.smi:1116|AV-procd|sdf|4810|dock7
  -GOLD-   22720 3363D 1   1.00000     0.00000
 Structure written by MMmdl.
 35 36  0  0  0  0  0  0  0  0  2 V2000
  152.3008  143.9993  161.5129 C   0  0  0  0  0  0  0  0  0  0  0  0
  151.8851  143.6813  160.1176 C   0  0  0  0  0  0  0  0  0  0  0  0
  151.5008  142.4657  159.7201 N   0  0  0  0  0  0  0  0  0  0  0  0
  151.1641  142.4233  158.3636 C   0  0  0  0  0  0  0  0  0  0  0  0
  150.7140  141.1345  157.7461 C   0  0  0  0  0  0  0  0  0  0  0  0
  149.3404  141.2646  157.0663 C   0  0  0  0  0  0  0  0  0  0  0  0
  149.1297  140.2205  156.0705 N   0  0  0  0  0  0  0  0  0  0  0  0
  150.0145  139.8636  155.1269 C   0  0  0  0  0  0  0  0  0  0  0  0
  151.1223  140.3877  155.0079 O   0  0  0  0  0  0  0  0  0  0  0  0
  149.5809  138.7367  154.1860 C   0  0  0  0  0  0  0  0  0  0  0  0
  149.3134  137.4089  154.9206 C   0  0  0  0  0  0  0  0  0  0  0  0
  150.5484  136.8913  155.6874 C   0  0  1  0  0  0  0  0  0  0  0  0
  151.7792  137.1795  154.9712 N   0  5  0  0  0  0  0  0  0  0  0  0
  152.5751  137.9292  155.7700 C   0  0  0  0  0  0  0  0  0  0  0  0
  153.6988  138.3602  155.5206 O   0  0  0  0  0  0  0  0  0  0  0  0
  151.9750  138.1751  156.9392 N   0  0  0  0  0  0  0  0  0  0  0  0
  150.7667  137.6247  156.9970 C   0  0  0  0  0  0  0  0  0  0  0  0
  149.9621  137.6823  157.9259 O   0  0  0  0  0  0  0  0  0  0  0  0
  151.2975  143.6365  157.7353 C   0  0  0  0  0  0  0  0  0  0  0  0
  151.8532  144.8760  158.8267 S   0  0  0  0  0  0  0  0  0  0  0  0
  152.3279  143.0949  162.1217 H   0  0  0  0  0  0  0  0  0  0  0  0
  151.5968  144.7010  161.9600 H   0  0  0  0  0  0  0  0  0  0  0  0
  153.2935  144.4494  161.5125 H   0  0  0  0  0  0  0  0  0  0  0  0
  151.4552  140.7989  157.0198 H   0  0  0  0  0  0  0  0  0  0  0  0
  150.6687  140.3546  158.5073 H   0  0  0  0  0  0  0  0  0  0  0  0
  148.5490  141.1829  157.8120 H   0  0  0  0  0  0  0  0  0  0  0  0
  149.2312  142.2471  156.6038 H   0  0  0  0  0  0  0  0  0  0  0  0
  148.2431  139.7376  156.0933 H   0  0  0  0  0  0  0  0  0  0  0  0
  148.6821  139.0563  153.6577 H   0  0  0  0  0  0  0  0  0  0  0  0
  150.3512  138.5884  153.4278 H   0  0  0  0  0  0  0  0  0  0  0  0
  148.4700  137.5250  155.6044 H   0  0  0  0  0  0  0  0  0  0  0  0
  149.0071  136.6584  154.1897 H   0  0  0  0  0  0  0  0  0  0  0  0
  150.4326  135.8291  155.9074 H   0  0  0  0  0  0  0  0  0  0  0  0
  152.3860  138.7208  157.6817 H   0  0  0  0  0  0  0  0  0  0  0  0
  151.1043  143.8756  156.7000 H   0  0  0  0  0  0  0  0  0  0  0  0
  1  2  1  0  0  0  0
  1 21  1  0  0  0  0
  1 22  1  0  0  0  0
  1 23  1  0  0  0  0
  2 20  1  0  0  0  0
  2  3  2  0  0  0  0
  3  4  1  0  0  0  0
  4  5  1  0  0  0  0
  4 19  2  0  0  0  0
  5  6  1  0  0  0  0
  5 24  1  0  0  0  0
  5 25  1  0  0  0  0
  6  7  1  0  0  0  0
  6 26  1  0  0  0  0
  6 27  1  0  0  0  0
  7  8  1  0  0  0  0
  7 28  1  0  0  0  0
  8  9  2  0  0  0  0
  8 10  1  0  0  0  0
 10 11  1  0  0  0  0
 10 29  1  0  0  0  0
 10 30  1  0  0  0  0
 11 12  1  0  0  0  0
 11 31  1  0  0  0  0
 11 32  1  0  0  0  0
 12 17  1  0  0  0  0
 12 13  1  0  0  0  0
 12 33  1  0  0  0  0
 13 14  1  0  0  0  0
 14 15  2  0  0  0  0
 14 16  1  0  0  0  0
 16 17  1  0  0  0  0
 16 34  1  0  0  0  0
 17 18  2  0  0  0  0
 19 20  1  0  0  0  0
 19 35  1  0  0  0  0
M  CHG  1  13  -1
M  END
> <s_m_source_file>
AV-unprocessed.smi

> <i_m_source_file_index>
1116

> <i_lp_mmshare_version>
43012

> <i_f3d_flags>
0

> <s_epik_input>
W0NIM11jMW5jKFtjSF1zMSlbQ0gyXVtDSDJdW05IXUMoPU8pW0NIMl1bQ0gyXVtDQEBIXTJbTkhdQyg9TylbTkhdQzI9Tw==

> <s_epik_cmdline>
J2VwaWtfcHl0aG9uJywgJy1waCcsICc3LjAnLCAnLXRuJywgJzgnLCAnLW1hJywgJzIwMCcsICctbWV0YWxfYmluZGluZycsICctaW1hZScsICc8aW5maWxlLm1hZT4nLCAnLW9tYWUnLCAnPG91dGZpbGUubWFlPic=

> <r_lp_tautomer_probability>
1

> <r_epik_Ionization_Penalty>
5.7962

> <r_epik_Ionization_Penalty_Charging>
5.79516

> <r_epik_Ionization_Penalty_Neutral>
0.00104588

> <r_epik_State_Penalty>
5.80096

> <r_epik_Charging_Adjusted_Penalty>
11.5961

> <i_epik_Tot_Q>
-1

> <i_epik_Tot_abs_Q>
1

> <r_epik_Metal_State_Penalty>
2.1448

> <b_epik_Metal_Only>
1

> <s_lp_Force_Field>
OPLS_2005

> <r_lp_Energy>
5.74046

> <b_lp_Chiralities_Consistent>
1

> <s_lp_Variant>
AV-unprocessed.smi:1116-4

> <Gold.Version>
5.8.1

> <Gold.Id.Protein>
6NUR|6NUR_protein|mol2

> <Gold.PLP.Fitness>
46.1180

> <Gold.PLP.PLP>
-33.0717

> <Gold.PLP.part.hbond>
-3.4340

> <Gold.PLP.part.metal>
0.0000

> <Gold.PLP.part.buried>
-5.6226

> <Gold.PLP.part.nonpolar>
-25.6408

> <Gold.PLP.part.repulsive>
0.2585

> <Gold.PLP.ligand.clash>
0.0000

> <Gold.PLP.ligand.torsion>
0.4047

> <Gold.PLP.Chemscore.Hbond>
3.6400

> <Gold.PLP.Chemscore.CHOScore>
0.9626

> <Gold.PLP.Chemscore.Metal>
0.0000

> <Gold.Chemscore.Hbonds>
donor molecule, donor type, donor heavy atom, donor atom, acceptor molecule, acceptor atom, score
      P1  H  7989  7998       L1     9  1.00
      P1  H  7997  8009       L1    15  0.69
      P1  H 10752 10764       L1    13  1.98
      L1  C    19    35       P1  8028  0.86

> <Gold.PLP.Chemscore.Internal.Correction>
0.0479

> <Gold.Rescore>
     Score         DG    S(hbond)    S(metal)    S(lipo)     H(rot)  DE(clash)    DE(int)     intcor
     13.61     -15.87       2.50        0.00      78.00       2.77       0.00       2.26       ----

> <Gold.Chemscore.Fitness>
13.6126

> <Gold.Chemscore.DG>
-15.8711

> <Gold.Chemscore.ZeroCoef>
-5.4800

> <Gold.Chemscore.Hbond>
2.5013

> <Gold.Chemscore.Metal>
0.0000

> <Gold.Chemscore.Lipo>
77.9961

> <Gold.Chemscore.Internal_Hbond>
0.0000

> <Gold.Chemscore.DEClash>
0.0015

> <Gold.Chemscore.DEInternal>
2.2570

> <Gold.Chemscore.Rot>
2.7691

> <Gold.Chemscore.Internal.Correction>
   9.000000E+99

> <Gold.Chemscore.Hbonds>
donor molecule, donor type, donor heavy atom, donor atom, acceptor molecule, acceptor atom, score
      P1  H  7989  7998       L1     9  0.95
      P1  H  7997  8009       L1    15  0.66
      P1  H 10752 10764       L1    13  0.25

> <Gold.Chemscore.Hbond.Weighted>
-8.3544

> <Gold.Chemscore.Metal.Weighted>
-0.0000

> <Gold.Chemscore.Lipo.Weighted>
-9.1255

> <Gold.Chemscore.Internal_Hbond.Weighted>
0.0000

> <Gold.Chemscore.DEClash.Weighted>
0.0015

> <Gold.Chemscore.DEInternal.Weighted>
2.2570

> <Gold.Chemscore.Rot.Weighted>
7.0889

> <Gold.Chemscore.Internal.Correction.Weighted>
   9.000000E+99

> <Gold.Protein.RotatedTorsions>
[ 6907 6896 6895 6894 ] final  -46.55 input  -60.11 | X-H torsion
[ 7974 7965 7964 7962 ] final   95.19 input  175.53 | X-H torsion
[ 8008 7997 7996 7995 ] final -152.42 input   59.86 | X-H torsion
[ 10167 10162 10161 10158 ] final   56.57 input  -65.29 | X-H torsion
[ 10718 10713 10712 10709 ] final  -51.09 input   66.30 | X-H torsion
[ 10763 10752 10751 10750 ] final  -55.66 input  -60.55 | X-H torsion
[ 11005 11000 10999 10996 ] final   16.77 input  -57.11 | X-H torsion

> <Gold.Protein.ActiveResidues>
 VAL166  LYS551  ARG553  GLY616  TRP617  ASP618  TYR619  PRO620  LYS621  CYS622 
 ASP623  PHE694  ASN695  SER759  ASP760  ASP761  ALA762  ILE779  LEU786  VAL792 
 PHE793  MET794  SER795  GLU796  ALA797  LYS798  CYS799  TRP800  GLU811  SER814 

> <Gold.Protein.RotatedAtoms>
  150.9101  134.8517  159.7418 H   0  0  0  0  0  0  0  0  0  0  0  0  # atno 6907 bound_to 6896
  152.4939  134.4372  159.9541 H   0  0  0  0  0  0  0  0  0  0  0  0  # atno 6908 bound_to 6896
  151.4416  133.3602  159.2817 H   0  0  0  0  0  0  0  0  0  0  0  0  # atno 6909 bound_to 6896
  145.4555  139.2290  143.3016 H   0  0  0  0  0  0  0  0  0  0  0  0  # atno 7974 bound_to 7965
  155.6549  140.0716  157.2574 H   0  0  0  0  0  0  0  0  0  0  0  0  # atno 8008 bound_to 7997
  154.4154  140.1726  156.1764 H   0  0  0  0  0  0  0  0  0  0  0  0  # atno 8009 bound_to 7997
  155.9746  140.3359  155.6610 H   0  0  0  0  0  0  0  0  0  0  0  0  # atno 8010 bound_to 7997
  140.2073  144.3926  150.6503 H   0  0  0  0  0  0  0  0  0  0  0  0  # atno 10167 bound_to 10162
  156.1741  130.4149  149.9603 H   0  0  0  0  0  0  0  0  0  0  0  0  # atno 10718 bound_to 10713
  154.1943  135.6422  153.5069 H   0  0  0  0  0  0  0  0  0  0  0  0  # atno 10763 bound_to 10752
  153.0027  135.5436  154.6382 H   0  0  0  0  0  0  0  0  0  0  0  0  # atno 10764 bound_to 10752
  154.5779  135.2922  155.0735 H   0  0  0  0  0  0  0  0  0  0  0  0  # atno 10765 bound_to 10752
  140.4434  134.1298  155.7693 H   0  0  0  0  0  0  0  0  0  0  0  0  # atno 11005 bound_to 11000
  146.2480  140.5318  142.8905 LP  0  0  0  0  0  0  0  0  0  0  0  0  # atno 17320 bound_to 7965
  144.8035  140.6257  143.6462 LP  0  0  0  0  0  0  0  0  0  0  0  0  # atno 17321 bound_to 7965
  140.6348  143.2193  151.6417 LP  0  0  0  0  0  0  0  0  0  0  0  0  # atno 17342 bound_to 10162
  139.5193  144.3256  152.0872 LP  0  0  0  0  0  0  0  0  0  0  0  0  # atno 17343 bound_to 10162
  156.7394  130.9074  151.3631 LP  0  0  0  0  0  0  0  0  0  0  0  0  # atno 17370 bound_to 10713
  157.6823  130.9152  150.0298 LP  0  0  0  0  0  0  0  0  0  0  0  0  # atno 17371 bound_to 10713
  141.1695  133.8636  157.1613 LP  0  0  0  0  0  0  0  0  0  0  0  0  # atno 17394 bound_to 11000
  140.0054  135.0010  157.0282 LP  0  0  0  0  0  0  0  0  0  0  0  0  # atno 17395 bound_to 11000

$$$$
