AV-unprocessed.smi:1492|AV-procd|sdf|6041|dock9
  -GOLD-   22720 6153D 1   1.00000     0.00000
 Structure written by MMmdl.
 52 53  0  0  0  0  0  0  0  0  1 V2000
  150.2921  138.6419  155.2928 C   0  0  0  0  0  0  0  0  0  0  0  0
  151.0872  138.0714  156.4813 C   0  0  0  0  0  0  0  0  0  0  0  0
  150.4984  138.3288  157.9048 C   0  0  2  0  0  0  0  0  0  0  0  0
  151.3199  137.5067  158.9333 C   0  0  0  0  0  0  0  0  0  0  0  0
  149.0382  137.7739  157.9525 C   0  0  0  0  0  0  0  0  0  0  0  0
  148.5897  137.5075  159.3170 N   0  0  0  0  0  0  0  0  0  0  0  0
  148.5715  136.3156  159.9306 C   0  0  0  0  0  0  0  0  0  0  0  0
  148.7913  135.2476  159.3602 O   0  0  0  0  0  0  0  0  0  0  0  0
  148.3038  136.3464  161.4356 C   0  0  0  0  0  0  0  0  0  0  0  0
  146.9197  135.8424  161.8461 C   0  0  0  0  0  0  0  0  0  0  0  0
  146.6627  134.5365  162.1119 C   0  0  0  0  0  0  0  0  0  0  0  0
  147.6932  133.4250  162.0170 C   0  0  0  0  0  0  0  0  0  0  0  0
  145.4040  134.1204  162.5083 N   0  0  0  0  0  0  0  0  0  0  0  0
  144.4122  135.0795  162.6282 C   0  0  0  0  0  0  0  0  0  0  0  0
  143.0785  134.5233  163.0762 C   0  0  0  0  0  0  0  0  0  0  0  0
  144.5588  136.3482  162.3962 N   0  0  0  0  0  0  0  0  0  0  0  0
  145.8178  136.8224  161.9952 C   0  0  0  0  0  0  0  0  0  0  0  0
  145.9914  138.0227  161.7892 O   0  0  0  0  0  0  0  0  0  0  0  0
  150.5259  139.7755  158.2745 N   0  0  0  0  0  0  0  0  0  0  0  0
  151.8587  140.3847  158.3491 C   0  0  0  0  0  0  0  0  0  0  0  0
  151.8016  141.8249  158.8860 C   0  0  0  0  0  0  0  0  0  0  0  0
  150.9384  142.6084  158.0711 O   0  0  0  0  0  0  0  0  0  0  0  0
  149.6184  142.0814  158.0131 C   0  0  0  0  0  0  0  0  0  0  0  0
  149.6583  140.6435  157.4692 C   0  0  0  0  0  0  0  0  0  0  0  0
  145.2572  133.1399  162.7000 H   0  0  0  0  0  0  0  0  0  0  0  0
  150.7902  138.3961  154.3548 H   0  0  0  0  0  0  0  0  0  0  0  0
  150.2123  139.7275  155.3355 H   0  0  0  0  0  0  0  0  0  0  0  0
  149.2858  138.2276  155.2368 H   0  0  0  0  0  0  0  0  0  0  0  0
  151.1916  137.0003  156.3115 H   0  0  0  0  0  0  0  0  0  0  0  0
  152.0956  138.4796  156.4184 H   0  0  0  0  0  0  0  0  0  0  0  0
  151.1138  136.4387  158.8637 H   0  0  0  0  0  0  0  0  0  0  0  0
  151.0932  137.8061  159.9570 H   0  0  0  0  0  0  0  0  0  0  0  0
  152.3939  137.6252  158.7891 H   0  0  0  0  0  0  0  0  0  0  0  0
  148.3417  138.4864  157.5106 H   0  0  0  0  0  0  0  0  0  0  0  0
  148.9368  136.8720  157.3478 H   0  0  0  0  0  0  0  0  0  0  0  0
  148.3844  138.3197  159.8810 H   0  0  0  0  0  0  0  0  0  0  0  0
  149.0900  135.7863  161.9424 H   0  0  0  0  0  0  0  0  0  0  0  0
  148.4216  137.3719  161.7870 H   0  0  0  0  0  0  0  0  0  0  0  0
  148.5379  133.6279  162.6750 H   0  0  0  0  0  0  0  0  0  0  0  0
  148.0656  133.3382  160.9961 H   0  0  0  0  0  0  0  0  0  0  0  0
  147.2720  132.4604  162.3030 H   0  0  0  0  0  0  0  0  0  0  0  0
  142.3558  135.3247  163.2353 H   0  0  0  0  0  0  0  0  0  0  0  0
  143.1890  133.9763  164.0129 H   0  0  0  0  0  0  0  0  0  0  0  0
  142.6772  133.8456  162.3222 H   0  0  0  0  0  0  0  0  0  0  0  0
  152.5133  139.8141  159.0055 H   0  0  0  0  0  0  0  0  0  0  0  0
  152.3265  140.3958  157.3648 H   0  0  0  0  0  0  0  0  0  0  0  0
  151.4495  141.8364  159.9179 H   0  0  0  0  0  0  0  0  0  0  0  0
  152.7963  142.2707  158.8825 H   0  0  0  0  0  0  0  0  0  0  0  0
  149.1634  142.1080  159.0035 H   0  0  0  0  0  0  0  0  0  0  0  0
  149.0106  142.7141  157.3663 H   0  0  0  0  0  0  0  0  0  0  0  0
  150.0071  140.6721  156.4371 H   0  0  0  0  0  0  0  0  0  0  0  0
  148.6379  140.2656  157.4472 H   0  0  0  0  0  0  0  0  0  0  0  0
  1  2  1  0  0  0  0
  1 26  1  0  0  0  0
  1 27  1  0  0  0  0
  1 28  1  0  0  0  0
  2  3  1  0  0  0  0
  2 29  1  0  0  0  0
  2 30  1  0  0  0  0
  3  4  1  0  0  0  0
  3  5  1  0  0  0  0
  3 19  1  0  0  0  0
  4 31  1  0  0  0  0
  4 32  1  0  0  0  0
  4 33  1  0  0  0  0
  5  6  1  0  0  0  0
  5 34  1  0  0  0  0
  5 35  1  0  0  0  0
  6  7  1  0  0  0  0
  6 36  1  0  0  0  0
  7  8  2  0  0  0  0
  7  9  1  0  0  0  0
  9 37  1  0  0  0  0
  9 38  1  0  0  0  0
  9 10  1  0  0  0  0
 10 17  1  0  0  0  0
 10 11  2  0  0  0  0
 11 12  1  0  0  0  0
 11 13  1  0  0  0  0
 12 39  1  0  0  0  0
 12 40  1  0  0  0  0
 12 41  1  0  0  0  0
 13 25  1  0  0  0  0
 13 14  1  0  0  0  0
 14 15  1  0  0  0  0
 14 16  2  0  0  0  0
 15 42  1  0  0  0  0
 15 43  1  0  0  0  0
 15 44  1  0  0  0  0
 16 17  1  0  0  0  0
 17 18  2  0  0  0  0
 19 24  1  0  0  0  0
 19 20  1  0  0  0  0
 20 21  1  0  0  0  0
 20 45  1  0  0  0  0
 20 46  1  0  0  0  0
 21 22  1  0  0  0  0
 21 47  1  0  0  0  0
 21 48  1  0  0  0  0
 22 23  1  0  0  0  0
 23 24  1  0  0  0  0
 23 49  1  0  0  0  0
 23 50  1  0  0  0  0
 24 51  1  0  0  0  0
 24 52  1  0  0  0  0
M  END
> <s_m_source_file>
AV-unprocessed.smi

> <i_m_source_file_index>
1492

> <i_lp_mmshare_version>
43012

> <i_f3d_flags>
0

> <s_epik_input>
W0NIMl0xW0NIMl1PW0NIMl1bQ0gyXU4xW0NAQF0oW0NIM10pKFtDSDJdW0NIM10pW0NIMl1bTkhdQyg9TylbQ0gyXWMyYyhbQ0gzXSluYyhbQ0gzXSlbbkhdYzI9Tw==

> <s_epik_cmdline>
J2VwaWtfcHl0aG9uJywgJy1waCcsICc3LjAnLCAnLXRuJywgJzgnLCAnLW1hJywgJzIwMCcsICctbWV0YWxfYmluZGluZycsICctaW1hZScsICc8aW5maWxlLm1hZT4nLCAnLW9tYWUnLCAnPG91dGZpbGUubWFlPic=

> <r_lp_tautomer_probability>
0.156392

> <r_epik_Ionization_Penalty>
0.342516

> <r_epik_Ionization_Penalty_Charging>
0.0141408

> <r_epik_Ionization_Penalty_Neutral>
0.328375

> <r_epik_State_Penalty>
1.47662

> <r_epik_Charging_Adjusted_Penalty>
1.49076

> <i_epik_Tot_Q>
0

> <i_epik_Tot_abs_Q>
0

> <r_epik_Metal_State_Penalty>
1.65506

> <b_epik_Metal_Only>
0

> <s_lp_Force_Field>
OPLS_2005

> <r_lp_Energy>
47.0207

> <b_lp_Chiralities_Consistent>
1

> <s_lp_Variant>
AV-unprocessed.smi:1492-6

> <Gold.Version>
5.8.1

> <Gold.Id.Protein>
6NUR|6NUR_protein|mol2

> <Gold.PLP.Fitness>
39.3825

> <Gold.PLP.PLP>
-36.1649

> <Gold.PLP.part.hbond>
-2.0000

> <Gold.PLP.part.metal>
0.0000

> <Gold.PLP.part.buried>
-7.0819

> <Gold.PLP.part.nonpolar>
-27.0528

> <Gold.PLP.part.repulsive>
0.4127

> <Gold.PLP.ligand.clash>
0.0000

> <Gold.PLP.ligand.torsion>
0.9997

> <Gold.PLP.Chemscore.Hbond>
1.7040

> <Gold.PLP.Chemscore.CHOScore>
0.0000

> <Gold.PLP.Chemscore.Metal>
0.0000

> <Gold.Chemscore.Hbonds>
donor molecule, donor type, donor heavy atom, donor atom, acceptor molecule, acceptor atom, score
      P1  H  6896  6908       L1     8  1.00
      P1  H  6934  6947       L1    18  0.69

> <Gold.PLP.Chemscore.Internal.Correction>
0.1049

> <Gold.Rescore>
     Score         DG    S(hbond)    S(metal)    S(lipo)     H(rot)  DE(clash)    DE(int)     intcor
     14.79     -15.80       1.94        0.00      79.21       2.12       0.07       0.94       ----

> <Gold.Chemscore.Fitness>
14.7901

> <Gold.Chemscore.DG>
-15.8043

> <Gold.Chemscore.ZeroCoef>
-5.4800

> <Gold.Chemscore.Hbond>
1.9377

> <Gold.Chemscore.Metal>
0.0000

> <Gold.Chemscore.Lipo>
79.2141

> <Gold.Chemscore.Internal_Hbond>
0.0000

> <Gold.Chemscore.DEClash>
0.0710

> <Gold.Chemscore.DEInternal>
0.9431

> <Gold.Chemscore.Rot>
2.1155

> <Gold.Chemscore.Internal.Correction>
   9.000000E+99

> <Gold.Chemscore.Hbonds>
donor molecule, donor type, donor heavy atom, donor atom, acceptor molecule, acceptor atom, score
      P1  H  6896  6908       L1     8  0.89
      P1  H  6934  6947       L1    18  0.68

> <Gold.Chemscore.Hbond.Weighted>
-6.4719

> <Gold.Chemscore.Metal.Weighted>
-0.0000

> <Gold.Chemscore.Lipo.Weighted>
-9.2681

> <Gold.Chemscore.Internal_Hbond.Weighted>
0.0000

> <Gold.Chemscore.DEClash.Weighted>
0.0710

> <Gold.Chemscore.DEInternal.Weighted>
0.9431

> <Gold.Chemscore.Rot.Weighted>
5.4157

> <Gold.Chemscore.Internal.Correction.Weighted>
   9.000000E+99

> <Gold.Protein.RotatedTorsions>
[ 6907 6896 6895 6894 ] final  166.55 input  -60.11 | X-H torsion
[ 7974 7965 7964 7962 ] final   25.35 input  175.53 | X-H torsion
[ 8008 7997 7996 7995 ] final   35.83 input   59.86 | X-H torsion
[ 10167 10162 10161 10158 ] final  -60.29 input  -65.29 | X-H torsion
[ 10718 10713 10712 10709 ] final -164.84 input   66.30 | X-H torsion
[ 10763 10752 10751 10750 ] final  110.68 input  -60.55 | X-H torsion
[ 11005 11000 10999 10996 ] final   38.13 input  -57.11 | X-H torsion

> <Gold.Protein.ActiveResidues>
 VAL166  LYS551  ARG553  GLY616  TRP617  ASP618  TYR619  PRO620  LYS621  CYS622 
 ASP623  PHE694  ASN695  SER759  ASP760  ASP761  ALA762  ILE779  LEU786  VAL792 
 PHE793  MET794  SER795  GLU796  ALA797  LYS798  CYS799  TRP800  GLU811  SER814 

> <Gold.Protein.RotatedAtoms>
  151.8772  133.3488  159.3754 H   0  0  0  0  0  0  0  0  0  0  0  0  # atno 6907 bound_to 6896
  150.7137  134.5054  159.5591 H   0  0  0  0  0  0  0  0  0  0  0  0  # atno 6908 bound_to 6896
  152.2599  134.8046  160.0483 H   0  0  0  0  0  0  0  0  0  0  0  0  # atno 6909 bound_to 6896
  146.1893  139.7479  142.8843 H   0  0  0  0  0  0  0  0  0  0  0  0  # atno 7974 bound_to 7965
  155.1776  140.3297  155.4381 H   0  0  0  0  0  0  0  0  0  0  0  0  # atno 8008 bound_to 7997
  156.2488  140.1932  156.6826 H   0  0  0  0  0  0  0  0  0  0  0  0  # atno 8009 bound_to 7997
  154.6294  140.0584  156.9699 H   0  0  0  0  0  0  0  0  0  0  0  0  # atno 8010 bound_to 7997
  140.6080  143.2379  151.5775 H   0  0  0  0  0  0  0  0  0  0  0  0  # atno 10167 bound_to 10162
  156.6448  130.8983  151.3003 H   0  0  0  0  0  0  0  0  0  0  0  0  # atno 10718 bound_to 10713
  153.4525  135.3740  155.2292 H   0  0  0  0  0  0  0  0  0  0  0  0  # atno 10763 bound_to 10752
  154.8756  135.3889  154.4021 H   0  0  0  0  0  0  0  0  0  0  0  0  # atno 10764 bound_to 10752
  153.4583  135.7086  153.6130 H   0  0  0  0  0  0  0  0  0  0  0  0  # atno 10765 bound_to 10752
  140.2157  134.3701  155.8028 H   0  0  0  0  0  0  0  0  0  0  0  0  # atno 11005 bound_to 11000
  145.3842  141.0363  143.3160 LP  0  0  0  0  0  0  0  0  0  0  0  0  # atno 17320 bound_to 7965
  144.8456  139.5402  143.6880 LP  0  0  0  0  0  0  0  0  0  0  0  0  # atno 17321 bound_to 7965
  139.5340  144.2835  152.1210 LP  0  0  0  0  0  0  0  0  0  0  0  0  # atno 17342 bound_to 10162
  140.2028  144.4640  150.6423 LP  0  0  0  0  0  0  0  0  0  0  0  0  # atno 17343 bound_to 10162
  157.7159  130.9497  150.1255 LP  0  0  0  0  0  0  0  0  0  0  0  0  # atno 17370 bound_to 10713
  156.2130  130.3668  149.8647 LP  0  0  0  0  0  0  0  0  0  0  0  0  # atno 17371 bound_to 10713
  141.2225  133.7166  156.8492 LP  0  0  0  0  0  0  0  0  0  0  0  0  # atno 17394 bound_to 11000
  140.1903  134.8970  157.3052 LP  0  0  0  0  0  0  0  0  0  0  0  0  # atno 17395 bound_to 11000

$$$$
