#       Name:                AV-unprocessed.smi:1032
#       Creating user name   scv26
#       Creation time:       Fri Mar 27 02:46:55 2020


#       File generated by GOLD software.
#

@<TRIPOS>MOLECULE
AV-unprocessed.smi:1032
    51    52     1
SMALL
NO_CHARGES


@<TRIPOS>ATOM
      1 ****        -4.2780   4.9492  -1.1004 C.3            1 S1                 0.0000
      2 ****        -3.8989   3.4830  -1.3505 C.3            1 S1                 0.0000
      3 ****        -4.3660   2.5704  -0.2044 C.3            1 S1                 0.0000
      4 ****        -3.9553   1.1088  -0.4507 C.3            1 S1                 0.0000
      5 ****        -2.4869   0.9885  -0.6413 N.4            1 S1                 1.0000
      6 ****        -2.0437  -0.4260  -0.7446 C.3            1 S1                 0.0000
      7 ****        -0.5799  -0.6190  -0.2983 C.3            1 S1                 0.0000
      8 ****        -0.5222  -0.3432   1.0879 O.3            1 S1                 0.0000
      9 ****        -0.1000  -2.0652  -0.5340 C.3            1 S1                 0.0000
     10 ****         1.3562  -2.1612  -0.5129 N.am           1 S1                 0.0000
     11 ****         2.0916  -2.4298   0.5753 C.2            1 S1                 0.0000
     12 ****         1.6042  -2.6626   1.6810 O.2            1 S1                 0.0000
     13 ****         3.4053  -2.4222   0.2902 N.am           1 S1                 0.0000
     14 ****         4.5085  -2.6106   1.1677 C.ar           1 S1                 0.0000
     15 ****         5.7539  -2.9365   0.5860 C.ar           1 S1                 0.0000
     16 ****         6.8827  -3.1162   1.4112 C.ar           1 S1                 0.0000
     17 ****         6.7679  -2.9693   2.7483 N.pl3          1 S1                 1.0000
     18 ****         5.6031  -2.6463   3.3497 C.ar           1 S1                 0.0000
     19 ****         4.4407  -2.4523   2.5759 C.ar           1 S1                 0.0000
     20 ****        -2.0128   1.8359  -1.7678 C.3            1 S1                 0.0000
     21 ****        -2.3835   3.3117  -1.5471 C.3            1 S1                 0.0000
     22 ****        -3.8067   5.3328  -0.1950 H              1 S1                 0.0000
     23 ****        -5.3566   5.0620  -0.9878 H              1 S1                 0.0000
     24 ****        -3.9667   5.5823  -1.9318 H              1 S1                 0.0000
     25 ****        -4.3992   3.1630  -2.2659 H              1 S1                 0.0000
     26 ****        -3.9399   2.9134   0.7396 H              1 S1                 0.0000
     27 ****        -5.4493   2.6331  -0.0947 H              1 S1                 0.0000
     28 ****        -4.2672   0.5044   0.4020 H              1 S1                 0.0000
     29 ****        -4.4715   0.7133  -1.3270 H              1 S1                 0.0000
     30 ****        -2.6807  -1.0634  -0.1287 H              1 S1                 0.0000
     31 ****        -2.1822  -0.7667  -1.7720 H              1 S1                 0.0000
     32 ****         0.0748   0.0721  -0.8290 H              1 S1                 0.0000
     33 ****        -0.9819  -1.0262   1.5531 H              1 S1                 0.0000
     34 ****        -0.5630  -2.7613   0.1681 H              1 S1                 0.0000
     35 ****        -0.4093  -2.3920  -1.5273 H              1 S1                 0.0000
     36 ****         1.8362  -1.9942  -1.3853 H              1 S1                 0.0000
     37 ****         3.6446  -2.2986  -0.6827 H              1 S1                 0.0000
     38 ****         5.8470  -3.0528  -0.4842 H              1 S1                 0.0000
     39 ****         7.8667  -3.3689   1.0441 H              1 S1                 0.0000
     40 ****         5.6362  -2.5469   4.4248 H              1 S1                 0.0000
     41 ****         3.5274  -2.1746   3.0790 H              1 S1                 0.0000
     42 ****        -0.9320   1.7568  -1.8758 H              1 S1                 0.0000
     43 ****        -2.4480   1.4779  -2.7022 H              1 S1                 0.0000
     44 ****        -2.0483   3.9043  -2.3990 H              1 S1                 0.0000
     45 ****        -1.8497   3.6948  -0.6759 H              1 S1                 0.0000
     46 ****        -2.0652   1.3527   0.2017 H              1 S1                 0.0000
     47 ****         7.5965  -3.1034   3.3285 H              1 S1                 0.0000
     48 ****        -0.9540   0.5394   1.2735 LP             1 S1                 0.0000
     49 ****         0.4320  -0.3167   1.3861 LP             1 S1                 0.0000
     50 ****         0.6115  -2.6573   1.8010 LP             1 S1                 0.0000
     51 ****         2.2009  -2.8571   2.4596 LP             1 S1                 0.0000
@<TRIPOS>BOND
    1    1    2 1     
    2    1   22 1     
    3    1   23 1     
    4    1   24 1     
    5    2   21 1     
    6    2    3 1     
    7    2   25 1     
    8    3    4 1     
    9    3   26 1     
   10    3   27 1     
   11    4    5 1     
   12    4   28 1     
   13    4   29 1     
   14    5    6 1     
   15    5   20 1     
   16    5   46 1     
   17    6    7 1     
   18    6   30 1     
   19    6   31 1     
   20    7    8 1     
   21    7    9 1     
   22    7   32 1     
   23    8   33 1     
   24    9   10 1     
   25    9   34 1     
   26    9   35 1     
   27   10   11 am    
   28   10   36 1     
   29   11   12 2     
   30   11   13 am    
   31   13   14 1     
   32   13   37 1     
   33   14   19 ar    
   34   14   15 ar    
   35   15   16 ar    
   36   15   38 1     
   37   16   17 ar    
   38   16   39 1     
   39   17   18 ar    
   40   17   47 1     
   41   18   19 ar    
   42   18   40 1     
   43   19   41 1     
   44   20   21 1     
   45   20   42 1     
   46   20   43 1     
   47   21   44 1     
   48   21   45 1     
   49    8   48 1     
   50    8   49 1     
   51   12   50 1     
   52   12   51 1     
@<TRIPOS>SUBSTRUCTURE
      1 S1             1
@<TRIPOS>SET
LONE_PAIRS      STATIC     ATOMS    <user>   **** ""
4 48 49 50 51
DONOR_HYDROGENS      STATIC     ATOMS    <user>   **** ""
5 46 33 36 37 47
ATOM$BLUE        STATIC     ATOMS    COLORGROUP SYSTEM
4 48 49 50 51
ATOM$RED        STATIC     ATOMS    COLORGROUP SYSTEM
5 46 33 36 37 47
