AV-unprocessed.smi:1891|AV-procd|sdf|7665|dock4
  -GOLD-   22720 9403D 1   1.00000     0.00000
 Structure written by MMmdl.
 36 38  0  0  0  0  0  0  0  0  1 V2000
  153.1403  139.3454  154.7380 O   0  0  0  0  0  0  0  0  0  0  0  0
  152.0777  139.1446  155.6442 C   0  0  0  0  0  0  0  0  0  0  0  0
  152.1437  140.0489  156.8380 C   0  0  0  0  0  0  0  0  0  0  0  0
  153.0533  139.8729  157.7973 N   0  0  0  0  0  0  0  0  0  0  0  0
  152.7858  140.9118  158.6667 C   0  0  0  0  0  0  0  0  0  0  0  0
  153.4101  141.2773  159.8807 C   0  0  0  0  0  0  0  0  0  0  0  0
  152.9622  142.4028  160.6031 C   0  0  0  0  0  0  0  0  0  0  0  0
  151.8872  143.1780  160.1223 C   0  0  0  0  0  0  0  0  0  0  0  0
  151.2503  142.8302  158.9156 C   0  0  0  0  0  0  0  0  0  0  0  0
  151.6990  141.7036  158.1998 C   0  0  0  0  0  0  0  0  0  0  0  0
  151.3001  141.0995  157.0112 N   0  0  0  0  0  0  0  0  0  0  0  0
  150.2100  141.5479  156.1527 C   0  0  0  0  0  0  0  0  0  0  0  0
  148.8623  140.8809  156.4967 C   0  0  2  0  0  0  0  0  0  0  0  0
  148.8233  139.5662  155.9762 O   0  0  0  0  0  0  0  0  0  0  0  0
  147.6934  141.7311  156.0179 C   0  0  0  0  0  0  0  0  0  0  0  0
  146.8073  142.3170  156.9498 C   0  0  0  0  0  0  0  0  0  0  0  0
  145.7193  143.0938  156.5068 C   0  0  0  0  0  0  0  0  0  0  0  0
  145.5070  143.2870  155.1287 C   0  0  0  0  0  0  0  0  0  0  0  0
  144.4595  144.0317  154.7025 F   0  0  0  0  0  0  0  0  0  0  0  0
  146.3825  142.7021  154.1942 C   0  0  0  0  0  0  0  0  0  0  0  0
  147.4711  141.9240  154.6351 C   0  0  0  0  0  0  0  0  0  0  0  0
  148.2979  141.3604  153.7216 F   0  0  0  0  0  0  0  0  0  0  0  0
  153.3107  138.5311  154.2903 H   0  0  0  0  0  0  0  0  0  0  0  0
  151.1393  139.3152  155.1152 H   0  0  0  0  0  0  0  0  0  0  0  0
  152.0630  138.1046  155.9698 H   0  0  0  0  0  0  0  0  0  0  0  0
  154.2362  140.6917  160.2560 H   0  0  0  0  0  0  0  0  0  0  0  0
  153.4471  142.6737  161.5295 H   0  0  0  0  0  0  0  0  0  0  0  0
  151.5516  144.0396  160.6804 H   0  0  0  0  0  0  0  0  0  0  0  0
  150.4270  143.4230  158.5455 H   0  0  0  0  0  0  0  0  0  0  0  0
  150.1254  142.6297  156.2637 H   0  0  0  0  0  0  0  0  0  0  0  0
  150.4611  141.3704  155.1077 H   0  0  0  0  0  0  0  0  0  0  0  0
  148.7848  140.7723  157.5783 H   0  0  0  0  0  0  0  0  0  0  0  0
  149.1502  138.9727  156.6349 H   0  0  0  0  0  0  0  0  0  0  0  0
  146.9564  142.1698  158.0096 H   0  0  0  0  0  0  0  0  0  0  0  0
  145.0465  143.5396  157.2246 H   0  0  0  0  0  0  0  0  0  0  0  0
  146.2180  142.8481  153.1368 H   0  0  0  0  0  0  0  0  0  0  0  0
  1  2  1  0  0  0  0
  1 23  1  0  0  0  0
  2  3  1  0  0  0  0
  2 24  1  0  0  0  0
  2 25  1  0  0  0  0
  3 11  1  0  0  0  0
  3  4  2  0  0  0  0
  4  5  1  0  0  0  0
  5 10  2  0  0  0  0
  5  6  1  0  0  0  0
  6  7  2  0  0  0  0
  6 26  1  0  0  0  0
  7  8  1  0  0  0  0
  7 27  1  0  0  0  0
  8  9  2  0  0  0  0
  8 28  1  0  0  0  0
  9 10  1  0  0  0  0
  9 29  1  0  0  0  0
 10 11  1  0  0  0  0
 11 12  1  0  0  0  0
 12 13  1  0  0  0  0
 12 30  1  0  0  0  0
 12 31  1  0  0  0  0
 13 14  1  0  0  0  0
 13 15  1  0  0  0  0
 13 32  1  0  0  0  0
 14 33  1  0  0  0  0
 15 21  1  0  0  0  0
 15 16  2  0  0  0  0
 16 17  1  0  0  0  0
 16 34  1  0  0  0  0
 17 18  2  0  0  0  0
 17 35  1  0  0  0  0
 18 19  1  0  0  0  0
 18 20  1  0  0  0  0
 20 21  2  0  0  0  0
 20 36  1  0  0  0  0
 21 22  1  0  0  0  0
M  END
> <s_m_source_file>
AV-unprocessed.smi

> <i_m_source_file_index>
1891

> <i_lp_mmshare_version>
43012

> <i_f3d_flags>
0

> <s_epik_input>
W2NIXTFbY0hdW2NIXVtjSF1jKGMxMiluKGMobjIpW0NIMl1bT0hdKVtDSDJdW0NASF0oW09IXSljM1tjSF1bY0hdYyhGKVtjSF1jM0Y=

> <s_epik_cmdline>
J2VwaWtfcHl0aG9uJywgJy1waCcsICc3LjAnLCAnLXRuJywgJzgnLCAnLW1hJywgJzIwMCcsICctbWV0YWxfYmluZGluZycsICctaW1hZScsICc8aW5maWxlLm1hZT4nLCAnLW9tYWUnLCAnPG91dGZpbGUubWFlPic=

> <r_epik_Ionization_Penalty>
0.0634724

> <r_epik_Ionization_Penalty_Charging>
0

> <r_epik_Ionization_Penalty_Neutral>
0.0634724

> <r_epik_State_Penalty>
0.0551572

> <r_epik_Charging_Adjusted_Penalty>
0.0551572

> <i_epik_Tot_Q>
0

> <i_epik_Tot_abs_Q>
0

> <r_epik_Metal_State_Penalty>
5.78034e-05

> <b_epik_Metal_Only>
0

> <s_lp_Force_Field>
OPLS_2005

> <r_lp_Energy>
12.6206

> <b_lp_Chiralities_Consistent>
1

> <s_lp_Variant>
AV-unprocessed.smi:1891-1

> <Gold.Version>
5.8.1

> <Gold.Id.Protein>
6NUR|6NUR_protein|mol2

> <Gold.PLP.Fitness>
48.3355

> <Gold.PLP.PLP>
-45.1383

> <Gold.PLP.part.hbond>
-2.9237

> <Gold.PLP.part.metal>
0.0000

> <Gold.PLP.part.buried>
-2.2913

> <Gold.PLP.part.nonpolar>
-38.5964

> <Gold.PLP.part.repulsive>
0.0000

> <Gold.PLP.ligand.clash>
0.0000

> <Gold.PLP.ligand.torsion>
0.7520

> <Gold.PLP.Chemscore.Hbond>
1.5549

> <Gold.PLP.Chemscore.CHOScore>
0.0000

> <Gold.PLP.Chemscore.Metal>
0.0000

> <Gold.Chemscore.Hbonds>
donor molecule, donor type, donor heavy atom, donor atom, acceptor molecule, acceptor atom, score
      P1  H  7997  8009       L1     4  0.56
      P1  H  7997  8010       L1     1  1.00

> <Gold.PLP.Chemscore.Internal.Correction>
0.0364

> <Gold.Rescore>
     Score         DG    S(hbond)    S(metal)    S(lipo)     H(rot)  DE(clash)    DE(int)     intcor
     12.06     -14.21       1.25        0.00     101.75       2.88       0.22       1.93       ----

> <Gold.Chemscore.Fitness>
12.0591

> <Gold.Chemscore.DG>
-14.2092

> <Gold.Chemscore.ZeroCoef>
-5.4800

> <Gold.Chemscore.Hbond>
1.2542

> <Gold.Chemscore.Metal>
0.0000

> <Gold.Chemscore.Lipo>
101.7487

> <Gold.Chemscore.Internal_Hbond>
0.0000

> <Gold.Chemscore.DEClash>
0.2193

> <Gold.Chemscore.DEInternal>
1.9308

> <Gold.Chemscore.Rot>
2.8767

> <Gold.Chemscore.Internal.Correction>
   9.000000E+99

> <Gold.Chemscore.Hbonds>
donor molecule, donor type, donor heavy atom, donor atom, acceptor molecule, acceptor atom, score
      P1  H  7997  8009       L1     4  0.34
      P1  H  7997  8010       L1     1  0.71

> <Gold.Chemscore.Hbond.Weighted>
-4.1890

> <Gold.Chemscore.Metal.Weighted>
-0.0000

> <Gold.Chemscore.Lipo.Weighted>
-11.9046

> <Gold.Chemscore.Internal_Hbond.Weighted>
0.0000

> <Gold.Chemscore.DEClash.Weighted>
0.2193

> <Gold.Chemscore.DEInternal.Weighted>
1.9308

> <Gold.Chemscore.Rot.Weighted>
7.3644

> <Gold.Chemscore.Internal.Correction.Weighted>
   9.000000E+99

> <Gold.Protein.RotatedTorsions>
[ 6907 6896 6895 6894 ] final  -64.73 input  -60.11 | X-H torsion
[ 7974 7965 7964 7962 ] final  133.50 input  175.53 | X-H torsion
[ 8008 7997 7996 7995 ] final  130.49 input   59.86 | X-H torsion
[ 10167 10162 10161 10158 ] final  116.41 input  -65.29 | X-H torsion
[ 10718 10713 10712 10709 ] final  -26.68 input   66.30 | X-H torsion
[ 10763 10752 10751 10750 ] final   52.68 input  -60.55 | X-H torsion
[ 11005 11000 10999 10996 ] final -164.30 input  -57.11 | X-H torsion

> <Gold.Protein.ActiveResidues>
 VAL166  LYS551  ARG553  GLY616  TRP617  ASP618  TYR619  PRO620  LYS621  CYS622 
 ASP623  PHE694  ASN695  SER759  ASP760  ASP761  ALA762  ILE779  LEU786  VAL792 
 PHE793  MET794  SER795  GLU796  ALA797  LYS798  CYS799  TRP800  GLU811  SER814 

> <Gold.Protein.RotatedAtoms>
  150.7567  134.6258  159.6159 H   0  0  0  0  0  0  0  0  0  0  0  0  # atno 6907 bound_to 6896
  152.3550  134.6949  160.0234 H   0  0  0  0  0  0  0  0  0  0  0  0  # atno 6908 bound_to 6896
  151.7358  133.3283  159.3389 H   0  0  0  0  0  0  0  0  0  0  0  0  # atno 6909 bound_to 6896
  144.9859  139.4456  143.5363 H   0  0  0  0  0  0  0  0  0  0  0  0  # atno 7974 bound_to 7965
  156.2955  140.2594  156.2771 H   0  0  0  0  0  0  0  0  0  0  0  0  # atno 8008 bound_to 7997
  154.9638  140.0392  157.2221 H   0  0  0  0  0  0  0  0  0  0  0  0  # atno 8009 bound_to 7997
  154.7922  140.2814  155.5988 H   0  0  0  0  0  0  0  0  0  0  0  0  # atno 8010 bound_to 7997
  139.6249  144.7107  151.2555 H   0  0  0  0  0  0  0  0  0  0  0  0  # atno 10167 bound_to 10162
  156.4480  130.4478  149.7008 H   0  0  0  0  0  0  0  0  0  0  0  0  # atno 10718 bound_to 10713
  152.9790  135.5804  154.4617 H   0  0  0  0  0  0  0  0  0  0  0  0  # atno 10763 bound_to 10752
  154.4192  135.2771  155.1988 H   0  0  0  0  0  0  0  0  0  0  0  0  # atno 10764 bound_to 10752
  154.3744  135.6160  153.5811 H   0  0  0  0  0  0  0  0  0  0  0  0  # atno 10765 bound_to 10752
  140.5884  134.5070  157.5189 H   0  0  0  0  0  0  0  0  0  0  0  0  # atno 11005 bound_to 11000
  146.3419  139.9160  142.8773 LP  0  0  0  0  0  0  0  0  0  0  0  0  # atno 17320 bound_to 7965
  145.2355  140.9989  143.3966 LP  0  0  0  0  0  0  0  0  0  0  0  0  # atno 17321 bound_to 7965
  140.7405  143.6586  150.8184 LP  0  0  0  0  0  0  0  0  0  0  0  0  # atno 17342 bound_to 10162
  140.0203  143.5550  152.2803 LP  0  0  0  0  0  0  0  0  0  0  0  0  # atno 17343 bound_to 10162
  156.3846  130.7596  151.2592 LP  0  0  0  0  0  0  0  0  0  0  0  0  # atno 17370 bound_to 10713
  157.7504  131.0285  150.4054 LP  0  0  0  0  0  0  0  0  0  0  0  0  # atno 17371 bound_to 10713
  139.9285  134.8009  156.0998 LP  0  0  0  0  0  0  0  0  0  0  0  0  # atno 17394 bound_to 11000
  141.0951  133.6699  156.2626 LP  0  0  0  0  0  0  0  0  0  0  0  0  # atno 17395 bound_to 11000

$$$$
