AV-unprocessed.smi:1417|AV-procd|sdf|5765|dock8
  -GOLD-   22720 5403D 1   1.00000     0.00000
 Structure written by MMmdl.
 39 40  0  0  0  0  0  0  0  0  1 V2000
  150.5063  142.1262  155.7917 C   0  0  0  0  0  0  0  0  0  0  0  0
  149.5576  141.1445  155.1937 C   0  0  0  0  0  0  0  0  0  0  0  0
  149.7369  140.0012  154.4671 C   0  0  0  0  0  0  0  0  0  0  0  0
  148.4018  139.5663  154.2210 C   0  0  0  0  0  0  0  0  0  0  0  0
  148.0134  138.4135  153.4906 N   0  0  0  0  0  0  0  0  0  0  0  0
  146.7867  137.8810  153.3600 C   0  0  0  0  0  0  0  0  0  0  0  0
  145.7542  138.3383  153.8498 O   0  0  0  0  0  0  0  0  0  0  0  0
  146.8204  136.7668  152.6145 N   0  0  0  0  0  0  0  0  0  0  0  0
  145.6652  135.9376  152.2839 C   0  0  0  0  0  0  0  0  0  0  0  0
  145.8545  134.5003  152.7979 C   0  0  0  0  0  0  0  0  0  0  0  0
  144.7164  133.5797  152.3237 C   0  0  0  0  0  0  0  0  0  0  0  0
  144.6321  133.5785  150.8560 N   0  0  0  0  0  0  0  0  0  0  0  0
  143.6002  132.6438  150.3502 C   0  0  0  0  0  0  0  0  0  0  0  0
  143.5683  132.4879  148.8250 C   0  0  0  0  0  0  0  0  0  0  0  0
  142.4117  132.7501  148.2107 N   0  0  0  0  0  0  0  0  0  0  0  0
  144.5714  132.1277  148.2133 O   0  0  0  0  0  0  0  0  0  0  0  0
  144.3433  134.9305  150.3669 C   0  0  0  0  0  0  0  0  0  0  0  0
  145.4708  135.9004  150.7613 C   0  0  0  0  0  0  0  0  0  0  0  0
  147.4994  140.3729  154.7485 N   0  0  0  0  0  0  0  0  0  0  0  0
  148.2321  141.3867  155.3767 O   0  0  0  0  0  0  0  0  0  0  0  0
  151.5182  141.9677  155.4186 H   0  0  0  0  0  0  0  0  0  0  0  0
  150.5269  142.0307  156.8774 H   0  0  0  0  0  0  0  0  0  0  0  0
  150.2126  143.1472  155.5468 H   0  0  0  0  0  0  0  0  0  0  0  0
  150.6772  139.5638  154.1673 H   0  0  0  0  0  0  0  0  0  0  0  0
  148.7626  137.9340  153.0139 H   0  0  0  0  0  0  0  0  0  0  0  0
  147.7126  136.4654  152.2510 H   0  0  0  0  0  0  0  0  0  0  0  0
  144.7697  136.3673  152.7373 H   0  0  0  0  0  0  0  0  0  0  0  0
  146.8091  134.1026  152.4491 H   0  0  0  0  0  0  0  0  0  0  0  0
  145.8976  134.4931  153.8875 H   0  0  0  0  0  0  0  0  0  0  0  0
  144.9140  132.5780  152.7048 H   0  0  0  0  0  0  0  0  0  0  0  0
  143.7662  133.8987  152.7558 H   0  0  0  0  0  0  0  0  0  0  0  0
  143.7378  131.6615  150.8063 H   0  0  0  0  0  0  0  0  0  0  0  0
  142.6127  132.9917  150.6569 H   0  0  0  0  0  0  0  0  0  0  0  0
  142.3435  132.6527  147.2081 H   0  0  0  0  0  0  0  0  0  0  0  0
  141.6087  133.0368  148.7515 H   0  0  0  0  0  0  0  0  0  0  0  0
  144.2559  134.9192  149.2795 H   0  0  0  0  0  0  0  0  0  0  0  0
  143.3868  135.2817  150.7582 H   0  0  0  0  0  0  0  0  0  0  0  0
  145.2437  136.9002  150.3897 H   0  0  0  0  0  0  0  0  0  0  0  0
  146.3973  135.5926  150.2736 H   0  0  0  0  0  0  0  0  0  0  0  0
  1  2  1  0  0  0  0
  1 21  1  0  0  0  0
  1 22  1  0  0  0  0
  1 23  1  0  0  0  0
  2 20  1  0  0  0  0
  2  3  2  0  0  0  0
  3  4  1  0  0  0  0
  3 24  1  0  0  0  0
  4  5  1  0  0  0  0
  4 19  2  0  0  0  0
  5  6  1  0  0  0  0
  5 25  1  0  0  0  0
  6  7  2  0  0  0  0
  6  8  1  0  0  0  0
  8  9  1  0  0  0  0
  8 26  1  0  0  0  0
  9 18  1  0  0  0  0
  9 10  1  0  0  0  0
  9 27  1  0  0  0  0
 10 11  1  0  0  0  0
 10 28  1  0  0  0  0
 10 29  1  0  0  0  0
 11 12  1  0  0  0  0
 11 30  1  0  0  0  0
 11 31  1  0  0  0  0
 12 13  1  0  0  0  0
 12 17  1  0  0  0  0
 13 14  1  0  0  0  0
 13 32  1  0  0  0  0
 13 33  1  0  0  0  0
 14 15  1  0  0  0  0
 14 16  2  0  0  0  0
 15 34  1  0  0  0  0
 15 35  1  0  0  0  0
 17 18  1  0  0  0  0
 17 36  1  0  0  0  0
 17 37  1  0  0  0  0
 18 38  1  0  0  0  0
 18 39  1  0  0  0  0
 19 20  1  0  0  0  0
M  END
> <s_m_source_file>
AV-unprocessed.smi

> <i_m_source_file_index>
1417

> <i_lp_mmshare_version>
43012

> <i_f3d_flags>
0

> <s_epik_input>
W0NIM11jMVtjSF1jKG5vMSlbTkhdQyg9TylbTkhdW0NIXTJbQ0gyXVtDSDJdTihbQ0gyXVtDSDJdMilbQ0gyXUMoPU8pW05IMl0=

> <s_epik_cmdline>
J2VwaWtfcHl0aG9uJywgJy1waCcsICc3LjAnLCAnLXRuJywgJzgnLCAnLW1hJywgJzIwMCcsICctbWV0YWxfYmluZGluZycsICctaW1hZScsICc8aW5maWxlLm1hZT4nLCAnLW9tYWUnLCAnPG91dGZpbGUubWFlPic=

> <r_epik_Ionization_Penalty>
0.155825

> <r_epik_Ionization_Penalty_Charging>
0

> <r_epik_Ionization_Penalty_Neutral>
0.155825

> <r_epik_State_Penalty>
0.145092

> <r_epik_Charging_Adjusted_Penalty>
0.145092

> <i_epik_Tot_Q>
0

> <i_epik_Tot_abs_Q>
0

> <r_epik_Metal_State_Penalty>
0.171119

> <b_epik_Metal_Only>
0

> <s_lp_Force_Field>
OPLS_2005

> <r_lp_Energy>
11.4398

> <b_lp_Chiralities_Consistent>
1

> <s_lp_Variant>
AV-unprocessed.smi:1417-1

> <Gold.Version>
5.8.1

> <Gold.Id.Protein>
6NUR|6NUR_protein|mol2

> <Gold.PLP.Fitness>
41.6095

> <Gold.PLP.PLP>
-32.2407

> <Gold.PLP.part.hbond>
-5.6041

> <Gold.PLP.part.metal>
0.0000

> <Gold.PLP.part.buried>
-4.1791

> <Gold.PLP.part.nonpolar>
-24.9444

> <Gold.PLP.part.repulsive>
0.9551

> <Gold.PLP.ligand.clash>
0.0000

> <Gold.PLP.ligand.torsion>
0.0409

> <Gold.PLP.Chemscore.Hbond>
3.1492

> <Gold.PLP.Chemscore.CHOScore>
0.0000

> <Gold.PLP.Chemscore.Metal>
0.0000

> <Gold.Chemscore.Hbonds>
donor molecule, donor type, donor heavy atom, donor atom, acceptor molecule, acceptor atom, score
      L1  H     5    25       P1  7948  0.73
      L1  H     8    26       P1  7948  0.46
      L1  H    15    34       P1 10195  1.00
      L1  H    15    35       P1 10186  0.82

> <Gold.PLP.Chemscore.Internal.Correction>
0.0029

> <Gold.Rescore>
     Score         DG    S(hbond)    S(metal)    S(lipo)     H(rot)  DE(clash)    DE(int)     intcor
     17.34     -18.86       3.63        0.00      54.89       2.02       0.12       1.41       ----

> <Gold.Chemscore.Fitness>
17.3386

> <Gold.Chemscore.DG>
-18.8625

> <Gold.Chemscore.ZeroCoef>
-5.4800

> <Gold.Chemscore.Hbond>
3.6335

> <Gold.Chemscore.Metal>
0.0000

> <Gold.Chemscore.Lipo>
54.8915

> <Gold.Chemscore.Internal_Hbond>
0.0000

> <Gold.Chemscore.DEClash>
0.1163

> <Gold.Chemscore.DEInternal>
1.4077

> <Gold.Chemscore.Rot>
2.0217

> <Gold.Chemscore.Internal.Correction>
   9.000000E+99

> <Gold.Chemscore.Hbonds>
donor molecule, donor type, donor heavy atom, donor atom, acceptor molecule, acceptor atom, score
      L1  H     5    25       P1  7948  0.69
      L1  H     8    26       P1  7948  0.46
      L1  H    15    34       P1 10195  0.97
      L1  H    15    35       P1 10186  0.81

> <Gold.Chemscore.Hbond.Weighted>
-12.1358

> <Gold.Chemscore.Metal.Weighted>
-0.0000

> <Gold.Chemscore.Lipo.Weighted>
-6.4223

> <Gold.Chemscore.Internal_Hbond.Weighted>
0.0000

> <Gold.Chemscore.DEClash.Weighted>
0.1163

> <Gold.Chemscore.DEInternal.Weighted>
1.4077

> <Gold.Chemscore.Rot.Weighted>
5.1755

> <Gold.Chemscore.Internal.Correction.Weighted>
   9.000000E+99

> <Gold.Protein.RotatedTorsions>
[ 6907 6896 6895 6894 ] final  179.65 input  -60.11 | X-H torsion
[ 7974 7965 7964 7962 ] final   62.49 input  175.53 | X-H torsion
[ 8008 7997 7996 7995 ] final  -51.88 input   59.86 | X-H torsion
[ 10167 10162 10161 10158 ] final    4.25 input  -65.29 | X-H torsion
[ 10718 10713 10712 10709 ] final   50.68 input   66.30 | X-H torsion
[ 10763 10752 10751 10750 ] final -101.48 input  -60.55 | X-H torsion
[ 11005 11000 10999 10996 ] final   21.72 input  -57.11 | X-H torsion

> <Gold.Protein.ActiveResidues>
 VAL166  LYS551  ARG553  GLY616  TRP617  ASP618  TYR619  PRO620  LYS621  CYS622 
 ASP623  PHE694  ASN695  SER759  ASP760  ASP761  ALA762  ILE779  LEU786  VAL792 
 PHE793  MET794  SER795  GLU796  ALA797  LYS798  CYS799  TRP800  GLU811  SER814 

> <Gold.Protein.RotatedAtoms>
  151.6682  133.3314  159.3189 H   0  0  0  0  0  0  0  0  0  0  0  0  # atno 6907 bound_to 6896
  150.7880  134.6885  159.6493 H   0  0  0  0  0  0  0  0  0  0  0  0  # atno 6908 bound_to 6896
  152.3954  134.6377  160.0143 H   0  0  0  0  0  0  0  0  0  0  0  0  # atno 6909 bound_to 6896
  145.8728  139.3389  143.0752 H   0  0  0  0  0  0  0  0  0  0  0  0  # atno 7974 bound_to 7965
  154.4093  140.1237  156.4901 H   0  0  0  0  0  0  0  0  0  0  0  0  # atno 8008 bound_to 7997
  155.6999  140.3495  155.4909 H   0  0  0  0  0  0  0  0  0  0  0  0  # atno 8009 bound_to 7997
  155.9394  140.1084  157.1058 H   0  0  0  0  0  0  0  0  0  0  0  0  # atno 8010 bound_to 7997
  140.6544  143.7463  150.7629 H   0  0  0  0  0  0  0  0  0  0  0  0  # atno 10167 bound_to 10162
  157.4908  130.8374  149.8200 H   0  0  0  0  0  0  0  0  0  0  0  0  # atno 10718 bound_to 10713
  154.7661  135.4896  153.9556 H   0  0  0  0  0  0  0  0  0  0  0  0  # atno 10763 bound_to 10752
  153.1309  135.6752  153.9188 H   0  0  0  0  0  0  0  0  0  0  0  0  # atno 10764 bound_to 10752
  153.8891  135.3123  155.3425 H   0  0  0  0  0  0  0  0  0  0  0  0  # atno 10765 bound_to 10752
  140.3885  134.1844  155.7663 H   0  0  0  0  0  0  0  0  0  0  0  0  # atno 11005 bound_to 11000
  145.9117  140.9175  143.0450 LP  0  0  0  0  0  0  0  0  0  0  0  0  # atno 17320 bound_to 7965
  144.6726  140.1169  143.7452 LP  0  0  0  0  0  0  0  0  0  0  0  0  # atno 17321 bound_to 7965
  140.1120  143.4690  152.2364 LP  0  0  0  0  0  0  0  0  0  0  0  0  # atno 17342 bound_to 10162
  139.5764  144.7489  151.3753 LP  0  0  0  0  0  0  0  0  0  0  0  0  # atno 17343 bound_to 10162
  156.0172  130.3809  150.2073 LP  0  0  0  0  0  0  0  0  0  0  0  0  # atno 17370 bound_to 10713
  157.0262  130.9994  151.3325 LP  0  0  0  0  0  0  0  0  0  0  0  0  # atno 17371 bound_to 10713
  141.1899  133.8228  157.0939 LP  0  0  0  0  0  0  0  0  0  0  0  0  # atno 17394 bound_to 11000
  140.0424  134.9847  157.0987 LP  0  0  0  0  0  0  0  0  0  0  0  0  # atno 17395 bound_to 11000

$$$$
