AV-unprocessed.smi:148|AV-procd|sdf|1206|dock9
  -GOLD-   2262018373D 1   1.00000     0.00000
 Structure written by MMmdl.
 63 67  0  0  0  0  0  0  0  0  1 V2000
  148.8854  134.6851  153.8987 O   0  0  0  0  0  0  0  0  0  0  0  0
  148.5015  134.4176  155.2313 C   0  0  0  0  0  0  0  0  0  0  0  0
  149.6299  133.6999  156.0085 C   0  0  2  0  0  0  0  0  0  0  0  0
  150.9884  134.4305  155.8423 C   0  0  0  0  0  0  0  0  0  0  0  0
  150.9298  135.8230  156.2497 N   0  0  0  0  0  0  0  0  0  0  0  0
  150.4497  136.3175  157.4424 C   0  0  0  0  0  0  0  0  0  0  0  0
  150.5199  137.6141  157.5763 N   0  0  0  0  0  0  0  0  0  0  0  0
  151.0819  138.0431  156.3812 C   0  0  0  0  0  0  0  0  0  0  0  0
  151.4588  139.3111  155.8678 C   0  0  0  0  0  0  0  0  0  0  0  0
  151.2970  140.4454  156.5829 N   0  0  0  0  0  0  0  0  0  0  0  0
  151.9788  140.3244  157.8737 C   0  0  0  0  0  0  0  0  0  0  0  0
  152.0916  141.6807  158.5759 C   0  0  0  0  0  0  0  0  0  0  0  0
  150.7031  142.3036  158.7257 C   0  0  0  0  0  0  0  0  0  0  0  0
  150.0245  142.4030  157.3535 C   0  0  0  0  0  0  0  0  0  0  0  0
  149.9411  141.0340  156.6222 C   0  0  1  0  0  0  0  0  0  0  0  0
  149.2740  141.2084  155.2117 C   0  0  1  0  0  0  0  0  0  0  0  0
  148.8829  139.9189  154.4539 C   0  0  0  0  0  0  0  0  0  0  0  0
  147.7514  140.2871  153.4834 C   0  0  0  0  0  0  0  0  0  0  0  0
  147.3761  141.7371  153.7973 C   0  0  0  0  0  0  0  0  0  0  0  0
  147.9523  142.0067  155.1876 C   0  0  1  0  0  0  0  0  0  0  0  0
  147.0354  141.5226  156.1537 O   0  0  0  0  0  0  0  0  0  0  0  0
  151.9979  139.3625  154.6208 N   0  0  0  0  0  0  0  0  0  0  0  0
  152.1676  138.2346  153.9236 C   0  0  0  0  0  0  0  0  0  0  0  0
  151.8777  136.9805  154.2793 N   0  0  0  0  0  0  0  0  0  0  0  0
  151.3343  136.9326  155.5297 C   0  0  0  0  0  0  0  0  0  0  0  0
  149.6988  132.1861  155.6648 C   0  0  2  0  0  0  0  0  0  0  0  0
  150.8752  131.4191  156.2711 C   0  0  0  0  0  0  0  0  0  0  0  0
  151.4193  130.5858  155.1090 C   0  0  0  0  0  0  0  0  0  0  0  0
  150.3500  130.5384  154.1777 O   0  0  0  0  0  0  0  0  0  0  0  0
  149.7581  131.8262  154.1752 C   0  0  0  0  0  0  0  0  0  0  0  0
  149.1715  135.5839  153.8426 H   0  0  0  0  0  0  0  0  0  0  0  0
  148.2229  135.3504  155.7220 H   0  0  0  0  0  0  0  0  0  0  0  0
  147.6028  133.8031  155.1852 H   0  0  0  0  0  0  0  0  0  0  0  0
  149.3675  133.7595  157.0660 H   0  0  0  0  0  0  0  0  0  0  0  0
  151.7719  133.9524  156.4287 H   0  0  0  0  0  0  0  0  0  0  0  0
  151.3182  134.3982  154.8043 H   0  0  0  0  0  0  0  0  0  0  0  0
  150.0544  135.6809  158.2206 H   0  0  0  0  0  0  0  0  0  0  0  0
  151.4307  139.6290  158.5114 H   0  0  0  0  0  0  0  0  0  0  0  0
  152.9773  139.9068  157.7324 H   0  0  0  0  0  0  0  0  0  0  0  0
  152.5584  141.5599  159.5538 H   0  0  0  0  0  0  0  0  0  0  0  0
  152.7370  142.3440  157.9986 H   0  0  0  0  0  0  0  0  0  0  0  0
  150.0935  141.6962  159.3960 H   0  0  0  0  0  0  0  0  0  0  0  0
  150.7808  143.2916  159.1805 H   0  0  0  0  0  0  0  0  0  0  0  0
  149.0351  142.8308  157.5064 H   0  0  0  0  0  0  0  0  0  0  0  0
  150.5733  143.1135  156.7336 H   0  0  0  0  0  0  0  0  0  0  0  0
  149.3132  140.3726  157.2214 H   0  0  0  0  0  0  0  0  0  0  0  0
  149.9765  141.7571  154.5817 H   0  0  0  0  0  0  0  0  0  0  0  0
  149.7147  139.4856  153.9023 H   0  0  0  0  0  0  0  0  0  0  0  0
  148.5264  139.1637  155.1556 H   0  0  0  0  0  0  0  0  0  0  0  0
  148.0620  140.1809  152.4434 H   0  0  0  0  0  0  0  0  0  0  0  0
  146.8980  139.6261  153.6384 H   0  0  0  0  0  0  0  0  0  0  0  0
  147.8602  142.3963  153.0754 H   0  0  0  0  0  0  0  0  0  0  0  0
  146.3025  141.9195  153.7332 H   0  0  0  0  0  0  0  0  0  0  0  0
  148.1091  143.0745  155.3452 H   0  0  0  0  0  0  0  0  0  0  0  0
  146.3387  142.1536  156.2491 H   0  0  0  0  0  0  0  0  0  0  0  0
  152.6022  138.3533  152.9420 H   0  0  0  0  0  0  0  0  0  0  0  0
  148.8035  131.7067  156.0632 H   0  0  0  0  0  0  0  0  0  0  0  0
  151.6492  132.0567  156.6970 H   0  0  0  0  0  0  0  0  0  0  0  0
  150.5200  130.7703  157.0729 H   0  0  0  0  0  0  0  0  0  0  0  0
  152.2745  131.0826  154.6482 H   0  0  0  0  0  0  0  0  0  0  0  0
  151.7291  129.5866  155.4157 H   0  0  0  0  0  0  0  0  0  0  0  0
  148.7733  131.8120  153.7077 H   0  0  0  0  0  0  0  0  0  0  0  0
  150.3962  132.5003  153.6045 H   0  0  0  0  0  0  0  0  0  0  0  0
  1  2  1  0  0  0  0
  1 31  1  0  0  0  0
  2  3  1  0  0  0  0
  2 32  1  0  0  0  0
  2 33  1  0  0  0  0
  3  4  1  0  0  0  0
  3 26  1  0  0  0  0
  3 34  1  0  0  0  0
  4  5  1  0  0  0  0
  4 35  1  0  0  0  0
  4 36  1  0  0  0  0
  5 25  1  0  0  0  0
  5  6  1  0  0  0  0
  6  7  2  0  0  0  0
  6 37  1  0  0  0  0
  7  8  1  0  0  0  0
  8 25  2  0  0  0  0
  8  9  1  0  0  0  0
  9 10  1  0  0  0  0
  9 22  2  0  0  0  0
 10 15  1  0  0  0  0
 10 11  1  0  0  0  0
 11 12  1  0  0  0  0
 11 38  1  0  0  0  0
 11 39  1  0  0  0  0
 12 13  1  0  0  0  0
 12 40  1  0  0  0  0
 12 41  1  0  0  0  0
 13 14  1  0  0  0  0
 13 42  1  0  0  0  0
 13 43  1  0  0  0  0
 14 15  1  0  0  0  0
 14 44  1  0  0  0  0
 14 45  1  0  0  0  0
 15 16  1  0  0  0  0
 15 46  1  0  0  0  0
 16 20  1  0  0  0  0
 16 17  1  0  0  0  0
 16 47  1  0  0  0  0
 17 18  1  0  0  0  0
 17 48  1  0  0  0  0
 17 49  1  0  0  0  0
 18 19  1  0  0  0  0
 18 50  1  0  0  0  0
 18 51  1  0  0  0  0
 19 20  1  0  0  0  0
 19 52  1  0  0  0  0
 19 53  1  0  0  0  0
 20 21  1  0  0  0  0
 20 54  1  0  0  0  0
 21 55  1  0  0  0  0
 22 23  1  0  0  0  0
 23 24  2  0  0  0  0
 23 56  1  0  0  0  0
 24 25  1  0  0  0  0
 26 30  1  0  0  0  0
 26 27  1  0  0  0  0
 26 57  1  0  0  0  0
 27 28  1  0  0  0  0
 27 58  1  0  0  0  0
 27 59  1  0  0  0  0
 28 29  1  0  0  0  0
 28 60  1  0  0  0  0
 28 61  1  0  0  0  0
 29 30  1  0  0  0  0
 30 62  1  0  0  0  0
 30 63  1  0  0  0  0
M  END
> <s_m_source_file>
AV-unprocessed.smi

> <i_m_source_file_index>
148

> <i_lp_mmshare_version>
43012

> <i_f3d_flags>
0

> <s_epik_input>
W0NIMl0xT1tDSDJdW0NIMl1bQ0BIXTFbQ0BIXShbQ0gyXVtPSF0pW0NIMl1uKFtjSF1uMiljKGMyMyluW2NIXW5jM040W0NIMl1bQ0gyXVtDSDJdW0NIMl1bQ0BIXTRbQ0BASF01W0NIMl1bQ0gyXVtDSDJdW0NASF01W09IXQ==

> <s_epik_cmdline>
J2VwaWtfcHl0aG9uJywgJy1waCcsICc3LjAnLCAnLXRuJywgJzgnLCAnLW1hJywgJzIwMCcsICctbWV0YWxfYmluZGluZycsICctaW1hZScsICc8aW5maWxlLm1hZT4nLCAnLW9tYWUnLCAnPG91dGZpbGUubWFlPic=

> <r_lp_tautomer_probability>
1

> <r_epik_Ionization_Penalty>
0.00556303

> <r_epik_Ionization_Penalty_Charging>
0

> <r_epik_Ionization_Penalty_Neutral>
0.00556303

> <r_epik_State_Penalty>
0.00401767

> <r_epik_Charging_Adjusted_Penalty>
0.00401767

> <i_epik_Tot_Q>
0

> <i_epik_Tot_abs_Q>
0

> <r_epik_Metal_State_Penalty>
-0

> <b_epik_Metal_Only>
0

> <s_lp_Force_Field>
OPLS_2005

> <r_lp_Energy>
71.7906

> <b_lp_Chiralities_Consistent>
1

> <s_lp_Variant>
AV-unprocessed.smi:148-5

> <Gold.Version>
5.8.1

> <Gold.Id.Protein>
6NUR|6NUR_protein|mol2

> <Gold.PLP.Fitness>
44.5010

> <Gold.PLP.PLP>
-39.1129

> <Gold.PLP.part.hbond>
-3.0000

> <Gold.PLP.part.metal>
0.0000

> <Gold.PLP.part.buried>
-2.6296

> <Gold.PLP.part.nonpolar>
-33.4662

> <Gold.PLP.part.repulsive>
0.2899

> <Gold.PLP.ligand.clash>
0.0000

> <Gold.PLP.ligand.torsion>
0.6975

> <Gold.PLP.Chemscore.Hbond>
2.0247

> <Gold.PLP.Chemscore.CHOScore>
0.0000

> <Gold.PLP.Chemscore.Metal>
0.0000

> <Gold.Chemscore.Hbonds>
donor molecule, donor type, donor heavy atom, donor atom, acceptor molecule, acceptor atom, score
      L1  H     1    31       P1  7948  0.15
      P1  H  7989  7998       L1    22  0.91
      P1  H 10752 10764       L1    24  1.00

> <Gold.PLP.Chemscore.Internal.Correction>
0.7090

> <Gold.Rescore>
     Score         DG    S(hbond)    S(metal)    S(lipo)     H(rot)  DE(clash)    DE(int)     intcor
     11.40     -13.21       1.69        0.00      90.53       3.32       1.02       0.79       ----

> <Gold.Chemscore.Fitness>
11.4033

> <Gold.Chemscore.DG>
-13.2071

> <Gold.Chemscore.ZeroCoef>
-5.4800

> <Gold.Chemscore.Hbond>
1.6871

> <Gold.Chemscore.Metal>
0.0000

> <Gold.Chemscore.Lipo>
90.5310

> <Gold.Chemscore.Internal_Hbond>
0.0000

> <Gold.Chemscore.DEClash>
1.0151

> <Gold.Chemscore.DEInternal>
0.7887

> <Gold.Chemscore.Rot>
3.3203

> <Gold.Chemscore.Internal.Correction>
   9.000000E+99

> <Gold.Chemscore.Hbonds>
donor molecule, donor type, donor heavy atom, donor atom, acceptor molecule, acceptor atom, score
      L1  H     1    31       P1  7948  0.10
      P1  H  7989  7998       L1    22  0.72
      P1  H 10752 10764       L1    24  0.63

> <Gold.Chemscore.Hbond.Weighted>
-5.6350

> <Gold.Chemscore.Metal.Weighted>
-0.0000

> <Gold.Chemscore.Lipo.Weighted>
-10.5921

> <Gold.Chemscore.Internal_Hbond.Weighted>
0.0000

> <Gold.Chemscore.DEClash.Weighted>
1.0151

> <Gold.Chemscore.DEInternal.Weighted>
0.7887

> <Gold.Chemscore.Rot.Weighted>
8.5000

> <Gold.Chemscore.Internal.Correction.Weighted>
   9.000000E+99

> <Gold.Protein.RotatedTorsions>
[ 6907 6896 6895 6894 ] final   26.10 input  -60.11 | X-H torsion
[ 7974 7965 7964 7962 ] final   56.02 input  175.53 | X-H torsion
[ 8008 7997 7996 7995 ] final -178.54 input   59.86 | X-H torsion
[ 10167 10162 10161 10158 ] final  -10.66 input  -65.29 | X-H torsion
[ 10718 10713 10712 10709 ] final   40.13 input   66.30 | X-H torsion
[ 10763 10752 10751 10750 ] final  -87.40 input  -60.55 | X-H torsion
[ 11005 11000 10999 10996 ] final -108.72 input  -57.11 | X-H torsion

> <Gold.Protein.ActiveResidues>
 VAL166  LYS551  ARG553  GLY616  TRP617  ASP618  TYR619  PRO620  LYS621  CYS622 
 ASP623  PHE694  ASN695  SER759  ASP760  ASP761  ALA762  ILE779  LEU786  VAL792 
 PHE793  MET794  SER795  GLU796  ALA797  LYS798  CYS799  TRP800  GLU811  SER814 

> <Gold.Protein.RotatedAtoms>
  151.9825  135.0021  160.0557 H   0  0  0  0  0  0  0  0  0  0  0  0  # atno 6907 bound_to 6896
  152.1683  133.4622  159.4904 H   0  0  0  0  0  0  0  0  0  0  0  0  # atno 6908 bound_to 6896
  150.6898  134.1902  159.4325 H   0  0  0  0  0  0  0  0  0  0  0  0  # atno 6909 bound_to 6896
  145.9442  139.3915  143.0345 H   0  0  0  0  0  0  0  0  0  0  0  0  # atno 7974 bound_to 7965
  156.0200  140.1259  157.0367 H   0  0  0  0  0  0  0  0  0  0  0  0  # atno 8008 bound_to 7997
  154.4308  140.1070  156.6020 H   0  0  0  0  0  0  0  0  0  0  0  0  # atno 8009 bound_to 7997
  155.5959  140.3470  155.4582 H   0  0  0  0  0  0  0  0  0  0  0  0  # atno 8010 bound_to 7997
  140.7119  143.5724  150.9079 H   0  0  0  0  0  0  0  0  0  0  0  0  # atno 10167 bound_to 10162
  157.3786  130.7741  149.7175 H   0  0  0  0  0  0  0  0  0  0  0  0  # atno 10718 bound_to 10713
  154.6332  135.5414  153.7704 H   0  0  0  0  0  0  0  0  0  0  0  0  # atno 10763 bound_to 10752
  153.0295  135.6441  154.1271 H   0  0  0  0  0  0  0  0  0  0  0  0  # atno 10764 bound_to 10752
  154.1199  135.2921  155.3191 H   0  0  0  0  0  0  0  0  0  0  0  0  # atno 10765 bound_to 10752
  141.0886  133.9094  157.2128 H   0  0  0  0  0  0  0  0  0  0  0  0  # atno 11005 bound_to 11000
  145.8258  140.9656  143.0875 LP  0  0  0  0  0  0  0  0  0  0  0  0  # atno 17320 bound_to 7965
  144.6784  140.0100  143.7484 LP  0  0  0  0  0  0  0  0  0  0  0  0  # atno 17321 bound_to 7965
  139.9450  143.6338  152.3044 LP  0  0  0  0  0  0  0  0  0  0  0  0  # atno 17342 bound_to 10162
  139.6836  144.7653  151.1564 LP  0  0  0  0  0  0  0  0  0  0  0  0  # atno 17343 bound_to 10162
  155.9771  130.4068  150.3737 LP  0  0  0  0  0  0  0  0  0  0  0  0  # atno 17370 bound_to 10713
  157.1838  131.0398  151.2735 LP  0  0  0  0  0  0  0  0  0  0  0  0  # atno 17371 bound_to 10713
  139.9708  135.0129  156.9507 LP  0  0  0  0  0  0  0  0  0  0  0  0  # atno 17394 bound_to 11000
  140.5304  134.0819  155.7314 LP  0  0  0  0  0  0  0  0  0  0  0  0  # atno 17395 bound_to 11000

$$$$
