AV-unprocessed.smi:2278|AV-procd|sdf|9182|dock3
  -GOLD-   2272012393D 1   1.00000     0.00000
 Structure written by MMmdl.
 46 47  0  0  0  0  0  0  0  0  2 V2000
  152.1805  144.1468  160.1407 C   0  0  0  0  0  0  0  0  0  0  0  0
  151.8316  143.1409  159.0583 C   0  0  0  0  0  0  0  0  0  0  0  0
  150.7608  143.4912  158.2305 N   0  0  0  0  0  0  0  0  0  0  0  0
  150.3918  142.6952  157.2810 C   0  0  0  0  0  0  0  0  0  0  0  0
  151.0408  141.4710  157.0516 N   0  0  0  0  0  0  0  0  0  0  0  0
  150.5165  140.6477  155.9492 C   0  0  0  0  0  0  0  0  0  0  0  0
  149.4812  141.4134  155.0942 C   0  0  1  0  0  0  0  0  0  0  0  0
  149.6825  141.0694  153.7373 O   0  0  0  0  0  0  0  0  0  0  0  0
  148.0365  141.0158  155.4595 C   0  0  0  0  0  0  0  0  0  0  0  0
  147.1343  142.1917  155.5597 N   0  3  2  0  0  0  0  0  0  0  0  0
  146.2920  142.1834  156.7853 C   0  0  0  0  0  0  0  0  0  0  0  0
  145.4846  143.4875  156.9118 C   0  0  0  0  0  0  0  0  0  0  0  0
  144.6221  143.7619  155.6665 C   0  0  2  0  0  0  0  0  0  0  0  0
  143.3890  142.8453  155.5829 C   0  0  0  0  0  0  0  0  0  0  0  0
  145.5046  143.6898  154.4069 C   0  0  0  0  0  0  0  0  0  0  0  0
  146.3151  142.3829  154.3359 C   0  0  0  0  0  0  0  0  0  0  0  0
  152.0914  141.0509  157.8146 C   0  0  0  0  0  0  0  0  0  0  0  0
  152.6432  139.9673  157.6112 O   0  0  0  0  0  0  0  0  0  0  0  0
  152.5022  141.9687  158.8888 C   0  0  0  0  0  0  0  0  0  0  0  0
  153.6739  141.5329  159.7596 C   0  0  0  0  0  0  0  0  0  0  0  0
  153.2085  144.4916  160.0260 H   0  0  0  0  0  0  0  0  0  0  0  0
  152.0707  143.6980  161.1284 H   0  0  0  0  0  0  0  0  0  0  0  0
  151.5287  145.0204  160.0965 H   0  0  0  0  0  0  0  0  0  0  0  0
  149.5608  142.9207  156.6104 H   0  0  0  0  0  0  0  0  0  0  0  0
  151.3104  140.2382  155.3206 H   0  0  0  0  0  0  0  0  0  0  0  0
  150.0470  139.7649  156.3872 H   0  0  0  0  0  0  0  0  0  0  0  0
  149.6169  142.4879  155.2106 H   0  0  0  0  0  0  0  0  0  0  0  0
  149.2240  140.2620  153.5584 H   0  0  0  0  0  0  0  0  0  0  0  0
  147.6662  140.3206  154.7040 H   0  0  0  0  0  0  0  0  0  0  0  0
  148.0135  140.4722  156.4053 H   0  0  0  0  0  0  0  0  0  0  0  0
  145.6234  141.3218  156.7656 H   0  0  0  0  0  0  0  0  0  0  0  0
  146.9135  142.0703  157.6727 H   0  0  0  0  0  0  0  0  0  0  0  0
  144.8598  143.4564  157.8051 H   0  0  0  0  0  0  0  0  0  0  0  0
  146.1771  144.3180  157.0569 H   0  0  0  0  0  0  0  0  0  0  0  0
  144.2436  144.7819  155.7459 H   0  0  0  0  0  0  0  0  0  0  0  0
  143.6615  141.7934  155.5004 H   0  0  0  0  0  0  0  0  0  0  0  0
  142.7755  143.0949  154.7168 H   0  0  0  0  0  0  0  0  0  0  0  0
  142.7618  142.9543  156.4681 H   0  0  0  0  0  0  0  0  0  0  0  0
  144.8940  143.8014  153.5103 H   0  0  0  0  0  0  0  0  0  0  0  0
  146.1959  144.5337  154.4075 H   0  0  0  0  0  0  0  0  0  0  0  0
  146.9666  142.4201  153.4618 H   0  0  0  0  0  0  0  0  0  0  0  0
  145.6539  141.5263  154.1980 H   0  0  0  0  0  0  0  0  0  0  0  0
  153.4438  140.5886  160.2539 H   0  0  0  0  0  0  0  0  0  0  0  0
  153.9254  142.2549  160.5347 H   0  0  0  0  0  0  0  0  0  0  0  0
  154.5638  141.3861  159.1467 H   0  0  0  0  0  0  0  0  0  0  0  0
  147.7377  142.9997  155.6203 H   0  0  0  0  0  0  0  0  0  0  0  0
  1  2  1  0  0  0  0
  1 21  1  0  0  0  0
  1 22  1  0  0  0  0
  1 23  1  0  0  0  0
  2 19  2  0  0  0  0
  2  3  1  0  0  0  0
  3  4  2  0  0  0  0
  4  5  1  0  0  0  0
  4 24  1  0  0  0  0
  5  6  1  0  0  0  0
  5 17  1  0  0  0  0
  6  7  1  0  0  0  0
  6 25  1  0  0  0  0
  6 26  1  0  0  0  0
  7  8  1  0  0  0  0
  7  9  1  0  0  0  0
  7 27  1  0  0  0  0
  8 28  1  0  0  0  0
  9 10  1  0  0  0  0
  9 29  1  0  0  0  0
  9 30  1  0  0  0  0
 10 16  1  0  0  0  0
 10 11  1  0  0  0  0
 10 46  1  0  0  0  0
 11 12  1  0  0  0  0
 11 31  1  0  0  0  0
 11 32  1  0  0  0  0
 12 13  1  0  0  0  0
 12 33  1  0  0  0  0
 12 34  1  0  0  0  0
 13 14  1  0  0  0  0
 13 15  1  0  0  0  0
 13 35  1  0  0  0  0
 14 36  1  0  0  0  0
 14 37  1  0  0  0  0
 14 38  1  0  0  0  0
 15 16  1  0  0  0  0
 15 39  1  0  0  0  0
 15 40  1  0  0  0  0
 16 41  1  0  0  0  0
 16 42  1  0  0  0  0
 17 18  2  0  0  0  0
 17 19  1  0  0  0  0
 19 20  1  0  0  0  0
 20 43  1  0  0  0  0
 20 44  1  0  0  0  0
 20 45  1  0  0  0  0
M  CHG  1  10   1
M  END
> <s_m_source_file>
AV-unprocessed.smi

> <i_m_source_file_index>
2278

> <i_lp_mmshare_version>
43012

> <i_f3d_flags>
0

> <s_epik_input>
W0NIM11jMW5bY0hdbihjKD1PKWMxW0NIM10pW0NIMl1bQ0BIXShbT0hdKVtDSDJdTjJbQ0gyXVtDSDJdW0NIXShbQ0gzXSlbQ0gyXVtDSDJdMg==

> <s_epik_cmdline>
J2VwaWtfcHl0aG9uJywgJy1waCcsICc3LjAnLCAnLXRuJywgJzgnLCAnLW1hJywgJzIwMCcsICctbWV0YWxfYmluZGluZycsICctaW1hZScsICc8aW5maWxlLm1hZT4nLCAnLW9tYWUnLCAnPG91dGZpbGUubWFlPic=

> <r_lp_tautomer_probability>
1

> <r_epik_Ionization_Penalty>
0.00139489

> <r_epik_Ionization_Penalty_Charging>
0.00136819

> <r_epik_Ionization_Penalty_Neutral>
2.66975e-05

> <r_epik_State_Penalty>
0.000910892

> <r_epik_Charging_Adjusted_Penalty>
0.00227908

> <i_epik_Tot_Q>
1

> <i_epik_Tot_abs_Q>
1

> <r_epik_Metal_State_Penalty>
-0

> <b_epik_Metal_Only>
0

> <s_lp_Force_Field>
OPLS_2005

> <r_lp_Energy>
31.1112

> <b_lp_Chiralities_Consistent>
1

> <s_lp_Variant>
AV-unprocessed.smi:2278-4

> <Gold.Version>
5.8.1

> <Gold.Id.Protein>
6NUR|6NUR_protein|mol2

> <Gold.PLP.Fitness>
50.0849

> <Gold.PLP.PLP>
-39.6971

> <Gold.PLP.part.hbond>
-4.7716

> <Gold.PLP.part.metal>
0.0000

> <Gold.PLP.part.buried>
-2.9737

> <Gold.PLP.part.nonpolar>
-31.7040

> <Gold.PLP.part.repulsive>
0.2176

> <Gold.PLP.ligand.clash>
2.0389

> <Gold.PLP.ligand.torsion>
1.8840

> <Gold.PLP.Chemscore.Hbond>
4.3760

> <Gold.PLP.Chemscore.CHOScore>
1.0000

> <Gold.PLP.Chemscore.Metal>
0.0000

> <Gold.Chemscore.Hbonds>
donor molecule, donor type, donor heavy atom, donor atom, acceptor molecule, acceptor atom, score
      L1  H    10    46       P1  8028  1.95
      P1  H  7989  7998       L1     8  0.32
      P1  H  7997  8008       L1    18  1.00
      P1  H  8011  8017       L1     8  0.93
      L1  C     4    24       P1  8028  1.00

> <Gold.PLP.Chemscore.Internal.Correction>
0.0667

> <Gold.Rescore>
     Score         DG    S(hbond)    S(metal)    S(lipo)     H(rot)  DE(clash)    DE(int)     intcor
     14.96     -18.33       2.40        0.00      89.42       2.20       1.36       2.01       ----

> <Gold.Chemscore.Fitness>
14.9576

> <Gold.Chemscore.DG>
-18.3263

> <Gold.Chemscore.ZeroCoef>
-5.4800

> <Gold.Chemscore.Hbond>
2.3990

> <Gold.Chemscore.Metal>
0.0000

> <Gold.Chemscore.Lipo>
89.4213

> <Gold.Chemscore.Internal_Hbond>
0.0000

> <Gold.Chemscore.DEClash>
1.3551

> <Gold.Chemscore.DEInternal>
2.0136

> <Gold.Chemscore.Rot>
2.1986

> <Gold.Chemscore.Internal.Correction>
   9.000000E+99

> <Gold.Chemscore.Hbonds>
donor molecule, donor type, donor heavy atom, donor atom, acceptor molecule, acceptor atom, score
      L1  H    10    46       P1  8028  0.46
      P1  H  7989  7998       L1     8  0.16
      P1  H  7997  8008       L1    18  0.87
      P1  H  8011  8017       L1     8  0.86

> <Gold.Chemscore.Hbond.Weighted>
-8.0125

> <Gold.Chemscore.Metal.Weighted>
-0.0000

> <Gold.Chemscore.Lipo.Weighted>
-10.4623

> <Gold.Chemscore.Internal_Hbond.Weighted>
0.0000

> <Gold.Chemscore.DEClash.Weighted>
1.3551

> <Gold.Chemscore.DEInternal.Weighted>
2.0136

> <Gold.Chemscore.Rot.Weighted>
5.6285

> <Gold.Chemscore.Internal.Correction.Weighted>
   9.000000E+99

> <Gold.Protein.RotatedTorsions>
[ 6907 6896 6895 6894 ] final   90.82 input  -60.11 | X-H torsion
[ 7974 7965 7964 7962 ] final  148.74 input  175.53 | X-H torsion
[ 8008 7997 7996 7995 ] final  -78.57 input   59.86 | X-H torsion
[ 10167 10162 10161 10158 ] final  146.35 input  -65.29 | X-H torsion
[ 10718 10713 10712 10709 ] final    0.81 input   66.30 | X-H torsion
[ 10763 10752 10751 10750 ] final  -16.42 input  -60.55 | X-H torsion
[ 11005 11000 10999 10996 ] final   65.42 input  -57.11 | X-H torsion

> <Gold.Protein.ActiveResidues>
 VAL166  LYS551  ARG553  GLY616  TRP617  ASP618  TYR619  PRO620  LYS621  CYS622 
 ASP623  PHE694  ASN695  SER759  ASP760  ASP761  ALA762  ILE779  LEU786  VAL792 
 PHE793  MET794  SER795  GLU796  ALA797  LYS798  CYS799  TRP800  GLU811  SER814 

> <Gold.Protein.RotatedAtoms>
  152.5447  134.1753  159.8612 H   0  0  0  0  0  0  0  0  0  0  0  0  # atno 6907 bound_to 6896
  151.1759  133.4748  159.2601 H   0  0  0  0  0  0  0  0  0  0  0  0  # atno 6908 bound_to 6896
  151.1227  135.0099  159.8601 H   0  0  0  0  0  0  0  0  0  0  0  0  # atno 6909 bound_to 6896
  144.8490  139.6193  143.5982 H   0  0  0  0  0  0  0  0  0  0  0  0  # atno 7974 bound_to 7965
  154.5702  140.0692  156.8952 H   0  0  0  0  0  0  0  0  0  0  0  0  # atno 8008 bound_to 7997
  155.2649  140.3361  155.4252 H   0  0  0  0  0  0  0  0  0  0  0  0  # atno 8009 bound_to 7997
  156.2112  140.1760  156.7676 H   0  0  0  0  0  0  0  0  0  0  0  0  # atno 8010 bound_to 7997
  139.4909  144.5836  151.6823 H   0  0  0  0  0  0  0  0  0  0  0  0  # atno 10167 bound_to 10162
  156.8389  130.5514  149.5679 H   0  0  0  0  0  0  0  0  0  0  0  0  # atno 10718 bound_to 10713
  153.5583  135.7010  153.5559 H   0  0  0  0  0  0  0  0  0  0  0  0  # atno 10763 bound_to 10752
  153.3453  135.4010  155.1603 H   0  0  0  0  0  0  0  0  0  0  0  0  # atno 10764 bound_to 10752
  154.8651  135.3752  154.5098 H   0  0  0  0  0  0  0  0  0  0  0  0  # atno 10765 bound_to 10752
  139.9895  134.6614  156.0115 H   0  0  0  0  0  0  0  0  0  0  0  0  # atno 11005 bound_to 11000
  146.2769  139.6776  142.9257 LP  0  0  0  0  0  0  0  0  0  0  0  0  # atno 17320 bound_to 7965
  145.4538  141.0429  143.2790 LP  0  0  0  0  0  0  0  0  0  0  0  0  # atno 17321 bound_to 7965
  140.5447  144.0523  150.6102 LP  0  0  0  0  0  0  0  0  0  0  0  0  # atno 17342 bound_to 10162
  140.3557  143.2937  152.0439 LP  0  0  0  0  0  0  0  0  0  0  0  0  # atno 17343 bound_to 10162
  156.0892  130.5882  150.9702 LP  0  0  0  0  0  0  0  0  0  0  0  0  # atno 17370 bound_to 10713
  157.6366  131.0915  150.8335 LP  0  0  0  0  0  0  0  0  0  0  0  0  # atno 17371 bound_to 10713
  141.1554  133.6543  156.4144 LP  0  0  0  0  0  0  0  0  0  0  0  0  # atno 17394 bound_to 11000
  140.4936  134.6552  157.5220 LP  0  0  0  0  0  0  0  0  0  0  0  0  # atno 17395 bound_to 11000

$$$$
