AV-unprocessed.smi:3071|AV-procd|sdf|11713|dock4
  -GOLD-   2272017113D 1   1.00000     0.00000
 Structure written by MMmdl.
 28 29  0  0  0  0  0  0  0  0  2 V2000
  152.4487  139.2130  155.9902 C   0  0  0  0  0  0  0  0  0  0  0  0
  151.2389  139.9856  155.5727 C   0  0  0  0  0  0  0  0  0  0  0  0
  150.6248  139.8222  154.4056 N   0  0  0  0  0  0  0  0  0  0  0  0
  149.5746  140.7335  154.4255 C   0  0  0  0  0  0  0  0  0  0  0  0
  149.5922  141.4218  155.6144 C   0  0  0  0  0  0  0  0  0  0  0  0
  150.6640  140.9267  156.3471 N   0  0  0  0  0  0  0  0  0  0  0  0
  151.0596  141.3614  157.6770 C   0  0  0  0  0  0  0  0  0  0  0  0
  151.5103  142.8339  157.7055 C   0  0  2  0  0  0  0  0  0  0  0  0
  152.5070  143.1873  158.8145 C   0  0  0  0  0  0  0  0  0  0  0  0
  152.3051  144.6879  158.9855 C   0  0  0  0  0  0  0  0  0  0  0  0
  150.8030  144.8715  158.7566 C   0  0  0  0  0  0  0  0  0  0  0  0
  150.3712  143.7544  157.8917 N   0  3  0  0  0  0  0  0  0  0  0  0
  152.6896  138.4525  155.2467 H   0  0  0  0  0  0  0  0  0  0  0  0
  152.2742  138.7165  156.9442 H   0  0  0  0  0  0  0  0  0  0  0  0
  153.3047  139.8808  156.0894 H   0  0  0  0  0  0  0  0  0  0  0  0
  148.8958  140.8242  153.5903 H   0  0  0  0  0  0  0  0  0  0  0  0
  148.9449  142.2000  155.9910 H   0  0  0  0  0  0  0  0  0  0  0  0
  150.2279  141.2016  158.3641 H   0  0  0  0  0  0  0  0  0  0  0  0
  151.8688  140.7146  158.0193 H   0  0  0  0  0  0  0  0  0  0  0  0
  151.9659  143.0936  156.7489 H   0  0  0  0  0  0  0  0  0  0  0  0
  152.2464  142.6725  159.7407 H   0  0  0  0  0  0  0  0  0  0  0  0
  153.5348  142.9252  158.5608 H   0  0  0  0  0  0  0  0  0  0  0  0
  152.6332  145.0524  159.9595 H   0  0  0  0  0  0  0  0  0  0  0  0
  152.8663  145.2244  158.2190 H   0  0  0  0  0  0  0  0  0  0  0  0
  150.2639  144.8013  159.7020 H   0  0  0  0  0  0  0  0  0  0  0  0
  150.5695  145.8366  158.3064 H   0  0  0  0  0  0  0  0  0  0  0  0
  150.0574  144.0980  156.9952 H   0  0  0  0  0  0  0  0  0  0  0  0
  149.6153  143.2662  158.3506 H   0  0  0  0  0  0  0  0  0  0  0  0
  1  2  1  0  0  0  0
  1 13  1  0  0  0  0
  1 14  1  0  0  0  0
  1 15  1  0  0  0  0
  2  6  1  0  0  0  0
  2  3  2  0  0  0  0
  3  4  1  0  0  0  0
  4  5  2  0  0  0  0
  4 16  1  0  0  0  0
  5  6  1  0  0  0  0
  5 17  1  0  0  0  0
  6  7  1  0  0  0  0
  7  8  1  0  0  0  0
  7 18  1  0  0  0  0
  7 19  1  0  0  0  0
  8 12  1  0  0  0  0
  8  9  1  0  0  0  0
  8 20  1  0  0  0  0
  9 10  1  0  0  0  0
  9 21  1  0  0  0  0
  9 22  1  0  0  0  0
 10 11  1  0  0  0  0
 10 23  1  0  0  0  0
 10 24  1  0  0  0  0
 11 12  1  0  0  0  0
 11 25  1  0  0  0  0
 11 26  1  0  0  0  0
 12 27  1  0  0  0  0
 12 28  1  0  0  0  0
M  CHG  1  12   1
M  END
> <s_m_source_file>
AV-unprocessed.smi

> <i_m_source_file_index>
3071

> <i_lp_mmshare_version>
43012

> <i_f3d_flags>
0

> <s_epik_input>
W0NIM11jMW5bY0hdW2NIXW4xW0NIMl1bQ0BASF0yW0NIMl1bQ0gyXVtDSDJdW05IXTI=

> <s_epik_cmdline>
J2VwaWtfcHl0aG9uJywgJy1waCcsICc3LjAnLCAnLXRuJywgJzgnLCAnLW1hJywgJzIwMCcsICctbWV0YWxfYmluZGluZycsICctaW1hZScsICc8aW5maWxlLm1hZT4nLCAnLW9tYWUnLCAnPG91dGZpbGUubWFlPic=

> <r_lp_tautomer_probability>
1

> <r_epik_Ionization_Penalty>
0.189495

> <r_epik_Ionization_Penalty_Charging>
0.189495

> <r_epik_Ionization_Penalty_Neutral>
1.84445e-13

> <r_epik_State_Penalty>
0.339469

> <r_epik_Charging_Adjusted_Penalty>
0.528964

> <i_epik_Tot_Q>
1

> <i_epik_Tot_abs_Q>
1

> <r_epik_Metal_State_Penalty>
0.000456861

> <b_epik_Metal_Only>
0

> <s_lp_Force_Field>
OPLS_2005

> <r_lp_Energy>
26.6812

> <b_lp_Chiralities_Consistent>
1

> <s_lp_Variant>
AV-unprocessed.smi:3071-1

> <Gold.Version>
5.8.1

> <Gold.Id.Protein>
6NUR|6NUR_protein|mol2

> <Gold.PLP.Fitness>
42.4948

> <Gold.PLP.PLP>
-30.3034

> <Gold.PLP.part.hbond>
-2.0126

> <Gold.PLP.part.metal>
0.0000

> <Gold.PLP.part.buried>
-0.6477

> <Gold.PLP.part.nonpolar>
-27.7642

> <Gold.PLP.part.repulsive>
0.1409

> <Gold.PLP.ligand.clash>
0.0000

> <Gold.PLP.ligand.torsion>
0.3265

> <Gold.PLP.Chemscore.Hbond>
2.5225

> <Gold.PLP.Chemscore.CHOScore>
1.7588

> <Gold.PLP.Chemscore.Metal>
0.0000

> <Gold.Chemscore.Hbonds>
donor molecule, donor type, donor heavy atom, donor atom, acceptor molecule, acceptor atom, score
      L1  H    12    27       P1  8028  2.00
      P1  H  7989  7998       L1     3  0.55
      L1  C     4    16       P1  7957  0.58
      L1  C     5    17       P1  8028  0.98

> <Gold.PLP.Chemscore.Internal.Correction>
0.0005

> <Gold.Rescore>
     Score         DG    S(hbond)    S(metal)    S(lipo)     H(rot)  DE(clash)    DE(int)     intcor
     14.19     -14.60       0.96        0.00      77.39       1.22       0.09       0.33       ----

> <Gold.Chemscore.Fitness>
14.1864

> <Gold.Chemscore.DG>
-14.6031

> <Gold.Chemscore.ZeroCoef>
-5.4800

> <Gold.Chemscore.Hbond>
0.9552

> <Gold.Chemscore.Metal>
0.0000

> <Gold.Chemscore.Lipo>
77.3877

> <Gold.Chemscore.Internal_Hbond>
0.0000

> <Gold.Chemscore.DEClash>
0.0913

> <Gold.Chemscore.DEInternal>
0.3254

> <Gold.Chemscore.Rot>
1.2194

> <Gold.Chemscore.Internal.Correction>
   9.000000E+99

> <Gold.Chemscore.Hbonds>
donor molecule, donor type, donor heavy atom, donor atom, acceptor molecule, acceptor atom, score
      L1  H    12    27       P1  8028  0.90
      P1  H  7989  7998       L1     3  0.01

> <Gold.Chemscore.Hbond.Weighted>
-3.1905

> <Gold.Chemscore.Metal.Weighted>
-0.0000

> <Gold.Chemscore.Lipo.Weighted>
-9.0544

> <Gold.Chemscore.Internal_Hbond.Weighted>
0.0000

> <Gold.Chemscore.DEClash.Weighted>
0.0913

> <Gold.Chemscore.DEInternal.Weighted>
0.3254

> <Gold.Chemscore.Rot.Weighted>
3.1218

> <Gold.Chemscore.Internal.Correction.Weighted>
   9.000000E+99

> <Gold.Protein.RotatedTorsions>
[ 6907 6896 6895 6894 ] final   15.37 input  -60.11 | X-H torsion
[ 7974 7965 7964 7962 ] final   51.69 input  175.53 | X-H torsion
[ 8008 7997 7996 7995 ] final   89.83 input   59.86 | X-H torsion
[ 10167 10162 10161 10158 ] final  164.25 input  -65.29 | X-H torsion
[ 10718 10713 10712 10709 ] final  -18.43 input   66.30 | X-H torsion
[ 10763 10752 10751 10750 ] final -156.93 input  -60.55 | X-H torsion
[ 11005 11000 10999 10996 ] final  -29.02 input  -57.11 | X-H torsion

> <Gold.Protein.ActiveResidues>
 VAL166  LYS551  ARG553  GLY616  TRP617  ASP618  TYR619  PRO620  LYS621  CYS622 
 ASP623  PHE694  ASN695  SER759  ASP760  ASP761  ALA762  ILE779  LEU786  VAL792 
 PHE793  MET794  SER795  GLU796  ALA797  LYS798  CYS799  TRP800  GLU811  SER814 

> <Gold.Protein.RotatedAtoms>
  151.8170  135.0663  160.0419 H   0  0  0  0  0  0  0  0  0  0  0  0  # atno 6907 bound_to 6896
  152.2979  133.5621  159.5608 H   0  0  0  0  0  0  0  0  0  0  0  0  # atno 6908 bound_to 6896
  150.7260  134.0250  159.3756 H   0  0  0  0  0  0  0  0  0  0  0  0  # atno 6909 bound_to 6896
  145.9889  139.4318  143.0086 H   0  0  0  0  0  0  0  0  0  0  0  0  # atno 7974 bound_to 7965
  156.0047  140.3356  155.6881 H   0  0  0  0  0  0  0  0  0  0  0  0  # atno 8008 bound_to 7997
  155.6241  140.0678  157.2687 H   0  0  0  0  0  0  0  0  0  0  0  0  # atno 8009 bound_to 7997
  154.4261  140.1771  156.1391 H   0  0  0  0  0  0  0  0  0  0  0  0  # atno 8010 bound_to 7997
  139.4886  144.4254  151.9135 H   0  0  0  0  0  0  0  0  0  0  0  0  # atno 10167 bound_to 10162
  156.5596  130.4722  149.6413 H   0  0  0  0  0  0  0  0  0  0  0  0  # atno 10718 bound_to 10713
  154.7675  135.3135  154.8257 H   0  0  0  0  0  0  0  0  0  0  0  0  # atno 10763 bound_to 10752
  153.9001  135.6816  153.4760 H   0  0  0  0  0  0  0  0  0  0  0  0  # atno 10764 bound_to 10752
  153.1283  135.4791  154.9241 H   0  0  0  0  0  0  0  0  0  0  0  0  # atno 10765 bound_to 10752
  140.9260  133.7369  156.0868 H   0  0  0  0  0  0  0  0  0  0  0  0  # atno 11005 bound_to 11000
  145.7660  140.9916  143.1175 LP  0  0  0  0  0  0  0  0  0  0  0  0  # atno 17320 bound_to 7965
  144.6883  139.9388  143.7474 LP  0  0  0  0  0  0  0  0  0  0  0  0  # atno 17321 bound_to 7965
  140.3700  144.2867  150.5921 LP  0  0  0  0  0  0  0  0  0  0  0  0  # atno 17342 bound_to 10162
  140.5327  143.2240  151.8212 LP  0  0  0  0  0  0  0  0  0  0  0  0  # atno 17343 bound_to 10162
  156.2811  130.7071  151.1895 LP  0  0  0  0  0  0  0  0  0  0  0  0  # atno 17370 bound_to 10713
  157.7371  131.0555  150.5374 LP  0  0  0  0  0  0  0  0  0  0  0  0  # atno 17371 bound_to 10713
  140.7926  134.3600  157.5460 LP  0  0  0  0  0  0  0  0  0  0  0  0  # atno 17394 bound_to 11000
  139.8785  134.9149  156.3119 LP  0  0  0  0  0  0  0  0  0  0  0  0  # atno 17395 bound_to 11000

$$$$
