AV-unprocessed.smi:2749|AV-procd|sdf|10585|dock3
  -GOLD-   2272015 33D 1   1.00000     0.00000
 Structure written by MMmdl.
 32 34  0  0  0  0  0  0  0  0  1 V2000
  150.7466  140.9342  156.9831 O   0  0  0  0  0  0  0  0  0  0  0  0
  150.2680  142.0355  156.7172 C   0  0  0  0  0  0  0  0  0  0  0  0
  150.4346  143.0833  157.5530 N   0  0  0  0  0  0  0  0  0  0  0  0
  151.1162  143.2025  158.8005 C   0  0  0  0  0  0  0  0  0  0  0  0
  152.0699  142.1876  159.0445 C   0  0  0  0  0  0  0  0  0  0  0  0
  152.8110  142.2007  160.2423 C   0  0  0  0  0  0  0  0  0  0  0  0
  152.5799  143.2331  161.1682 C   0  0  0  0  0  0  0  0  0  0  0  0
  153.2677  143.2886  162.3333 F   0  0  0  0  0  0  0  0  0  0  0  0
  151.6159  144.2073  160.8519 C   0  0  0  0  0  0  0  0  0  0  0  0
  150.9053  144.1942  159.7040 N   0  0  0  0  0  0  0  0  0  0  0  0
  149.5568  142.2714  155.6030 N   0  0  0  0  0  0  0  0  0  0  0  0
  149.2467  141.3035  154.5549 C   0  0  2  0  0  0  0  0  0  0  0  0
  147.9359  141.6412  153.8370 C   0  0  0  0  0  0  0  0  0  0  0  0
  147.0997  140.3810  154.0977 C   0  0  1  0  0  0  0  0  0  0  0  0
  147.6294  139.1645  153.3241 C   0  0  0  0  0  0  0  0  0  0  0  0
  148.9064  138.8318  154.0965 C   0  0  0  0  0  0  0  0  0  0  0  0
  148.9168  139.9315  155.1665 C   0  0  2  0  0  0  0  0  0  0  0  0
  147.5255  140.0613  155.4098 O   0  0  0  0  0  0  0  0  0  0  0  0
  149.9805  143.9316  157.2472 H   0  0  0  0  0  0  0  0  0  0  0  0
  152.2361  141.4016  158.3218 H   0  0  0  0  0  0  0  0  0  0  0  0
  153.5431  141.4330  160.4451 H   0  0  0  0  0  0  0  0  0  0  0  0
  151.4092  145.0178  161.5353 H   0  0  0  0  0  0  0  0  0  0  0  0
  149.2012  143.2078  155.4689 H   0  0  0  0  0  0  0  0  0  0  0  0
  150.0704  141.2121  153.8448 H   0  0  0  0  0  0  0  0  0  0  0  0
  147.4507  142.5149  154.2750 H   0  0  0  0  0  0  0  0  0  0  0  0
  148.0762  141.8330  152.7726 H   0  0  0  0  0  0  0  0  0  0  0  0
  146.0249  140.5350  153.9988 H   0  0  0  0  0  0  0  0  0  0  0  0
  146.9248  138.3338  153.3752 H   0  0  0  0  0  0  0  0  0  0  0  0
  147.8159  139.3908  152.2737 H   0  0  0  0  0  0  0  0  0  0  0  0
  148.8283  137.8459  154.5561 H   0  0  0  0  0  0  0  0  0  0  0  0
  149.7992  138.8471  153.4706 H   0  0  0  0  0  0  0  0  0  0  0  0
  149.5075  139.6768  156.0476 H   0  0  0  0  0  0  0  0  0  0  0  0
  1  2  2  0  0  0  0
  2  3  1  0  0  0  0
  2 11  1  0  0  0  0
  3  4  1  0  0  0  0
  3 19  1  0  0  0  0
  4 10  1  0  0  0  0
  4  5  2  0  0  0  0
  5  6  1  0  0  0  0
  5 20  1  0  0  0  0
  6  7  2  0  0  0  0
  6 21  1  0  0  0  0
  7  8  1  0  0  0  0
  7  9  1  0  0  0  0
  9 10  2  0  0  0  0
  9 22  1  0  0  0  0
 11 12  1  0  0  0  0
 11 23  1  0  0  0  0
 12 17  1  0  0  0  0
 12 13  1  0  0  0  0
 12 24  1  0  0  0  0
 13 14  1  0  0  0  0
 13 25  1  0  0  0  0
 13 26  1  0  0  0  0
 14 18  1  0  0  0  0
 14 15  1  0  0  0  0
 14 27  1  0  0  0  0
 15 16  1  0  0  0  0
 15 28  1  0  0  0  0
 15 29  1  0  0  0  0
 16 17  1  0  0  0  0
 16 30  1  0  0  0  0
 16 31  1  0  0  0  0
 17 18  1  0  0  0  0
 17 32  1  0  0  0  0
M  END
> <s_m_source_file>
AV-unprocessed.smi

> <i_m_source_file_index>
2749

> <i_lp_mmshare_version>
43012

> <i_f3d_flags>
0

> <s_epik_input>
W0NIMl0xW0NIMl1bQ0BIXShPMilbQ0BASF0oW0NIMl1bQ0BASF0xMilbTkhdQyg9TylbTkhdYzNbY0hdW2NIXWMoRilbY0hdbjM=

> <s_epik_cmdline>
J2VwaWtfcHl0aG9uJywgJy1waCcsICc3LjAnLCAnLXRuJywgJzgnLCAnLW1hJywgJzIwMCcsICctbWV0YWxfYmluZGluZycsICctaW1hZScsICc8aW5maWxlLm1hZT4nLCAnLW9tYWUnLCAnPG91dGZpbGUubWFlPic=

> <r_lp_tautomer_probability>
1

> <r_epik_Ionization_Penalty>
3.37159e-05

> <r_epik_Ionization_Penalty_Charging>
0

> <r_epik_Ionization_Penalty_Neutral>
3.37159e-05

> <r_epik_State_Penalty>
-0

> <r_epik_Charging_Adjusted_Penalty>
0

> <i_epik_Tot_Q>
0

> <i_epik_Tot_abs_Q>
0

> <r_epik_Metal_State_Penalty>
-0

> <b_epik_Metal_Only>
0

> <s_lp_Force_Field>
OPLS_2005

> <r_lp_Energy>
42.1362

> <b_lp_Chiralities_Consistent>
1

> <s_lp_Variant>
AV-unprocessed.smi:2749-1

> <Gold.Version>
5.8.1

> <Gold.Id.Protein>
6NUR|6NUR_protein|mol2

> <Gold.PLP.Fitness>
40.5916

> <Gold.PLP.PLP>
-36.0646

> <Gold.PLP.part.hbond>
-2.0000

> <Gold.PLP.part.metal>
0.0000

> <Gold.PLP.part.buried>
-3.3441

> <Gold.PLP.part.nonpolar>
-29.8849

> <Gold.PLP.part.repulsive>
0.3437

> <Gold.PLP.ligand.clash>
0.0000

> <Gold.PLP.ligand.torsion>
0.4098

> <Gold.PLP.Chemscore.Hbond>
1.7722

> <Gold.PLP.Chemscore.CHOScore>
0.0000

> <Gold.PLP.Chemscore.Metal>
0.0000

> <Gold.Chemscore.Hbonds>
donor molecule, donor type, donor heavy atom, donor atom, acceptor molecule, acceptor atom, score
      L1  H     3    19       P1  8028  0.79
      L1  H    11    23       P1  8028  1.00

> <Gold.PLP.Chemscore.Internal.Correction>
0.0300

> <Gold.Rescore>
     Score         DG    S(hbond)    S(metal)    S(lipo)     H(rot)  DE(clash)    DE(int)     intcor
     14.98     -19.17       1.91        0.00      84.35       1.00       0.89       3.30       ----

> <Gold.Chemscore.Fitness>
14.9799

> <Gold.Chemscore.DG>
-19.1658

> <Gold.Chemscore.ZeroCoef>
-5.4800

> <Gold.Chemscore.Hbond>
1.9093

> <Gold.Chemscore.Metal>
0.0000

> <Gold.Chemscore.Lipo>
84.3479

> <Gold.Chemscore.Internal_Hbond>
0.0000

> <Gold.Chemscore.DEClash>
0.8879

> <Gold.Chemscore.DEInternal>
3.2980

> <Gold.Chemscore.Rot>
1.0000

> <Gold.Chemscore.Internal.Correction>
   9.000000E+99

> <Gold.Chemscore.Hbonds>
donor molecule, donor type, donor heavy atom, donor atom, acceptor molecule, acceptor atom, score
      L1  H     3    19       P1  8028  0.64
      L1  H    11    23       P1  8028  0.95

> <Gold.Chemscore.Hbond.Weighted>
-6.3771

> <Gold.Chemscore.Metal.Weighted>
-0.0000

> <Gold.Chemscore.Lipo.Weighted>
-9.8687

> <Gold.Chemscore.Internal_Hbond.Weighted>
0.0000

> <Gold.Chemscore.DEClash.Weighted>
0.8879

> <Gold.Chemscore.DEInternal.Weighted>
3.2980

> <Gold.Chemscore.Rot.Weighted>
2.5600

> <Gold.Chemscore.Internal.Correction.Weighted>
   9.000000E+99

> <Gold.Protein.RotatedTorsions>
[ 6907 6896 6895 6894 ] final  112.09 input  -60.11 | X-H torsion
[ 7974 7965 7964 7962 ] final   76.58 input  175.53 | X-H torsion
[ 8008 7997 7996 7995 ] final    5.67 input   59.86 | X-H torsion
[ 10167 10162 10161 10158 ] final   36.62 input  -65.29 | X-H torsion
[ 10718 10713 10712 10709 ] final -166.09 input   66.30 | X-H torsion
[ 10763 10752 10751 10750 ] final    9.49 input  -60.55 | X-H torsion
[ 11005 11000 10999 10996 ] final  133.84 input  -57.11 | X-H torsion

> <Gold.Protein.ActiveResidues>
 VAL166  LYS551  ARG553  GLY616  TRP617  ASP618  TYR619  PRO620  LYS621  CYS622 
 ASP623  PHE694  ASN695  SER759  ASP760  ASP761  ALA762  ILE779  LEU786  VAL792 
 PHE793  MET794  SER795  GLU796  ALA797  LYS798  CYS799  TRP800  GLU811  SER814 

> <Gold.Protein.RotatedAtoms>
  152.4935  133.8565  159.7227 H   0  0  0  0  0  0  0  0  0  0  0  0  # atno 6907 bound_to 6896
  150.9088  133.7015  159.2867 H   0  0  0  0  0  0  0  0  0  0  0  0  # atno 6908 bound_to 6896
  151.4431  135.1026  159.9728 H   0  0  0  0  0  0  0  0  0  0  0  0  # atno 6909 bound_to 6896
  145.7010  139.2582  143.1705 H   0  0  0  0  0  0  0  0  0  0  0  0  # atno 7974 bound_to 7965
  154.7313  140.2731  155.6454 H   0  0  0  0  0  0  0  0  0  0  0  0  # atno 8008 bound_to 7997
  156.2850  140.2715  156.1939 H   0  0  0  0  0  0  0  0  0  0  0  0  # atno 8009 bound_to 7997
  155.0378  140.0371  157.2488 H   0  0  0  0  0  0  0  0  0  0  0  0  # atno 8010 bound_to 7997
  140.4110  144.1592  150.6139 H   0  0  0  0  0  0  0  0  0  0  0  0  # atno 10167 bound_to 10162
  156.6629  130.9053  151.3032 H   0  0  0  0  0  0  0  0  0  0  0  0  # atno 10718 bound_to 10713
  153.2135  135.6872  153.8085 H   0  0  0  0  0  0  0  0  0  0  0  0  # atno 10763 bound_to 10752
  153.7310  135.3252  155.3287 H   0  0  0  0  0  0  0  0  0  0  0  0  # atno 10764 bound_to 10752
  154.8234  135.4635  154.0952 H   0  0  0  0  0  0  0  0  0  0  0  0  # atno 10765 bound_to 10752
  139.9877  134.9526  156.9782 H   0  0  0  0  0  0  0  0  0  0  0  0  # atno 11005 bound_to 11000
  146.0798  140.7777  142.9647 LP  0  0  0  0  0  0  0  0  0  0  0  0  # atno 17320 bound_to 7965
  144.6969  140.3471  143.7188 LP  0  0  0  0  0  0  0  0  0  0  0  0  # atno 17321 bound_to 7965
  140.4637  143.2439  151.9184 LP  0  0  0  0  0  0  0  0  0  0  0  0  # atno 17342 bound_to 10162
  139.4782  144.5441  151.8485 LP  0  0  0  0  0  0  0  0  0  0  0  0  # atno 17343 bound_to 10162
  157.7103  130.9433  150.1068 LP  0  0  0  0  0  0  0  0  0  0  0  0  # atno 17370 bound_to 10713
  156.1997  130.3659  149.8804 LP  0  0  0  0  0  0  0  0  0  0  0  0  # atno 17371 bound_to 10713
  140.4969  134.1136  155.7243 LP  0  0  0  0  0  0  0  0  0  0  0  0  # atno 17394 bound_to 11000
  141.1539  133.8918  157.2028 LP  0  0  0  0  0  0  0  0  0  0  0  0  # atno 17395 bound_to 11000

$$$$
