AV-unprocessed.smi:2179|AV-procd|sdf|8857|dock1
  -GOLD-   2272012 53D 1   1.00000     0.00000
 Structure written by MMmdl.
 47 48  0  0  0  0  0  0  0  0  1 V2000
  144.3880  135.3794  150.1142 C   0  0  0  0  0  0  0  0  0  0  0  0
  145.2623  135.8226  151.2823 C   0  0  0  0  0  0  0  0  0  0  0  0
  145.6408  135.0014  152.1167 O   0  0  0  0  0  0  0  0  0  0  0  0
  145.5782  137.1254  151.3274 N   0  0  0  0  0  0  0  0  0  0  0  0
  146.3970  137.7528  152.3574 C   0  0  0  0  0  0  0  0  0  0  0  0
  146.6873  139.2278  152.0284 C   0  0  0  0  0  0  0  0  0  0  0  0
  147.5157  139.8477  153.0548 N   0  0  0  0  0  0  0  0  0  0  0  0
  147.2441  139.8475  154.3697 C   0  0  0  0  0  0  0  0  0  0  0  0
  146.2548  139.3018  154.8589 O   0  0  0  0  0  0  0  0  0  0  0  0
  148.2726  140.5035  155.2448 C   0  0  0  0  0  0  0  0  0  0  0  0
  149.4881  140.9976  154.7230 C   0  0  0  0  0  0  0  0  0  0  0  0
  150.4044  141.6206  155.5915 C   0  0  0  0  0  0  0  0  0  0  0  0
  150.0809  141.7460  156.9630 C   0  0  0  0  0  0  0  0  0  0  0  0
  150.9854  142.3682  157.8494 N   0  0  0  0  0  0  0  0  0  0  0  0
  150.5653  143.6664  158.3696 C   0  0  0  0  0  0  0  0  0  0  0  0
  151.7411  144.3980  159.0461 C   0  0  2  0  0  0  0  0  0  0  0  0
  152.7465  144.9956  158.0458 C   0  0  0  0  0  0  0  0  0  0  0  0
  152.3723  143.5427  160.0018 O   0  0  0  0  0  0  0  0  0  0  0  0
  152.8305  142.2967  159.4784 C   0  0  1  0  0  0  0  0  0  0  0  0
  153.4723  141.5073  160.6241 C   0  0  0  0  0  0  0  0  0  0  0  0
  151.6501  141.5366  158.8486 C   0  0  0  0  0  0  0  0  0  0  0  0
  148.9107  141.2766  157.4610 N   0  0  0  0  0  0  0  0  0  0  0  0
  148.0345  140.6811  156.6245 C   0  0  0  0  0  0  0  0  0  0  0  0
  144.9373  135.4642  149.1763 H   0  0  0  0  0  0  0  0  0  0  0  0
  143.4921  135.9978  150.0485 H   0  0  0  0  0  0  0  0  0  0  0  0
  144.0766  134.3414  150.2361 H   0  0  0  0  0  0  0  0  0  0  0  0
  145.2241  137.7263  150.5975 H   0  0  0  0  0  0  0  0  0  0  0  0
  145.8597  137.6768  153.3033 H   0  0  0  0  0  0  0  0  0  0  0  0
  147.3281  137.1980  152.4841 H   0  0  0  0  0  0  0  0  0  0  0  0
  147.2199  139.3050  151.0803 H   0  0  0  0  0  0  0  0  0  0  0  0
  145.7567  139.7853  151.9083 H   0  0  0  0  0  0  0  0  0  0  0  0
  148.3641  140.2989  152.7446 H   0  0  0  0  0  0  0  0  0  0  0  0
  149.7273  140.9055  153.6735 H   0  0  0  0  0  0  0  0  0  0  0  0
  151.3439  141.9825  155.2009 H   0  0  0  0  0  0  0  0  0  0  0  0
  150.1424  144.3026  157.5933 H   0  0  0  0  0  0  0  0  0  0  0  0
  149.7723  143.4979  159.0995 H   0  0  0  0  0  0  0  0  0  0  0  0
  151.3286  145.2329  159.6133 H   0  0  0  0  0  0  0  0  0  0  0  0
  152.2657  145.7459  157.4178 H   0  0  0  0  0  0  0  0  0  0  0  0
  153.1673  144.2413  157.3811 H   0  0  0  0  0  0  0  0  0  0  0  0
  153.5715  145.4815  158.5672 H   0  0  0  0  0  0  0  0  0  0  0  0
  153.5957  142.4745  158.7225 H   0  0  0  0  0  0  0  0  0  0  0  0
  153.8489  140.5454  160.2751 H   0  0  0  0  0  0  0  0  0  0  0  0
  152.7549  141.3166  161.4229 H   0  0  0  0  0  0  0  0  0  0  0  0
  154.3110  142.0560  161.0532 H   0  0  0  0  0  0  0  0  0  0  0  0
  150.9293  141.2540  159.6172 H   0  0  0  0  0  0  0  0  0  0  0  0
  152.0168  140.6168  158.3909 H   0  0  0  0  0  0  0  0  0  0  0  0
  147.1189  140.3324  157.0795 H   0  0  0  0  0  0  0  0  0  0  0  0
  1  2  1  0  0  0  0
  1 24  1  0  0  0  0
  1 25  1  0  0  0  0
  1 26  1  0  0  0  0
  2  3  2  0  0  0  0
  2  4  1  0  0  0  0
  4  5  1  0  0  0  0
  4 27  1  0  0  0  0
  5  6  1  0  0  0  0
  5 28  1  0  0  0  0
  5 29  1  0  0  0  0
  6  7  1  0  0  0  0
  6 30  1  0  0  0  0
  6 31  1  0  0  0  0
  7  8  1  0  0  0  0
  7 32  1  0  0  0  0
  8  9  2  0  0  0  0
  8 10  1  0  0  0  0
 10 23  1  0  0  0  0
 10 11  2  0  0  0  0
 11 12  1  0  0  0  0
 11 33  1  0  0  0  0
 12 13  2  0  0  0  0
 12 34  1  0  0  0  0
 13 14  1  0  0  0  0
 13 22  1  0  0  0  0
 14 21  1  0  0  0  0
 14 15  1  0  0  0  0
 15 16  1  0  0  0  0
 15 35  1  0  0  0  0
 15 36  1  0  0  0  0
 16 17  1  0  0  0  0
 16 18  1  0  0  0  0
 16 37  1  0  0  0  0
 17 38  1  0  0  0  0
 17 39  1  0  0  0  0
 17 40  1  0  0  0  0
 18 19  1  0  0  0  0
 19 20  1  0  0  0  0
 19 21  1  0  0  0  0
 19 41  1  0  0  0  0
 20 42  1  0  0  0  0
 20 43  1  0  0  0  0
 20 44  1  0  0  0  0
 21 45  1  0  0  0  0
 21 46  1  0  0  0  0
 22 23  2  0  0  0  0
 23 47  1  0  0  0  0
M  END
> <s_m_source_file>
AV-unprocessed.smi

> <i_m_source_file_index>
2179

> <i_lp_mmshare_version>
43012

> <i_f3d_flags>
0

> <s_epik_input>
W0NIM11DKD1PKVtOSF1bQ0gyXVtDSDJdW05IXUMoPU8pYzFbY0hdW2NIXWMobltjSF0xKU4yW0NIMl1bQ0BASF0oW0NIM10pT1tDQEBIXShbQ0gzXSlbQ0gyXTI=

> <s_epik_cmdline>
J2VwaWtfcHl0aG9uJywgJy1waCcsICc3LjAnLCAnLXRuJywgJzgnLCAnLW1hJywgJzIwMCcsICctbWV0YWxfYmluZGluZycsICctaW1hZScsICc8aW5maWxlLm1hZT4nLCAnLW9tYWUnLCAnPG91dGZpbGUubWFlPic=

> <r_lp_tautomer_probability>
1

> <r_epik_Ionization_Penalty>
2.00433e-05

> <r_epik_Ionization_Penalty_Charging>
0

> <r_epik_Ionization_Penalty_Neutral>
2.00433e-05

> <r_epik_State_Penalty>
-0

> <r_epik_Charging_Adjusted_Penalty>
0

> <i_epik_Tot_Q>
0

> <i_epik_Tot_abs_Q>
0

> <r_epik_Metal_State_Penalty>
-0

> <b_epik_Metal_Only>
0

> <s_lp_Force_Field>
OPLS_2005

> <r_lp_Energy>
15.6634

> <b_lp_Chiralities_Consistent>
1

> <s_lp_Variant>
AV-unprocessed.smi:2179-2

> <Gold.Version>
5.8.1

> <Gold.Id.Protein>
6NUR|6NUR_protein|mol2

> <Gold.PLP.Fitness>
48.6569

> <Gold.PLP.PLP>
-43.6488

> <Gold.PLP.part.hbond>
-2.0000

> <Gold.PLP.part.metal>
0.0000

> <Gold.PLP.part.buried>
-3.0758

> <Gold.PLP.part.nonpolar>
-37.5029

> <Gold.PLP.part.repulsive>
0.4436

> <Gold.PLP.ligand.clash>
0.0000

> <Gold.PLP.ligand.torsion>
0.2276

> <Gold.PLP.Chemscore.Hbond>
1.7040

> <Gold.PLP.Chemscore.CHOScore>
0.0000

> <Gold.PLP.Chemscore.Metal>
0.0000

> <Gold.Chemscore.Hbonds>
donor molecule, donor type, donor heavy atom, donor atom, acceptor molecule, acceptor atom, score
      L1  H     4    27       P1 10171  1.00
      L1  H     7    32       P1  7957  0.67

> <Gold.PLP.Chemscore.Internal.Correction>
0.3515

> <Gold.Rescore>
     Score         DG    S(hbond)    S(metal)    S(lipo)     H(rot)  DE(clash)    DE(int)     intcor
     15.76     -18.75       1.47        0.00     112.06       1.86       1.46       1.53       ----

> <Gold.Chemscore.Fitness>
15.7566

> <Gold.Chemscore.DG>
-18.7456

> <Gold.Chemscore.ZeroCoef>
-5.4800

> <Gold.Chemscore.Hbond>
1.4707

> <Gold.Chemscore.Metal>
0.0000

> <Gold.Chemscore.Lipo>
112.0632

> <Gold.Chemscore.Internal_Hbond>
0.0000

> <Gold.Chemscore.DEClash>
1.4555

> <Gold.Chemscore.DEInternal>
1.5334

> <Gold.Chemscore.Rot>
1.8586

> <Gold.Chemscore.Internal.Correction>
   9.000000E+99

> <Gold.Chemscore.Hbonds>
donor molecule, donor type, donor heavy atom, donor atom, acceptor molecule, acceptor atom, score
      L1  H     4    27       P1 10171  0.95
      L1  H     7    32       P1  7957  0.64

> <Gold.Chemscore.Hbond.Weighted>
-4.9121

> <Gold.Chemscore.Metal.Weighted>
-0.0000

> <Gold.Chemscore.Lipo.Weighted>
-13.1114

> <Gold.Chemscore.Internal_Hbond.Weighted>
0.0000

> <Gold.Chemscore.DEClash.Weighted>
1.4555

> <Gold.Chemscore.DEInternal.Weighted>
1.5334

> <Gold.Chemscore.Rot.Weighted>
4.7579

> <Gold.Chemscore.Internal.Correction.Weighted>
   9.000000E+99

> <Gold.Protein.RotatedTorsions>
[ 6907 6896 6895 6894 ] final   77.37 input  -60.11 | X-H torsion
[ 7974 7965 7964 7962 ] final  151.73 input  175.53 | X-H torsion
[ 8008 7997 7996 7995 ] final  151.84 input   59.86 | X-H torsion
[ 10167 10162 10161 10158 ] final   59.76 input  -65.29 | X-H torsion
[ 10718 10713 10712 10709 ] final  177.49 input   66.30 | X-H torsion
[ 10763 10752 10751 10750 ] final  114.74 input  -60.55 | X-H torsion
[ 11005 11000 10999 10996 ] final  166.46 input  -57.11 | X-H torsion

> <Gold.Protein.ActiveResidues>
 VAL166  LYS551  ARG553  GLY616  TRP617  ASP618  TYR619  PRO620  LYS621  CYS622 
 ASP623  PHE694  ASN695  SER759  ASP760  ASP761  ALA762  ILE779  LEU786  VAL792 
 PHE793  MET794  SER795  GLU796  ALA797  LYS798  CYS799  TRP800  GLU811  SER814 

> <Gold.Protein.RotatedAtoms>
  152.5115  134.3827  159.9356 H   0  0  0  0  0  0  0  0  0  0  0  0  # atno 6907 bound_to 6896
  151.3784  133.3823  159.2715 H   0  0  0  0  0  0  0  0  0  0  0  0  # atno 6908 bound_to 6896
  150.9523  134.8942  159.7738 H   0  0  0  0  0  0  0  0  0  0  0  0  # atno 6909 bound_to 6896
  144.8272  139.6575  143.6075 H   0  0  0  0  0  0  0  0  0  0  0  0  # atno 7974 bound_to 7965
  156.2656  140.2037  156.6239 H   0  0  0  0  0  0  0  0  0  0  0  0  # atno 8008 bound_to 7997
  154.6735  140.0547  157.0215 H   0  0  0  0  0  0  0  0  0  0  0  0  # atno 8009 bound_to 7997
  155.1102  140.3214  155.4526 H   0  0  0  0  0  0  0  0  0  0  0  0  # atno 8010 bound_to 7997
  140.1729  144.4259  150.6652 H   0  0  0  0  0  0  0  0  0  0  0  0  # atno 10167 bound_to 10162
  156.9045  130.9889  151.3030 H   0  0  0  0  0  0  0  0  0  0  0  0  # atno 10718 bound_to 10713
  153.5118  135.3616  155.2590 H   0  0  0  0  0  0  0  0  0  0  0  0  # atno 10763 bound_to 10752
  154.8741  135.4024  154.3360 H   0  0  0  0  0  0  0  0  0  0  0  0  # atno 10764 bound_to 10752
  153.4014  135.7075  153.6490 H   0  0  0  0  0  0  0  0  0  0  0  0  # atno 10765 bound_to 10752
  140.2666  134.7860  157.3638 H   0  0  0  0  0  0  0  0  0  0  0  0  # atno 11005 bound_to 11000
  146.2577  139.6339  142.9384 LP  0  0  0  0  0  0  0  0  0  0  0  0  # atno 17320 bound_to 7965
  145.4974  141.0438  143.2559 LP  0  0  0  0  0  0  0  0  0  0  0  0  # atno 17321 bound_to 7965
  140.6570  143.2240  151.5945 LP  0  0  0  0  0  0  0  0  0  0  0  0  # atno 17342 bound_to 10162
  139.5330  144.2861  152.1190 LP  0  0  0  0  0  0  0  0  0  0  0  0  # atno 17343 bound_to 10162
  157.6006  130.8509  149.8796 LP  0  0  0  0  0  0  0  0  0  0  0  0  # atno 17370 bound_to 10713
  156.0566  130.3707  150.1078 LP  0  0  0  0  0  0  0  0  0  0  0  0  # atno 17371 bound_to 10713
  140.1413  134.4968  155.8029 LP  0  0  0  0  0  0  0  0  0  0  0  0  # atno 17394 bound_to 11000
  141.2183  133.6826  156.7215 LP  0  0  0  0  0  0  0  0  0  0  0  0  # atno 17395 bound_to 11000

$$$$
