AV-unprocessed.smi:1405|AV-procd|sdf|5707|dock1
  -GOLD-   22720 5343D 1   1.00000     0.00000
 Structure written by MMmdl.
 49 52  0  0  0  0  0  0  0  0  1 V2000
  153.5807  137.7328  158.8853 O   0  0  0  0  0  0  0  0  0  0  0  0
  153.8421  137.9688  160.0644 C   0  0  0  0  0  0  0  0  0  0  0  0
  154.0216  136.7921  161.0397 C   0  0  0  0  0  0  0  0  0  0  0  0
  154.5626  137.1585  162.3595 N   0  0  0  0  0  0  0  0  0  0  0  0
  153.8488  136.8654  163.5131 C   0  0  0  0  0  0  0  0  0  0  0  0
  154.2871  137.1678  164.7582 C   0  0  0  0  0  0  0  0  0  0  0  0
  155.5698  137.8363  164.9478 C   0  0  0  0  0  0  0  0  0  0  0  0
  156.0521  138.1510  166.0335 O   0  0  0  0  0  0  0  0  0  0  0  0
  156.2585  138.1134  163.7640 N   0  0  0  0  0  0  0  0  0  0  0  0
  155.8134  137.8039  162.4778 C   0  0  0  0  0  0  0  0  0  0  0  0
  156.5044  138.0860  161.4998 O   0  0  0  0  0  0  0  0  0  0  0  0
  153.9748  139.2178  160.5426 N   0  0  0  0  0  0  0  0  0  0  0  0
  153.8099  140.4400  159.7664 C   0  0  0  0  0  0  0  0  0  0  0  0
  153.3034  141.5964  160.6535 C   0  0  0  0  0  0  0  0  0  0  0  0
  152.4842  142.7022  159.9399 C   0  0  0  0  0  0  0  0  0  0  0  0
  151.8057  143.6601  160.9568 C   0  0  0  0  0  0  0  0  0  0  0  0
  151.0439  144.7807  160.2159 C   0  0  2  0  0  0  0  0  0  0  0  0
  149.9591  144.1572  159.3122 C   0  0  0  0  0  0  0  0  0  0  0  0
  150.6299  143.2265  158.2794 C   0  0  1  0  0  0  0  0  0  0  0  0
  151.6140  144.0387  157.4132 C   0  0  0  0  0  0  0  0  0  0  0  0
  152.6929  144.6611  158.3228 C   0  0  1  0  0  0  0  0  0  0  0  0
  152.0291  145.5965  159.3541 C   0  0  0  0  0  0  0  0  0  0  0  0
  153.4529  143.5393  159.0607 C   0  0  0  0  0  0  0  0  0  0  0  0
  151.3907  142.1017  159.0151 C   0  0  0  0  0  0  0  0  0  0  0  0
  157.1529  138.5750  163.8456 H   0  0  0  0  0  0  0  0  0  0  0  0
  153.0622  136.2837  161.1528 H   0  0  0  0  0  0  0  0  0  0  0  0
  154.6733  136.0587  160.5628 H   0  0  0  0  0  0  0  0  0  0  0  0
  152.8941  136.3670  163.4207 H   0  0  0  0  0  0  0  0  0  0  0  0
  153.6855  136.9129  165.6188 H   0  0  0  0  0  0  0  0  0  0  0  0
  154.1897  139.3263  161.5232 H   0  0  0  0  0  0  0  0  0  0  0  0
  154.7812  140.6824  159.3369 H   0  0  0  0  0  0  0  0  0  0  0  0
  153.1352  140.2526  158.9308 H   0  0  0  0  0  0  0  0  0  0  0  0
  152.6967  141.1792  161.4586 H   0  0  0  0  0  0  0  0  0  0  0  0
  154.1636  142.0553  161.1436 H   0  0  0  0  0  0  0  0  0  0  0  0
  151.1052  143.1179  161.5917 H   0  0  0  0  0  0  0  0  0  0  0  0
  152.5512  144.0943  161.6245 H   0  0  0  0  0  0  0  0  0  0  0  0
  150.5713  145.4391  160.9453 H   0  0  0  0  0  0  0  0  0  0  0  0
  149.2403  143.5993  159.9136 H   0  0  0  0  0  0  0  0  0  0  0  0
  149.3940  144.9402  158.8048 H   0  0  0  0  0  0  0  0  0  0  0  0
  149.8650  142.7858  157.6393 H   0  0  0  0  0  0  0  0  0  0  0  0
  152.0760  143.3962  156.6624 H   0  0  0  0  0  0  0  0  0  0  0  0
  151.0830  144.8194  156.8670 H   0  0  0  0  0  0  0  0  0  0  0  0
  153.3935  145.2332  157.7136 H   0  0  0  0  0  0  0  0  0  0  0  0
  151.5065  146.4088  158.8474 H   0  0  0  0  0  0  0  0  0  0  0  0
  152.7868  146.0629  159.9850 H   0  0  0  0  0  0  0  0  0  0  0  0
  154.2422  143.9743  159.6755 H   0  0  0  0  0  0  0  0  0  0  0  0
  153.9543  142.8976  158.3346 H   0  0  0  0  0  0  0  0  0  0  0  0
  151.8392  141.4199  158.2913 H   0  0  0  0  0  0  0  0  0  0  0  0
  150.6775  141.5121  159.5912 H   0  0  0  0  0  0  0  0  0  0  0  0
  1  2  2  0  0  0  0
  2  3  1  0  0  0  0
  2 12  1  0  0  0  0
  3  4  1  0  0  0  0
  3 26  1  0  0  0  0
  3 27  1  0  0  0  0
  4 10  1  0  0  0  0
  4  5  1  0  0  0  0
  5  6  2  0  0  0  0
  5 28  1  0  0  0  0
  6  7  1  0  0  0  0
  6 29  1  0  0  0  0
  7  8  2  0  0  0  0
  7  9  1  0  0  0  0
  9 25  1  0  0  0  0
  9 10  1  0  0  0  0
 10 11  2  0  0  0  0
 12 13  1  0  0  0  0
 12 30  1  0  0  0  0
 13 14  1  0  0  0  0
 13 31  1  0  0  0  0
 13 32  1  0  0  0  0
 14 15  1  0  0  0  0
 14 33  1  0  0  0  0
 14 34  1  0  0  0  0
 15 23  1  0  0  0  0
 15 24  1  0  0  0  0
 15 16  1  0  0  0  0
 16 17  1  0  0  0  0
 16 35  1  0  0  0  0
 16 36  1  0  0  0  0
 17 22  1  0  0  0  0
 17 18  1  0  0  0  0
 17 37  1  0  0  0  0
 18 19  1  0  0  0  0
 18 38  1  0  0  0  0
 18 39  1  0  0  0  0
 19 20  1  0  0  0  0
 19 24  1  0  0  0  0
 19 40  1  0  0  0  0
 20 21  1  0  0  0  0
 20 41  1  0  0  0  0
 20 42  1  0  0  0  0
 21 22  1  0  0  0  0
 21 23  1  0  0  0  0
 21 43  1  0  0  0  0
 22 44  1  0  0  0  0
 22 45  1  0  0  0  0
 23 46  1  0  0  0  0
 23 47  1  0  0  0  0
 24 48  1  0  0  0  0
 24 49  1  0  0  0  0
M  END
> <s_m_source_file>
AV-unprocessed.smi

> <i_m_source_file_index>
1405

> <i_lp_mmshare_version>
43012

> <i_f3d_flags>
0

> <s_epik_input>
Tz1jMVtuSF1jKD1PKVtjSF1bY0hdbjFbQ0gyXUMoPU8pW05IXVtDSDJdW0NIMl1DMjNbQ0gyXVtDQEBIXTRbQ0gyXVtDQEhdKFtDSDJdMylbQ0gyXVtDQEBIXShbQ0gyXTQpW0NIMl0y

> <s_epik_cmdline>
J2VwaWtfcHl0aG9uJywgJy1waCcsICc3LjAnLCAnLXRuJywgJzgnLCAnLW1hJywgJzIwMCcsICctbWV0YWxfYmluZGluZycsICctaW1hZScsICc8aW5maWxlLm1hZT4nLCAnLW9tYWUnLCAnPG91dGZpbGUubWFlPic=

> <r_lp_tautomer_probability>
0.999537

> <r_epik_Ionization_Penalty>
0.00301971

> <r_epik_Ionization_Penalty_Charging>
0.00301969

> <r_epik_Ionization_Penalty_Neutral>
2.18059e-08

> <r_epik_State_Penalty>
0.00212114

> <r_epik_Charging_Adjusted_Penalty>
0.00514083

> <i_epik_Tot_Q>
0

> <i_epik_Tot_abs_Q>
0

> <r_epik_Metal_State_Penalty>
0.361473

> <b_epik_Metal_Only>
0

> <s_lp_Force_Field>
OPLS_2005

> <r_lp_Energy>
33.2851

> <b_lp_Chiralities_Consistent>
1

> <s_lp_Variant>
AV-unprocessed.smi:1405-1

> <Gold.Version>
5.8.1

> <Gold.Id.Protein>
6NUR|6NUR_protein|mol2

> <Gold.PLP.Fitness>
53.8958

> <Gold.PLP.PLP>
-54.8449

> <Gold.PLP.part.hbond>
-0.2597

> <Gold.PLP.part.metal>
0.0000

> <Gold.PLP.part.buried>
-5.4994

> <Gold.PLP.part.nonpolar>
-48.5007

> <Gold.PLP.part.repulsive>
0.1324

> <Gold.PLP.ligand.clash>
0.0000

> <Gold.PLP.ligand.torsion>
0.5588

> <Gold.PLP.Chemscore.Hbond>
0.0000

> <Gold.PLP.Chemscore.CHOScore>
0.0000

> <Gold.PLP.Chemscore.Metal>
0.0000

> <Gold.PLP.Chemscore.Internal.Correction>
0.1685

> <Gold.Rescore>
     Score         DG    S(hbond)    S(metal)    S(lipo)     H(rot)  DE(clash)    DE(int)     intcor
     17.34     -18.36       0.00        0.00     157.80       2.18       0.38       0.64       ----

> <Gold.Chemscore.Fitness>
17.3446

> <Gold.Chemscore.DG>
-18.3632

> <Gold.Chemscore.ZeroCoef>
-5.4800

> <Gold.Chemscore.Hbond>
0.0000

> <Gold.Chemscore.Metal>
0.0000

> <Gold.Chemscore.Lipo>
157.8045

> <Gold.Chemscore.Internal_Hbond>
0.0000

> <Gold.Chemscore.DEClash>
0.3815

> <Gold.Chemscore.DEInternal>
0.6371

> <Gold.Chemscore.Rot>
2.1797

> <Gold.Chemscore.Internal.Correction>
   9.000000E+99

> <Gold.Chemscore.Hbond.Weighted>
-0.0000

> <Gold.Chemscore.Metal.Weighted>
-0.0000

> <Gold.Chemscore.Lipo.Weighted>
-18.4631

> <Gold.Chemscore.Internal_Hbond.Weighted>
0.0000

> <Gold.Chemscore.DEClash.Weighted>
0.3815

> <Gold.Chemscore.DEInternal.Weighted>
0.6371

> <Gold.Chemscore.Rot.Weighted>
5.5799

> <Gold.Chemscore.Internal.Correction.Weighted>
   9.000000E+99

> <Gold.Protein.RotatedTorsions>
[ 6907 6896 6895 6894 ] final   22.88 input  -60.11 | X-H torsion
[ 7974 7965 7964 7962 ] final -154.67 input  175.53 | X-H torsion
[ 8008 7997 7996 7995 ] final -179.12 input   59.86 | X-H torsion
[ 10167 10162 10161 10158 ] final  -50.30 input  -65.29 | X-H torsion
[ 10718 10713 10712 10709 ] final   85.18 input   66.30 | X-H torsion
[ 10763 10752 10751 10750 ] final  119.58 input  -60.55 | X-H torsion
[ 11005 11000 10999 10996 ] final  -53.81 input  -57.11 | X-H torsion

> <Gold.Protein.ActiveResidues>
 VAL166  LYS551  ARG553  GLY616  TRP617  ASP618  TYR619  PRO620  LYS621  CYS622 
 ASP623  PHE694  ASN695  SER759  ASP760  ASP761  ALA762  ILE779  LEU786  VAL792 
 PHE793  MET794  SER795  GLU796  ALA797  LYS798  CYS799  TRP800  GLU811  SER814 

> <Gold.Protein.RotatedAtoms>
  151.9339  135.0244  160.0530 H   0  0  0  0  0  0  0  0  0  0  0  0  # atno 6907 bound_to 6896
  152.2095  133.4895  159.5110 H   0  0  0  0  0  0  0  0  0  0  0  0  # atno 6908 bound_to 6896
  150.6973  134.1403  159.4145 H   0  0  0  0  0  0  0  0  0  0  0  0  # atno 6909 bound_to 6896
  144.7678  140.4356  143.5929 H   0  0  0  0  0  0  0  0  0  0  0  0  # atno 7974 bound_to 7965
  156.0268  140.1273  157.0300 H   0  0  0  0  0  0  0  0  0  0  0  0  # atno 8008 bound_to 7997
  154.4333  140.1057  156.6113 H   0  0  0  0  0  0  0  0  0  0  0  0  # atno 8009 bound_to 7997
  155.5865  140.3469  155.4556 H   0  0  0  0  0  0  0  0  0  0  0  0  # atno 8010 bound_to 7997
  140.6644  143.2663  151.4339 H   0  0  0  0  0  0  0  0  0  0  0  0  # atno 10167 bound_to 10162
  157.6910  131.0164  150.2784 H   0  0  0  0  0  0  0  0  0  0  0  0  # atno 10718 bound_to 10713
  153.5853  135.3476  155.2890 H   0  0  0  0  0  0  0  0  0  0  0  0  # atno 10763 bound_to 10752
  154.8661  135.4192  154.2576 H   0  0  0  0  0  0  0  0  0  0  0  0  # atno 10764 bound_to 10752
  153.3371  135.7047  153.6969 H   0  0  0  0  0  0  0  0  0  0  0  0  # atno 10765 bound_to 10752
  141.0995  133.6620  156.4228 H   0  0  0  0  0  0  0  0  0  0  0  0  # atno 11005 bound_to 11000
  145.6416  139.1551  143.2912 LP  0  0  0  0  0  0  0  0  0  0  0  0  # atno 17320 bound_to 7965
  146.1800  140.6512  142.9193 LP  0  0  0  0  0  0  0  0  0  0  0  0  # atno 17321 bound_to 7965
  139.5888  144.1544  152.2063 LP  0  0  0  0  0  0  0  0  0  0  0  0  # atno 17342 bound_to 10162
  140.0893  144.5635  150.7066 LP  0  0  0  0  0  0  0  0  0  0  0  0  # atno 17343 bound_to 10162
  156.3335  130.3804  149.7470 LP  0  0  0  0  0  0  0  0  0  0  0  0  # atno 17370 bound_to 10713
  156.5002  130.8125  151.3129 LP  0  0  0  0  0  0  0  0  0  0  0  0  # atno 17371 bound_to 10713
  140.5058  134.6442  157.5266 LP  0  0  0  0  0  0  0  0  0  0  0  0  # atno 17394 bound_to 11000
  139.9841  134.7089  155.9805 LP  0  0  0  0  0  0  0  0  0  0  0  0  # atno 17395 bound_to 11000

$$$$
