AV-unprocessed.smi:153|AV-procd|sdf|1257|dock2
  -GOLD-   2262018493D 1   1.00000     0.00000
 Structure written by MMmdl.
 60 63  0  0  0  0  0  0  0  0  2 V2000
  153.3431  142.4366  159.6348 C   0  0  0  0  0  0  0  0  0  0  0  0
  151.9320  142.8905  160.0421 C   0  0  1  0  0  0  0  0  0  0  0  0
  152.1386  144.0658  160.8290 O   0  0  0  0  0  0  0  0  0  0  0  0
  151.2832  145.1142  160.4021 C   0  0  0  0  0  0  0  0  0  0  0  0
  151.0707  144.8281  158.9229 C   0  0  0  0  0  0  0  0  0  0  0  0
  150.9765  143.3099  158.8901 C   0  0  2  0  0  0  0  0  0  0  0  0
  149.6553  142.9633  159.2710 O   0  0  0  0  0  0  0  0  0  0  0  0
  151.2311  142.7310  157.4704 C   0  0  0  0  0  0  0  0  0  0  0  0
  151.2045  141.2750  157.3623 N   0  0  0  0  0  0  0  0  0  0  0  0
  151.6609  140.3486  158.2746 C   0  0  0  0  0  0  0  0  0  0  0  0
  151.4867  139.1010  157.9370 N   0  0  0  0  0  0  0  0  0  0  0  0
  150.8414  139.1590  156.7075 C   0  0  0  0  0  0  0  0  0  0  0  0
  150.3410  138.1850  155.7905 C   0  0  0  0  0  0  0  0  0  0  0  0
  150.4332  136.8371  155.9617 N   0  0  0  0  0  0  0  0  0  0  0  0
  151.0082  136.3064  157.1912 C   0  0  0  0  0  0  0  0  0  0  0  0
  149.6884  135.9309  155.0807 C   0  0  0  0  0  0  0  0  0  0  0  0
  149.6877  134.4564  155.5468 C   0  0  1  0  0  0  0  0  0  0  0  0
  148.8197  134.3169  156.6538 O   0  0  0  0  0  0  0  0  0  0  0  0
  149.3255  133.4301  154.4512 C   0  0  0  0  0  0  0  0  0  0  0  0
  148.2301  133.9004  153.5669 N   0  3  0  0  0  0  0  0  0  0  0  0
  147.9751  132.9729  152.4388 C   0  0  0  0  0  0  0  0  0  0  0  0
  146.8736  133.5305  151.5218 C   0  0  0  0  0  0  0  0  0  0  0  0
  145.6921  133.7590  152.2795 O   0  0  0  0  0  0  0  0  0  0  0  0
  145.8995  134.7146  153.3122 C   0  0  0  0  0  0  0  0  0  0  0  0
  146.9677  134.1958  154.2894 C   0  0  0  0  0  0  0  0  0  0  0  0
  149.7099  138.6505  154.6806 N   0  0  0  0  0  0  0  0  0  0  0  0
  149.5835  139.9623  154.4664 C   0  0  0  0  0  0  0  0  0  0  0  0
  150.0045  140.9733  155.2257 N   0  0  0  0  0  0  0  0  0  0  0  0
  150.6349  140.5223  156.3474 C   0  0  0  0  0  0  0  0  0  0  0  0
  153.3331  141.4573  159.1623 H   0  0  0  0  0  0  0  0  0  0  0  0
  153.9855  142.3512  160.5116 H   0  0  0  0  0  0  0  0  0  0  0  0
  153.8119  143.1453  158.9518 H   0  0  0  0  0  0  0  0  0  0  0  0
  151.4799  142.1168  160.6650 H   0  0  0  0  0  0  0  0  0  0  0  0
  150.3414  145.0583  160.9497 H   0  0  0  0  0  0  0  0  0  0  0  0
  151.7276  146.0928  160.5836 H   0  0  0  0  0  0  0  0  0  0  0  0
  150.1960  145.3330  158.5107 H   0  0  0  0  0  0  0  0  0  0  0  0
  151.9448  145.1652  158.3635 H   0  0  0  0  0  0  0  0  0  0  0  0
  149.0795  143.6753  159.0376 H   0  0  0  0  0  0  0  0  0  0  0  0
  150.4954  143.1280  156.7701 H   0  0  0  0  0  0  0  0  0  0  0  0
  152.1977  143.0813  157.1074 H   0  0  0  0  0  0  0  0  0  0  0  0
  152.1273  140.6152  159.2108 H   0  0  0  0  0  0  0  0  0  0  0  0
  151.9006  136.8640  157.4780 H   0  0  0  0  0  0  0  0  0  0  0  0
  151.2994  135.2642  157.0586 H   0  0  0  0  0  0  0  0  0  0  0  0
  150.2865  136.3528  158.0071 H   0  0  0  0  0  0  0  0  0  0  0  0
  148.6569  136.2649  154.9728 H   0  0  0  0  0  0  0  0  0  0  0  0
  150.1062  135.9977  154.0754 H   0  0  0  0  0  0  0  0  0  0  0  0
  150.6893  134.2491  155.9215 H   0  0  0  0  0  0  0  0  0  0  0  0
  148.0423  133.8592  156.3707 H   0  0  0  0  0  0  0  0  0  0  0  0
  150.2135  133.2364  153.8477 H   0  0  0  0  0  0  0  0  0  0  0  0
  149.0433  132.4748  154.8967 H   0  0  0  0  0  0  0  0  0  0  0  0
  148.8897  132.8285  151.8625 H   0  0  0  0  0  0  0  0  0  0  0  0
  147.6823  131.9959  152.8265 H   0  0  0  0  0  0  0  0  0  0  0  0
  147.1970  134.4551  151.0412 H   0  0  0  0  0  0  0  0  0  0  0  0
  146.6515  132.8190  150.7263 H   0  0  0  0  0  0  0  0  0  0  0  0
  146.1953  135.6739  152.8842 H   0  0  0  0  0  0  0  0  0  0  0  0
  144.9578  134.8771  153.8368 H   0  0  0  0  0  0  0  0  0  0  0  0
  146.6083  133.2925  154.7849 H   0  0  0  0  0  0  0  0  0  0  0  0
  147.1362  134.9400  155.0670 H   0  0  0  0  0  0  0  0  0  0  0  0
  149.0738  140.2417  153.5562 H   0  0  0  0  0  0  0  0  0  0  0  0
  148.5484  134.7664  153.1550 H   0  0  0  0  0  0  0  0  0  0  0  0
  1  2  1  0  0  0  0
  1 30  1  0  0  0  0
  1 31  1  0  0  0  0
  1 32  1  0  0  0  0
  2  6  1  0  0  0  0
  2  3  1  0  0  0  0
  2 33  1  0  0  0  0
  3  4  1  0  0  0  0
  4  5  1  0  0  0  0
  4 34  1  0  0  0  0
  4 35  1  0  0  0  0
  5  6  1  0  0  0  0
  5 36  1  0  0  0  0
  5 37  1  0  0  0  0
  6  7  1  0  0  0  0
  6  8  1  0  0  0  0
  7 38  1  0  0  0  0
  8  9  1  0  0  0  0
  8 39  1  0  0  0  0
  8 40  1  0  0  0  0
  9 29  1  0  0  0  0
  9 10  1  0  0  0  0
 10 11  2  0  0  0  0
 10 41  1  0  0  0  0
 11 12  1  0  0  0  0
 12 29  2  0  0  0  0
 12 13  1  0  0  0  0
 13 14  1  0  0  0  0
 13 26  2  0  0  0  0
 14 15  1  0  0  0  0
 14 16  1  0  0  0  0
 15 42  1  0  0  0  0
 15 43  1  0  0  0  0
 15 44  1  0  0  0  0
 16 17  1  0  0  0  0
 16 45  1  0  0  0  0
 16 46  1  0  0  0  0
 17 18  1  0  0  0  0
 17 19  1  0  0  0  0
 17 47  1  0  0  0  0
 18 48  1  0  0  0  0
 19 20  1  0  0  0  0
 19 49  1  0  0  0  0
 19 50  1  0  0  0  0
 20 25  1  0  0  0  0
 20 21  1  0  0  0  0
 20 60  1  0  0  0  0
 21 22  1  0  0  0  0
 21 51  1  0  0  0  0
 21 52  1  0  0  0  0
 22 23  1  0  0  0  0
 22 53  1  0  0  0  0
 22 54  1  0  0  0  0
 23 24  1  0  0  0  0
 24 25  1  0  0  0  0
 24 55  1  0  0  0  0
 24 56  1  0  0  0  0
 25 57  1  0  0  0  0
 25 58  1  0  0  0  0
 26 27  1  0  0  0  0
 27 28  2  0  0  0  0
 27 59  1  0  0  0  0
 28 29  1  0  0  0  0
M  CHG  1  20   1
M  END
> <s_m_source_file>
AV-unprocessed.smi

> <i_m_source_file_index>
153

> <i_lp_mmshare_version>
43012

> <i_f3d_flags>
0

> <s_epik_input>
W0NIMl0xW0NIMl1PW0NAQEhdKFtDSDNdKVtDQEBdMShbT0hdKVtDSDJdbihbY0hdbjIpYyhjMjMpbltjSF1uYzNOKFtDSDNdKVtDSDJdW0NASF0oW09IXSlbQ0gyXU40W0NIMl1bQ0gyXU9bQ0gyXVtDSDJdNA==

> <s_epik_cmdline>
J2VwaWtfcHl0aG9uJywgJy1waCcsICc3LjAnLCAnLXRuJywgJzgnLCAnLW1hJywgJzIwMCcsICctbWV0YWxfYmluZGluZycsICctaW1hZScsICc8aW5maWxlLm1hZT4nLCAnLW9tYWUnLCAnPG91dGZpbGUubWFlPic=

> <r_lp_tautomer_probability>
1

> <r_epik_Ionization_Penalty>
0.403509

> <r_epik_Ionization_Penalty_Charging>
0.40072

> <r_epik_Ionization_Penalty_Neutral>
0.00278876

> <r_epik_State_Penalty>
0.400058

> <r_epik_Charging_Adjusted_Penalty>
0.800778

> <i_epik_Tot_Q>
1

> <i_epik_Tot_abs_Q>
1

> <r_epik_Metal_State_Penalty>
0.400321

> <b_epik_Metal_Only>
0

> <s_lp_Force_Field>
OPLS_2005

> <r_lp_Energy>
51.1355

> <b_lp_Chiralities_Consistent>
1

> <s_lp_Variant>
AV-unprocessed.smi:153-8

> <Gold.Version>
5.8.1

> <Gold.Id.Protein>
6NUR|6NUR_protein|mol2

> <Gold.PLP.Fitness>
56.2675

> <Gold.PLP.PLP>
-48.0225

> <Gold.PLP.part.hbond>
-3.0000

> <Gold.PLP.part.metal>
0.0000

> <Gold.PLP.part.buried>
-5.2875

> <Gold.PLP.part.nonpolar>
-38.7932

> <Gold.PLP.part.repulsive>
0.4391

> <Gold.PLP.ligand.clash>
0.0000

> <Gold.PLP.ligand.torsion>
0.7529

> <Gold.PLP.Chemscore.Hbond>
2.0000

> <Gold.PLP.Chemscore.CHOScore>
1.0000

> <Gold.PLP.Chemscore.Metal>
0.0000

> <Gold.Chemscore.Hbonds>
donor molecule, donor type, donor heavy atom, donor atom, acceptor molecule, acceptor atom, score
      L1  H    20    60       P1  7948  2.00
      L1  C    27    59       P1  7957  1.00

> <Gold.PLP.Chemscore.Internal.Correction>
0.7507

> <Gold.Rescore>
     Score         DG    S(hbond)    S(metal)    S(lipo)     H(rot)  DE(clash)    DE(int)     intcor
      7.86     -11.32       0.83        0.00     105.37       3.62       0.11       3.36       ----

> <Gold.Chemscore.Fitness>
7.8616

> <Gold.Chemscore.DG>
-11.3238

> <Gold.Chemscore.ZeroCoef>
-5.4800

> <Gold.Chemscore.Hbond>
0.8316

> <Gold.Chemscore.Metal>
0.0000

> <Gold.Chemscore.Lipo>
105.3731

> <Gold.Chemscore.Internal_Hbond>
0.0000

> <Gold.Chemscore.DEClash>
0.1062

> <Gold.Chemscore.DEInternal>
3.3560

> <Gold.Chemscore.Rot>
3.6182

> <Gold.Chemscore.Internal.Correction>
   9.000000E+99

> <Gold.Chemscore.Hbonds>
donor molecule, donor type, donor heavy atom, donor atom, acceptor molecule, acceptor atom, score
      L1  H    20    60       P1  7948  0.49

> <Gold.Chemscore.Hbond.Weighted>
-2.7776

> <Gold.Chemscore.Metal.Weighted>
-0.0000

> <Gold.Chemscore.Lipo.Weighted>
-12.3286

> <Gold.Chemscore.Internal_Hbond.Weighted>
0.0000

> <Gold.Chemscore.DEClash.Weighted>
0.1062

> <Gold.Chemscore.DEInternal.Weighted>
3.3560

> <Gold.Chemscore.Rot.Weighted>
9.2625

> <Gold.Chemscore.Internal.Correction.Weighted>
   9.000000E+99

> <Gold.Protein.RotatedTorsions>
[ 6907 6896 6895 6894 ] final   10.18 input  -60.11 | X-H torsion
[ 7974 7965 7964 7962 ] final  -52.07 input  175.53 | X-H torsion
[ 8008 7997 7996 7995 ] final -172.54 input   59.86 | X-H torsion
[ 10167 10162 10161 10158 ] final   19.82 input  -65.29 | X-H torsion
[ 10718 10713 10712 10709 ] final -168.84 input   66.30 | X-H torsion
[ 10763 10752 10751 10750 ] final   36.58 input  -60.55 | X-H torsion
[ 11005 11000 10999 10996 ] final   59.90 input  -57.11 | X-H torsion

> <Gold.Protein.ActiveResidues>
 VAL166  LYS551  ARG553  GLY616  TRP617  ASP618  TYR619  PRO620  LYS621  CYS622 
 ASP623  PHE694  ASN695  SER759  ASP760  ASP761  ALA762  ILE779  LEU786  VAL792 
 PHE793  MET794  SER795  GLU796  ALA797  LYS798  CYS799  TRP800  GLU811  SER814 

> <Gold.Protein.RotatedAtoms>
  151.7341  135.0868  160.0304 H   0  0  0  0  0  0  0  0  0  0  0  0  # atno 6907 bound_to 6896
  152.3522  133.6189  159.5961 H   0  0  0  0  0  0  0  0  0  0  0  0  # atno 6908 bound_to 6896
  150.7547  133.9473  159.3516 H   0  0  0  0  0  0  0  0  0  0  0  0  # atno 6909 bound_to 6896
  145.9120  140.7907  142.9690 H   0  0  0  0  0  0  0  0  0  0  0  0  # atno 7974 bound_to 7965
  155.9459  140.1117  157.1017 H   0  0  0  0  0  0  0  0  0  0  0  0  # atno 8008 bound_to 7997
  154.4099  140.1210  156.5054 H   0  0  0  0  0  0  0  0  0  0  0  0  # atno 8009 bound_to 7997
  155.6904  140.3472  155.4893 H   0  0  0  0  0  0  0  0  0  0  0  0  # atno 8010 bound_to 7997
  140.5550  143.9441  150.6603 H   0  0  0  0  0  0  0  0  0  0  0  0  # atno 10167 bound_to 10162
  156.7027  130.9203  151.3081 H   0  0  0  0  0  0  0  0  0  0  0  0  # atno 10718 bound_to 10713
  153.0071  135.6302  154.2008 H   0  0  0  0  0  0  0  0  0  0  0  0  # atno 10763 bound_to 10752
  154.1752  135.2816  155.3071 H   0  0  0  0  0  0  0  0  0  0  0  0  # atno 10764 bound_to 10752
  154.5878  135.5627  153.7308 H   0  0  0  0  0  0  0  0  0  0  0  0  # atno 10765 bound_to 10752
  140.0270  134.6067  155.9558 H   0  0  0  0  0  0  0  0  0  0  0  0  # atno 11005 bound_to 11000
  144.6744  140.1841  143.7403 LP  0  0  0  0  0  0  0  0  0  0  0  0  # atno 17320 bound_to 7965
  145.8659  139.2246  143.1689 LP  0  0  0  0  0  0  0  0  0  0  0  0  # atno 17321 bound_to 7965
  140.2876  143.3346  152.1092 LP  0  0  0  0  0  0  0  0  0  0  0  0  # atno 17342 bound_to 10162
  139.5044  144.6774  151.6093 LP  0  0  0  0  0  0  0  0  0  0  0  0  # atno 17343 bound_to 10162
  157.6967  130.9289  150.0664 LP  0  0  0  0  0  0  0  0  0  0  0  0  # atno 17370 bound_to 10713
  156.1717  130.3646  149.9156 LP  0  0  0  0  0  0  0  0  0  0  0  0  # atno 17371 bound_to 10713
  141.1809  133.6546  156.5015 LP  0  0  0  0  0  0  0  0  0  0  0  0  # atno 17394 bound_to 11000
  140.4289  134.7120  157.4931 LP  0  0  0  0  0  0  0  0  0  0  0  0  # atno 17395 bound_to 11000

$$$$
