#       Name:                AV-unprocessed.smi:169
#       Creating user name   scv26
#       Creation time:       Thu Mar 26 19:15:39 2020


#       File generated by GOLD software.
#

@<TRIPOS>MOLECULE
AV-unprocessed.smi:169
    64    68     1
SMALL
NO_CHARGES


@<TRIPOS>ATOM
      1 ****        -5.5844  -1.8511  -0.8628 C.3            1 S1                 0.0000
      2 ****        -4.4403  -2.0074   0.1551 C.3            1 S1                 0.0000
      3 ****        -3.6410  -0.7716   0.3646 N.4            1 S1                 1.0000
      4 ****        -4.4176   0.3518   0.9472 C.3            1 S1                 0.0000
      5 ****        -3.5875   1.1299   1.9858 C.3            1 S1                 0.0000
      6 ****        -2.3315   1.8480   1.4483 C.3            1 S1                 0.0000
      7 ****        -2.6411   2.8929   0.3707 C.3            1 S1                 0.0000
      8 ****        -2.4376   2.1556  -0.9580 C.3            1 S1                 0.0000
      9 ****        -1.8390   0.7831  -0.5868 C.3            1 S1                 0.0000
     10 ****        -2.8128  -0.3999  -0.8158 C.3            1 S1                 0.0000
     11 ****        -1.4148   0.9092   0.8058 N.3            1 S1                 0.0000
     12 ****        -0.0737   0.9992   0.9993 C.ar           1 S1                 0.0000
     13 ****         0.4745   2.1096   1.5594 N.ar           1 S1                 0.0000
     14 ****         1.7966   2.1930   1.7368 C.ar           1 S1                 0.0000
     15 ****         2.7374   1.2976   1.4304 N.ar           1 S1                 0.0000
     16 ****         2.1935   0.1809   0.8675 C.ar           1 S1                 0.0000
     17 ****         0.8109  -0.0495   0.6233 C.ar           1 S1                 0.0000
     18 ****         0.6311  -1.3055   0.0570 N.2            1 S1                 0.0000
     19 ****         1.8406  -1.7873  -0.0349 C.2            1 S1                 0.0000
     20 ****         2.8425  -0.9545   0.4129 N.pl3          1 S1                 0.0000
     21 ****         4.2722  -1.2315   0.4302 C.3            1 S1                 0.0000
     22 ****         5.0203  -0.8726  -0.8769 C.3            1 S1                 0.0000
     23 ****         6.5217  -1.0869  -0.6406 C.3            1 S1                 0.0000
     24 ****         7.0448  -0.1232   0.2512 O.3            1 S1                 0.0000
     25 ****         4.4636  -1.5075  -2.1627 C.3            1 S1                 0.0000
     26 ****         3.7959  -0.2849  -2.5391 O.3            1 S1                 0.0000
     27 ****         4.6239   0.4287  -1.5967 C.3            1 S1                 0.0000
     28 ****        -6.1541  -2.7777  -0.9366 H              1 S1                 0.0000
     29 ****        -5.2142  -1.6229  -1.8618 H              1 S1                 0.0000
     30 ****        -6.2818  -1.0647  -0.5736 H              1 S1                 0.0000
     31 ****        -4.8509  -2.3221   1.1155 H              1 S1                 0.0000
     32 ****        -3.7758  -2.8123  -0.1615 H              1 S1                 0.0000
     33 ****        -4.8078   1.0025   0.1642 H              1 S1                 0.0000
     34 ****        -5.2912  -0.0427   1.4679 H              1 S1                 0.0000
     35 ****        -4.2320   1.8686   2.4633 H              1 S1                 0.0000
     36 ****        -3.2876   0.4468   2.7817 H              1 S1                 0.0000
     37 ****        -1.8677   2.3423   2.3024 H              1 S1                 0.0000
     38 ****        -3.6390   3.3216   0.4690 H              1 S1                 0.0000
     39 ****        -1.9263   3.7140   0.4409 H              1 S1                 0.0000
     40 ****        -3.3718   2.0667  -1.5129 H              1 S1                 0.0000
     41 ****        -1.7457   2.7156  -1.5881 H              1 S1                 0.0000
     42 ****        -0.9809   0.6267  -1.2428 H              1 S1                 0.0000
     43 ****        -2.2119  -1.2755  -1.0650 H              1 S1                 0.0000
     44 ****        -3.4365  -0.2111  -1.6893 H              1 S1                 0.0000
     45 ****         2.1516   3.1087   2.1865 H              1 S1                 0.0000
     46 ****         2.0343  -2.7714  -0.4356 H              1 S1                 0.0000
     47 ****         4.6957  -0.6957   1.2803 H              1 S1                 0.0000
     48 ****         4.4000  -2.2907   0.6572 H              1 S1                 0.0000
     49 ****         6.7195  -2.0831  -0.2433 H              1 S1                 0.0000
     50 ****         7.0788  -1.0104  -1.5749 H              1 S1                 0.0000
     51 ****         6.5930  -0.1998   1.0777 H              1 S1                 0.0000
     52 ****         5.2295  -1.7848  -2.8891 H              1 S1                 0.0000
     53 ****         3.7774  -2.3374  -2.0012 H              1 S1                 0.0000
     54 ****         4.0650   1.1392  -0.9900 H              1 S1                 0.0000
     55 ****         5.4582   0.9272  -2.0935 H              1 S1                 0.0000
     56 ****        -2.9760  -1.0226   1.0825 H              1 S1                 0.0000
     57 ****        -1.5107   0.0540   1.3151 LP             1 S1                 0.0000
     58 ****        -0.1141   2.8677   1.8401 LP             1 S1                 0.0000
     59 ****         3.7154   1.4286   1.5927 LP             1 S1                 0.0000
     60 ****        -0.2269  -1.7400  -0.2169 LP             1 S1                 0.0000
     61 ****         6.9067   0.7932  -0.1244 LP             1 S1                 0.0000
     62 ****         8.0225  -0.2845   0.3856 LP             1 S1                 0.0000
     63 ****         2.8192  -0.2666  -2.3253 LP             1 S1                 0.0000
     64 ****         3.9334  -0.0176  -3.4929 LP             1 S1                 0.0000
@<TRIPOS>BOND
    1    1    2 1     
    2    1   28 1     
    3    1   29 1     
    4    1   30 1     
    5    2    3 1     
    6    2   31 1     
    7    2   32 1     
    8    3   10 1     
    9    3    4 1     
   10    3   56 1     
   11    4    5 1     
   12    4   33 1     
   13    4   34 1     
   14    5    6 1     
   15    5   35 1     
   16    5   36 1     
   17    6   11 1     
   18    6    7 1     
   19    6   37 1     
   20    7    8 1     
   21    7   38 1     
   22    7   39 1     
   23    8    9 1     
   24    8   40 1     
   25    8   41 1     
   26    9   10 1     
   27    9   11 1     
   28    9   42 1     
   29   10   43 1     
   30   10   44 1     
   31   11   12 1     
   32   12   17 ar    
   33   12   13 ar    
   34   13   14 ar    
   35   14   15 ar    
   36   14   45 1     
   37   15   16 ar    
   38   16   20 1     
   39   16   17 ar    
   40   17   18 1     
   41   18   19 2     
   42   19   20 1     
   43   19   46 1     
   44   20   21 1     
   45   21   22 1     
   46   21   47 1     
   47   21   48 1     
   48   22   27 1     
   49   22   23 1     
   50   22   25 1     
   51   23   24 1     
   52   23   49 1     
   53   23   50 1     
   54   24   51 1     
   55   25   26 1     
   56   25   52 1     
   57   25   53 1     
   58   26   27 1     
   59   27   54 1     
   60   27   55 1     
   61   11   57 1     
   62   13   58 1     
   63   15   59 1     
   64   18   60 1     
   65   24   61 1     
   66   24   62 1     
   67   26   63 1     
   68   26   64 1     
@<TRIPOS>SUBSTRUCTURE
      1 S1             1
@<TRIPOS>SET
LONE_PAIRS      STATIC     ATOMS    <user>   **** ""
8 57 58 59 60 61 62 63 64
DONOR_HYDROGENS      STATIC     ATOMS    <user>   **** ""
2 56 51
ATOM$BLUE        STATIC     ATOMS    COLORGROUP SYSTEM
8 57 58 59 60 61 62 63 64
ATOM$RED        STATIC     ATOMS    COLORGROUP SYSTEM
2 56 51
