AV-unprocessed.smi:1661|AV-procd|sdf|6656|dock5
  -GOLD-   22720 7363D 1   1.00000     0.00000
 Structure written by MMmdl.
 37 38  0  0  0  0  0  0  0  0  3 V2000
  143.9469  133.0845  150.8288 C   0  0  0  0  0  0  0  0  0  0  0  0
  145.1741  133.9561  150.5091 C   0  0  2  0  0  0  0  0  0  0  0  0
  146.5048  133.2541  150.8347 C   0  0  0  0  0  0  0  0  0  0  0  0
  146.7738  133.1873  152.3488 C   0  0  0  0  0  0  0  0  0  0  0  0
  146.7334  134.5388  152.9651 N   0  3  2  0  0  0  0  0  0  0  0  0
  147.1185  134.5113  154.3982 C   0  0  0  0  0  0  0  0  0  0  0  0
  148.5441  133.9684  154.6116 C   0  0  0  0  0  0  0  0  0  0  0  0
  149.5355  135.0332  154.5178 N   0  0  0  0  0  0  0  0  0  0  0  0
  150.5104  135.2742  155.4058 C   0  0  0  0  0  0  0  0  0  0  0  0
  150.6243  134.5570  156.4025 O   0  0  0  0  0  0  0  0  0  0  0  0
  151.2869  136.3335  155.0865 N   0  5  0  0  0  0  0  0  0  0  0  0
  150.7507  137.5635  155.0215 C   0  0  0  0  0  0  0  0  0  0  0  0
  151.4883  138.6558  154.7650 N   0  0  0  0  0  0  0  0  0  0  0  0
  150.7408  139.8254  154.7370 N   0  0  0  0  0  0  0  0  0  0  0  0
  149.4505  139.5828  154.9665 C   0  0  0  0  0  0  0  0  0  0  0  0
  149.0313  137.9039  155.2348 S   0  0  0  0  0  0  0  0  0  0  0  0
  145.4306  135.2129  152.7209 C   0  0  0  0  0  0  0  0  0  0  0  0
  145.1325  135.3234  151.2147 C   0  0  0  0  0  0  0  0  0  0  0  0
  143.8775  132.8430  151.8889 H   0  0  0  0  0  0  0  0  0  0  0  0
  143.9828  132.1438  150.2786 H   0  0  0  0  0  0  0  0  0  0  0  0
  143.0242  133.5920  150.5457 H   0  0  0  0  0  0  0  0  0  0  0  0
  145.1511  134.1382  149.4340 H   0  0  0  0  0  0  0  0  0  0  0  0
  146.5179  132.2510  150.4070 H   0  0  0  0  0  0  0  0  0  0  0  0
  147.3209  133.7966  150.3556 H   0  0  0  0  0  0  0  0  0  0  0  0
  146.0481  132.5380  152.8403 H   0  0  0  0  0  0  0  0  0  0  0  0
  147.7549  132.7398  152.5118 H   0  0  0  0  0  0  0  0  0  0  0  0
  147.0129  135.5073  154.8312 H   0  0  0  0  0  0  0  0  0  0  0  0
  146.4224  133.8681  154.9384 H   0  0  0  0  0  0  0  0  0  0  0  0
  148.6248  133.4670  155.5775 H   0  0  0  0  0  0  0  0  0  0  0  0
  148.7970  133.2271  153.8551 H   0  0  0  0  0  0  0  0  0  0  0  0
  149.4820  135.6409  153.7132 H   0  0  0  0  0  0  0  0  0  0  0  0
  148.7408  140.3963  154.9744 H   0  0  0  0  0  0  0  0  0  0  0  0
  144.6345  134.6664  153.2282 H   0  0  0  0  0  0  0  0  0  0  0  0
  145.4385  136.2152  153.1472 H   0  0  0  0  0  0  0  0  0  0  0  0
  145.8697  135.9844  150.7568 H   0  0  0  0  0  0  0  0  0  0  0  0
  144.1635  135.7991  151.0592 H   0  0  0  0  0  0  0  0  0  0  0  0
  147.4415  135.0823  152.4928 H   0  0  0  0  0  0  0  0  0  0  0  0
  1  2  1  0  0  0  0
  1 19  1  0  0  0  0
  1 20  1  0  0  0  0
  1 21  1  0  0  0  0
  2 18  1  0  0  0  0
  2  3  1  0  0  0  0
  2 22  1  0  0  0  0
  3  4  1  0  0  0  0
  3 23  1  0  0  0  0
  3 24  1  0  0  0  0
  4  5  1  0  0  0  0
  4 25  1  0  0  0  0
  4 26  1  0  0  0  0
  5  6  1  0  0  0  0
  5 17  1  0  0  0  0
  5 37  1  0  0  0  0
  6  7  1  0  0  0  0
  6 27  1  0  0  0  0
  6 28  1  0  0  0  0
  7  8  1  0  0  0  0
  7 29  1  0  0  0  0
  7 30  1  0  0  0  0
  8  9  1  0  0  0  0
  8 31  1  0  0  0  0
  9 10  2  0  0  0  0
  9 11  1  0  0  0  0
 11 12  1  0  0  0  0
 12 16  1  0  0  0  0
 12 13  2  0  0  0  0
 13 14  1  0  0  0  0
 14 15  2  0  0  0  0
 15 16  1  0  0  0  0
 15 32  1  0  0  0  0
 17 18  1  0  0  0  0
 17 33  1  0  0  0  0
 17 34  1  0  0  0  0
 18 35  1  0  0  0  0
 18 36  1  0  0  0  0
M  CHG  1   5   1
M  CHG  1  11  -1
M  END
> <s_m_source_file>
AV-unprocessed.smi

> <i_m_source_file_index>
1661

> <i_lp_mmshare_version>
43012

> <i_f3d_flags>
0

> <s_epik_input>
W0NIM11bQ0hdMVtDSDJdW0NIMl1OKFtDSDJdW0NIMl0xKVtDSDJdW0NIMl1bTkhdQyg9TylbTkhdYzJubltjSF1zMg==

> <s_epik_cmdline>
J2VwaWtfcHl0aG9uJywgJy1waCcsICc3LjAnLCAnLXRuJywgJzgnLCAnLW1hJywgJzIwMCcsICctbWV0YWxfYmluZGluZycsICctaW1hZScsICc8aW5maWxlLm1hZT4nLCAnLW9tYWUnLCAnPG91dGZpbGUubWFlPic=

> <r_lp_tautomer_probability>
1

> <r_epik_Ionization_Penalty>
3.04466

> <r_epik_Ionization_Penalty_Charging>
3.01305

> <r_epik_Ionization_Penalty_Neutral>
0.0316037

> <r_epik_State_Penalty>
3.00821

> <r_epik_Charging_Adjusted_Penalty>
6.02127

> <i_epik_Tot_Q>
0

> <i_epik_Tot_abs_Q>
2

> <r_epik_Metal_State_Penalty>
0.454395

> <b_epik_Metal_Only>
1

> <s_lp_Force_Field>
OPLS_2005

> <r_lp_Energy>
9.834

> <b_lp_Chiralities_Consistent>
1

> <s_lp_Variant>
AV-unprocessed.smi:1661-4

> <Gold.Version>
5.8.1

> <Gold.Id.Protein>
6NUR|6NUR_protein|mol2

> <Gold.PLP.Fitness>
45.6751

> <Gold.PLP.PLP>
-29.3798

> <Gold.PLP.part.hbond>
-4.3748

> <Gold.PLP.part.metal>
0.0000

> <Gold.PLP.part.buried>
-4.7022

> <Gold.PLP.part.nonpolar>
-21.0683

> <Gold.PLP.part.repulsive>
0.4227

> <Gold.PLP.ligand.clash>
0.0000

> <Gold.PLP.ligand.torsion>
0.8255

> <Gold.PLP.Chemscore.Hbond>
5.9500

> <Gold.PLP.Chemscore.CHOScore>
0.0000

> <Gold.PLP.Chemscore.Metal>
0.0000

> <Gold.Chemscore.Hbonds>
donor molecule, donor type, donor heavy atom, donor atom, acceptor molecule, acceptor atom, score
      L1  H     5    37       P1  7948  2.00
      L1  H     8    31       P1  7948  1.00
      P1  H  7989  7998       L1    14  1.00
      P1  H 10752 10763       L1    11  2.00

> <Gold.PLP.Chemscore.Internal.Correction>
0.0963

> <Gold.Rescore>
     Score         DG    S(hbond)    S(metal)    S(lipo)     H(rot)  DE(clash)    DE(int)     intcor
     16.93     -17.83       3.23        0.00      50.09       1.68       0.00       0.90       ----

> <Gold.Chemscore.Fitness>
16.9317

> <Gold.Chemscore.DG>
-17.8319

> <Gold.Chemscore.ZeroCoef>
-5.4800

> <Gold.Chemscore.Hbond>
3.2295

> <Gold.Chemscore.Metal>
0.0000

> <Gold.Chemscore.Lipo>
50.0882

> <Gold.Chemscore.Internal_Hbond>
0.0000

> <Gold.Chemscore.DEClash>
0.0009

> <Gold.Chemscore.DEInternal>
0.8993

> <Gold.Chemscore.Rot>
1.6777

> <Gold.Chemscore.Internal.Correction>
   9.000000E+99

> <Gold.Chemscore.Hbonds>
donor molecule, donor type, donor heavy atom, donor atom, acceptor molecule, acceptor atom, score
      L1  H     5    37       P1  7948  0.97
      L1  H     8    31       P1  7948  0.29
      P1  H  7989  7998       L1    14  0.40
      P1  H 10752 10763       L1    11  0.62

> <Gold.Chemscore.Hbond.Weighted>
-10.7866

> <Gold.Chemscore.Metal.Weighted>
-0.0000

> <Gold.Chemscore.Lipo.Weighted>
-5.8603

> <Gold.Chemscore.Internal_Hbond.Weighted>
0.0000

> <Gold.Chemscore.DEClash.Weighted>
0.0009

> <Gold.Chemscore.DEInternal.Weighted>
0.8993

> <Gold.Chemscore.Rot.Weighted>
4.2950

> <Gold.Chemscore.Internal.Correction.Weighted>
   9.000000E+99

> <Gold.Protein.RotatedTorsions>
[ 6907 6896 6895 6894 ] final -125.64 input  -60.11 | X-H torsion
[ 7974 7965 7964 7962 ] final  115.86 input  175.53 | X-H torsion
[ 8008 7997 7996 7995 ] final  117.58 input   59.86 | X-H torsion
[ 10167 10162 10161 10158 ] final -150.91 input  -65.29 | X-H torsion
[ 10718 10713 10712 10709 ] final   74.98 input   66.30 | X-H torsion
[ 10763 10752 10751 10750 ] final   41.30 input  -60.55 | X-H torsion
[ 11005 11000 10999 10996 ] final   22.14 input  -57.11 | X-H torsion

> <Gold.Protein.ActiveResidues>
 VAL166  LYS551  ARG553  GLY616  TRP617  ASP618  TYR619  PRO620  LYS621  CYS622 
 ASP623  PHE694  ASN695  SER759  ASP760  ASP761  ALA762  ILE779  LEU786  VAL792 
 PHE793  MET794  SER795  GLU796  ALA797  LYS798  CYS799  TRP800  GLU811  SER814 

> <Gold.Protein.RotatedAtoms>
  150.8888  133.7271  159.2910 H   0  0  0  0  0  0  0  0  0  0  0  0  # atno 6907 bound_to 6896
  151.4828  135.1052  159.9792 H   0  0  0  0  0  0  0  0  0  0  0  0  # atno 6908 bound_to 6896
  152.4807  133.8200  159.7104 H   0  0  0  0  0  0  0  0  0  0  0  0  # atno 6909 bound_to 6896
  145.1868  139.3021  143.4389 H   0  0  0  0  0  0  0  0  0  0  0  0  # atno 7974 bound_to 7965
  156.2502  140.2893  156.0701 H   0  0  0  0  0  0  0  0  0  0  0  0  # atno 8008 bound_to 7997
  155.1680  140.0401  157.2874 H   0  0  0  0  0  0  0  0  0  0  0  0  # atno 8009 bound_to 7997
  154.6346  140.2507  155.7400 H   0  0  0  0  0  0  0  0  0  0  0  0  # atno 8010 bound_to 7997
  139.7313  143.8804  152.2535 H   0  0  0  0  0  0  0  0  0  0  0  0  # atno 10167 bound_to 10162
  157.6615  130.9704  150.1288 H   0  0  0  0  0  0  0  0  0  0  0  0  # atno 10718 bound_to 10713
  152.9912  135.6166  154.2765 H   0  0  0  0  0  0  0  0  0  0  0  0  # atno 10763 bound_to 10752
  154.2496  135.2786  155.2823 H   0  0  0  0  0  0  0  0  0  0  0  0  # atno 10764 bound_to 10752
  154.5300  135.5791  153.6808 H   0  0  0  0  0  0  0  0  0  0  0  0  # atno 10765 bound_to 10752
  140.3839  134.1891  155.7663 H   0  0  0  0  0  0  0  0  0  0  0  0  # atno 11005 bound_to 11000
  146.3443  140.2066  142.8589 LP  0  0  0  0  0  0  0  0  0  0  0  0  # atno 17320 bound_to 7965
  145.0081  140.8690  143.5241 LP  0  0  0  0  0  0  0  0  0  0  0  0  # atno 17321 bound_to 7965
  139.8728  144.7059  150.8967 LP  0  0  0  0  0  0  0  0  0  0  0  0  # atno 17342 bound_to 10162
  140.7771  143.3724  151.1625 LP  0  0  0  0  0  0  0  0  0  0  0  0  # atno 17343 bound_to 10162
  156.2140  130.3669  149.8636 LP  0  0  0  0  0  0  0  0  0  0  0  0  # atno 17370 bound_to 10713
  156.6507  130.8742  151.3530 LP  0  0  0  0  0  0  0  0  0  0  0  0  # atno 17371 bound_to 10713
  141.1914  133.8195  157.0880 LP  0  0  0  0  0  0  0  0  0  0  0  0  # atno 17394 bound_to 11000
  140.0458  134.9831  157.1046 LP  0  0  0  0  0  0  0  0  0  0  0  0  # atno 17395 bound_to 11000

$$$$
