#       Name:                AV-unprocessed.smi:452
#       Creating user name   scv26
#       Creation time:       Thu Mar 26 23:00:55 2020


#       File generated by GOLD software.
#

@<TRIPOS>MOLECULE
AV-unprocessed.smi:452
    49    50     1
SMALL
NO_CHARGES


@<TRIPOS>ATOM
      1 ****        -4.6882   4.9766   1.7165 C.3            1 S1                 0.0000
      2 ****        -3.2847   4.8716   1.1000 C.3            1 S1                 0.0000
      3 ****        -3.3030   5.3815  -0.3512 C.3            1 S1                 0.0000
      4 ****        -2.7460   3.4303   1.2144 C.3            1 S1                 0.0000
      5 ****        -1.2484   3.2889   0.8749 C.3            1 S1                 0.0000
      6 ****        -0.7459   1.8476   1.0092 C.2            1 S1                 0.0000
      7 ****        -1.0608   1.1791   1.9941 O.2            1 S1                 0.0000
      8 ****         0.0358   1.4074   0.0050 N.am           1 S1                 0.0000
      9 ****         0.6348   0.1294  -0.1519 C.ar           1 S1                 0.0000
     10 ****         1.3612  -0.0459  -1.3505 C.ar           1 S1                 0.0000
     11 ****         1.9882  -1.2800  -1.6070 C.ar           1 S1                 0.0000
     12 ****         1.8797  -2.3130  -0.6566 C.ar           1 S1                 0.0000
     13 ****         2.4868  -3.5529  -0.9019 N.3            1 S1                 0.0000
     14 ****         1.5228  -4.6109  -1.1762 C.3            1 S1                 0.0000
     15 ****         2.2574  -5.9077  -1.5595 C.3            1 S1                 0.0000
     16 ****         3.1753  -6.2611  -0.5284 O.3            1 S1                 0.0000
     17 ****         4.1595  -5.2520  -0.3204 C.3            1 S1                 0.0000
     18 ****         3.4718  -3.9412   0.1004 C.3            1 S1                 0.0000
     19 ****         1.1367  -2.0497   0.5156 C.ar           1 S1                 0.0000
     20 ****         0.5333  -0.8679   0.7611 N.ar           1 S1                 0.0000
     21 ****        -5.3997   4.3388   1.1907 H              1 S1                 0.0000
     22 ****        -5.0627   5.9997   1.6726 H              1 S1                 0.0000
     23 ****        -4.6830   4.6758   2.7645 H              1 S1                 0.0000
     24 ****        -2.6288   5.5252   1.6769 H              1 S1                 0.0000
     25 ****        -3.9133   4.7405  -0.9881 H              1 S1                 0.0000
     26 ****        -2.3022   5.4235  -0.7794 H              1 S1                 0.0000
     27 ****        -3.7147   6.3898  -0.4056 H              1 S1                 0.0000
     28 ****        -2.9064   3.0814   2.2358 H              1 S1                 0.0000
     29 ****        -3.3344   2.7692   0.5762 H              1 S1                 0.0000
     30 ****        -1.0574   3.6385  -0.1399 H              1 S1                 0.0000
     31 ****        -0.6561   3.9196   1.5386 H              1 S1                 0.0000
     32 ****         0.2114   2.0629  -0.7421 H              1 S1                 0.0000
     33 ****         1.4368   0.7541  -2.0727 H              1 S1                 0.0000
     34 ****         2.5424  -1.4286  -2.5223 H              1 S1                 0.0000
     35 ****         0.9034  -4.7830  -0.2948 H              1 S1                 0.0000
     36 ****         0.8572  -4.3060  -1.9847 H              1 S1                 0.0000
     37 ****         1.5422  -6.7193  -1.6933 H              1 S1                 0.0000
     38 ****         2.7865  -5.7890  -2.5065 H              1 S1                 0.0000
     39 ****         4.8492  -5.5820   0.4565 H              1 S1                 0.0000
     40 ****         4.7469  -5.1093  -1.2290 H              1 S1                 0.0000
     41 ****         4.2136  -3.1502   0.2159 H              1 S1                 0.0000
     42 ****         2.9877  -4.0757   1.0684 H              1 S1                 0.0000
     43 ****         1.0131  -2.8071   1.2757 H              1 S1                 0.0000
     44 ****        -1.6427   1.5771   2.7032 LP             1 S1                 0.0000
     45 ****        -0.7345   0.2382   2.0848 LP             1 S1                 0.0000
     46 ****         3.0097  -3.4180  -1.7436 LP             1 S1                 0.0000
     47 ****         3.6345  -7.1122  -0.7828 LP             1 S1                 0.0000
     48 ****         2.6681  -6.3975   0.3225 LP             1 S1                 0.0000
     49 ****         0.0174  -0.7293   1.6064 LP             1 S1                 0.0000
@<TRIPOS>BOND
    1    1    2 1     
    2    1   21 1     
    3    1   22 1     
    4    1   23 1     
    5    2    3 1     
    6    2    4 1     
    7    2   24 1     
    8    3   25 1     
    9    3   26 1     
   10    3   27 1     
   11    4    5 1     
   12    4   28 1     
   13    4   29 1     
   14    5    6 1     
   15    5   30 1     
   16    5   31 1     
   17    6    7 2     
   18    6    8 am    
   19    8    9 1     
   20    8   32 1     
   21    9   20 ar    
   22    9   10 ar    
   23   10   11 ar    
   24   10   33 1     
   25   11   12 ar    
   26   11   34 1     
   27   12   13 1     
   28   12   19 ar    
   29   13   18 1     
   30   13   14 1     
   31   14   15 1     
   32   14   35 1     
   33   14   36 1     
   34   15   16 1     
   35   15   37 1     
   36   15   38 1     
   37   16   17 1     
   38   17   18 1     
   39   17   39 1     
   40   17   40 1     
   41   18   41 1     
   42   18   42 1     
   43   19   20 ar    
   44   19   43 1     
   45    7   44 1     
   46    7   45 1     
   47   13   46 1     
   48   16   47 1     
   49   16   48 1     
   50   20   49 1     
@<TRIPOS>SUBSTRUCTURE
      1 S1             1
@<TRIPOS>SET
LONE_PAIRS      STATIC     ATOMS    <user>   **** ""
6 44 45 46 47 48 49
DONOR_HYDROGENS      STATIC     ATOMS    <user>   **** ""
1 32
ATOM$BLUE        STATIC     ATOMS    COLORGROUP SYSTEM
6 44 45 46 47 48 49
ATOM$RED        STATIC     ATOMS    COLORGROUP SYSTEM
1 32
