AV-unprocessed.smi:3228|AV-procd|sdf|12323|dock10
  -GOLD-   2272018173D 1   1.00000     0.00000
 Structure written by MMmdl.
 30 31  0  0  0  0  0  0  0  0  2 V2000
  149.9925  136.0997  158.5713 O   0  0  0  0  0  0  0  0  0  0  0  0
  149.2840  137.1046  158.4784 C   0  0  0  0  0  0  0  0  0  0  0  0
  149.4184  137.9198  157.4240 N   0  0  0  0  0  0  0  0  0  0  0  0
  150.3583  137.7269  156.3263 C   0  0  0  0  0  0  0  0  0  0  0  0
  150.5061  139.0127  155.4939 C   0  0  2  0  0  0  0  0  0  0  0  0
  150.8798  140.2539  156.3213 C   0  0  0  0  0  0  0  0  0  0  0  0
  150.2778  141.4643  155.5896 C   0  0  0  0  0  0  0  0  0  0  0  0
  149.4700  140.9009  154.4147 C   0  0  0  0  0  0  0  0  0  0  0  0
  149.2224  139.4349  154.7722 C   0  0  1  0  0  0  0  0  0  0  0  0
  148.9732  138.6583  153.6186 O   0  0  0  0  0  0  0  0  0  0  0  0
  148.3370  137.5033  159.3581 N   0  5  0  0  0  0  0  0  0  0  0  0
  148.0521  136.7444  160.4289 C   0  0  0  0  0  0  0  0  0  0  0  0
  147.7217  137.2574  161.6198 N   0  0  0  0  0  0  0  0  0  0  0  0
  147.4584  136.2873  162.5885 C   0  0  0  0  0  0  0  0  0  0  0  0
  147.5820  135.0054  162.1219 C   0  0  0  0  0  0  0  0  0  0  0  0
  148.0359  134.9784  160.4416 S   0  0  0  0  0  0  0  0  0  0  0  0
  148.8217  138.7327  157.3825 H   0  0  0  0  0  0  0  0  0  0  0  0
  151.3265  137.4342  156.7352 H   0  0  0  0  0  0  0  0  0  0  0  0
  150.0165  136.9057  155.6940 H   0  0  0  0  0  0  0  0  0  0  0  0
  151.2869  138.8631  154.7453 H   0  0  0  0  0  0  0  0  0  0  0  0
  150.4479  140.1871  157.3210 H   0  0  0  0  0  0  0  0  0  0  0  0
  151.9599  140.3452  156.4426 H   0  0  0  0  0  0  0  0  0  0  0  0
  149.6292  142.0222  156.2658 H   0  0  0  0  0  0  0  0  0  0  0  0
  151.0504  142.1499  155.2401 H   0  0  0  0  0  0  0  0  0  0  0  0
  148.5447  141.4506  154.2390 H   0  0  0  0  0  0  0  0  0  0  0  0
  150.0707  140.9673  153.5062 H   0  0  0  0  0  0  0  0  0  0  0  0
  148.3694  139.3623  155.4490 H   0  0  0  0  0  0  0  0  0  0  0  0
  148.9889  139.2280  152.8649 H   0  0  0  0  0  0  0  0  0  0  0  0
  147.1884  136.5997  163.5862 H   0  0  0  0  0  0  0  0  0  0  0  0
  147.4335  134.0811  162.6590 H   0  0  0  0  0  0  0  0  0  0  0  0
  1  2  2  0  0  0  0
  2  3  1  0  0  0  0
  2 11  1  0  0  0  0
  3  4  1  0  0  0  0
  3 17  1  0  0  0  0
  4  5  1  0  0  0  0
  4 18  1  0  0  0  0
  4 19  1  0  0  0  0
  5  9  1  0  0  0  0
  5  6  1  0  0  0  0
  5 20  1  0  0  0  0
  6  7  1  0  0  0  0
  6 21  1  0  0  0  0
  6 22  1  0  0  0  0
  7  8  1  0  0  0  0
  7 23  1  0  0  0  0
  7 24  1  0  0  0  0
  8  9  1  0  0  0  0
  8 25  1  0  0  0  0
  8 26  1  0  0  0  0
  9 10  1  0  0  0  0
  9 27  1  0  0  0  0
 10 28  1  0  0  0  0
 11 12  1  0  0  0  0
 12 16  1  0  0  0  0
 12 13  2  0  0  0  0
 13 14  1  0  0  0  0
 14 15  2  0  0  0  0
 14 29  1  0  0  0  0
 15 16  1  0  0  0  0
 15 30  1  0  0  0  0
M  CHG  1  11  -1
M  END
> <s_m_source_file>
AV-unprocessed.smi

> <i_m_source_file_index>
3228

> <i_lp_mmshare_version>
43012

> <i_f3d_flags>
0

> <s_epik_input>
czFbY0hdW2NIXW5jMVtOSF1DKD1PKVtOSF1bQ0gyXVtDQEBIXTJbQ0gyXVtDSDJdW0NIMl1bQ0BIXTJbT0hd

> <s_epik_cmdline>
J2VwaWtfcHl0aG9uJywgJy1waCcsICc3LjAnLCAnLXRuJywgJzgnLCAnLW1hJywgJzIwMCcsICctbWV0YWxfYmluZGluZycsICctaW1hZScsICc8aW5maWxlLm1hZT4nLCAnLW9tYWUnLCAnPG91dGZpbGUubWFlPic=

> <r_lp_tautomer_probability>
0.999

> <r_epik_Ionization_Penalty>
8.49756

> <r_epik_Ionization_Penalty_Charging>
6.79645

> <r_epik_Ionization_Penalty_Neutral>
1.70111

> <r_epik_State_Penalty>
6.79662

> <r_epik_Charging_Adjusted_Penalty>
13.5931

> <i_epik_Tot_Q>
-1

> <i_epik_Tot_abs_Q>
1

> <r_epik_Metal_State_Penalty>
2.71629

> <b_epik_Metal_Only>
1

> <s_lp_Force_Field>
OPLS_2005

> <r_lp_Energy>
18.1026

> <b_lp_Chiralities_Consistent>
1

> <s_lp_Variant>
AV-unprocessed.smi:3228-5

> <Gold.Version>
5.8.1

> <Gold.Id.Protein>
6NUR|6NUR_protein|mol2

> <Gold.PLP.Fitness>
40.4998

> <Gold.PLP.PLP>
-29.9275

> <Gold.PLP.part.hbond>
-5.5355

> <Gold.PLP.part.metal>
0.0000

> <Gold.PLP.part.buried>
-2.6205

> <Gold.PLP.part.nonpolar>
-21.3373

> <Gold.PLP.part.repulsive>
0.0289

> <Gold.PLP.ligand.clash>
0.0000

> <Gold.PLP.ligand.torsion>
0.3689

> <Gold.PLP.Chemscore.Hbond>
3.7672

> <Gold.PLP.Chemscore.CHOScore>
0.0000

> <Gold.PLP.Chemscore.Metal>
0.0000

> <Gold.Chemscore.Hbonds>
donor molecule, donor type, donor heavy atom, donor atom, acceptor molecule, acceptor atom, score
      L1  H    10    28       P1  7957  1.00
      P1  H  6896  6909       L1     1  1.00
      P1  H  6931  6943       L1    13  0.99
      P1  H  6934  6947       L1    13  0.56

> <Gold.PLP.Chemscore.Internal.Correction>
0.0085

> <Gold.Rescore>
     Score         DG    S(hbond)    S(metal)    S(lipo)     H(rot)  DE(clash)    DE(int)     intcor
     15.04     -16.70       2.64        0.00      60.98       1.85       0.06       1.61       ----

> <Gold.Chemscore.Fitness>
15.0397

> <Gold.Chemscore.DG>
-16.7028

> <Gold.Chemscore.ZeroCoef>
-5.4800

> <Gold.Chemscore.Hbond>
2.6407

> <Gold.Chemscore.Metal>
0.0000

> <Gold.Chemscore.Lipo>
60.9766

> <Gold.Chemscore.Internal_Hbond>
0.0000

> <Gold.Chemscore.DEClash>
0.0580

> <Gold.Chemscore.DEInternal>
1.6052

> <Gold.Chemscore.Rot>
1.8481

> <Gold.Chemscore.Internal.Correction>
   9.000000E+99

> <Gold.Chemscore.Hbonds>
donor molecule, donor type, donor heavy atom, donor atom, acceptor molecule, acceptor atom, score
      L1  H    10    28       P1  7957  0.97
      P1  H  6896  6909       L1     1  0.98
      P1  H  6931  6943       L1    13  0.26
      P1  H  6934  6947       L1    13  0.08

> <Gold.Chemscore.Hbond.Weighted>
-8.8198

> <Gold.Chemscore.Metal.Weighted>
-0.0000

> <Gold.Chemscore.Lipo.Weighted>
-7.1343

> <Gold.Chemscore.Internal_Hbond.Weighted>
0.0000

> <Gold.Chemscore.DEClash.Weighted>
0.0580

> <Gold.Chemscore.DEInternal.Weighted>
1.6052

> <Gold.Chemscore.Rot.Weighted>
4.7313

> <Gold.Chemscore.Internal.Correction.Weighted>
   9.000000E+99

> <Gold.Protein.RotatedTorsions>
[ 6907 6896 6895 6894 ] final   59.69 input  -60.11 | X-H torsion
[ 7974 7965 7964 7962 ] final -102.84 input  175.53 | X-H torsion
[ 8008 7997 7996 7995 ] final   86.40 input   59.86 | X-H torsion
[ 10167 10162 10161 10158 ] final -146.01 input  -65.29 | X-H torsion
[ 10718 10713 10712 10709 ] final  -80.22 input   66.30 | X-H torsion
[ 10763 10752 10751 10750 ] final -129.88 input  -60.55 | X-H torsion
[ 11005 11000 10999 10996 ] final  -40.82 input  -57.11 | X-H torsion

> <Gold.Protein.ActiveResidues>
 VAL166  LYS551  ARG553  GLY616  TRP617  ASP618  TYR619  PRO620  LYS621  CYS622 
 ASP623  PHE694  ASN695  SER759  ASP760  ASP761  ALA762  ILE779  LEU786  VAL792 
 PHE793  MET794  SER795  GLU796  ALA797  LYS798  CYS799  TRP800  GLU811  SER814 

> <Gold.Protein.RotatedAtoms>
  152.3937  134.6400  160.0097 H   0  0  0  0  0  0  0  0  0  0  0  0  # atno 6907 bound_to 6896
  151.6626  133.3311  159.3185 H   0  0  0  0  0  0  0  0  0  0  0  0  # atno 6908 bound_to 6896
  150.7848  134.6867  159.6519 H   0  0  0  0  0  0  0  0  0  0  0  0  # atno 6909 bound_to 6896
  145.2635  140.9277  143.3027 H   0  0  0  0  0  0  0  0  0  0  0  0  # atno 7974 bound_to 7965
  155.9623  140.3392  155.6501 H   0  0  0  0  0  0  0  0  0  0  0  0  # atno 8008 bound_to 7997
  155.6782  140.0735  157.2513 H   0  0  0  0  0  0  0  0  0  0  0  0  # atno 8009 bound_to 7997
  154.4146  140.1679  156.1941 H   0  0  0  0  0  0  0  0  0  0  0  0  # atno 8010 bound_to 7997
  139.7753  143.8179  152.2631 H   0  0  0  0  0  0  0  0  0  0  0  0  # atno 10167 bound_to 10162
  156.0075  130.4568  150.3767 H   0  0  0  0  0  0  0  0  0  0  0  0  # atno 10718 bound_to 10713
  154.8757  135.3881  154.3992 H   0  0  0  0  0  0  0  0  0  0  0  0  # atno 10763 bound_to 10752
  153.4719  135.7030  153.5994 H   0  0  0  0  0  0  0  0  0  0  0  0  # atno 10764 bound_to 10752
  153.4447  135.3848  155.2217 H   0  0  0  0  0  0  0  0  0  0  0  0  # atno 10765 bound_to 10752
  141.0202  133.6866  156.2373 H   0  0  0  0  0  0  0  0  0  0  0  0  # atno 11005 bound_to 11000
  144.9397  139.4203  143.6455 LP  0  0  0  0  0  0  0  0  0  0  0  0  # atno 17320 bound_to 7965
  146.3268  139.8351  142.8901 LP  0  0  0  0  0  0  0  0  0  0  0  0  # atno 17321 bound_to 7965
  139.8226  144.7289  150.9553 LP  0  0  0  0  0  0  0  0  0  0  0  0  # atno 17342 bound_to 10162
  140.7816  143.4145  151.0939 LP  0  0  0  0  0  0  0  0  0  0  0  0  # atno 17343 bound_to 10162
  157.1849  131.0401  151.2730 LP  0  0  0  0  0  0  0  0  0  0  0  0  # atno 17370 bound_to 10713
  157.4113  130.7386  149.6841 LP  0  0  0  0  0  0  0  0  0  0  0  0  # atno 17371 bound_to 10713
  140.6586  134.4992  157.5582 LP  0  0  0  0  0  0  0  0  0  0  0  0  # atno 17394 bound_to 11000
  139.9141  134.8282  156.1425 LP  0  0  0  0  0  0  0  0  0  0  0  0  # atno 17395 bound_to 11000

$$$$
