AV-unprocessed.smi:1412|AV-procd|sdf|5742|dock5
  -GOLD-   22720 5373D 1   1.00000     0.00000
 Structure written by MMmdl.
 42 43  0  0  0  0  0  0  0  0  2 V2000
  147.9395  140.9400  154.4798 C   0  0  0  0  0  0  0  0  0  0  0  0
  147.5805  139.8287  153.4771 C   0  0  0  0  0  0  0  0  0  0  0  0
  147.4194  138.4001  154.0820 C   0  0  1  0  0  0  0  0  0  0  0  0
  146.7939  138.5659  155.4926 C   0  0  0  0  0  0  0  0  0  0  0  0
  146.4486  137.5532  153.2003 C   0  0  0  0  0  0  0  0  0  0  0  0
  145.0536  137.9886  153.2749 N   0  0  0  0  0  0  0  0  0  0  0  0
  144.0066  137.2018  153.5650 C   0  0  0  0  0  0  0  0  0  0  0  0
  144.1087  135.9980  153.8014 O   0  0  0  0  0  0  0  0  0  0  0  0
  142.8558  137.8971  153.5521 N   0  0  0  0  0  0  0  0  0  0  0  0
  141.5372  137.4191  153.7755 C   0  0  0  0  0  0  0  0  0  0  0  0
  141.2554  136.3183  154.4901 N   0  0  0  0  0  0  0  0  0  0  0  0
  139.8897  136.0727  154.5497 N   0  0  0  0  0  0  0  0  0  0  0  0
  139.1961  136.9961  153.8782 C   0  0  0  0  0  0  0  0  0  0  0  0
  140.1436  138.2567  153.1076 S   0  0  0  0  0  0  0  0  0  0  0  0
  148.7685  137.7317  154.1792 N   0  3  0  0  0  0  0  0  0  0  0  0
  149.9229  138.6216  154.4906 C   0  0  0  0  0  0  0  0  0  0  0  0
  151.2480  137.8499  154.3646 C   0  0  0  0  0  0  0  0  0  0  0  0
  151.2319  136.7166  155.2210 O   0  0  0  0  0  0  0  0  0  0  0  0
  150.1899  135.8140  154.8782 C   0  0  0  0  0  0  0  0  0  0  0  0
  148.8323  136.5158  155.0401 C   0  0  0  0  0  0  0  0  0  0  0  0
  148.0131  141.9008  153.9697 H   0  0  0  0  0  0  0  0  0  0  0  0
  148.8988  140.7574  154.9636 H   0  0  0  0  0  0  0  0  0  0  0  0
  147.1834  141.0453  155.2572 H   0  0  0  0  0  0  0  0  0  0  0  0
  146.6531  140.1248  152.9861 H   0  0  0  0  0  0  0  0  0  0  0  0
  148.3201  139.8229  152.6768 H   0  0  0  0  0  0  0  0  0  0  0  0
  145.9372  139.2405  155.4780 H   0  0  0  0  0  0  0  0  0  0  0  0
  147.5085  138.9722  156.2084 H   0  0  0  0  0  0  0  0  0  0  0  0
  146.4291  137.6198  155.8933 H   0  0  0  0  0  0  0  0  0  0  0  0
  146.7678  137.5472  152.1581 H   0  0  0  0  0  0  0  0  0  0  0  0
  146.4619  136.5109  153.5177 H   0  0  0  0  0  0  0  0  0  0  0  0
  144.8749  138.9661  153.0952 H   0  0  0  0  0  0  0  0  0  0  0  0
  142.9286  138.8826  153.3475 H   0  0  0  0  0  0  0  0  0  0  0  0
  138.1187  136.9338  153.8361 H   0  0  0  0  0  0  0  0  0  0  0  0
  149.9728  139.4691  153.8096 H   0  0  0  0  0  0  0  0  0  0  0  0
  149.8286  139.0228  155.4999 H   0  0  0  0  0  0  0  0  0  0  0  0
  151.4199  137.5382  153.3329 H   0  0  0  0  0  0  0  0  0  0  0  0
  152.0837  138.4910  154.6456 H   0  0  0  0  0  0  0  0  0  0  0  0
  150.3229  135.4491  153.8584 H   0  0  0  0  0  0  0  0  0  0  0  0
  150.2453  134.9470  155.5367 H   0  0  0  0  0  0  0  0  0  0  0  0
  148.6970  136.7831  156.0881 H   0  0  0  0  0  0  0  0  0  0  0  0
  148.0502  135.8029  154.7873 H   0  0  0  0  0  0  0  0  0  0  0  0
  148.9462  137.3978  153.2425 H   0  0  0  0  0  0  0  0  0  0  0  0
  1  2  1  0  0  0  0
  1 21  1  0  0  0  0
  1 22  1  0  0  0  0
  1 23  1  0  0  0  0
  2  3  1  0  0  0  0
  2 24  1  0  0  0  0
  2 25  1  0  0  0  0
  3  4  1  0  0  0  0
  3  5  1  0  0  0  0
  3 15  1  0  0  0  0
  4 26  1  0  0  0  0
  4 27  1  0  0  0  0
  4 28  1  0  0  0  0
  5  6  1  0  0  0  0
  5 29  1  0  0  0  0
  5 30  1  0  0  0  0
  6  7  1  0  0  0  0
  6 31  1  0  0  0  0
  7  8  2  0  0  0  0
  7  9  1  0  0  0  0
  9 10  1  0  0  0  0
  9 32  1  0  0  0  0
 10 14  1  0  0  0  0
 10 11  2  0  0  0  0
 11 12  1  0  0  0  0
 12 13  2  0  0  0  0
 13 14  1  0  0  0  0
 13 33  1  0  0  0  0
 15 20  1  0  0  0  0
 15 16  1  0  0  0  0
 15 42  1  0  0  0  0
 16 17  1  0  0  0  0
 16 34  1  0  0  0  0
 16 35  1  0  0  0  0
 17 18  1  0  0  0  0
 17 36  1  0  0  0  0
 17 37  1  0  0  0  0
 18 19  1  0  0  0  0
 19 20  1  0  0  0  0
 19 38  1  0  0  0  0
 19 39  1  0  0  0  0
 20 40  1  0  0  0  0
 20 41  1  0  0  0  0
M  CHG  1  15   1
M  END
> <s_m_source_file>
AV-unprocessed.smi

> <i_m_source_file_index>
1412

> <i_lp_mmshare_version>
43012

> <i_f3d_flags>
0

> <s_epik_input>
W0NIMl0xW0NIMl1PW0NIMl1bQ0gyXU4xW0NAQF0oW0NIM10pKFtDSDJdW0NIM10pW0NIMl1bTkhdQyg9TylbTkhdYzJubltjSF1zMg==

> <s_epik_cmdline>
J2VwaWtfcHl0aG9uJywgJy1waCcsICc3LjAnLCAnLXRuJywgJzgnLCAnLW1hJywgJzIwMCcsICctbWV0YWxfYmluZGluZycsICctaW1hZScsICc8aW5maWxlLm1hZT4nLCAnLW9tYWUnLCAnPG91dGZpbGUubWFlPic=

> <r_lp_tautomer_probability>
1

> <r_epik_Ionization_Penalty>
0.554649

> <r_epik_Ionization_Penalty_Charging>
0.553838

> <r_epik_Ionization_Penalty_Neutral>
0.000811527

> <r_epik_State_Penalty>
0.564424

> <r_epik_Charging_Adjusted_Penalty>
1.11826

> <i_epik_Tot_Q>
1

> <i_epik_Tot_abs_Q>
1

> <r_epik_Metal_State_Penalty>
0.786249

> <b_epik_Metal_Only>
0

> <s_lp_Force_Field>
OPLS_2005

> <r_lp_Energy>
27.1522

> <b_lp_Chiralities_Consistent>
1

> <s_lp_Variant>
AV-unprocessed.smi:1412-3

> <Gold.Version>
5.8.1

> <Gold.Id.Protein>
6NUR|6NUR_protein|mol2

> <Gold.PLP.Fitness>
42.8092

> <Gold.PLP.PLP>
-27.3915

> <Gold.PLP.part.hbond>
-5.3621

> <Gold.PLP.part.metal>
0.0000

> <Gold.PLP.part.buried>
-1.7139

> <Gold.PLP.part.nonpolar>
-20.3716

> <Gold.PLP.part.repulsive>
0.2812

> <Gold.PLP.ligand.clash>
0.0000

> <Gold.PLP.ligand.torsion>
1.2233

> <Gold.PLP.Chemscore.Hbond>
5.9103

> <Gold.PLP.Chemscore.CHOScore>
0.0000

> <Gold.PLP.Chemscore.Metal>
0.0000

> <Gold.Chemscore.Hbonds>
donor molecule, donor type, donor heavy atom, donor atom, acceptor molecule, acceptor atom, score
      L1  H     6    31       P1 10175  1.00
      L1  H     9    32       P1 10175  1.00
      L1  H    15    42       P1  7948  2.00
      P1  H 10752 10763       L1    18  0.75
      P1  H 11000 11005       L1    12  0.89

> <Gold.PLP.Chemscore.Internal.Correction>
0.1337

> <Gold.Rescore>
     Score         DG    S(hbond)    S(metal)    S(lipo)     H(rot)  DE(clash)    DE(int)     intcor
     17.14     -19.67       3.65        0.00      59.10       1.91       0.11       2.42       ----

> <Gold.Chemscore.Fitness>
17.1427

> <Gold.Chemscore.DG>
-19.6717

> <Gold.Chemscore.ZeroCoef>
-5.4800

> <Gold.Chemscore.Hbond>
3.6458

> <Gold.Chemscore.Metal>
0.0000

> <Gold.Chemscore.Lipo>
59.0986

> <Gold.Chemscore.Internal_Hbond>
0.0000

> <Gold.Chemscore.DEClash>
0.1069

> <Gold.Chemscore.DEInternal>
2.4222

> <Gold.Chemscore.Rot>
1.9140

> <Gold.Chemscore.Internal.Correction>
   9.000000E+99

> <Gold.Chemscore.Hbonds>
donor molecule, donor type, donor heavy atom, donor atom, acceptor molecule, acceptor atom, score
      L1  H     6    31       P1 10175  0.90
      L1  H     9    32       P1 10175  0.98
      L1  H    15    42       P1  7948  0.99
      P1  H 10752 10763       L1    18  0.11
      P1  H 11000 11005       L1    12  0.16

> <Gold.Chemscore.Hbond.Weighted>
-12.1770

> <Gold.Chemscore.Metal.Weighted>
-0.0000

> <Gold.Chemscore.Lipo.Weighted>
-6.9145

> <Gold.Chemscore.Internal_Hbond.Weighted>
0.0000

> <Gold.Chemscore.DEClash.Weighted>
0.1069

> <Gold.Chemscore.DEInternal.Weighted>
2.4222

> <Gold.Chemscore.Rot.Weighted>
4.8998

> <Gold.Chemscore.Internal.Correction.Weighted>
   9.000000E+99

> <Gold.Protein.RotatedTorsions>
[ 6907 6896 6895 6894 ] final -118.92 input  -60.11 | X-H torsion
[ 7974 7965 7964 7962 ] final   -7.52 input  175.53 | X-H torsion
[ 8008 7997 7996 7995 ] final -113.00 input   59.86 | X-H torsion
[ 10167 10162 10161 10158 ] final   32.32 input  -65.29 | X-H torsion
[ 10718 10713 10712 10709 ] final -105.94 input   66.30 | X-H torsion
[ 10763 10752 10751 10750 ] final   63.06 input  -60.55 | X-H torsion
[ 11005 11000 10999 10996 ] final   82.21 input  -57.11 | X-H torsion

> <Gold.Protein.ActiveResidues>
 VAL166  LYS551  ARG553  GLY616  TRP617  ASP618  TYR619  PRO620  LYS621  CYS622 
 ASP623  PHE694  ASN695  SER759  ASP760  ASP761  ALA762  ILE779  LEU786  VAL792 
 PHE793  MET794  SER795  GLU796  ALA797  LYS798  CYS799  TRP800  GLU811  SER814 

> <Gold.Protein.RotatedAtoms>
  150.8261  133.8170  159.3118 H   0  0  0  0  0  0  0  0  0  0  0  0  # atno 6907 bound_to 6896
  151.5914  135.1051  160.0049 H   0  0  0  0  0  0  0  0  0  0  0  0  # atno 6908 bound_to 6896
  152.4345  133.7296  159.6636 H   0  0  0  0  0  0  0  0  0  0  0  0  # atno 6909 bound_to 6896
  146.2304  140.2332  142.8341 H   0  0  0  0  0  0  0  0  0  0  0  0  # atno 7974 bound_to 7965
  155.0139  140.0393  157.2410 H   0  0  0  0  0  0  0  0  0  0  0  0  # atno 8008 bound_to 7997
  154.7436  140.2753  155.6328 H   0  0  0  0  0  0  0  0  0  0  0  0  # atno 8009 bound_to 7997
  156.2870  140.2660  156.2171 H   0  0  0  0  0  0  0  0  0  0  0  0  # atno 8010 bound_to 7997
  140.4509  144.1049  150.6191 H   0  0  0  0  0  0  0  0  0  0  0  0  # atno 10167 bound_to 10162
  156.0368  130.5588  150.7610 H   0  0  0  0  0  0  0  0  0  0  0  0  # atno 10718 bound_to 10713
  153.0004  135.5442  154.6292 H   0  0  0  0  0  0  0  0  0  0  0  0  # atno 10763 bound_to 10752
  154.5574  135.2831  155.0954 H   0  0  0  0  0  0  0  0  0  0  0  0  # atno 10764 bound_to 10752
  154.2170  135.6457  153.5185 H   0  0  0  0  0  0  0  0  0  0  0  0  # atno 10765 bound_to 10752
  139.9071  134.8054  156.2144 H   0  0  0  0  0  0  0  0  0  0  0  0  # atno 11005 bound_to 11000
  144.9542  140.8209  143.5553 LP  0  0  0  0  0  0  0  0  0  0  0  0  # atno 17320 bound_to 7965
  145.2295  139.2121  143.5050 LP  0  0  0  0  0  0  0  0  0  0  0  0  # atno 17321 bound_to 7965
  140.4208  143.2612  151.9718 LP  0  0  0  0  0  0  0  0  0  0  0  0  # atno 17342 bound_to 10162
  139.4796  144.5832  151.7897 LP  0  0  0  0  0  0  0  0  0  0  0  0  # atno 17343 bound_to 10162
  157.5130  131.0926  151.0175 LP  0  0  0  0  0  0  0  0  0  0  0  0  # atno 17370 bound_to 10713
  157.0525  130.5793  149.5372 LP  0  0  0  0  0  0  0  0  0  0  0  0  # atno 17371 bound_to 10713
  141.0445  133.6920  156.1658 LP  0  0  0  0  0  0  0  0  0  0  0  0  # atno 17394 bound_to 11000
  140.6905  134.4671  157.5588 LP  0  0  0  0  0  0  0  0  0  0  0  0  # atno 17395 bound_to 11000

$$$$
