#       Name:                AV-unprocessed.smi:2026
#       Creating user name   scv26
#       Creation time:       Fri Mar 27 10:46:04 2020


#       File generated by GOLD software.
#

@<TRIPOS>MOLECULE
AV-unprocessed.smi:2026
    53    55     1
SMALL
NO_CHARGES


@<TRIPOS>ATOM
      1 ****        -4.8491   4.1583   2.3388 C.3            1 S1                 0.0000
      2 ****        -4.0137   3.1616   1.5545 C.ar           1 S1                 0.0000
      3 ****        -3.4786   3.5455   0.3042 C.ar           1 S1                 0.0000
      4 ****        -2.6968   2.6482  -0.4561 C.ar           1 S1                 0.0000
      5 ****        -2.0833   2.8113  -1.6864 N.2            1 S1                 0.0000
      6 ****        -1.5087   1.6241  -1.8581 C.2            1 S1                 0.0000
      7 ****        -1.6782   0.7099  -0.8837 N.pl3          1 S1                 0.0000
      8 ****        -1.1504  -0.6427  -0.8563 C.3            1 S1                 0.0000
      9 ****         0.3434  -0.6895  -0.4804 C.3            1 S1                 0.0000
     10 ****         0.5077  -0.1084   0.7992 O.3            1 S1                 0.0000
     11 ****         0.8712  -2.1385  -0.4394 C.3            1 S1                 0.0000
     12 ****         2.3314  -2.1942  -0.5602 N.am           1 S1                 0.0000
     13 ****         3.1762  -2.2849   0.4821 C.2            1 S1                 0.0000
     14 ****         2.8685  -2.3495   1.6713 O.2            1 S1                 0.0000
     15 ****         4.4291  -2.2931   0.0080 N.am           1 S1                 0.0000
     16 ****         4.4866  -2.2020  -1.4386 C.3            1 S1                 0.0000
     17 ****         5.2068  -0.9151  -1.8788 C.3            1 S1                 0.0000
     18 ****         5.1253  -3.4650  -2.0441 C.3            1 S1                 0.0000
     19 ****         2.9941  -2.1354  -1.7230 C.2            1 S1                 0.0000
     20 ****         2.5100  -2.0373  -2.8510 O.2            1 S1                 0.0000
     21 ****        -2.4636   1.3448   0.0727 C.ar           1 S1                 0.0000
     22 ****        -2.9904   0.9514   1.3158 C.ar           1 S1                 0.0000
     23 ****        -3.7692   1.8603   2.0622 C.ar           1 S1                 0.0000
     24 ****        -4.3328   1.4254   3.4036 C.3            1 S1                 0.0000
     25 ****        -4.9103   5.1186   1.8261 H              1 S1                 0.0000
     26 ****        -4.4136   4.3323   3.3228 H              1 S1                 0.0000
     27 ****        -5.8645   3.7838   2.4704 H              1 S1                 0.0000
     28 ****        -3.6644   4.5364  -0.0831 H              1 S1                 0.0000
     29 ****        -0.9288   1.4051  -2.7430 H              1 S1                 0.0000
     30 ****        -1.7404  -1.2366  -0.1570 H              1 S1                 0.0000
     31 ****        -1.3025  -1.0838  -1.8424 H              1 S1                 0.0000
     32 ****         0.9073  -0.1017  -1.2061 H              1 S1                 0.0000
     33 ****         0.0147  -0.6146   1.4267 H              1 S1                 0.0000
     34 ****         0.5277  -2.6526   0.4603 H              1 S1                 0.0000
     35 ****         0.4447  -2.7038  -1.2700 H              1 S1                 0.0000
     36 ****         5.2553  -2.3511   0.5858 H              1 S1                 0.0000
     37 ****         5.2313  -0.8280  -2.9657 H              1 S1                 0.0000
     38 ****         6.2383  -0.9030  -1.5253 H              1 S1                 0.0000
     39 ****         4.7155  -0.0229  -1.4872 H              1 S1                 0.0000
     40 ****         5.1620  -3.4063  -3.1325 H              1 S1                 0.0000
     41 ****         4.5685  -4.3658  -1.7814 H              1 S1                 0.0000
     42 ****         6.1474  -3.5965  -1.6878 H              1 S1                 0.0000
     43 ****        -2.7949  -0.0414   1.6928 H              1 S1                 0.0000
     44 ****        -4.0812   0.3875   3.6232 H              1 S1                 0.0000
     45 ****        -5.4194   1.5139   3.4103 H              1 S1                 0.0000
     46 ****        -3.9293   2.0448   4.2049 H              1 S1                 0.0000
     47 ****        -2.0745   3.6106  -2.2872 LP             1 S1                 0.0000
     48 ****         0.1710   0.8331   0.7872 LP             1 S1                 0.0000
     49 ****         1.4760  -0.1129   1.0493 LP             1 S1                 0.0000
     50 ****         1.9054  -2.3368   1.9400 LP             1 S1                 0.0000
     51 ****         3.5815  -2.4147   2.3695 LP             1 S1                 0.0000
     52 ****         1.5178  -1.9929  -2.9671 LP             1 S1                 0.0000
     53 ****         3.1091  -2.0021  -3.6508 LP             1 S1                 0.0000
@<TRIPOS>BOND
    1    1    2 1     
    2    1   25 1     
    3    1   26 1     
    4    1   27 1     
    5    2   23 ar    
    6    2    3 ar    
    7    3    4 ar    
    8    3   28 1     
    9    4   21 ar    
   10    4    5 1     
   11    5    6 2     
   12    6    7 1     
   13    6   29 1     
   14    7    8 1     
   15    7   21 1     
   16    8    9 1     
   17    8   30 1     
   18    8   31 1     
   19    9   10 1     
   20    9   11 1     
   21    9   32 1     
   22   10   33 1     
   23   11   12 1     
   24   11   34 1     
   25   11   35 1     
   26   12   19 am    
   27   12   13 am    
   28   13   14 2     
   29   13   15 am    
   30   15   16 1     
   31   15   36 1     
   32   16   17 1     
   33   16   18 1     
   34   16   19 1     
   35   17   37 1     
   36   17   38 1     
   37   17   39 1     
   38   18   40 1     
   39   18   41 1     
   40   18   42 1     
   41   19   20 2     
   42   21   22 ar    
   43   22   23 ar    
   44   22   43 1     
   45   23   24 1     
   46   24   44 1     
   47   24   45 1     
   48   24   46 1     
   49    5   47 1     
   50   10   48 1     
   51   10   49 1     
   52   14   50 1     
   53   14   51 1     
   54   20   52 1     
   55   20   53 1     
@<TRIPOS>SUBSTRUCTURE
      1 S1             1
@<TRIPOS>SET
LONE_PAIRS      STATIC     ATOMS    <user>   **** ""
7 47 48 49 50 51 52 53
DONOR_HYDROGENS      STATIC     ATOMS    <user>   **** ""
2 33 36
ATOM$BLUE        STATIC     ATOMS    COLORGROUP SYSTEM
7 47 48 49 50 51 52 53
ATOM$RED        STATIC     ATOMS    COLORGROUP SYSTEM
2 33 36
