AV-unprocessed.smi:3117|AV-procd|sdf|11885|dock2
  -GOLD-   2272017273D 1   1.00000     0.00000
 Structure written by MMmdl.
 36 36  0  0  0  0  0  0  0  0  1 V2000
  152.3199  139.7557  155.8169 C   0  0  0  0  0  0  0  0  0  0  0  0
  151.1584  140.7309  156.0706 C   0  0  1  0  0  0  0  0  0  0  0  0
  149.9565  140.1823  155.4268 N   0  0  0  0  0  0  0  0  0  0  0  0
  148.7142  140.9335  155.6074 C   0  0  0  0  0  0  0  0  0  0  0  0
  147.8751  140.9779  154.3140 C   0  0  0  0  0  0  0  0  0  0  0  0
  147.2806  139.6046  153.9542 C   0  0  0  0  0  0  0  0  0  0  0  0
  146.7968  142.0754  154.3595 C   0  0  0  0  0  0  0  0  0  0  0  0
  148.7653  141.3222  153.2720 O   0  0  0  0  0  0  0  0  0  0  0  0
  151.0052  141.0401  157.5922 C   0  0  1  0  0  0  0  0  0  0  0  0
  151.2827  139.8378  158.5187 C   0  0  0  0  0  0  0  0  0  0  0  0
  151.6832  142.2649  158.0149 N   0  0  0  0  0  0  0  0  0  0  0  0
  151.4990  143.5446  157.5309 C   0  0  0  0  0  0  0  0  0  0  0  0
  152.3662  144.3660  158.1924 C   0  0  0  0  0  0  0  0  0  0  0  0
  153.0584  143.4873  159.0704 C   0  0  0  0  0  0  0  0  0  0  0  0
  152.6505  142.2342  158.9612 N   0  0  0  0  0  0  0  0  0  0  0  0
  153.2570  140.1420  156.2183 H   0  0  0  0  0  0  0  0  0  0  0  0
  152.4689  139.5940  154.7488 H   0  0  0  0  0  0  0  0  0  0  0  0
  152.1365  138.7831  156.2737 H   0  0  0  0  0  0  0  0  0  0  0  0
  151.4296  141.6589  155.5659 H   0  0  0  0  0  0  0  0  0  0  0  0
  150.1316  140.0625  154.4345 H   0  0  0  0  0  0  0  0  0  0  0  0
  148.1100  140.4827  156.3905 H   0  0  0  0  0  0  0  0  0  0  0  0
  148.9416  141.9503  155.9303 H   0  0  0  0  0  0  0  0  0  0  0  0
  146.5523  139.2783  154.6974 H   0  0  0  0  0  0  0  0  0  0  0  0
  148.0554  138.8394  153.8933 H   0  0  0  0  0  0  0  0  0  0  0  0
  146.7697  139.6344  152.9910 H   0  0  0  0  0  0  0  0  0  0  0  0
  146.0505  141.8676  155.1268 H   0  0  0  0  0  0  0  0  0  0  0  0
  146.2710  142.1550  153.4074 H   0  0  0  0  0  0  0  0  0  0  0  0
  147.2312  143.0509  154.5809 H   0  0  0  0  0  0  0  0  0  0  0  0
  148.7844  140.6121  152.6487 H   0  0  0  0  0  0  0  0  0  0  0  0
  149.9438  141.2358  157.7521 H   0  0  0  0  0  0  0  0  0  0  0  0
  150.6825  138.9763  158.2255 H   0  0  0  0  0  0  0  0  0  0  0  0
  151.0197  140.0786  159.5491 H   0  0  0  0  0  0  0  0  0  0  0  0
  152.3235  139.5234  158.5198 H   0  0  0  0  0  0  0  0  0  0  0  0
  150.7731  143.7623  156.7616 H   0  0  0  0  0  0  0  0  0  0  0  0
  152.4902  145.4312  158.0650 H   0  0  0  0  0  0  0  0  0  0  0  0
  153.8405  143.7206  159.7777 H   0  0  0  0  0  0  0  0  0  0  0  0
  1  2  1  0  0  0  0
  1 16  1  0  0  0  0
  1 17  1  0  0  0  0
  1 18  1  0  0  0  0
  2  3  1  0  0  0  0
  2  9  1  0  0  0  0
  2 19  1  0  0  0  0
  3  4  1  0  0  0  0
  3 20  1  0  0  0  0
  4  5  1  0  0  0  0
  4 21  1  0  0  0  0
  4 22  1  0  0  0  0
  5  6  1  0  0  0  0
  5  7  1  0  0  0  0
  5  8  1  0  0  0  0
  6 23  1  0  0  0  0
  6 24  1  0  0  0  0
  6 25  1  0  0  0  0
  7 26  1  0  0  0  0
  7 27  1  0  0  0  0
  7 28  1  0  0  0  0
  8 29  1  0  0  0  0
  9 10  1  0  0  0  0
  9 11  1  0  0  0  0
  9 30  1  0  0  0  0
 10 31  1  0  0  0  0
 10 32  1  0  0  0  0
 10 33  1  0  0  0  0
 11 15  1  0  0  0  0
 11 12  1  0  0  0  0
 12 13  2  0  0  0  0
 12 34  1  0  0  0  0
 13 14  1  0  0  0  0
 13 35  1  0  0  0  0
 14 15  2  0  0  0  0
 14 36  1  0  0  0  0
M  END
> <s_m_source_file>
AV-unprocessed.smi

> <i_m_source_file_index>
3117

> <i_lp_mmshare_version>
43012

> <i_f3d_flags>
0

> <s_epik_input>
W0NIM11DKFtDSDNdKShbT0hdKVtDSDJdW05IXVtDQEBIXShbQ0gzXSlbQ0BIXShbQ0gzXSluMVtjSF1bY0hdW2NIXW4x

> <s_epik_cmdline>
J2VwaWtfcHl0aG9uJywgJy1waCcsICc3LjAnLCAnLXRuJywgJzgnLCAnLW1hJywgJzIwMCcsICctbWV0YWxfYmluZGluZycsICctaW1hZScsICc8aW5maWxlLm1hZT4nLCAnLW9tYWUnLCAnPG91dGZpbGUubWFlPic=

> <r_lp_tautomer_probability>
1

> <r_epik_Ionization_Penalty>
2.13419

> <r_epik_Ionization_Penalty_Charging>
0

> <r_epik_Ionization_Penalty_Neutral>
2.13419

> <r_epik_State_Penalty>
2.27148

> <r_epik_Charging_Adjusted_Penalty>
2.27148

> <i_epik_Tot_Q>
0

> <i_epik_Tot_abs_Q>
0

> <r_epik_Metal_State_Penalty>
2.27029

> <b_epik_Metal_Only>
0

> <s_lp_Force_Field>
OPLS_2005

> <r_lp_Energy>
16.3619

> <b_lp_Chiralities_Consistent>
1

> <s_lp_Variant>
AV-unprocessed.smi:3117-8

> <Gold.Version>
5.8.1

> <Gold.Id.Protein>
6NUR|6NUR_protein|mol2

> <Gold.PLP.Fitness>
41.2322

> <Gold.PLP.PLP>
-34.7672

> <Gold.PLP.part.hbond>
-2.5216

> <Gold.PLP.part.metal>
0.0000

> <Gold.PLP.part.buried>
-3.3218

> <Gold.PLP.part.nonpolar>
-29.3420

> <Gold.PLP.part.repulsive>
0.0000

> <Gold.PLP.ligand.clash>
0.0000

> <Gold.PLP.ligand.torsion>
1.3267

> <Gold.PLP.Chemscore.Hbond>
1.9120

> <Gold.PLP.Chemscore.CHOScore>
1.0000

> <Gold.PLP.Chemscore.Metal>
0.0000

> <Gold.Chemscore.Hbonds>
donor molecule, donor type, donor heavy atom, donor atom, acceptor molecule, acceptor atom, score
      L1  H     8    29       P1  7957  0.85
      P1  H  8011  8017       L1     8  0.74
      L1  C    12    34       P1  8028  1.00

> <Gold.PLP.Chemscore.Internal.Correction>
0.3824

> <Gold.Rescore>
     Score         DG    S(hbond)    S(metal)    S(lipo)     H(rot)  DE(clash)    DE(int)     intcor
     13.75     -14.88       1.42        0.00      87.63       2.19       0.08       1.04       ----

> <Gold.Chemscore.Fitness>
13.7534

> <Gold.Chemscore.DG>
-14.8801

> <Gold.Chemscore.ZeroCoef>
-5.4800

> <Gold.Chemscore.Hbond>
1.4219

> <Gold.Chemscore.Metal>
0.0000

> <Gold.Chemscore.Lipo>
87.6286

> <Gold.Chemscore.Internal_Hbond>
0.0000

> <Gold.Chemscore.DEClash>
0.0833

> <Gold.Chemscore.DEInternal>
1.0433

> <Gold.Chemscore.Rot>
2.1882

> <Gold.Chemscore.Internal.Correction>
   9.000000E+99

> <Gold.Chemscore.Hbonds>
donor molecule, donor type, donor heavy atom, donor atom, acceptor molecule, acceptor atom, score
      L1  H     8    29       P1  7957  0.83
      P1  H  8011  8017       L1     8  0.11

> <Gold.Chemscore.Hbond.Weighted>
-4.7493

> <Gold.Chemscore.Metal.Weighted>
-0.0000

> <Gold.Chemscore.Lipo.Weighted>
-10.2525

> <Gold.Chemscore.Internal_Hbond.Weighted>
0.0000

> <Gold.Chemscore.DEClash.Weighted>
0.0833

> <Gold.Chemscore.DEInternal.Weighted>
1.0433

> <Gold.Chemscore.Rot.Weighted>
5.6018

> <Gold.Chemscore.Internal.Correction.Weighted>
   9.000000E+99

> <Gold.Protein.RotatedTorsions>
[ 6907 6896 6895 6894 ] final  107.66 input  -60.11 | X-H torsion
[ 7974 7965 7964 7962 ] final   12.96 input  175.53 | X-H torsion
[ 8008 7997 7996 7995 ] final   97.61 input   59.86 | X-H torsion
[ 10167 10162 10161 10158 ] final -179.69 input  -65.29 | X-H torsion
[ 10718 10713 10712 10709 ] final -101.80 input   66.30 | X-H torsion
[ 10763 10752 10751 10750 ] final  163.82 input  -60.55 | X-H torsion
[ 11005 11000 10999 10996 ] final  -78.04 input  -57.11 | X-H torsion

> <Gold.Protein.ActiveResidues>
 VAL166  LYS551  ARG553  GLY616  TRP617  ASP618  TYR619  PRO620  LYS621  CYS622 
 ASP623  PHE694  ASN695  SER759  ASP760  ASP761  ALA762  ILE779  LEU786  VAL792 
 PHE793  MET794  SER795  GLU796  ALA797  LYS798  CYS799  TRP800  GLU811  SER814 

> <Gold.Protein.RotatedAtoms>
  152.5145  133.9202  159.7530 H   0  0  0  0  0  0  0  0  0  0  0  0  # atno 6907 bound_to 6896
  150.9575  133.6473  159.2767 H   0  0  0  0  0  0  0  0  0  0  0  0  # atno 6908 bound_to 6896
  151.3729  135.0931  159.9524 H   0  0  0  0  0  0  0  0  0  0  0  0  # atno 6909 bound_to 6896
  146.2340  139.9259  142.8503 H   0  0  0  0  0  0  0  0  0  0  0  0  # atno 7974 bound_to 7965
  156.0919  140.3256  155.7827 H   0  0  0  0  0  0  0  0  0  0  0  0  # atno 8008 bound_to 7997
  155.4983  140.0567  157.2960 H   0  0  0  0  0  0  0  0  0  0  0  0  # atno 8009 bound_to 7997
  154.4643  140.1981  156.0177 H   0  0  0  0  0  0  0  0  0  0  0  0  # atno 8010 bound_to 7997
  139.5375  144.2457  152.0825 H   0  0  0  0  0  0  0  0  0  0  0  0  # atno 10167 bound_to 10162
  156.0207  130.5390  150.7016 H   0  0  0  0  0  0  0  0  0  0  0  0  # atno 10718 bound_to 10713
  154.2996  135.2759  155.2617 H   0  0  0  0  0  0  0  0  0  0  0  0  # atno 10763 bound_to 10752
  154.5060  135.5795  153.6571 H   0  0  0  0  0  0  0  0  0  0  0  0  # atno 10764 bound_to 10752
  152.9902  135.6169  154.3165 H   0  0  0  0  0  0  0  0  0  0  0  0  # atno 10765 bound_to 10752
  141.1663  133.7047  156.7912 H   0  0  0  0  0  0  0  0  0  0  0  0  # atno 11005 bound_to 11000
  145.2091  140.9888  143.4111 LP  0  0  0  0  0  0  0  0  0  0  0  0  # atno 17320 bound_to 7965
  144.9707  139.3883  143.6310 LP  0  0  0  0  0  0  0  0  0  0  0  0  # atno 17321 bound_to 7965
  140.1930  144.4733  150.6469 LP  0  0  0  0  0  0  0  0  0  0  0  0  # atno 17342 bound_to 10162
  140.6588  143.2246  151.5904 LP  0  0  0  0  0  0  0  0  0  0  0  0  # atno 17343 bound_to 10162
  157.4675  131.0889  151.0679 LP  0  0  0  0  0  0  0  0  0  0  0  0  # atno 17370 bound_to 10713
  157.1148  130.6037  149.5491 LP  0  0  0  0  0  0  0  0  0  0  0  0  # atno 17371 bound_to 10713
  140.2324  134.8675  157.3490 LP  0  0  0  0  0  0  0  0  0  0  0  0  # atno 17394 bound_to 11000
  140.1877  134.4410  155.7734 LP  0  0  0  0  0  0  0  0  0  0  0  0  # atno 17395 bound_to 11000

$$$$
