AV-unprocessed.smi:2114|AV-procd|sdf|8617|dock3
  -GOLD-   2272011363D 1   1.00000     0.00000
 Structure written by MMmdl.
 47 48  0  0  0  0  0  0  0  0  1 V2000
  154.2434  133.7391  164.7177 C   0  0  0  0  0  0  0  0  0  0  0  0
  154.5666  133.8960  163.3473 O   0  0  0  0  0  0  0  0  0  0  0  0
  155.9660  133.8897  163.1142 C   0  0  0  0  0  0  0  0  0  0  0  0
  156.2437  134.3113  161.6630 C   0  0  2  0  0  0  0  0  0  0  0  0
  157.7512  134.3339  161.3620 C   0  0  0  0  0  0  0  0  0  0  0  0
  155.6618  135.6284  161.4203 N   0  0  0  0  0  0  0  0  0  0  0  0
  154.8586  135.9486  160.3927 C   0  0  0  0  0  0  0  0  0  0  0  0
  154.5074  135.1464  159.5272 O   0  0  0  0  0  0  0  0  0  0  0  0
  154.3438  137.3587  160.3895 C   0  0  0  0  0  0  0  0  0  0  0  0
  153.4499  137.8220  159.3994 C   0  0  0  0  0  0  0  0  0  0  0  0
  152.9874  139.1504  159.4607 C   0  0  0  0  0  0  0  0  0  0  0  0
  153.4243  139.9866  160.5151 C   0  0  0  0  0  0  0  0  0  0  0  0
  152.9796  141.3243  160.5902 N   0  0  0  0  0  0  0  0  0  0  0  0
  153.3091  142.0886  161.7914 C   0  0  0  0  0  0  0  0  0  0  0  0
  152.5091  143.4037  161.8284 C   0  0  1  0  0  0  0  0  0  0  0  0
  152.9115  144.2889  163.0122 C   0  0  0  0  0  0  0  0  0  0  0  0
  152.7483  144.1288  160.6255 O   0  0  0  0  0  0  0  0  0  0  0  0
  152.3211  143.4176  159.4670 C   0  0  1  0  0  0  0  0  0  0  0  0
  152.5350  144.3169  158.2450 C   0  0  0  0  0  0  0  0  0  0  0  0
  153.1116  142.1000  159.3599 C   0  0  0  0  0  0  0  0  0  0  0  0
  154.2660  139.5332  161.4763 N   0  0  0  0  0  0  0  0  0  0  0  0
  154.7074  138.2590  161.4133 C   0  0  0  0  0  0  0  0  0  0  0  0
  153.1603  133.7341  164.8402 H   0  0  0  0  0  0  0  0  0  0  0  0
  154.6458  134.5598  165.3133 H   0  0  0  0  0  0  0  0  0  0  0  0
  154.6310  132.7981  165.1102 H   0  0  0  0  0  0  0  0  0  0  0  0
  156.4715  134.5619  163.8101 H   0  0  0  0  0  0  0  0  0  0  0  0
  156.3549  132.8855  163.2897 H   0  0  0  0  0  0  0  0  0  0  0  0
  155.7715  133.5809  161.0033 H   0  0  0  0  0  0  0  0  0  0  0  0
  158.1994  133.3555  161.5363 H   0  0  0  0  0  0  0  0  0  0  0  0
  158.2712  135.0553  161.9929 H   0  0  0  0  0  0  0  0  0  0  0  0
  157.9444  134.6003  160.3223 H   0  0  0  0  0  0  0  0  0  0  0  0
  155.8714  136.3470  162.0977 H   0  0  0  0  0  0  0  0  0  0  0  0
  153.1121  137.1763  158.6017 H   0  0  0  0  0  0  0  0  0  0  0  0
  152.2955  139.5054  158.7116 H   0  0  0  0  0  0  0  0  0  0  0  0
  153.0822  141.5022  162.6830 H   0  0  0  0  0  0  0  0  0  0  0  0
  154.3798  142.2985  161.8018 H   0  0  0  0  0  0  0  0  0  0  0  0
  151.4431  143.1830  161.9076 H   0  0  0  0  0  0  0  0  0  0  0  0
  152.7385  143.7791  163.9603 H   0  0  0  0  0  0  0  0  0  0  0  0
  152.3330  145.2129  163.0212 H   0  0  0  0  0  0  0  0  0  0  0  0
  153.9674  144.5568  162.9636 H   0  0  0  0  0  0  0  0  0  0  0  0
  151.2552  143.1995  159.5540 H   0  0  0  0  0  0  0  0  0  0  0  0
  152.2141  143.8188  157.3300 H   0  0  0  0  0  0  0  0  0  0  0  0
  153.5860  144.5840  158.1302 H   0  0  0  0  0  0  0  0  0  0  0  0
  151.9645  145.2414  158.3374 H   0  0  0  0  0  0  0  0  0  0  0  0
  154.1689  142.3087  159.1912 H   0  0  0  0  0  0  0  0  0  0  0  0
  152.7575  141.5429  158.4936 H   0  0  0  0  0  0  0  0  0  0  0  0
  155.3763  137.9573  162.2064 H   0  0  0  0  0  0  0  0  0  0  0  0
  1  2  1  0  0  0  0
  1 23  1  0  0  0  0
  1 24  1  0  0  0  0
  1 25  1  0  0  0  0
  2  3  1  0  0  0  0
  3  4  1  0  0  0  0
  3 26  1  0  0  0  0
  3 27  1  0  0  0  0
  4  5  1  0  0  0  0
  4  6  1  0  0  0  0
  4 28  1  0  0  0  0
  5 29  1  0  0  0  0
  5 30  1  0  0  0  0
  5 31  1  0  0  0  0
  6  7  1  0  0  0  0
  6 32  1  0  0  0  0
  7  8  2  0  0  0  0
  7  9  1  0  0  0  0
  9 22  1  0  0  0  0
  9 10  2  0  0  0  0
 10 11  1  0  0  0  0
 10 33  1  0  0  0  0
 11 12  2  0  0  0  0
 11 34  1  0  0  0  0
 12 13  1  0  0  0  0
 12 21  1  0  0  0  0
 13 20  1  0  0  0  0
 13 14  1  0  0  0  0
 14 15  1  0  0  0  0
 14 35  1  0  0  0  0
 14 36  1  0  0  0  0
 15 16  1  0  0  0  0
 15 17  1  0  0  0  0
 15 37  1  0  0  0  0
 16 38  1  0  0  0  0
 16 39  1  0  0  0  0
 16 40  1  0  0  0  0
 17 18  1  0  0  0  0
 18 19  1  0  0  0  0
 18 20  1  0  0  0  0
 18 41  1  0  0  0  0
 19 42  1  0  0  0  0
 19 43  1  0  0  0  0
 19 44  1  0  0  0  0
 20 45  1  0  0  0  0
 20 46  1  0  0  0  0
 21 22  2  0  0  0  0
 22 47  1  0  0  0  0
M  END
> <s_m_source_file>
AV-unprocessed.smi

> <i_m_source_file_index>
2114

> <i_lp_mmshare_version>
43012

> <i_f3d_flags>
0

> <s_epik_input>
W0NIM11PW0NIMl1bQ0BIXShbQ0gzXSlbTkhdQyg9TyljMVtjSF1bY0hdYyhuW2NIXTEpTjJbQ0gyXVtDQEBIXShbQ0gzXSlPW0NAQEhdKFtDSDNdKVtDSDJdMg==

> <s_epik_cmdline>
J2VwaWtfcHl0aG9uJywgJy1waCcsICc3LjAnLCAnLXRuJywgJzgnLCAnLW1hJywgJzIwMCcsICctbWV0YWxfYmluZGluZycsICctaW1hZScsICc8aW5maWxlLm1hZT4nLCAnLW9tYWUnLCAnPG91dGZpbGUubWFlPic=

> <r_lp_tautomer_probability>
1

> <r_epik_Ionization_Penalty>
1.92915e-05

> <r_epik_Ionization_Penalty_Charging>
0

> <r_epik_Ionization_Penalty_Neutral>
1.92915e-05

> <r_epik_State_Penalty>
-0

> <r_epik_Charging_Adjusted_Penalty>
0

> <i_epik_Tot_Q>
0

> <i_epik_Tot_abs_Q>
0

> <r_epik_Metal_State_Penalty>
-0

> <b_epik_Metal_Only>
0

> <s_lp_Force_Field>
OPLS_2005

> <r_lp_Energy>
18.4653

> <b_lp_Chiralities_Consistent>
1

> <s_lp_Variant>
AV-unprocessed.smi:2114-1

> <Gold.Version>
5.8.1

> <Gold.Id.Protein>
6NUR|6NUR_protein|mol2

> <Gold.PLP.Fitness>
36.6453

> <Gold.PLP.PLP>
-33.8955

> <Gold.PLP.part.hbond>
-1.0000

> <Gold.PLP.part.metal>
0.0000

> <Gold.PLP.part.buried>
-2.8244

> <Gold.PLP.part.nonpolar>
-29.5475

> <Gold.PLP.part.repulsive>
0.0805

> <Gold.PLP.ligand.clash>
0.0000

> <Gold.PLP.ligand.torsion>
0.2980

> <Gold.PLP.Chemscore.Hbond>
1.0000

> <Gold.PLP.Chemscore.CHOScore>
0.0000

> <Gold.PLP.Chemscore.Metal>
0.0000

> <Gold.Chemscore.Hbonds>
donor molecule, donor type, donor heavy atom, donor atom, acceptor molecule, acceptor atom, score
      P1  H  6896  6909       L1     8  0.75

> <Gold.PLP.Chemscore.Internal.Correction>
0.3457

> <Gold.Rescore>
     Score         DG    S(hbond)    S(metal)    S(lipo)     H(rot)  DE(clash)    DE(int)     intcor
     16.58     -17.68       0.99        0.00     109.35       1.52       0.79       0.31       ----

> <Gold.Chemscore.Fitness>
16.5795

> <Gold.Chemscore.DG>
-17.6780

> <Gold.Chemscore.ZeroCoef>
-5.4800

> <Gold.Chemscore.Hbond>
0.9888

> <Gold.Chemscore.Metal>
0.0000

> <Gold.Chemscore.Lipo>
109.3460

> <Gold.Chemscore.Internal_Hbond>
0.0000

> <Gold.Chemscore.DEClash>
0.7864

> <Gold.Chemscore.DEInternal>
0.3121

> <Gold.Chemscore.Rot>
1.5226

> <Gold.Chemscore.Internal.Correction>
   9.000000E+99

> <Gold.Chemscore.Hbonds>
donor molecule, donor type, donor heavy atom, donor atom, acceptor molecule, acceptor atom, score
      P1  H  6896  6909       L1     8  0.66

> <Gold.Chemscore.Hbond.Weighted>
-3.3025

> <Gold.Chemscore.Metal.Weighted>
-0.0000

> <Gold.Chemscore.Lipo.Weighted>
-12.7935

> <Gold.Chemscore.Internal_Hbond.Weighted>
0.0000

> <Gold.Chemscore.DEClash.Weighted>
0.7864

> <Gold.Chemscore.DEInternal.Weighted>
0.3121

> <Gold.Chemscore.Rot.Weighted>
3.8980

> <Gold.Chemscore.Internal.Correction.Weighted>
   9.000000E+99

> <Gold.Protein.RotatedTorsions>
[ 6907 6896 6895 6894 ] final -153.07 input  -60.11 | X-H torsion
[ 7974 7965 7964 7962 ] final    0.96 input  175.53 | X-H torsion
[ 8008 7997 7996 7995 ] final  106.89 input   59.86 | X-H torsion
[ 10167 10162 10161 10158 ] final  129.03 input  -65.29 | X-H torsion
[ 10718 10713 10712 10709 ] final    4.16 input   66.30 | X-H torsion
[ 10763 10752 10751 10750 ] final -100.57 input  -60.55 | X-H torsion
[ 11005 11000 10999 10996 ] final   20.66 input  -57.11 | X-H torsion

> <Gold.Protein.ActiveResidues>
 VAL166  LYS551  ARG553  GLY616  TRP617  ASP618  TYR619  PRO620  LYS621  CYS622 
 ASP623  PHE694  ASN695  SER759  ASP760  ASP761  ALA762  ILE779  LEU786  VAL792 
 PHE793  MET794  SER795  GLU796  ALA797  LYS798  CYS799  TRP800  GLU811  SER814 

> <Gold.Protein.RotatedAtoms>
  151.2371  133.4419  159.2605 H   0  0  0  0  0  0  0  0  0  0  0  0  # atno 6907 bound_to 6896
  151.0740  134.9816  159.8333 H   0  0  0  0  0  0  0  0  0  0  0  0  # atno 6908 bound_to 6896
  152.5416  134.2315  159.8879 H   0  0  0  0  0  0  0  0  0  0  0  0  # atno 6909 bound_to 6896
  146.2437  140.1059  142.8346 H   0  0  0  0  0  0  0  0  0  0  0  0  # atno 7974 bound_to 7965
  156.1780  140.3105  155.9094 H   0  0  0  0  0  0  0  0  0  0  0  0  # atno 8008 bound_to 7997
  155.3446  140.0467  157.3062 H   0  0  0  0  0  0  0  0  0  0  0  0  # atno 8009 bound_to 7997
  154.5311  140.2230  155.8813 H   0  0  0  0  0  0  0  0  0  0  0  0  # atno 8010 bound_to 7997
  139.5498  144.6803  151.4360 H   0  0  0  0  0  0  0  0  0  0  0  0  # atno 10167 bound_to 10162
  156.8886  130.5679  149.5650 H   0  0  0  0  0  0  0  0  0  0  0  0  # atno 10718 bound_to 10713
  154.7590  135.4930  153.9428 H   0  0  0  0  0  0  0  0  0  0  0  0  # atno 10763 bound_to 10752
  153.1229  135.6736  153.9313 H   0  0  0  0  0  0  0  0  0  0  0  0  # atno 10764 bound_to 10752
  153.9040  135.3106  155.3427 H   0  0  0  0  0  0  0  0  0  0  0  0  # atno 10765 bound_to 10752
  140.4002  134.1727  155.7664 H   0  0  0  0  0  0  0  0  0  0  0  0  # atno 11005 bound_to 11000
  145.0529  140.9031  143.4985 LP  0  0  0  0  0  0  0  0  0  0  0  0  # atno 17320 bound_to 7965
  145.1160  139.2725  143.5613 LP  0  0  0  0  0  0  0  0  0  0  0  0  # atno 17321 bound_to 7965
  140.6757  143.8195  150.7055 LP  0  0  0  0  0  0  0  0  0  0  0  0  # atno 17342 bound_to 10162
  140.1633  143.4256  152.2052 LP  0  0  0  0  0  0  0  0  0  0  0  0  # atno 17343 bound_to 10162
  156.0641  130.5687  150.9252 LP  0  0  0  0  0  0  0  0  0  0  0  0  # atno 17370 bound_to 10713
  157.6097  131.0937  150.8816 LP  0  0  0  0  0  0  0  0  0  0  0  0  # atno 17371 bound_to 10713
  141.1859  133.8312  157.1086 LP  0  0  0  0  0  0  0  0  0  0  0  0  # atno 17394 bound_to 11000
  140.0342  134.9886  157.0839 LP  0  0  0  0  0  0  0  0  0  0  0  0  # atno 17395 bound_to 11000

$$$$
