AV-unprocessed.smi:1815|AV-procd|sdf|7351|dock6
  -GOLD-   22720 9 13D 1   1.00000     0.00000
 Structure written by MMmdl.
 39 40  0  0  0  0  0  0  0  0  1 V2000
  150.8297  142.3173  156.3214 C   0  0  0  0  0  0  0  0  0  0  0  0
  150.2672  140.9452  155.9363 C   0  0  1  0  0  0  0  0  0  0  0  0
  149.0881  141.0543  154.9508 C   0  0  0  0  0  0  0  0  0  0  0  0
  148.6054  139.7446  154.5286 N   0  0  0  0  0  0  0  0  0  0  0  0
  147.4798  139.8742  153.6024 C   0  0  0  0  0  0  0  0  0  0  0  0
  146.4318  138.7455  153.6721 C   0  0  0  0  0  0  0  0  0  0  0  0
  146.7789  137.6237  152.8058 N   0  0  0  0  0  0  0  0  0  0  0  0
  145.9037  136.7468  152.2941 C   0  0  0  0  0  0  0  0  0  0  0  0
  144.6894  136.8069  152.4901 O   0  0  0  0  0  0  0  0  0  0  0  0
  146.5274  135.8118  151.5561 N   0  0  0  0  0  0  0  0  0  0  0  0
  145.9525  134.7216  150.8517 C   0  0  0  0  0  0  0  0  0  0  0  0
  144.7022  134.7060  150.3749 N   0  0  0  0  0  0  0  0  0  0  0  0
  144.4042  133.5065  149.7233 C   0  0  0  0  0  0  0  0  0  0  0  0
  145.4466  132.6133  149.7136 C   0  0  0  0  0  0  0  0  0  0  0  0
  146.8525  133.2473  150.5266 S   0  0  0  0  0  0  0  0  0  0  0  0
  149.7181  138.9905  153.9581 C   0  0  0  0  0  0  0  0  0  0  0  0
  150.9015  138.8793  154.9385 C   0  0  1  0  0  0  0  0  0  0  0  0
  152.1043  138.1649  154.3137 C   0  0  0  0  0  0  0  0  0  0  0  0
  151.3102  140.1871  155.3297 O   0  0  0  0  0  0  0  0  0  0  0  0
  150.0676  142.9331  156.7997 H   0  0  0  0  0  0  0  0  0  0  0  0
  151.1942  142.8547  155.4455 H   0  0  0  0  0  0  0  0  0  0  0  0
  151.6609  142.2155  157.0197 H   0  0  0  0  0  0  0  0  0  0  0  0
  149.9392  140.4340  156.8431 H   0  0  0  0  0  0  0  0  0  0  0  0
  148.2766  141.6108  155.4212 H   0  0  0  0  0  0  0  0  0  0  0  0
  149.3967  141.6317  154.0777 H   0  0  0  0  0  0  0  0  0  0  0  0
  146.9671  140.8169  153.7990 H   0  0  0  0  0  0  0  0  0  0  0  0
  147.8543  139.9515  152.5808 H   0  0  0  0  0  0  0  0  0  0  0  0
  146.3336  138.3976  154.7018 H   0  0  0  0  0  0  0  0  0  0  0  0
  145.4456  139.1114  153.3886 H   0  0  0  0  0  0  0  0  0  0  0  0
  147.7584  137.4969  152.5977 H   0  0  0  0  0  0  0  0  0  0  0  0
  147.5316  135.8888  151.4901 H   0  0  0  0  0  0  0  0  0  0  0  0
  143.4221  133.3725  149.2945 H   0  0  0  0  0  0  0  0  0  0  0  0
  145.4721  131.6249  149.2791 H   0  0  0  0  0  0  0  0  0  0  0  0
  149.3933  137.9855  153.6900 H   0  0  0  0  0  0  0  0  0  0  0  0
  150.0525  139.4681  153.0358 H   0  0  0  0  0  0  0  0  0  0  0  0
  150.5884  138.3274  155.8266 H   0  0  0  0  0  0  0  0  0  0  0  0
  151.8423  137.1526  154.0049 H   0  0  0  0  0  0  0  0  0  0  0  0
  152.9273  138.0931  155.0250 H   0  0  0  0  0  0  0  0  0  0  0  0
  152.4681  138.6992  153.4356 H   0  0  0  0  0  0  0  0  0  0  0  0
  1  2  1  0  0  0  0
  1 20  1  0  0  0  0
  1 21  1  0  0  0  0
  1 22  1  0  0  0  0
  2 19  1  0  0  0  0
  2  3  1  0  0  0  0
  2 23  1  0  0  0  0
  3  4  1  0  0  0  0
  3 24  1  0  0  0  0
  3 25  1  0  0  0  0
  4  5  1  0  0  0  0
  4 16  1  0  0  0  0
  5  6  1  0  0  0  0
  5 26  1  0  0  0  0
  5 27  1  0  0  0  0
  6  7  1  0  0  0  0
  6 28  1  0  0  0  0
  6 29  1  0  0  0  0
  7  8  1  0  0  0  0
  7 30  1  0  0  0  0
  8  9  2  0  0  0  0
  8 10  1  0  0  0  0
 10 11  1  0  0  0  0
 10 31  1  0  0  0  0
 11 15  1  0  0  0  0
 11 12  2  0  0  0  0
 12 13  1  0  0  0  0
 13 14  2  0  0  0  0
 13 32  1  0  0  0  0
 14 15  1  0  0  0  0
 14 33  1  0  0  0  0
 16 17  1  0  0  0  0
 16 34  1  0  0  0  0
 16 35  1  0  0  0  0
 17 18  1  0  0  0  0
 17 19  1  0  0  0  0
 17 36  1  0  0  0  0
 18 37  1  0  0  0  0
 18 38  1  0  0  0  0
 18 39  1  0  0  0  0
M  END
> <s_m_source_file>
AV-unprocessed.smi

> <i_m_source_file_index>
1815

> <i_lp_mmshare_version>
43012

> <i_f3d_flags>
0

> <s_epik_input>
W0NIM11bQ0BASF0xW0NIMl1OKFtDSDJdW0NASF0oTzEpW0NIM10pW0NIMl1bQ0gyXVtOSF1DKD1PKVtOSF1jMm5bY0hdW2NIXXMy

> <s_epik_cmdline>
J2VwaWtfcHl0aG9uJywgJy1waCcsICc3LjAnLCAnLXRuJywgJzgnLCAnLW1hJywgJzIwMCcsICctbWV0YWxfYmluZGluZycsICctaW1hZScsICc8aW5maWxlLm1hZT4nLCAnLW9tYWUnLCAnPG91dGZpbGUubWFlPic=

> <r_lp_tautomer_probability>
0.999

> <r_epik_Ionization_Penalty>
0.219201

> <r_epik_Ionization_Penalty_Charging>
0

> <r_epik_Ionization_Penalty_Neutral>
0.219201

> <r_epik_State_Penalty>
0.209349

> <r_epik_Charging_Adjusted_Penalty>
0.209349

> <i_epik_Tot_Q>
0

> <i_epik_Tot_abs_Q>
0

> <r_epik_Metal_State_Penalty>
0.247737

> <b_epik_Metal_Only>
0

> <s_lp_Force_Field>
OPLS_2005

> <r_lp_Energy>
22.4698

> <b_lp_Chiralities_Consistent>
1

> <s_lp_Variant>
AV-unprocessed.smi:1815-2

> <Gold.Version>
5.8.1

> <Gold.Id.Protein>
6NUR|6NUR_protein|mol2

> <Gold.PLP.Fitness>
43.1191

> <Gold.PLP.PLP>
-33.1602

> <Gold.PLP.part.hbond>
-3.0000

> <Gold.PLP.part.metal>
0.0000

> <Gold.PLP.part.buried>
-4.1773

> <Gold.PLP.part.nonpolar>
-26.9886

> <Gold.PLP.part.repulsive>
0.6381

> <Gold.PLP.ligand.clash>
0.0000

> <Gold.PLP.ligand.torsion>
0.8759

> <Gold.PLP.Chemscore.Hbond>
2.8960

> <Gold.PLP.Chemscore.CHOScore>
1.0000

> <Gold.PLP.Chemscore.Metal>
0.0000

> <Gold.Chemscore.Hbonds>
donor molecule, donor type, donor heavy atom, donor atom, acceptor molecule, acceptor atom, score
      L1  H     7    30       P1  7948  0.83
      L1  H    10    31       P1  7948  0.83
      P1  H  7989  7998       L1    19  0.85
      L1  C    13    32       P1 10186  0.72

> <Gold.PLP.Chemscore.Internal.Correction>
0.0226

> <Gold.Rescore>
     Score         DG    S(hbond)    S(metal)    S(lipo)     H(rot)  DE(clash)    DE(int)     intcor
     16.70     -18.81       2.28        0.00      83.78       1.60       0.18       1.93       ----

> <Gold.Chemscore.Fitness>
16.7017

> <Gold.Chemscore.DG>
-18.8102

> <Gold.Chemscore.ZeroCoef>
-5.4800

> <Gold.Chemscore.Hbond>
2.2826

> <Gold.Chemscore.Metal>
0.0000

> <Gold.Chemscore.Lipo>
83.7831

> <Gold.Chemscore.Internal_Hbond>
0.0000

> <Gold.Chemscore.DEClash>
0.1816

> <Gold.Chemscore.DEInternal>
1.9269

> <Gold.Chemscore.Rot>
1.6001

> <Gold.Chemscore.Internal.Correction>
   9.000000E+99

> <Gold.Chemscore.Hbonds>
donor molecule, donor type, donor heavy atom, donor atom, acceptor molecule, acceptor atom, score
      L1  H     7    30       P1  7948  0.81
      L1  H    10    31       P1  7948  0.82
      P1  H  7989  7998       L1    19  0.10

> <Gold.Chemscore.Hbond.Weighted>
-7.6238

> <Gold.Chemscore.Metal.Weighted>
-0.0000

> <Gold.Chemscore.Lipo.Weighted>
-9.8026

> <Gold.Chemscore.Internal_Hbond.Weighted>
0.0000

> <Gold.Chemscore.DEClash.Weighted>
0.1816

> <Gold.Chemscore.DEInternal.Weighted>
1.9269

> <Gold.Chemscore.Rot.Weighted>
4.0963

> <Gold.Chemscore.Internal.Correction.Weighted>
   9.000000E+99

> <Gold.Protein.RotatedTorsions>
[ 6907 6896 6895 6894 ] final  146.20 input  -60.11 | X-H torsion
[ 7974 7965 7964 7962 ] final  -85.19 input  175.53 | X-H torsion
[ 8008 7997 7996 7995 ] final -172.73 input   59.86 | X-H torsion
[ 10167 10162 10161 10158 ] final  165.45 input  -65.29 | X-H torsion
[ 10718 10713 10712 10709 ] final -110.79 input   66.30 | X-H torsion
[ 10763 10752 10751 10750 ] final  -55.45 input  -60.55 | X-H torsion
[ 11005 11000 10999 10996 ] final -122.84 input  -57.11 | X-H torsion

> <Gold.Protein.ActiveResidues>
 VAL166  LYS551  ARG553  GLY616  TRP617  ASP618  TYR619  PRO620  LYS621  CYS622 
 ASP623  PHE694  ASN695  SER759  ASP760  ASP761  ALA762  ILE779  LEU786  VAL792 
 PHE793  MET794  SER795  GLU796  ALA797  LYS798  CYS799  TRP800  GLU811  SER814 

> <Gold.Protein.RotatedAtoms>
  152.1710  133.4643  159.4908 H   0  0  0  0  0  0  0  0  0  0  0  0  # atno 6907 bound_to 6896
  150.6920  134.1954  159.4310 H   0  0  0  0  0  0  0  0  0  0  0  0  # atno 6908 bound_to 6896
  151.9860  135.0003  160.0610 H   0  0  0  0  0  0  0  0  0  0  0  0  # atno 6909 bound_to 6896
  145.4966  140.9549  143.1782 H   0  0  0  0  0  0  0  0  0  0  0  0  # atno 7974 bound_to 7965
  155.9484  140.1121  157.0998 H   0  0  0  0  0  0  0  0  0  0  0  0  # atno 8008 bound_to 7997
  154.4104  140.1205  156.5085 H   0  0  0  0  0  0  0  0  0  0  0  0  # atno 8009 bound_to 7997
  155.6874  140.3473  155.4882 H   0  0  0  0  0  0  0  0  0  0  0  0  # atno 8010 bound_to 7997
  139.4906  144.4131  151.9276 H   0  0  0  0  0  0  0  0  0  0  0  0  # atno 10167 bound_to 10162
  156.0610  130.5834  150.8285 H   0  0  0  0  0  0  0  0  0  0  0  0  # atno 10718 bound_to 10713
  154.1910  135.6427  153.5060 H   0  0  0  0  0  0  0  0  0  0  0  0  # atno 10763 bound_to 10752
  153.0035  135.5429  154.6415 H   0  0  0  0  0  0  0  0  0  0  0  0  # atno 10764 bound_to 10752
  154.5803  135.2924  155.0712 H   0  0  0  0  0  0  0  0  0  0  0  0  # atno 10765 bound_to 10752
  140.9965  134.0465  157.3591 H   0  0  0  0  0  0  0  0  0  0  0  0  # atno 11005 bound_to 11000
  144.7803  139.6540  143.7157 LP  0  0  0  0  0  0  0  0  0  0  0  0  # atno 17320 bound_to 7965
  146.2251  139.5708  142.9592 LP  0  0  0  0  0  0  0  0  0  0  0  0  # atno 17321 bound_to 7965
  140.3573  144.3016  150.5939 LP  0  0  0  0  0  0  0  0  0  0  0  0  # atno 17342 bound_to 10162
  140.5434  143.2219  151.8048 LP  0  0  0  0  0  0  0  0  0  0  0  0  # atno 17343 bound_to 10162
  157.5619  131.0946  150.9546 LP  0  0  0  0  0  0  0  0  0  0  0  0  # atno 17370 bound_to 10713
  156.9782  130.5517  149.5294 LP  0  0  0  0  0  0  0  0  0  0  0  0  # atno 17371 bound_to 10713
  139.9017  135.0167  156.7300 LP  0  0  0  0  0  0  0  0  0  0  0  0  # atno 17394 bound_to 11000
  140.6958  133.9350  155.7994 LP  0  0  0  0  0  0  0  0  0  0  0  0  # atno 17395 bound_to 11000

$$$$
