AV-unprocessed.smi:2209|AV-procd|sdf|8948|dock5
  -GOLD-   2272012163D 1   1.00000     0.00000
 Structure written by MMmdl.
 26 27  0  0  0  0  0  0  0  0  2 V2000
  155.0687  138.8220  160.2380 C   0  0  0  0  0  0  0  0  0  0  0  0
  154.0787  139.7471  159.6160 C   0  0  0  0  0  0  0  0  0  0  0  0
  153.6151  139.5413  158.3894 N   0  0  0  0  0  0  0  0  0  0  0  0
  152.7306  140.6115  158.1934 O   0  0  0  0  0  0  0  0  0  0  0  0
  152.7690  141.3378  159.3363 C   0  0  0  0  0  0  0  0  0  0  0  0
  151.9225  142.5677  159.4417 C   0  0  1  0  0  0  0  0  0  0  0  0
  152.7529  143.8128  159.8065 C   0  0  0  0  0  0  0  0  0  0  0  0
  151.8525  145.0549  159.8913 C   0  0  0  0  0  0  0  0  0  0  0  0
  151.0441  145.2383  158.5962 C   0  0  0  0  0  0  0  0  0  0  0  0
  150.2558  144.0232  158.2958 N   0  3  0  0  0  0  0  0  0  0  0  0
  151.0909  142.8082  158.1653 C   0  0  0  0  0  0  0  0  0  0  0  0
  153.5960  140.8467  160.2573 N   0  0  0  0  0  0  0  0  0  0  0  0
  155.3210  138.0054  159.5605 H   0  0  0  0  0  0  0  0  0  0  0  0
  154.6606  138.3950  161.1542 H   0  0  0  0  0  0  0  0  0  0  0  0
  155.9842  139.3605  160.4840 H   0  0  0  0  0  0  0  0  0  0  0  0
  151.2196  142.3968  160.2591 H   0  0  0  0  0  0  0  0  0  0  0  0
  153.2675  143.6599  160.7559 H   0  0  0  0  0  0  0  0  0  0  0  0
  153.5269  143.9770  159.0555 H   0  0  0  0  0  0  0  0  0  0  0  0
  151.1709  144.9568  160.7374 H   0  0  0  0  0  0  0  0  0  0  0  0
  152.4575  145.9417  160.0829 H   0  0  0  0  0  0  0  0  0  0  0  0
  150.3668  146.0875  158.6902 H   0  0  0  0  0  0  0  0  0  0  0  0
  151.7102  145.4524  157.7591 H   0  0  0  0  0  0  0  0  0  0  0  0
  149.5920  143.8793  159.0436 H   0  0  0  0  0  0  0  0  0  0  0  0
  151.7434  142.9186  157.2978 H   0  0  0  0  0  0  0  0  0  0  0  0
  150.4412  141.9549  157.9680 H   0  0  0  0  0  0  0  0  0  0  0  0
  149.7487  144.1664  157.4340 H   0  0  0  0  0  0  0  0  0  0  0  0
  1  2  1  0  0  0  0
  1 13  1  0  0  0  0
  1 14  1  0  0  0  0
  1 15  1  0  0  0  0
  2 12  1  0  0  0  0
  2  3  2  0  0  0  0
  3  4  1  0  0  0  0
  4  5  1  0  0  0  0
  5  6  1  0  0  0  0
  5 12  2  0  0  0  0
  6 11  1  0  0  0  0
  6  7  1  0  0  0  0
  6 16  1  0  0  0  0
  7  8  1  0  0  0  0
  7 17  1  0  0  0  0
  7 18  1  0  0  0  0
  8  9  1  0  0  0  0
  8 19  1  0  0  0  0
  8 20  1  0  0  0  0
  9 10  1  0  0  0  0
  9 21  1  0  0  0  0
  9 22  1  0  0  0  0
 10 11  1  0  0  0  0
 10 23  1  0  0  0  0
 10 26  1  0  0  0  0
 11 24  1  0  0  0  0
 11 25  1  0  0  0  0
M  CHG  1  10   1
M  END
> <s_m_source_file>
AV-unprocessed.smi

> <i_m_source_file_index>
2209

> <i_lp_mmshare_version>
43012

> <i_f3d_flags>
0

> <s_epik_input>
W0NIM11jMW5vYyhuMSlbQ0BASF0yW0NIMl1bQ0gyXVtDSDJdW05IXVtDSDJdMg==

> <s_epik_cmdline>
J2VwaWtfcHl0aG9uJywgJy1waCcsICc3LjAnLCAnLXRuJywgJzgnLCAnLW1hJywgJzIwMCcsICctbWV0YWxfYmluZGluZycsICctaW1hZScsICc8aW5maWxlLm1hZT4nLCAnLW9tYWUnLCAnPG91dGZpbGUubWFlPic=

> <r_lp_tautomer_probability>
1

> <r_epik_Ionization_Penalty>
0.000532935

> <r_epik_Ionization_Penalty_Charging>
0.000532935

> <r_epik_Ionization_Penalty_Neutral>
4.97553e-13

> <r_epik_State_Penalty>
0.000332992

> <r_epik_Charging_Adjusted_Penalty>
0.000865928

> <i_epik_Tot_Q>
1

> <i_epik_Tot_abs_Q>
1

> <r_epik_Metal_State_Penalty>
-0

> <b_epik_Metal_Only>
0

> <s_lp_Force_Field>
OPLS_2005

> <r_lp_Energy>
10.4199

> <b_lp_Chiralities_Consistent>
1

> <s_lp_Variant>
AV-unprocessed.smi:2209-2

> <Gold.Version>
5.8.1

> <Gold.Id.Protein>
6NUR|6NUR_protein|mol2

> <Gold.PLP.Fitness>
33.6762

> <Gold.PLP.PLP>
-24.6993

> <Gold.PLP.part.hbond>
-3.3171

> <Gold.PLP.part.metal>
0.0000

> <Gold.PLP.part.buried>
-2.6565

> <Gold.PLP.part.nonpolar>
-18.2936

> <Gold.PLP.part.repulsive>
0.0615

> <Gold.PLP.ligand.clash>
0.0000

> <Gold.PLP.ligand.torsion>
0.0283

> <Gold.PLP.Chemscore.Hbond>
3.0000

> <Gold.PLP.Chemscore.CHOScore>
0.0000

> <Gold.PLP.Chemscore.Metal>
0.0000

> <Gold.Chemscore.Hbonds>
donor molecule, donor type, donor heavy atom, donor atom, acceptor molecule, acceptor atom, score
      L1  H    10    26       P1  8028  2.00
      P1  H  7997  8009       L1     3  0.99

> <Gold.PLP.Chemscore.Internal.Correction>
0.0335

> <Gold.Rescore>
     Score         DG    S(hbond)    S(metal)    S(lipo)     H(rot)  DE(clash)    DE(int)     intcor
     13.16     -13.33       0.95        0.00      61.92       1.00       0.13       0.03       ----

> <Gold.Chemscore.Fitness>
13.1642

> <Gold.Chemscore.DG>
-13.3300

> <Gold.Chemscore.ZeroCoef>
-5.4800

> <Gold.Chemscore.Hbond>
0.9478

> <Gold.Chemscore.Metal>
0.0000

> <Gold.Chemscore.Lipo>
61.9166

> <Gold.Chemscore.Internal_Hbond>
0.0000

> <Gold.Chemscore.DEClash>
0.1334

> <Gold.Chemscore.DEInternal>
0.0324

> <Gold.Chemscore.Rot>
1.0000

> <Gold.Chemscore.Internal.Correction>
   9.000000E+99

> <Gold.Chemscore.Hbonds>
donor molecule, donor type, donor heavy atom, donor atom, acceptor molecule, acceptor atom, score
      L1  H    10    26       P1  8028  0.33
      P1  H  7997  8009       L1     3  0.12

> <Gold.Chemscore.Hbond.Weighted>
-3.1657

> <Gold.Chemscore.Metal.Weighted>
-0.0000

> <Gold.Chemscore.Lipo.Weighted>
-7.2442

> <Gold.Chemscore.Internal_Hbond.Weighted>
0.0000

> <Gold.Chemscore.DEClash.Weighted>
0.1334

> <Gold.Chemscore.DEInternal.Weighted>
0.0324

> <Gold.Chemscore.Rot.Weighted>
2.5600

> <Gold.Chemscore.Internal.Correction.Weighted>
   9.000000E+99

> <Gold.Protein.RotatedTorsions>
[ 6907 6896 6895 6894 ] final  -99.96 input  -60.11 | X-H torsion
[ 7974 7965 7964 7962 ] final   27.18 input  175.53 | X-H torsion
[ 8008 7997 7996 7995 ] final  127.52 input   59.86 | X-H torsion
[ 10167 10162 10161 10158 ] final   82.62 input  -65.29 | X-H torsion
[ 10718 10713 10712 10709 ] final -100.42 input   66.30 | X-H torsion
[ 10763 10752 10751 10750 ] final  142.84 input  -60.55 | X-H torsion
[ 11005 11000 10999 10996 ] final  154.01 input  -57.11 | X-H torsion

> <Gold.Protein.ActiveResidues>
 VAL166  LYS551  ARG553  GLY616  TRP617  ASP618  TYR619  PRO620  LYS621  CYS622 
 ASP623  PHE694  ASN695  SER759  ASP760  ASP761  ALA762  ILE779  LEU786  VAL792 
 PHE793  MET794  SER795  GLU796  ALA797  LYS798  CYS799  TRP800  GLU811  SER814 

> <Gold.Protein.RotatedAtoms>
  150.7098  134.0961  159.3948 H   0  0  0  0  0  0  0  0  0  0  0  0  # atno 6907 bound_to 6896
  151.8947  135.0400  160.0510 H   0  0  0  0  0  0  0  0  0  0  0  0  # atno 6908 bound_to 6896
  152.2463  133.5142  159.5336 H   0  0  0  0  0  0  0  0  0  0  0  0  # atno 6909 bound_to 6896
  146.1798  139.7227  142.8908 H   0  0  0  0  0  0  0  0  0  0  0  0  # atno 7974 bound_to 7965
  156.2893  140.2667  156.2287 H   0  0  0  0  0  0  0  0  0  0  0  0  # atno 8008 bound_to 7997
  155.0094  140.0387  157.2411 H   0  0  0  0  0  0  0  0  0  0  0  0  # atno 8009 bound_to 7997
  154.7531  140.2747  155.6281 H   0  0  0  0  0  0  0  0  0  0  0  0  # atno 8010 bound_to 7997
  139.9269  144.6177  150.8384 H   0  0  0  0  0  0  0  0  0  0  0  0  # atno 10167 bound_to 10162
  156.0162  130.5327  150.6814 H   0  0  0  0  0  0  0  0  0  0  0  0  # atno 10718 bound_to 10713
  153.9625  135.2959  155.3432 H   0  0  0  0  0  0  0  0  0  0  0  0  # atno 10763 bound_to 10752
  154.7367  135.5043  153.9057 H   0  0  0  0  0  0  0  0  0  0  0  0  # atno 10764 bound_to 10752
  153.0940  135.6716  153.9910 H   0  0  0  0  0  0  0  0  0  0  0  0  # atno 10765 bound_to 10752
  140.1450  134.8713  157.2381 H   0  0  0  0  0  0  0  0  0  0  0  0  # atno 11005 bound_to 11000
  145.4108  141.0396  143.3018 LP  0  0  0  0  0  0  0  0  0  0  0  0  # atno 17320 bound_to 7965
  144.8296  139.5651  143.6950 LP  0  0  0  0  0  0  0  0  0  0  0  0  # atno 17321 bound_to 7965
  140.7648  143.3257  151.2521 LP  0  0  0  0  0  0  0  0  0  0  0  0  # atno 17342 bound_to 10162
  139.6815  143.9847  152.2811 LP  0  0  0  0  0  0  0  0  0  0  0  0  # atno 17343 bound_to 10162
  157.4516  131.0873  151.0840 LP  0  0  0  0  0  0  0  0  0  0  0  0  # atno 17370 bound_to 10713
  157.1354  130.6120  149.5541 LP  0  0  0  0  0  0  0  0  0  0  0  0  # atno 17371 bound_to 10713
  140.2674  134.3500  155.7385 LP  0  0  0  0  0  0  0  0  0  0  0  0  # atno 17394 bound_to 11000
  141.2191  133.7404  156.9172 LP  0  0  0  0  0  0  0  0  0  0  0  0  # atno 17395 bound_to 11000

$$$$
