AV-unprocessed.smi:806|AV-procd|sdf|3800|dock9
  -GOLD-   22720 1233D 1   1.00000     0.00000
 Structure written by MMmdl.
 45 46  0  0  0  0  0  0  0  0  2 V2000
  147.4322  140.9620  153.1173 C   0  0  0  0  0  0  0  0  0  0  0  0
  147.8244  139.7798  153.9085 N   0  0  0  0  0  0  0  0  0  0  0  0
  147.2703  138.5530  153.6840 C   0  0  0  0  0  0  0  0  0  0  0  0
  147.6026  137.5537  154.3237 O   0  0  0  0  0  0  0  0  0  0  0  0
  146.1854  138.3805  152.6020 C   0  0  0  0  0  0  0  0  0  0  0  0
  146.4205  137.2178  151.7176 N   0  3  0  0  0  0  0  0  0  0  0  0
  145.5619  136.0437  151.9868 C   0  0  0  0  0  0  0  0  0  0  0  0
  145.0611  135.4113  150.6783 C   0  0  0  0  0  0  0  0  0  0  0  0
  145.0979  133.9601  150.7236 N   0  0  0  0  0  0  0  0  0  0  0  0
  144.0536  133.0697  150.5868 C   0  0  0  0  0  0  0  0  0  0  0  0
  144.5724  131.8130  150.7127 C   0  0  0  0  0  0  0  0  0  0  0  0
  145.9622  132.0394  150.9169 C   0  0  0  0  0  0  0  0  0  0  0  0
  146.2735  133.3255  150.9195 N   0  0  0  0  0  0  0  0  0  0  0  0
  148.8800  139.9771  154.9545 C   0  0  0  0  0  0  0  0  0  0  0  0
  148.3479  139.6507  156.2970 C   0  0  0  0  0  0  0  0  0  0  0  0
  147.9333  139.3955  157.3473 N   0  0  0  0  0  0  0  0  0  0  0  0
  150.0987  139.0689  154.6235 C   0  0  0  0  0  0  0  0  0  0  0  0
  151.2511  139.2159  155.6334 C   0  0  0  0  0  0  0  0  0  0  0  0
  151.7187  140.6733  155.7387 C   0  0  0  0  0  0  0  0  0  0  0  0
  150.5469  141.6076  156.0667 C   0  0  0  0  0  0  0  0  0  0  0  0
  149.4102  141.4426  155.0414 C   0  0  0  0  0  0  0  0  0  0  0  0
  146.6847  140.7962  152.3453 H   0  0  0  0  0  0  0  0  0  0  0  0
  148.2999  141.3690  152.5982 H   0  0  0  0  0  0  0  0  0  0  0  0
  147.0164  141.7365  153.7612 H   0  0  0  0  0  0  0  0  0  0  0  0
  145.2293  138.2130  153.0986 H   0  0  0  0  0  0  0  0  0  0  0  0
  146.0946  139.2827  151.9956 H   0  0  0  0  0  0  0  0  0  0  0  0
  146.2685  137.5184  150.7648 H   0  0  0  0  0  0  0  0  0  0  0  0
  146.1328  135.3120  152.5591 H   0  0  0  0  0  0  0  0  0  0  0  0
  144.7126  136.3313  152.6078 H   0  0  0  0  0  0  0  0  0  0  0  0
  144.0406  135.7323  150.4659 H   0  0  0  0  0  0  0  0  0  0  0  0
  145.6763  135.7432  149.8408 H   0  0  0  0  0  0  0  0  0  0  0  0
  143.0386  133.3990  150.4188 H   0  0  0  0  0  0  0  0  0  0  0  0
  144.0410  130.8741  150.6640 H   0  0  0  0  0  0  0  0  0  0  0  0
  146.7485  131.3132  151.0615 H   0  0  0  0  0  0  0  0  0  0  0  0
  149.8104  138.0188  154.5919 H   0  0  0  0  0  0  0  0  0  0  0  0
  150.4678  139.3071  153.6249 H   0  0  0  0  0  0  0  0  0  0  0  0
  150.9342  138.8592  156.6140 H   0  0  0  0  0  0  0  0  0  0  0  0
  152.0867  138.5824  155.3344 H   0  0  0  0  0  0  0  0  0  0  0  0
  152.4928  140.7627  156.5016 H   0  0  0  0  0  0  0  0  0  0  0  0
  152.1762  140.9784  154.7967 H   0  0  0  0  0  0  0  0  0  0  0  0
  150.1830  141.4046  157.0745 H   0  0  0  0  0  0  0  0  0  0  0  0
  150.8921  142.6418  156.0715 H   0  0  0  0  0  0  0  0  0  0  0  0
  149.7986  141.7800  154.0808 H   0  0  0  0  0  0  0  0  0  0  0  0
  148.6002  142.1215  155.3109 H   0  0  0  0  0  0  0  0  0  0  0  0
  147.3825  136.9271  151.8156 H   0  0  0  0  0  0  0  0  0  0  0  0
  1  2  1  0  0  0  0
  1 22  1  0  0  0  0
  1 23  1  0  0  0  0
  1 24  1  0  0  0  0
  2  3  1  0  0  0  0
  2 14  1  0  0  0  0
  3  4  2  0  0  0  0
  3  5  1  0  0  0  0
  5  6  1  0  0  0  0
  5 25  1  0  0  0  0
  5 26  1  0  0  0  0
  6  7  1  0  0  0  0
  6 27  1  0  0  0  0
  6 45  1  0  0  0  0
  7  8  1  0  0  0  0
  7 28  1  0  0  0  0
  7 29  1  0  0  0  0
  8  9  1  0  0  0  0
  8 30  1  0  0  0  0
  8 31  1  0  0  0  0
  9 13  1  0  0  0  0
  9 10  1  0  0  0  0
 10 11  2  0  0  0  0
 10 32  1  0  0  0  0
 11 12  1  0  0  0  0
 11 33  1  0  0  0  0
 12 13  2  0  0  0  0
 12 34  1  0  0  0  0
 14 21  1  0  0  0  0
 14 15  1  0  0  0  0
 14 17  1  0  0  0  0
 15 16  3  0  0  0  0
 17 18  1  0  0  0  0
 17 35  1  0  0  0  0
 17 36  1  0  0  0  0
 18 19  1  0  0  0  0
 18 37  1  0  0  0  0
 18 38  1  0  0  0  0
 19 20  1  0  0  0  0
 19 39  1  0  0  0  0
 19 40  1  0  0  0  0
 20 21  1  0  0  0  0
 20 41  1  0  0  0  0
 20 42  1  0  0  0  0
 21 43  1  0  0  0  0
 21 44  1  0  0  0  0
M  CHG  1   6   1
M  END
> <s_m_source_file>
AV-unprocessed.smi

> <i_m_source_file_index>
806

> <i_lp_mmshare_version>
43012

> <i_f3d_flags>
0

> <s_epik_input>
W0NIMl0xW0NIMl1bQ0gyXVtDSDJdW0NIMl1DMShDI04pTihbQ0gzXSlDKD1PKVtDSDJdW05IXVtDSDJdW0NIMl1uMltjSF1bY0hdW2NIXW4y

> <s_epik_cmdline>
J2VwaWtfcHl0aG9uJywgJy1waCcsICc3LjAnLCAnLXRuJywgJzgnLCAnLW1hJywgJzIwMCcsICctbWV0YWxfYmluZGluZycsICctaW1hZScsICc8aW5maWxlLm1hZT4nLCAnLW9tYWUnLCAnPG91dGZpbGUubWFlPic=

> <r_lp_tautomer_probability>
1

> <r_epik_Ionization_Penalty>
0.349033

> <r_epik_Ionization_Penalty_Charging>
0.349031

> <r_epik_Ionization_Penalty_Neutral>
2.24604e-06

> <r_epik_State_Penalty>
0.345151

> <r_epik_Charging_Adjusted_Penalty>
0.694182

> <i_epik_Tot_Q>
1

> <i_epik_Tot_abs_Q>
1

> <r_epik_Metal_State_Penalty>
0.345887

> <b_epik_Metal_Only>
0

> <s_lp_Force_Field>
OPLS_2005

> <r_lp_Energy>
26.3561

> <b_lp_Chiralities_Consistent>
1

> <s_lp_Variant>
AV-unprocessed.smi:806-1

> <Gold.Version>
5.8.1

> <Gold.Id.Protein>
6NUR|6NUR_protein|mol2

> <Gold.PLP.Fitness>
47.1318

> <Gold.PLP.PLP>
-37.1557

> <Gold.PLP.part.hbond>
-1.0000

> <Gold.PLP.part.metal>
0.0000

> <Gold.PLP.part.buried>
-4.6748

> <Gold.PLP.part.nonpolar>
-33.1474

> <Gold.PLP.part.repulsive>
0.8210

> <Gold.PLP.ligand.clash>
0.0000

> <Gold.PLP.ligand.torsion>
1.0543

> <Gold.PLP.Chemscore.Hbond>
2.0000

> <Gold.PLP.Chemscore.CHOScore>
2.0000

> <Gold.PLP.Chemscore.Metal>
0.0000

> <Gold.Chemscore.Hbonds>
donor molecule, donor type, donor heavy atom, donor atom, acceptor molecule, acceptor atom, score
      L1  H     6    45       P1  7948  2.00
      L1  C    10    32       P1 10186  1.00
      L1  C    12    34       P1 10747  1.00

> <Gold.PLP.Chemscore.Internal.Correction>
0.0848

> <Gold.Rescore>
     Score         DG    S(hbond)    S(metal)    S(lipo)     H(rot)  DE(clash)    DE(int)     intcor
     11.23     -14.68       1.00        0.00      95.82       2.09       0.10       3.36       ----

> <Gold.Chemscore.Fitness>
11.2271

> <Gold.Chemscore.DG>
-14.6818

> <Gold.Chemscore.ZeroCoef>
-5.4800

> <Gold.Chemscore.Hbond>
1.0000

> <Gold.Chemscore.Metal>
0.0000

> <Gold.Chemscore.Lipo>
95.8155

> <Gold.Chemscore.Internal_Hbond>
0.0000

> <Gold.Chemscore.DEClash>
0.0965

> <Gold.Chemscore.DEInternal>
3.3581

> <Gold.Chemscore.Rot>
2.0893

> <Gold.Chemscore.Internal.Correction>
   9.000000E+99

> <Gold.Chemscore.Hbonds>
donor molecule, donor type, donor heavy atom, donor atom, acceptor molecule, acceptor atom, score
      L1  H     6    45       P1  7948  1.00

> <Gold.Chemscore.Hbond.Weighted>
-3.3400

> <Gold.Chemscore.Metal.Weighted>
-0.0000

> <Gold.Chemscore.Lipo.Weighted>
-11.2104

> <Gold.Chemscore.Internal_Hbond.Weighted>
0.0000

> <Gold.Chemscore.DEClash.Weighted>
0.0965

> <Gold.Chemscore.DEInternal.Weighted>
3.3581

> <Gold.Chemscore.Rot.Weighted>
5.3486

> <Gold.Chemscore.Internal.Correction.Weighted>
   9.000000E+99

> <Gold.Protein.RotatedTorsions>
[ 6907 6896 6895 6894 ] final   37.60 input  -60.11 | X-H torsion
[ 7974 7965 7964 7962 ] final -127.44 input  175.53 | X-H torsion
[ 8008 7997 7996 7995 ] final   65.06 input   59.86 | X-H torsion
[ 10167 10162 10161 10158 ] final  178.78 input  -65.29 | X-H torsion
[ 10718 10713 10712 10709 ] final  -15.16 input   66.30 | X-H torsion
[ 10763 10752 10751 10750 ] final  -43.68 input  -60.55 | X-H torsion
[ 11005 11000 10999 10996 ] final  100.52 input  -57.11 | X-H torsion

> <Gold.Protein.ActiveResidues>
 VAL166  LYS551  ARG553  GLY616  TRP617  ASP618  TYR619  PRO620  LYS621  CYS622 
 ASP623  PHE694  ASN695  SER759  ASP760  ASP761  ALA762  ILE779  LEU786  VAL792 
 PHE793  MET794  SER795  GLU796  ALA797  LYS798  CYS799  TRP800  GLU811  SER814 

> <Gold.Protein.RotatedAtoms>
  152.1454  134.9030  160.0551 H   0  0  0  0  0  0  0  0  0  0  0  0  # atno 6907 bound_to 6896
  152.0082  133.3846  159.4217 H   0  0  0  0  0  0  0  0  0  0  0  0  # atno 6908 bound_to 6896
  150.6869  134.3681  159.5024 H   0  0  0  0  0  0  0  0  0  0  0  0  # atno 6909 bound_to 6896
  144.9771  140.7603  143.4635 H   0  0  0  0  0  0  0  0  0  0  0  0  # atno 7974 bound_to 7965
  155.6558  140.3497  155.4764 H   0  0  0  0  0  0  0  0  0  0  0  0  # atno 8008 bound_to 7997
  155.9810  140.1174  157.0749 H   0  0  0  0  0  0  0  0  0  0  0  0  # atno 8009 bound_to 7997
  154.4191  140.1138  156.5421 H   0  0  0  0  0  0  0  0  0  0  0  0  # atno 8010 bound_to 7997
  139.5308  144.2639  152.0684 H   0  0  0  0  0  0  0  0  0  0  0  0  # atno 10167 bound_to 10162
  156.6057  130.4836  149.6221 H   0  0  0  0  0  0  0  0  0  0  0  0  # atno 10718 bound_to 10713
  153.9995  135.6695  153.4758 H   0  0  0  0  0  0  0  0  0  0  0  0  # atno 10763 bound_to 10752
  153.0669  135.4996  154.8215 H   0  0  0  0  0  0  0  0  0  0  0  0  # atno 10764 bound_to 10752
  154.7061  135.3088  154.9231 H   0  0  0  0  0  0  0  0  0  0  0  0  # atno 10765 bound_to 10752
  139.8771  134.9144  156.4769 H   0  0  0  0  0  0  0  0  0  0  0  0  # atno 11005 bound_to 11000
  145.2474  139.2046  143.4960 LP  0  0  0  0  0  0  0  0  0  0  0  0  # atno 17320 bound_to 7965
  146.3398  140.2381  142.8595 LP  0  0  0  0  0  0  0  0  0  0  0  0  # atno 17321 bound_to 7965
  140.2102  144.4570  150.6389 LP  0  0  0  0  0  0  0  0  0  0  0  0  # atno 17342 bound_to 10162
  140.6485  143.2219  151.6131 LP  0  0  0  0  0  0  0  0  0  0  0  0  # atno 17343 bound_to 10162
  156.2431  130.6863  151.1575 LP  0  0  0  0  0  0  0  0  0  0  0  0  # atno 17370 bound_to 10713
  157.7268  131.0644  150.5895 LP  0  0  0  0  0  0  0  0  0  0  0  0  # atno 17371 bound_to 10713
  140.8756  133.7956  155.9411 LP  0  0  0  0  0  0  0  0  0  0  0  0  # atno 17394 bound_to 11000
  140.8908  134.2498  157.5095 LP  0  0  0  0  0  0  0  0  0  0  0  0  # atno 17395 bound_to 11000

$$$$
