AV-unprocessed.smi:1875|AV-procd|sdf|7612|dock2
  -GOLD-   22720 9333D 1   1.00000     0.00000
 Structure written by MMmdl.
 48 50  0  0  0  0  0  0  0  0  2 V2000
  143.0949  136.3846  153.6366 C   0  0  0  0  0  0  0  0  0  0  0  0
  144.3190  136.6754  152.7932 C   0  0  0  0  0  0  0  0  0  0  0  0
  144.4676  135.9549  151.6774 N   0  0  0  0  0  0  0  0  0  0  0  0
  145.5544  136.2165  150.9192 C   0  0  0  0  0  0  0  0  0  0  0  0
  146.4924  137.2040  151.2837 C   0  0  0  0  0  0  0  0  0  0  0  0
  146.2265  137.9031  152.4798 C   0  0  0  0  0  0  0  0  0  0  0  0
  147.1645  138.9747  152.9937 C   0  0  0  0  0  0  0  0  0  0  0  0
  148.5429  138.4554  153.0581 N   0  3  0  0  0  0  0  0  0  0  0  0
  149.1664  138.5556  154.3924 C   0  0  0  0  0  0  0  0  0  0  0  0
  150.6913  138.7148  154.2810 C   0  0  2  0  0  0  0  0  0  0  0  0
  151.2432  137.5027  153.8026 O   0  0  0  0  0  0  0  0  0  0  0  0
  151.3365  139.0770  155.6325 C   0  0  0  0  0  0  0  0  0  0  0  0
  151.0783  140.4527  156.0188 N   0  0  0  0  0  0  0  0  0  0  0  0
  150.2562  141.3246  155.4038 C   0  0  0  0  0  0  0  0  0  0  0  0
  150.1649  142.5453  155.9222 N   0  0  0  0  0  0  0  0  0  0  0  0
  151.0283  142.4558  157.0005 C   0  0  0  0  0  0  0  0  0  0  0  0
  151.3878  143.4182  157.9689 C   0  0  0  0  0  0  0  0  0  0  0  0
  152.3052  143.1045  158.9969 C   0  0  0  0  0  0  0  0  0  0  0  0
  152.6652  144.1715  160.0157 C   0  0  0  0  0  0  0  0  0  0  0  0
  152.8774  141.8089  159.0676 C   0  0  0  0  0  0  0  0  0  0  0  0
  153.8642  141.4492  160.1642 C   0  0  0  0  0  0  0  0  0  0  0  0
  152.5292  140.8351  158.1082 C   0  0  0  0  0  0  0  0  0  0  0  0
  151.6156  141.1596  157.0896 C   0  0  0  0  0  0  0  0  0  0  0  0
  145.1396  137.6334  153.2363 N   0  0  0  0  0  0  0  0  0  0  0  0
  142.7173  135.3784  153.4502 H   0  0  0  0  0  0  0  0  0  0  0  0
  142.3025  137.0963  153.4041 H   0  0  0  0  0  0  0  0  0  0  0  0
  143.3275  136.4645  154.6991 H   0  0  0  0  0  0  0  0  0  0  0  0
  145.6782  135.6335  150.0185 H   0  0  0  0  0  0  0  0  0  0  0  0
  147.3616  137.4095  150.6763 H   0  0  0  0  0  0  0  0  0  0  0  0
  147.1265  139.8449  152.3370 H   0  0  0  0  0  0  0  0  0  0  0  0
  146.8432  139.3004  153.9843 H   0  0  0  0  0  0  0  0  0  0  0  0
  148.5275  137.4829  152.7837 H   0  0  0  0  0  0  0  0  0  0  0  0
  148.7423  139.4214  154.9028 H   0  0  0  0  0  0  0  0  0  0  0  0
  148.9138  137.6776  154.9891 H   0  0  0  0  0  0  0  0  0  0  0  0
  150.9191  139.5011  153.5594 H   0  0  0  0  0  0  0  0  0  0  0  0
  150.9952  137.3911  152.8973 H   0  0  0  0  0  0  0  0  0  0  0  0
  150.9508  138.4271  156.4192 H   0  0  0  0  0  0  0  0  0  0  0  0
  152.4151  138.9178  155.6000 H   0  0  0  0  0  0  0  0  0  0  0  0
  149.6941  141.0476  154.5238 H   0  0  0  0  0  0  0  0  0  0  0  0
  150.9513  144.4048  157.9151 H   0  0  0  0  0  0  0  0  0  0  0  0
  153.7385  144.3624  160.0065 H   0  0  0  0  0  0  0  0  0  0  0  0
  152.3773  143.8548  161.0186 H   0  0  0  0  0  0  0  0  0  0  0  0
  152.1570  145.1126  159.8029 H   0  0  0  0  0  0  0  0  0  0  0  0
  154.1945  140.4134  160.0792 H   0  0  0  0  0  0  0  0  0  0  0  0
  153.4066  141.5745  161.1459 H   0  0  0  0  0  0  0  0  0  0  0  0
  154.7462  142.0874  160.1085 H   0  0  0  0  0  0  0  0  0  0  0  0
  152.9596  139.8457  158.1506 H   0  0  0  0  0  0  0  0  0  0  0  0
  149.1090  138.9656  152.3955 H   0  0  0  0  0  0  0  0  0  0  0  0
  1  2  1  0  0  0  0
  1 25  1  0  0  0  0
  1 26  1  0  0  0  0
  1 27  1  0  0  0  0
  2 24  1  0  0  0  0
  2  3  2  0  0  0  0
  3  4  1  0  0  0  0
  4  5  2  0  0  0  0
  4 28  1  0  0  0  0
  5  6  1  0  0  0  0
  5 29  1  0  0  0  0
  6  7  1  0  0  0  0
  6 24  2  0  0  0  0
  7  8  1  0  0  0  0
  7 30  1  0  0  0  0
  7 31  1  0  0  0  0
  8  9  1  0  0  0  0
  8 32  1  0  0  0  0
  8 48  1  0  0  0  0
  9 10  1  0  0  0  0
  9 33  1  0  0  0  0
  9 34  1  0  0  0  0
 10 11  1  0  0  0  0
 10 12  1  0  0  0  0
 10 35  1  0  0  0  0
 11 36  1  0  0  0  0
 12 13  1  0  0  0  0
 12 37  1  0  0  0  0
 12 38  1  0  0  0  0
 13 23  1  0  0  0  0
 13 14  1  0  0  0  0
 14 15  2  0  0  0  0
 14 39  1  0  0  0  0
 15 16  1  0  0  0  0
 16 23  2  0  0  0  0
 16 17  1  0  0  0  0
 17 18  2  0  0  0  0
 17 40  1  0  0  0  0
 18 19  1  0  0  0  0
 18 20  1  0  0  0  0
 19 41  1  0  0  0  0
 19 42  1  0  0  0  0
 19 43  1  0  0  0  0
 20 21  1  0  0  0  0
 20 22  2  0  0  0  0
 21 44  1  0  0  0  0
 21 45  1  0  0  0  0
 21 46  1  0  0  0  0
 22 23  1  0  0  0  0
 22 47  1  0  0  0  0
M  CHG  1   8   1
M  END
> <s_m_source_file>
AV-unprocessed.smi

> <i_m_source_file_index>
1875

> <i_lp_mmshare_version>
43012

> <i_f3d_flags>
0

> <s_epik_input>
W0NIM11jMW5bY0hdW2NIXWMobjEpW0NIMl1bTkhdW0NIMl1bQ0BIXShbT0hdKVtDSDJdbihbY0hdbjIpYyhjMjMpW2NIXWMoW0NIM10pYyhbY0hdMylbQ0gzXQ==

> <s_epik_cmdline>
J2VwaWtfcHl0aG9uJywgJy1waCcsICc3LjAnLCAnLXRuJywgJzgnLCAnLW1hJywgJzIwMCcsICctbWV0YWxfYmluZGluZycsICctaW1hZScsICc8aW5maWxlLm1hZT4nLCAnLW9tYWUnLCAnPG91dGZpbGUubWFlPic=

> <r_lp_tautomer_probability>
1

> <r_epik_Ionization_Penalty>
0.192455

> <r_epik_Ionization_Penalty_Charging>
0.102343

> <r_epik_Ionization_Penalty_Neutral>
0.0901122

> <r_epik_State_Penalty>
0.175389

> <r_epik_Charging_Adjusted_Penalty>
0.277732

> <i_epik_Tot_Q>
1

> <i_epik_Tot_abs_Q>
1

> <r_epik_Metal_State_Penalty>
0.167659

> <b_epik_Metal_Only>
0

> <s_epik_Chemistry_Notes>
This compound contains an electron-poor aromatic ring that is susceptible to covalent hydrolysis at low pH, typically resulting in measured values for nitrogen ring protonation that are around two units higher than predicted values.

> <s_lp_Force_Field>
OPLS_2005

> <r_lp_Energy>
2.18652

> <b_lp_Chiralities_Consistent>
1

> <s_lp_Variant>
AV-unprocessed.smi:1875-1

> <Gold.Version>
5.8.1

> <Gold.Id.Protein>
6NUR|6NUR_protein|mol2

> <Gold.PLP.Fitness>
58.5765

> <Gold.PLP.PLP>
-45.5662

> <Gold.PLP.part.hbond>
-3.4896

> <Gold.PLP.part.metal>
0.0000

> <Gold.PLP.part.buried>
-0.9660

> <Gold.PLP.part.nonpolar>
-45.4415

> <Gold.PLP.part.repulsive>
4.4254

> <Gold.PLP.ligand.clash>
0.0000

> <Gold.PLP.ligand.torsion>
0.8107

> <Gold.PLP.Chemscore.Hbond>
3.7680

> <Gold.PLP.Chemscore.CHOScore>
1.0000

> <Gold.PLP.Chemscore.Metal>
0.0000

> <Gold.Chemscore.Hbonds>
donor molecule, donor type, donor heavy atom, donor atom, acceptor molecule, acceptor atom, score
      L1  H     8    32       P1  7948  2.00
      L1  H     8    48       P1  7957  1.00
      L1  H    11    36       P1  7949  0.75
      L1  C     4    28       P1  7921  0.95

> <Gold.PLP.Chemscore.Internal.Correction>
0.3278

> <Gold.Rescore>
     Score         DG    S(hbond)    S(metal)    S(lipo)     H(rot)  DE(clash)    DE(int)     intcor
     16.82     -20.93       2.12        0.00     132.89       2.80       3.29       0.82       ----

> <Gold.Chemscore.Fitness>
16.8158

> <Gold.Chemscore.DG>
-20.9285

> <Gold.Chemscore.ZeroCoef>
-5.4800

> <Gold.Chemscore.Hbond>
2.1200

> <Gold.Chemscore.Metal>
0.0000

> <Gold.Chemscore.Lipo>
132.8873

> <Gold.Chemscore.Internal_Hbond>
0.0000

> <Gold.Chemscore.DEClash>
3.2941

> <Gold.Chemscore.DEInternal>
0.8185

> <Gold.Chemscore.Rot>
2.8047

> <Gold.Chemscore.Internal.Correction>
   9.000000E+99

> <Gold.Chemscore.Hbonds>
donor molecule, donor type, donor heavy atom, donor atom, acceptor molecule, acceptor atom, score
      L1  H     8    32       P1  7948  0.95
      L1  H     8    48       P1  7957  0.97
      L1  H    11    36       P1  7949  0.19

> <Gold.Chemscore.Hbond.Weighted>
-7.0808

> <Gold.Chemscore.Metal.Weighted>
-0.0000

> <Gold.Chemscore.Lipo.Weighted>
-15.5478

> <Gold.Chemscore.Internal_Hbond.Weighted>
0.0000

> <Gold.Chemscore.DEClash.Weighted>
3.2941

> <Gold.Chemscore.DEInternal.Weighted>
0.8185

> <Gold.Chemscore.Rot.Weighted>
7.1801

> <Gold.Chemscore.Internal.Correction.Weighted>
   9.000000E+99

> <Gold.Protein.RotatedTorsions>
[ 6907 6896 6895 6894 ] final -177.98 input  -60.11 | X-H torsion
[ 7974 7965 7964 7962 ] final  -63.54 input  175.53 | X-H torsion
[ 8008 7997 7996 7995 ] final  -65.76 input   59.86 | X-H torsion
[ 10167 10162 10161 10158 ] final  160.50 input  -65.29 | X-H torsion
[ 10718 10713 10712 10709 ] final  -21.19 input   66.30 | X-H torsion
[ 10763 10752 10751 10750 ] final  161.66 input  -60.55 | X-H torsion
[ 11005 11000 10999 10996 ] final   64.62 input  -57.11 | X-H torsion

> <Gold.Protein.ActiveResidues>
 VAL166  LYS551  ARG553  GLY616  TRP617  ASP618  TYR619  PRO620  LYS621  CYS622 
 ASP623  PHE694  ASN695  SER759  ASP760  ASP761  ALA762  ILE779  LEU786  VAL792 
 PHE793  MET794  SER795  GLU796  ALA797  LYS798  CYS799  TRP800  GLU811  SER814 

> <Gold.Protein.RotatedAtoms>
  151.6298  133.3333  159.3105 H   0  0  0  0  0  0  0  0  0  0  0  0  # atno 6907 bound_to 6896
  150.8062  134.7193  159.6658 H   0  0  0  0  0  0  0  0  0  0  0  0  # atno 6908 bound_to 6896
  152.4158  134.6049  160.0061 H   0  0  0  0  0  0  0  0  0  0  0  0  # atno 6909 bound_to 6896
  145.7778  140.8778  143.0346 H   0  0  0  0  0  0  0  0  0  0  0  0  # atno 7974 bound_to 7965
  154.4692  140.0926  156.7099 H   0  0  0  0  0  0  0  0  0  0  0  0  # atno 8008 bound_to 7997
  155.4773  140.3466  155.4316 H   0  0  0  0  0  0  0  0  0  0  0  0  # atno 8009 bound_to 7997
  156.1009  140.1422  156.9457 H   0  0  0  0  0  0  0  0  0  0  0  0  # atno 8010 bound_to 7997
  139.4840  144.4628  151.8682 H   0  0  0  0  0  0  0  0  0  0  0  0  # atno 10167 bound_to 10162
  156.5215  130.4633  149.6594 H   0  0  0  0  0  0  0  0  0  0  0  0  # atno 10718 bound_to 10713
  154.2664  135.2767  155.2756 H   0  0  0  0  0  0  0  0  0  0  0  0  # atno 10763 bound_to 10752
  154.5339  135.5722  153.6785 H   0  0  0  0  0  0  0  0  0  0  0  0  # atno 10764 bound_to 10752
  152.9953  135.6234  154.2817 H   0  0  0  0  0  0  0  0  0  0  0  0  # atno 10765 bound_to 10752
  139.9947  134.6536  156.0031 H   0  0  0  0  0  0  0  0  0  0  0  0  # atno 11005 bound_to 11000
  144.6801  139.9946  143.7484 LP  0  0  0  0  0  0  0  0  0  0  0  0  # atno 17320 bound_to 7965
  146.0105  139.3165  143.0873 LP  0  0  0  0  0  0  0  0  0  0  0  0  # atno 17321 bound_to 7965
  140.4091  144.2393  150.5889 LP  0  0  0  0  0  0  0  0  0  0  0  0  # atno 17342 bound_to 10162
  140.4983  143.2325  151.8716 LP  0  0  0  0  0  0  0  0  0  0  0  0  # atno 17343 bound_to 10162
  156.3145  130.7247  151.2146 LP  0  0  0  0  0  0  0  0  0  0  0  0  # atno 17370 bound_to 10713
  157.7436  131.0472  150.4933 LP  0  0  0  0  0  0  0  0  0  0  0  0  # atno 17371 bound_to 10713
  141.1594  133.6540  156.4270 LP  0  0  0  0  0  0  0  0  0  0  0  0  # atno 17394 bound_to 11000
  140.4841  134.6637  157.5183 LP  0  0  0  0  0  0  0  0  0  0  0  0  # atno 17395 bound_to 11000

$$$$
