AV-unprocessed.smi:2159|AV-procd|sdf|8795|dock5
  -GOLD-   2272011573D 1   1.00000     0.00000
 Structure written by MMmdl.
 48 50  0  0  0  0  0  0  0  0  2 V2000
  150.8215  139.6353  154.3286 O   0  0  0  0  0  0  0  0  0  0  0  0
  151.7619  139.3169  155.0557 C   0  0  0  0  0  0  0  0  0  0  0  0
  152.3612  140.3327  156.0290 C   0  0  0  0  0  0  0  0  0  0  0  0
  151.3207  140.8236  157.0556 C   0  0  0  0  0  0  0  0  0  0  0  0
  151.9616  141.4981  158.1881 N   0  0  0  0  0  0  0  0  0  0  0  0
  153.0569  141.0372  158.8081 C   0  0  0  0  0  0  0  0  0  0  0  0
  153.6625  139.9998  158.5355 O   0  0  0  0  0  0  0  0  0  0  0  0
  153.4965  141.9828  159.9229 C   0  0  2  0  0  0  0  0  0  0  0  0
  153.5833  141.2744  161.2911 C   0  0  0  0  0  0  0  0  0  0  0  0
  153.6812  142.2943  162.4385 C   0  0  0  0  0  0  0  0  0  0  0  0
  152.5742  143.3716  162.4010 C   0  0  0  0  0  0  0  0  0  0  0  0
  151.6367  143.2517  161.1861 C   0  0  0  0  0  0  0  0  0  0  0  0
  152.4282  143.0966  159.8704 C   0  0  2  0  0  0  0  0  0  0  0  0
  151.5330  142.6532  158.7156 C   0  0  0  0  0  0  0  0  0  0  0  0
  150.5559  143.3027  158.3436 O   0  0  0  0  0  0  0  0  0  0  0  0
  152.2953  138.0860  155.0758 N   0  0  0  0  0  0  0  0  0  0  0  0
  151.7978  136.9399  154.3207 C   0  0  0  0  0  0  0  0  0  0  0  0
  150.8542  136.0395  155.1467 C   0  0  0  0  0  0  0  0  0  0  0  0
  150.9328  134.5686  154.7729 C   0  0  0  0  0  0  0  0  0  0  0  0
  151.6201  133.6278  155.5711 C   0  0  0  0  0  0  0  0  0  0  0  0
  151.6788  132.2818  155.1553 C   0  0  0  0  0  0  0  0  0  0  0  0
  151.0448  131.9034  153.9539 C   0  0  0  0  0  0  0  0  0  0  0  0
  150.3678  132.8823  153.1980 C   0  0  0  0  0  0  0  0  0  0  0  0
  150.3370  134.1630  153.6283 N   0  3  0  0  0  0  0  0  0  0  0  0
  153.2042  139.8694  156.5450 H   0  0  0  0  0  0  0  0  0  0  0  0
  152.7671  141.1758  155.4691 H   0  0  0  0  0  0  0  0  0  0  0  0
  150.6061  141.4906  156.5700 H   0  0  0  0  0  0  0  0  0  0  0  0
  150.7255  139.9880  157.4290 H   0  0  0  0  0  0  0  0  0  0  0  0
  154.4709  142.3997  159.6645 H   0  0  0  0  0  0  0  0  0  0  0  0
  152.7094  140.6394  161.4474 H   0  0  0  0  0  0  0  0  0  0  0  0
  154.4484  140.6107  161.3146 H   0  0  0  0  0  0  0  0  0  0  0  0
  153.6584  141.7725  163.3955 H   0  0  0  0  0  0  0  0  0  0  0  0
  154.6536  142.7860  162.3905 H   0  0  0  0  0  0  0  0  0  0  0  0
  151.9848  143.3282  163.3173 H   0  0  0  0  0  0  0  0  0  0  0  0
  153.0414  144.3572  162.3947 H   0  0  0  0  0  0  0  0  0  0  0  0
  150.9746  142.3960  161.3294 H   0  0  0  0  0  0  0  0  0  0  0  0
  150.9893  144.1279  161.1344 H   0  0  0  0  0  0  0  0  0  0  0  0
  152.8983  144.0458  159.6095 H   0  0  0  0  0  0  0  0  0  0  0  0
  153.0742  137.9199  155.6969 H   0  0  0  0  0  0  0  0  0  0  0  0
  151.3057  137.2731  153.4057 H   0  0  0  0  0  0  0  0  0  0  0  0
  152.6673  136.3605  154.0090 H   0  0  0  0  0  0  0  0  0  0  0  0
  151.0875  136.1411  156.2073 H   0  0  0  0  0  0  0  0  0  0  0  0
  149.8254  136.3831  155.0344 H   0  0  0  0  0  0  0  0  0  0  0  0
  152.1063  133.9346  156.4858 H   0  0  0  0  0  0  0  0  0  0  0  0
  152.2062  131.5499  155.7496 H   0  0  0  0  0  0  0  0  0  0  0  0
  151.0786  130.8774  153.6176 H   0  0  0  0  0  0  0  0  0  0  0  0
  149.8562  132.6817  152.2679 H   0  0  0  0  0  0  0  0  0  0  0  0
  149.8440  134.8549  153.0632 H   0  0  0  0  0  0  0  0  0  0  0  0
  1  2  2  0  0  0  0
  2  3  1  0  0  0  0
  2 16  1  0  0  0  0
  3  4  1  0  0  0  0
  3 25  1  0  0  0  0
  3 26  1  0  0  0  0
  4  5  1  0  0  0  0
  4 27  1  0  0  0  0
  4 28  1  0  0  0  0
  5 14  1  0  0  0  0
  5  6  1  0  0  0  0
  6  7  2  0  0  0  0
  6  8  1  0  0  0  0
  8 13  1  0  0  0  0
  8  9  1  0  0  0  0
  8 29  1  0  0  0  0
  9 10  1  0  0  0  0
  9 30  1  0  0  0  0
  9 31  1  0  0  0  0
 10 11  1  0  0  0  0
 10 32  1  0  0  0  0
 10 33  1  0  0  0  0
 11 12  1  0  0  0  0
 11 34  1  0  0  0  0
 11 35  1  0  0  0  0
 12 13  1  0  0  0  0
 12 36  1  0  0  0  0
 12 37  1  0  0  0  0
 13 14  1  0  0  0  0
 13 38  1  0  0  0  0
 14 15  2  0  0  0  0
 16 17  1  0  0  0  0
 16 39  1  0  0  0  0
 17 18  1  0  0  0  0
 17 40  1  0  0  0  0
 17 41  1  0  0  0  0
 18 19  1  0  0  0  0
 18 42  1  0  0  0  0
 18 43  1  0  0  0  0
 19 24  1  0  0  0  0
 19 20  2  0  0  0  0
 20 21  1  0  0  0  0
 20 44  1  0  0  0  0
 21 22  2  0  0  0  0
 21 45  1  0  0  0  0
 22 23  1  0  0  0  0
 22 46  1  0  0  0  0
 23 24  2  0  0  0  0
 23 47  1  0  0  0  0
 24 48  1  0  0  0  0
M  CHG  1  24   1
M  END
> <s_m_source_file>
AV-unprocessed.smi

> <i_m_source_file_index>
2159

> <i_lp_mmshare_version>
43012

> <i_f3d_flags>
0

> <s_epik_input>
bjFbY0hdW2NIXVtjSF1bY0hdYzFbQ0gyXVtDSDJdW05IXUMoPU8pW0NIMl1bQ0gyXU4oQzI9TylDKD1PKVtDQEhdKFtDQEBIXTIzKVtDSDJdW0NIMl1bQ0gyXVtDSDJdMw==

> <s_epik_cmdline>
J2VwaWtfcHl0aG9uJywgJy1waCcsICc3LjAnLCAnLXRuJywgJzgnLCAnLW1hJywgJzIwMCcsICctbWV0YWxfYmluZGluZycsICctaW1hZScsICc8aW5maWxlLm1hZT4nLCAnLW9tYWUnLCAnPG91dGZpbGUubWFlPic=

> <r_lp_tautomer_probability>
1

> <r_epik_Ionization_Penalty>
1.85146

> <r_epik_Ionization_Penalty_Charging>
1.85146

> <r_epik_Ionization_Penalty_Neutral>
2.95922e-08

> <r_epik_State_Penalty>
1.96899

> <r_epik_Charging_Adjusted_Penalty>
3.82044

> <i_epik_Tot_Q>
1

> <i_epik_Tot_abs_Q>
1

> <r_epik_Metal_State_Penalty>
1.99467

> <b_epik_Metal_Only>
0

> <s_lp_Force_Field>
OPLS_2005

> <r_lp_Energy>
31.2596

> <b_lp_Chiralities_Consistent>
1

> <s_lp_Variant>
AV-unprocessed.smi:2159-5

> <Gold.Version>
5.8.1

> <Gold.Id.Protein>
6NUR|6NUR_protein|mol2

> <Gold.PLP.Fitness>
61.1899

> <Gold.PLP.PLP>
-51.0067

> <Gold.PLP.part.hbond>
-3.0000

> <Gold.PLP.part.metal>
0.0000

> <Gold.PLP.part.buried>
-2.6444

> <Gold.PLP.part.nonpolar>
-43.6394

> <Gold.PLP.part.repulsive>
0.4170

> <Gold.PLP.ligand.clash>
0.0000

> <Gold.PLP.ligand.torsion>
0.8502

> <Gold.PLP.Chemscore.Hbond>
3.9000

> <Gold.PLP.Chemscore.CHOScore>
0.0000

> <Gold.PLP.Chemscore.Metal>
0.0000

> <Gold.Chemscore.Hbonds>
donor molecule, donor type, donor heavy atom, donor atom, acceptor molecule, acceptor atom, score
      P1  H  7989  7998       L1     1  0.85
      P1  H  7997  8010       L1     7  1.00

> <Gold.PLP.Chemscore.Internal.Correction>
0.1835

> <Gold.Rescore>
     Score         DG    S(hbond)    S(metal)    S(lipo)     H(rot)  DE(clash)    DE(int)     intcor
     18.93     -21.73       2.84        0.00     103.82       2.10       0.27       2.53       ----

> <Gold.Chemscore.Fitness>
18.9292

> <Gold.Chemscore.DG>
-21.7327

> <Gold.Chemscore.ZeroCoef>
-5.4800

> <Gold.Chemscore.Hbond>
2.8358

> <Gold.Chemscore.Metal>
0.0000

> <Gold.Chemscore.Lipo>
103.8161

> <Gold.Chemscore.Internal_Hbond>
0.0000

> <Gold.Chemscore.DEClash>
0.2738

> <Gold.Chemscore.DEInternal>
2.5297

> <Gold.Chemscore.Rot>
2.0959

> <Gold.Chemscore.Internal.Correction>
   9.000000E+99

> <Gold.Chemscore.Hbonds>
donor molecule, donor type, donor heavy atom, donor atom, acceptor molecule, acceptor atom, score
      P1  H  7989  7998       L1     1  0.15
      P1  H  7997  8010       L1     7  0.91

> <Gold.Chemscore.Hbond.Weighted>
-9.4717

> <Gold.Chemscore.Metal.Weighted>
-0.0000

> <Gold.Chemscore.Lipo.Weighted>
-12.1465

> <Gold.Chemscore.Internal_Hbond.Weighted>
0.0000

> <Gold.Chemscore.DEClash.Weighted>
0.2738

> <Gold.Chemscore.DEInternal.Weighted>
2.5297

> <Gold.Chemscore.Rot.Weighted>
5.3655

> <Gold.Chemscore.Internal.Correction.Weighted>
   9.000000E+99

> <Gold.Protein.RotatedTorsions>
[ 6907 6896 6895 6894 ] final -122.11 input  -60.11 | X-H torsion
[ 7974 7965 7964 7962 ] final  155.49 input  175.53 | X-H torsion
[ 8008 7997 7996 7995 ] final   26.26 input   59.86 | X-H torsion
[ 10167 10162 10161 10158 ] final  167.22 input  -65.29 | X-H torsion
[ 10718 10713 10712 10709 ] final   80.46 input   66.30 | X-H torsion
[ 10763 10752 10751 10750 ] final -136.91 input  -60.55 | X-H torsion
[ 11005 11000 10999 10996 ] final   78.48 input  -57.11 | X-H torsion

> <Gold.Protein.ActiveResidues>
 VAL166  LYS551  ARG553  GLY616  TRP617  ASP618  TYR619  PRO620  LYS621  CYS622 
 ASP623  PHE694  ASN695  SER759  ASP760  ASP761  ALA762  ILE779  LEU786  VAL792 
 PHE793  MET794  SER795  GLU796  ALA797  LYS798  CYS799  TRP800  GLU811  SER814 

> <Gold.Protein.RotatedAtoms>
  150.8545  133.7736  159.3013 H   0  0  0  0  0  0  0  0  0  0  0  0  # atno 6907 bound_to 6896
  151.5397  135.1067  159.9933 H   0  0  0  0  0  0  0  0  0  0  0  0  # atno 6908 bound_to 6896
  152.4579  133.7717  159.6858 H   0  0  0  0  0  0  0  0  0  0  0  0  # atno 6909 bound_to 6896
  144.8022  139.7075  143.6177 H   0  0  0  0  0  0  0  0  0  0  0  0  # atno 7974 bound_to 7965
  155.0245  140.3151  155.4781 H   0  0  0  0  0  0  0  0  0  0  0  0  # atno 8008 bound_to 7997
  156.2886  140.2191  156.5306 H   0  0  0  0  0  0  0  0  0  0  0  0  # atno 8009 bound_to 7997
  154.7424  140.0472  157.0810 H   0  0  0  0  0  0  0  0  0  0  0  0  # atno 8010 bound_to 7997
  139.4940  144.3945  151.9480 H   0  0  0  0  0  0  0  0  0  0  0  0  # atno 10167 bound_to 10162
  157.6806  130.9960  150.2083 H   0  0  0  0  0  0  0  0  0  0  0  0  # atno 10718 bound_to 10713
  154.8674  135.3658  154.5137 H   0  0  0  0  0  0  0  0  0  0  0  0  # atno 10763 bound_to 10752
  153.5771  135.7019  153.5484 H   0  0  0  0  0  0  0  0  0  0  0  0  # atno 10764 bound_to 10752
  153.3490  135.4077  155.1594 H   0  0  0  0  0  0  0  0  0  0  0  0  # atno 10765 bound_to 10752
  139.9211  134.7766  156.1655 H   0  0  0  0  0  0  0  0  0  0  0  0  # atno 11005 bound_to 11000
  146.2305  139.5805  142.9558 LP  0  0  0  0  0  0  0  0  0  0  0  0  # atno 17320 bound_to 7965
  145.5526  141.0412  143.2270 LP  0  0  0  0  0  0  0  0  0  0  0  0  # atno 17321 bound_to 7965
  140.3383  144.3234  150.5972 LP  0  0  0  0  0  0  0  0  0  0  0  0  # atno 17342 bound_to 10162
  140.5587  143.2195  151.7802 LP  0  0  0  0  0  0  0  0  0  0  0  0  # atno 17343 bound_to 10162
  156.2759  130.3727  149.7984 LP  0  0  0  0  0  0  0  0  0  0  0  0  # atno 17370 bound_to 10713
  156.5687  130.8415  151.3350 LP  0  0  0  0  0  0  0  0  0  0  0  0  # atno 17371 bound_to 10713
  141.0732  133.6787  156.2183 LP  0  0  0  0  0  0  0  0  0  0  0  0  # atno 17394 bound_to 11000
  140.6472  134.5105  157.5574 LP  0  0  0  0  0  0  0  0  0  0  0  0  # atno 17395 bound_to 11000

$$$$
