AV-unprocessed.smi:3231|AV-procd|sdf|12334|dock4
  -GOLD-   2272018183D 1   1.00000     0.00000
 Structure written by MMmdl.
 41 42  0  0  0  0  0  0  0  0  2 V2000
  146.7195  138.8820  151.0036 O   0  0  0  0  0  0  0  0  0  0  0  0
  146.7970  138.3366  152.3067 C   0  0  1  0  0  0  0  0  0  0  0  0
  146.7082  139.4866  153.3282 C   0  0  0  0  0  0  0  0  0  0  0  0
  147.5325  140.6303  152.9465 N   0  0  0  0  0  0  0  0  0  0  0  0
  148.2469  141.2358  154.0664 C   0  0  0  0  0  0  0  0  0  0  0  0
  149.2509  140.2549  154.6935 C   0  0  0  0  0  0  0  0  0  0  0  0
  149.9880  140.8496  155.7946 N   0  0  0  0  0  0  0  0  0  0  0  0
  149.8598  142.1166  156.3240 C   0  0  0  0  0  0  0  0  0  0  0  0
  150.7558  142.2215  157.3491 C   0  0  0  0  0  0  0  0  0  0  0  0
  151.3949  140.9504  157.3707 C   0  0  0  0  0  0  0  0  0  0  0  0
  150.9331  140.1310  156.4399 N   0  0  0  0  0  0  0  0  0  0  0  0
  145.7245  137.2424  152.5079 C   0  0  0  0  0  0  0  0  0  0  0  0
  146.2784  135.8657  152.4363 N   0  3  0  0  0  0  0  0  0  0  0  0
  146.1600  135.1074  153.7073 C   0  0  0  0  0  0  0  0  0  0  0  0
  146.7859  133.7101  153.5606 C   0  0  0  0  0  0  0  0  0  0  0  0
  146.1643  133.0170  152.4856 O   0  0  0  0  0  0  0  0  0  0  0  0
  146.3452  133.6881  151.2453 C   0  0  0  0  0  0  0  0  0  0  0  0
  145.7028  135.0838  151.3157 C   0  0  0  0  0  0  0  0  0  0  0  0
  145.8570  138.7212  150.6539 H   0  0  0  0  0  0  0  0  0  0  0  0
  147.7920  137.9057  152.4086 H   0  0  0  0  0  0  0  0  0  0  0  0
  145.6688  139.8044  153.4182 H   0  0  0  0  0  0  0  0  0  0  0  0
  147.0028  139.1222  154.3134 H   0  0  0  0  0  0  0  0  0  0  0  0
  148.1994  140.3466  152.2347 H   0  0  0  0  0  0  0  0  0  0  0  0
  148.7777  142.1249  153.7244 H   0  0  0  0  0  0  0  0  0  0  0  0
  147.5414  141.5695  154.8286 H   0  0  0  0  0  0  0  0  0  0  0  0
  148.7467  139.3517  155.0414 H   0  0  0  0  0  0  0  0  0  0  0  0
  149.9717  139.9371  153.9394 H   0  0  0  0  0  0  0  0  0  0  0  0
  149.1491  142.8293  155.9323 H   0  0  0  0  0  0  0  0  0  0  0  0
  150.9285  143.0760  157.9864 H   0  0  0  0  0  0  0  0  0  0  0  0
  152.1750  140.6012  158.0307 H   0  0  0  0  0  0  0  0  0  0  0  0
  145.2210  137.3749  153.4669 H   0  0  0  0  0  0  0  0  0  0  0  0
  144.9553  137.3604  151.7428 H   0  0  0  0  0  0  0  0  0  0  0  0
  146.6557  135.6364  154.5201 H   0  0  0  0  0  0  0  0  0  0  0  0
  145.1081  135.0148  153.9822 H   0  0  0  0  0  0  0  0  0  0  0  0
  147.8618  133.7803  153.3917 H   0  0  0  0  0  0  0  0  0  0  0  0
  146.6447  133.1376  154.4774 H   0  0  0  0  0  0  0  0  0  0  0  0
  147.4077  133.7591  151.0068 H   0  0  0  0  0  0  0  0  0  0  0  0
  145.8803  133.0997  150.4541 H   0  0  0  0  0  0  0  0  0  0  0  0
  144.6235  134.9922  151.4488 H   0  0  0  0  0  0  0  0  0  0  0  0
  145.8672  135.6084  150.3736 H   0  0  0  0  0  0  0  0  0  0  0  0
  147.2635  135.9608  152.2352 H   0  0  0  0  0  0  0  0  0  0  0  0
  1  2  1  0  0  0  0
  1 19  1  0  0  0  0
  2  3  1  0  0  0  0
  2 12  1  0  0  0  0
  2 20  1  0  0  0  0
  3  4  1  0  0  0  0
  3 21  1  0  0  0  0
  3 22  1  0  0  0  0
  4  5  1  0  0  0  0
  4 23  1  0  0  0  0
  5  6  1  0  0  0  0
  5 24  1  0  0  0  0
  5 25  1  0  0  0  0
  6  7  1  0  0  0  0
  6 26  1  0  0  0  0
  6 27  1  0  0  0  0
  7 11  1  0  0  0  0
  7  8  1  0  0  0  0
  8  9  2  0  0  0  0
  8 28  1  0  0  0  0
  9 10  1  0  0  0  0
  9 29  1  0  0  0  0
 10 11  2  0  0  0  0
 10 30  1  0  0  0  0
 12 13  1  0  0  0  0
 12 31  1  0  0  0  0
 12 32  1  0  0  0  0
 13 18  1  0  0  0  0
 13 14  1  0  0  0  0
 13 41  1  0  0  0  0
 14 15  1  0  0  0  0
 14 33  1  0  0  0  0
 14 34  1  0  0  0  0
 15 16  1  0  0  0  0
 15 35  1  0  0  0  0
 15 36  1  0  0  0  0
 16 17  1  0  0  0  0
 17 18  1  0  0  0  0
 17 37  1  0  0  0  0
 17 38  1  0  0  0  0
 18 39  1  0  0  0  0
 18 40  1  0  0  0  0
M  CHG  1  13   1
M  END
> <s_m_source_file>
AV-unprocessed.smi

> <i_m_source_file_index>
3231

> <i_lp_mmshare_version>
43012

> <i_f3d_flags>
0

> <s_epik_input>
W0NIMl0xW0NIMl1PW0NIMl1bQ0gyXU4xW0NIMl1bQ0BIXShbT0hdKVtDSDJdW05IXVtDSDJdW0NIMl1uMltjSF1bY0hdW2NIXW4y

> <s_epik_cmdline>
J2VwaWtfcHl0aG9uJywgJy1waCcsICc3LjAnLCAnLXRuJywgJzgnLCAnLW1hJywgJzIwMCcsICctbWV0YWxfYmluZGluZycsICctaW1hZScsICc8aW5maWxlLm1hZT4nLCAnLW9tYWUnLCAnPG91dGZpbGUubWFlPic=

> <r_epik_Ionization_Penalty>
0.33973

> <r_epik_Ionization_Penalty_Charging>
0.202493

> <r_epik_Ionization_Penalty_Neutral>
0.137237

> <r_epik_State_Penalty>
0.943915

> <r_epik_Charging_Adjusted_Penalty>
1.14641

> <i_epik_Tot_Q>
1

> <i_epik_Tot_abs_Q>
1

> <r_epik_Metal_State_Penalty>
0.94313

> <b_epik_Metal_Only>
0

> <s_lp_Force_Field>
OPLS_2005

> <r_lp_Energy>
28.856

> <b_lp_Chiralities_Consistent>
1

> <s_lp_Variant>
AV-unprocessed.smi:3231-4

> <Gold.Version>
5.8.1

> <Gold.Id.Protein>
6NUR|6NUR_protein|mol2

> <Gold.PLP.Fitness>
47.8080

> <Gold.PLP.PLP>
-34.3292

> <Gold.PLP.part.hbond>
-4.7023

> <Gold.PLP.part.metal>
0.0000

> <Gold.PLP.part.buried>
-1.4624

> <Gold.PLP.part.nonpolar>
-28.1395

> <Gold.PLP.part.repulsive>
0.1540

> <Gold.PLP.ligand.clash>
0.0000

> <Gold.PLP.ligand.torsion>
1.7716

> <Gold.PLP.Chemscore.Hbond>
4.6032

> <Gold.PLP.Chemscore.CHOScore>
1.0000

> <Gold.PLP.Chemscore.Metal>
0.0000

> <Gold.Chemscore.Hbonds>
donor molecule, donor type, donor heavy atom, donor atom, acceptor molecule, acceptor atom, score
      L1  H     1    19       P1 10171  0.73
      L1  H     4    23       P1  7957  1.00
      L1  H    13    41       P1  7948  2.00
      P1  H  7954  7966       L1     1  0.76
      L1  C     8    28       P1  8028  0.74

> <Gold.PLP.Chemscore.Internal.Correction>
0.2123

> <Gold.Rescore>
     Score         DG    S(hbond)    S(metal)    S(lipo)     H(rot)  DE(clash)    DE(int)     intcor
     15.17     -17.21       3.00        0.00      76.72       2.84       0.21       1.82       ----

> <Gold.Chemscore.Fitness>
15.1735

> <Gold.Chemscore.DG>
-17.2105

> <Gold.Chemscore.ZeroCoef>
-5.4800

> <Gold.Chemscore.Hbond>
3.0010

> <Gold.Chemscore.Metal>
0.0000

> <Gold.Chemscore.Lipo>
76.7249

> <Gold.Chemscore.Internal_Hbond>
0.0000

> <Gold.Chemscore.DEClash>
0.2140

> <Gold.Chemscore.DEInternal>
1.8231

> <Gold.Chemscore.Rot>
2.8397

> <Gold.Chemscore.Internal.Correction>
   9.000000E+99

> <Gold.Chemscore.Hbonds>
donor molecule, donor type, donor heavy atom, donor atom, acceptor molecule, acceptor atom, score
      L1  H     1    19       P1 10171  0.73
      L1  H     4    23       P1  7957  1.00
      L1  H    13    41       P1  7948  1.00
      P1  H  7954  7966       L1     1  0.31

> <Gold.Chemscore.Hbond.Weighted>
-10.0233

> <Gold.Chemscore.Metal.Weighted>
-0.0000

> <Gold.Chemscore.Lipo.Weighted>
-8.9768

> <Gold.Chemscore.Internal_Hbond.Weighted>
0.0000

> <Gold.Chemscore.DEClash.Weighted>
0.2140

> <Gold.Chemscore.DEInternal.Weighted>
1.8231

> <Gold.Chemscore.Rot.Weighted>
7.2696

> <Gold.Chemscore.Internal.Correction.Weighted>
   9.000000E+99

> <Gold.Protein.RotatedTorsions>
[ 6907 6896 6895 6894 ] final   65.25 input  -60.11 | X-H torsion
[ 7974 7965 7964 7962 ] final   65.37 input  175.53 | X-H torsion
[ 8008 7997 7996 7995 ] final -100.46 input   59.86 | X-H torsion
[ 10167 10162 10161 10158 ] final -122.70 input  -65.29 | X-H torsion
[ 10718 10713 10712 10709 ] final  -20.49 input   66.30 | X-H torsion
[ 10763 10752 10751 10750 ] final   54.45 input  -60.55 | X-H torsion
[ 11005 11000 10999 10996 ] final   92.58 input  -57.11 | X-H torsion

> <Gold.Protein.ActiveResidues>
 VAL166  LYS551  ARG553  GLY616  TRP617  ASP618  TYR619  PRO620  LYS621  CYS622 
 ASP623  PHE694  ASN695  SER759  ASP760  ASP761  ALA762  ILE779  LEU786  VAL792 
 PHE793  MET794  SER795  GLU796  ALA797  LYS798  CYS799  TRP800  GLU811  SER814 

> <Gold.Protein.RotatedAtoms>
  152.4393  134.5623  159.9897 H   0  0  0  0  0  0  0  0  0  0  0  0  # atno 6907 bound_to 6896
  151.5725  133.3382  159.3000 H   0  0  0  0  0  0  0  0  0  0  0  0  # atno 6908 bound_to 6896
  150.8296  134.7577  159.6906 H   0  0  0  0  0  0  0  0  0  0  0  0  # atno 6909 bound_to 6896
  145.8392  139.3185  143.0941 H   0  0  0  0  0  0  0  0  0  0  0  0  # atno 7974 bound_to 7965
  154.8289  140.0441  157.1463 H   0  0  0  0  0  0  0  0  0  0  0  0  # atno 8008 bound_to 7997
  154.9175  140.3022  155.5213 H   0  0  0  0  0  0  0  0  0  0  0  0  # atno 8009 bound_to 7997
  156.2985  140.2347  156.4221 H   0  0  0  0  0  0  0  0  0  0  0  0  # atno 8010 bound_to 7997
  140.0114  143.5437  152.2261 H   0  0  0  0  0  0  0  0  0  0  0  0  # atno 10167 bound_to 10162
  156.5311  130.4655  149.6546 H   0  0  0  0  0  0  0  0  0  0  0  0  # atno 10718 bound_to 10713
  152.9805  135.5744  154.4906 H   0  0  0  0  0  0  0  0  0  0  0  0  # atno 10763 bound_to 10752
  154.4441  135.2776  155.1829 H   0  0  0  0  0  0  0  0  0  0  0  0  # atno 10764 bound_to 10752
  154.3485  135.6214  153.5684 H   0  0  0  0  0  0  0  0  0  0  0  0  # atno 10765 bound_to 10752
  139.8821  134.8741  156.3593 H   0  0  0  0  0  0  0  0  0  0  0  0  # atno 11005 bound_to 11000
  145.9484  140.8927  143.0272 LP  0  0  0  0  0  0  0  0  0  0  0  0  # atno 17320 bound_to 7965
  144.6734  140.1645  143.7419 LP  0  0  0  0  0  0  0  0  0  0  0  0  # atno 17321 bound_to 7965
  139.6202  144.7627  151.2757 LP  0  0  0  0  0  0  0  0  0  0  0  0  # atno 17342 bound_to 10162
  140.7380  143.6662  150.8121 LP  0  0  0  0  0  0  0  0  0  0  0  0  # atno 17343 bound_to 10162
  156.3059  130.7202  151.2084 LP  0  0  0  0  0  0  0  0  0  0  0  0  # atno 17370 bound_to 10713
  157.7421  131.0494  150.5045 LP  0  0  0  0  0  0  0  0  0  0  0  0  # atno 17371 bound_to 10713
  140.9540  133.7432  156.0311 LP  0  0  0  0  0  0  0  0  0  0  0  0  # atno 17394 bound_to 11000
  140.8070  134.3443  157.5423 LP  0  0  0  0  0  0  0  0  0  0  0  0  # atno 17395 bound_to 11000

$$$$
