AV-unprocessed.smi:13|AV-procd|sdf|71|dock9
  -GOLD-   2262015193D 1   1.00000     0.00000
 Structure written by MMmdl.
 54 58  0  0  0  0  0  0  0  0  1 V2000
  153.5132  137.9842  161.0554 C   0  0  0  0  0  0  0  0  0  0  0  0
  154.2067  138.7624  159.9374 C   0  0  0  0  0  0  0  0  0  0  0  0
  155.5504  139.2421  160.5037 C   0  0  0  0  0  0  0  0  0  0  0  0
  154.2979  138.0450  158.5819 C   0  0  0  0  0  0  0  0  0  0  0  0
  153.9629  139.3172  157.9672 N   0  0  0  0  0  0  0  0  0  0  0  0
  153.1700  139.1977  156.7891 C   0  0  0  0  0  0  0  0  0  0  0  0
  153.7395  138.8901  155.5931 N   0  0  0  0  0  0  0  0  0  0  0  0
  153.0006  138.7662  154.4871 C   0  0  0  0  0  0  0  0  0  0  0  0
  151.6819  138.9040  154.3468 N   0  0  0  0  0  0  0  0  0  0  0  0
  151.0934  139.2054  155.5384 C   0  0  0  0  0  0  0  0  0  0  0  0
  151.7556  139.3630  156.7893 C   0  0  0  0  0  0  0  0  0  0  0  0
  150.8264  139.6557  157.7804 N   0  0  0  0  0  0  0  0  0  0  0  0
  149.6835  139.6777  157.1511 C   0  0  0  0  0  0  0  0  0  0  0  0
  149.7525  139.4267  155.7995 N   0  0  0  0  0  0  0  0  0  0  0  0
  148.6394  139.3982  154.8631 C   0  0  0  0  0  0  0  0  0  0  0  0
  148.2731  140.7937  154.3070 C   0  0  1  0  0  0  0  0  0  0  0  0
  149.2869  141.2121  153.4090 O   0  0  0  0  0  0  0  0  0  0  0  0
  146.9318  140.8440  153.5811 C   0  0  0  0  0  0  0  0  0  0  0  0
  146.4474  142.2596  153.8602 C   0  0  0  0  0  0  0  0  0  0  0  0
  146.8360  142.4574  155.2087 O   0  0  0  0  0  0  0  0  0  0  0  0
  148.1185  141.8688  155.4013 C   0  0  0  0  0  0  0  0  0  0  0  0
  153.3256  139.7927  159.1905 C   0  0  2  0  0  0  0  0  0  0  0  0
  153.4980  141.3010  159.4003 C   0  0  2  0  0  0  0  0  0  0  0  0
  153.2145  141.7627  160.8306 C   0  0  0  0  0  0  0  0  0  0  0  0
  152.7686  143.2083  160.6690 C   0  0  0  0  0  0  0  0  0  0  0  0
  152.5242  143.3580  159.1661 C   0  0  0  0  0  0  0  0  0  0  0  0
  152.5283  142.0303  158.6651 O   0  0  0  0  0  0  0  0  0  0  0  0
  154.1104  137.1320  161.3811 H   0  0  0  0  0  0  0  0  0  0  0  0
  152.5475  137.5953  160.7311 H   0  0  0  0  0  0  0  0  0  0  0  0
  153.3304  138.6139  161.9268 H   0  0  0  0  0  0  0  0  0  0  0  0
  156.0978  139.8526  159.7849 H   0  0  0  0  0  0  0  0  0  0  0  0
  156.1945  138.4004  160.7598 H   0  0  0  0  0  0  0  0  0  0  0  0
  155.4232  139.8386  161.4066 H   0  0  0  0  0  0  0  0  0  0  0  0
  155.2923  137.6790  158.3246 H   0  0  0  0  0  0  0  0  0  0  0  0
  153.5266  137.2857  158.4375 H   0  0  0  0  0  0  0  0  0  0  0  0
  153.5449  138.5211  153.5871 H   0  0  0  0  0  0  0  0  0  0  0  0
  148.7522  139.8860  157.6575 H   0  0  0  0  0  0  0  0  0  0  0  0
  148.8982  138.7244  154.0452 H   0  0  0  0  0  0  0  0  0  0  0  0
  147.7796  138.9523  155.3648 H   0  0  0  0  0  0  0  0  0  0  0  0
  149.4672  140.5035  152.8101 H   0  0  0  0  0  0  0  0  0  0  0  0
  146.9951  140.6097  152.5176 H   0  0  0  0  0  0  0  0  0  0  0  0
  146.2309  140.1427  154.0345 H   0  0  0  0  0  0  0  0  0  0  0  0
  146.9535  142.9827  153.2188 H   0  0  0  0  0  0  0  0  0  0  0  0
  145.3710  142.3724  153.7298 H   0  0  0  0  0  0  0  0  0  0  0  0
  148.1689  141.4485  156.4063 H   0  0  0  0  0  0  0  0  0  0  0  0
  148.8878  142.6397  155.3327 H   0  0  0  0  0  0  0  0  0  0  0  0
  152.2805  139.4800  159.2378 H   0  0  0  0  0  0  0  0  0  0  0  0
  154.4925  141.6341  159.0975 H   0  0  0  0  0  0  0  0  0  0  0  0
  152.4007  141.1765  161.2599 H   0  0  0  0  0  0  0  0  0  0  0  0
  154.0787  141.6641  161.4867 H   0  0  0  0  0  0  0  0  0  0  0  0
  151.8607  143.3977  161.2424 H   0  0  0  0  0  0  0  0  0  0  0  0
  153.5330  143.9082  161.0081 H   0  0  0  0  0  0  0  0  0  0  0  0
  151.5844  143.8626  158.9409 H   0  0  0  0  0  0  0  0  0  0  0  0
  153.3341  143.9200  158.6989 H   0  0  0  0  0  0  0  0  0  0  0  0
  1  2  1  0  0  0  0
  1 28  1  0  0  0  0
  1 29  1  0  0  0  0
  1 30  1  0  0  0  0
  2 22  1  0  0  0  0
  2  3  1  0  0  0  0
  2  4  1  0  0  0  0
  3 31  1  0  0  0  0
  3 32  1  0  0  0  0
  3 33  1  0  0  0  0
  4  5  1  0  0  0  0
  4 34  1  0  0  0  0
  4 35  1  0  0  0  0
  5  6  1  0  0  0  0
  5 22  1  0  0  0  0
  6 11  1  0  0  0  0
  6  7  2  0  0  0  0
  7  8  1  0  0  0  0
  8  9  2  0  0  0  0
  8 36  1  0  0  0  0
  9 10  1  0  0  0  0
 10 14  1  0  0  0  0
 10 11  2  0  0  0  0
 11 12  1  0  0  0  0
 12 13  2  0  0  0  0
 13 14  1  0  0  0  0
 13 37  1  0  0  0  0
 14 15  1  0  0  0  0
 15 16  1  0  0  0  0
 15 38  1  0  0  0  0
 15 39  1  0  0  0  0
 16 21  1  0  0  0  0
 16 17  1  0  0  0  0
 16 18  1  0  0  0  0
 17 40  1  0  0  0  0
 18 19  1  0  0  0  0
 18 41  1  0  0  0  0
 18 42  1  0  0  0  0
 19 20  1  0  0  0  0
 19 43  1  0  0  0  0
 19 44  1  0  0  0  0
 20 21  1  0  0  0  0
 21 45  1  0  0  0  0
 21 46  1  0  0  0  0
 22 23  1  0  0  0  0
 22 47  1  0  0  0  0
 23 27  1  0  0  0  0
 23 24  1  0  0  0  0
 23 48  1  0  0  0  0
 24 25  1  0  0  0  0
 24 49  1  0  0  0  0
 24 50  1  0  0  0  0
 25 26  1  0  0  0  0
 25 51  1  0  0  0  0
 25 52  1  0  0  0  0
 26 27  1  0  0  0  0
 26 53  1  0  0  0  0
 26 54  1  0  0  0  0
M  END
> <s_m_source_file>
AV-unprocessed.smi

> <i_m_source_file_index>
13

> <i_lp_mmshare_version>
43012

> <i_f3d_flags>
0

> <s_epik_input>
TzFbQ0gyXVtDSDJdW0NIMl1bQ0BIXTFbQ0BASF0yTihbQ0gyXUMyKFtDSDNdKVtDSDNdKWMobltjSF1uMyljKGMzNCluW2NIXW40W0NIMl1bQ0BAXTUoW09IXSlbQ0gyXVtDSDJdT1tDSDJdNQ==

> <s_epik_cmdline>
J2VwaWtfcHl0aG9uJywgJy1waCcsICc3LjAnLCAnLXRuJywgJzgnLCAnLW1hJywgJzIwMCcsICctbWV0YWxfYmluZGluZycsICctaW1hZScsICc8aW5maWxlLm1hZT4nLCAnLW9tYWUnLCAnPG91dGZpbGUubWFlPic=

> <r_lp_tautomer_probability>
1

> <r_epik_Ionization_Penalty>
0.00202764

> <r_epik_Ionization_Penalty_Charging>
0

> <r_epik_Ionization_Penalty_Neutral>
0.00202764

> <r_epik_State_Penalty>
0.00134017

> <r_epik_Charging_Adjusted_Penalty>
0.00134017

> <i_epik_Tot_Q>
0

> <i_epik_Tot_abs_Q>
0

> <r_epik_Metal_State_Penalty>
-0

> <b_epik_Metal_Only>
0

> <s_lp_Force_Field>
OPLS_2005

> <r_lp_Energy>
61.7559

> <b_lp_Chiralities_Consistent>
1

> <s_lp_Variant>
AV-unprocessed.smi:13-3

> <Gold.Version>
5.8.1

> <Gold.Id.Protein>
6NUR|6NUR_protein|mol2

> <Gold.PLP.Fitness>
49.4676

> <Gold.PLP.PLP>
-41.0537

> <Gold.PLP.part.hbond>
-5.6186

> <Gold.PLP.part.metal>
0.0000

> <Gold.PLP.part.buried>
-0.6448

> <Gold.PLP.part.nonpolar>
-35.1563

> <Gold.PLP.part.repulsive>
1.1511

> <Gold.PLP.ligand.clash>
0.0000

> <Gold.PLP.ligand.torsion>
0.9955

> <Gold.PLP.Chemscore.Hbond>
3.3336

> <Gold.PLP.Chemscore.CHOScore>
0.0000

> <Gold.PLP.Chemscore.Metal>
0.0000

> <Gold.Chemscore.Hbonds>
donor molecule, donor type, donor heavy atom, donor atom, acceptor molecule, acceptor atom, score
      L1  H    17    40       P1  7957  0.90
      P1  H  7989  7998       L1     9  0.64
      P1  H  7997  8008       L1     7  0.31
      P1  H  7997  8010       L1     5  0.44
      P1  H  8011  8017       L1    17  0.70

> <Gold.PLP.Chemscore.Internal.Correction>
0.4040

> <Gold.Rescore>
     Score         DG    S(hbond)    S(metal)    S(lipo)     H(rot)  DE(clash)    DE(int)     intcor
     12.59     -16.82       1.30        0.00     110.30       2.30       1.88       2.35       ----

> <Gold.Chemscore.Fitness>
12.5927

> <Gold.Chemscore.DG>
-16.8245

> <Gold.Chemscore.ZeroCoef>
-5.4800

> <Gold.Chemscore.Hbond>
1.2953

> <Gold.Chemscore.Metal>
0.0000

> <Gold.Chemscore.Lipo>
110.3008

> <Gold.Chemscore.Internal_Hbond>
0.0000

> <Gold.Chemscore.DEClash>
1.8850

> <Gold.Chemscore.DEInternal>
2.3468

> <Gold.Chemscore.Rot>
2.2996

> <Gold.Chemscore.Internal.Correction>
   9.000000E+99

> <Gold.Chemscore.Hbonds>
donor molecule, donor type, donor heavy atom, donor atom, acceptor molecule, acceptor atom, score
      L1  H    17    40       P1  7957  0.88
      P1  H  7989  7998       L1     9  0.03
      P1  H  7997  8008       L1     7  0.02
      P1  H  7997  8010       L1     5  0.03
      P1  H  8011  8017       L1    17  0.07

> <Gold.Chemscore.Hbond.Weighted>
-4.3263

> <Gold.Chemscore.Metal.Weighted>
-0.0000

> <Gold.Chemscore.Lipo.Weighted>
-12.9052

> <Gold.Chemscore.Internal_Hbond.Weighted>
0.0000

> <Gold.Chemscore.DEClash.Weighted>
1.8850

> <Gold.Chemscore.DEInternal.Weighted>
2.3468

> <Gold.Chemscore.Rot.Weighted>
5.8869

> <Gold.Chemscore.Internal.Correction.Weighted>
   9.000000E+99

> <Gold.Protein.RotatedTorsions>
[ 6907 6896 6895 6894 ] final -142.94 input  -60.11 | X-H torsion
[ 7974 7965 7964 7962 ] final   21.02 input  175.53 | X-H torsion
[ 8008 7997 7996 7995 ] final    4.98 input   59.86 | X-H torsion
[ 10167 10162 10161 10158 ] final   41.94 input  -65.29 | X-H torsion
[ 10718 10713 10712 10709 ] final   46.06 input   66.30 | X-H torsion
[ 10763 10752 10751 10750 ] final  147.40 input  -60.55 | X-H torsion
[ 11005 11000 10999 10996 ] final  111.51 input  -57.11 | X-H torsion

> <Gold.Protein.ActiveResidues>
 VAL166  LYS551  ARG553  GLY616  TRP617  ASP618  TYR619  PRO620  LYS621  CYS622 
 ASP623  PHE694  ASN695  SER759  ASP760  ASP761  ALA762  ILE779  LEU786  VAL792 
 PHE793  MET794  SER795  GLU796  ALA797  LYS798  CYS799  TRP800  GLU811  SER814 

> <Gold.Protein.RotatedAtoms>
  151.0938  133.5296  159.2613 H   0  0  0  0  0  0  0  0  0  0  0  0  # atno 6907 bound_to 6896
  151.2153  135.0496  159.8937 H   0  0  0  0  0  0  0  0  0  0  0  0  # atno 6908 bound_to 6896
  152.5436  134.0748  159.8263 H   0  0  0  0  0  0  0  0  0  0  0  0  # atno 6909 bound_to 6896
  146.2088  139.8086  142.8705 H   0  0  0  0  0  0  0  0  0  0  0  0  # atno 7974 bound_to 7965
  154.7227  140.2715  155.6527 H   0  0  0  0  0  0  0  0  0  0  0  0  # atno 8008 bound_to 7997
  156.2828  140.2731  156.1828 H   0  0  0  0  0  0  0  0  0  0  0  0  # atno 8009 bound_to 7997
  155.0486  140.0371  157.2525 H   0  0  0  0  0  0  0  0  0  0  0  0  # atno 8010 bound_to 7997
  140.3593  144.2249  150.6139 H   0  0  0  0  0  0  0  0  0  0  0  0  # atno 10167 bound_to 10162
  157.4442  130.8099  149.7724 H   0  0  0  0  0  0  0  0  0  0  0  0  # atno 10718 bound_to 10713
  154.0378  135.2892  155.3359 H   0  0  0  0  0  0  0  0  0  0  0  0  # atno 10763 bound_to 10752
  154.6948  135.5212  153.8446 H   0  0  0  0  0  0  0  0  0  0  0  0  # atno 10764 bound_to 10752
  153.0613  135.6614  154.0585 H   0  0  0  0  0  0  0  0  0  0  0  0  # atno 10765 bound_to 10752
  139.8905  134.9509  156.6443 H   0  0  0  0  0  0  0  0  0  0  0  0  # atno 11005 bound_to 11000
  145.3220  141.0246  143.3495 LP  0  0  0  0  0  0  0  0  0  0  0  0  # atno 17320 bound_to 7965
  144.8860  139.4839  143.6700 LP  0  0  0  0  0  0  0  0  0  0  0  0  # atno 17321 bound_to 7965
  140.5142  143.2282  151.8488 LP  0  0  0  0  0  0  0  0  0  0  0  0  # atno 17342 bound_to 10162
  139.4816  144.4913  151.9181 LP  0  0  0  0  0  0  0  0  0  0  0  0  # atno 17343 bound_to 10162
  155.9960  130.3908  150.2794 LP  0  0  0  0  0  0  0  0  0  0  0  0  # atno 17370 bound_to 10713
  157.0961  131.0183  151.3103 LP  0  0  0  0  0  0  0  0  0  0  0  0  # atno 17371 bound_to 10713
  140.7569  133.8850  155.8389 LP  0  0  0  0  0  0  0  0  0  0  0  0  # atno 17394 bound_to 11000
  140.9954  134.1222  157.4368 LP  0  0  0  0  0  0  0  0  0  0  0  0  # atno 17395 bound_to 11000

$$$$
