AV-unprocessed.smi:3224|AV-procd|sdf|12310|dock2
  -GOLD-   2272018153D 1   1.00000     0.00000
 Structure written by MMmdl.
 30 31  0  0  0  0  0  0  0  0  2 V2000
  149.8095  136.3350  155.2689 C   0  0  0  0  0  0  0  0  0  0  0  0
  150.3438  137.4040  156.2466 C   0  0  0  0  0  0  0  0  0  0  0  0
  150.1260  136.8471  157.5912 N   0  0  0  0  0  0  0  0  0  0  0  0
  148.9869  136.6061  158.2645 C   0  0  0  0  0  0  0  0  0  0  0  0
  147.8963  136.8620  157.7524 O   0  0  0  0  0  0  0  0  0  0  0  0
  149.2103  136.0798  159.4959 N   0  5  0  0  0  0  0  0  0  0  0  0
  148.3072  136.0230  160.5002 C   0  0  0  0  0  0  0  0  0  0  0  0
  147.8888  137.0422  161.2689 N   0  0  0  0  0  0  0  0  0  0  0  0
  146.9449  136.6804  162.2304 C   0  0  0  0  0  0  0  0  0  0  0  0
  146.6284  135.3496  162.2013 C   0  0  0  0  0  0  0  0  0  0  0  0
  147.5133  134.5135  160.9586 S   0  0  0  0  0  0  0  0  0  0  0  0
  151.8510  137.6595  155.9886 C   0  0  0  0  0  0  0  0  0  0  0  0
  152.0942  138.4509  154.6909 C   0  0  0  0  0  0  0  0  0  0  0  0
  151.3563  139.6667  154.7113 O   0  0  0  0  0  0  0  0  0  0  0  0
  149.9500  139.4581  154.7611 C   0  0  0  0  0  0  0  0  0  0  0  0
  149.5660  138.7327  156.0635 C   0  0  0  0  0  0  0  0  0  0  0  0
  149.9139  136.6300  154.2259 H   0  0  0  0  0  0  0  0  0  0  0  0
  148.7511  136.1366  155.4422 H   0  0  0  0  0  0  0  0  0  0  0  0
  150.3406  135.3899  155.3901 H   0  0  0  0  0  0  0  0  0  0  0  0
  150.9704  136.6066  158.0891 H   0  0  0  0  0  0  0  0  0  0  0  0
  146.5519  137.4361  162.8941 H   0  0  0  0  0  0  0  0  0  0  0  0
  145.9342  134.8126  162.8296 H   0  0  0  0  0  0  0  0  0  0  0  0
  152.2900  138.2352  156.8021 H   0  0  0  0  0  0  0  0  0  0  0  0
  152.3990  136.7169  155.9613 H   0  0  0  0  0  0  0  0  0  0  0  0
  153.1537  138.6901  154.5981 H   0  0  0  0  0  0  0  0  0  0  0  0
  151.8306  137.8654  153.8094 H   0  0  0  0  0  0  0  0  0  0  0  0
  149.4542  140.4279  154.7194 H   0  0  0  0  0  0  0  0  0  0  0  0
  149.6205  138.9036  153.8819 H   0  0  0  0  0  0  0  0  0  0  0  0
  148.4909  138.5527  156.0894 H   0  0  0  0  0  0  0  0  0  0  0  0
  149.7729  139.4176  156.8846 H   0  0  0  0  0  0  0  0  0  0  0  0
  1  2  1  0  0  0  0
  1 17  1  0  0  0  0
  1 18  1  0  0  0  0
  1 19  1  0  0  0  0
  2 16  1  0  0  0  0
  2  3  1  0  0  0  0
  2 12  1  0  0  0  0
  3  4  1  0  0  0  0
  3 20  1  0  0  0  0
  4  5  2  0  0  0  0
  4  6  1  0  0  0  0
  6  7  1  0  0  0  0
  7 11  1  0  0  0  0
  7  8  2  0  0  0  0
  8  9  1  0  0  0  0
  9 10  2  0  0  0  0
  9 21  1  0  0  0  0
 10 11  1  0  0  0  0
 10 22  1  0  0  0  0
 12 13  1  0  0  0  0
 12 23  1  0  0  0  0
 12 24  1  0  0  0  0
 13 14  1  0  0  0  0
 13 25  1  0  0  0  0
 13 26  1  0  0  0  0
 14 15  1  0  0  0  0
 15 16  1  0  0  0  0
 15 27  1  0  0  0  0
 15 28  1  0  0  0  0
 16 29  1  0  0  0  0
 16 30  1  0  0  0  0
M  CHG  1   6  -1
M  END
> <s_m_source_file>
AV-unprocessed.smi

> <i_m_source_file_index>
3224

> <i_lp_mmshare_version>
43012

> <i_f3d_flags>
0

> <s_epik_input>
W0NIMl0xW0NIMl1PW0NIMl1bQ0gyXUMxKFtDSDNdKVtOSF1DKD1PKVtOSF1jMm5bY0hdW2NIXXMy

> <s_epik_cmdline>
J2VwaWtfcHl0aG9uJywgJy1waCcsICc3LjAnLCAnLXRuJywgJzgnLCAnLW1hJywgJzIwMCcsICctbWV0YWxfYmluZGluZycsICctaW1hZScsICc8aW5maWxlLm1hZT4nLCAnLW9tYWUnLCAnPG91dGZpbGUubWFlPic=

> <r_lp_tautomer_probability>
1

> <r_epik_Ionization_Penalty>
6.86712

> <r_epik_Ionization_Penalty_Charging>
5.8001

> <r_epik_Ionization_Penalty_Neutral>
1.06702

> <r_epik_State_Penalty>
5.80007

> <r_epik_Charging_Adjusted_Penalty>
11.6002

> <i_epik_Tot_Q>
-1

> <i_epik_Tot_abs_Q>
1

> <r_epik_Metal_State_Penalty>
1.77033

> <b_epik_Metal_Only>
1

> <s_lp_Force_Field>
OPLS_2005

> <r_lp_Energy>
12.9706

> <b_lp_Chiralities_Consistent>
1

> <s_lp_Variant>
AV-unprocessed.smi:3224-2

> <Gold.Version>
5.8.1

> <Gold.Id.Protein>
6NUR|6NUR_protein|mol2

> <Gold.PLP.Fitness>
38.1596

> <Gold.PLP.PLP>
-25.4095

> <Gold.PLP.part.hbond>
-4.0000

> <Gold.PLP.part.metal>
0.0000

> <Gold.PLP.part.buried>
-4.8224

> <Gold.PLP.part.nonpolar>
-17.5505

> <Gold.PLP.part.repulsive>
0.1356

> <Gold.PLP.ligand.clash>
0.0000

> <Gold.PLP.ligand.torsion>
0.8521

> <Gold.PLP.Chemscore.Hbond>
4.8160

> <Gold.PLP.Chemscore.CHOScore>
0.0000

> <Gold.PLP.Chemscore.Metal>
0.0000

> <Gold.Chemscore.Hbonds>
donor molecule, donor type, donor heavy atom, donor atom, acceptor molecule, acceptor atom, score
      P1  H  6896  6909       L1     6  2.00
      P1  H  6931  6943       L1     8  1.00
      P1  H  6934  6947       L1     8  0.50
      P1  H  7989  7998       L1    14  1.00

> <Gold.PLP.Chemscore.Internal.Correction>
0.0062

> <Gold.Rescore>
     Score         DG    S(hbond)    S(metal)    S(lipo)     H(rot)  DE(clash)    DE(int)     intcor
     16.90     -18.23       2.66        0.00      54.89       1.00       0.00       1.33       ----

> <Gold.Chemscore.Fitness>
16.9015

> <Gold.Chemscore.DG>
-18.2282

> <Gold.Chemscore.ZeroCoef>
-5.4800

> <Gold.Chemscore.Hbond>
2.6606

> <Gold.Chemscore.Metal>
0.0000

> <Gold.Chemscore.Lipo>
54.8869

> <Gold.Chemscore.Internal_Hbond>
0.0000

> <Gold.Chemscore.DEClash>
0.0000

> <Gold.Chemscore.DEInternal>
1.3267

> <Gold.Chemscore.Rot>
1.0000

> <Gold.Chemscore.Internal.Correction>
   9.000000E+99

> <Gold.Chemscore.Hbonds>
donor molecule, donor type, donor heavy atom, donor atom, acceptor molecule, acceptor atom, score
      P1  H  6896  6909       L1     6  0.80
      P1  H  6931  6943       L1     8  0.75
      P1  H  6934  6947       L1     8  0.09
      P1  H  7989  7998       L1    14  0.58

> <Gold.Chemscore.Hbond.Weighted>
-8.8864

> <Gold.Chemscore.Metal.Weighted>
-0.0000

> <Gold.Chemscore.Lipo.Weighted>
-6.4218

> <Gold.Chemscore.Internal_Hbond.Weighted>
0.0000

> <Gold.Chemscore.DEClash.Weighted>
0.0000

> <Gold.Chemscore.DEInternal.Weighted>
1.3267

> <Gold.Chemscore.Rot.Weighted>
2.5600

> <Gold.Chemscore.Internal.Correction.Weighted>
   9.000000E+99

> <Gold.Protein.RotatedTorsions>
[ 6907 6896 6895 6894 ] final   66.82 input  -60.11 | X-H torsion
[ 7974 7965 7964 7962 ] final -178.28 input  175.53 | X-H torsion
[ 8008 7997 7996 7995 ] final  163.04 input   59.86 | X-H torsion
[ 10167 10162 10161 10158 ] final -124.19 input  -65.29 | X-H torsion
[ 10718 10713 10712 10709 ] final  120.95 input   66.30 | X-H torsion
[ 10763 10752 10751 10750 ] final -124.59 input  -60.55 | X-H torsion
[ 11005 11000 10999 10996 ] final  137.75 input  -57.11 | X-H torsion

> <Gold.Protein.ActiveResidues>
 VAL166  LYS551  ARG553  GLY616  TRP617  ASP618  TYR619  PRO620  LYS621  CYS622 
 ASP623  PHE694  ASN695  SER759  ASP760  ASP761  ALA762  ILE779  LEU786  VAL792 
 PHE793  MET794  SER795  GLU796  ALA797  LYS798  CYS799  TRP800  GLU811  SER814 

> <Gold.Protein.RotatedAtoms>
  152.4508  134.5397  159.9835 H   0  0  0  0  0  0  0  0  0  0  0  0  # atno 6907 bound_to 6896
  151.5470  133.3417  159.2954 H   0  0  0  0  0  0  0  0  0  0  0  0  # atno 6908 bound_to 6896
  150.8437  134.7770  159.7016 H   0  0  0  0  0  0  0  0  0  0  0  0  # atno 6909 bound_to 6896
  144.7130  140.0892  143.6422 H   0  0  0  0  0  0  0  0  0  0  0  0  # atno 7974 bound_to 7965
  156.1987  140.1734  156.7945 H   0  0  0  0  0  0  0  0  0  0  0  0  # atno 8008 bound_to 7997
  154.5563  140.0708  156.8779 H   0  0  0  0  0  0  0  0  0  0  0  0  # atno 8009 bound_to 7997
  155.2933  140.3357  155.4253 H   0  0  0  0  0  0  0  0  0  0  0  0  # atno 8010 bound_to 7997
  139.9955  143.5596  152.2325 H   0  0  0  0  0  0  0  0  0  0  0  0  # atno 10167 bound_to 10162
  157.5853  131.1070  150.8107 H   0  0  0  0  0  0  0  0  0  0  0  0  # atno 10718 bound_to 10713
  154.8725  135.4058  154.3130 H   0  0  0  0  0  0  0  0  0  0  0  0  # atno 10763 bound_to 10752
  153.3971  135.7017  153.6458 H   0  0  0  0  0  0  0  0  0  0  0  0  # atno 10764 bound_to 10752
  153.5217  135.3686  155.2606 H   0  0  0  0  0  0  0  0  0  0  0  0  # atno 10765 bound_to 10752
  140.0135  134.9428  157.0328 H   0  0  0  0  0  0  0  0  0  0  0  0  # atno 11005 bound_to 11000
  145.9635  139.2818  143.1141 LP  0  0  0  0  0  0  0  0  0  0  0  0  # atno 17320 bound_to 7965
  145.9195  140.9125  143.0412 LP  0  0  0  0  0  0  0  0  0  0  0  0  # atno 17321 bound_to 7965
  139.6309  144.7644  151.2538 LP  0  0  0  0  0  0  0  0  0  0  0  0  # atno 17342 bound_to 10162
  140.7439  143.6481  150.8273 LP  0  0  0  0  0  0  0  0  0  0  0  0  # atno 17343 bound_to 10162
  156.8542  130.5091  149.5309 LP  0  0  0  0  0  0  0  0  0  0  0  0  # atno 17370 bound_to 10713
  156.0902  130.5889  150.9719 LP  0  0  0  0  0  0  0  0  0  0  0  0  # atno 17371 bound_to 10713
  140.4512  134.1581  155.7182 LP  0  0  0  0  0  0  0  0  0  0  0  0  # atno 17394 bound_to 11000
  141.1727  133.8576  157.1519 LP  0  0  0  0  0  0  0  0  0  0  0  0  # atno 17395 bound_to 11000

$$$$
