AV-unprocessed.smi:1631|AV-procd|sdf|6526|dock8
  -GOLD-   22720 7203D 1   1.00000     0.00000
 Structure written by MMmdl.
 38 39  0  0  0  0  0  0  0  0  1 V2000
  148.0219  141.1125  153.7210 C   0  0  0  0  0  0  0  0  0  0  0  0
  147.6676  141.3230  155.1704 C   0  0  0  0  0  0  0  0  0  0  0  0
  148.6012  141.0299  156.0145 N   0  0  0  0  0  0  0  0  0  0  0  0
  148.4202  141.1790  157.3746 N   0  0  0  0  0  0  0  0  0  0  0  0
  149.5950  140.8075  158.1747 C   0  0  0  0  0  0  0  0  0  0  0  0
  150.8872  141.4960  157.6779 C   0  0  2  0  0  0  0  0  0  0  0  0
  151.5006  140.6563  156.7186 O   0  0  0  0  0  0  0  0  0  0  0  0
  151.8407  141.7835  158.8379 C   0  0  0  0  0  0  0  0  0  0  0  0
  152.6147  140.7117  159.3410 C   0  0  0  0  0  0  0  0  0  0  0  0
  153.5064  140.9011  160.4109 C   0  0  0  0  0  0  0  0  0  0  0  0
  153.6358  142.1721  160.9934 C   0  0  0  0  0  0  0  0  0  0  0  0
  152.8747  143.2483  160.5032 C   0  0  0  0  0  0  0  0  0  0  0  0
  151.9727  143.0744  159.4262 C   0  0  0  0  0  0  0  0  0  0  0  0
  151.1748  144.2800  158.9276 C   0  0  0  0  0  0  0  0  0  0  0  0
  151.4562  145.3838  159.6213 F   0  0  0  0  0  0  0  0  0  0  0  0
  151.4631  144.5241  157.6489 F   0  0  0  0  0  0  0  0  0  0  0  0
  149.8682  144.0510  159.0519 F   0  0  0  0  0  0  0  0  0  0  0  0
  147.2743  141.6298  157.9590 C   0  0  0  0  0  0  0  0  0  0  0  0
  147.1528  141.7447  159.1790 O   0  0  0  0  0  0  0  0  0  0  0  0
  146.2178  141.9610  157.0006 C   0  0  0  0  0  0  0  0  0  0  0  0
  145.0024  142.4420  157.5746 C   0  0  0  0  0  0  0  0  0  0  0  0
  144.0197  142.8499  158.0308 N   0  0  0  0  0  0  0  0  0  0  0  0
  146.3830  141.8211  155.6609 C   0  0  0  0  0  0  0  0  0  0  0  0
  145.3078  142.1550  154.6356 C   0  0  0  0  0  0  0  0  0  0  0  0
  147.2048  141.3518  153.0432 H   0  0  0  0  0  0  0  0  0  0  0  0
  148.2992  140.0734  153.5400 H   0  0  0  0  0  0  0  0  0  0  0  0
  148.8705  141.7367  153.4392 H   0  0  0  0  0  0  0  0  0  0  0  0
  149.4129  141.0855  159.2147 H   0  0  0  0  0  0  0  0  0  0  0  0
  149.7198  139.7229  158.1934 H   0  0  0  0  0  0  0  0  0  0  0  0
  150.6252  142.4132  157.1579 H   0  0  0  0  0  0  0  0  0  0  0  0
  151.8918  139.9239  157.1699 H   0  0  0  0  0  0  0  0  0  0  0  0
  152.5256  139.7283  158.9030 H   0  0  0  0  0  0  0  0  0  0  0  0
  154.0899  140.0723  160.7840 H   0  0  0  0  0  0  0  0  0  0  0  0
  154.3193  142.3228  161.8158 H   0  0  0  0  0  0  0  0  0  0  0  0
  152.9967  144.2141  160.9702 H   0  0  0  0  0  0  0  0  0  0  0  0
  144.3886  142.5112  155.0995 H   0  0  0  0  0  0  0  0  0  0  0  0
  145.0532  141.2731  154.0467 H   0  0  0  0  0  0  0  0  0  0  0  0
  145.6553  142.9365  153.9589 H   0  0  0  0  0  0  0  0  0  0  0  0
  1  2  1  0  0  0  0
  1 25  1  0  0  0  0
  1 26  1  0  0  0  0
  1 27  1  0  0  0  0
  2 23  1  0  0  0  0
  2  3  2  0  0  0  0
  3  4  1  0  0  0  0
  4  5  1  0  0  0  0
  4 18  1  0  0  0  0
  5  6  1  0  0  0  0
  5 28  1  0  0  0  0
  5 29  1  0  0  0  0
  6  7  1  0  0  0  0
  6  8  1  0  0  0  0
  6 30  1  0  0  0  0
  7 31  1  0  0  0  0
  8 13  1  0  0  0  0
  8  9  2  0  0  0  0
  9 10  1  0  0  0  0
  9 32  1  0  0  0  0
 10 11  2  0  0  0  0
 10 33  1  0  0  0  0
 11 12  1  0  0  0  0
 11 34  1  0  0  0  0
 12 13  2  0  0  0  0
 12 35  1  0  0  0  0
 13 14  1  0  0  0  0
 14 15  1  0  0  0  0
 14 16  1  0  0  0  0
 14 17  1  0  0  0  0
 18 19  2  0  0  0  0
 18 20  1  0  0  0  0
 20 21  1  0  0  0  0
 20 23  2  0  0  0  0
 21 22  3  0  0  0  0
 23 24  1  0  0  0  0
 24 36  1  0  0  0  0
 24 37  1  0  0  0  0
 24 38  1  0  0  0  0
M  END
> <s_m_source_file>
AV-unprocessed.smi

> <i_m_source_file_index>
1631

> <i_lp_mmshare_version>
43012

> <i_f3d_flags>
0

> <s_epik_input>
TiNDYyhjMVtDSDNdKWMoPU8pbihuYzFbQ0gzXSlbQ0gyXVtDQEhdKFtPSF0pYzJbY0hdW2NIXVtjSF1bY0hdYzJDKEYpKEYpRg==

> <s_epik_cmdline>
J2VwaWtfcHl0aG9uJywgJy1waCcsICc3LjAnLCAnLXRuJywgJzgnLCAnLW1hJywgJzIwMCcsICctbWV0YWxfYmluZGluZycsICctaW1hZScsICc8aW5maWxlLm1hZT4nLCAnLW9tYWUnLCAnPG91dGZpbGUubWFlPic=

> <r_lp_tautomer_probability>
1

> <r_epik_Ionization_Penalty>
7.1854e-08

> <r_epik_Ionization_Penalty_Charging>
1.40848e-10

> <r_epik_Ionization_Penalty_Neutral>
7.17131e-08

> <r_epik_State_Penalty>
-0

> <r_epik_Charging_Adjusted_Penalty>
1.40848e-10

> <i_epik_Tot_Q>
0

> <i_epik_Tot_abs_Q>
0

> <r_epik_Metal_State_Penalty>
-0

> <b_epik_Metal_Only>
0

> <s_lp_Force_Field>
OPLS_2005

> <r_lp_Energy>
30.0509

> <b_lp_Chiralities_Consistent>
1

> <s_lp_Variant>
AV-unprocessed.smi:1631-1

> <Gold.Version>
5.8.1

> <Gold.Id.Protein>
6NUR|6NUR_protein|mol2

> <Gold.PLP.Fitness>
50.5072

> <Gold.PLP.PLP>
-50.9226

> <Gold.PLP.part.hbond>
-1.3381

> <Gold.PLP.part.metal>
0.0000

> <Gold.PLP.part.buried>
-7.5132

> <Gold.PLP.part.nonpolar>
-43.6519

> <Gold.PLP.part.repulsive>
0.1925

> <Gold.PLP.ligand.clash>
1.4061

> <Gold.PLP.ligand.torsion>
0.9822

> <Gold.PLP.Chemscore.Hbond>
0.5096

> <Gold.PLP.Chemscore.CHOScore>
0.0000

> <Gold.PLP.Chemscore.Metal>
0.0000

> <Gold.Chemscore.Hbonds>
donor molecule, donor type, donor heavy atom, donor atom, acceptor molecule, acceptor atom, score
      P1  H  6934  6946       L1    19  0.53

> <Gold.PLP.Chemscore.Internal.Correction>
1.4263

> <Gold.Rescore>
     Score         DG    S(hbond)    S(metal)    S(lipo)     H(rot)  DE(clash)    DE(int)     intcor
     12.67     -14.87       0.95        0.00      99.41       2.11       0.07       2.13       ----

> <Gold.Chemscore.Fitness>
12.6726

> <Gold.Chemscore.DG>
-14.8731

> <Gold.Chemscore.ZeroCoef>
-5.4800

> <Gold.Chemscore.Hbond>
0.9492

> <Gold.Chemscore.Metal>
0.0000

> <Gold.Chemscore.Lipo>
99.4060

> <Gold.Chemscore.Internal_Hbond>
0.0000

> <Gold.Chemscore.DEClash>
0.0659

> <Gold.Chemscore.DEInternal>
2.1346

> <Gold.Chemscore.Rot>
2.1124

> <Gold.Chemscore.Internal.Correction>
   9.000000E+99

> <Gold.Chemscore.Hbonds>
donor molecule, donor type, donor heavy atom, donor atom, acceptor molecule, acceptor atom, score
      P1  H  6934  6946       L1    19  0.54

> <Gold.Chemscore.Hbond.Weighted>
-3.1704

> <Gold.Chemscore.Metal.Weighted>
-0.0000

> <Gold.Chemscore.Lipo.Weighted>
-11.6305

> <Gold.Chemscore.Internal_Hbond.Weighted>
0.0000

> <Gold.Chemscore.DEClash.Weighted>
0.0659

> <Gold.Chemscore.DEInternal.Weighted>
2.1346

> <Gold.Chemscore.Rot.Weighted>
5.4078

> <Gold.Chemscore.Internal.Correction.Weighted>
   9.000000E+99

> <Gold.Protein.RotatedTorsions>
[ 6907 6896 6895 6894 ] final  127.52 input  -60.11 | X-H torsion
[ 7974 7965 7964 7962 ] final   38.29 input  175.53 | X-H torsion
[ 8008 7997 7996 7995 ] final  -64.34 input   59.86 | X-H torsion
[ 10167 10162 10161 10158 ] final -163.27 input  -65.29 | X-H torsion
[ 10718 10713 10712 10709 ] final  106.94 input   66.30 | X-H torsion
[ 10763 10752 10751 10750 ] final  119.04 input  -60.55 | X-H torsion
[ 11005 11000 10999 10996 ] final  -32.17 input  -57.11 | X-H torsion

> <Gold.Protein.ActiveResidues>
 VAL166  LYS551  ARG553  GLY616  TRP617  ASP618  TYR619  PRO620  LYS621  CYS622 
 ASP623  PHE694  ASN695  SER759  ASP760  ASP761  ALA762  ILE779  LEU786  VAL792 
 PHE793  MET794  SER795  GLU796  ALA797  LYS798  CYS799  TRP800  GLU811  SER814 

> <Gold.Protein.RotatedAtoms>
  152.3804  133.6539  159.6156 H   0  0  0  0  0  0  0  0  0  0  0  0  # atno 6907 bound_to 6896
  150.7737  133.9123  159.3382 H   0  0  0  0  0  0  0  0  0  0  0  0  # atno 6908 bound_to 6896
  151.6929  135.0944  160.0288 H   0  0  0  0  0  0  0  0  0  0  0  0  # atno 6909 bound_to 6896
  146.1073  139.5789  142.9375 H   0  0  0  0  0  0  0  0  0  0  0  0  # atno 7974 bound_to 7965
  154.4606  140.0956  156.6883 H   0  0  0  0  0  0  0  0  0  0  0  0  # atno 8008 bound_to 7997
  155.5005  140.3473  155.4352 H   0  0  0  0  0  0  0  0  0  0  0  0  # atno 8009 bound_to 7997
  156.0863  140.1386  156.9637 H   0  0  0  0  0  0  0  0  0  0  0  0  # atno 8010 bound_to 7997
  139.6332  144.0399  152.2033 H   0  0  0  0  0  0  0  0  0  0  0  0  # atno 10167 bound_to 10162
  157.6648  131.0862  150.6082 H   0  0  0  0  0  0  0  0  0  0  0  0  # atno 10718 bound_to 10713
  153.5769  135.3491  155.2859 H   0  0  0  0  0  0  0  0  0  0  0  0  # atno 10763 bound_to 10752
  154.8674  135.4172  154.2663 H   0  0  0  0  0  0  0  0  0  0  0  0  # atno 10764 bound_to 10752
  153.3441  135.7051  153.6912 H   0  0  0  0  0  0  0  0  0  0  0  0  # atno 10765 bound_to 10752
  140.9530  133.7210  156.1249 H   0  0  0  0  0  0  0  0  0  0  0  0  # atno 11005 bound_to 11000
  145.5736  141.0391  143.2161 LP  0  0  0  0  0  0  0  0  0  0  0  0  # atno 17320 bound_to 7965
  144.7481  139.7265  143.7284 LP  0  0  0  0  0  0  0  0  0  0  0  0  # atno 17321 bound_to 7965
  140.0070  144.6252  150.7680 LP  0  0  0  0  0  0  0  0  0  0  0  0  # atno 17342 bound_to 10162
  140.7451  143.2870  151.3435 LP  0  0  0  0  0  0  0  0  0  0  0  0  # atno 17343 bound_to 10162
  156.6384  130.4451  149.5761 LP  0  0  0  0  0  0  0  0  0  0  0  0  # atno 17370 bound_to 10713
  156.2228  130.6747  151.1386 LP  0  0  0  0  0  0  0  0  0  0  0  0  # atno 17371 bound_to 10713
  140.7576  134.3975  157.5531 LP  0  0  0  0  0  0  0  0  0  0  0  0  # atno 17394 bound_to 11000
  139.8853  134.8940  156.2650 LP  0  0  0  0  0  0  0  0  0  0  0  0  # atno 17395 bound_to 11000

$$$$
