#       Name:                AV-unprocessed.smi:1961
#       Creating user name   scv26
#       Creation time:       Fri Mar 27 10:08:30 2020


#       File generated by GOLD software.
#

@<TRIPOS>MOLECULE
AV-unprocessed.smi:1961
    42    43     1
SMALL
NO_CHARGES


@<TRIPOS>ATOM
      1 ****        -5.9450  -0.7742   0.8359 C.3            1 S1                 0.0000
      2 ****        -5.3532  -0.8495  -0.5792 C.3            1 S1                 0.0000
      3 ****        -5.8877  -2.0372  -1.3935 C.3            1 S1                 0.0000
      4 ****        -3.8567  -0.7996  -0.5695 C.2            1 S1                 0.0000
      5 ****        -3.0983  -1.7521  -0.0099 N.2            1 S1                 0.0000
      6 ****        -1.7416  -1.4861  -0.1299 N.2            1 S1                 0.0000
      7 ****        -1.5133  -0.3367  -0.7796 C.2            1 S1                 0.0000
      8 ****        -0.2158   0.1756  -1.0456 N.am           1 S1                 0.0000
      9 ****         0.9746  -0.3697  -0.7394 C.2            1 S1                 0.0000
     10 ****         1.1388  -1.4351  -0.1444 O.2            1 S1                 0.0000
     11 ****         1.9852   0.4002  -1.1677 N.am           1 S1                 0.0000
     12 ****         3.4014   0.0909  -1.0004 C.3            1 S1                 0.0000
     13 ****         3.8974   0.3975   0.4235 C.3            1 S1                 0.0000
     14 ****         3.7614   1.8610   0.8503 C.3            1 S1                 0.0000
     15 ****         4.9042   2.0638   1.8358 C.3            1 S1                 0.0000
     16 ****         5.7246   0.7760   1.7323 C.3            1 S1                 0.0000
     17 ****         5.2942   0.1722   0.5219 O.3            1 S1                 0.0000
     18 ****        -2.9524   0.5237  -1.2985 S.3            1 S1                 0.0000
     19 ****        -5.6089   0.1243   1.3544 H              1 S1                 0.0000
     20 ****        -5.6501  -1.6357   1.4361 H              1 S1                 0.0000
     21 ****        -7.0346  -0.7492   0.8045 H              1 S1                 0.0000
     22 ****        -5.6867   0.0506  -1.0973 H              1 S1                 0.0000
     23 ****        -5.5140  -2.0104  -2.4176 H              1 S1                 0.0000
     24 ****        -6.9770  -2.0241  -1.4395 H              1 S1                 0.0000
     25 ****        -5.5859  -2.9881  -0.9529 H              1 S1                 0.0000
     26 ****        -0.1912   1.0570  -1.5367 H              1 S1                 0.0000
     27 ****         1.7615   1.2600  -1.6468 H              1 S1                 0.0000
     28 ****         3.5867  -0.9559  -1.2468 H              1 S1                 0.0000
     29 ****         3.9638   0.6806  -1.7248 H              1 S1                 0.0000
     30 ****         3.3948  -0.2471   1.1473 H              1 S1                 0.0000
     31 ****         3.8981   2.5228  -0.0061 H              1 S1                 0.0000
     32 ****         2.7846   2.0744   1.2854 H              1 S1                 0.0000
     33 ****         5.4996   2.9324   1.5526 H              1 S1                 0.0000
     34 ****         4.5454   2.2203   2.8537 H              1 S1                 0.0000
     35 ****         6.7991   0.9604   1.7264 H              1 S1                 0.0000
     36 ****         5.4978   0.1083   2.5651 H              1 S1                 0.0000
     37 ****        -3.4683  -2.5632   0.4432 LP             1 S1                 0.0000
     38 ****        -1.0208  -2.0810   0.2259 LP             1 S1                 0.0000
     39 ****         0.3472  -1.9692   0.1526 LP             1 S1                 0.0000
     40 ****         2.0637  -1.7664   0.0419 LP             1 S1                 0.0000
     41 ****         5.7652   0.5876  -0.2562 LP             1 S1                 0.0000
     42 ****         5.4837  -0.8095   0.5409 LP             1 S1                 0.0000
@<TRIPOS>BOND
    1    1    2 1     
    2    1   19 1     
    3    1   20 1     
    4    1   21 1     
    5    2    3 1     
    6    2    4 1     
    7    2   22 1     
    8    3   23 1     
    9    3   24 1     
   10    3   25 1     
   11    4   18 1     
   12    4    5 2     
   13    5    6 1     
   14    6    7 2     
   15    7    8 1     
   16    7   18 1     
   17    8    9 am    
   18    8   26 1     
   19    9   10 2     
   20    9   11 am    
   21   11   12 1     
   22   11   27 1     
   23   12   13 1     
   24   12   28 1     
   25   12   29 1     
   26   13   17 1     
   27   13   14 1     
   28   13   30 1     
   29   14   15 1     
   30   14   31 1     
   31   14   32 1     
   32   15   16 1     
   33   15   33 1     
   34   15   34 1     
   35   16   17 1     
   36   16   35 1     
   37   16   36 1     
   38    5   37 1     
   39    6   38 1     
   40   10   39 1     
   41   10   40 1     
   42   17   41 1     
   43   17   42 1     
@<TRIPOS>SUBSTRUCTURE
      1 S1             1
@<TRIPOS>SET
LONE_PAIRS      STATIC     ATOMS    <user>   **** ""
6 37 38 39 40 41 42
DONOR_HYDROGENS      STATIC     ATOMS    <user>   **** ""
2 26 27
ATOM$BLUE        STATIC     ATOMS    COLORGROUP SYSTEM
6 37 38 39 40 41 42
ATOM$RED        STATIC     ATOMS    COLORGROUP SYSTEM
2 26 27
