AV-unprocessed.smi:557|AV-procd|sdf|2921|dock9
  -GOLD-   2262023413D 1   1.00000     0.00000
 Structure written by MMmdl.
 47 49  0  0  0  0  0  0  0  0  2 V2000
  151.9951  145.4666  160.0005 C   0  0  0  0  0  0  0  0  0  0  0  0
  151.7917  144.3239  159.1358 N   0  0  0  0  0  0  0  0  0  0  0  0
  150.6979  144.0209  158.3544 C   0  0  0  0  0  0  0  0  0  0  0  0
  150.9639  142.8427  157.7152 C   0  0  0  0  0  0  0  0  0  0  0  0
  150.0956  142.0806  156.7540 C   0  0  0  0  0  0  0  0  0  0  0  0
  150.9070  141.0452  155.9642 C   0  0  0  0  0  0  0  0  0  0  0  0
  150.1393  140.5522  154.8242 N   0  0  0  0  0  0  0  0  0  0  0  0
  148.8726  140.1047  154.8324 C   0  0  0  0  0  0  0  0  0  0  0  0
  148.2000  140.0732  155.8607 O   0  0  0  0  0  0  0  0  0  0  0  0
  148.4130  139.7093  153.6325 N   0  0  0  0  0  0  0  0  0  0  0  0
  147.0842  139.1573  153.3753 C   0  0  1  0  0  0  0  0  0  0  0  0
  146.7737  138.9968  151.8749 C   0  0  0  0  0  0  0  0  0  0  0  0
  146.0285  137.6615  151.7776 C   0  0  0  0  0  0  0  0  0  0  0  0
  146.6611  136.8600  152.8313 N   0  3  2  0  0  0  0  0  0  0  0  0
  146.0479  135.5711  153.2093 C   0  0  0  0  0  0  0  0  0  0  0  0
  147.0045  134.8459  154.1807 C   0  0  0  0  0  0  0  0  0  0  0  0
  147.4160  135.7369  155.3757 C   0  0  0  0  0  0  0  0  0  0  0  0
  147.9198  137.1227  154.9160 C   0  0  0  0  0  0  0  0  0  0  0  0
  146.8684  137.7523  153.9849 C   0  0  1  0  0  0  0  0  0  0  0  0
  152.2675  142.5031  158.1775 C   0  0  0  0  0  0  0  0  0  0  0  0
  152.7586  143.3897  159.0284 N   0  0  0  0  0  0  0  0  0  0  0  0
  151.1078  146.1003  159.9980 H   0  0  0  0  0  0  0  0  0  0  0  0
  152.8474  146.0484  159.6485 H   0  0  0  0  0  0  0  0  0  0  0  0
  152.1865  145.1298  161.0198 H   0  0  0  0  0  0  0  0  0  0  0  0
  149.8284  144.6607  158.3182 H   0  0  0  0  0  0  0  0  0  0  0  0
  149.2903  141.5767  157.2901 H   0  0  0  0  0  0  0  0  0  0  0  0
  149.6062  142.7629  156.0576 H   0  0  0  0  0  0  0  0  0  0  0  0
  151.8401  141.4900  155.6148 H   0  0  0  0  0  0  0  0  0  0  0  0
  151.1665  140.2066  156.6128 H   0  0  0  0  0  0  0  0  0  0  0  0
  150.5905  140.6230  153.9233 H   0  0  0  0  0  0  0  0  0  0  0  0
  149.0366  139.7873  152.8423 H   0  0  0  0  0  0  0  0  0  0  0  0
  146.3315  139.8278  153.7953 H   0  0  0  0  0  0  0  0  0  0  0  0
  146.1942  139.8287  151.4733 H   0  0  0  0  0  0  0  0  0  0  0  0
  147.7000  138.9331  151.3015 H   0  0  0  0  0  0  0  0  0  0  0  0
  144.9684  137.7943  152.0002 H   0  0  0  0  0  0  0  0  0  0  0  0
  146.1232  137.1960  150.7962 H   0  0  0  0  0  0  0  0  0  0  0  0
  145.0737  135.7381  153.6717 H   0  0  0  0  0  0  0  0  0  0  0  0
  145.8848  134.9643  152.3181 H   0  0  0  0  0  0  0  0  0  0  0  0
  146.5444  133.9255  154.5415 H   0  0  0  0  0  0  0  0  0  0  0  0
  147.9018  134.5455  153.6380 H   0  0  0  0  0  0  0  0  0  0  0  0
  146.5575  135.8678  156.0357 H   0  0  0  0  0  0  0  0  0  0  0  0
  148.1831  135.2371  155.9679 H   0  0  0  0  0  0  0  0  0  0  0  0
  148.0934  137.7593  155.7842 H   0  0  0  0  0  0  0  0  0  0  0  0
  148.8749  137.0214  154.3984 H   0  0  0  0  0  0  0  0  0  0  0  0
  145.9258  137.8019  154.5349 H   0  0  0  0  0  0  0  0  0  0  0  0
  152.8672  141.6419  157.9220 H   0  0  0  0  0  0  0  0  0  0  0  0
  147.5829  136.6431  152.4807 H   0  0  0  0  0  0  0  0  0  0  0  0
  1  2  1  0  0  0  0
  1 22  1  0  0  0  0
  1 23  1  0  0  0  0
  1 24  1  0  0  0  0
  2 21  1  0  0  0  0
  2  3  1  0  0  0  0
  3  4  2  0  0  0  0
  3 25  1  0  0  0  0
  4  5  1  0  0  0  0
  4 20  1  0  0  0  0
  5  6  1  0  0  0  0
  5 26  1  0  0  0  0
  5 27  1  0  0  0  0
  6  7  1  0  0  0  0
  6 28  1  0  0  0  0
  6 29  1  0  0  0  0
  7  8  1  0  0  0  0
  7 30  1  0  0  0  0
  8  9  2  0  0  0  0
  8 10  1  0  0  0  0
 10 11  1  0  0  0  0
 10 31  1  0  0  0  0
 11 19  1  0  0  0  0
 11 12  1  0  0  0  0
 11 32  1  0  0  0  0
 12 13  1  0  0  0  0
 12 33  1  0  0  0  0
 12 34  1  0  0  0  0
 13 14  1  0  0  0  0
 13 35  1  0  0  0  0
 13 36  1  0  0  0  0
 14 19  1  0  0  0  0
 14 15  1  0  0  0  0
 14 47  1  0  0  0  0
 15 16  1  0  0  0  0
 15 37  1  0  0  0  0
 15 38  1  0  0  0  0
 16 17  1  0  0  0  0
 16 39  1  0  0  0  0
 16 40  1  0  0  0  0
 17 18  1  0  0  0  0
 17 41  1  0  0  0  0
 17 42  1  0  0  0  0
 18 19  1  0  0  0  0
 18 43  1  0  0  0  0
 18 44  1  0  0  0  0
 19 45  1  0  0  0  0
 20 21  2  0  0  0  0
 20 46  1  0  0  0  0
M  CHG  1  14   1
M  END
> <s_m_source_file>
AV-unprocessed.smi

> <i_m_source_file_index>
557

> <i_lp_mmshare_version>
43012

> <i_f3d_flags>
0

> <s_epik_input>
W0NIM11uMVtjSF1jKFtjSF1uMSlbQ0gyXVtDSDJdW05IXUMoPU8pW05IXVtDQEhdKFtDSDJdW0NIMl0yKVtDQEhdKE4yMylbQ0gyXVtDSDJdW0NIMl1bQ0gyXTM=

> <s_epik_cmdline>
J2VwaWtfcHl0aG9uJywgJy1waCcsICc3LjAnLCAnLXRuJywgJzgnLCAnLW1hJywgJzIwMCcsICctbWV0YWxfYmluZGluZycsICctaW1hZScsICc8aW5maWxlLm1hZT4nLCAnLW9tYWUnLCAnPG91dGZpbGUubWFlPic=

> <r_lp_tautomer_probability>
1

> <r_epik_Ionization_Penalty>
0.000956547

> <r_epik_Ionization_Penalty_Charging>
0.000435796

> <r_epik_Ionization_Penalty_Neutral>
0.000520752

> <r_epik_State_Penalty>
-0

> <r_epik_Charging_Adjusted_Penalty>
0.000435796

> <i_epik_Tot_Q>
1

> <i_epik_Tot_abs_Q>
1

> <r_epik_Metal_State_Penalty>
-0

> <b_epik_Metal_Only>
0

> <s_lp_Force_Field>
OPLS_2005

> <r_lp_Energy>
46.7552

> <b_lp_Chiralities_Consistent>
1

> <s_lp_Variant>
AV-unprocessed.smi:557-8

> <Gold.Version>
5.8.1

> <Gold.Id.Protein>
6NUR|6NUR_protein|mol2

> <Gold.PLP.Fitness>
45.2232

> <Gold.PLP.PLP>
-33.7975

> <Gold.PLP.part.hbond>
-2.0000

> <Gold.PLP.part.metal>
0.0000

> <Gold.PLP.part.buried>
-2.7537

> <Gold.PLP.part.nonpolar>
-30.5614

> <Gold.PLP.part.repulsive>
1.0270

> <Gold.PLP.ligand.clash>
0.0000

> <Gold.PLP.ligand.torsion>
0.3951

> <Gold.PLP.Chemscore.Hbond>
3.0000

> <Gold.PLP.Chemscore.CHOScore>
1.0673

> <Gold.PLP.Chemscore.Metal>
0.0000

> <Gold.Chemscore.Hbonds>
donor molecule, donor type, donor heavy atom, donor atom, acceptor molecule, acceptor atom, score
      L1  H    10    31       P1  7957  1.00
      L1  H    14    47       P1  7948  2.00
      L1  C     3    25       P1  8028  0.08
      L1  C     3    25       P1  8029  0.94

> <Gold.PLP.Chemscore.Internal.Correction>
0.0141

> <Gold.Rescore>
     Score         DG    S(hbond)    S(metal)    S(lipo)     H(rot)  DE(clash)    DE(int)     intcor
     16.25     -18.00       1.97        0.00      85.88       1.60       0.36       1.39       ----

> <Gold.Chemscore.Fitness>
16.2483

> <Gold.Chemscore.DG>
-18.0016

> <Gold.Chemscore.ZeroCoef>
-5.4800

> <Gold.Chemscore.Hbond>
1.9682

> <Gold.Chemscore.Metal>
0.0000

> <Gold.Chemscore.Lipo>
85.8832

> <Gold.Chemscore.Internal_Hbond>
0.0000

> <Gold.Chemscore.DEClash>
0.3648

> <Gold.Chemscore.DEInternal>
1.3884

> <Gold.Chemscore.Rot>
1.6018

> <Gold.Chemscore.Internal.Correction>
   9.000000E+99

> <Gold.Chemscore.Hbonds>
donor molecule, donor type, donor heavy atom, donor atom, acceptor molecule, acceptor atom, score
      L1  H    10    31       P1  7957  1.00
      L1  H    14    47       P1  7948  0.95

> <Gold.Chemscore.Hbond.Weighted>
-6.5739

> <Gold.Chemscore.Metal.Weighted>
-0.0000

> <Gold.Chemscore.Lipo.Weighted>
-10.0483

> <Gold.Chemscore.Internal_Hbond.Weighted>
0.0000

> <Gold.Chemscore.DEClash.Weighted>
0.3648

> <Gold.Chemscore.DEInternal.Weighted>
1.3884

> <Gold.Chemscore.Rot.Weighted>
4.1006

> <Gold.Chemscore.Internal.Correction.Weighted>
   9.000000E+99

> <Gold.Protein.RotatedTorsions>
[ 6907 6896 6895 6894 ] final -137.58 input  -60.11 | X-H torsion
[ 7974 7965 7964 7962 ] final -137.63 input  175.53 | X-H torsion
[ 8008 7997 7996 7995 ] final   -3.97 input   59.86 | X-H torsion
[ 10167 10162 10161 10158 ] final  -36.30 input  -65.29 | X-H torsion
[ 10718 10713 10712 10709 ] final  -56.95 input   66.30 | X-H torsion
[ 10763 10752 10751 10750 ] final  -90.80 input  -60.55 | X-H torsion
[ 11005 11000 10999 10996 ] final    2.92 input  -57.11 | X-H torsion

> <Gold.Protein.ActiveResidues>
 VAL166  LYS551  ARG553  GLY616  TRP617  ASP618  TYR619  PRO620  LYS621  CYS622 
 ASP623  PHE694  ASN695  SER759  ASP760  ASP761  ALA762  ILE779  LEU786  VAL792 
 PHE793  MET794  SER795  GLU796  ALA797  LYS798  CYS799  TRP800  GLU811  SER814 

> <Gold.Protein.RotatedAtoms>
  151.0243  133.5848  159.2667 H   0  0  0  0  0  0  0  0  0  0  0  0  # atno 6907 bound_to 6896
  151.2953  135.0752  159.9229 H   0  0  0  0  0  0  0  0  0  0  0  0  # atno 6908 bound_to 6896
  152.5330  133.9934  159.7915 H   0  0  0  0  0  0  0  0  0  0  0  0  # atno 6909 bound_to 6896
  144.8826  140.6528  143.5196 H   0  0  0  0  0  0  0  0  0  0  0  0  # atno 7974 bound_to 7965
  154.6193  140.2496  155.7570 H   0  0  0  0  0  0  0  0  0  0  0  0  # atno 8008 bound_to 7997
  156.2417  140.2930  156.0412 H   0  0  0  0  0  0  0  0  0  0  0  0  # atno 8009 bound_to 7997
  155.1923  140.0392  157.2893 H   0  0  0  0  0  0  0  0  0  0  0  0  # atno 8010 bound_to 7997
  140.7146  143.3418  151.2341 H   0  0  0  0  0  0  0  0  0  0  0  0  # atno 10167 bound_to 10162
  156.1249  130.4163  150.0374 H   0  0  0  0  0  0  0  0  0  0  0  0  # atno 10718 bound_to 10713
  154.6695  135.5291  153.8120 H   0  0  0  0  0  0  0  0  0  0  0  0  # atno 10763 bound_to 10752
  153.0492  135.6525  154.0747 H   0  0  0  0  0  0  0  0  0  0  0  0  # atno 10764 bound_to 10752
  154.0647  135.2959  155.3298 H   0  0  0  0  0  0  0  0  0  0  0  0  # atno 10765 bound_to 10752
  140.5989  133.9855  155.8122 H   0  0  0  0  0  0  0  0  0  0  0  0  # atno 11005 bound_to 11000
  145.3927  139.1613  143.4220 LP  0  0  0  0  0  0  0  0  0  0  0  0  # atno 17320 bound_to 7965
  146.3004  140.4018  142.8706 LP  0  0  0  0  0  0  0  0  0  0  0  0  # atno 17321 bound_to 7965
  139.6928  143.9664  152.2867 LP  0  0  0  0  0  0  0  0  0  0  0  0  # atno 17342 bound_to 10162
  139.9331  144.6729  150.8342 LP  0  0  0  0  0  0  0  0  0  0  0  0  # atno 17343 bound_to 10162
  156.8302  130.9390  151.3637 LP  0  0  0  0  0  0  0  0  0  0  0  0  # atno 17370 bound_to 10713
  157.6431  130.8822  149.9486 LP  0  0  0  0  0  0  0  0  0  0  0  0  # atno 17371 bound_to 10713
  141.0886  133.9952  157.3274 LP  0  0  0  0  0  0  0  0  0  0  0  0  # atno 17394 bound_to 11000
  139.9241  135.0201  156.8172 LP  0  0  0  0  0  0  0  0  0  0  0  0  # atno 17395 bound_to 11000

$$$$
