AV-unprocessed.smi:1804|AV-procd|sdf|7296|dock1
  -GOLD-   22720 8553D 1   1.00000     0.00000
 Structure written by MMmdl.
 43 44  0  0  0  0  0  0  0  0  3 V2000
  150.2671  135.6672  154.7613 C   0  0  0  0  0  0  0  0  0  0  0  0
  149.7607  137.0385  154.4879 N   0  3  0  0  0  0  0  0  0  0  0  0
  150.8944  137.9254  154.1146 C   0  0  0  0  0  0  0  0  0  0  0  0
  148.8024  137.5913  155.5128 C   0  0  0  0  0  0  0  0  0  0  0  0
  149.5385  137.7488  156.8843 C   0  0  0  0  0  0  0  0  0  0  0  0
  148.6609  137.6000  158.0458 N   0  0  0  0  0  0  0  0  0  0  0  0
  149.0055  137.1308  159.2536 C   0  0  0  0  0  0  0  0  0  0  0  0
  150.1664  136.7774  159.4722 O   0  0  0  0  0  0  0  0  0  0  0  0
  147.9793  137.0962  160.1324 N   0  5  0  0  0  0  0  0  0  0  0  0
  147.6418  135.9380  160.7231 C   0  0  0  0  0  0  0  0  0  0  0  0
  147.6490  134.7672  160.0658 N   0  0  0  0  0  0  0  0  0  0  0  0
  147.2663  133.6939  160.8591 N   0  0  0  0  0  0  0  0  0  0  0  0
  146.9706  134.0863  162.0980 C   0  0  0  0  0  0  0  0  0  0  0  0
  147.1294  135.8023  162.4072 S   0  0  0  0  0  0  0  0  0  0  0  0
  148.2620  139.0029  155.1078 C   0  0  0  0  0  0  0  0  0  0  0  0
  147.6271  139.1682  153.7140 C   0  0  0  0  0  0  0  0  0  0  0  0
  146.3933  138.2961  153.4496 C   0  0  0  0  0  0  0  0  0  0  0  0
  146.7621  136.8302  153.2015 C   0  0  0  0  0  0  0  0  0  0  0  0
  146.9259  135.9791  154.4693 C   0  0  0  0  0  0  0  0  0  0  0  0
  147.5796  136.6380  155.7069 C   0  0  0  0  0  0  0  0  0  0  0  0
  151.0205  135.6684  155.5493 H   0  0  0  0  0  0  0  0  0  0  0  0
  150.7387  135.2621  153.8655 H   0  0  0  0  0  0  0  0  0  0  0  0
  149.4854  134.9671  155.0480 H   0  0  0  0  0  0  0  0  0  0  0  0
  151.5819  138.0718  154.9475 H   0  0  0  0  0  0  0  0  0  0  0  0
  150.5759  138.9033  153.7603 H   0  0  0  0  0  0  0  0  0  0  0  0
  151.4639  137.4764  153.3001 H   0  0  0  0  0  0  0  0  0  0  0  0
  150.3735  137.0535  156.9674 H   0  0  0  0  0  0  0  0  0  0  0  0
  149.9798  138.7412  156.9679 H   0  0  0  0  0  0  0  0  0  0  0  0
  147.6972  137.8748  157.9230 H   0  0  0  0  0  0  0  0  0  0  0  0
  146.6538  133.3619  162.8334 H   0  0  0  0  0  0  0  0  0  0  0  0
  147.5184  139.3291  155.8362 H   0  0  0  0  0  0  0  0  0  0  0  0
  149.0606  139.7396  155.2006 H   0  0  0  0  0  0  0  0  0  0  0  0
  147.3272  140.2118  153.6126 H   0  0  0  0  0  0  0  0  0  0  0  0
  148.3649  139.0070  152.9286 H   0  0  0  0  0  0  0  0  0  0  0  0
  145.6609  138.3894  154.2522 H   0  0  0  0  0  0  0  0  0  0  0  0
  145.9039  138.6769  152.5523 H   0  0  0  0  0  0  0  0  0  0  0  0
  145.9864  136.3700  152.5883 H   0  0  0  0  0  0  0  0  0  0  0  0
  147.6688  136.7772  152.5979 H   0  0  0  0  0  0  0  0  0  0  0  0
  145.9403  135.6253  154.7746 H   0  0  0  0  0  0  0  0  0  0  0  0
  147.4720  135.0757  154.1993 H   0  0  0  0  0  0  0  0  0  0  0  0
  147.8537  135.8293  156.3850 H   0  0  0  0  0  0  0  0  0  0  0  0
  146.7980  137.1761  156.2452 H   0  0  0  0  0  0  0  0  0  0  0  0
  149.2035  136.9527  153.6499 H   0  0  0  0  0  0  0  0  0  0  0  0
  1  2  1  0  0  0  0
  1 21  1  0  0  0  0
  1 22  1  0  0  0  0
  1 23  1  0  0  0  0
  2  3  1  0  0  0  0
  2  4  1  0  0  0  0
  2 43  1  0  0  0  0
  3 24  1  0  0  0  0
  3 25  1  0  0  0  0
  3 26  1  0  0  0  0
  4 20  1  0  0  0  0
  4  5  1  0  0  0  0
  4 15  1  0  0  0  0
  5  6  1  0  0  0  0
  5 27  1  0  0  0  0
  5 28  1  0  0  0  0
  6  7  1  0  0  0  0
  6 29  1  0  0  0  0
  7  8  2  0  0  0  0
  7  9  1  0  0  0  0
  9 10  1  0  0  0  0
 10 14  1  0  0  0  0
 10 11  2  0  0  0  0
 11 12  1  0  0  0  0
 12 13  2  0  0  0  0
 13 14  1  0  0  0  0
 13 30  1  0  0  0  0
 15 16  1  0  0  0  0
 15 31  1  0  0  0  0
 15 32  1  0  0  0  0
 16 17  1  0  0  0  0
 16 33  1  0  0  0  0
 16 34  1  0  0  0  0
 17 18  1  0  0  0  0
 17 35  1  0  0  0  0
 17 36  1  0  0  0  0
 18 19  1  0  0  0  0
 18 37  1  0  0  0  0
 18 38  1  0  0  0  0
 19 20  1  0  0  0  0
 19 39  1  0  0  0  0
 19 40  1  0  0  0  0
 20 41  1  0  0  0  0
 20 42  1  0  0  0  0
M  CHG  1   2   1
M  CHG  1   9  -1
M  END
> <s_m_source_file>
AV-unprocessed.smi

> <i_m_source_file_index>
1804

> <i_lp_mmshare_version>
43012

> <i_f3d_flags>
0

> <s_epik_input>
W0NIMl0xW0NIMl1bQ0gyXVtDSDJdW0NIMl1bQ0gyXUMxKE4oW0NIM10pW0NIM10pW0NIMl1bTkhdQyg9TylbTkhdYzJubltjSF1zMg==

> <s_epik_cmdline>
J2VwaWtfcHl0aG9uJywgJy1waCcsICc3LjAnLCAnLXRuJywgJzgnLCAnLW1hJywgJzIwMCcsICctbWV0YWxfYmluZGluZycsICctaW1hZScsICc8aW5maWxlLm1hZT4nLCAnLW9tYWUnLCAnPG91dGZpbGUubWFlPic=

> <r_lp_tautomer_probability>
1

> <r_epik_Ionization_Penalty>
3.99544

> <r_epik_Ionization_Penalty_Charging>
3.96227

> <r_epik_Ionization_Penalty_Neutral>
0.0331711

> <r_epik_State_Penalty>
3.95985

> <r_epik_Charging_Adjusted_Penalty>
7.92213

> <i_epik_Tot_Q>
0

> <i_epik_Tot_abs_Q>
2

> <r_epik_Metal_State_Penalty>
0.609364

> <b_epik_Metal_Only>
1

> <s_lp_Force_Field>
OPLS_2005

> <r_lp_Energy>
27.9036

> <b_lp_Chiralities_Consistent>
1

> <s_lp_Variant>
AV-unprocessed.smi:1804-2

> <Gold.Version>
5.8.1

> <Gold.Id.Protein>
6NUR|6NUR_protein|mol2

> <Gold.PLP.Fitness>
36.3821

> <Gold.PLP.PLP>
-24.5314

> <Gold.PLP.part.hbond>
-4.0000

> <Gold.PLP.part.metal>
0.0000

> <Gold.PLP.part.buried>
-0.8038

> <Gold.PLP.part.nonpolar>
-20.3656

> <Gold.PLP.part.repulsive>
0.1441

> <Gold.PLP.ligand.clash>
0.0000

> <Gold.PLP.ligand.torsion>
1.6017

> <Gold.PLP.Chemscore.Hbond>
4.9775

> <Gold.PLP.Chemscore.CHOScore>
0.0000

> <Gold.PLP.Chemscore.Metal>
0.0000

> <Gold.Chemscore.Hbonds>
donor molecule, donor type, donor heavy atom, donor atom, acceptor molecule, acceptor atom, score
      L1  H     2    43       P1  7948  1.95
      P1  H  6896  6909       L1     8  1.00
      P1  H  6931  6943       L1     9  0.23
      P1  H  6934  6947       L1     9  0.80

> <Gold.PLP.Chemscore.Internal.Correction>
0.1215

> <Gold.Rescore>
     Score         DG    S(hbond)    S(metal)    S(lipo)     H(rot)  DE(clash)    DE(int)     intcor
     12.69     -14.54       2.16        0.00      51.33       1.62       0.27       1.58       ----

> <Gold.Chemscore.Fitness>
12.6885

> <Gold.Chemscore.DG>
-14.5430

> <Gold.Chemscore.ZeroCoef>
-5.4800

> <Gold.Chemscore.Hbond>
2.1603

> <Gold.Chemscore.Metal>
0.0000

> <Gold.Chemscore.Lipo>
51.3296

> <Gold.Chemscore.Internal_Hbond>
0.0000

> <Gold.Chemscore.DEClash>
0.2717

> <Gold.Chemscore.DEInternal>
1.5828

> <Gold.Chemscore.Rot>
1.6242

> <Gold.Chemscore.Internal.Correction>
   9.000000E+99

> <Gold.Chemscore.Hbonds>
donor molecule, donor type, donor heavy atom, donor atom, acceptor molecule, acceptor atom, score
      L1  H     2    43       P1  7948  0.92
      P1  H  6896  6909       L1     8  0.94
      P1  H  6931  6943       L1     9  0.01
      P1  H  6934  6947       L1     9  0.38

> <Gold.Chemscore.Hbond.Weighted>
-7.2154

> <Gold.Chemscore.Metal.Weighted>
-0.0000

> <Gold.Chemscore.Lipo.Weighted>
-6.0056

> <Gold.Chemscore.Internal_Hbond.Weighted>
0.0000

> <Gold.Chemscore.DEClash.Weighted>
0.2717

> <Gold.Chemscore.DEInternal.Weighted>
1.5828

> <Gold.Chemscore.Rot.Weighted>
4.1579

> <Gold.Chemscore.Internal.Correction.Weighted>
   9.000000E+99

> <Gold.Protein.RotatedTorsions>
[ 6907 6896 6895 6894 ] final  102.50 input  -60.11 | X-H torsion
[ 7974 7965 7964 7962 ] final -173.21 input  175.53 | X-H torsion
[ 8008 7997 7996 7995 ] final  -92.95 input   59.86 | X-H torsion
[ 10167 10162 10161 10158 ] final  117.10 input  -65.29 | X-H torsion
[ 10718 10713 10712 10709 ] final  -98.39 input   66.30 | X-H torsion
[ 10763 10752 10751 10750 ] final   21.75 input  -60.55 | X-H torsion
[ 11005 11000 10999 10996 ] final  -73.85 input  -57.11 | X-H torsion

> <Gold.Protein.ActiveResidues>
 VAL166  LYS551  ARG553  GLY616  TRP617  ASP618  TYR619  PRO620  LYS621  CYS622 
 ASP623  PHE694  ASN695  SER759  ASP760  ASP761  ALA762  ILE779  LEU786  VAL792 
 PHE793  MET794  SER795  GLU796  ALA797  LYS798  CYS799  TRP800  GLU811  SER814 

> <Gold.Protein.RotatedAtoms>
  152.5322  133.9966  159.7875 H   0  0  0  0  0  0  0  0  0  0  0  0  # atno 6907 bound_to 6896
  151.0193  133.5884  159.2680 H   0  0  0  0  0  0  0  0  0  0  0  0  # atno 6908 bound_to 6896
  151.2930  135.0754  159.9264 H   0  0  0  0  0  0  0  0  0  0  0  0  # atno 6909 bound_to 6896
  144.7139  140.1655  143.6372 H   0  0  0  0  0  0  0  0  0  0  0  0  # atno 7974 bound_to 7965
  154.7295  140.0504  157.0714 H   0  0  0  0  0  0  0  0  0  0  0  0  # atno 8008 bound_to 7997
  155.0320  140.3159  155.4736 H   0  0  0  0  0  0  0  0  0  0  0  0  # atno 8009 bound_to 7997
  156.2838  140.2148  156.5442 H   0  0  0  0  0  0  0  0  0  0  0  0  # atno 8010 bound_to 7997
  139.6201  144.7099  151.2653 H   0  0  0  0  0  0  0  0  0  0  0  0  # atno 10167 bound_to 10162
  156.0106  130.5236  150.6515 H   0  0  0  0  0  0  0  0  0  0  0  0  # atno 10718 bound_to 10713
  153.0970  135.6662  153.9744 H   0  0  0  0  0  0  0  0  0  0  0  0  # atno 10763 bound_to 10752
  153.9325  135.3002  155.3446 H   0  0  0  0  0  0  0  0  0  0  0  0  # atno 10764 bound_to 10752
  154.7389  135.5088  153.9164 H   0  0  0  0  0  0  0  0  0  0  0  0  # atno 10765 bound_to 10752
  141.1628  133.6892  156.7275 H   0  0  0  0  0  0  0  0  0  0  0  0  # atno 11005 bound_to 11000
  145.8991  139.2420  143.1504 LP  0  0  0  0  0  0  0  0  0  0  0  0  # atno 17320 bound_to 7965
  145.9828  140.8668  143.0105 LP  0  0  0  0  0  0  0  0  0  0  0  0  # atno 17321 bound_to 7965
  140.7376  143.6671  150.8113 LP  0  0  0  0  0  0  0  0  0  0  0  0  # atno 17342 bound_to 10162
  140.0281  143.5472  152.2772 LP  0  0  0  0  0  0  0  0  0  0  0  0  # atno 17343 bound_to 10162
  157.4276  131.0845  151.1070 LP  0  0  0  0  0  0  0  0  0  0  0  0  # atno 17370 bound_to 10713
  157.1653  130.6243  149.5623 LP  0  0  0  0  0  0  0  0  0  0  0  0  # atno 17371 bound_to 10713
  140.2770  134.8347  157.3899 LP  0  0  0  0  0  0  0  0  0  0  0  0  # atno 17394 bound_to 11000
  140.1468  134.4901  155.7990 LP  0  0  0  0  0  0  0  0  0  0  0  0  # atno 17395 bound_to 11000

$$$$
