AV-unprocessed.smi:2091|AV-procd|sdf|8538|dock5
  -GOLD-   2272011263D 1   1.00000     0.00000
 Structure written by MMmdl.
 36 37  0  0  0  0  0  0  0  0  1 V2000
  151.5750  140.7525  155.3990 O   0  0  0  0  0  0  0  0  0  0  0  0
  150.4514  140.5954  155.8784 C   0  0  0  0  0  0  0  0  0  0  0  0
  149.3205  139.9910  155.0355 C   0  0  0  0  0  0  0  0  0  0  0  0
  148.1278  140.8484  154.9909 N   0  0  0  0  0  0  0  0  0  0  0  0
  147.7891  141.5211  153.8255 C   0  0  0  0  0  0  0  0  0  0  0  0
  146.7086  142.3304  153.7191 C   0  0  0  0  0  0  0  0  0  0  0  0
  145.8253  142.5372  154.8616 C   0  0  0  0  0  0  0  0  0  0  0  0
  144.8225  143.2474  154.8630 O   0  0  0  0  0  0  0  0  0  0  0  0
  146.2015  141.8463  156.0164 N   0  0  0  0  0  0  0  0  0  0  0  0
  147.3146  141.0125  156.1335 C   0  0  0  0  0  0  0  0  0  0  0  0
  147.5578  140.4518  157.2016 O   0  0  0  0  0  0  0  0  0  0  0  0
  150.1414  140.9118  157.1458 N   0  0  0  0  0  0  0  0  0  0  0  0
  151.0536  141.5098  158.1232 C   0  0  2  0  0  0  0  0  0  0  0  0
  151.3845  142.9389  157.6349 C   0  0  0  0  0  0  0  0  0  0  0  0
  151.8686  143.8815  158.7502 C   0  0  0  0  0  0  0  0  0  0  0  0
  153.2100  143.4939  159.3902 C   0  0  0  0  0  0  0  0  0  0  0  0
  153.1819  142.1326  160.1057 C   0  0  0  0  0  0  0  0  0  0  0  0
  153.2607  141.0193  159.1692 N   0  0  0  0  0  0  0  0  0  0  0  0
  152.3619  140.6903  158.2288 C   0  0  0  0  0  0  0  0  0  0  0  0
  152.5813  139.7531  157.4616 O   0  0  0  0  0  0  0  0  0  0  0  0
  145.6211  141.9601  156.8346 H   0  0  0  0  0  0  0  0  0  0  0  0
  149.7046  139.8216  154.0287 H   0  0  0  0  0  0  0  0  0  0  0  0
  149.0557  139.0009  155.4127 H   0  0  0  0  0  0  0  0  0  0  0  0
  148.4174  141.4005  152.9543 H   0  0  0  0  0  0  0  0  0  0  0  0
  146.4970  142.8279  152.7837 H   0  0  0  0  0  0  0  0  0  0  0  0
  149.1928  140.7519  157.4519 H   0  0  0  0  0  0  0  0  0  0  0  0
  150.5567  141.5491  159.0943 H   0  0  0  0  0  0  0  0  0  0  0  0
  152.1096  142.9154  156.8194 H   0  0  0  0  0  0  0  0  0  0  0  0
  150.4845  143.3865  157.2104 H   0  0  0  0  0  0  0  0  0  0  0  0
  151.9605  144.8869  158.3383 H   0  0  0  0  0  0  0  0  0  0  0  0
  151.1034  143.9486  159.5244 H   0  0  0  0  0  0  0  0  0  0  0  0
  154.0047  143.5107  158.6428 H   0  0  0  0  0  0  0  0  0  0  0  0
  153.4704  144.2620  160.1192 H   0  0  0  0  0  0  0  0  0  0  0  0
  154.0466  142.0573  160.7656 H   0  0  0  0  0  0  0  0  0  0  0  0
  152.3013  142.0373  160.7424 H   0  0  0  0  0  0  0  0  0  0  0  0
  154.0984  140.4573  159.2168 H   0  0  0  0  0  0  0  0  0  0  0  0
  1  2  2  0  0  0  0
  2  3  1  0  0  0  0
  2 12  1  0  0  0  0
  3  4  1  0  0  0  0
  3 22  1  0  0  0  0
  3 23  1  0  0  0  0
  4 10  1  0  0  0  0
  4  5  1  0  0  0  0
  5  6  2  0  0  0  0
  5 24  1  0  0  0  0
  6  7  1  0  0  0  0
  6 25  1  0  0  0  0
  7  8  2  0  0  0  0
  7  9  1  0  0  0  0
  9 21  1  0  0  0  0
  9 10  1  0  0  0  0
 10 11  2  0  0  0  0
 12 13  1  0  0  0  0
 12 26  1  0  0  0  0
 13 19  1  0  0  0  0
 13 14  1  0  0  0  0
 13 27  1  0  0  0  0
 14 15  1  0  0  0  0
 14 28  1  0  0  0  0
 14 29  1  0  0  0  0
 15 16  1  0  0  0  0
 15 30  1  0  0  0  0
 15 31  1  0  0  0  0
 16 17  1  0  0  0  0
 16 32  1  0  0  0  0
 16 33  1  0  0  0  0
 17 18  1  0  0  0  0
 17 34  1  0  0  0  0
 17 35  1  0  0  0  0
 18 19  1  0  0  0  0
 18 36  1  0  0  0  0
 19 20  2  0  0  0  0
M  END
> <s_m_source_file>
AV-unprocessed.smi

> <i_m_source_file_index>
2091

> <i_lp_mmshare_version>
43012

> <i_f3d_flags>
0

> <s_epik_input>
Tz1jMVtuSF1jKD1PKVtjSF1bY0hdbjFbQ0gyXUMoPU8pW05IXVtDQEBIXTJbQ0gyXVtDSDJdW0NIMl1bQ0gyXVtOSF1DMj1P

> <s_epik_cmdline>
J2VwaWtfcHl0aG9uJywgJy1waCcsICc3LjAnLCAnLXRuJywgJzgnLCAnLW1hJywgJzIwMCcsICctbWV0YWxfYmluZGluZycsICctaW1hZScsICc8aW5maWxlLm1hZT4nLCAnLW9tYWUnLCAnPG91dGZpbGUubWFlPic=

> <r_lp_tautomer_probability>
0.999537

> <r_epik_Ionization_Penalty>
0.00356328

> <r_epik_Ionization_Penalty_Charging>
0.00356323

> <r_epik_Ionization_Penalty_Neutral>
5.33217e-08

> <r_epik_State_Penalty>
0.00253125

> <r_epik_Charging_Adjusted_Penalty>
0.00609448

> <i_epik_Tot_Q>
0

> <i_epik_Tot_abs_Q>
0

> <r_epik_Metal_State_Penalty>
0.368636

> <b_epik_Metal_Only>
0

> <s_lp_Force_Field>
OPLS_2005

> <r_lp_Energy>
10.0871

> <b_lp_Chiralities_Consistent>
1

> <s_lp_Variant>
AV-unprocessed.smi:2091-1

> <Gold.Version>
5.8.1

> <Gold.Id.Protein>
6NUR|6NUR_protein|mol2

> <Gold.PLP.Fitness>
42.3668

> <Gold.PLP.PLP>
-34.6220

> <Gold.PLP.part.hbond>
-2.0000

> <Gold.PLP.part.metal>
0.0000

> <Gold.PLP.part.buried>
-4.9077

> <Gold.PLP.part.nonpolar>
-27.8306

> <Gold.PLP.part.repulsive>
0.3416

> <Gold.PLP.ligand.clash>
0.0000

> <Gold.PLP.ligand.torsion>
0.1843

> <Gold.PLP.Chemscore.Hbond>
1.7040

> <Gold.PLP.Chemscore.CHOScore>
1.0000

> <Gold.PLP.Chemscore.Metal>
0.0000

> <Gold.Chemscore.Hbonds>
donor molecule, donor type, donor heavy atom, donor atom, acceptor molecule, acceptor atom, score
      P1  H  7989  7998       L1     1  0.69
      P1  H  7997  8008       L1    20  1.00
      L1  C     5    24       P1  7957  1.00

> <Gold.PLP.Chemscore.Internal.Correction>
0.0015

> <Gold.Rescore>
     Score         DG    S(hbond)    S(metal)    S(lipo)     H(rot)  DE(clash)    DE(int)     intcor
      9.50     -14.35       1.56        0.00      72.59       1.88       0.05       4.80       ----

> <Gold.Chemscore.Fitness>
9.4968

> <Gold.Chemscore.DG>
-14.3458

> <Gold.Chemscore.ZeroCoef>
-5.4800

> <Gold.Chemscore.Hbond>
1.5561

> <Gold.Chemscore.Metal>
0.0000

> <Gold.Chemscore.Lipo>
72.5858

> <Gold.Chemscore.Internal_Hbond>
0.0000

> <Gold.Chemscore.DEClash>
0.0456

> <Gold.Chemscore.DEInternal>
4.8034

> <Gold.Chemscore.Rot>
1.8844

> <Gold.Chemscore.Internal.Correction>
   9.000000E+99

> <Gold.Chemscore.Hbonds>
donor molecule, donor type, donor heavy atom, donor atom, acceptor molecule, acceptor atom, score
      P1  H  7989  7998       L1     1  0.63
      P1  H  7997  8008       L1    20  0.56

> <Gold.Chemscore.Hbond.Weighted>
-5.1974

> <Gold.Chemscore.Metal.Weighted>
-0.0000

> <Gold.Chemscore.Lipo.Weighted>
-8.4925

> <Gold.Chemscore.Internal_Hbond.Weighted>
0.0000

> <Gold.Chemscore.DEClash.Weighted>
0.0456

> <Gold.Chemscore.DEInternal.Weighted>
4.8034

> <Gold.Chemscore.Rot.Weighted>
4.8242

> <Gold.Chemscore.Internal.Correction.Weighted>
   9.000000E+99

> <Gold.Protein.RotatedTorsions>
[ 6907 6896 6895 6894 ] final   35.17 input  -60.11 | X-H torsion
[ 7974 7965 7964 7962 ] final  -81.09 input  175.53 | X-H torsion
[ 8008 7997 7996 7995 ] final  -55.45 input   59.86 | X-H torsion
[ 10167 10162 10161 10158 ] final  150.61 input  -65.29 | X-H torsion
[ 10718 10713 10712 10709 ] final  110.41 input   66.30 | X-H torsion
[ 10763 10752 10751 10750 ] final  142.29 input  -60.55 | X-H torsion
[ 11005 11000 10999 10996 ] final  -71.23 input  -57.11 | X-H torsion

> <Gold.Protein.ActiveResidues>
 VAL166  LYS551  ARG553  GLY616  TRP617  ASP618  TYR619  PRO620  LYS621  CYS622 
 ASP623  PHE694  ASN695  SER759  ASP760  ASP761  ALA762  ILE779  LEU786  VAL792 
 PHE793  MET794  SER795  GLU796  ALA797  LYS798  CYS799  TRP800  GLU811  SER814 

> <Gold.Protein.RotatedAtoms>
  152.1125  134.9264  160.0565 H   0  0  0  0  0  0  0  0  0  0  0  0  # atno 6907 bound_to 6896
  152.0436  133.3983  159.4355 H   0  0  0  0  0  0  0  0  0  0  0  0  # atno 6908 bound_to 6896
  150.6844  134.3307  159.4869 H   0  0  0  0  0  0  0  0  0  0  0  0  # atno 6909 bound_to 6896
  145.5513  140.9496  143.1498 H   0  0  0  0  0  0  0  0  0  0  0  0  # atno 7974 bound_to 7965
  154.4195  140.1152  156.5479 H   0  0  0  0  0  0  0  0  0  0  0  0  # atno 8008 bound_to 7997
  155.6440  140.3496  155.4706 H   0  0  0  0  0  0  0  0  0  0  0  0  # atno 8009 bound_to 7997
  155.9847  140.1167  157.0684 H   0  0  0  0  0  0  0  0  0  0  0  0  # atno 8010 bound_to 7997
  139.4848  144.5508  151.7404 H   0  0  0  0  0  0  0  0  0  0  0  0  # atno 10167 bound_to 10162
  157.6495  131.0932  150.6597 H   0  0  0  0  0  0  0  0  0  0  0  0  # atno 10718 bound_to 10713
  153.9533  135.2968  155.3437 H   0  0  0  0  0  0  0  0  0  0  0  0  # atno 10763 bound_to 10752
  154.7415  135.5023  153.9133 H   0  0  0  0  0  0  0  0  0  0  0  0  # atno 10764 bound_to 10752
  153.0983  135.6727  153.9830 H   0  0  0  0  0  0  0  0  0  0  0  0  # atno 10765 bound_to 10752
  141.1588  133.6812  156.6874 H   0  0  0  0  0  0  0  0  0  0  0  0  # atno 11005 bound_to 11000
  144.7528  139.7150  143.7266 LP  0  0  0  0  0  0  0  0  0  0  0  0  # atno 17320 bound_to 7965
  146.1915  139.5158  142.9802 LP  0  0  0  0  0  0  0  0  0  0  0  0  # atno 17321 bound_to 7965
  140.5062  144.1095  150.5983 LP  0  0  0  0  0  0  0  0  0  0  0  0  # atno 17342 bound_to 10162
  140.4005  143.2706  151.9954 LP  0  0  0  0  0  0  0  0  0  0  0  0  # atno 17343 bound_to 10162
  156.6910  130.4595  149.5600 LP  0  0  0  0  0  0  0  0  0  0  0  0  # atno 17370 bound_to 10713
  156.1861  130.6530  151.1008 LP  0  0  0  0  0  0  0  0  0  0  0  0  # atno 17371 bound_to 10713
  140.3056  134.8128  157.4134 LP  0  0  0  0  0  0  0  0  0  0  0  0  # atno 17394 bound_to 11000
  140.1223  134.5203  155.8173 LP  0  0  0  0  0  0  0  0  0  0  0  0  # atno 17395 bound_to 11000

$$$$
