AV-unprocessed.smi:474|AV-procd|sdf|2666|dock2
  -GOLD-   2262023 83D 1   1.00000     0.00000
 Structure written by MMmdl.
 36 37  0  0  0  0  0  0  0  0  2 V2000
  146.4742  135.5583  162.3921 C   0  0  0  0  0  0  0  0  0  0  0  0
  147.4306  136.0117  161.3427 C   0  0  0  0  0  0  0  0  0  0  0  0
  148.3762  135.3580  160.6050 C   0  0  0  0  0  0  0  0  0  0  0  0
  148.9326  136.3902  159.8009 C   0  0  0  0  0  0  0  0  0  0  0  0
  149.9061  136.2428  158.8890 N   0  5  0  0  0  0  0  0  0  0  0  0
  150.4457  137.3285  158.2875 C   0  0  0  0  0  0  0  0  0  0  0  0
  150.1861  137.7420  157.1549 O   0  0  0  0  0  0  0  0  0  0  0  0
  151.3401  137.9788  159.0445 N   0  0  0  0  0  0  0  0  0  0  0  0
  152.0621  139.1786  158.6420 C   0  0  0  0  0  0  0  0  0  0  0  0
  151.0831  140.3074  158.2868 C   0  0  0  0  0  0  0  0  0  0  0  0
  151.6569  141.6897  158.5521 C   0  0  0  0  0  0  0  0  0  0  0  0
  151.3114  142.7598  157.8098 C   0  0  0  0  0  0  0  0  0  0  0  0
  151.8408  144.1646  158.0390 C   0  0  0  0  0  0  0  0  0  0  0  0
  152.5354  144.3137  159.4028 C   0  0  0  0  0  0  0  0  0  0  0  0
  153.4442  143.1132  159.6949 C   0  0  0  0  0  0  0  0  0  0  0  0
  152.6463  141.7972  159.7074 C   0  0  0  0  0  0  0  0  0  0  0  0
  148.3613  137.5630  160.0182 N   0  0  0  0  0  0  0  0  0  0  0  0
  147.4018  137.3303  161.0108 O   0  0  0  0  0  0  0  0  0  0  0  0
  145.9188  134.6831  162.0549 H   0  0  0  0  0  0  0  0  0  0  0  0
  145.7553  136.3414  162.6347 H   0  0  0  0  0  0  0  0  0  0  0  0
  147.0045  135.2914  163.3061 H   0  0  0  0  0  0  0  0  0  0  0  0
  148.6345  134.3105  160.6382 H   0  0  0  0  0  0  0  0  0  0  0  0
  151.5308  137.6114  159.9651 H   0  0  0  0  0  0  0  0  0  0  0  0
  152.7175  139.4932  159.4558 H   0  0  0  0  0  0  0  0  0  0  0  0
  152.6966  138.9418  157.7868 H   0  0  0  0  0  0  0  0  0  0  0  0
  150.8009  140.2432  157.2351 H   0  0  0  0  0  0  0  0  0  0  0  0
  150.1629  140.1821  158.8595 H   0  0  0  0  0  0  0  0  0  0  0  0
  150.6220  142.6425  156.9863 H   0  0  0  0  0  0  0  0  0  0  0  0
  152.5379  144.3970  157.2335 H   0  0  0  0  0  0  0  0  0  0  0  0
  151.0178  144.8754  157.9624 H   0  0  0  0  0  0  0  0  0  0  0  0
  153.1077  145.2413  159.4310 H   0  0  0  0  0  0  0  0  0  0  0  0
  151.7827  144.3909  160.1884 H   0  0  0  0  0  0  0  0  0  0  0  0
  154.2225  143.0599  158.9326 H   0  0  0  0  0  0  0  0  0  0  0  0
  153.9552  143.2472  160.6487 H   0  0  0  0  0  0  0  0  0  0  0  0
  152.0893  141.7162  160.6414 H   0  0  0  0  0  0  0  0  0  0  0  0
  153.3362  140.9532  159.6773 H   0  0  0  0  0  0  0  0  0  0  0  0
  1  2  1  0  0  0  0
  1 19  1  0  0  0  0
  1 20  1  0  0  0  0
  1 21  1  0  0  0  0
  2 18  1  0  0  0  0
  2  3  2  0  0  0  0
  3  4  1  0  0  0  0
  3 22  1  0  0  0  0
  4  5  1  0  0  0  0
  4 17  2  0  0  0  0
  5  6  1  0  0  0  0
  6  7  2  0  0  0  0
  6  8  1  0  0  0  0
  8  9  1  0  0  0  0
  8 23  1  0  0  0  0
  9 10  1  0  0  0  0
  9 24  1  0  0  0  0
  9 25  1  0  0  0  0
 10 11  1  0  0  0  0
 10 26  1  0  0  0  0
 10 27  1  0  0  0  0
 11 16  1  0  0  0  0
 11 12  2  0  0  0  0
 12 13  1  0  0  0  0
 12 28  1  0  0  0  0
 13 14  1  0  0  0  0
 13 29  1  0  0  0  0
 13 30  1  0  0  0  0
 14 15  1  0  0  0  0
 14 31  1  0  0  0  0
 14 32  1  0  0  0  0
 15 16  1  0  0  0  0
 15 33  1  0  0  0  0
 15 34  1  0  0  0  0
 16 35  1  0  0  0  0
 16 36  1  0  0  0  0
 17 18  1  0  0  0  0
M  CHG  1   5  -1
M  END
> <s_m_source_file>
AV-unprocessed.smi

> <i_m_source_file_index>
474

> <i_lp_mmshare_version>
43012

> <i_f3d_flags>
0

> <s_epik_input>
W0NIM11jMVtjSF1jKG5vMSlbTkhdQyg9TylbTkhdW0NIMl1bQ0gyXUMyPVtDSF1bQ0gyXVtDSDJdW0NIMl1bQ0gyXTI=

> <s_epik_cmdline>
J2VwaWtfcHl0aG9uJywgJy1waCcsICc3LjAnLCAnLXRuJywgJzgnLCAnLW1hJywgJzIwMCcsICctbWV0YWxfYmluZGluZycsICctaW1hZScsICc8aW5maWxlLm1hZT4nLCAnLW9tYWUnLCAnPG91dGZpbGUubWFlPic=

> <r_lp_tautomer_probability>
1

> <r_epik_Ionization_Penalty>
6.63591

> <r_epik_Ionization_Penalty_Charging>
6.63578

> <r_epik_Ionization_Penalty_Neutral>
0.000126188

> <r_epik_State_Penalty>
6.63578

> <r_epik_Charging_Adjusted_Penalty>
13.2716

> <i_epik_Tot_Q>
-1

> <i_epik_Tot_abs_Q>
1

> <r_epik_Metal_State_Penalty>
2.55901

> <b_epik_Metal_Only>
1

> <s_lp_Force_Field>
OPLS_2005

> <r_lp_Energy>
1.29759

> <b_lp_Chiralities_Consistent>
1

> <s_lp_Variant>
AV-unprocessed.smi:474-2

> <Gold.Version>
5.8.1

> <Gold.Id.Protein>
6NUR|6NUR_protein|mol2

> <Gold.PLP.Fitness>
42.6057

> <Gold.PLP.PLP>
-38.1057

> <Gold.PLP.part.hbond>
-5.0000

> <Gold.PLP.part.metal>
0.0000

> <Gold.PLP.part.buried>
-3.7425

> <Gold.PLP.part.nonpolar>
-29.7286

> <Gold.PLP.part.repulsive>
0.1332

> <Gold.PLP.ligand.clash>
0.0000

> <Gold.PLP.ligand.torsion>
1.2922

> <Gold.PLP.Chemscore.Hbond>
2.3500

> <Gold.PLP.Chemscore.CHOScore>
0.0000

> <Gold.PLP.Chemscore.Metal>
0.0000

> <Gold.Chemscore.Hbonds>
donor molecule, donor type, donor heavy atom, donor atom, acceptor molecule, acceptor atom, score
      P1  H  6896  6907       L1     5  1.90
      P1  H  6934  6947       L1    18  0.20

> <Gold.PLP.Chemscore.Internal.Correction>
0.0343

> <Gold.Rescore>
     Score         DG    S(hbond)    S(metal)    S(lipo)     H(rot)  DE(clash)    DE(int)     intcor
     15.23     -16.68       1.01        0.00      98.82       1.45       0.08       1.37       ----

> <Gold.Chemscore.Fitness>
15.2304

> <Gold.Chemscore.DG>
-16.6796

> <Gold.Chemscore.ZeroCoef>
-5.4800

> <Gold.Chemscore.Hbond>
1.0050

> <Gold.Chemscore.Metal>
0.0000

> <Gold.Chemscore.Lipo>
98.8233

> <Gold.Chemscore.Internal_Hbond>
0.0000

> <Gold.Chemscore.DEClash>
0.0821

> <Gold.Chemscore.DEInternal>
1.3672

> <Gold.Chemscore.Rot>
1.4529

> <Gold.Chemscore.Internal.Correction>
   9.000000E+99

> <Gold.Chemscore.Hbonds>
donor molecule, donor type, donor heavy atom, donor atom, acceptor molecule, acceptor atom, score
      P1  H  6896  6907       L1     5  0.22

> <Gold.Chemscore.Hbond.Weighted>
-3.3568

> <Gold.Chemscore.Metal.Weighted>
-0.0000

> <Gold.Chemscore.Lipo.Weighted>
-11.5623

> <Gold.Chemscore.Internal_Hbond.Weighted>
0.0000

> <Gold.Chemscore.DEClash.Weighted>
0.0821

> <Gold.Chemscore.DEInternal.Weighted>
1.3672

> <Gold.Chemscore.Rot.Weighted>
3.7194

> <Gold.Chemscore.Internal.Correction.Weighted>
   9.000000E+99

> <Gold.Protein.RotatedTorsions>
[ 6907 6896 6895 6894 ] final  -51.69 input  -60.11 | X-H torsion
[ 7974 7965 7964 7962 ] final -100.44 input  175.53 | X-H torsion
[ 8008 7997 7996 7995 ] final   20.95 input   59.86 | X-H torsion
[ 10167 10162 10161 10158 ] final   81.29 input  -65.29 | X-H torsion
[ 10718 10713 10712 10709 ] final -133.18 input   66.30 | X-H torsion
[ 10763 10752 10751 10750 ] final  135.17 input  -60.55 | X-H torsion
[ 11005 11000 10999 10996 ] final   39.43 input  -57.11 | X-H torsion

> <Gold.Protein.ActiveResidues>
 VAL166  LYS551  ARG553  GLY616  TRP617  ASP618  TYR619  PRO620  LYS621  CYS622 
 ASP623  PHE694  ASN695  SER759  ASP760  ASP761  ALA762  ILE779  LEU786  VAL792 
 PHE793  MET794  SER795  GLU796  ALA797  LYS798  CYS799  TRP800  GLU811  SER814 

> <Gold.Protein.RotatedAtoms>
  150.8588  134.7934  159.7066 H   0  0  0  0  0  0  0  0  0  0  0  0  # atno 6907 bound_to 6896
  152.4631  134.5134  159.9770 H   0  0  0  0  0  0  0  0  0  0  0  0  # atno 6908 bound_to 6896
  151.5242  133.3422  159.2942 H   0  0  0  0  0  0  0  0  0  0  0  0  # atno 6909 bound_to 6896
  145.2945  140.9361  143.2859 H   0  0  0  0  0  0  0  0  0  0  0  0  # atno 7974 bound_to 7965
  154.9433  140.3056  155.5110 H   0  0  0  0  0  0  0  0  0  0  0  0  # atno 8008 bound_to 7997
  156.2994  140.2332  156.4441 H   0  0  0  0  0  0  0  0  0  0  0  0  # atno 8009 bound_to 7997
  154.8125  140.0428  157.1341 H   0  0  0  0  0  0  0  0  0  0  0  0  # atno 8010 bound_to 7997
  139.9408  144.6091  150.8253 H   0  0  0  0  0  0  0  0  0  0  0  0  # atno 10167 bound_to 10162
  156.2423  130.7103  151.0969 H   0  0  0  0  0  0  0  0  0  0  0  0  # atno 10718 bound_to 10713
  153.8357  135.3098  155.3422 H   0  0  0  0  0  0  0  0  0  0  0  0  # atno 10763 bound_to 10752
  154.7954  135.4758  154.0152 H   0  0  0  0  0  0  0  0  0  0  0  0  # atno 10764 bound_to 10752
  153.1607  135.6860  153.8838 H   0  0  0  0  0  0  0  0  0  0  0  0  # atno 10765 bound_to 10752
  140.2028  134.3849  155.8087 H   0  0  0  0  0  0  0  0  0  0  0  0  # atno 11005 bound_to 11000
  144.9145  139.4488  143.6571 LP  0  0  0  0  0  0  0  0  0  0  0  0  # atno 17320 bound_to 7965
  146.3173  139.7971  142.8973 LP  0  0  0  0  0  0  0  0  0  0  0  0  # atno 17321 bound_to 7965
  140.7611  143.3167  151.2717 LP  0  0  0  0  0  0  0  0  0  0  0  0  # atno 17342 bound_to 10162
  139.6706  144.0027  152.2750 LP  0  0  0  0  0  0  0  0  0  0  0  0  # atno 17343 bound_to 10162
  157.7180  131.0698  150.6249 LP  0  0  0  0  0  0  0  0  0  0  0  0  # atno 17370 bound_to 10713
  156.6323  130.4435  149.5782 LP  0  0  0  0  0  0  0  0  0  0  0  0  # atno 17371 bound_to 10713
  141.2227  133.7103  156.8287 LP  0  0  0  0  0  0  0  0  0  0  0  0  # atno 17394 bound_to 11000
  140.2035  134.8879  157.3196 LP  0  0  0  0  0  0  0  0  0  0  0  0  # atno 17395 bound_to 11000

$$$$
