AV-unprocessed.smi:707|AV-procd|sdf|3453|dock1
  -GOLD-   22720 0433D 1   1.00000     0.00000
 Structure written by MMmdl.
 44 45  0  0  0  0  0  0  0  0  1 V2000
  150.9626  136.6911  155.0886 C   0  0  0  0  0  0  0  0  0  0  0  0
  152.0213  137.7432  155.0164 C   0  0  0  0  0  0  0  0  0  0  0  0
  153.2567  137.5913  155.5079 N   0  0  0  0  0  0  0  0  0  0  0  0
  153.9119  138.7769  155.2382 N   0  0  0  0  0  0  0  0  0  0  0  0
  153.0054  139.5259  154.6111 C   0  0  0  0  0  0  0  0  0  0  0  0
  151.8085  138.9439  154.4407 N   0  0  0  0  0  0  0  0  0  0  0  0
  150.6235  139.4828  153.7997 C   0  0  0  0  0  0  0  0  0  0  0  0
  149.6290  140.0362  154.8292 C   0  0  0  0  0  0  0  0  0  0  0  0
  150.2631  141.0480  155.6622 N   0  0  0  0  0  0  0  0  0  0  0  0
  150.4583  140.9260  156.9830 C   0  0  0  0  0  0  0  0  0  0  0  0
  150.1179  139.9360  157.6302 O   0  0  0  0  0  0  0  0  0  0  0  0
  151.1493  142.0931  157.6819 C   0  0  0  0  0  0  0  0  0  0  0  0
  151.8992  141.5752  158.7704 O   0  0  0  0  0  0  0  0  0  0  0  0
  152.9934  142.3870  159.1821 C   0  0  2  0  0  0  0  0  0  0  0  0
  153.4648  141.8750  160.5549 C   0  0  0  0  0  0  0  0  0  0  0  0
  152.4167  142.1305  161.6513 C   0  0  0  0  0  0  0  0  0  0  0  0
  152.0238  143.6145  161.7178 C   0  0  0  0  0  0  0  0  0  0  0  0
  151.5304  144.1306  160.3528 C   0  0  1  0  0  0  0  0  0  0  0  0
  151.1381  145.6133  160.4208 C   0  0  0  0  0  0  0  0  0  0  0  0
  152.5962  143.8774  159.2681 C   0  0  0  0  0  0  0  0  0  0  0  0
  151.3588  135.7821  155.5421 H   0  0  0  0  0  0  0  0  0  0  0  0
  150.6015  136.4489  154.0889 H   0  0  0  0  0  0  0  0  0  0  0  0
  150.1245  137.0418  155.6913 H   0  0  0  0  0  0  0  0  0  0  0  0
  153.2217  140.5264  154.2656 H   0  0  0  0  0  0  0  0  0  0  0  0
  150.9247  140.2605  153.0970 H   0  0  0  0  0  0  0  0  0  0  0  0
  150.1592  138.6898  153.2117 H   0  0  0  0  0  0  0  0  0  0  0  0
  148.7668  140.4689  154.3190 H   0  0  0  0  0  0  0  0  0  0  0  0
  149.2566  139.2336  155.4672 H   0  0  0  0  0  0  0  0  0  0  0  0
  150.5816  141.8912  155.2068 H   0  0  0  0  0  0  0  0  0  0  0  0
  151.8018  142.6196  156.9832 H   0  0  0  0  0  0  0  0  0  0  0  0
  150.3891  142.7970  158.0199 H   0  0  0  0  0  0  0  0  0  0  0  0
  153.8149  142.2663  158.4739 H   0  0  0  0  0  0  0  0  0  0  0  0
  153.6933  140.8103  160.4983 H   0  0  0  0  0  0  0  0  0  0  0  0
  154.3959  142.3742  160.8259 H   0  0  0  0  0  0  0  0  0  0  0  0
  151.5292  141.5266  161.4585 H   0  0  0  0  0  0  0  0  0  0  0  0
  152.8048  141.8067  162.6174 H   0  0  0  0  0  0  0  0  0  0  0  0
  151.2487  143.7529  162.4723 H   0  0  0  0  0  0  0  0  0  0  0  0
  152.8822  144.2024  162.0459 H   0  0  0  0  0  0  0  0  0  0  0  0
  150.6345  143.5689  160.0836 H   0  0  0  0  0  0  0  0  0  0  0  0
  151.9917  146.2377  160.6864 H   0  0  0  0  0  0  0  0  0  0  0  0
  150.3590  145.7789  161.1654 H   0  0  0  0  0  0  0  0  0  0  0  0
  150.7551  145.9621  159.4615 H   0  0  0  0  0  0  0  0  0  0  0  0
  153.4859  144.4659  159.4962 H   0  0  0  0  0  0  0  0  0  0  0  0
  152.2442  144.2411  158.3034 H   0  0  0  0  0  0  0  0  0  0  0  0
  1  2  1  0  0  0  0
  1 21  1  0  0  0  0
  1 22  1  0  0  0  0
  1 23  1  0  0  0  0
  2  6  1  0  0  0  0
  2  3  2  0  0  0  0
  3  4  1  0  0  0  0
  4  5  2  0  0  0  0
  5  6  1  0  0  0  0
  5 24  1  0  0  0  0
  6  7  1  0  0  0  0
  7  8  1  0  0  0  0
  7 25  1  0  0  0  0
  7 26  1  0  0  0  0
  8  9  1  0  0  0  0
  8 27  1  0  0  0  0
  8 28  1  0  0  0  0
  9 10  1  0  0  0  0
  9 29  1  0  0  0  0
 10 11  2  0  0  0  0
 10 12  1  0  0  0  0
 12 13  1  0  0  0  0
 12 30  1  0  0  0  0
 12 31  1  0  0  0  0
 13 14  1  0  0  0  0
 14 20  1  0  0  0  0
 14 15  1  0  0  0  0
 14 32  1  0  0  0  0
 15 16  1  0  0  0  0
 15 33  1  0  0  0  0
 15 34  1  0  0  0  0
 16 17  1  0  0  0  0
 16 35  1  0  0  0  0
 16 36  1  0  0  0  0
 17 18  1  0  0  0  0
 17 37  1  0  0  0  0
 17 38  1  0  0  0  0
 18 19  1  0  0  0  0
 18 20  1  0  0  0  0
 18 39  1  0  0  0  0
 19 40  1  0  0  0  0
 19 41  1  0  0  0  0
 19 42  1  0  0  0  0
 20 43  1  0  0  0  0
 20 44  1  0  0  0  0
M  END
> <s_m_source_file>
AV-unprocessed.smi

> <i_m_source_file_index>
707

> <i_lp_mmshare_version>
43012

> <i_f3d_flags>
0

> <s_epik_input>
W0NIM11jMW5uW2NIXW4xW0NIMl1bQ0gyXVtOSF1DKD1PKVtDSDJdT1tDQEBIXTJbQ0gyXVtDSDJdW0NIMl1bQ0BASF0oW0NIM10pW0NIMl0y

> <s_epik_cmdline>
J2VwaWtfcHl0aG9uJywgJy1waCcsICc3LjAnLCAnLXRuJywgJzgnLCAnLW1hJywgJzIwMCcsICctbWV0YWxfYmluZGluZycsICctaW1hZScsICc8aW5maWxlLm1hZT4nLCAnLW9tYWUnLCAnPG91dGZpbGUubWFlPic=

> <r_lp_tautomer_probability>
1

> <r_epik_Ionization_Penalty>
0.000271783

> <r_epik_Ionization_Penalty_Charging>
0

> <r_epik_Ionization_Penalty_Neutral>
0.000271783

> <r_epik_State_Penalty>
-0

> <r_epik_Charging_Adjusted_Penalty>
0

> <i_epik_Tot_Q>
0

> <i_epik_Tot_abs_Q>
0

> <r_epik_Metal_State_Penalty>
-0

> <b_epik_Metal_Only>
0

> <s_lp_Force_Field>
OPLS_2005

> <r_lp_Energy>
13.9065

> <b_lp_Chiralities_Consistent>
1

> <s_lp_Variant>
AV-unprocessed.smi:707-1

> <Gold.Version>
5.8.1

> <Gold.Id.Protein>
6NUR|6NUR_protein|mol2

> <Gold.PLP.Fitness>
48.0103

> <Gold.PLP.PLP>
-47.1155

> <Gold.PLP.part.hbond>
-2.2267

> <Gold.PLP.part.metal>
0.0000

> <Gold.PLP.part.buried>
-5.0632

> <Gold.PLP.part.nonpolar>
-39.2125

> <Gold.PLP.part.repulsive>
0.1098

> <Gold.PLP.ligand.clash>
0.0000

> <Gold.PLP.ligand.torsion>
0.9333

> <Gold.PLP.Chemscore.Hbond>
0.8276

> <Gold.PLP.Chemscore.CHOScore>
0.0000

> <Gold.PLP.Chemscore.Metal>
0.0000

> <Gold.Chemscore.Hbonds>
donor molecule, donor type, donor heavy atom, donor atom, acceptor molecule, acceptor atom, score
      P1  H  7997  8008       L1     4  0.31
      P1  H 10752 10765       L1     3  0.06

> <Gold.PLP.Chemscore.Internal.Correction>
0.2785

> <Gold.Rescore>
     Score         DG    S(hbond)    S(metal)    S(lipo)     H(rot)  DE(clash)    DE(int)     intcor
     11.76     -13.04       0.72        0.00      97.12       2.42       0.57       0.71       ----

> <Gold.Chemscore.Fitness>
11.7637

> <Gold.Chemscore.DG>
-13.0405

> <Gold.Chemscore.ZeroCoef>
-5.4800

> <Gold.Chemscore.Hbond>
0.7157

> <Gold.Chemscore.Metal>
0.0000

> <Gold.Chemscore.Lipo>
97.1191

> <Gold.Chemscore.Internal_Hbond>
0.0000

> <Gold.Chemscore.DEClash>
0.5681

> <Gold.Chemscore.DEInternal>
0.7087

> <Gold.Chemscore.Rot>
2.4191

> <Gold.Chemscore.Internal.Correction>
   9.000000E+99

> <Gold.Chemscore.Hbonds>
donor molecule, donor type, donor heavy atom, donor atom, acceptor molecule, acceptor atom, score
      P1  H  7997  8008       L1     4  0.03

> <Gold.Chemscore.Hbond.Weighted>
-2.3905

> <Gold.Chemscore.Metal.Weighted>
-0.0000

> <Gold.Chemscore.Lipo.Weighted>
-11.3629

> <Gold.Chemscore.Internal_Hbond.Weighted>
0.0000

> <Gold.Chemscore.DEClash.Weighted>
0.5681

> <Gold.Chemscore.DEInternal.Weighted>
0.7087

> <Gold.Chemscore.Rot.Weighted>
6.1929

> <Gold.Chemscore.Internal.Correction.Weighted>
   9.000000E+99

> <Gold.Protein.RotatedTorsions>
[ 6907 6896 6895 6894 ] final  116.24 input  -60.11 | X-H torsion
[ 7974 7965 7964 7962 ] final -112.66 input  175.53 | X-H torsion
[ 8008 7997 7996 7995 ] final  -44.73 input   59.86 | X-H torsion
[ 10167 10162 10161 10158 ] final   60.84 input  -65.29 | X-H torsion
[ 10718 10713 10712 10709 ] final  -97.80 input   66.30 | X-H torsion
[ 10763 10752 10751 10750 ] final -161.37 input  -60.55 | X-H torsion
[ 11005 11000 10999 10996 ] final  -24.40 input  -57.11 | X-H torsion

> <Gold.Protein.ActiveResidues>
 VAL166  LYS551  ARG553  GLY616  TRP617  ASP618  TYR619  PRO620  LYS621  CYS622 
 ASP623  PHE694  ASN695  SER759  ASP760  ASP761  ALA762  ILE779  LEU786  VAL792 
 PHE793  MET794  SER795  GLU796  ALA797  LYS798  CYS799  TRP800  GLU811  SER814 

> <Gold.Protein.RotatedAtoms>
  152.4690  133.7988  159.6941 H   0  0  0  0  0  0  0  0  0  0  0  0  # atno 6907 bound_to 6896
  150.8670  133.7551  159.2980 H   0  0  0  0  0  0  0  0  0  0  0  0  # atno 6908 bound_to 6896
  151.5098  135.1068  159.9903 H   0  0  0  0  0  0  0  0  0  0  0  0  # atno 6909 bound_to 6896
  145.1413  140.8779  143.3700 H   0  0  0  0  0  0  0  0  0  0  0  0  # atno 7974 bound_to 7965
  154.3998  140.1415  156.3731 H   0  0  0  0  0  0  0  0  0  0  0  0  # atno 8008 bound_to 7997
  155.8074  140.3474  155.5417 H   0  0  0  0  0  0  0  0  0  0  0  0  # atno 8009 bound_to 7997
  155.8422  140.0928  157.1718 H   0  0  0  0  0  0  0  0  0  0  0  0  # atno 8010 bound_to 7997
  140.1612  144.4368  150.6708 H   0  0  0  0  0  0  0  0  0  0  0  0  # atno 10167 bound_to 10162
  156.0092  130.5210  150.6429 H   0  0  0  0  0  0  0  0  0  0  0  0  # atno 10718 bound_to 10713
  154.7309  135.3046  154.8893 H   0  0  0  0  0  0  0  0  0  0  0  0  # atno 10763 bound_to 10752
  153.9736  135.6739  153.4752 H   0  0  0  0  0  0  0  0  0  0  0  0  # atno 10764 bound_to 10752
  153.0917  135.4956  154.8624 H   0  0  0  0  0  0  0  0  0  0  0  0  # atno 10765 bound_to 10752
  140.8842  133.7633  156.0339 H   0  0  0  0  0  0  0  0  0  0  0  0  # atno 11005 bound_to 11000
  145.0529  139.3167  143.5919 LP  0  0  0  0  0  0  0  0  0  0  0  0  # atno 17320 bound_to 7965
  146.3505  139.9944  142.8682 LP  0  0  0  0  0  0  0  0  0  0  0  0  # atno 17321 bound_to 7965
  140.6641  143.2262  151.5784 LP  0  0  0  0  0  0  0  0  0  0  0  0  # atno 17342 bound_to 10162
  139.5380  144.2726  152.1292 LP  0  0  0  0  0  0  0  0  0  0  0  0  # atno 17343 bound_to 10162
  157.4205  131.0836  151.1135 LP  0  0  0  0  0  0  0  0  0  0  0  0  # atno 17370 bound_to 10713
  157.1739  130.6279  149.5649 LP  0  0  0  0  0  0  0  0  0  0  0  0  # atno 17371 bound_to 10713
  140.8425  134.3049  157.5308 LP  0  0  0  0  0  0  0  0  0  0  0  0  # atno 17394 bound_to 11000
  139.8722  134.9424  156.3823 LP  0  0  0  0  0  0  0  0  0  0  0  0  # atno 17395 bound_to 11000

$$$$
