AV-unprocessed.smi:1381|AV-procd|sdf|5610|dock1
  -GOLD-   22720 5223D 1   1.00000     0.00000
 Structure written by MMmdl.
 41 42  0  0  0  0  0  0  0  0  2 V2000
  152.6498  143.4980  162.4105 C   0  0  0  0  0  0  0  0  0  0  0  0
  152.3675  142.8423  161.1026 C   0  0  0  0  0  0  0  0  0  0  0  0
  153.1632  142.2185  160.1840 C   0  0  0  0  0  0  0  0  0  0  0  0
  152.2444  141.8218  159.1743 C   0  0  0  0  0  0  0  0  0  0  0  0
  152.5529  141.1758  158.0392 N   0  5  0  0  0  0  0  0  0  0  0  0
  151.7230  141.2394  156.9723 C   0  0  0  0  0  0  0  0  0  0  0  0
  150.6848  141.9003  156.8922 O   0  0  0  0  0  0  0  0  0  0  0  0
  152.1177  140.4851  155.9363 N   0  0  0  0  0  0  0  0  0  0  0  0
  151.4159  140.3431  154.6657 C   0  0  0  0  0  0  0  0  0  0  0  0
  150.3342  139.2491  154.7447 C   0  0  0  0  0  0  0  0  0  0  0  0
  149.1176  139.5268  153.9829 N   0  0  0  0  0  0  0  0  0  0  0  0
  148.5336  140.8005  154.3825 C   0  0  0  0  0  0  0  0  0  0  0  0
  147.2764  141.1396  153.5622 C   0  0  2  0  0  0  0  0  0  0  0  0
  146.6156  142.4397  154.0316 C   0  0  0  0  0  0  0  0  0  0  0  0
  146.3264  140.0841  153.6953 O   0  0  0  0  0  0  0  0  0  0  0  0
  146.8120  138.7830  153.3592 C   0  0  1  0  0  0  0  0  0  0  0  0
  146.9499  138.6017  151.8380 C   0  0  0  0  0  0  0  0  0  0  0  0
  148.1121  138.4771  154.1305 C   0  0  0  0  0  0  0  0  0  0  0  0
  151.0033  142.1879  159.4479 N   0  0  0  0  0  0  0  0  0  0  0  0
  151.0728  142.8375  160.6863 O   0  0  0  0  0  0  0  0  0  0  0  0
  152.5411  144.5794  162.3304 H   0  0  0  0  0  0  0  0  0  0  0  0
  153.6659  143.2833  162.7416 H   0  0  0  0  0  0  0  0  0  0  0  0
  151.9623  143.1430  163.1785 H   0  0  0  0  0  0  0  0  0  0  0  0
  154.2311  142.0669  160.2273 H   0  0  0  0  0  0  0  0  0  0  0  0
  152.9745  139.9624  156.0449 H   0  0  0  0  0  0  0  0  0  0  0  0
  150.9766  141.2973  154.3705 H   0  0  0  0  0  0  0  0  0  0  0  0
  152.1634  140.0969  153.9129 H   0  0  0  0  0  0  0  0  0  0  0  0
  150.7573  138.2940  154.4295 H   0  0  0  0  0  0  0  0  0  0  0  0
  150.0645  139.1228  155.7941 H   0  0  0  0  0  0  0  0  0  0  0  0
  148.2825  140.7744  155.4442 H   0  0  0  0  0  0  0  0  0  0  0  0
  149.2678  141.5972  154.2566 H   0  0  0  0  0  0  0  0  0  0  0  0
  147.5471  141.2536  152.5121 H   0  0  0  0  0  0  0  0  0  0  0  0
  147.3001  143.2830  153.9385 H   0  0  0  0  0  0  0  0  0  0  0  0
  146.3072  142.3719  155.0751 H   0  0  0  0  0  0  0  0  0  0  0  0
  145.7300  142.6634  153.4364 H   0  0  0  0  0  0  0  0  0  0  0  0
  146.0513  138.0774  153.6941 H   0  0  0  0  0  0  0  0  0  0  0  0
  147.2131  137.5723  151.5941 H   0  0  0  0  0  0  0  0  0  0  0  0
  147.7237  139.2433  151.4173 H   0  0  0  0  0  0  0  0  0  0  0  0
  146.0124  138.8320  151.3319 H   0  0  0  0  0  0  0  0  0  0  0  0
  148.5054  137.5195  153.7910 H   0  0  0  0  0  0  0  0  0  0  0  0
  147.8725  138.3536  155.1878 H   0  0  0  0  0  0  0  0  0  0  0  0
  1  2  1  0  0  0  0
  1 21  1  0  0  0  0
  1 22  1  0  0  0  0
  1 23  1  0  0  0  0
  2 20  1  0  0  0  0
  2  3  2  0  0  0  0
  3  4  1  0  0  0  0
  3 24  1  0  0  0  0
  4  5  1  0  0  0  0
  4 19  2  0  0  0  0
  5  6  1  0  0  0  0
  6  7  2  0  0  0  0
  6  8  1  0  0  0  0
  8  9  1  0  0  0  0
  8 25  1  0  0  0  0
  9 10  1  0  0  0  0
  9 26  1  0  0  0  0
  9 27  1  0  0  0  0
 10 11  1  0  0  0  0
 10 28  1  0  0  0  0
 10 29  1  0  0  0  0
 11 18  1  0  0  0  0
 11 12  1  0  0  0  0
 12 13  1  0  0  0  0
 12 30  1  0  0  0  0
 12 31  1  0  0  0  0
 13 14  1  0  0  0  0
 13 15  1  0  0  0  0
 13 32  1  0  0  0  0
 14 33  1  0  0  0  0
 14 34  1  0  0  0  0
 14 35  1  0  0  0  0
 15 16  1  0  0  0  0
 16 17  1  0  0  0  0
 16 18  1  0  0  0  0
 16 36  1  0  0  0  0
 17 37  1  0  0  0  0
 17 38  1  0  0  0  0
 17 39  1  0  0  0  0
 18 40  1  0  0  0  0
 18 41  1  0  0  0  0
 19 20  1  0  0  0  0
M  CHG  1   5  -1
M  END
> <s_m_source_file>
AV-unprocessed.smi

> <i_m_source_file_index>
1381

> <i_lp_mmshare_version>
43012

> <i_f3d_flags>
0

> <s_epik_input>
W0NIM11jMVtjSF1jKG5vMSlbTkhdQyg9TylbTkhdW0NIMl1bQ0gyXU4yW0NIMl1bQ0BASF0oW0NIM10pT1tDQEBIXShbQ0gzXSlbQ0gyXTI=

> <s_epik_cmdline>
J2VwaWtfcHl0aG9uJywgJy1waCcsICc3LjAnLCAnLXRuJywgJzgnLCAnLW1hJywgJzIwMCcsICctbWV0YWxfYmluZGluZycsICctaW1hZScsICc8aW5maWxlLm1hZT4nLCAnLW9tYWUnLCAnPG91dGZpbGUubWFlPic=

> <r_epik_Ionization_Penalty>
6.88366

> <r_epik_Ionization_Penalty_Charging>
6.57198

> <r_epik_Ionization_Penalty_Neutral>
0.311678

> <r_epik_State_Penalty>
6.77619

> <r_epik_Charging_Adjusted_Penalty>
13.3482

> <i_epik_Tot_Q>
-1

> <i_epik_Tot_abs_Q>
1

> <r_epik_Metal_State_Penalty>
2.70524

> <b_epik_Metal_Only>
1

> <s_lp_Force_Field>
OPLS_2005

> <r_lp_Energy>
15.7401

> <b_lp_Chiralities_Consistent>
1

> <s_lp_Variant>
AV-unprocessed.smi:1381-9

> <Gold.Version>
5.8.1

> <Gold.Id.Protein>
6NUR|6NUR_protein|mol2

> <Gold.PLP.Fitness>
40.5909

> <Gold.PLP.PLP>
-36.7335

> <Gold.PLP.part.hbond>
-2.2516

> <Gold.PLP.part.metal>
0.0000

> <Gold.PLP.part.buried>
-0.9285

> <Gold.PLP.part.nonpolar>
-32.6576

> <Gold.PLP.part.repulsive>
1.5074

> <Gold.PLP.ligand.clash>
0.0000

> <Gold.PLP.ligand.torsion>
0.5307

> <Gold.PLP.Chemscore.Hbond>
1.6098

> <Gold.PLP.Chemscore.CHOScore>
0.0000

> <Gold.PLP.Chemscore.Metal>
0.0000

> <Gold.Chemscore.Hbonds>
donor molecule, donor type, donor heavy atom, donor atom, acceptor molecule, acceptor atom, score
      P1  H  6933  6945       L1    20  0.02

> <Gold.PLP.Chemscore.Internal.Correction>
0.0895

> <Gold.Rescore>
     Score         DG    S(hbond)    S(metal)    S(lipo)     H(rot)  DE(clash)    DE(int)     intcor
      9.03     -11.62       0.00        0.00      86.20       1.54       0.31       2.28       ----

> <Gold.Chemscore.Fitness>
9.0300

> <Gold.Chemscore.DG>
-11.6203

> <Gold.Chemscore.ZeroCoef>
-5.4800

> <Gold.Chemscore.Hbond>
0.0000

> <Gold.Chemscore.Metal>
0.0000

> <Gold.Chemscore.Lipo>
86.1950

> <Gold.Chemscore.Internal_Hbond>
0.0000

> <Gold.Chemscore.DEClash>
0.3113

> <Gold.Chemscore.DEInternal>
2.2790

> <Gold.Chemscore.Rot>
1.5409

> <Gold.Chemscore.Internal.Correction>
   9.000000E+99

> <Gold.Chemscore.Hbonds>
donor molecule, donor type, donor heavy atom, donor atom, acceptor molecule, acceptor atom, score
      P1  H  6933  6945       L1    20  0.02

> <Gold.Chemscore.Hbond.Weighted>
-0.0001

> <Gold.Chemscore.Metal.Weighted>
-0.0000

> <Gold.Chemscore.Lipo.Weighted>
-10.0848

> <Gold.Chemscore.Internal_Hbond.Weighted>
0.0000

> <Gold.Chemscore.DEClash.Weighted>
0.3113

> <Gold.Chemscore.DEInternal.Weighted>
2.2790

> <Gold.Chemscore.Rot.Weighted>
3.9446

> <Gold.Chemscore.Internal.Correction.Weighted>
   9.000000E+99

> <Gold.Protein.RotatedTorsions>
[ 6907 6896 6895 6894 ] final -132.80 input  -60.11 | X-H torsion
[ 7974 7965 7964 7962 ] final  -30.48 input  175.53 | X-H torsion
[ 8008 7997 7996 7995 ] final   35.26 input   59.86 | X-H torsion
[ 10167 10162 10161 10158 ] final  -90.36 input  -65.29 | X-H torsion
[ 10718 10713 10712 10709 ] final  118.21 input   66.30 | X-H torsion
[ 10763 10752 10751 10750 ] final  -40.17 input  -60.55 | X-H torsion
[ 11005 11000 10999 10996 ] final  -90.36 input  -57.11 | X-H torsion

> <Gold.Protein.ActiveResidues>
 VAL166  LYS551  ARG553  GLY616  TRP617  ASP618  TYR619  PRO620  LYS621  CYS622 
 ASP623  PHE694  ASN695  SER759  ASP760  ASP761  ALA762  ILE779  LEU786  VAL792 
 PHE793  MET794  SER795  GLU796  ALA797  LYS798  CYS799  TRP800  GLU811  SER814 

> <Gold.Protein.RotatedAtoms>
  150.9666  133.6388  159.2744 H   0  0  0  0  0  0  0  0  0  0  0  0  # atno 6907 bound_to 6896
  151.3692  135.0918  159.9469 H   0  0  0  0  0  0  0  0  0  0  0  0  # atno 6908 bound_to 6896
  152.5167  133.9224  159.7595 H   0  0  0  0  0  0  0  0  0  0  0  0  # atno 6909 bound_to 6896
  146.1140  140.5545  142.8765 H   0  0  0  0  0  0  0  0  0  0  0  0  # atno 7974 bound_to 7965
  155.1682  140.3289  155.4398 H   0  0  0  0  0  0  0  0  0  0  0  0  # atno 8008 bound_to 7997
  156.2519  140.1948  156.6737 H   0  0  0  0  0  0  0  0  0  0  0  0  # atno 8009 bound_to 7997
  154.6356  140.0577  156.9771 H   0  0  0  0  0  0  0  0  0  0  0  0  # atno 8010 bound_to 7997
  140.3557  143.2868  151.9674 H   0  0  0  0  0  0  0  0  0  0  0  0  # atno 10167 bound_to 10162
  157.6045  131.1045  150.7724 H   0  0  0  0  0  0  0  0  0  0  0  0  # atno 10718 bound_to 10713
  153.9416  135.6761  153.4744 H   0  0  0  0  0  0  0  0  0  0  0  0  # atno 10763 bound_to 10752
  153.0929  135.4866  154.8720 H   0  0  0  0  0  0  0  0  0  0  0  0  # atno 10764 bound_to 10752
  154.7374  135.3152  154.8746 H   0  0  0  0  0  0  0  0  0  0  0  0  # atno 10765 bound_to 10752
  141.1567  133.7687  156.9727 H   0  0  0  0  0  0  0  0  0  0  0  0  # atno 11005 bound_to 11000
  144.7536  140.5253  143.6784 LP  0  0  0  0  0  0  0  0  0  0  0  0  # atno 17320 bound_to 7965
  145.5606  139.1479  143.3343 LP  0  0  0  0  0  0  0  0  0  0  0  0  # atno 17321 bound_to 7965
  139.4820  144.6037  151.7560 LP  0  0  0  0  0  0  0  0  0  0  0  0  # atno 17342 bound_to 10162
  140.5176  144.0929  150.6013 LP  0  0  0  0  0  0  0  0  0  0  0  0  # atno 17343 bound_to 10162
  156.8116  130.4954  149.5355 LP  0  0  0  0  0  0  0  0  0  0  0  0  # atno 17370 bound_to 10713
  156.1127  130.6052  151.0073 LP  0  0  0  0  0  0  0  0  0  0  0  0  # atno 17371 bound_to 10713
  140.1119  134.9472  157.2077 LP  0  0  0  0  0  0  0  0  0  0  0  0  # atno 17394 bound_to 11000
  140.3183  134.2945  155.7251 LP  0  0  0  0  0  0  0  0  0  0  0  0  # atno 17395 bound_to 11000

$$$$
