AV-unprocessed.smi:255|AV-procd|sdf|1955|dock2
  -GOLD-   2262021 93D 1   1.00000     0.00000
 Structure written by MMmdl.
 44 47  0  0  0  0  0  0  0  0  1 V2000
  148.9113  142.3025  153.9568 O   0  0  0  0  0  0  0  0  0  0  0  0
  148.3477  141.5308  154.9964 C   0  0  0  0  0  0  0  0  0  0  0  0
  149.4002  140.5785  155.5951 C   0  0  2  0  0  0  0  0  0  0  0  0
  150.7497  141.2532  155.8398 C   0  0  0  0  0  0  0  0  0  0  0  0
  151.6996  140.0621  155.9451 C   0  0  1  0  0  0  0  0  0  0  0  0
  151.7028  139.6041  157.1976 F   0  0  0  0  0  0  0  0  0  0  0  0
  151.0770  139.0041  155.0239 C   0  0  0  0  0  0  0  0  0  0  0  0
  149.7325  139.4726  154.7021 N   0  0  0  0  0  0  0  0  0  0  0  0
  148.8094  138.4923  154.5914 C   0  0  0  0  0  0  0  0  0  0  0  0
  148.8416  137.4236  155.4305 N   0  0  0  0  0  0  0  0  0  0  0  0
  147.9203  136.4618  155.3187 C   0  0  0  0  0  0  0  0  0  0  0  0
  146.9066  136.3722  154.4542 N   0  0  0  0  0  0  0  0  0  0  0  0
  146.8794  137.4423  153.6082 C   0  0  0  0  0  0  0  0  0  0  0  0
  147.7865  138.5381  153.6098 C   0  0  0  0  0  0  0  0  0  0  0  0
  147.4466  139.4430  152.6130 N   0  0  0  0  0  0  0  0  0  0  0  0
  146.3947  138.9112  152.0517 C   0  0  0  0  0  0  0  0  0  0  0  0
  145.9898  137.7053  152.5809 N   0  0  0  0  0  0  0  0  0  0  0  0
  144.8547  136.9021  152.1522 C   0  0  0  0  0  0  0  0  0  0  0  0
  145.2456  135.7000  151.2603 C   0  0  2  0  0  0  0  0  0  0  0  0
  145.8070  136.1870  150.0531 O   0  0  0  0  0  0  0  0  0  0  0  0
  144.0588  134.8113  150.9111 C   0  0  0  0  0  0  0  0  0  0  0  0
  144.7065  133.4472  150.7157 C   0  0  0  0  0  0  0  0  0  0  0  0
  145.6824  133.4093  151.7429 O   0  0  0  0  0  0  0  0  0  0  0  0
  146.2414  134.7104  151.9010 C   0  0  0  0  0  0  0  0  0  0  0  0
  149.0449  140.1944  156.5532 H   0  0  0  0  0  0  0  0  0  0  0  0
  152.7291  140.3086  155.6837 H   0  0  0  0  0  0  0  0  0  0  0  0
  149.0368  143.1849  154.2712 H   0  0  0  0  0  0  0  0  0  0  0  0
  147.9097  142.1771  155.7581 H   0  0  0  0  0  0  0  0  0  0  0  0
  147.5320  140.9553  154.5581 H   0  0  0  0  0  0  0  0  0  0  0  0
  151.0247  141.8686  154.9818 H   0  0  0  0  0  0  0  0  0  0  0  0
  150.7569  141.8873  156.7271 H   0  0  0  0  0  0  0  0  0  0  0  0
  151.6418  138.9356  154.0939 H   0  0  0  0  0  0  0  0  0  0  0  0
  151.0854  138.0154  155.4860 H   0  0  0  0  0  0  0  0  0  0  0  0
  148.0077  135.6476  156.0231 H   0  0  0  0  0  0  0  0  0  0  0  0
  145.8828  139.3858  151.2273 H   0  0  0  0  0  0  0  0  0  0  0  0
  144.3304  136.5519  153.0421 H   0  0  0  0  0  0  0  0  0  0  0  0
  144.1562  137.5529  151.6245 H   0  0  0  0  0  0  0  0  0  0  0  0
  145.4520  137.0462  149.8833 H   0  0  0  0  0  0  0  0  0  0  0  0
  143.3665  134.7562  151.7522 H   0  0  0  0  0  0  0  0  0  0  0  0
  143.4963  135.1494  150.0400 H   0  0  0  0  0  0  0  0  0  0  0  0
  143.9969  132.6245  150.8042 H   0  0  0  0  0  0  0  0  0  0  0  0
  145.1947  133.3801  149.7424 H   0  0  0  0  0  0  0  0  0  0  0  0
  147.2280  134.7561  151.4370 H   0  0  0  0  0  0  0  0  0  0  0  0
  146.3745  134.8885  152.9674 H   0  0  0  0  0  0  0  0  0  0  0  0
  1  2  1  0  0  0  0
  1 27  1  0  0  0  0
  2  3  1  0  0  0  0
  2 28  1  0  0  0  0
  2 29  1  0  0  0  0
  3 25  1  0  0  0  0
  3  8  1  0  0  0  0
  3  4  1  0  0  0  0
  4  5  1  0  0  0  0
  4 30  1  0  0  0  0
  4 31  1  0  0  0  0
  5 26  1  0  0  0  0
  5  6  1  0  0  0  0
  5  7  1  0  0  0  0
  7  8  1  0  0  0  0
  7 32  1  0  0  0  0
  7 33  1  0  0  0  0
  8  9  1  0  0  0  0
  9 14  1  0  0  0  0
  9 10  2  0  0  0  0
 10 11  1  0  0  0  0
 11 12  2  0  0  0  0
 11 34  1  0  0  0  0
 12 13  1  0  0  0  0
 13 17  1  0  0  0  0
 13 14  2  0  0  0  0
 14 15  1  0  0  0  0
 15 16  2  0  0  0  0
 16 17  1  0  0  0  0
 16 35  1  0  0  0  0
 17 18  1  0  0  0  0
 18 19  1  0  0  0  0
 18 36  1  0  0  0  0
 18 37  1  0  0  0  0
 19 24  1  0  0  0  0
 19 20  1  0  0  0  0
 19 21  1  0  0  0  0
 20 38  1  0  0  0  0
 21 22  1  0  0  0  0
 21 39  1  0  0  0  0
 21 40  1  0  0  0  0
 22 23  1  0  0  0  0
 22 41  1  0  0  0  0
 22 42  1  0  0  0  0
 23 24  1  0  0  0  0
 24 43  1  0  0  0  0
 24 44  1  0  0  0  0
M  END
> <s_m_source_file>
AV-unprocessed.smi

> <i_m_source_file_index>
255

> <i_lp_mmshare_version>
43012

> <i_f3d_flags>
0

> <s_epik_input>
W09IXVtDSDJdW0NAQEhdMVtDSDJdW0NASF0oRilbQ0gyXU4xYyhuW2NIXW4yKWMoYzIzKW5bY0hdbjNbQ0gyXVtDQEBdNChbT0hdKVtDSDJdW0NIMl1PW0NIMl00

> <s_epik_cmdline>
J2VwaWtfcHl0aG9uJywgJy1waCcsICc3LjAnLCAnLXRuJywgJzgnLCAnLW1hJywgJzIwMCcsICctbWV0YWxfYmluZGluZycsICctaW1hZScsICc8aW5maWxlLm1hZT4nLCAnLW9tYWUnLCAnPG91dGZpbGUubWFlPic=

> <r_lp_tautomer_probability>
1

> <r_epik_Ionization_Penalty>
0.0058098

> <r_epik_Ionization_Penalty_Charging>
0

> <r_epik_Ionization_Penalty_Neutral>
0.0058098

> <r_epik_State_Penalty>
0.00411166

> <r_epik_Charging_Adjusted_Penalty>
0.00411166

> <i_epik_Tot_Q>
0

> <i_epik_Tot_abs_Q>
0

> <r_epik_Metal_State_Penalty>
-0

> <b_epik_Metal_Only>
0

> <s_lp_Force_Field>
OPLS_2005

> <r_lp_Energy>
53.8685

> <b_lp_Chiralities_Consistent>
1

> <s_lp_Variant>
AV-unprocessed.smi:255-7

> <Gold.Version>
5.8.1

> <Gold.Id.Protein>
6NUR|6NUR_protein|mol2

> <Gold.PLP.Fitness>
41.7184

> <Gold.PLP.PLP>
-32.1277

> <Gold.PLP.part.hbond>
-4.0000

> <Gold.PLP.part.metal>
0.0000

> <Gold.PLP.part.buried>
-1.1516

> <Gold.PLP.part.nonpolar>
-29.9212

> <Gold.PLP.part.repulsive>
2.4134

> <Gold.PLP.ligand.clash>
0.0000

> <Gold.PLP.ligand.torsion>
1.0602

> <Gold.PLP.Chemscore.Hbond>
2.2496

> <Gold.PLP.Chemscore.CHOScore>
1.6197

> <Gold.PLP.Chemscore.Metal>
0.0000

> <Gold.Chemscore.Hbonds>
donor molecule, donor type, donor heavy atom, donor atom, acceptor molecule, acceptor atom, score
      L1  H     1    27       P1  8028  0.96
      L1  H    20    38       P1 10171  0.60
      P1  H  8011  8017       L1     1  0.24
      L1  C    16    35       P1 10171  0.93
      L1  C    16    35       P1 10175  0.24

> <Gold.PLP.Chemscore.Internal.Correction>
0.1032

> <Gold.Rescore>
     Score         DG    S(hbond)    S(metal)    S(lipo)     H(rot)  DE(clash)    DE(int)     intcor
      8.80     -11.55       2.08        0.00      65.29       3.33       1.53       1.22       ----

> <Gold.Chemscore.Fitness>
8.8020

> <Gold.Chemscore.DG>
-11.5513

> <Gold.Chemscore.ZeroCoef>
-5.4800

> <Gold.Chemscore.Hbond>
2.0809

> <Gold.Chemscore.Metal>
0.0000

> <Gold.Chemscore.Lipo>
65.2911

> <Gold.Chemscore.Internal_Hbond>
0.0000

> <Gold.Chemscore.DEClash>
1.5338

> <Gold.Chemscore.DEInternal>
1.2155

> <Gold.Chemscore.Rot>
3.3273

> <Gold.Chemscore.Internal.Correction>
   9.000000E+99

> <Gold.Chemscore.Hbonds>
donor molecule, donor type, donor heavy atom, donor atom, acceptor molecule, acceptor atom, score
      L1  H     1    27       P1  8028  0.90
      L1  H    20    38       P1 10171  0.60
      P1  H  8011  8017       L1     1  0.06

> <Gold.Chemscore.Hbond.Weighted>
-6.9502

> <Gold.Chemscore.Metal.Weighted>
-0.0000

> <Gold.Chemscore.Lipo.Weighted>
-7.6391

> <Gold.Chemscore.Internal_Hbond.Weighted>
0.0000

> <Gold.Chemscore.DEClash.Weighted>
1.5338

> <Gold.Chemscore.DEInternal.Weighted>
1.2155

> <Gold.Chemscore.Rot.Weighted>
8.5179

> <Gold.Chemscore.Internal.Correction.Weighted>
   9.000000E+99

> <Gold.Protein.RotatedTorsions>
[ 6907 6896 6895 6894 ] final  -25.74 input  -60.11 | X-H torsion
[ 7974 7965 7964 7962 ] final  -11.25 input  175.53 | X-H torsion
[ 8008 7997 7996 7995 ] final  -49.93 input   59.86 | X-H torsion
[ 10167 10162 10161 10158 ] final  -14.55 input  -65.29 | X-H torsion
[ 10718 10713 10712 10709 ] final  -32.35 input   66.30 | X-H torsion
[ 10763 10752 10751 10750 ] final  169.02 input  -60.55 | X-H torsion
[ 11005 11000 10999 10996 ] final -148.81 input  -57.11 | X-H torsion

> <Gold.Protein.ActiveResidues>
 VAL166  LYS551  ARG553  GLY616  TRP617  ASP618  TYR619  PRO620  LYS621  CYS622 
 ASP623  PHE694  ASN695  SER759  ASP760  ASP761  ALA762  ILE779  LEU786  VAL792 
 PHE793  MET794  SER795  GLU796  ALA797  LYS798  CYS799  TRP800  GLU811  SER814 

> <Gold.Protein.RotatedAtoms>
  151.1708  135.0317  159.8750 H   0  0  0  0  0  0  0  0  0  0  0  0  # atno 6907 bound_to 6896
  152.5449  134.1173  159.8394 H   0  0  0  0  0  0  0  0  0  0  0  0  # atno 6908 bound_to 6896
  151.1278  133.5011  159.2632 H   0  0  0  0  0  0  0  0  0  0  0  0  # atno 6909 bound_to 6896
  146.2193  140.2884  142.8367 H   0  0  0  0  0  0  0  0  0  0  0  0  # atno 7974 bound_to 7965
  154.4052  140.1284  156.4583 H   0  0  0  0  0  0  0  0  0  0  0  0  # atno 8008 bound_to 7997
  155.7298  140.3491  155.5034 H   0  0  0  0  0  0  0  0  0  0  0  0  # atno 8009 bound_to 7997
  155.9138  140.1040  157.1250 H   0  0  0  0  0  0  0  0  0  0  0  0  # atno 8010 bound_to 7997
  140.7203  143.5310  150.9520 H   0  0  0  0  0  0  0  0  0  0  0  0  # atno 10167 bound_to 10162
  156.3759  130.4347  149.7507 H   0  0  0  0  0  0  0  0  0  0  0  0  # atno 10718 bound_to 10713
  154.3771  135.2753  155.2233 H   0  0  0  0  0  0  0  0  0  0  0  0  # atno 10763 bound_to 10752
  154.4355  135.5967  153.6099 H   0  0  0  0  0  0  0  0  0  0  0  0  # atno 10764 bound_to 10752
  152.9836  135.6006  154.4009 H   0  0  0  0  0  0  0  0  0  0  0  0  # atno 10765 bound_to 10752
  140.7573  134.3338  157.5111 H   0  0  0  0  0  0  0  0  0  0  0  0  # atno 11005 bound_to 11000
  144.9145  140.7796  143.5787 LP  0  0  0  0  0  0  0  0  0  0  0  0  # atno 17320 bound_to 7965
  145.2817  139.1916  143.4787 LP  0  0  0  0  0  0  0  0  0  0  0  0  # atno 17321 bound_to 7965
  139.9030  143.6812  152.3128 LP  0  0  0  0  0  0  0  0  0  0  0  0  # atno 17342 bound_to 10162
  139.7168  144.7610  151.1020 LP  0  0  0  0  0  0  0  0  0  0  0  0  # atno 17343 bound_to 10162
  156.4616  130.7954  151.2975 LP  0  0  0  0  0  0  0  0  0  0  0  0  # atno 17370 bound_to 10713
  157.7488  131.0064  150.3149 LP  0  0  0  0  0  0  0  0  0  0  0  0  # atno 17371 bound_to 10713
  139.8777  134.9180  156.3192 LP  0  0  0  0  0  0  0  0  0  0  0  0  # atno 17394 bound_to 11000
  140.9695  133.7336  156.0515 LP  0  0  0  0  0  0  0  0  0  0  0  0  # atno 17395 bound_to 11000

$$$$
