AV-unprocessed.smi:596|AV-procd|sdf|3019|dock10
  -GOLD-   2262023533D 1   1.00000     0.00000
 Structure written by MMmdl.
 41 42  0  0  0  0  0  0  0  0  3 V2000
  152.7676  139.7868  154.9385 O   0  0  0  0  0  0  0  0  0  0  0  0
  151.7822  139.1818  155.3590 C   0  0  0  0  0  0  0  0  0  0  0  0
  151.1514  138.0863  154.4817 C   0  0  0  0  0  0  0  0  0  0  0  0
  150.5428  136.9671  155.2239 N   0  0  0  0  0  0  0  0  0  0  0  0
  149.2311  136.6016  154.8621 C   0  0  0  0  0  0  0  0  0  0  0  0
  148.5775  135.5895  155.4651 C   0  0  0  0  0  0  0  0  0  0  0  0
  147.2356  135.2200  155.0716 N   0  3  0  0  0  0  0  0  0  0  0  0
  146.6804  134.3014  155.6653 O   0  0  0  0  0  0  0  0  0  0  0  0
  146.6936  135.8330  154.1567 O   0  5  0  0  0  0  0  0  0  0  0  0
  149.2690  134.8743  156.5201 C   0  0  0  0  0  0  0  0  0  0  0  0
  150.5253  135.2162  156.8680 C   0  0  0  0  0  0  0  0  0  0  0  0
  151.2380  136.3121  156.2037 C   0  0  0  0  0  0  0  0  0  0  0  0
  152.3913  136.6183  156.5056 O   0  0  0  0  0  0  0  0  0  0  0  0
  151.2345  139.4336  156.5605 N   0  0  0  0  0  0  0  0  0  0  0  0
  151.7170  140.4226  157.5162 C   0  0  0  0  0  0  0  0  0  0  0  0
  151.3341  141.8499  157.0884 C   0  0  0  0  0  0  0  0  0  0  0  0
  151.6222  142.8823  158.1652 C   0  0  0  0  0  0  0  0  0  0  0  0
  151.5400  144.2054  157.9243 C   0  0  0  0  0  0  0  0  0  0  0  0
  151.7990  145.2805  158.9653 C   0  0  0  0  0  0  0  0  0  0  0  0
  151.8304  144.7165  160.3957 C   0  0  0  0  0  0  0  0  0  0  0  0
  152.6222  143.4044  160.4564 C   0  0  0  0  0  0  0  0  0  0  0  0
  152.0071  142.3352  159.5354 C   0  0  0  0  0  0  0  0  0  0  0  0
  150.4176  138.5532  153.8225 H   0  0  0  0  0  0  0  0  0  0  0  0
  151.9242  137.7079  153.8111 H   0  0  0  0  0  0  0  0  0  0  0  0
  148.8080  137.1909  154.0610 H   0  0  0  0  0  0  0  0  0  0  0  0
  148.7849  134.0602  157.0392 H   0  0  0  0  0  0  0  0  0  0  0  0
  151.0220  134.6700  157.6564 H   0  0  0  0  0  0  0  0  0  0  0  0
  150.4254  138.8955  156.8345 H   0  0  0  0  0  0  0  0  0  0  0  0
  151.3292  140.2038  158.5127 H   0  0  0  0  0  0  0  0  0  0  0  0
  152.8009  140.3218  157.5751 H   0  0  0  0  0  0  0  0  0  0  0  0
  151.8736  142.1299  156.1829 H   0  0  0  0  0  0  0  0  0  0  0  0
  150.2735  141.8843  156.8350 H   0  0  0  0  0  0  0  0  0  0  0  0
  151.2821  144.5568  156.9357 H   0  0  0  0  0  0  0  0  0  0  0  0
  152.7503  145.7573  158.7274 H   0  0  0  0  0  0  0  0  0  0  0  0
  151.0302  146.0496  158.8875 H   0  0  0  0  0  0  0  0  0  0  0  0
  152.2585  145.4521  161.0771 H   0  0  0  0  0  0  0  0  0  0  0  0
  150.8109  144.5343  160.7386 H   0  0  0  0  0  0  0  0  0  0  0  0
  153.6531  143.5950  160.1546 H   0  0  0  0  0  0  0  0  0  0  0  0
  152.6644  143.0336  161.4807 H   0  0  0  0  0  0  0  0  0  0  0  0
  151.1124  141.9208  160.0011 H   0  0  0  0  0  0  0  0  0  0  0  0
  152.7112  141.5112  159.4152 H   0  0  0  0  0  0  0  0  0  0  0  0
  1  2  2  0  0  0  0
  2  3  1  0  0  0  0
  2 14  1  0  0  0  0
  3  4  1  0  0  0  0
  3 23  1  0  0  0  0
  3 24  1  0  0  0  0
  4 12  1  0  0  0  0
  4  5  1  0  0  0  0
  5  6  2  0  0  0  0
  5 25  1  0  0  0  0
  6  7  1  0  0  0  0
  6 10  1  0  0  0  0
  7  8  2  0  0  0  0
  7  9  1  0  0  0  0
 10 11  2  0  0  0  0
 10 26  1  0  0  0  0
 11 12  1  0  0  0  0
 11 27  1  0  0  0  0
 12 13  2  0  0  0  0
 14 15  1  0  0  0  0
 14 28  1  0  0  0  0
 15 16  1  0  0  0  0
 15 29  1  0  0  0  0
 15 30  1  0  0  0  0
 16 17  1  0  0  0  0
 16 31  1  0  0  0  0
 16 32  1  0  0  0  0
 17 22  1  0  0  0  0
 17 18  2  0  0  0  0
 18 19  1  0  0  0  0
 18 33  1  0  0  0  0
 19 20  1  0  0  0  0
 19 34  1  0  0  0  0
 19 35  1  0  0  0  0
 20 21  1  0  0  0  0
 20 36  1  0  0  0  0
 20 37  1  0  0  0  0
 21 22  1  0  0  0  0
 21 38  1  0  0  0  0
 21 39  1  0  0  0  0
 22 40  1  0  0  0  0
 22 41  1  0  0  0  0
M  CHG  1   7   1
M  CHG  1   9  -1
M  END
> <s_m_source_file>
AV-unprocessed.smi

> <i_m_source_file_index>
596

> <i_lp_mmshare_version>
43012

> <i_f3d_flags>
0

> <s_epik_input>
Tz1jMVtjSF1bY0hdYyhbTitdKD1PKVtPLV0pW2NIXW4xW0NIMl1DKD1PKVtOSF1bQ0gyXVtDSDJdQzI9W0NIXVtDSDJdW0NIMl1bQ0gyXVtDSDJdMg==

> <s_epik_cmdline>
J2VwaWtfcHl0aG9uJywgJy1waCcsICc3LjAnLCAnLXRuJywgJzgnLCAnLW1hJywgJzIwMCcsICctbWV0YWxfYmluZGluZycsICctaW1hZScsICc8aW5maWxlLm1hZT4nLCAnLW9tYWUnLCAnPG91dGZpbGUubWFlPic=

> <r_lp_tautomer_probability>
1

> <r_epik_Ionization_Penalty>
1.81809e-08

> <r_epik_Ionization_Penalty_Charging>
7.7346e-11

> <r_epik_Ionization_Penalty_Neutral>
1.81035e-08

> <r_epik_State_Penalty>
-0

> <r_epik_Charging_Adjusted_Penalty>
7.7346e-11

> <i_epik_Tot_Q>
0

> <i_epik_Tot_abs_Q>
2

> <r_epik_Metal_State_Penalty>
-0

> <b_epik_Metal_Only>
0

> <s_lp_Force_Field>
OPLS_2005

> <r_lp_Energy>
18.9868

> <b_lp_Chiralities_Consistent>
1

> <s_lp_Variant>
AV-unprocessed.smi:596-1

> <Gold.Version>
5.8.1

> <Gold.Id.Protein>
6NUR|6NUR_protein|mol2

> <Gold.PLP.Fitness>
47.2846

> <Gold.PLP.PLP>
-39.1776

> <Gold.PLP.part.hbond>
-3.0000

> <Gold.PLP.part.metal>
0.0000

> <Gold.PLP.part.buried>
-4.0992

> <Gold.PLP.part.nonpolar>
-33.0760

> <Gold.PLP.part.repulsive>
0.1966

> <Gold.PLP.ligand.clash>
0.0000

> <Gold.PLP.ligand.torsion>
0.6748

> <Gold.PLP.Chemscore.Hbond>
2.4080

> <Gold.PLP.Chemscore.CHOScore>
0.7231

> <Gold.PLP.Chemscore.Metal>
0.0000

> <Gold.Chemscore.Hbonds>
donor molecule, donor type, donor heavy atom, donor atom, acceptor molecule, acceptor atom, score
      P1  H  7989  7998       L1     1  0.31
      P1  H  7997  8008       L1     1  1.00
      P1  H 10752 10763       L1    13  1.00
      L1  C     5    25       P1  7948  0.71

> <Gold.PLP.Chemscore.Internal.Correction>
0.0632

> <Gold.Rescore>
     Score         DG    S(hbond)    S(metal)    S(lipo)     H(rot)  DE(clash)    DE(int)     intcor
     16.60     -18.63       1.87        0.00     102.49       1.98       0.06       1.98       ----

> <Gold.Chemscore.Fitness>
16.5980

> <Gold.Chemscore.DG>
-18.6320

> <Gold.Chemscore.ZeroCoef>
-5.4800

> <Gold.Chemscore.Hbond>
1.8676

> <Gold.Chemscore.Metal>
0.0000

> <Gold.Chemscore.Lipo>
102.4942

> <Gold.Chemscore.Internal_Hbond>
0.0000

> <Gold.Chemscore.DEClash>
0.0578

> <Gold.Chemscore.DEInternal>
1.9762

> <Gold.Chemscore.Rot>
1.9835

> <Gold.Chemscore.Internal.Correction>
   9.000000E+99

> <Gold.Chemscore.Hbonds>
donor molecule, donor type, donor heavy atom, donor atom, acceptor molecule, acceptor atom, score
      P1  H  7989  7998       L1     1  0.04
      P1  H  7997  8008       L1     1  0.97
      P1  H 10752 10763       L1    13  0.28

> <Gold.Chemscore.Hbond.Weighted>
-6.2379

> <Gold.Chemscore.Metal.Weighted>
-0.0000

> <Gold.Chemscore.Lipo.Weighted>
-11.9918

> <Gold.Chemscore.Internal_Hbond.Weighted>
0.0000

> <Gold.Chemscore.DEClash.Weighted>
0.0578

> <Gold.Chemscore.DEInternal.Weighted>
1.9762

> <Gold.Chemscore.Rot.Weighted>
5.0778

> <Gold.Chemscore.Internal.Correction.Weighted>
   9.000000E+99

> <Gold.Protein.RotatedTorsions>
[ 6907 6896 6895 6894 ] final  -97.17 input  -60.11 | X-H torsion
[ 7974 7965 7964 7962 ] final   85.73 input  175.53 | X-H torsion
[ 8008 7997 7996 7995 ] final   -9.16 input   59.86 | X-H torsion
[ 10167 10162 10161 10158 ] final  165.19 input  -65.29 | X-H torsion
[ 10718 10713 10712 10709 ] final -119.71 input   66.30 | X-H torsion
[ 10763 10752 10751 10750 ] final  111.61 input  -60.55 | X-H torsion
[ 11005 11000 10999 10996 ] final  -58.32 input  -57.11 | X-H torsion

> <Gold.Protein.ActiveResidues>
 VAL166  LYS551  ARG553  GLY616  TRP617  ASP618  TYR619  PRO620  LYS621  CYS622 
 ASP623  PHE694  ASN695  SER759  ASP760  ASP761  ALA762  ILE779  LEU786  VAL792 
 PHE793  MET794  SER795  GLU796  ALA797  LYS798  CYS799  TRP800  GLU811  SER814 

> <Gold.Protein.RotatedAtoms>
  150.7009  134.1390  159.4097 H   0  0  0  0  0  0  0  0  0  0  0  0  # atno 6907 bound_to 6896
  151.9375  135.0226  160.0543 H   0  0  0  0  0  0  0  0  0  0  0  0  # atno 6908 bound_to 6896
  152.2122  133.4885  159.5153 H   0  0  0  0  0  0  0  0  0  0  0  0  # atno 6909 bound_to 6896
  145.5817  139.2326  143.2349 H   0  0  0  0  0  0  0  0  0  0  0  0  # atno 7974 bound_to 7965
  154.5673  140.2362  155.8245 H   0  0  0  0  0  0  0  0  0  0  0  0  # atno 8008 bound_to 7997
  156.2078  140.3034  155.9624 H   0  0  0  0  0  0  0  0  0  0  0  0  # atno 8009 bound_to 7997
  155.2778  140.0421  157.3003 H   0  0  0  0  0  0  0  0  0  0  0  0  # atno 8010 bound_to 7997
  139.4901  144.4157  151.9246 H   0  0  0  0  0  0  0  0  0  0  0  0  # atno 10167 bound_to 10162
  156.1202  130.6317  150.9450 H   0  0  0  0  0  0  0  0  0  0  0  0  # atno 10718 bound_to 10713
  153.4659  135.3711  155.2364 H   0  0  0  0  0  0  0  0  0  0  0  0  # atno 10763 bound_to 10752
  154.8757  135.3920  154.3869 H   0  0  0  0  0  0  0  0  0  0  0  0  # atno 10764 bound_to 10752
  153.4450  135.7085  153.6209 H   0  0  0  0  0  0  0  0  0  0  0  0  # atno 10765 bound_to 10752
  141.1202  133.6612  156.4902 H   0  0  0  0  0  0  0  0  0  0  0  0  # atno 11005 bound_to 11000
  146.1711  140.6643  142.9232 LP  0  0  0  0  0  0  0  0  0  0  0  0  # atno 17320 bound_to 7965
  144.7391  140.4892  143.6882 LP  0  0  0  0  0  0  0  0  0  0  0  0  # atno 17321 bound_to 7965
  140.3600  144.2985  150.5935 LP  0  0  0  0  0  0  0  0  0  0  0  0  # atno 17342 bound_to 10162
  140.5411  143.2223  151.8083 LP  0  0  0  0  0  0  0  0  0  0  0  0  # atno 17343 bound_to 10162
  157.6385  131.0913  150.8300 LP  0  0  0  0  0  0  0  0  0  0  0  0  # atno 17370 bound_to 10713
  156.8397  130.5044  149.5322 LP  0  0  0  0  0  0  0  0  0  0  0  0  # atno 17371 bound_to 10713
  140.4529  134.6912  157.5048 LP  0  0  0  0  0  0  0  0  0  0  0  0  # atno 17394 bound_to 11000
  140.0154  134.6628  155.9318 LP  0  0  0  0  0  0  0  0  0  0  0  0  # atno 17395 bound_to 11000

$$$$
