AV-unprocessed.smi:702|AV-procd|sdf|3419|dock4
  -GOLD-   22720 0403D 1   1.00000     0.00000
 Structure written by MMmdl.
 49 51  0  0  0  0  0  0  0  0  1 V2000
  145.3497  138.4381  154.2595 C   0  0  0  0  0  0  0  0  0  0  0  0
  146.7265  137.7562  154.3837 C   0  0  1  0  0  0  0  0  0  0  0  0
  146.8450  136.7504  153.3210 N   0  0  0  0  0  0  0  0  0  0  0  0
  145.8969  135.8911  152.9176 C   0  0  0  0  0  0  0  0  0  0  0  0
  144.7615  135.8533  153.3910 O   0  0  0  0  0  0  0  0  0  0  0  0
  146.3683  135.0758  151.9582 N   0  0  0  0  0  0  0  0  0  0  0  0
  145.7071  134.0089  151.2913 C   0  0  0  0  0  0  0  0  0  0  0  0
  146.5060  132.9834  150.7443 C   0  0  0  0  0  0  0  0  0  0  0  0
  145.8770  131.9206  150.0659 C   0  0  0  0  0  0  0  0  0  0  0  0
  144.5404  131.8337  149.9010 N   0  0  0  0  0  0  0  0  0  0  0  0
  143.7781  132.8231  150.4126 C   0  0  0  0  0  0  0  0  0  0  0  0
  144.3054  133.9294  151.1087 C   0  0  0  0  0  0  0  0  0  0  0  0
  147.9354  138.7670  154.3901 C   0  0  0  0  0  0  0  0  0  0  0  0
  149.2409  138.0512  154.5349 N   0  0  0  0  0  0  0  0  0  0  0  0
  149.3558  137.1725  155.7106 C   0  0  0  0  0  0  0  0  0  0  0  0
  150.6769  136.3861  155.7231 C   0  0  0  0  0  0  0  0  0  0  0  0
  151.7704  137.2933  155.6828 O   0  0  0  0  0  0  0  0  0  0  0  0
  151.7406  138.1205  154.5270 C   0  0  0  0  0  0  0  0  0  0  0  0
  150.4259  138.9187  154.4850 C   0  0  0  0  0  0  0  0  0  0  0  0
  147.8728  139.6479  153.1007 C   0  0  0  0  0  0  0  0  0  0  0  0
  147.4038  141.0429  153.5195 C   0  0  0  0  0  0  0  0  0  0  0  0
  147.9033  141.1917  154.9489 C   0  0  0  0  0  0  0  0  0  0  0  0
  147.7180  139.7969  155.5483 C   0  0  0  0  0  0  0  0  0  0  0  0
  145.1692  139.1323  155.0803 H   0  0  0  0  0  0  0  0  0  0  0  0
  144.5473  137.7001  154.2830 H   0  0  0  0  0  0  0  0  0  0  0  0
  145.2545  138.9957  153.3279 H   0  0  0  0  0  0  0  0  0  0  0  0
  146.7238  137.2148  155.3283 H   0  0  0  0  0  0  0  0  0  0  0  0
  147.7451  136.6937  152.8674 H   0  0  0  0  0  0  0  0  0  0  0  0
  147.3439  135.1887  151.7254 H   0  0  0  0  0  0  0  0  0  0  0  0
  147.5814  133.0024  150.8453 H   0  0  0  0  0  0  0  0  0  0  0  0
  146.4646  131.1192  149.6431 H   0  0  0  0  0  0  0  0  0  0  0  0
  142.7131  132.7342  150.2569 H   0  0  0  0  0  0  0  0  0  0  0  0
  143.6315  134.6893  151.4723 H   0  0  0  0  0  0  0  0  0  0  0  0
  149.2931  137.7488  156.6325 H   0  0  0  0  0  0  0  0  0  0  0  0
  148.5448  136.4485  155.7446 H   0  0  0  0  0  0  0  0  0  0  0  0
  150.7498  135.7830  156.6282 H   0  0  0  0  0  0  0  0  0  0  0  0
  150.7283  135.7006  154.8758 H   0  0  0  0  0  0  0  0  0  0  0  0
  152.5934  138.7989  154.5529 H   0  0  0  0  0  0  0  0  0  0  0  0
  151.8474  137.5082  153.6302 H   0  0  0  0  0  0  0  0  0  0  0  0
  150.4460  139.5062  153.5706 H   0  0  0  0  0  0  0  0  0  0  0  0
  150.4098  139.6267  155.3139 H   0  0  0  0  0  0  0  0  0  0  0  0
  148.8475  139.7500  152.6274 H   0  0  0  0  0  0  0  0  0  0  0  0
  147.2275  139.2284  152.3283 H   0  0  0  0  0  0  0  0  0  0  0  0
  147.7786  141.8266  152.8607 H   0  0  0  0  0  0  0  0  0  0  0  0
  146.3142  141.0891  153.5033 H   0  0  0  0  0  0  0  0  0  0  0  0
  148.9591  141.4639  154.9444 H   0  0  0  0  0  0  0  0  0  0  0  0
  147.3645  141.9611  155.5026 H   0  0  0  0  0  0  0  0  0  0  0  0
  146.7085  139.7536  155.9545 H   0  0  0  0  0  0  0  0  0  0  0  0
  148.3605  139.6277  156.4122 H   0  0  0  0  0  0  0  0  0  0  0  0
  1  2  1  0  0  0  0
  1 24  1  0  0  0  0
  1 25  1  0  0  0  0
  1 26  1  0  0  0  0
  2  3  1  0  0  0  0
  2 13  1  0  0  0  0
  2 27  1  0  0  0  0
  3  4  1  0  0  0  0
  3 28  1  0  0  0  0
  4  5  2  0  0  0  0
  4  6  1  0  0  0  0
  6  7  1  0  0  0  0
  6 29  1  0  0  0  0
  7 12  1  0  0  0  0
  7  8  2  0  0  0  0
  8  9  1  0  0  0  0
  8 30  1  0  0  0  0
  9 10  2  0  0  0  0
  9 31  1  0  0  0  0
 10 11  1  0  0  0  0
 11 12  2  0  0  0  0
 11 32  1  0  0  0  0
 12 33  1  0  0  0  0
 13 23  1  0  0  0  0
 13 14  1  0  0  0  0
 13 20  1  0  0  0  0
 14 19  1  0  0  0  0
 14 15  1  0  0  0  0
 15 16  1  0  0  0  0
 15 34  1  0  0  0  0
 15 35  1  0  0  0  0
 16 17  1  0  0  0  0
 16 36  1  0  0  0  0
 16 37  1  0  0  0  0
 17 18  1  0  0  0  0
 18 19  1  0  0  0  0
 18 38  1  0  0  0  0
 18 39  1  0  0  0  0
 19 40  1  0  0  0  0
 19 41  1  0  0  0  0
 20 21  1  0  0  0  0
 20 42  1  0  0  0  0
 20 43  1  0  0  0  0
 21 22  1  0  0  0  0
 21 44  1  0  0  0  0
 21 45  1  0  0  0  0
 22 23  1  0  0  0  0
 22 46  1  0  0  0  0
 22 47  1  0  0  0  0
 23 48  1  0  0  0  0
 23 49  1  0  0  0  0
M  END
> <s_m_source_file>
AV-unprocessed.smi

> <i_m_source_file_index>
702

> <i_lp_mmshare_version>
43012

> <i_f3d_flags>
0

> <s_epik_input>
W0NIMl0xW0NIMl1PW0NIMl1bQ0gyXU4xQzIoW0NIMl1bQ0gyXVtDSDJdW0NIMl0yKVtDQEhdKFtDSDNdKVtOSF1DKD1PKVtOSF1jM1tjSF1bY0hdbltjSF1bY0hdMw==

> <s_epik_cmdline>
J2VwaWtfcHl0aG9uJywgJy1waCcsICc3LjAnLCAnLXRuJywgJzgnLCAnLW1hJywgJzIwMCcsICctbWV0YWxfYmluZGluZycsICctaW1hZScsICc8aW5maWxlLm1hZT4nLCAnLW9tYWUnLCAnPG91dGZpbGUubWFlPic=

> <r_epik_Ionization_Penalty>
0.626636

> <r_epik_Ionization_Penalty_Charging>
0

> <r_epik_Ionization_Penalty_Neutral>
0.626636

> <r_epik_State_Penalty>
0.629018

> <r_epik_Charging_Adjusted_Penalty>
0.629018

> <i_epik_Tot_Q>
0

> <i_epik_Tot_abs_Q>
0

> <r_epik_Metal_State_Penalty>
0.606459

> <b_epik_Metal_Only>
0

> <s_lp_Force_Field>
OPLS_2005

> <r_lp_Energy>
67.1263

> <b_lp_Chiralities_Consistent>
1

> <s_lp_Variant>
AV-unprocessed.smi:702-4

> <Gold.Version>
5.8.1

> <Gold.Id.Protein>
6NUR|6NUR_protein|mol2

> <Gold.PLP.Fitness>
44.3522

> <Gold.PLP.PLP>
-33.8446

> <Gold.PLP.part.hbond>
-3.2167

> <Gold.PLP.part.metal>
0.0000

> <Gold.PLP.part.buried>
-2.7385

> <Gold.PLP.part.nonpolar>
-28.6701

> <Gold.PLP.part.repulsive>
0.5043

> <Gold.PLP.ligand.clash>
0.0000

> <Gold.PLP.ligand.torsion>
0.3706

> <Gold.PLP.Chemscore.Hbond>
2.0345

> <Gold.PLP.Chemscore.CHOScore>
1.6726

> <Gold.PLP.Chemscore.Metal>
0.0000

> <Gold.Chemscore.Hbonds>
donor molecule, donor type, donor heavy atom, donor atom, acceptor molecule, acceptor atom, score
      L1  H     3    28       P1  7948  1.00
      L1  H     6    29       P1  7948  1.00
      P1  H 10752 10765       L1    17  0.01
      L1  C     9    31       P1 10747  0.72
      L1  C    11    32       P1 10186  1.00

> <Gold.PLP.Chemscore.Internal.Correction>
0.1277

> <Gold.Rescore>
     Score         DG    S(hbond)    S(metal)    S(lipo)     H(rot)  DE(clash)    DE(int)     intcor
     15.38     -18.69       1.96        0.00      87.85       1.41       0.49       2.82       ----

> <Gold.Chemscore.Fitness>
15.3751

> <Gold.Chemscore.DG>
-18.6934

> <Gold.Chemscore.ZeroCoef>
-5.4800

> <Gold.Chemscore.Hbond>
1.9603

> <Gold.Chemscore.Metal>
0.0000

> <Gold.Chemscore.Lipo>
87.8486

> <Gold.Chemscore.Internal_Hbond>
0.0000

> <Gold.Chemscore.DEClash>
0.4947

> <Gold.Chemscore.DEInternal>
2.8237

> <Gold.Chemscore.Rot>
1.4111

> <Gold.Chemscore.Internal.Correction>
   9.000000E+99

> <Gold.Chemscore.Hbonds>
donor molecule, donor type, donor heavy atom, donor atom, acceptor molecule, acceptor atom, score
      L1  H     3    28       P1  7948  0.99
      L1  H     6    29       P1  7948  0.87
      P1  H 10785 10796       L1    10  0.03

> <Gold.Chemscore.Hbond.Weighted>
-6.5475

> <Gold.Chemscore.Metal.Weighted>
-0.0000

> <Gold.Chemscore.Lipo.Weighted>
-10.2783

> <Gold.Chemscore.Internal_Hbond.Weighted>
0.0000

> <Gold.Chemscore.DEClash.Weighted>
0.4947

> <Gold.Chemscore.DEInternal.Weighted>
2.8237

> <Gold.Chemscore.Rot.Weighted>
3.6123

> <Gold.Chemscore.Internal.Correction.Weighted>
   9.000000E+99

> <Gold.Protein.RotatedTorsions>
[ 6907 6896 6895 6894 ] final  -86.53 input  -60.11 | X-H torsion
[ 7974 7965 7964 7962 ] final  -64.46 input  175.53 | X-H torsion
[ 8008 7997 7996 7995 ] final -121.23 input   59.86 | X-H torsion
[ 10167 10162 10161 10158 ] final   98.24 input  -65.29 | X-H torsion
[ 10718 10713 10712 10709 ] final   71.71 input   66.30 | X-H torsion
[ 10763 10752 10751 10750 ] final  165.72 input  -60.55 | X-H torsion
[ 11005 11000 10999 10996 ] final -150.05 input  -57.11 | X-H torsion

> <Gold.Protein.ActiveResidues>
 VAL166  LYS551  ARG553  GLY616  TRP617  ASP618  TYR619  PRO620  LYS621  CYS622 
 ASP623  PHE694  ASN695  SER759  ASP760  ASP761  ALA762  ILE779  LEU786  VAL792 
 PHE793  MET794  SER795  GLU796  ALA797  LYS798  CYS799  TRP800  GLU811  SER814 

> <Gold.Protein.RotatedAtoms>
  150.6867  134.3036  159.4716 H   0  0  0  0  0  0  0  0  0  0  0  0  # atno 6907 bound_to 6896
  152.0929  134.9392  160.0580 H   0  0  0  0  0  0  0  0  0  0  0  0  # atno 6908 bound_to 6896
  152.0701  133.4068  159.4492 H   0  0  0  0  0  0  0  0  0  0  0  0  # atno 6909 bound_to 6896
  145.7665  140.8835  143.0402 H   0  0  0  0  0  0  0  0  0  0  0  0  # atno 7974 bound_to 7965
  155.1446  140.0402  157.2807 H   0  0  0  0  0  0  0  0  0  0  0  0  # atno 8008 bound_to 7997
  154.6448  140.2555  155.7254 H   0  0  0  0  0  0  0  0  0  0  0  0  # atno 8009 bound_to 7997
  156.2549  140.2848  156.0857 H   0  0  0  0  0  0  0  0  0  0  0  0  # atno 8010 bound_to 7997
  139.7727  144.6917  151.0134 H   0  0  0  0  0  0  0  0  0  0  0  0  # atno 10167 bound_to 10162
  157.6465  130.9542  150.0826 H   0  0  0  0  0  0  0  0  0  0  0  0  # atno 10718 bound_to 10713
  154.3282  135.2755  155.2485 H   0  0  0  0  0  0  0  0  0  0  0  0  # atno 10763 bound_to 10752
  154.4808  135.5859  153.6392 H   0  0  0  0  0  0  0  0  0  0  0  0  # atno 10764 bound_to 10752
  152.9869  135.6111  154.3473 H   0  0  0  0  0  0  0  0  0  0  0  0  # atno 10765 bound_to 10752
  140.7443  134.3478  157.5140 H   0  0  0  0  0  0  0  0  0  0  0  0  # atno 11005 bound_to 11000
  144.6820  139.9795  143.7483 LP  0  0  0  0  0  0  0  0  0  0  0  0  # atno 17320 bound_to 7965
  146.0212  139.3253  143.0811 LP  0  0  0  0  0  0  0  0  0  0  0  0  # atno 17321 bound_to 7965
  140.7815  143.4571  151.0330 LP  0  0  0  0  0  0  0  0  0  0  0  0  # atno 17342 bound_to 10162
  139.8254  143.7763  152.3178 LP  0  0  0  0  0  0  0  0  0  0  0  0  # atno 17343 bound_to 10162
  156.1798  130.3649  149.9050 LP  0  0  0  0  0  0  0  0  0  0  0  0  # atno 17370 bound_to 10713
  156.7005  130.8931  151.3599 LP  0  0  0  0  0  0  0  0  0  0  0  0  # atno 17371 bound_to 10713
  139.8800  134.9101  156.3006 LP  0  0  0  0  0  0  0  0  0  0  0  0  # atno 17394 bound_to 11000
  140.9808  133.7268  156.0669 LP  0  0  0  0  0  0  0  0  0  0  0  0  # atno 17395 bound_to 11000

$$$$
