AV-unprocessed.smi:2821|AV-procd|sdf|10858|dock4
  -GOLD-   2272015303D 1   1.00000     0.00000
 Structure written by MMmdl.
 36 37  0  0  0  0  0  0  0  0  1 V2000
  153.7791  143.2034  163.6853 C   0  0  0  0  0  0  0  0  0  0  0  0
  153.1632  142.7848  162.3480 C   0  0  0  0  0  0  0  0  0  0  0  0
  152.5496  143.9227  161.7499 O   0  0  0  0  0  0  0  0  0  0  0  0
  152.1315  143.8269  160.4388 C   0  0  0  0  0  0  0  0  0  0  0  0
  151.5555  144.9503  159.8081 C   0  0  0  0  0  0  0  0  0  0  0  0
  151.1309  144.9112  158.5260 N   0  0  0  0  0  0  0  0  0  0  0  0
  151.2844  143.7382  157.8727 C   0  0  0  0  0  0  0  0  0  0  0  0
  151.8584  142.6049  158.4906 C   0  0  0  0  0  0  0  0  0  0  0  0
  151.9846  141.4140  157.7608 N   0  0  0  0  0  0  0  0  0  0  0  0
  150.9417  140.9492  156.8496 C   0  0  2  0  0  0  0  0  0  0  0  0
  149.9032  140.0873  157.5875 C   0  0  0  0  0  0  0  0  0  0  0  0
  151.5495  140.1896  155.6537 C   0  0  1  0  0  0  0  0  0  0  0  0
  152.1679  138.8287  155.9846 C   0  0  0  0  0  0  0  0  0  0  0  0
  152.0972  138.1356  154.6429 C   0  0  0  0  0  0  0  0  0  0  0  0
  150.7521  138.6243  154.1129 C   0  0  0  0  0  0  0  0  0  0  0  0
  150.5797  139.9378  154.6380 O   0  0  0  0  0  0  0  0  0  0  0  0
  152.2808  142.6517  159.7769 N   0  0  0  0  0  0  0  0  0  0  0  0
  154.2608  142.3563  164.1740 H   0  0  0  0  0  0  0  0  0  0  0  0
  153.0177  143.5910  164.3625 H   0  0  0  0  0  0  0  0  0  0  0  0
  154.5308  143.9803  163.5447 H   0  0  0  0  0  0  0  0  0  0  0  0
  153.9409  142.3857  161.6946 H   0  0  0  0  0  0  0  0  0  0  0  0
  152.4267  141.9975  162.5170 H   0  0  0  0  0  0  0  0  0  0  0  0
  151.4350  145.8852  160.3355 H   0  0  0  0  0  0  0  0  0  0  0  0
  150.9445  143.7061  156.8476 H   0  0  0  0  0  0  0  0  0  0  0  0
  152.7599  140.7954  157.9518 H   0  0  0  0  0  0  0  0  0  0  0  0
  150.4266  141.8195  156.4413 H   0  0  0  0  0  0  0  0  0  0  0  0
  149.1139  139.7616  156.9098 H   0  0  0  0  0  0  0  0  0  0  0  0
  149.4268  140.6385  158.3983 H   0  0  0  0  0  0  0  0  0  0  0  0
  150.3609  139.1955  158.0170 H   0  0  0  0  0  0  0  0  0  0  0  0
  152.3279  140.8050  155.1994 H   0  0  0  0  0  0  0  0  0  0  0  0
  153.1838  138.9076  156.3731 H   0  0  0  0  0  0  0  0  0  0  0  0
  151.5671  138.2823  156.7128 H   0  0  0  0  0  0  0  0  0  0  0  0
  152.9052  138.4841  153.9981 H   0  0  0  0  0  0  0  0  0  0  0  0
  152.1588  137.0496  154.7144 H   0  0  0  0  0  0  0  0  0  0  0  0
  150.7057  138.6200  153.0235 H   0  0  0  0  0  0  0  0  0  0  0  0
  149.9450  137.9944  154.4889 H   0  0  0  0  0  0  0  0  0  0  0  0
  1  2  1  0  0  0  0
  1 18  1  0  0  0  0
  1 19  1  0  0  0  0
  1 20  1  0  0  0  0
  2  3  1  0  0  0  0
  2 21  1  0  0  0  0
  2 22  1  0  0  0  0
  3  4  1  0  0  0  0
  4 17  1  0  0  0  0
  4  5  2  0  0  0  0
  5  6  1  0  0  0  0
  5 23  1  0  0  0  0
  6  7  2  0  0  0  0
  7  8  1  0  0  0  0
  7 24  1  0  0  0  0
  8  9  1  0  0  0  0
  8 17  2  0  0  0  0
  9 10  1  0  0  0  0
  9 25  1  0  0  0  0
 10 11  1  0  0  0  0
 10 12  1  0  0  0  0
 10 26  1  0  0  0  0
 11 27  1  0  0  0  0
 11 28  1  0  0  0  0
 11 29  1  0  0  0  0
 12 16  1  0  0  0  0
 12 13  1  0  0  0  0
 12 30  1  0  0  0  0
 13 14  1  0  0  0  0
 13 31  1  0  0  0  0
 13 32  1  0  0  0  0
 14 15  1  0  0  0  0
 14 33  1  0  0  0  0
 14 34  1  0  0  0  0
 15 16  1  0  0  0  0
 15 35  1  0  0  0  0
 15 36  1  0  0  0  0
M  END
> <s_m_source_file>
AV-unprocessed.smi

> <i_m_source_file_index>
2821

> <i_lp_mmshare_version>
43012

> <i_f3d_flags>
0

> <s_epik_input>
W0NIM11bQ0gyXU9jMVtjSF1uW2NIXWMobjEpW05IXVtDQEhdKFtDSDNdKVtDQEBIXTJbQ0gyXVtDSDJdW0NIMl1PMg==

> <s_epik_cmdline>
J2VwaWtfcHl0aG9uJywgJy1waCcsICc3LjAnLCAnLXRuJywgJzgnLCAnLW1hJywgJzIwMCcsICctbWV0YWxfYmluZGluZycsICctaW1hZScsICc8aW5maWxlLm1hZT4nLCAnLW9tYWUnLCAnPG91dGZpbGUubWFlPic=

> <r_lp_tautomer_probability>
1

> <r_epik_Ionization_Penalty>
4.69533e-05

> <r_epik_Ionization_Penalty_Charging>
0

> <r_epik_Ionization_Penalty_Neutral>
4.69533e-05

> <r_epik_State_Penalty>
-0

> <r_epik_Charging_Adjusted_Penalty>
0

> <i_epik_Tot_Q>
0

> <i_epik_Tot_abs_Q>
0

> <r_epik_Metal_State_Penalty>
-0

> <b_epik_Metal_Only>
0

> <s_lp_Force_Field>
OPLS_2005

> <r_lp_Energy>
29.921

> <b_lp_Chiralities_Consistent>
1

> <s_lp_Variant>
AV-unprocessed.smi:2821-3

> <Gold.Version>
5.8.1

> <Gold.Id.Protein>
6NUR|6NUR_protein|mol2

> <Gold.PLP.Fitness>
41.4428

> <Gold.PLP.PLP>
-38.9174

> <Gold.PLP.part.hbond>
-1.0000

> <Gold.PLP.part.metal>
0.0000

> <Gold.PLP.part.buried>
-5.3209

> <Gold.PLP.part.nonpolar>
-31.3221

> <Gold.PLP.part.repulsive>
0.4567

> <Gold.PLP.ligand.clash>
0.0000

> <Gold.PLP.ligand.torsion>
0.7760

> <Gold.PLP.Chemscore.Hbond>
0.4500

> <Gold.PLP.Chemscore.CHOScore>
0.8855

> <Gold.PLP.Chemscore.Metal>
0.0000

> <Gold.Chemscore.Hbonds>
donor molecule, donor type, donor heavy atom, donor atom, acceptor molecule, acceptor atom, score
      P1  H  7989  7998       L1    16  0.40
      L1  C     7    24       P1  8028  0.91

> <Gold.PLP.Chemscore.Internal.Correction>
0.0711

> <Gold.Rescore>
     Score         DG    S(hbond)    S(metal)    S(lipo)     H(rot)  DE(clash)    DE(int)     intcor
     10.93     -11.87       0.00        0.00      88.47       1.55       0.14       0.80       ----

> <Gold.Chemscore.Fitness>
10.9309

> <Gold.Chemscore.DG>
-11.8662

> <Gold.Chemscore.ZeroCoef>
-5.4800

> <Gold.Chemscore.Hbond>
0.0018

> <Gold.Chemscore.Metal>
0.0000

> <Gold.Chemscore.Lipo>
88.4749

> <Gold.Chemscore.Internal_Hbond>
0.0000

> <Gold.Chemscore.DEClash>
0.1387

> <Gold.Chemscore.DEInternal>
0.7967

> <Gold.Chemscore.Rot>
1.5514

> <Gold.Chemscore.Internal.Correction>
   9.000000E+99

> <Gold.Chemscore.Hbond.Weighted>
-0.0062

> <Gold.Chemscore.Metal.Weighted>
-0.0000

> <Gold.Chemscore.Lipo.Weighted>
-10.3516

> <Gold.Chemscore.Internal_Hbond.Weighted>
0.0000

> <Gold.Chemscore.DEClash.Weighted>
0.1387

> <Gold.Chemscore.DEInternal.Weighted>
0.7967

> <Gold.Chemscore.Rot.Weighted>
3.9715

> <Gold.Chemscore.Internal.Correction.Weighted>
   9.000000E+99

> <Gold.Protein.RotatedTorsions>
[ 6907 6896 6895 6894 ] final  -36.94 input  -60.11 | X-H torsion
[ 7974 7965 7964 7962 ] final  108.04 input  175.53 | X-H torsion
[ 8008 7997 7996 7995 ] final  -93.32 input   59.86 | X-H torsion
[ 10167 10162 10161 10158 ] final  -75.01 input  -65.29 | X-H torsion
[ 10718 10713 10712 10709 ] final  155.35 input   66.30 | X-H torsion
[ 10763 10752 10751 10750 ] final -145.77 input  -60.55 | X-H torsion
[ 11005 11000 10999 10996 ] final  155.67 input  -57.11 | X-H torsion

> <Gold.Protein.ActiveResidues>
 VAL166  LYS551  ARG553  GLY616  TRP617  ASP618  TYR619  PRO620  LYS621  CYS622 
 ASP623  PHE694  ASN695  SER759  ASP760  ASP761  ALA762  ILE779  LEU786  VAL792 
 PHE793  MET794  SER795  GLU796  ALA797  LYS798  CYS799  TRP800  GLU811  SER814 

> <Gold.Protein.RotatedAtoms>
  151.0209  134.9468  159.8058 H   0  0  0  0  0  0  0  0  0  0  0  0  # atno 6907 bound_to 6896
  152.5325  134.2905  159.9051 H   0  0  0  0  0  0  0  0  0  0  0  0  # atno 6908 bound_to 6896
  151.2912  133.4122  159.2667 H   0  0  0  0  0  0  0  0  0  0  0  0  # atno 6909 bound_to 6896
  145.2858  139.2617  143.3891 H   0  0  0  0  0  0  0  0  0  0  0  0  # atno 7974 bound_to 7965
  154.7342  140.0500  157.0754 H   0  0  0  0  0  0  0  0  0  0  0  0  # atno 8008 bound_to 7997
  155.0262  140.3152  155.4756 H   0  0  0  0  0  0  0  0  0  0  0  0  # atno 8009 bound_to 7997
  156.2849  140.2158  156.5381 H   0  0  0  0  0  0  0  0  0  0  0  0  # atno 8010 bound_to 7997
  140.4979  143.2367  151.7800 H   0  0  0  0  0  0  0  0  0  0  0  0  # atno 10167 bound_to 10162
  157.2196  131.0715  151.1920 H   0  0  0  0  0  0  0  0  0  0  0  0  # atno 10718 bound_to 10713
  154.8368  135.3404  154.6556 H   0  0  0  0  0  0  0  0  0  0  0  0  # atno 10763 bound_to 10752
  153.7170  135.6960  153.5027 H   0  0  0  0  0  0  0  0  0  0  0  0  # atno 10764 bound_to 10752
  153.2409  135.4385  155.0650 H   0  0  0  0  0  0  0  0  0  0  0  0  # atno 10765 bound_to 10752
  140.1603  134.8614  157.2566 H   0  0  0  0  0  0  0  0  0  0  0  0  # atno 11005 bound_to 11000
  146.3201  140.3337  142.8642 LP  0  0  0  0  0  0  0  0  0  0  0  0  # atno 17320 bound_to 7965
  144.9214  140.7872  143.5746 LP  0  0  0  0  0  0  0  0  0  0  0  0  # atno 17321 bound_to 7965
  139.4865  144.4562  151.9596 LP  0  0  0  0  0  0  0  0  0  0  0  0  # atno 17342 bound_to 10162
  140.3650  144.2926  150.5928 LP  0  0  0  0  0  0  0  0  0  0  0  0  # atno 17343 bound_to 10162
  157.3590  130.7121  149.6489 LP  0  0  0  0  0  0  0  0  0  0  0  0  # atno 17370 bound_to 10713
  155.9683  130.4231  150.4546 LP  0  0  0  0  0  0  0  0  0  0  0  0  # atno 17371 bound_to 10713
  140.2497  134.3697  155.7447 LP  0  0  0  0  0  0  0  0  0  0  0  0  # atno 17394 bound_to 11000
  141.2209  133.7310  156.8917 LP  0  0  0  0  0  0  0  0  0  0  0  0  # atno 17395 bound_to 11000

$$$$
