AV-unprocessed.smi:1762|AV-procd|sdf|7106|dock1
  -GOLD-   22720 8323D 1   1.00000     0.00000
 Structure written by MMmdl.
 53 54  0  0  0  0  0  0  0  0  2 V2000
  145.9027  133.6349  159.0183 C   0  0  0  0  0  0  0  0  0  0  0  0
  147.2104  134.2162  159.5676 C   0  0  1  0  0  0  0  0  0  0  0  0
  147.9047  135.1524  158.5592 C   0  0  0  0  0  0  0  0  0  0  0  0
  149.1164  135.7859  159.1082 N   0  0  0  0  0  0  0  0  0  0  0  0
  149.8188  136.6932  158.1576 C   0  0  2  0  0  0  0  0  0  0  0  0
  149.1887  138.1044  158.0772 C   0  0  0  0  0  0  0  0  0  0  0  0
  148.0257  138.2908  158.4369 O   0  0  0  0  0  0  0  0  0  0  0  0
  149.9748  139.0892  157.6136 N   0  0  0  0  0  0  0  0  0  0  0  0
  149.5669  140.4796  157.4547 C   0  0  0  0  0  0  0  0  0  0  0  0
  150.6792  141.3246  156.8108 C   0  0  0  0  0  0  0  0  0  0  0  0
  151.1796  142.4161  157.7370 C   0  0  0  0  0  0  0  0  0  0  0  0
  151.9600  142.1320  158.8788 C   0  0  0  0  0  0  0  0  0  0  0  0
  152.4000  143.1951  159.6948 C   0  0  0  0  0  0  0  0  0  0  0  0
  152.0526  144.5182  159.3514 C   0  0  0  0  0  0  0  0  0  0  0  0
  151.2722  144.7449  158.1992 C   0  0  0  0  0  0  0  0  0  0  0  0
  150.8692  143.6997  157.4433 N   0  3  0  0  0  0  0  0  0  0  0  0
  150.0391  136.1060  156.7226 C   0  0  0  0  0  0  0  0  0  0  0  0
  150.3451  134.5943  156.7148 C   0  0  0  0  0  0  0  0  0  0  0  0
  151.0904  136.8687  155.8925 C   0  0  0  0  0  0  0  0  0  0  0  0
  148.7639  136.4440  160.3723 C   0  0  0  0  0  0  0  0  0  0  0  0
  148.0667  135.4951  161.3659 C   0  0  1  0  0  0  0  0  0  0  0  0
  147.6334  136.2123  162.6495 C   0  0  0  0  0  0  0  0  0  0  0  0
  146.9091  134.9438  160.7515 O   0  0  0  0  0  0  0  0  0  0  0  0
  146.0810  133.0519  158.1144 H   0  0  0  0  0  0  0  0  0  0  0  0
  145.1915  134.4243  158.7736 H   0  0  0  0  0  0  0  0  0  0  0  0
  145.4317  132.9774  159.7493 H   0  0  0  0  0  0  0  0  0  0  0  0
  147.8794  133.3912  159.8189 H   0  0  0  0  0  0  0  0  0  0  0  0
  148.1347  134.5506  157.6809 H   0  0  0  0  0  0  0  0  0  0  0  0
  147.2032  135.9231  158.2343 H   0  0  0  0  0  0  0  0  0  0  0  0
  150.8206  136.8473  158.5646 H   0  0  0  0  0  0  0  0  0  0  0  0
  150.9208  138.8548  157.3487 H   0  0  0  0  0  0  0  0  0  0  0  0
  148.6524  140.5343  156.8611 H   0  0  0  0  0  0  0  0  0  0  0  0
  149.3206  140.8733  158.4411 H   0  0  0  0  0  0  0  0  0  0  0  0
  151.5181  140.6865  156.5289 H   0  0  0  0  0  0  0  0  0  0  0  0
  150.3204  141.7829  155.8881 H   0  0  0  0  0  0  0  0  0  0  0  0
  152.2204  141.1131  159.1273 H   0  0  0  0  0  0  0  0  0  0  0  0
  152.9977  142.9981  160.5729 H   0  0  0  0  0  0  0  0  0  0  0  0
  152.3803  145.3463  159.9628 H   0  0  0  0  0  0  0  0  0  0  0  0
  150.9605  145.7228  157.8621 H   0  0  0  0  0  0  0  0  0  0  0  0
  149.0952  136.1828  156.1855 H   0  0  0  0  0  0  0  0  0  0  0  0
  151.3314  134.3718  157.1234 H   0  0  0  0  0  0  0  0  0  0  0  0
  150.3216  134.1996  155.6987 H   0  0  0  0  0  0  0  0  0  0  0  0
  149.6076  134.0401  157.2960 H   0  0  0  0  0  0  0  0  0  0  0  0
  152.0916  136.7677  156.3105 H   0  0  0  0  0  0  0  0  0  0  0  0
  150.8600  137.9325  155.8328 H   0  0  0  0  0  0  0  0  0  0  0  0
  151.1261  136.4894  154.8709 H   0  0  0  0  0  0  0  0  0  0  0  0
  149.6534  136.8219  160.8720 H   0  0  0  0  0  0  0  0  0  0  0  0
  148.1220  137.3048  160.1761 H   0  0  0  0  0  0  0  0  0  0  0  0
  148.7465  134.6841  161.6332 H   0  0  0  0  0  0  0  0  0  0  0  0
  148.4909  136.6418  163.1679 H   0  0  0  0  0  0  0  0  0  0  0  0
  147.1434  135.5209  163.3352 H   0  0  0  0  0  0  0  0  0  0  0  0
  146.9333  137.0199  162.4337 H   0  0  0  0  0  0  0  0  0  0  0  0
  150.3049  143.8872  156.6141 H   0  0  0  0  0  0  0  0  0  0  0  0
  1  2  1  0  0  0  0
  1 24  1  0  0  0  0
  1 25  1  0  0  0  0
  1 26  1  0  0  0  0
  2 23  1  0  0  0  0
  2  3  1  0  0  0  0
  2 27  1  0  0  0  0
  3  4  1  0  0  0  0
  3 28  1  0  0  0  0
  3 29  1  0  0  0  0
  4  5  1  0  0  0  0
  4 20  1  0  0  0  0
  5  6  1  0  0  0  0
  5 17  1  0  0  0  0
  5 30  1  0  0  0  0
  6  7  2  0  0  0  0
  6  8  1  0  0  0  0
  8  9  1  0  0  0  0
  8 31  1  0  0  0  0
  9 10  1  0  0  0  0
  9 32  1  0  0  0  0
  9 33  1  0  0  0  0
 10 11  1  0  0  0  0
 10 34  1  0  0  0  0
 10 35  1  0  0  0  0
 11 16  1  0  0  0  0
 11 12  2  0  0  0  0
 12 13  1  0  0  0  0
 12 36  1  0  0  0  0
 13 14  2  0  0  0  0
 13 37  1  0  0  0  0
 14 15  1  0  0  0  0
 14 38  1  0  0  0  0
 15 16  2  0  0  0  0
 15 39  1  0  0  0  0
 16 53  1  0  0  0  0
 17 18  1  0  0  0  0
 17 19  1  0  0  0  0
 17 40  1  0  0  0  0
 18 41  1  0  0  0  0
 18 42  1  0  0  0  0
 18 43  1  0  0  0  0
 19 44  1  0  0  0  0
 19 45  1  0  0  0  0
 19 46  1  0  0  0  0
 20 21  1  0  0  0  0
 20 47  1  0  0  0  0
 20 48  1  0  0  0  0
 21 22  1  0  0  0  0
 21 23  1  0  0  0  0
 21 49  1  0  0  0  0
 22 50  1  0  0  0  0
 22 51  1  0  0  0  0
 22 52  1  0  0  0  0
M  CHG  1  16   1
M  END
> <s_m_source_file>
AV-unprocessed.smi

> <i_m_source_file_index>
1762

> <i_lp_mmshare_version>
43012

> <i_f3d_flags>
0

> <s_epik_input>
W0NIM11bQ0BASF0xW0NIMl1OKFtDSDJdW0NASF0oTzEpW0NIM10pW0NAQEhdKFtDSF0oW0NIM10pW0NIM10pQyg9TylbTkhdW0NIMl1bQ0gyXWMyW2NIXVtjSF1bY0hdW2NIXW4y

> <s_epik_cmdline>
J2VwaWtfcHl0aG9uJywgJy1waCcsICc3LjAnLCAnLXRuJywgJzgnLCAnLW1hJywgJzIwMCcsICctbWV0YWxfYmluZGluZycsICctaW1hZScsICc8aW5maWxlLm1hZT4nLCAnLW9tYWUnLCAnPG91dGZpbGUubWFlPic=

> <r_epik_Ionization_Penalty>
1.86475

> <r_epik_Ionization_Penalty_Charging>
1.85347

> <r_epik_Ionization_Penalty_Neutral>
0.0112771

> <r_epik_State_Penalty>
1.99714

> <r_epik_Charging_Adjusted_Penalty>
3.85061

> <i_epik_Tot_Q>
1

> <i_epik_Tot_abs_Q>
1

> <r_epik_Metal_State_Penalty>
2.02271

> <b_epik_Metal_Only>
0

> <s_lp_Force_Field>
OPLS_2005

> <r_lp_Energy>
32.9979

> <b_lp_Chiralities_Consistent>
1

> <s_lp_Variant>
AV-unprocessed.smi:1762-8

> <Gold.Version>
5.8.1

> <Gold.Id.Protein>
6NUR|6NUR_protein|mol2

> <Gold.PLP.Fitness>
44.7887

> <Gold.PLP.PLP>
-38.0528

> <Gold.PLP.part.hbond>
-2.7528

> <Gold.PLP.part.metal>
0.0000

> <Gold.PLP.part.buried>
-5.9362

> <Gold.PLP.part.nonpolar>
-29.9713

> <Gold.PLP.part.repulsive>
0.0665

> <Gold.PLP.ligand.clash>
0.0000

> <Gold.PLP.ligand.torsion>
1.3639

> <Gold.PLP.Chemscore.Hbond>
2.9417

> <Gold.PLP.Chemscore.CHOScore>
0.0000

> <Gold.PLP.Chemscore.Metal>
0.0000

> <Gold.Chemscore.Hbonds>
donor molecule, donor type, donor heavy atom, donor atom, acceptor molecule, acceptor atom, score
      L1  H    16    53       P1  8028  2.00
      P1  H  6896  6909       L1     4  0.95

> <Gold.PLP.Chemscore.Internal.Correction>
0.6388

> <Gold.Rescore>
     Score         DG    S(hbond)    S(metal)    S(lipo)     H(rot)  DE(clash)    DE(int)     intcor
     13.99     -17.73       1.02        0.00     113.25       1.72       0.03       3.71       ----

> <Gold.Chemscore.Fitness>
13.9896

> <Gold.Chemscore.DG>
-17.7294

> <Gold.Chemscore.ZeroCoef>
-5.4800

> <Gold.Chemscore.Hbond>
1.0167

> <Gold.Chemscore.Metal>
0.0000

> <Gold.Chemscore.Lipo>
113.2501

> <Gold.Chemscore.Internal_Hbond>
0.0000

> <Gold.Chemscore.DEClash>
0.0260

> <Gold.Chemscore.DEInternal>
3.7138

> <Gold.Chemscore.Rot>
1.7174

> <Gold.Chemscore.Internal.Correction>
   9.000000E+99

> <Gold.Chemscore.Hbonds>
donor molecule, donor type, donor heavy atom, donor atom, acceptor molecule, acceptor atom, score
      L1  H    16    53       P1  8028  0.97
      P1  H  6896  6909       L1     4  0.10

> <Gold.Chemscore.Hbond.Weighted>
-3.3957

> <Gold.Chemscore.Metal.Weighted>
-0.0000

> <Gold.Chemscore.Lipo.Weighted>
-13.2503

> <Gold.Chemscore.Internal_Hbond.Weighted>
0.0000

> <Gold.Chemscore.DEClash.Weighted>
0.0260

> <Gold.Chemscore.DEInternal.Weighted>
3.7138

> <Gold.Chemscore.Rot.Weighted>
4.3966

> <Gold.Chemscore.Internal.Correction.Weighted>
   9.000000E+99

> <Gold.Protein.RotatedTorsions>
[ 6907 6896 6895 6894 ] final   45.93 input  -60.11 | X-H torsion
[ 7974 7965 7964 7962 ] final  -72.60 input  175.53 | X-H torsion
[ 8008 7997 7996 7995 ] final  174.62 input   59.86 | X-H torsion
[ 10167 10162 10161 10158 ] final  149.35 input  -65.29 | X-H torsion
[ 10718 10713 10712 10709 ] final   -0.24 input   66.30 | X-H torsion
[ 10763 10752 10751 10750 ] final  -91.54 input  -60.55 | X-H torsion
[ 11005 11000 10999 10996 ] final   21.92 input  -57.11 | X-H torsion

> <Gold.Protein.ActiveResidues>
 VAL166  LYS551  ARG553  GLY616  TRP617  ASP618  TYR619  PRO620  LYS621  CYS622 
 ASP623  PHE694  ASN695  SER759  ASP760  ASP761  ALA762  ILE779  LEU786  VAL792 
 PHE793  MET794  SER795  GLU796  ALA797  LYS798  CYS799  TRP800  GLU811  SER814 

> <Gold.Protein.RotatedAtoms>
  152.2504  134.8138  160.0446 H   0  0  0  0  0  0  0  0  0  0  0  0  # atno 6907 bound_to 6896
  151.8820  133.3492  159.3777 H   0  0  0  0  0  0  0  0  0  0  0  0  # atno 6908 bound_to 6896
  150.7082  134.4936  159.5571 H   0  0  0  0  0  0  0  0  0  0  0  0  # atno 6909 bound_to 6896
  145.6631  140.9246  143.0923 H   0  0  0  0  0  0  0  0  0  0  0  0  # atno 7974 bound_to 7965
  156.0955  140.1430  156.9536 H   0  0  0  0  0  0  0  0  0  0  0  0  # atno 8008 bound_to 7997
  154.4669  140.0923  156.7089 H   0  0  0  0  0  0  0  0  0  0  0  0  # atno 8009 bound_to 7997
  155.4847  140.3446  155.4347 H   0  0  0  0  0  0  0  0  0  0  0  0  # atno 8010 bound_to 7997
  139.4862  144.5608  151.7234 H   0  0  0  0  0  0  0  0  0  0  0  0  # atno 10167 bound_to 10162
  156.8233  130.5464  149.5695 H   0  0  0  0  0  0  0  0  0  0  0  0  # atno 10718 bound_to 10713
  154.6771  135.5264  153.8213 H   0  0  0  0  0  0  0  0  0  0  0  0  # atno 10763 bound_to 10752
  153.0539  135.6543  154.0634 H   0  0  0  0  0  0  0  0  0  0  0  0  # atno 10764 bound_to 10752
  154.0526  135.2968  155.3318 H   0  0  0  0  0  0  0  0  0  0  0  0  # atno 10765 bound_to 10752
  140.3862  134.1867  155.7663 H   0  0  0  0  0  0  0  0  0  0  0  0  # atno 11005 bound_to 11000
  144.7082  139.8474  143.7423 LP  0  0  0  0  0  0  0  0  0  0  0  0  # atno 17320 bound_to 7965
  146.1109  139.4113  143.0288 LP  0  0  0  0  0  0  0  0  0  0  0  0  # atno 17321 bound_to 7965
  140.5178  144.0926  150.6013 LP  0  0  0  0  0  0  0  0  0  0  0  0  # atno 17342 bound_to 10162
  140.3874  143.2770  152.0100 LP  0  0  0  0  0  0  0  0  0  0  0  0  # atno 17343 bound_to 10162
  156.0976  130.5944  150.9839 LP  0  0  0  0  0  0  0  0  0  0  0  0  # atno 17370 bound_to 10713
  157.6445  131.0906  150.8182 LP  0  0  0  0  0  0  0  0  0  0  0  0  # atno 17371 bound_to 10713
  141.1906  133.8212  157.0910 LP  0  0  0  0  0  0  0  0  0  0  0  0  # atno 17394 bound_to 11000
  140.0441  134.9839  157.1016 LP  0  0  0  0  0  0  0  0  0  0  0  0  # atno 17395 bound_to 11000

$$$$
