#       Name:                AV-unprocessed.smi:2271
#       Creating user name   scv26
#       Creation time:       Fri Mar 27 12:37:01 2020


#       File generated by GOLD software.
#

@<TRIPOS>MOLECULE
AV-unprocessed.smi:2271
    51    52     1
SMALL
NO_CHARGES


@<TRIPOS>ATOM
      1 ****        -3.3765   2.5259  -4.7248 C.3            1 S1                 0.0000
      2 ****        -3.2844   3.2281  -3.3864 C.ar           1 S1                 0.0000
      3 ****        -3.5895   4.5978  -3.2627 C.ar           1 S1                 0.0000
      4 ****        -3.4867   5.1874  -1.9900 C.ar           1 S1                 0.0000
      5 ****        -3.0867   4.3891  -0.9010 C.ar           1 S1                 0.0000
      6 ****        -2.7995   3.0214  -1.1108 C.ar           1 S1                 0.0000
      7 ****        -2.3979   2.3049   0.0481 N.am           1 S1                 0.0000
      8 ****        -2.0791   1.0025   0.1490 C.2            1 S1                 0.0000
      9 ****        -2.1371   0.1818  -0.7673 O.2            1 S1                 0.0000
     10 ****        -1.6742   0.6954   1.3905 N.am           1 S1                 0.0000
     11 ****        -1.2551  -0.6297   1.8391 C.3            1 S1                 0.0000
     12 ****         0.2793  -0.8025   1.8342 C.3            1 S1                 0.0000
     13 ****         0.9033  -0.6720   0.4296 C.3            1 S1                 0.0000
     14 ****         2.4208  -0.9144   0.4557 C.3            1 S1                 0.0000
     15 ****         2.7425  -2.2407   1.0389 N.4            1 S1                 1.0000
     16 ****         4.1884  -2.5652   0.9419 C.3            1 S1                 0.0000
     17 ****         4.4522  -4.0800   0.9565 C.3            1 S1                 0.0000
     18 ****         3.8997  -4.6754  -0.1982 O.3            1 S1                 0.0000
     19 ****         2.1990  -2.3717   2.4157 C.3            1 S1                 0.0000
     20 ****         0.6754  -2.1660   2.4287 C.3            1 S1                 0.0000
     21 ****        -2.9007   2.4624  -2.3425 N.ar           1 S1                 0.0000
     22 ****        -3.5648   3.2346  -5.5316 H              1 S1                 0.0000
     23 ****        -4.1883   1.7980  -4.7131 H              1 S1                 0.0000
     24 ****        -2.4467   2.0004  -4.9453 H              1 S1                 0.0000
     25 ****        -3.8943   5.1831  -4.1179 H              1 S1                 0.0000
     26 ****        -3.7107   6.2346  -1.8500 H              1 S1                 0.0000
     27 ****        -3.0028   4.8269   0.0831 H              1 S1                 0.0000
     28 ****        -2.3261   2.8524   0.8927 H              1 S1                 0.0000
     29 ****        -1.6590   1.4328   2.0799 H              1 S1                 0.0000
     30 ****        -1.6332  -0.7602   2.8536 H              1 S1                 0.0000
     31 ****        -1.7288  -1.4100   1.2407 H              1 S1                 0.0000
     32 ****         0.7069  -0.0234   2.4676 H              1 S1                 0.0000
     33 ****         0.4310  -1.3813  -0.2517 H              1 S1                 0.0000
     34 ****         0.7172   0.3205   0.0195 H              1 S1                 0.0000
     35 ****         2.8061  -0.8558  -0.5630 H              1 S1                 0.0000
     36 ****         2.9187  -0.1311   1.0295 H              1 S1                 0.0000
     37 ****         4.6009  -2.1562   0.0183 H              1 S1                 0.0000
     38 ****         4.7263  -2.0778   1.7562 H              1 S1                 0.0000
     39 ****         5.5262  -4.2672   0.9559 H              1 S1                 0.0000
     40 ****         4.0494  -4.5607   1.8472 H              1 S1                 0.0000
     41 ****         4.1046  -5.5984  -0.1895 H              1 S1                 0.0000
     42 ****         2.4247  -3.3572   2.8211 H              1 S1                 0.0000
     43 ****         2.6816  -1.6443   3.0705 H              1 S1                 0.0000
     44 ****         0.3059  -2.2475   3.4516 H              1 S1                 0.0000
     45 ****         0.1971  -2.9682   1.8644 H              1 S1                 0.0000
     46 ****         2.2650  -2.9216   0.4650 H              1 S1                 0.0000
     47 ****        -2.4413   0.4676  -1.6760 LP             1 S1                 0.0000
     48 ****        -1.8800  -0.7705  -0.6026 LP             1 S1                 0.0000
     49 ****         4.2901  -4.2514  -1.0154 LP             1 S1                 0.0000
     50 ****         2.9075  -4.5507  -0.1996 LP             1 S1                 0.0000
     51 ****        -2.6933   1.4933  -2.4761 LP             1 S1                 0.0000
@<TRIPOS>BOND
    1    1    2 1     
    2    1   22 1     
    3    1   23 1     
    4    1   24 1     
    5    2   21 ar    
    6    2    3 ar    
    7    3    4 ar    
    8    3   25 1     
    9    4    5 ar    
   10    4   26 1     
   11    5    6 ar    
   12    5   27 1     
   13    6    7 1     
   14    6   21 ar    
   15    7    8 am    
   16    7   28 1     
   17    8    9 2     
   18    8   10 am    
   19   10   11 1     
   20   10   29 1     
   21   11   12 1     
   22   11   30 1     
   23   11   31 1     
   24   12   20 1     
   25   12   13 1     
   26   12   32 1     
   27   13   14 1     
   28   13   33 1     
   29   13   34 1     
   30   14   15 1     
   31   14   35 1     
   32   14   36 1     
   33   15   16 1     
   34   15   19 1     
   35   15   46 1     
   36   16   17 1     
   37   16   37 1     
   38   16   38 1     
   39   17   18 1     
   40   17   39 1     
   41   17   40 1     
   42   18   41 1     
   43   19   20 1     
   44   19   42 1     
   45   19   43 1     
   46   20   44 1     
   47   20   45 1     
   48    9   47 1     
   49    9   48 1     
   50   18   49 1     
   51   18   50 1     
   52   21   51 1     
@<TRIPOS>SUBSTRUCTURE
      1 S1             1
@<TRIPOS>SET
LONE_PAIRS      STATIC     ATOMS    <user>   **** ""
5 47 48 49 50 51
DONOR_HYDROGENS      STATIC     ATOMS    <user>   **** ""
4 28 29 46 41
ATOM$BLUE        STATIC     ATOMS    COLORGROUP SYSTEM
5 47 48 49 50 51
ATOM$RED        STATIC     ATOMS    COLORGROUP SYSTEM
4 28 29 46 41
