AV-unprocessed.smi:1897|AV-procd|sdf|7698|dock3
  -GOLD-   22720 9433D 1   1.00000     0.00000
 Structure written by MMmdl.
 38 40  0  0  0  0  0  0  0  0  3 V2000
  148.4796  140.5679  154.6632 C   0  0  0  0  0  0  0  0  0  0  0  0
  149.4681  139.4576  154.5588 C   0  0  0  0  0  0  0  0  0  0  0  0
  150.7707  139.6672  154.3538 N   0  0  0  0  0  0  0  0  0  0  0  0
  151.4874  138.4817  154.2924 N   0  0  0  0  0  0  0  0  0  0  0  0
  150.7216  137.3946  154.4663 C   0  0  0  0  0  0  0  0  0  0  0  0
  151.2257  136.1465  154.4562 N   0  5  0  0  0  0  0  0  0  0  0  0
  150.5528  135.0832  154.9673 C   0  0  0  0  0  0  0  0  0  0  0  0
  150.8856  134.5040  156.0004 O   0  0  0  0  0  0  0  0  0  0  0  0
  149.4589  134.6571  154.3068 N   0  0  0  0  0  0  0  0  0  0  0  0
  148.5626  133.5899  154.7383 C   0  0  2  0  0  0  0  0  0  0  0  0
  149.2464  132.2327  154.8371 C   0  0  0  0  0  0  0  0  0  0  0  0
  148.0689  131.2538  154.8080 C   0  0  0  0  0  0  0  0  0  0  0  0
  146.9741  131.9211  154.0615 N   0  3  2  0  0  0  0  0  0  0  0  0
  146.4832  131.1472  152.8901 C   0  0  0  0  0  0  0  0  0  0  0  0
  145.6493  132.0353  151.9553 C   0  0  0  0  0  0  0  0  0  0  0  0
  146.4873  133.1930  151.3812 C   0  0  0  0  0  0  0  0  0  0  0  0
  147.6966  133.5420  152.2696 C   0  0  0  0  0  0  0  0  0  0  0  0
  147.3922  133.3226  153.7730 C   0  0  2  0  0  0  0  0  0  0  0  0
  149.0152  137.7674  154.7031 S   0  0  0  0  0  0  0  0  0  0  0  0
  148.4987  140.9897  155.6680 H   0  0  0  0  0  0  0  0  0  0  0  0
  147.4745  140.2004  154.4554 H   0  0  0  0  0  0  0  0  0  0  0  0
  148.7171  141.3549  153.9470 H   0  0  0  0  0  0  0  0  0  0  0  0
  149.2102  135.1470  153.4599 H   0  0  0  0  0  0  0  0  0  0  0  0
  148.1617  133.8318  155.7248 H   0  0  0  0  0  0  0  0  0  0  0  0
  149.8870  132.0671  153.9693 H   0  0  0  0  0  0  0  0  0  0  0  0
  149.8598  132.1287  155.7326 H   0  0  0  0  0  0  0  0  0  0  0  0
  148.3567  130.2915  154.3822 H   0  0  0  0  0  0  0  0  0  0  0  0
  147.7151  131.0664  155.8223 H   0  0  0  0  0  0  0  0  0  0  0  0
  147.3254  130.7325  152.3332 H   0  0  0  0  0  0  0  0  0  0  0  0
  145.8927  130.3023  153.2452 H   0  0  0  0  0  0  0  0  0  0  0  0
  145.2249  131.4444  151.1430 H   0  0  0  0  0  0  0  0  0  0  0  0
  144.8030  132.4390  152.5126 H   0  0  0  0  0  0  0  0  0  0  0  0
  146.8450  132.9386  150.3828 H   0  0  0  0  0  0  0  0  0  0  0  0
  145.8476  134.0677  151.2593 H   0  0  0  0  0  0  0  0  0  0  0  0
  148.5476  132.9237  151.9804 H   0  0  0  0  0  0  0  0  0  0  0  0
  147.9931  134.5728  152.0727 H   0  0  0  0  0  0  0  0  0  0  0  0
  146.5639  133.9815  154.0377 H   0  0  0  0  0  0  0  0  0  0  0  0
  146.1985  131.9956  154.7039 H   0  0  0  0  0  0  0  0  0  0  0  0
  1  2  1  0  0  0  0
  1 20  1  0  0  0  0
  1 21  1  0  0  0  0
  1 22  1  0  0  0  0
  2 19  1  0  0  0  0
  2  3  2  0  0  0  0
  3  4  1  0  0  0  0
  4  5  2  0  0  0  0
  5  6  1  0  0  0  0
  5 19  1  0  0  0  0
  6  7  1  0  0  0  0
  7  8  2  0  0  0  0
  7  9  1  0  0  0  0
  9 10  1  0  0  0  0
  9 23  1  0  0  0  0
 10 18  1  0  0  0  0
 10 11  1  0  0  0  0
 10 24  1  0  0  0  0
 11 12  1  0  0  0  0
 11 25  1  0  0  0  0
 11 26  1  0  0  0  0
 12 13  1  0  0  0  0
 12 27  1  0  0  0  0
 12 28  1  0  0  0  0
 13 18  1  0  0  0  0
 13 14  1  0  0  0  0
 13 38  1  0  0  0  0
 14 15  1  0  0  0  0
 14 29  1  0  0  0  0
 14 30  1  0  0  0  0
 15 16  1  0  0  0  0
 15 31  1  0  0  0  0
 15 32  1  0  0  0  0
 16 17  1  0  0  0  0
 16 33  1  0  0  0  0
 16 34  1  0  0  0  0
 17 18  1  0  0  0  0
 17 35  1  0  0  0  0
 17 36  1  0  0  0  0
 18 37  1  0  0  0  0
M  CHG  1   6  -1
M  CHG  1  13   1
M  END
> <s_m_source_file>
AV-unprocessed.smi

> <i_m_source_file_index>
1897

> <i_lp_mmshare_version>
43012

> <i_f3d_flags>
0

> <s_epik_input>
W0NIM11jMW5uYyhzMSlbTkhdQyg9TylbTkhdW0NASF0oW0NIMl1bQ0gyXTIpW0NAQEhdKE4yMylbQ0gyXVtDSDJdW0NIMl1bQ0gyXTM=

> <s_epik_cmdline>
J2VwaWtfcHl0aG9uJywgJy1waCcsICc3LjAnLCAnLXRuJywgJzgnLCAnLW1hJywgJzIwMCcsICctbWV0YWxfYmluZGluZycsICctaW1hZScsICc8aW5maWxlLm1hZT4nLCAnLW9tYWUnLCAnPG91dGZpbGUubWFlPic=

> <r_lp_tautomer_probability>
1

> <r_epik_Ionization_Penalty>
3.77712

> <r_epik_Ionization_Penalty_Charging>
3.67739

> <r_epik_Ionization_Penalty_Neutral>
0.0997294

> <r_epik_State_Penalty>
3.67514

> <r_epik_Charging_Adjusted_Penalty>
7.35254

> <i_epik_Tot_Q>
0

> <i_epik_Tot_abs_Q>
2

> <r_epik_Metal_State_Penalty>
0.540795

> <b_epik_Metal_Only>
1

> <s_lp_Force_Field>
OPLS_2005

> <r_lp_Energy>
34.1596

> <b_lp_Chiralities_Consistent>
1

> <s_lp_Variant>
AV-unprocessed.smi:1897-15

> <Gold.Version>
5.8.1

> <Gold.Id.Protein>
6NUR|6NUR_protein|mol2

> <Gold.PLP.Fitness>
35.4903

> <Gold.PLP.PLP>
-24.9509

> <Gold.PLP.part.hbond>
-3.0000

> <Gold.PLP.part.metal>
0.0000

> <Gold.PLP.part.buried>
-3.2859

> <Gold.PLP.part.nonpolar>
-20.1417

> <Gold.PLP.part.repulsive>
0.6572

> <Gold.PLP.ligand.clash>
0.0000

> <Gold.PLP.ligand.torsion>
0.7355

> <Gold.PLP.Chemscore.Hbond>
4.0000

> <Gold.PLP.Chemscore.CHOScore>
0.0000

> <Gold.PLP.Chemscore.Metal>
0.0000

> <Gold.Chemscore.Hbonds>
donor molecule, donor type, donor heavy atom, donor atom, acceptor molecule, acceptor atom, score
      L1  H     9    23       P1  7948  0.95
      P1  H  7989  7998       L1     3  1.00
      P1  H 10752 10765       L1     6  2.00

> <Gold.PLP.Chemscore.Internal.Correction>
0.0103

> <Gold.Rescore>
     Score         DG    S(hbond)    S(metal)    S(lipo)     H(rot)  DE(clash)    DE(int)     intcor
     15.90     -16.87       2.34        0.00      52.59       1.00       0.22       0.75       ----

> <Gold.Chemscore.Fitness>
15.8952

> <Gold.Chemscore.DG>
-16.8717

> <Gold.Chemscore.ZeroCoef>
-5.4800

> <Gold.Chemscore.Hbond>
2.3350

> <Gold.Chemscore.Metal>
0.0000

> <Gold.Chemscore.Lipo>
52.5871

> <Gold.Chemscore.Internal_Hbond>
0.0000

> <Gold.Chemscore.DEClash>
0.2224

> <Gold.Chemscore.DEInternal>
0.7542

> <Gold.Chemscore.Rot>
1.0000

> <Gold.Chemscore.Internal.Correction>
   9.000000E+99

> <Gold.Chemscore.Hbonds>
donor molecule, donor type, donor heavy atom, donor atom, acceptor molecule, acceptor atom, score
      L1  H     9    23       P1  7948  0.21
      P1  H  7989  7998       L1     3  0.65
      P1  H 10752 10765       L1     6  0.50

> <Gold.Chemscore.Hbond.Weighted>
-7.7990

> <Gold.Chemscore.Metal.Weighted>
-0.0000

> <Gold.Chemscore.Lipo.Weighted>
-6.1527

> <Gold.Chemscore.Internal_Hbond.Weighted>
0.0000

> <Gold.Chemscore.DEClash.Weighted>
0.2224

> <Gold.Chemscore.DEInternal.Weighted>
0.7542

> <Gold.Chemscore.Rot.Weighted>
2.5600

> <Gold.Chemscore.Internal.Correction.Weighted>
   9.000000E+99

> <Gold.Protein.RotatedTorsions>
[ 6907 6896 6895 6894 ] final  104.37 input  -60.11 | X-H torsion
[ 7974 7965 7964 7962 ] final  143.10 input  175.53 | X-H torsion
[ 8008 7997 7996 7995 ] final -150.28 input   59.86 | X-H torsion
[ 10167 10162 10161 10158 ] final  -72.47 input  -65.29 | X-H torsion
[ 10718 10713 10712 10709 ] final -118.46 input   66.30 | X-H torsion
[ 10763 10752 10751 10750 ] final  168.77 input  -60.55 | X-H torsion
[ 11005 11000 10999 10996 ] final -125.12 input  -57.11 | X-H torsion

> <Gold.Protein.ActiveResidues>
 VAL166  LYS551  ARG553  GLY616  TRP617  ASP618  TYR619  PRO620  LYS621  CYS622 
 ASP623  PHE694  ASN695  SER759  ASP760  ASP761  ALA762  ILE779  LEU786  VAL792 
 PHE793  MET794  SER795  GLU796  ALA797  LYS798  CYS799  TRP800  GLU811  SER814 

> <Gold.Protein.RotatedAtoms>
  152.5266  133.9686  159.7751 H   0  0  0  0  0  0  0  0  0  0  0  0  # atno 6907 bound_to 6896
  150.9963  133.6092  159.2708 H   0  0  0  0  0  0  0  0  0  0  0  0  # atno 6908 bound_to 6896
  151.3217  135.0826  159.9361 H   0  0  0  0  0  0  0  0  0  0  0  0  # atno 6909 bound_to 6896
  144.8950  139.5504  143.5781 H   0  0  0  0  0  0  0  0  0  0  0  0  # atno 7974 bound_to 7965
  155.6210  140.0681  157.2678 H   0  0  0  0  0  0  0  0  0  0  0  0  # atno 8008 bound_to 7997
  154.4229  140.1784  156.1420 H   0  0  0  0  0  0  0  0  0  0  0  0  # atno 8009 bound_to 7997
  156.0009  140.3336  155.6848 H   0  0  0  0  0  0  0  0  0  0  0  0  # atno 8010 bound_to 7997
  140.5190  143.2334  151.7463 H   0  0  0  0  0  0  0  0  0  0  0  0  # atno 10167 bound_to 10162
  156.1108  130.6247  150.9293 H   0  0  0  0  0  0  0  0  0  0  0  0  # atno 10718 bound_to 10713
  154.3734  135.2753  155.2253 H   0  0  0  0  0  0  0  0  0  0  0  0  # atno 10763 bound_to 10752
  154.4391  135.5959  153.6121 H   0  0  0  0  0  0  0  0  0  0  0  0  # atno 10764 bound_to 10752
  152.9837  135.6014  154.3968 H   0  0  0  0  0  0  0  0  0  0  0  0  # atno 10765 bound_to 10752
  140.9787  134.0703  157.3789 H   0  0  0  0  0  0  0  0  0  0  0  0  # atno 11005 bound_to 11000
  146.3076  139.7632  142.9044 LP  0  0  0  0  0  0  0  0  0  0  0  0  # atno 17320 bound_to 7965
  145.3717  141.0344  143.3227 LP  0  0  0  0  0  0  0  0  0  0  0  0  # atno 17321 bound_to 7965
  139.4917  144.4282  151.9902 LP  0  0  0  0  0  0  0  0  0  0  0  0  # atno 17342 bound_to 10162
  140.3378  144.3240  150.5973 LP  0  0  0  0  0  0  0  0  0  0  0  0  # atno 17343 bound_to 10162
  157.6288  131.0923  150.8481 LP  0  0  0  0  0  0  0  0  0  0  0  0  # atno 17370 bound_to 10713
  156.8592  130.5107  149.5305 LP  0  0  0  0  0  0  0  0  0  0  0  0  # atno 17371 bound_to 10713
  139.8941  135.0134  156.6934 LP  0  0  0  0  0  0  0  0  0  0  0  0  # atno 17394 bound_to 11000
  140.7219  133.9133  155.8152 LP  0  0  0  0  0  0  0  0  0  0  0  0  # atno 17395 bound_to 11000

$$$$
