AV-unprocessed.smi:2784|AV-procd|sdf|10729|dock2
  -GOLD-   2272015163D 1   1.00000     0.00000
 Structure written by MMmdl.
 31 32  0  0  0  0  0  0  0  0  1 V2000
  153.3799  141.3995  160.6715 C   0  0  0  0  0  0  0  0  0  0  0  0
  153.1003  141.8685  159.3621 O   0  0  0  0  0  0  0  0  0  0  0  0
  152.0408  142.8141  159.3062 C   0  0  1  0  0  0  0  0  0  0  0  0
  152.1216  143.8369  160.4480 C   0  0  0  0  0  0  0  0  0  0  0  0
  151.5287  145.1122  159.8605 C   0  0  0  0  0  0  0  0  0  0  0  0
  152.0302  145.1170  158.4178 C   0  0  0  0  0  0  0  0  0  0  0  0
  152.1300  143.6359  158.0015 C   0  0  2  0  0  0  0  0  0  0  0  0
  151.0503  143.2701  157.0874 N   0  0  0  0  0  0  0  0  0  0  0  0
  150.8571  142.0466  156.5743 C   0  0  0  0  0  0  0  0  0  0  0  0
  151.5917  141.0870  156.8104 O   0  0  0  0  0  0  0  0  0  0  0  0
  149.7738  142.0157  155.7803 N   0  0  0  0  0  0  0  0  0  0  0  0
  149.2460  140.8996  155.0836 C   0  0  0  0  0  0  0  0  0  0  0  0
  147.9599  140.5601  154.9842 N   0  0  0  0  0  0  0  0  0  0  0  0
  147.9604  139.4110  154.2070 C   0  0  0  0  0  0  0  0  0  0  0  0
  149.2589  139.1180  153.8778 C   0  0  0  0  0  0  0  0  0  0  0  0
  150.0886  140.0575  154.4290 O   0  0  0  0  0  0  0  0  0  0  0  0
  154.1895  140.6709  160.6311 H   0  0  0  0  0  0  0  0  0  0  0  0
  152.5097  140.9085  161.1084 H   0  0  0  0  0  0  0  0  0  0  0  0
  153.6938  142.2088  161.3314 H   0  0  0  0  0  0  0  0  0  0  0  0
  151.0773  142.3016  159.3527 H   0  0  0  0  0  0  0  0  0  0  0  0
  151.6000  143.5069  161.3468 H   0  0  0  0  0  0  0  0  0  0  0  0
  153.1642  144.0157  160.7147 H   0  0  0  0  0  0  0  0  0  0  0  0
  150.4398  145.0533  159.8730 H   0  0  0  0  0  0  0  0  0  0  0  0
  151.8236  146.0060  160.4106 H   0  0  0  0  0  0  0  0  0  0  0  0
  151.3936  145.7144  157.7640 H   0  0  0  0  0  0  0  0  0  0  0  0
  153.0250  145.5631  158.3871 H   0  0  0  0  0  0  0  0  0  0  0  0
  153.0923  143.4628  157.5154 H   0  0  0  0  0  0  0  0  0  0  0  0
  150.3989  144.0004  156.8397 H   0  0  0  0  0  0  0  0  0  0  0  0
  149.2664  142.8809  155.6682 H   0  0  0  0  0  0  0  0  0  0  0  0
  147.0460  138.8967  153.9508 H   0  0  0  0  0  0  0  0  0  0  0  0
  149.7275  138.3349  153.3001 H   0  0  0  0  0  0  0  0  0  0  0  0
  1  2  1  0  0  0  0
  1 17  1  0  0  0  0
  1 18  1  0  0  0  0
  1 19  1  0  0  0  0
  2  3  1  0  0  0  0
  3  7  1  0  0  0  0
  3  4  1  0  0  0  0
  3 20  1  0  0  0  0
  4  5  1  0  0  0  0
  4 21  1  0  0  0  0
  4 22  1  0  0  0  0
  5  6  1  0  0  0  0
  5 23  1  0  0  0  0
  5 24  1  0  0  0  0
  6  7  1  0  0  0  0
  6 25  1  0  0  0  0
  6 26  1  0  0  0  0
  7  8  1  0  0  0  0
  7 27  1  0  0  0  0
  8  9  1  0  0  0  0
  8 28  1  0  0  0  0
  9 10  2  0  0  0  0
  9 11  1  0  0  0  0
 11 12  1  0  0  0  0
 11 29  1  0  0  0  0
 12 16  1  0  0  0  0
 12 13  2  0  0  0  0
 13 14  1  0  0  0  0
 14 15  2  0  0  0  0
 14 30  1  0  0  0  0
 15 16  1  0  0  0  0
 15 31  1  0  0  0  0
M  END
> <s_m_source_file>
AV-unprocessed.smi

> <i_m_source_file_index>
2784

> <i_lp_mmshare_version>
43012

> <i_f3d_flags>
0

> <s_epik_input>
W0NIM11PW0NAQEhdMVtDSDJdW0NIMl1bQ0gyXVtDQEhdMVtOSF1DKD1PKVtOSF1jMm5bY0hdW2NIXW8y

> <s_epik_cmdline>
J2VwaWtfcHl0aG9uJywgJy1waCcsICc3LjAnLCAnLXRuJywgJzgnLCAnLW1hJywgJzIwMCcsICctbWV0YWxfYmluZGluZycsICctaW1hZScsICc8aW5maWxlLm1hZT4nLCAnLW9tYWUnLCAnPG91dGZpbGUubWFlPic=

> <r_lp_tautomer_probability>
0.785861

> <r_epik_Ionization_Penalty>
4.58897e-05

> <r_epik_Ionization_Penalty_Charging>
0

> <r_epik_Ionization_Penalty_Neutral>
4.58897e-05

> <r_epik_State_Penalty>
0.0380021

> <r_epik_Charging_Adjusted_Penalty>
0.0380021

> <i_epik_Tot_Q>
0

> <i_epik_Tot_abs_Q>
0

> <r_epik_Metal_State_Penalty>
0.0585611

> <b_epik_Metal_Only>
0

> <s_lp_Force_Field>
OPLS_2005

> <r_lp_Energy>
18.2903

> <b_lp_Chiralities_Consistent>
1

> <s_lp_Variant>
AV-unprocessed.smi:2784-4

> <Gold.Version>
5.8.1

> <Gold.Id.Protein>
6NUR|6NUR_protein|mol2

> <Gold.PLP.Fitness>
44.7812

> <Gold.PLP.PLP>
-34.3048

> <Gold.PLP.part.hbond>
-3.0000

> <Gold.PLP.part.metal>
0.0000

> <Gold.PLP.part.buried>
-3.8860

> <Gold.PLP.part.nonpolar>
-27.6757

> <Gold.PLP.part.repulsive>
0.3476

> <Gold.PLP.ligand.clash>
0.0000

> <Gold.PLP.ligand.torsion>
0.5248

> <Gold.PLP.Chemscore.Hbond>
3.0000

> <Gold.PLP.Chemscore.CHOScore>
0.8404

> <Gold.PLP.Chemscore.Metal>
0.0000

> <Gold.Chemscore.Hbonds>
donor molecule, donor type, donor heavy atom, donor atom, acceptor molecule, acceptor atom, score
      L1  H     8    28       P1  8028  1.00
      L1  H    11    29       P1  8028  1.00
      P1  H  7989  7998       L1    16  1.00
      L1  C    15    31       P1  7948  0.77
      L1  C    15    31       P1  7957  0.08

> <Gold.PLP.Chemscore.Internal.Correction>
0.0047

> <Gold.Rescore>
     Score         DG    S(hbond)    S(metal)    S(lipo)     H(rot)  DE(clash)    DE(int)     intcor
     18.33     -21.28       2.84        0.00      82.86       1.32       1.28       1.67       ----

> <Gold.Chemscore.Fitness>
18.3311

> <Gold.Chemscore.DG>
-21.2825

> <Gold.Chemscore.ZeroCoef>
-5.4800

> <Gold.Chemscore.Hbond>
2.8430

> <Gold.Chemscore.Metal>
0.0000

> <Gold.Chemscore.Lipo>
82.8641

> <Gold.Chemscore.Internal_Hbond>
0.0000

> <Gold.Chemscore.DEClash>
1.2838

> <Gold.Chemscore.DEInternal>
1.6676

> <Gold.Chemscore.Rot>
1.3235

> <Gold.Chemscore.Internal.Correction>
   9.000000E+99

> <Gold.Chemscore.Hbonds>
donor molecule, donor type, donor heavy atom, donor atom, acceptor molecule, acceptor atom, score
      L1  H     8    28       P1  8028  0.90
      L1  H    11    29       P1  8028  1.00
      P1  H  7989  7998       L1    16  0.89

> <Gold.Chemscore.Hbond.Weighted>
-9.4956

> <Gold.Chemscore.Metal.Weighted>
-0.0000

> <Gold.Chemscore.Lipo.Weighted>
-9.6951

> <Gold.Chemscore.Internal_Hbond.Weighted>
0.0000

> <Gold.Chemscore.DEClash.Weighted>
1.2838

> <Gold.Chemscore.DEInternal.Weighted>
1.6676

> <Gold.Chemscore.Rot.Weighted>
3.3882

> <Gold.Chemscore.Internal.Correction.Weighted>
   9.000000E+99

> <Gold.Protein.RotatedTorsions>
[ 6907 6896 6895 6894 ] final  123.37 input  -60.11 | X-H torsion
[ 7974 7965 7964 7962 ] final -154.20 input  175.53 | X-H torsion
[ 8008 7997 7996 7995 ] final  -87.65 input   59.86 | X-H torsion
[ 10167 10162 10161 10158 ] final  -84.55 input  -65.29 | X-H torsion
[ 10718 10713 10712 10709 ] final   10.36 input   66.30 | X-H torsion
[ 10763 10752 10751 10750 ] final   92.70 input  -60.55 | X-H torsion
[ 11005 11000 10999 10996 ] final  116.41 input  -57.11 | X-H torsion

> <Gold.Protein.ActiveResidues>
 VAL166  LYS551  ARG553  GLY616  TRP617  ASP618  TYR619  PRO620  LYS621  CYS622 
 ASP623  PHE694  ASN695  SER759  ASP760  ASP761  ALA762  ILE779  LEU786  VAL792 
 PHE793  MET794  SER795  GLU796  ALA797  LYS798  CYS799  TRP800  GLU811  SER814 

> <Gold.Protein.RotatedAtoms>
  152.4167  133.7050  159.6445 H   0  0  0  0  0  0  0  0  0  0  0  0  # atno 6907 bound_to 6896
  150.8044  133.8526  159.3218 H   0  0  0  0  0  0  0  0  0  0  0  0  # atno 6908 bound_to 6896
  151.6254  135.1030  160.0162 H   0  0  0  0  0  0  0  0  0  0  0  0  # atno 6909 bound_to 6896
  144.7701  140.4421  143.5913 H   0  0  0  0  0  0  0  0  0  0  0  0  # atno 7974 bound_to 7965
  154.6657  140.0563  157.0111 H   0  0  0  0  0  0  0  0  0  0  0  0  # atno 8008 bound_to 7997
  155.1162  140.3243  155.4490 H   0  0  0  0  0  0  0  0  0  0  0  0  # atno 8009 bound_to 7997
  156.2637  140.2005  156.6285 H   0  0  0  0  0  0  0  0  0  0  0  0  # atno 8010 bound_to 7997
  140.4122  143.2618  151.9003 H   0  0  0  0  0  0  0  0  0  0  0  0  # atno 10167 bound_to 10162
  156.9798  130.6001  149.5676 H   0  0  0  0  0  0  0  0  0  0  0  0  # atno 10718 bound_to 10713
  153.2221  135.4352  155.0501 H   0  0  0  0  0  0  0  0  0  0  0  0  # atno 10763 bound_to 10752
  154.8255  135.3359  154.6912 H   0  0  0  0  0  0  0  0  0  0  0  0  # atno 10764 bound_to 10752
  153.7343  135.7009  153.5038 H   0  0  0  0  0  0  0  0  0  0  0  0  # atno 10765 bound_to 10752
  139.9040  134.9597  156.7193 H   0  0  0  0  0  0  0  0  0  0  0  0  # atno 11005 bound_to 11000
  145.6349  139.1541  143.2948 LP  0  0  0  0  0  0  0  0  0  0  0  0  # atno 17320 bound_to 7965
  146.1841  140.6450  142.9175 LP  0  0  0  0  0  0  0  0  0  0  0  0  # atno 17321 bound_to 7965
  139.4782  144.5525  151.8363 LP  0  0  0  0  0  0  0  0  0  0  0  0  # atno 17342 bound_to 10162
  140.4626  144.1701  150.5908 LP  0  0  0  0  0  0  0  0  0  0  0  0  # atno 17343 bound_to 10162
  156.0249  130.5343  150.8378 LP  0  0  0  0  0  0  0  0  0  0  0  0  # atno 17370 bound_to 10713
  157.5534  131.0944  150.9663 LP  0  0  0  0  0  0  0  0  0  0  0  0  # atno 17371 bound_to 10713
  140.7013  133.9304  155.8026 LP  0  0  0  0  0  0  0  0  0  0  0  0  # atno 17394 bound_to 11000
  141.0369  134.0676  157.3948 LP  0  0  0  0  0  0  0  0  0  0  0  0  # atno 17395 bound_to 11000

$$$$
