AV-unprocessed.smi:2717|AV-procd|sdf|10484|dock2
  -GOLD-   2272014523D 1   1.00000     0.00000
 Structure written by MMmdl.
 43 44  0  0  0  0  0  0  0  0  1 V2000
  152.0134  139.1158  154.5905 C   0  0  0  0  0  0  0  0  0  0  0  0
  150.9850  139.8655  155.4437 C   0  0  0  0  0  0  0  0  0  0  0  0
  149.9629  140.5734  154.6186 C   0  0  0  0  0  0  0  0  0  0  0  0
  149.1494  139.9506  153.7620 N   0  0  0  0  0  0  0  0  0  0  0  0
  148.3057  140.8328  153.0803 C   0  0  0  0  0  0  0  0  0  0  0  0
  147.3164  140.3024  152.0870 C   0  0  0  0  0  0  0  0  0  0  0  0
  146.3424  139.2943  152.7187 C   0  0  0  0  0  0  0  0  0  0  0  0
  146.6460  137.9270  152.3115 N   0  0  0  0  0  0  0  0  0  0  0  0
  145.7632  136.9187  152.2919 C   0  0  0  0  0  0  0  0  0  0  0  0
  144.5805  137.0306  152.6155 O   0  0  0  0  0  0  0  0  0  0  0  0
  146.3249  135.7727  151.8809 N   0  0  0  0  0  0  0  0  0  0  0  0
  145.6303  134.4955  151.7459 C   0  0  2  0  0  0  0  0  0  0  0  0
  146.4809  133.4922  150.9383 C   0  0  0  0  0  0  0  0  0  0  0  0
  145.7317  132.1674  150.7207 C   0  0  0  0  0  0  0  0  0  0  0  0
  144.3706  132.4036  150.0441 C   0  0  1  0  0  0  0  0  0  0  0  0
  143.6821  131.1764  149.9260 O   0  0  0  0  0  0  0  0  0  0  0  0
  143.5168  133.3938  150.8545 C   0  0  0  0  0  0  0  0  0  0  0  0
  144.2632  134.7201  151.0715 C   0  0  0  0  0  0  0  0  0  0  0  0
  148.5006  142.1460  153.4300 C   0  0  0  0  0  0  0  0  0  0  0  0
  149.7560  142.3210  154.6254 S   0  0  0  0  0  0  0  0  0  0  0  0
  152.7430  138.6066  155.2203 H   0  0  0  0  0  0  0  0  0  0  0  0
  152.5559  139.7996  153.9372 H   0  0  0  0  0  0  0  0  0  0  0  0
  151.5320  138.3646  153.9638 H   0  0  0  0  0  0  0  0  0  0  0  0
  150.4774  139.1689  156.1119 H   0  0  0  0  0  0  0  0  0  0  0  0
  151.4890  140.5954  156.0778 H   0  0  0  0  0  0  0  0  0  0  0  0
  146.7518  141.1267  151.6495 H   0  0  0  0  0  0  0  0  0  0  0  0
  147.8461  139.8313  151.2578 H   0  0  0  0  0  0  0  0  0  0  0  0
  146.3595  139.3738  153.8072 H   0  0  0  0  0  0  0  0  0  0  0  0
  145.3220  139.5205  152.4077 H   0  0  0  0  0  0  0  0  0  0  0  0
  147.5957  137.7360  152.0274 H   0  0  0  0  0  0  0  0  0  0  0  0
  147.3047  135.7844  151.6386 H   0  0  0  0  0  0  0  0  0  0  0  0
  145.4524  134.0845  152.7416 H   0  0  0  0  0  0  0  0  0  0  0  0
  146.7419  133.9233  149.9706 H   0  0  0  0  0  0  0  0  0  0  0  0
  147.4227  133.2958  151.4518 H   0  0  0  0  0  0  0  0  0  0  0  0
  146.3409  131.4948  150.1161 H   0  0  0  0  0  0  0  0  0  0  0  0
  145.5867  131.6740  151.6831 H   0  0  0  0  0  0  0  0  0  0  0  0
  144.5282  132.7991  149.0399 H   0  0  0  0  0  0  0  0  0  0  0  0
  142.7654  131.3579  149.7849 H   0  0  0  0  0  0  0  0  0  0  0  0
  142.5724  133.5818  150.3424 H   0  0  0  0  0  0  0  0  0  0  0  0
  143.2637  132.9596  151.8229 H   0  0  0  0  0  0  0  0  0  0  0  0
  143.6520  135.3888  151.6789 H   0  0  0  0  0  0  0  0  0  0  0  0
  144.4016  135.2159  150.1095 H   0  0  0  0  0  0  0  0  0  0  0  0
  147.9858  143.0184  153.0562 H   0  0  0  0  0  0  0  0  0  0  0  0
  1  2  1  0  0  0  0
  1 21  1  0  0  0  0
  1 22  1  0  0  0  0
  1 23  1  0  0  0  0
  2  3  1  0  0  0  0
  2 24  1  0  0  0  0
  2 25  1  0  0  0  0
  3 20  1  0  0  0  0
  3  4  2  0  0  0  0
  4  5  1  0  0  0  0
  5  6  1  0  0  0  0
  5 19  2  0  0  0  0
  6  7  1  0  0  0  0
  6 26  1  0  0  0  0
  6 27  1  0  0  0  0
  7  8  1  0  0  0  0
  7 28  1  0  0  0  0
  7 29  1  0  0  0  0
  8  9  1  0  0  0  0
  8 30  1  0  0  0  0
  9 10  2  0  0  0  0
  9 11  1  0  0  0  0
 11 12  1  0  0  0  0
 11 31  1  0  0  0  0
 12 18  1  0  0  0  0
 12 13  1  0  0  0  0
 12 32  1  0  0  0  0
 13 14  1  0  0  0  0
 13 33  1  0  0  0  0
 13 34  1  0  0  0  0
 14 15  1  0  0  0  0
 14 35  1  0  0  0  0
 14 36  1  0  0  0  0
 15 16  1  0  0  0  0
 15 17  1  0  0  0  0
 15 37  1  0  0  0  0
 16 38  1  0  0  0  0
 17 18  1  0  0  0  0
 17 39  1  0  0  0  0
 17 40  1  0  0  0  0
 18 41  1  0  0  0  0
 18 42  1  0  0  0  0
 19 20  1  0  0  0  0
 19 43  1  0  0  0  0
M  END
> <s_m_source_file>
AV-unprocessed.smi

> <i_m_source_file_index>
2717

> <i_lp_mmshare_version>
43012

> <i_f3d_flags>
0

> <s_epik_input>
W0NIM11bQ0gyXWMxbmMoW2NIXXMxKVtDSDJdW0NIMl1bTkhdQyg9TylbTkhdW0NAQEhdMltDSDJdW0NIMl1bQ0BASF0oW09IXSlbQ0gyXVtDSDJdMg==

> <s_epik_cmdline>
J2VwaWtfcHl0aG9uJywgJy1waCcsICc3LjAnLCAnLXRuJywgJzgnLCAnLW1hJywgJzIwMCcsICctbWV0YWxfYmluZGluZycsICctaW1hZScsICc8aW5maWxlLm1hZT4nLCAnLW9tYWUnLCAnPG91dGZpbGUubWFlPic=

> <r_epik_Ionization_Penalty>
0.00202099

> <r_epik_Ionization_Penalty_Charging>
0

> <r_epik_Ionization_Penalty_Neutral>
0.00202099

> <r_epik_State_Penalty>
0.00133629

> <r_epik_Charging_Adjusted_Penalty>
0.00133629

> <i_epik_Tot_Q>
0

> <i_epik_Tot_abs_Q>
0

> <r_epik_Metal_State_Penalty>
-0

> <b_epik_Metal_Only>
0

> <s_lp_Force_Field>
OPLS_2005

> <r_lp_Energy>
-3.71108

> <b_lp_Chiralities_Consistent>
1

> <s_lp_Variant>
AV-unprocessed.smi:2717-1

> <Gold.Version>
5.8.1

> <Gold.Id.Protein>
6NUR|6NUR_protein|mol2

> <Gold.PLP.Fitness>
50.6787

> <Gold.PLP.PLP>
-38.8008

> <Gold.PLP.part.hbond>
-4.0000

> <Gold.PLP.part.metal>
0.0000

> <Gold.PLP.part.buried>
-2.2474

> <Gold.PLP.part.nonpolar>
-31.8118

> <Gold.PLP.part.repulsive>
0.3081

> <Gold.PLP.ligand.clash>
0.0000

> <Gold.PLP.ligand.torsion>
0.6922

> <Gold.PLP.Chemscore.Hbond>
3.4029

> <Gold.PLP.Chemscore.CHOScore>
0.9993

> <Gold.PLP.Chemscore.Metal>
0.0000

> <Gold.Chemscore.Hbonds>
donor molecule, donor type, donor heavy atom, donor atom, acceptor molecule, acceptor atom, score
      L1  H     8    30       P1  7948  0.86
      L1  H    11    31       P1  7948  1.00
      L1  H    16    38       P1 10952  0.47

> <Gold.PLP.Chemscore.Internal.Correction>
0.0558

> <Gold.Rescore>
     Score         DG    S(hbond)    S(metal)    S(lipo)     H(rot)  DE(clash)    DE(int)     intcor
     17.62     -21.19       2.97        0.00      97.76       2.21       3.01       0.56       ----

> <Gold.Chemscore.Fitness>
17.6222

> <Gold.Chemscore.DG>
-21.1907

> <Gold.Chemscore.ZeroCoef>
-5.4800

> <Gold.Chemscore.Hbond>
2.9719

> <Gold.Chemscore.Metal>
0.0000

> <Gold.Chemscore.Lipo>
97.7629

> <Gold.Chemscore.Internal_Hbond>
0.0000

> <Gold.Chemscore.DEClash>
3.0086

> <Gold.Chemscore.DEInternal>
0.5599

> <Gold.Chemscore.Rot>
2.2084

> <Gold.Chemscore.Internal.Correction>
   9.000000E+99

> <Gold.Chemscore.Hbonds>
donor molecule, donor type, donor heavy atom, donor atom, acceptor molecule, acceptor atom, score
      L1  H     8    30       P1  7948  0.81
      L1  H    11    31       P1  7948  0.98
      L1  H    16    38       P1 10952  0.46

> <Gold.Chemscore.Hbond.Weighted>
-9.9260

> <Gold.Chemscore.Metal.Weighted>
-0.0000

> <Gold.Chemscore.Lipo.Weighted>
-11.4383

> <Gold.Chemscore.Internal_Hbond.Weighted>
0.0000

> <Gold.Chemscore.DEClash.Weighted>
3.0086

> <Gold.Chemscore.DEInternal.Weighted>
0.5599

> <Gold.Chemscore.Rot.Weighted>
5.6535

> <Gold.Chemscore.Internal.Correction.Weighted>
   9.000000E+99

> <Gold.Protein.RotatedTorsions>
[ 6907 6896 6895 6894 ] final   21.96 input  -60.11 | X-H torsion
[ 7974 7965 7964 7962 ] final  -83.33 input  175.53 | X-H torsion
[ 8008 7997 7996 7995 ] final -147.41 input   59.86 | X-H torsion
[ 10167 10162 10161 10158 ] final   85.54 input  -65.29 | X-H torsion
[ 10718 10713 10712 10709 ] final   16.51 input   66.30 | X-H torsion
[ 10763 10752 10751 10750 ] final   63.16 input  -60.55 | X-H torsion
[ 11005 11000 10999 10996 ] final   11.21 input  -57.11 | X-H torsion

> <Gold.Protein.ActiveResidues>
 VAL166  LYS551  ARG553  GLY616  TRP617  ASP618  TYR619  PRO620  LYS621  CYS622 
 ASP623  PHE694  ASN695  SER759  ASP760  ASP761  ALA762  ILE779  LEU786  VAL792 
 PHE793  MET794  SER795  GLU796  ALA797  LYS798  CYS799  TRP800  GLU811  SER814 

> <Gold.Protein.RotatedAtoms>
  151.9198  135.0303  160.0520 H   0  0  0  0  0  0  0  0  0  0  0  0  # atno 6907 bound_to 6896
  152.2209  133.4978  159.5170 H   0  0  0  0  0  0  0  0  0  0  0  0  # atno 6908 bound_to 6896
  150.6999  134.1261  159.4095 H   0  0  0  0  0  0  0  0  0  0  0  0  # atno 6909 bound_to 6896
  145.5214  140.9531  143.1653 H   0  0  0  0  0  0  0  0  0  0  0  0  # atno 7974 bound_to 7965
  155.5750  140.0638  157.2797 H   0  0  0  0  0  0  0  0  0  0  0  0  # atno 8008 bound_to 7997
  154.4349  140.1862  156.0964 H   0  0  0  0  0  0  0  0  0  0  0  0  # atno 8009 bound_to 7997
  156.0348  140.3302  155.7182 H   0  0  0  0  0  0  0  0  0  0  0  0  # atno 8010 bound_to 7997
  139.8967  144.6353  150.8680 H   0  0  0  0  0  0  0  0  0  0  0  0  # atno 10167 bound_to 10162
  157.0689  130.6340  149.5801 H   0  0  0  0  0  0  0  0  0  0  0  0  # atno 10718 bound_to 10713
  153.0008  135.5439  154.6307 H   0  0  0  0  0  0  0  0  0  0  0  0  # atno 10763 bound_to 10752
  154.5585  135.2832  155.0943 H   0  0  0  0  0  0  0  0  0  0  0  0  # atno 10764 bound_to 10752
  154.2155  135.6460  153.5181 H   0  0  0  0  0  0  0  0  0  0  0  0  # atno 10765 bound_to 10752
  140.5058  134.0700  155.7805 H   0  0  0  0  0  0  0  0  0  0  0  0  # atno 11005 bound_to 11000
  144.7674  139.6814  143.7209 LP  0  0  0  0  0  0  0  0  0  0  0  0  # atno 17320 bound_to 7965
  146.2103  139.5455  142.9685 LP  0  0  0  0  0  0  0  0  0  0  0  0  # atno 17321 bound_to 7965
  140.7715  143.3468  151.2095 LP  0  0  0  0  0  0  0  0  0  0  0  0  # atno 17342 bound_to 10162
  139.7061  143.9453  152.2927 LP  0  0  0  0  0  0  0  0  0  0  0  0  # atno 17343 bound_to 10162
  155.9956  130.5023  150.7466 LP  0  0  0  0  0  0  0  0  0  0  0  0  # atno 17370 bound_to 10713
  157.4894  131.0909  151.0444 LP  0  0  0  0  0  0  0  0  0  0  0  0  # atno 17371 bound_to 10713
  141.1411  133.9136  157.2322 LP  0  0  0  0  0  0  0  0  0  0  0  0  # atno 17394 bound_to 11000
  139.9687  135.0134  156.9455 LP  0  0  0  0  0  0  0  0  0  0  0  0  # atno 17395 bound_to 11000

$$$$
