AV-unprocessed.smi:224|AV-procd|sdf|1707|dock3
  -GOLD-   2262020173D 1   1.00000     0.00000
 Structure written by MMmdl.
 56 59  0  0  0  0  0  0  0  0  2 V2000
  145.7453  132.4472  149.4804 C   0  0  0  0  0  0  0  0  0  0  0  0
  144.2357  132.6056  149.7155 C   0  0  2  0  0  0  0  0  0  0  0  0
  143.7738  133.6727  148.9140 O   0  0  0  0  0  0  0  0  0  0  0  0
  143.8833  132.9126  151.1863 C   0  0  0  0  0  0  0  0  0  0  0  0
  143.5854  134.3550  151.4212 N   0  3  2  0  0  0  0  0  0  0  0  0
  144.8129  135.1907  151.2849 C   0  0  0  0  0  0  0  0  0  0  0  0
  144.5146  136.6870  151.4534 C   0  0  0  0  0  0  0  0  0  0  0  0
  143.8509  136.9279  152.7264 N   0  0  0  0  0  0  0  0  0  0  0  0
  144.6558  137.1483  153.8004 C   0  0  0  0  0  0  0  0  0  0  0  0
  144.2854  136.6929  155.0270 N   0  0  0  0  0  0  0  0  0  0  0  0
  145.0695  136.8926  156.0900 C   0  0  0  0  0  0  0  0  0  0  0  0
  146.2458  137.5176  156.1520 N   0  0  0  0  0  0  0  0  0  0  0  0
  146.6196  137.9911  154.9294 C   0  0  0  0  0  0  0  0  0  0  0  0
  145.8925  137.8507  153.7128 C   0  0  0  0  0  0  0  0  0  0  0  0
  146.5837  138.4713  152.6784 N   0  0  0  0  0  0  0  0  0  0  0  0
  147.6593  138.9421  153.2482 C   0  0  0  0  0  0  0  0  0  0  0  0
  147.7590  138.7046  154.6002 N   0  0  0  0  0  0  0  0  0  0  0  0
  148.8416  139.1202  155.4793 C   0  0  0  0  0  0  0  0  0  0  0  0
  150.2128  139.1965  154.7687 C   0  0  1  0  0  0  0  0  0  0  0  0
  150.2295  140.3339  153.9230 O   0  0  0  0  0  0  0  0  0  0  0  0
  151.4047  139.2804  155.7176 C   0  0  0  0  0  0  0  0  0  0  0  0
  152.5034  138.5648  154.9448 C   0  0  0  0  0  0  0  0  0  0  0  0
  151.8060  137.4846  154.3485 O   0  0  0  0  0  0  0  0  0  0  0  0
  150.5321  137.9519  153.9161 C   0  0  0  0  0  0  0  0  0  0  0  0
  142.6255  136.1527  152.8945 C   0  0  0  0  0  0  0  0  0  0  0  0
  142.8465  134.6327  152.6955 C   0  0  1  0  0  0  0  0  0  0  0  0
  141.4698  133.9397  152.7577 C   0  0  0  0  0  0  0  0  0  0  0  0
  146.1470  131.6050  150.0444 H   0  0  0  0  0  0  0  0  0  0  0  0
  146.2930  133.3407  149.7820 H   0  0  0  0  0  0  0  0  0  0  0  0
  145.9610  132.2643  148.4270 H   0  0  0  0  0  0  0  0  0  0  0  0
  143.7198  131.7108  149.3699 H   0  0  0  0  0  0  0  0  0  0  0  0
  144.5147  134.0838  148.4949 H   0  0  0  0  0  0  0  0  0  0  0  0
  143.0376  132.2821  151.4487 H   0  0  0  0  0  0  0  0  0  0  0  0
  144.6948  132.6031  151.8473 H   0  0  0  0  0  0  0  0  0  0  0  0
  145.5469  134.8787  152.0299 H   0  0  0  0  0  0  0  0  0  0  0  0
  145.2741  135.0416  150.3101 H   0  0  0  0  0  0  0  0  0  0  0  0
  145.4376  137.2569  151.3585 H   0  0  0  0  0  0  0  0  0  0  0  0
  143.8601  137.0290  150.6511 H   0  0  0  0  0  0  0  0  0  0  0  0
  144.7013  136.4960  157.0247 H   0  0  0  0  0  0  0  0  0  0  0  0
  148.4121  139.4866  152.6962 H   0  0  0  0  0  0  0  0  0  0  0  0
  148.5847  140.0925  155.9015 H   0  0  0  0  0  0  0  0  0  0  0  0
  148.8882  138.4258  156.3194 H   0  0  0  0  0  0  0  0  0  0  0  0
  149.7795  140.1166  153.1208 H   0  0  0  0  0  0  0  0  0  0  0  0
  151.6703  140.2983  156.0057 H   0  0  0  0  0  0  0  0  0  0  0  0
  151.2011  138.7190  156.6300 H   0  0  0  0  0  0  0  0  0  0  0  0
  152.9226  139.2079  154.1694 H   0  0  0  0  0  0  0  0  0  0  0  0
  153.3146  138.2176  155.5849 H   0  0  0  0  0  0  0  0  0  0  0  0
  149.7981  137.1566  154.0498 H   0  0  0  0  0  0  0  0  0  0  0  0
  150.5707  138.1822  152.8500 H   0  0  0  0  0  0  0  0  0  0  0  0
  142.1764  136.3539  153.8683 H   0  0  0  0  0  0  0  0  0  0  0  0
  141.9072  136.5150  152.1579 H   0  0  0  0  0  0  0  0  0  0  0  0
  143.4556  134.2579  153.5194 H   0  0  0  0  0  0  0  0  0  0  0  0
  140.8961  134.2986  153.6129 H   0  0  0  0  0  0  0  0  0  0  0  0
  141.5421  132.8602  152.8804 H   0  0  0  0  0  0  0  0  0  0  0  0
  140.8816  134.1429  151.8622 H   0  0  0  0  0  0  0  0  0  0  0  0
  142.9610  134.6399  150.6803 H   0  0  0  0  0  0  0  0  0  0  0  0
  1  2  1  0  0  0  0
  1 28  1  0  0  0  0
  1 29  1  0  0  0  0
  1 30  1  0  0  0  0
  2  3  1  0  0  0  0
  2  4  1  0  0  0  0
  2 31  1  0  0  0  0
  3 32  1  0  0  0  0
  4  5  1  0  0  0  0
  4 33  1  0  0  0  0
  4 34  1  0  0  0  0
  5 26  1  0  0  0  0
  5  6  1  0  0  0  0
  5 56  1  0  0  0  0
  6  7  1  0  0  0  0
  6 35  1  0  0  0  0
  6 36  1  0  0  0  0
  7  8  1  0  0  0  0
  7 37  1  0  0  0  0
  7 38  1  0  0  0  0
  8  9  1  0  0  0  0
  8 25  1  0  0  0  0
  9 14  1  0  0  0  0
  9 10  2  0  0  0  0
 10 11  1  0  0  0  0
 11 12  2  0  0  0  0
 11 39  1  0  0  0  0
 12 13  1  0  0  0  0
 13 17  1  0  0  0  0
 13 14  2  0  0  0  0
 14 15  1  0  0  0  0
 15 16  2  0  0  0  0
 16 17  1  0  0  0  0
 16 40  1  0  0  0  0
 17 18  1  0  0  0  0
 18 19  1  0  0  0  0
 18 41  1  0  0  0  0
 18 42  1  0  0  0  0
 19 24  1  0  0  0  0
 19 20  1  0  0  0  0
 19 21  1  0  0  0  0
 20 43  1  0  0  0  0
 21 22  1  0  0  0  0
 21 44  1  0  0  0  0
 21 45  1  0  0  0  0
 22 23  1  0  0  0  0
 22 46  1  0  0  0  0
 22 47  1  0  0  0  0
 23 24  1  0  0  0  0
 24 48  1  0  0  0  0
 24 49  1  0  0  0  0
 25 26  1  0  0  0  0
 25 50  1  0  0  0  0
 25 51  1  0  0  0  0
 26 27  1  0  0  0  0
 26 52  1  0  0  0  0
 27 53  1  0  0  0  0
 27 54  1  0  0  0  0
 27 55  1  0  0  0  0
M  CHG  1   5   1
M  END
> <s_m_source_file>
AV-unprocessed.smi

> <i_m_source_file_index>
224

> <i_lp_mmshare_version>
43012

> <i_f3d_flags>
0

> <s_epik_input>
W0NIM11bQ0BIXShbT0hdKVtDSDJdTjFbQ0gyXVtDSDJdTihbQ0gyXVtDQEhdMVtDSDNdKWMobltjSF1uMiljKGMyMyluW2NIXW4zW0NIMl1bQ0BAXTQoW09IXSlbQ0gyXVtDSDJdT1tDSDJdNA==

> <s_epik_cmdline>
J2VwaWtfcHl0aG9uJywgJy1waCcsICc3LjAnLCAnLXRuJywgJzgnLCAnLW1hJywgJzIwMCcsICctbWV0YWxfYmluZGluZycsICctaW1hZScsICc8aW5maWxlLm1hZT4nLCAnLW9tYWUnLCAnPG91dGZpbGUubWFlPic=

> <r_lp_tautomer_probability>
1

> <r_epik_Ionization_Penalty>
0.00516958

> <r_epik_Ionization_Penalty_Charging>
0.00509693

> <r_epik_Ionization_Penalty_Neutral>
7.26542e-05

> <r_epik_State_Penalty>
-0

> <r_epik_Charging_Adjusted_Penalty>
0.00509693

> <i_epik_Tot_Q>
1

> <i_epik_Tot_abs_Q>
1

> <r_epik_Metal_State_Penalty>
-0

> <b_epik_Metal_Only>
0

> <s_lp_Force_Field>
OPLS_2005

> <r_lp_Energy>
50.3284

> <b_lp_Chiralities_Consistent>
1

> <s_lp_Variant>
AV-unprocessed.smi:224-1

> <Gold.Version>
5.8.1

> <Gold.Id.Protein>
6NUR|6NUR_protein|mol2

> <Gold.PLP.Fitness>
51.4618

> <Gold.PLP.PLP>
-36.2209

> <Gold.PLP.part.hbond>
-5.4581

> <Gold.PLP.part.metal>
0.0000

> <Gold.PLP.part.buried>
0.5525

> <Gold.PLP.part.nonpolar>
-31.7477

> <Gold.PLP.part.repulsive>
0.6274

> <Gold.PLP.ligand.clash>
0.0093

> <Gold.PLP.ligand.torsion>
1.5439

> <Gold.PLP.Chemscore.Hbond>
4.9018

> <Gold.PLP.Chemscore.CHOScore>
1.0000

> <Gold.PLP.Chemscore.Metal>
0.0000

> <Gold.Chemscore.Hbonds>
donor molecule, donor type, donor heavy atom, donor atom, acceptor molecule, acceptor atom, score
      L1  H     3    32       P1  7921  1.00
      L1  H     5    56       P1 10186  0.88
      L1  H    20    43       P1  7957  1.00
      P1  H  7989  7998       L1    20  0.83
      P1  H 10752 10763       L1    23  0.70
      L1  C    16    40       P1  7957  0.96

> <Gold.PLP.Chemscore.Internal.Correction>
0.6326

> <Gold.Rescore>
     Score         DG    S(hbond)    S(metal)    S(lipo)     H(rot)  DE(clash)    DE(int)     intcor
     12.54     -19.29       3.38        0.00      94.99       3.36       1.98       4.77       ----

> <Gold.Chemscore.Fitness>
12.5399

> <Gold.Chemscore.DG>
-19.2935

> <Gold.Chemscore.ZeroCoef>
-5.4800

> <Gold.Chemscore.Hbond>
3.3844

> <Gold.Chemscore.Metal>
0.0000

> <Gold.Chemscore.Lipo>
94.9935

> <Gold.Chemscore.Internal_Hbond>
0.0000

> <Gold.Chemscore.DEClash>
1.9799

> <Gold.Chemscore.DEInternal>
4.7737

> <Gold.Chemscore.Rot>
3.3611

> <Gold.Chemscore.Internal.Correction>
   9.000000E+99

> <Gold.Chemscore.Hbonds>
donor molecule, donor type, donor heavy atom, donor atom, acceptor molecule, acceptor atom, score
      L1  H     3    32       P1  7921  0.99
      L1  H     5    56       P1 10186  0.12
      L1  H    20    43       P1  7957  0.95
      P1  H  7989  7998       L1    20  0.37
      P1  H 10752 10763       L1    23  0.56

> <Gold.Chemscore.Hbond.Weighted>
-11.3038

> <Gold.Chemscore.Metal.Weighted>
-0.0000

> <Gold.Chemscore.Lipo.Weighted>
-11.1142

> <Gold.Chemscore.Internal_Hbond.Weighted>
0.0000

> <Gold.Chemscore.DEClash.Weighted>
1.9799

> <Gold.Chemscore.DEInternal.Weighted>
4.7737

> <Gold.Chemscore.Rot.Weighted>
8.6045

> <Gold.Chemscore.Internal.Correction.Weighted>
   9.000000E+99

> <Gold.Protein.RotatedTorsions>
[ 6907 6896 6895 6894 ] final -158.53 input  -60.11 | X-H torsion
[ 7974 7965 7964 7962 ] final  -49.83 input  175.53 | X-H torsion
[ 8008 7997 7996 7995 ] final  104.73 input   59.86 | X-H torsion
[ 10167 10162 10161 10158 ] final  104.29 input  -65.29 | X-H torsion
[ 10718 10713 10712 10709 ] final  135.11 input   66.30 | X-H torsion
[ 10763 10752 10751 10750 ] final   39.71 input  -60.55 | X-H torsion
[ 11005 11000 10999 10996 ] final   -7.43 input  -57.11 | X-H torsion

> <Gold.Protein.ActiveResidues>
 VAL166  LYS551  ARG553  GLY616  TRP617  ASP618  TYR619  PRO620  LYS621  CYS622 
 ASP623  PHE694  ASN695  SER759  ASP760  ASP761  ALA762  ILE779  LEU786  VAL792 
 PHE793  MET794  SER795  GLU796  ALA797  LYS798  CYS799  TRP800  GLU811  SER814 

> <Gold.Protein.RotatedAtoms>
  151.3196  133.4045  159.2653 H   0  0  0  0  0  0  0  0  0  0  0  0  # atno 6907 bound_to 6896
  151.0045  134.9349  159.7983 H   0  0  0  0  0  0  0  0  0  0  0  0  # atno 6908 bound_to 6896
  152.5284  134.3161  159.9183 H   0  0  0  0  0  0  0  0  0  0  0  0  # atno 6909 bound_to 6896
  145.9363  140.7703  142.9574 H   0  0  0  0  0  0  0  0  0  0  0  0  # atno 7974 bound_to 7965
  156.1598  140.3142  155.8788 H   0  0  0  0  0  0  0  0  0  0  0  0  # atno 8008 bound_to 7997
  155.3804  140.0487  157.3061 H   0  0  0  0  0  0  0  0  0  0  0  0  # atno 8009 bound_to 7997
  154.5136  140.2173  155.9120 H   0  0  0  0  0  0  0  0  0  0  0  0  # atno 8010 bound_to 7997
  139.7189  144.7062  151.0904 H   0  0  0  0  0  0  0  0  0  0  0  0  # atno 10167 bound_to 10162
  157.4604  131.1073  150.9927 H   0  0  0  0  0  0  0  0  0  0  0  0  # atno 10718 bound_to 10713
  152.9958  135.6212  154.2509 H   0  0  0  0  0  0  0  0  0  0  0  0  # atno 10763 bound_to 10752
  154.2247  135.2794  155.2913 H   0  0  0  0  0  0  0  0  0  0  0  0  # atno 10764 bound_to 10752
  154.5499  135.5736  153.6971 H   0  0  0  0  0  0  0  0  0  0  0  0  # atno 10765 bound_to 10752
  140.7127  133.8895  155.8762 H   0  0  0  0  0  0  0  0  0  0  0  0  # atno 11005 bound_to 11000
  144.6772  140.2209  143.7366 LP  0  0  0  0  0  0  0  0  0  0  0  0  # atno 17320 bound_to 7965
  145.8359  139.2107  143.1856 LP  0  0  0  0  0  0  0  0  0  0  0  0  # atno 17321 bound_to 7965
  140.7749  143.5192  150.9557 LP  0  0  0  0  0  0  0  0  0  0  0  0  # atno 17342 bound_to 10162
  139.8879  143.6990  152.3149 LP  0  0  0  0  0  0  0  0  0  0  0  0  # atno 17343 bound_to 10162
  157.0726  130.5870  149.5405 LP  0  0  0  0  0  0  0  0  0  0  0  0  # atno 17370 bound_to 10713
  156.0026  130.5108  150.7717 LP  0  0  0  0  0  0  0  0  0  0  0  0  # atno 17371 bound_to 10713
  141.0071  134.1071  157.4259 LP  0  0  0  0  0  0  0  0  0  0  0  0  # atno 17394 bound_to 11000
  139.8867  135.0084  156.6518 LP  0  0  0  0  0  0  0  0  0  0  0  0  # atno 17395 bound_to 11000

$$$$
