AV-unprocessed.smi:2855|AV-procd|sdf|10989|dock9
  -GOLD-   2272015443D 1   1.00000     0.00000
 Structure written by MMmdl.
 46 47  0  0  0  0  0  0  0  0  2 V2000
  151.7045  145.1065  159.7077 C   0  0  0  0  0  0  0  0  0  0  0  0
  151.7960  143.5754  159.7741 C   0  0  2  0  0  0  0  0  0  0  0  0
  153.1018  143.1169  160.4440 C   0  0  0  0  0  0  0  0  0  0  0  0
  153.1870  141.5851  160.5167 C   0  0  0  0  0  0  0  0  0  0  0  0
  153.0613  140.9287  159.1207 C   0  0  1  0  0  0  0  0  0  0  0  0
  153.2357  139.3801  159.1547 C   0  0  0  0  0  0  0  0  0  0  0  0
  151.9343  138.6073  159.4379 C   0  0  0  0  0  0  0  0  0  0  0  0
  154.3505  138.9347  160.1170 C   0  0  0  0  0  0  0  0  0  0  0  0
  151.7539  141.4048  158.4257 C   0  0  2  0  0  0  0  0  0  0  0  0
  151.6690  140.8972  157.0567 N   0  0  0  0  0  0  0  0  0  0  0  0
  150.7029  141.1755  156.1676 C   0  0  0  0  0  0  0  0  0  0  0  0
  149.7474  141.9131  156.4135 O   0  0  0  0  0  0  0  0  0  0  0  0
  150.8437  140.4854  154.8034 C   0  0  0  0  0  0  0  0  0  0  0  0
  150.8427  139.0155  154.8826 N   0  0  0  0  0  0  0  0  0  0  0  0
  149.5952  138.3686  154.9303 C   0  0  0  0  0  0  0  0  0  0  0  0
  149.4920  137.0279  155.0008 C   0  0  0  0  0  0  0  0  0  0  0  0
  150.7193  136.2420  155.0279 C   0  0  0  0  0  0  0  0  0  0  0  0
  150.6445  135.0169  155.0994 O   0  0  0  0  0  0  0  0  0  0  0  0
  151.9056  136.9156  154.9719 N   0  5  0  0  0  0  0  0  0  0  0  0
  151.9951  138.2800  154.8962 C   0  0  0  0  0  0  0  0  0  0  0  0
  153.0761  138.8674  154.8416 O   0  0  0  0  0  0  0  0  0  0  0  0
  151.6701  142.9433  158.3772 C   0  0  0  0  0  0  0  0  0  0  0  0
  152.5139  145.5270  159.1098 H   0  0  0  0  0  0  0  0  0  0  0  0
  151.7621  145.5472  160.7034 H   0  0  0  0  0  0  0  0  0  0  0  0
  150.7613  145.4234  159.2615 H   0  0  0  0  0  0  0  0  0  0  0  0
  150.9615  143.2218  160.3815 H   0  0  0  0  0  0  0  0  0  0  0  0
  153.9592  143.5044  159.8918 H   0  0  0  0  0  0  0  0  0  0  0  0
  153.1700  143.5323  161.4502 H   0  0  0  0  0  0  0  0  0  0  0  0
  154.1314  141.3122  160.9858 H   0  0  0  0  0  0  0  0  0  0  0  0
  152.3986  141.2203  161.1753 H   0  0  0  0  0  0  0  0  0  0  0  0
  153.8858  141.3156  158.5190 H   0  0  0  0  0  0  0  0  0  0  0  0
  153.5738  139.0656  158.1674 H   0  0  0  0  0  0  0  0  0  0  0  0
  151.5546  138.8067  160.4396 H   0  0  0  0  0  0  0  0  0  0  0  0
  152.0995  137.5324  159.3624 H   0  0  0  0  0  0  0  0  0  0  0  0
  151.1497  138.8584  158.7252 H   0  0  0  0  0  0  0  0  0  0  0  0
  154.0825  139.1067  161.1593 H   0  0  0  0  0  0  0  0  0  0  0  0
  155.2819  139.4651  159.9173 H   0  0  0  0  0  0  0  0  0  0  0  0
  154.5538  137.8689  160.0078 H   0  0  0  0  0  0  0  0  0  0  0  0
  150.9019  141.0558  159.0107 H   0  0  0  0  0  0  0  0  0  0  0  0
  152.4100  140.2792  156.7598 H   0  0  0  0  0  0  0  0  0  0  0  0
  150.0466  140.8335  154.1441 H   0  0  0  0  0  0  0  0  0  0  0  0
  151.7684  140.8319  154.3397 H   0  0  0  0  0  0  0  0  0  0  0  0
  148.7370  139.0237  154.8992 H   0  0  0  0  0  0  0  0  0  0  0  0
  148.5257  136.5463  155.0334 H   0  0  0  0  0  0  0  0  0  0  0  0
  150.7231  143.2426  157.9250 H   0  0  0  0  0  0  0  0  0  0  0  0
  152.4561  143.3346  157.7292 H   0  0  0  0  0  0  0  0  0  0  0  0
  1  2  1  0  0  0  0
  1 23  1  0  0  0  0
  1 24  1  0  0  0  0
  1 25  1  0  0  0  0
  2 22  1  0  0  0  0
  2  3  1  0  0  0  0
  2 26  1  0  0  0  0
  3  4  1  0  0  0  0
  3 27  1  0  0  0  0
  3 28  1  0  0  0  0
  4  5  1  0  0  0  0
  4 29  1  0  0  0  0
  4 30  1  0  0  0  0
  5  6  1  0  0  0  0
  5  9  1  0  0  0  0
  5 31  1  0  0  0  0
  6  7  1  0  0  0  0
  6  8  1  0  0  0  0
  6 32  1  0  0  0  0
  7 33  1  0  0  0  0
  7 34  1  0  0  0  0
  7 35  1  0  0  0  0
  8 36  1  0  0  0  0
  8 37  1  0  0  0  0
  8 38  1  0  0  0  0
  9 10  1  0  0  0  0
  9 22  1  0  0  0  0
  9 39  1  0  0  0  0
 10 11  1  0  0  0  0
 10 40  1  0  0  0  0
 11 12  2  0  0  0  0
 11 13  1  0  0  0  0
 13 14  1  0  0  0  0
 13 41  1  0  0  0  0
 13 42  1  0  0  0  0
 14 20  1  0  0  0  0
 14 15  1  0  0  0  0
 15 16  2  0  0  0  0
 15 43  1  0  0  0  0
 16 17  1  0  0  0  0
 16 44  1  0  0  0  0
 17 18  2  0  0  0  0
 17 19  1  0  0  0  0
 19 20  1  0  0  0  0
 20 21  2  0  0  0  0
 22 45  1  0  0  0  0
 22 46  1  0  0  0  0
M  CHG  1  19  -1
M  END
> <s_m_source_file>
AV-unprocessed.smi

> <i_m_source_file_index>
2855

> <i_lp_mmshare_version>
43012

> <i_f3d_flags>
0

> <s_epik_input>
W0NIM11bQ0BASF0xW0NIMl1bQ0gyXVtDQEBIXShbQ0hdKFtDSDNdKVtDSDNdKVtDQEhdKFtDSDJdMSlbTkhdQyg9TylbQ0gyXW4yW2NIXVtjSF1jKD1PKVtuSF1jMj1P

> <s_epik_cmdline>
J2VwaWtfcHl0aG9uJywgJy1waCcsICc3LjAnLCAnLXRuJywgJzgnLCAnLW1hJywgJzIwMCcsICctbWV0YWxfYmluZGluZycsICctaW1hZScsICc8aW5maWxlLm1hZT4nLCAnLW9tYWUnLCAnPG91dGZpbGUubWFlPic=

> <r_lp_tautomer_probability>
0.999537

> <r_epik_Ionization_Penalty>
3.12102

> <r_epik_Ionization_Penalty_Charging>
2.9581e-08

> <r_epik_Ionization_Penalty_Neutral>
3.12102

> <r_epik_State_Penalty>
3.12011

> <r_epik_Charging_Adjusted_Penalty>
3.12011

> <i_epik_Tot_Q>
-1

> <i_epik_Tot_abs_Q>
1

> <r_epik_Metal_State_Penalty>
0.463583

> <b_epik_Metal_Only>
1

> <s_lp_Force_Field>
OPLS_2005

> <r_lp_Energy>
24.0282

> <b_lp_Chiralities_Consistent>
1

> <s_lp_Variant>
AV-unprocessed.smi:2855-13

> <Gold.Version>
5.8.1

> <Gold.Id.Protein>
6NUR|6NUR_protein|mol2

> <Gold.PLP.Fitness>
45.6291

> <Gold.PLP.PLP>
-39.1048

> <Gold.PLP.part.hbond>
-1.8343

> <Gold.PLP.part.metal>
0.0000

> <Gold.PLP.part.buried>
-2.9305

> <Gold.PLP.part.nonpolar>
-35.7072

> <Gold.PLP.part.repulsive>
1.0871

> <Gold.PLP.ligand.clash>
0.0000

> <Gold.PLP.ligand.torsion>
0.7431

> <Gold.PLP.Chemscore.Hbond>
2.6500

> <Gold.PLP.Chemscore.CHOScore>
0.0000

> <Gold.PLP.Chemscore.Metal>
0.0000

> <Gold.Chemscore.Hbonds>
donor molecule, donor type, donor heavy atom, donor atom, acceptor molecule, acceptor atom, score
      P1  H  7997  8009       L1    21  0.65
      P1  H 10752 10765       L1    19  2.00

> <Gold.PLP.Chemscore.Internal.Correction>
0.0605

> <Gold.Rescore>
     Score         DG    S(hbond)    S(metal)    S(lipo)     H(rot)  DE(clash)    DE(int)     intcor
     13.89     -15.71       0.90        0.00     101.34       1.81       0.05       1.76       ----

> <Gold.Chemscore.Fitness>
13.8944

> <Gold.Chemscore.DG>
-15.7097

> <Gold.Chemscore.ZeroCoef>
-5.4800

> <Gold.Chemscore.Hbond>
0.9002

> <Gold.Chemscore.Metal>
0.0000

> <Gold.Chemscore.Lipo>
101.3368

> <Gold.Chemscore.Internal_Hbond>
0.0000

> <Gold.Chemscore.DEClash>
0.0506

> <Gold.Chemscore.DEInternal>
1.7646

> <Gold.Chemscore.Rot>
1.8100

> <Gold.Chemscore.Internal.Correction>
   9.000000E+99

> <Gold.Chemscore.Hbonds>
donor molecule, donor type, donor heavy atom, donor atom, acceptor molecule, acceptor atom, score
      P1  H  7997  8009       L1    21  0.64
      P1  H 10752 10765       L1    19  0.25

> <Gold.Chemscore.Hbond.Weighted>
-3.0068

> <Gold.Chemscore.Metal.Weighted>
-0.0000

> <Gold.Chemscore.Lipo.Weighted>
-11.8564

> <Gold.Chemscore.Internal_Hbond.Weighted>
0.0000

> <Gold.Chemscore.DEClash.Weighted>
0.0506

> <Gold.Chemscore.DEInternal.Weighted>
1.7646

> <Gold.Chemscore.Rot.Weighted>
4.6335

> <Gold.Chemscore.Internal.Correction.Weighted>
   9.000000E+99

> <Gold.Protein.RotatedTorsions>
[ 6907 6896 6895 6894 ] final  -39.23 input  -60.11 | X-H torsion
[ 7974 7965 7964 7962 ] final -167.63 input  175.53 | X-H torsion
[ 8008 7997 7996 7995 ] final -134.90 input   59.86 | X-H torsion
[ 10167 10162 10161 10158 ] final  -37.85 input  -65.29 | X-H torsion
[ 10718 10713 10712 10709 ] final -176.47 input   66.30 | X-H torsion
[ 10763 10752 10751 10750 ] final -176.73 input  -60.55 | X-H torsion
[ 11005 11000 10999 10996 ] final -105.69 input  -57.11 | X-H torsion

> <Gold.Protein.ActiveResidues>
 VAL166  LYS551  ARG553  GLY616  TRP617  ASP618  TYR619  PRO620  LYS621  CYS622 
 ASP623  PHE694  ASN695  SER759  ASP760  ASP761  ALA762  ILE779  LEU786  VAL792 
 PHE793  MET794  SER795  GLU796  ALA797  LYS798  CYS799  TRP800  GLU811  SER814 

> <Gold.Protein.RotatedAtoms>
  150.9928  134.9259  159.7909 H   0  0  0  0  0  0  0  0  0  0  0  0  # atno 6907 bound_to 6896
  152.5256  134.3258  159.9175 H   0  0  0  0  0  0  0  0  0  0  0  0  # atno 6908 bound_to 6896
  151.3264  133.3977  159.2693 H   0  0  0  0  0  0  0  0  0  0  0  0  # atno 6909 bound_to 6896
  144.7219  140.2490  143.6281 H   0  0  0  0  0  0  0  0  0  0  0  0  # atno 7974 bound_to 7965
  155.3697  140.0487  157.3045 H   0  0  0  0  0  0  0  0  0  0  0  0  # atno 8008 bound_to 7997
  154.5136  140.2200  155.9071 H   0  0  0  0  0  0  0  0  0  0  0  0  # atno 8009 bound_to 7997
  156.1611  140.3116  155.8814 H   0  0  0  0  0  0  0  0  0  0  0  0  # atno 8010 bound_to 7997
  140.7108  143.3315  151.2558 H   0  0  0  0  0  0  0  0  0  0  0  0  # atno 10167 bound_to 10162
  156.8152  130.9600  151.3114 H   0  0  0  0  0  0  0  0  0  0  0  0  # atno 10718 bound_to 10713
  154.5688  135.2826  155.0848 H   0  0  0  0  0  0  0  0  0  0  0  0  # atno 10763 bound_to 10752
  154.2228  135.6388  153.5154 H   0  0  0  0  0  0  0  0  0  0  0  0  # atno 10764 bound_to 10752
  153.0051  135.5518  154.6305 H   0  0  0  0  0  0  0  0  0  0  0  0  # atno 10765 bound_to 10752
  141.1041  133.8829  157.1765 H   0  0  0  0  0  0  0  0  0  0  0  0  # atno 11005 bound_to 11000
  145.8246  139.2059  143.1918 LP  0  0  0  0  0  0  0  0  0  0  0  0  # atno 17320 bound_to 7965
  146.0484  140.8094  142.9794 LP  0  0  0  0  0  0  0  0  0  0  0  0  # atno 17321 bound_to 7965
  139.6798  143.9873  152.2802 LP  0  0  0  0  0  0  0  0  0  0  0  0  # atno 17342 bound_to 10162
  139.9500  144.6627  150.8181 LP  0  0  0  0  0  0  0  0  0  0  0  0  # atno 17343 bound_to 10162
  157.6485  130.8865  149.9586 LP  0  0  0  0  0  0  0  0  0  0  0  0  # atno 17370 bound_to 10713
  156.1021  130.3655  150.0199 LP  0  0  0  0  0  0  0  0  0  0  0  0  # atno 17371 bound_to 10713
  139.9904  135.0067  156.9961 LP  0  0  0  0  0  0  0  0  0  0  0  0  # atno 17394 bound_to 11000
  140.4947  134.1157  155.7239 LP  0  0  0  0  0  0  0  0  0  0  0  0  # atno 17395 bound_to 11000

$$$$
