AV-unprocessed.smi:3267|AV-procd|sdf|12504|dock4
  -GOLD-   2272018413D 1   1.00000     0.00000
 Structure written by MMmdl.
 38 39  0  0  0  0  0  0  0  0  1 V2000
  148.0685  140.4697  153.3607 C   0  0  0  0  0  0  0  0  0  0  0  0
  148.2624  139.1672  154.1498 C   0  0  2  0  0  0  0  0  0  0  0  0
  149.7440  138.9408  154.5374 C   0  0  0  0  0  0  0  0  0  0  0  0
  150.1685  139.8213  155.6092 N   0  0  0  0  0  0  0  0  0  0  0  0
  150.6864  139.4847  156.8419 C   0  0  0  0  0  0  0  0  0  0  0  0
  150.9310  140.6496  157.5110 C   0  0  0  0  0  0  0  0  0  0  0  0
  150.5229  141.6581  156.5937 C   0  0  0  0  0  0  0  0  0  0  0  0
  150.0652  141.1591  155.4567 N   0  0  0  0  0  0  0  0  0  0  0  0
  147.7559  138.0492  153.3575 N   0  0  0  0  0  0  0  0  0  0  0  0
  146.4855  137.8950  152.9584 C   0  0  0  0  0  0  0  0  0  0  0  0
  145.5810  138.6927  153.2059 O   0  0  0  0  0  0  0  0  0  0  0  0
  146.3186  136.7635  152.2605 N   0  0  0  0  0  0  0  0  0  0  0  0
  145.0572  136.3197  151.6785 C   0  0  0  0  0  0  0  0  0  0  0  0
  145.2553  135.0886  150.7794 C   0  0  2  0  0  0  0  0  0  0  0  0
  143.9570  134.3532  150.4534 C   0  0  0  0  0  0  0  0  0  0  0  0
  144.4625  132.9621  150.1480 C   0  0  0  0  0  0  0  0  0  0  0  0
  145.5776  132.8034  151.1771 C   0  0  0  0  0  0  0  0  0  0  0  0
  146.0715  134.1167  151.4297 O   0  0  0  0  0  0  0  0  0  0  0  0
  148.4012  141.3300  153.9424 H   0  0  0  0  0  0  0  0  0  0  0  0
  147.0180  140.6274  153.1132 H   0  0  0  0  0  0  0  0  0  0  0  0
  148.6339  140.4593  152.4281 H   0  0  0  0  0  0  0  0  0  0  0  0
  147.6529  139.2500  155.0524 H   0  0  0  0  0  0  0  0  0  0  0  0
  149.9214  137.9116  154.8536 H   0  0  0  0  0  0  0  0  0  0  0  0
  150.4018  139.1025  153.6818 H   0  0  0  0  0  0  0  0  0  0  0  0
  150.8332  138.4561  157.1368 H   0  0  0  0  0  0  0  0  0  0  0  0
  151.3381  140.7640  158.5046 H   0  0  0  0  0  0  0  0  0  0  0  0
  150.5451  142.7303  156.7193 H   0  0  0  0  0  0  0  0  0  0  0  0
  148.4240  137.3386  153.0971 H   0  0  0  0  0  0  0  0  0  0  0  0
  147.1229  136.1730  152.1069 H   0  0  0  0  0  0  0  0  0  0  0  0
  144.3656  136.0858  152.4884 H   0  0  0  0  0  0  0  0  0  0  0  0
  144.6029  137.1330  151.1099 H   0  0  0  0  0  0  0  0  0  0  0  0
  145.7447  135.3698  149.8454 H   0  0  0  0  0  0  0  0  0  0  0  0
  143.2985  134.3274  151.3228 H   0  0  0  0  0  0  0  0  0  0  0  0
  143.4115  134.8023  149.6232 H   0  0  0  0  0  0  0  0  0  0  0  0
  143.6915  132.1956  150.2319 H   0  0  0  0  0  0  0  0  0  0  0  0
  144.8740  132.9267  149.1384 H   0  0  0  0  0  0  0  0  0  0  0  0
  145.1816  132.3986  152.1089 H   0  0  0  0  0  0  0  0  0  0  0  0
  146.3698  132.1398  150.8300 H   0  0  0  0  0  0  0  0  0  0  0  0
  1  2  1  0  0  0  0
  1 19  1  0  0  0  0
  1 20  1  0  0  0  0
  1 21  1  0  0  0  0
  2  3  1  0  0  0  0
  2  9  1  0  0  0  0
  2 22  1  0  0  0  0
  3  4  1  0  0  0  0
  3 23  1  0  0  0  0
  3 24  1  0  0  0  0
  4  8  1  0  0  0  0
  4  5  1  0  0  0  0
  5  6  2  0  0  0  0
  5 25  1  0  0  0  0
  6  7  1  0  0  0  0
  6 26  1  0  0  0  0
  7  8  2  0  0  0  0
  7 27  1  0  0  0  0
  9 10  1  0  0  0  0
  9 28  1  0  0  0  0
 10 11  2  0  0  0  0
 10 12  1  0  0  0  0
 12 13  1  0  0  0  0
 12 29  1  0  0  0  0
 13 14  1  0  0  0  0
 13 30  1  0  0  0  0
 13 31  1  0  0  0  0
 14 18  1  0  0  0  0
 14 15  1  0  0  0  0
 14 32  1  0  0  0  0
 15 16  1  0  0  0  0
 15 33  1  0  0  0  0
 15 34  1  0  0  0  0
 16 17  1  0  0  0  0
 16 35  1  0  0  0  0
 16 36  1  0  0  0  0
 17 18  1  0  0  0  0
 17 37  1  0  0  0  0
 17 38  1  0  0  0  0
M  END
> <s_m_source_file>
AV-unprocessed.smi

> <i_m_source_file_index>
3267

> <i_lp_mmshare_version>
43012

> <i_f3d_flags>
0

> <s_epik_input>
bjFbY0hdW2NIXVtjSF1uMVtDSDJdW0NAQEhdKFtDSDNdKVtOSF1DKD1PKVtOSF1bQ0gyXVtDQEBIXTJbQ0gyXVtDSDJdW0NIMl1PMg==

> <s_epik_cmdline>
J2VwaWtfcHl0aG9uJywgJy1waCcsICc3LjAnLCAnLXRuJywgJzgnLCAnLW1hJywgJzIwMCcsICctbWV0YWxfYmluZGluZycsICctaW1hZScsICc8aW5maWxlLm1hZT4nLCAnLW9tYWUnLCAnPG91dGZpbGUubWFlPic=

> <r_lp_tautomer_probability>
1

> <r_epik_Ionization_Penalty>
6.24796e-05

> <r_epik_Ionization_Penalty_Charging>
0

> <r_epik_Ionization_Penalty_Neutral>
6.24796e-05

> <r_epik_State_Penalty>
-0

> <r_epik_Charging_Adjusted_Penalty>
0

> <i_epik_Tot_Q>
0

> <i_epik_Tot_abs_Q>
0

> <r_epik_Metal_State_Penalty>
-0

> <b_epik_Metal_Only>
0

> <s_lp_Force_Field>
OPLS_2005

> <r_lp_Energy>
17.87

> <b_lp_Chiralities_Consistent>
1

> <s_lp_Variant>
AV-unprocessed.smi:3267-1

> <Gold.Version>
5.8.1

> <Gold.Id.Protein>
6NUR|6NUR_protein|mol2

> <Gold.PLP.Fitness>
39.5062

> <Gold.PLP.PLP>
-31.0148

> <Gold.PLP.part.hbond>
-2.7538

> <Gold.PLP.part.metal>
0.0000

> <Gold.PLP.part.buried>
-1.3173

> <Gold.PLP.part.nonpolar>
-27.0573

> <Gold.PLP.part.repulsive>
0.5710

> <Gold.PLP.ligand.clash>
0.0000

> <Gold.PLP.ligand.torsion>
0.2665

> <Gold.PLP.Chemscore.Hbond>
2.0000

> <Gold.PLP.Chemscore.CHOScore>
1.0000

> <Gold.PLP.Chemscore.Metal>
0.0000

> <Gold.Chemscore.Hbonds>
donor molecule, donor type, donor heavy atom, donor atom, acceptor molecule, acceptor atom, score
      L1  H     9    28       P1  7948  0.93
      L1  H    12    29       P1  7948  0.86
      L1  C     7    27       P1  8028  0.34

> <Gold.PLP.Chemscore.Internal.Correction>
0.0245

> <Gold.Rescore>
     Score         DG    S(hbond)    S(metal)    S(lipo)     H(rot)  DE(clash)    DE(int)     intcor
     14.93     -15.39       1.92        0.00      70.79       1.87       0.14       0.32       ----

> <Gold.Chemscore.Fitness>
14.9313

> <Gold.Chemscore.DG>
-15.3924

> <Gold.Chemscore.ZeroCoef>
-5.4800

> <Gold.Chemscore.Hbond>
1.9230

> <Gold.Chemscore.Metal>
0.0000

> <Gold.Chemscore.Lipo>
70.7934

> <Gold.Chemscore.Internal_Hbond>
0.0000

> <Gold.Chemscore.DEClash>
0.1437

> <Gold.Chemscore.DEInternal>
0.3174

> <Gold.Chemscore.Rot>
1.8724

> <Gold.Chemscore.Internal.Correction>
   9.000000E+99

> <Gold.Chemscore.Hbonds>
donor molecule, donor type, donor heavy atom, donor atom, acceptor molecule, acceptor atom, score
      L1  H     9    28       P1  7948  0.90
      L1  H    12    29       P1  7948  0.85

> <Gold.Chemscore.Hbond.Weighted>
-6.4228

> <Gold.Chemscore.Metal.Weighted>
-0.0000

> <Gold.Chemscore.Lipo.Weighted>
-8.2828

> <Gold.Chemscore.Internal_Hbond.Weighted>
0.0000

> <Gold.Chemscore.DEClash.Weighted>
0.1437

> <Gold.Chemscore.DEInternal.Weighted>
0.3174

> <Gold.Chemscore.Rot.Weighted>
4.7933

> <Gold.Chemscore.Internal.Correction.Weighted>
   9.000000E+99

> <Gold.Protein.RotatedTorsions>
[ 6907 6896 6895 6894 ] final   29.08 input  -60.11 | X-H torsion
[ 7974 7965 7964 7962 ] final -168.21 input  175.53 | X-H torsion
[ 8008 7997 7996 7995 ] final -152.94 input   59.86 | X-H torsion
[ 10167 10162 10161 10158 ] final  161.71 input  -65.29 | X-H torsion
[ 10718 10713 10712 10709 ] final  121.00 input   66.30 | X-H torsion
[ 10763 10752 10751 10750 ] final  175.73 input  -60.55 | X-H torsion
[ 11005 11000 10999 10996 ] final   32.08 input  -57.11 | X-H torsion

> <Gold.Protein.ActiveResidues>
 VAL166  LYS551  ARG553  GLY616  TRP617  ASP618  TYR619  PRO620  LYS621  CYS622 
 ASP623  PHE694  ASN695  SER759  ASP760  ASP761  ALA762  ILE779  LEU786  VAL792 
 PHE793  MET794  SER795  GLU796  ALA797  LYS798  CYS799  TRP800  GLU811  SER814 

> <Gold.Protein.RotatedAtoms>
  152.0263  134.9793  160.0571 H   0  0  0  0  0  0  0  0  0  0  0  0  # atno 6907 bound_to 6896
  152.1288  133.4391  159.4719 H   0  0  0  0  0  0  0  0  0  0  0  0  # atno 6908 bound_to 6896
  150.6854  134.2364  159.4498 H   0  0  0  0  0  0  0  0  0  0  0  0  # atno 6909 bound_to 6896
  144.7207  140.2404  143.6292 H   0  0  0  0  0  0  0  0  0  0  0  0  # atno 7974 bound_to 7965
  155.6630  140.0724  157.2547 H   0  0  0  0  0  0  0  0  0  0  0  0  # atno 8008 bound_to 7997
  154.4138  140.1713  156.1847 H   0  0  0  0  0  0  0  0  0  0  0  0  # atno 8009 bound_to 7997
  155.9681  140.3364  155.6554 H   0  0  0  0  0  0  0  0  0  0  0  0  # atno 8010 bound_to 7997
  139.4852  144.4509  151.8831 H   0  0  0  0  0  0  0  0  0  0  0  0  # atno 10167 bound_to 10162
  157.5850  131.1071  150.8113 H   0  0  0  0  0  0  0  0  0  0  0  0  # atno 10718 bound_to 10713
  154.4715  135.2771  155.1639 H   0  0  0  0  0  0  0  0  0  0  0  0  # atno 10763 bound_to 10752
  154.3386  135.6175  153.5589 H   0  0  0  0  0  0  0  0  0  0  0  0  # atno 10764 bound_to 10752
  152.9865  135.5783  154.5097 H   0  0  0  0  0  0  0  0  0  0  0  0  # atno 10765 bound_to 10752
  140.2772  134.3014  155.7811 H   0  0  0  0  0  0  0  0  0  0  0  0  # atno 11005 bound_to 11000
  145.8325  139.2092  143.1875 LP  0  0  0  0  0  0  0  0  0  0  0  0  # atno 17320 bound_to 7965
  146.0419  140.8157  142.9825 LP  0  0  0  0  0  0  0  0  0  0  0  0  # atno 17321 bound_to 7965
  140.3966  144.2547  150.5896 LP  0  0  0  0  0  0  0  0  0  0  0  0  # atno 17342 bound_to 10162
  140.5096  143.2294  151.8555 LP  0  0  0  0  0  0  0  0  0  0  0  0  # atno 17343 bound_to 10162
  156.8549  130.5093  149.5308 LP  0  0  0  0  0  0  0  0  0  0  0  0  # atno 17370 bound_to 10713
  156.0898  130.5887  150.9713 LP  0  0  0  0  0  0  0  0  0  0  0  0  # atno 17371 bound_to 10713
  141.2168  133.7503  156.9425 LP  0  0  0  0  0  0  0  0  0  0  0  0  # atno 17394 bound_to 11000
  140.1317  134.9351  157.2346 LP  0  0  0  0  0  0  0  0  0  0  0  0  # atno 17395 bound_to 11000

$$$$
