AV-unprocessed.smi:3303|AV-procd|sdf|12674|dock2
  -GOLD-   2272019 13D 1   1.00000     0.00000
 Structure written by MMmdl.
 44 45  0  0  0  0  0  0  0  0  2 V2000
  151.2668  137.9490  154.7584 C   0  0  0  0  0  0  0  0  0  0  0  0
  150.5709  139.2988  154.5161 C   0  0  1  0  0  0  0  0  0  0  0  0
  149.0622  139.1319  154.2452 C   0  0  0  0  0  0  0  0  0  0  0  0
  148.4710  140.4224  153.8901 N   0  0  0  0  0  0  0  0  0  0  0  0
  147.1012  140.2485  153.4228 C   0  0  0  0  0  0  0  0  0  0  0  0
  148.5902  141.4344  154.9511 C   0  0  1  0  0  0  0  0  0  0  0  0
  147.6969  141.1731  156.1862 C   0  0  0  0  0  0  0  0  0  0  0  0
  150.0834  141.6364  155.3030 C   0  0  0  0  0  0  0  0  0  0  0  0
  150.8312  140.3259  155.6386 C   0  0  1  0  0  0  0  0  0  0  0  0
  150.4611  139.7824  156.9672 N   0  3  0  0  0  0  0  0  0  0  0  0
  150.5018  140.7478  158.0845 C   0  0  0  0  0  0  0  0  0  0  0  0
  151.8198  141.5332  158.0811 C   0  0  0  0  0  0  0  0  0  0  0  0
  151.7038  142.8467  158.8308 C   0  0  0  0  0  0  0  0  0  0  0  0
  152.3659  143.0367  160.0624 C   0  0  0  0  0  0  0  0  0  0  0  0
  152.2314  144.2799  160.7106 C   0  0  0  0  0  0  0  0  0  0  0  0
  151.4457  145.2792  160.1048 C   0  0  0  0  0  0  0  0  0  0  0  0
  150.8262  144.9903  158.8727 C   0  0  0  0  0  0  0  0  0  0  0  0
  150.9494  143.8020  158.2424 N   0  0  0  0  0  0  0  0  0  0  0  0
  150.8484  137.4258  155.6186 H   0  0  0  0  0  0  0  0  0  0  0  0
  152.3348  138.0824  154.9331 H   0  0  0  0  0  0  0  0  0  0  0  0
  151.1557  137.2946  153.8933 H   0  0  0  0  0  0  0  0  0  0  0  0
  151.0124  139.7075  153.6050 H   0  0  0  0  0  0  0  0  0  0  0  0
  148.9248  138.4401  153.4128 H   0  0  0  0  0  0  0  0  0  0  0  0
  148.5530  138.6925  155.1032 H   0  0  0  0  0  0  0  0  0  0  0  0
  146.6619  141.2091  153.1515 H   0  0  0  0  0  0  0  0  0  0  0  0
  146.4714  139.7807  154.1801 H   0  0  0  0  0  0  0  0  0  0  0  0
  147.0824  139.6147  152.5357 H   0  0  0  0  0  0  0  0  0  0  0  0
  148.2453  142.3750  154.5195 H   0  0  0  0  0  0  0  0  0  0  0  0
  147.8944  141.9101  156.9653 H   0  0  0  0  0  0  0  0  0  0  0  0
  147.8496  140.1879  156.6233 H   0  0  0  0  0  0  0  0  0  0  0  0
  146.6390  141.2590  155.9385 H   0  0  0  0  0  0  0  0  0  0  0  0
  150.5714  142.0864  154.4370 H   0  0  0  0  0  0  0  0  0  0  0  0
  150.1902  142.3738  156.0978 H   0  0  0  0  0  0  0  0  0  0  0  0
  151.9023  140.5323  155.6618 H   0  0  0  0  0  0  0  0  0  0  0  0
  149.5351  139.3838  156.9062 H   0  0  0  0  0  0  0  0  0  0  0  0
  149.6604  141.4367  157.9992 H   0  0  0  0  0  0  0  0  0  0  0  0
  150.3942  140.2205  159.0320 H   0  0  0  0  0  0  0  0  0  0  0  0
  152.6124  140.9368  158.5359 H   0  0  0  0  0  0  0  0  0  0  0  0
  152.1349  141.7316  157.0556 H   0  0  0  0  0  0  0  0  0  0  0  0
  152.9644  142.2520  160.5016 H   0  0  0  0  0  0  0  0  0  0  0  0
  152.7229  144.4644  161.6544 H   0  0  0  0  0  0  0  0  0  0  0  0
  151.3206  146.2444  160.5731 H   0  0  0  0  0  0  0  0  0  0  0  0
  150.2172  145.7337  158.3796 H   0  0  0  0  0  0  0  0  0  0  0  0
  151.1139  139.0429  157.1843 H   0  0  0  0  0  0  0  0  0  0  0  0
  1  2  1  0  0  0  0
  1 19  1  0  0  0  0
  1 20  1  0  0  0  0
  1 21  1  0  0  0  0
  2  9  1  0  0  0  0
  2  3  1  0  0  0  0
  2 22  1  0  0  0  0
  3  4  1  0  0  0  0
  3 23  1  0  0  0  0
  3 24  1  0  0  0  0
  4  5  1  0  0  0  0
  4  6  1  0  0  0  0
  5 25  1  0  0  0  0
  5 26  1  0  0  0  0
  5 27  1  0  0  0  0
  6  7  1  0  0  0  0
  6  8  1  0  0  0  0
  6 28  1  0  0  0  0
  7 29  1  0  0  0  0
  7 30  1  0  0  0  0
  7 31  1  0  0  0  0
  8  9  1  0  0  0  0
  8 32  1  0  0  0  0
  8 33  1  0  0  0  0
  9 10  1  0  0  0  0
  9 34  1  0  0  0  0
 10 11  1  0  0  0  0
 10 35  1  0  0  0  0
 10 44  1  0  0  0  0
 11 12  1  0  0  0  0
 11 36  1  0  0  0  0
 11 37  1  0  0  0  0
 12 13  1  0  0  0  0
 12 38  1  0  0  0  0
 12 39  1  0  0  0  0
 13 18  1  0  0  0  0
 13 14  2  0  0  0  0
 14 15  1  0  0  0  0
 14 40  1  0  0  0  0
 15 16  2  0  0  0  0
 15 41  1  0  0  0  0
 16 17  1  0  0  0  0
 16 42  1  0  0  0  0
 17 18  2  0  0  0  0
 17 43  1  0  0  0  0
M  CHG  1  10   1
M  END
> <s_m_source_file>
AV-unprocessed.smi

> <i_m_source_file_index>
3303

> <i_lp_mmshare_version>
43012

> <i_f3d_flags>
0

> <s_epik_input>
W0NIM11bQ0BASF0xW0NIMl1OKFtDSDNdKVtDQEBIXShbQ0gzXSlbQ0gyXVtDQEhdMVtOSF1bQ0gyXVtDSDJdYzJbY0hdW2NIXVtjSF1bY0hdbjI=

> <s_epik_cmdline>
J2VwaWtfcHl0aG9uJywgJy1waCcsICc3LjAnLCAnLXRuJywgJzgnLCAnLW1hJywgJzIwMCcsICctbWV0YWxfYmluZGluZycsICctaW1hZScsICc8aW5maWxlLm1hZT4nLCAnLW9tYWUnLCAnPG91dGZpbGUubWFlPic=

> <r_epik_Ionization_Penalty>
1.37325

> <r_epik_Ionization_Penalty_Charging>
0.000251572

> <r_epik_Ionization_Penalty_Neutral>
1.373

> <r_epik_State_Penalty>
1.46343

> <r_epik_Charging_Adjusted_Penalty>
1.46368

> <i_epik_Tot_Q>
1

> <i_epik_Tot_abs_Q>
1

> <r_epik_Metal_State_Penalty>
1.46331

> <b_epik_Metal_Only>
0

> <s_lp_Force_Field>
OPLS_2005

> <r_lp_Energy>
24.8067

> <b_lp_Chiralities_Consistent>
1

> <s_lp_Variant>
AV-unprocessed.smi:3303-18

> <Gold.Version>
5.8.1

> <Gold.Id.Protein>
6NUR|6NUR_protein|mol2

> <Gold.PLP.Fitness>
41.3413

> <Gold.PLP.PLP>
-38.8669

> <Gold.PLP.part.hbond>
0.0000

> <Gold.PLP.part.metal>
0.0000

> <Gold.PLP.part.buried>
-4.6011

> <Gold.PLP.part.nonpolar>
-34.8462

> <Gold.PLP.part.repulsive>
1.2577

> <Gold.PLP.ligand.clash>
0.0000

> <Gold.PLP.ligand.torsion>
0.2790

> <Gold.PLP.Chemscore.Hbond>
0.0000

> <Gold.PLP.Chemscore.CHOScore>
1.0000

> <Gold.PLP.Chemscore.Metal>
0.0000

> <Gold.Chemscore.Hbonds>
donor molecule, donor type, donor heavy atom, donor atom, acceptor molecule, acceptor atom, score
      L1  C    17    43       P1  8029  0.94

> <Gold.PLP.Chemscore.Internal.Correction>
0.0324

> <Gold.Rescore>
     Score         DG    S(hbond)    S(metal)    S(lipo)     H(rot)  DE(clash)    DE(int)     intcor
     15.78     -16.24       0.00        0.00     121.10       1.33       0.25       0.21       ----

> <Gold.Chemscore.Fitness>
15.7802

> <Gold.Chemscore.DG>
-16.2439

> <Gold.Chemscore.ZeroCoef>
-5.4800

> <Gold.Chemscore.Hbond>
0.0000

> <Gold.Chemscore.Metal>
0.0000

> <Gold.Chemscore.Lipo>
121.0954

> <Gold.Chemscore.Internal_Hbond>
0.0000

> <Gold.Chemscore.DEClash>
0.2534

> <Gold.Chemscore.DEInternal>
0.2103

> <Gold.Chemscore.Rot>
1.3298

> <Gold.Chemscore.Internal.Correction>
   9.000000E+99

> <Gold.Chemscore.Hbond.Weighted>
-0.0000

> <Gold.Chemscore.Metal.Weighted>
-0.0000

> <Gold.Chemscore.Lipo.Weighted>
-14.1682

> <Gold.Chemscore.Internal_Hbond.Weighted>
0.0000

> <Gold.Chemscore.DEClash.Weighted>
0.2534

> <Gold.Chemscore.DEInternal.Weighted>
0.2103

> <Gold.Chemscore.Rot.Weighted>
3.4043

> <Gold.Chemscore.Internal.Correction.Weighted>
   9.000000E+99

> <Gold.Protein.RotatedTorsions>
[ 6907 6896 6895 6894 ] final -100.15 input  -60.11 | X-H torsion
[ 7974 7965 7964 7962 ] final  -49.78 input  175.53 | X-H torsion
[ 8008 7997 7996 7995 ] final  100.83 input   59.86 | X-H torsion
[ 10167 10162 10161 10158 ] final   52.56 input  -65.29 | X-H torsion
[ 10718 10713 10712 10709 ] final  111.21 input   66.30 | X-H torsion
[ 10763 10752 10751 10750 ] final  -65.34 input  -60.55 | X-H torsion
[ 11005 11000 10999 10996 ] final  179.15 input  -57.11 | X-H torsion

> <Gold.Protein.ActiveResidues>
 VAL166  LYS551  ARG553  GLY616  TRP617  ASP618  TYR619  PRO620  LYS621  CYS622 
 ASP623  PHE694  ASN695  SER759  ASP760  ASP761  ALA762  ILE779  LEU786  VAL792 
 PHE793  MET794  SER795  GLU796  ALA797  LYS798  CYS799  TRP800  GLU811  SER814 

> <Gold.Protein.RotatedAtoms>
  150.7105  134.0932  159.3938 H   0  0  0  0  0  0  0  0  0  0  0  0  # atno 6907 bound_to 6896
  151.8917  135.0411  160.0507 H   0  0  0  0  0  0  0  0  0  0  0  0  # atno 6908 bound_to 6896
  152.2486  133.5160  159.5348 H   0  0  0  0  0  0  0  0  0  0  0  0  # atno 6909 bound_to 6896
  145.9369  140.7698  142.9571 H   0  0  0  0  0  0  0  0  0  0  0  0  # atno 7974 bound_to 7965
  156.1241  140.3207  155.8251 H   0  0  0  0  0  0  0  0  0  0  0  0  # atno 8008 bound_to 7997
  155.4452  140.0528  157.3024 H   0  0  0  0  0  0  0  0  0  0  0  0  # atno 8009 bound_to 7997
  154.4849  140.2068  155.9692 H   0  0  0  0  0  0  0  0  0  0  0  0  # atno 8010 bound_to 7997
  140.2501  144.3489  150.6351 H   0  0  0  0  0  0  0  0  0  0  0  0  # atno 10167 bound_to 10162
  157.6456  131.0946  150.6715 H   0  0  0  0  0  0  0  0  0  0  0  0  # atno 10718 bound_to 10713
  154.3435  135.6151  153.5608 H   0  0  0  0  0  0  0  0  0  0  0  0  # atno 10763 bound_to 10752
  152.9802  135.5775  154.4825 H   0  0  0  0  0  0  0  0  0  0  0  0  # atno 10764 bound_to 10752
  154.4533  135.2853  155.1742 H   0  0  0  0  0  0  0  0  0  0  0  0  # atno 10765 bound_to 10752
  140.4030  134.6760  157.4572 H   0  0  0  0  0  0  0  0  0  0  0  0  # atno 11005 bound_to 11000
  144.6773  140.2217  143.7365 LP  0  0  0  0  0  0  0  0  0  0  0  0  # atno 17320 bound_to 7965
  145.8352  139.2104  143.1860 LP  0  0  0  0  0  0  0  0  0  0  0  0  # atno 17321 bound_to 7965
  140.6047  143.2167  151.7003 LP  0  0  0  0  0  0  0  0  0  0  0  0  # atno 17342 bound_to 10162
  139.5049  144.3737  152.0445 LP  0  0  0  0  0  0  0  0  0  0  0  0  # atno 17343 bound_to 10162
  156.7032  130.4629  149.5567 LP  0  0  0  0  0  0  0  0  0  0  0  0  # atno 17370 bound_to 10713
  156.1780  130.6481  151.0918 LP  0  0  0  0  0  0  0  0  0  0  0  0  # atno 17371 bound_to 10713
  140.0322  134.6389  155.9091 LP  0  0  0  0  0  0  0  0  0  0  0  0  # atno 17394 bound_to 11000
  141.1850  133.6554  156.5178 LP  0  0  0  0  0  0  0  0  0  0  0  0  # atno 17395 bound_to 11000

$$$$
