#       Name:                AV-unprocessed.smi:2340
#       Creating user name   scv26
#       Creation time:       Fri Mar 27 12:56:47 2020


#       File generated by GOLD software.
#

@<TRIPOS>MOLECULE
AV-unprocessed.smi:2340
    45    46     1
SMALL
NO_CHARGES


@<TRIPOS>ATOM
      1 ****        -2.3086   0.6390  -4.2900 C.3            1 S1                 0.0000
      2 ****        -2.3842   0.4803  -2.8043 C.2            1 S1                 0.0000
      3 ****        -2.7018  -0.6606  -2.1105 C.2            1 S1                 0.0000
      4 ****        -2.6686  -0.4036  -0.3881 S.3            1 S1                 0.0000
      5 ****        -2.2192   1.2741  -0.6775 C.2            1 S1                 0.0000
      6 ****        -1.9535   2.2524   0.4267 C.3            1 S1                 0.0000
      7 ****        -2.9405   3.4282   0.4106 C.3            1 S1                 0.0000
      8 ****        -0.4772   2.7050   0.4964 C.3            1 S1                 0.0000
      9 ****         0.4633   1.5913   0.4093 N.am           1 S1                 0.0000
     10 ****         0.6966   0.7031   1.3842 C.2            1 S1                 0.0000
     11 ****         0.1866   0.7551   2.5036 O.2            1 S1                 0.0000
     12 ****         1.5303  -0.2648   0.9825 N.am           1 S1                 0.0000
     13 ****         1.9322  -1.4123   1.7938 C.3            1 S1                 0.0000
     14 ****         0.8377  -2.4815   1.8319 C.3            1 S1                 0.0000
     15 ****         1.5589  -3.7696   1.4478 C.3            1 S1                 0.0000
     16 ****         2.6090  -3.3207   0.6098 O.3            1 S1                 0.0000
     17 ****         3.1545  -2.1579   1.2150 C.3            1 S1                 0.0000
     18 ****         4.0324  -1.3951   0.2096 C.3            1 S1                 0.0000
     19 ****        -2.1108   1.5720  -1.9760 N.2            1 S1                 0.0000
     20 ****        -2.5905  -0.2801  -4.8043 H              1 S1                 0.0000
     21 ****        -1.2979   0.8972  -4.6065 H              1 S1                 0.0000
     22 ****        -2.9764   1.4282  -4.6361 H              1 S1                 0.0000
     23 ****        -2.9513  -1.6339  -2.5064 H              1 S1                 0.0000
     24 ****        -2.1541   1.7136   1.3536 H              1 S1                 0.0000
     25 ****        -3.9710   3.0763   0.4660 H              1 S1                 0.0000
     26 ****        -2.8383   4.0187  -0.5003 H              1 S1                 0.0000
     27 ****        -2.7721   4.0929   1.2581 H              1 S1                 0.0000
     28 ****        -0.2618   3.3701  -0.3404 H              1 S1                 0.0000
     29 ****        -0.2935   3.2824   1.4038 H              1 S1                 0.0000
     30 ****         0.9309   1.4602  -0.4758 H              1 S1                 0.0000
     31 ****         1.8950  -0.2226   0.0421 H              1 S1                 0.0000
     32 ****         2.1728  -1.0709   2.8022 H              1 S1                 0.0000
     33 ****         0.3563  -2.5542   2.8075 H              1 S1                 0.0000
     34 ****         0.0593  -2.2720   1.0960 H              1 S1                 0.0000
     35 ****         1.9785  -4.2586   2.3283 H              1 S1                 0.0000
     36 ****         0.9094  -4.4801   0.9361 H              1 S1                 0.0000
     37 ****         3.7822  -2.4880   2.0448 H              1 S1                 0.0000
     38 ****         4.4286  -0.4797   0.6495 H              1 S1                 0.0000
     39 ****         3.4765  -1.1275  -0.6894 H              1 S1                 0.0000
     40 ****         4.8798  -2.0061  -0.1017 H              1 S1                 0.0000
     41 ****        -0.4463   1.4952   2.7307 LP             1 S1                 0.0000
     42 ****         0.4053   0.0572   3.1856 LP             1 S1                 0.0000
     43 ****         2.2533  -3.1005  -0.2986 LP             1 S1                 0.0000
     44 ****         3.3113  -4.0282   0.5302 LP             1 S1                 0.0000
     45 ****        -1.8611   2.4780  -2.3178 LP             1 S1                 0.0000
@<TRIPOS>BOND
    1    1    2 1     
    2    1   20 1     
    3    1   21 1     
    4    1   22 1     
    5    2   19 1     
    6    2    3 2     
    7    3    4 1     
    8    3   23 1     
    9    4    5 1     
   10    5    6 1     
   11    5   19 2     
   12    6    7 1     
   13    6    8 1     
   14    6   24 1     
   15    7   25 1     
   16    7   26 1     
   17    7   27 1     
   18    8    9 1     
   19    8   28 1     
   20    8   29 1     
   21    9   10 am    
   22    9   30 1     
   23   10   11 2     
   24   10   12 am    
   25   12   13 1     
   26   12   31 1     
   27   13   17 1     
   28   13   14 1     
   29   13   32 1     
   30   14   15 1     
   31   14   33 1     
   32   14   34 1     
   33   15   16 1     
   34   15   35 1     
   35   15   36 1     
   36   16   17 1     
   37   17   18 1     
   38   17   37 1     
   39   18   38 1     
   40   18   39 1     
   41   18   40 1     
   42   11   41 1     
   43   11   42 1     
   44   16   43 1     
   45   16   44 1     
   46   19   45 1     
@<TRIPOS>SUBSTRUCTURE
      1 S1             1
@<TRIPOS>SET
LONE_PAIRS      STATIC     ATOMS    <user>   **** ""
5 41 42 43 44 45
DONOR_HYDROGENS      STATIC     ATOMS    <user>   **** ""
2 30 31
ATOM$BLUE        STATIC     ATOMS    COLORGROUP SYSTEM
5 41 42 43 44 45
ATOM$RED        STATIC     ATOMS    COLORGROUP SYSTEM
2 30 31
