AV-unprocessed.smi:2287|AV-procd|sdf|9205|dock6
  -GOLD-   2272012423D 1   1.00000     0.00000
 Structure written by MMmdl.
 38 39  0  0  0  0  0  0  0  0  2 V2000
  144.8971  136.9614  152.2066 C   0  0  0  0  0  0  0  0  0  0  0  0
  145.3864  138.2831  152.6618 N   0  3  0  0  0  0  0  0  0  0  0  0
  145.5535  138.3224  154.1315 C   0  0  0  0  0  0  0  0  0  0  0  0
  146.6075  138.7373  151.9495 C   0  0  0  0  0  0  0  0  0  0  0  0
  147.1824  140.0379  152.5340 C   0  0  0  0  0  0  0  0  0  0  0  0
  148.3711  139.7603  153.3297 N   0  0  0  0  0  0  0  0  0  0  0  0
  148.8655  140.5874  154.2604 C   0  0  0  0  0  0  0  0  0  0  0  0
  148.3679  141.6816  154.5230 O   0  0  0  0  0  0  0  0  0  0  0  0
  149.9631  140.0708  154.8385 N   0  0  0  0  0  0  0  0  0  0  0  0
  150.7315  140.5980  155.9116 C   0  0  0  0  0  0  0  0  0  0  0  0
  150.5319  141.8630  156.5189 C   0  0  0  0  0  0  0  0  0  0  0  0
  151.2901  142.2799  157.5560 N   0  0  0  0  0  0  0  0  0  0  0  0
  152.2455  141.4496  157.9823 C   0  0  0  0  0  0  0  0  0  0  0  0
  153.0466  141.8976  159.1655 C   0  0  0  0  0  0  0  0  0  0  0  0
  152.3899  142.1022  160.5155 C   0  0  0  0  0  0  0  0  0  0  0  0
  152.8789  143.2912  159.7360 C   0  0  0  0  0  0  0  0  0  0  0  0
  152.5139  140.2325  157.5015 N   0  0  0  0  0  0  0  0  0  0  0  0
  151.7600  139.8068  156.4655 C   0  0  0  0  0  0  0  0  0  0  0  0
  145.6442  136.1859  152.3812 H   0  0  0  0  0  0  0  0  0  0  0  0
  144.6521  136.9682  151.1451 H   0  0  0  0  0  0  0  0  0  0  0  0
  143.9896  136.6838  152.7438 H   0  0  0  0  0  0  0  0  0  0  0  0
  146.3430  137.6419  154.4531 H   0  0  0  0  0  0  0  0  0  0  0  0
  144.6291  138.0352  154.6338 H   0  0  0  0  0  0  0  0  0  0  0  0
  145.8100  139.3281  154.4660 H   0  0  0  0  0  0  0  0  0  0  0  0
  147.3723  137.9630  152.0307 H   0  0  0  0  0  0  0  0  0  0  0  0
  146.3941  138.8511  150.8852 H   0  0  0  0  0  0  0  0  0  0  0  0
  147.4572  140.7374  151.7442 H   0  0  0  0  0  0  0  0  0  0  0  0
  146.4301  140.5284  153.1544 H   0  0  0  0  0  0  0  0  0  0  0  0
  148.8430  138.8825  153.1681 H   0  0  0  0  0  0  0  0  0  0  0  0
  150.2969  139.1968  154.4591 H   0  0  0  0  0  0  0  0  0  0  0  0
  149.7584  142.5473  156.2087 H   0  0  0  0  0  0  0  0  0  0  0  0
  154.0485  141.4732  159.1473 H   0  0  0  0  0  0  0  0  0  0  0  0
  151.3135  141.9576  160.5849 H   0  0  0  0  0  0  0  0  0  0  0  0
  152.9572  141.8099  161.3968 H   0  0  0  0  0  0  0  0  0  0  0  0
  153.7733  143.7956  160.0955 H   0  0  0  0  0  0  0  0  0  0  0  0
  152.1274  143.9380  159.2869 H   0  0  0  0  0  0  0  0  0  0  0  0
  151.9788  138.8222  156.0784 H   0  0  0  0  0  0  0  0  0  0  0  0
  144.6619  138.9536  152.4466 H   0  0  0  0  0  0  0  0  0  0  0  0
  1  2  1  0  0  0  0
  1 19  1  0  0  0  0
  1 20  1  0  0  0  0
  1 21  1  0  0  0  0
  2  3  1  0  0  0  0
  2  4  1  0  0  0  0
  2 38  1  0  0  0  0
  3 22  1  0  0  0  0
  3 23  1  0  0  0  0
  3 24  1  0  0  0  0
  4  5  1  0  0  0  0
  4 25  1  0  0  0  0
  4 26  1  0  0  0  0
  5  6  1  0  0  0  0
  5 27  1  0  0  0  0
  5 28  1  0  0  0  0
  6  7  1  0  0  0  0
  6 29  1  0  0  0  0
  7  8  2  0  0  0  0
  7  9  1  0  0  0  0
  9 10  1  0  0  0  0
  9 30  1  0  0  0  0
 10 18  1  0  0  0  0
 10 11  2  0  0  0  0
 11 12  1  0  0  0  0
 11 31  1  0  0  0  0
 12 13  2  0  0  0  0
 13 14  1  0  0  0  0
 13 17  1  0  0  0  0
 14 16  1  0  0  0  0
 14 15  1  0  0  0  0
 14 32  1  0  0  0  0
 15 16  1  0  0  0  0
 15 33  1  0  0  0  0
 15 34  1  0  0  0  0
 16 35  1  0  0  0  0
 16 36  1  0  0  0  0
 17 18  2  0  0  0  0
 18 37  1  0  0  0  0
M  CHG  1   2   1
M  END
> <s_m_source_file>
AV-unprocessed.smi

> <i_m_source_file_index>
2287

> <i_lp_mmshare_version>
43012

> <i_f3d_flags>
0

> <s_epik_input>
W0NIM11OKFtDSDNdKVtDSDJdW0NIMl1bTkhdQyg9TylbTkhdYzFbY0hdbmMobltjSF0xKVtDSF0yW0NIMl1bQ0gyXTI=

> <s_epik_cmdline>
J2VwaWtfcHl0aG9uJywgJy1waCcsICc3LjAnLCAnLXRuJywgJzgnLCAnLW1hJywgJzIwMCcsICctbWV0YWxfYmluZGluZycsICctaW1hZScsICc8aW5maWxlLm1hZT4nLCAnLW9tYWUnLCAnPG91dGZpbGUubWFlPic=

> <r_lp_tautomer_probability>
1

> <r_epik_Ionization_Penalty>
0.00435795

> <r_epik_Ionization_Penalty_Charging>
0.00433655

> <r_epik_Ionization_Penalty_Neutral>
2.14019e-05

> <r_epik_State_Penalty>
0.00312208

> <r_epik_Charging_Adjusted_Penalty>
0.00745864

> <i_epik_Tot_Q>
1

> <i_epik_Tot_abs_Q>
1

> <r_epik_Metal_State_Penalty>
-0

> <b_epik_Metal_Only>
0

> <s_lp_Force_Field>
OPLS_2005

> <r_lp_Energy>
7.96618

> <b_lp_Chiralities_Consistent>
1

> <s_lp_Variant>
AV-unprocessed.smi:2287-1

> <Gold.Version>
5.8.1

> <Gold.Id.Protein>
6NUR|6NUR_protein|mol2

> <Gold.PLP.Fitness>
44.4868

> <Gold.PLP.PLP>
-33.5328

> <Gold.PLP.part.hbond>
-3.0000

> <Gold.PLP.part.metal>
0.0000

> <Gold.PLP.part.buried>
-3.0496

> <Gold.PLP.part.nonpolar>
-28.0975

> <Gold.PLP.part.repulsive>
0.4166

> <Gold.PLP.ligand.clash>
0.0000

> <Gold.PLP.ligand.torsion>
0.5821

> <Gold.PLP.Chemscore.Hbond>
2.9920

> <Gold.PLP.Chemscore.CHOScore>
1.0000

> <Gold.PLP.Chemscore.Metal>
0.0000

> <Gold.Chemscore.Hbonds>
donor molecule, donor type, donor heavy atom, donor atom, acceptor molecule, acceptor atom, score
      L1  H     2    38       P1 10175  2.00
      P1  H  7997  8009       L1    17  0.96
      L1  C    11    31       P1  8028  1.00

> <Gold.PLP.Chemscore.Internal.Correction>
0.1422

> <Gold.Rescore>
     Score         DG    S(hbond)    S(metal)    S(lipo)     H(rot)  DE(clash)    DE(int)     intcor
     12.81     -14.96       1.51        0.00      75.81       1.73       0.35       1.81       ----

> <Gold.Chemscore.Fitness>
12.8057

> <Gold.Chemscore.DG>
-14.9598

> <Gold.Chemscore.ZeroCoef>
-5.4800

> <Gold.Chemscore.Hbond>
1.5055

> <Gold.Chemscore.Metal>
0.0000

> <Gold.Chemscore.Lipo>
75.8138

> <Gold.Chemscore.Internal_Hbond>
0.0000

> <Gold.Chemscore.DEClash>
0.3488

> <Gold.Chemscore.DEInternal>
1.8054

> <Gold.Chemscore.Rot>
1.7260

> <Gold.Chemscore.Internal.Correction>
   9.000000E+99

> <Gold.Chemscore.Hbonds>
donor molecule, donor type, donor heavy atom, donor atom, acceptor molecule, acceptor atom, score
      L1  H     2    38       P1 10175  1.00
      P1  H  7997  8009       L1    17  0.22

> <Gold.Chemscore.Hbond.Weighted>
-5.0282

> <Gold.Chemscore.Metal.Weighted>
-0.0000

> <Gold.Chemscore.Lipo.Weighted>
-8.8702

> <Gold.Chemscore.Internal_Hbond.Weighted>
0.0000

> <Gold.Chemscore.DEClash.Weighted>
0.3488

> <Gold.Chemscore.DEInternal.Weighted>
1.8054

> <Gold.Chemscore.Rot.Weighted>
4.4186

> <Gold.Chemscore.Internal.Correction.Weighted>
   9.000000E+99

> <Gold.Protein.RotatedTorsions>
[ 6907 6896 6895 6894 ] final  121.89 input  -60.11 | X-H torsion
[ 7974 7965 7964 7962 ] final   70.85 input  175.53 | X-H torsion
[ 8008 7997 7996 7995 ] final  177.74 input   59.86 | X-H torsion
[ 10167 10162 10161 10158 ] final   32.19 input  -65.29 | X-H torsion
[ 10718 10713 10712 10709 ] final  -65.40 input   66.30 | X-H torsion
[ 10763 10752 10751 10750 ] final  -68.07 input  -60.55 | X-H torsion
[ 11005 11000 10999 10996 ] final  -77.47 input  -57.11 | X-H torsion

> <Gold.Protein.ActiveResidues>
 VAL166  LYS551  ARG553  GLY616  TRP617  ASP618  TYR619  PRO620  LYS621  CYS622 
 ASP623  PHE694  ASN695  SER759  ASP760  ASP761  ALA762  ILE779  LEU786  VAL792 
 PHE793  MET794  SER795  GLU796  ALA797  LYS798  CYS799  TRP800  GLU811  SER814 

> <Gold.Protein.RotatedAtoms>
  152.4286  133.7239  159.6548 H   0  0  0  0  0  0  0  0  0  0  0  0  # atno 6907 bound_to 6896
  150.8164  133.8319  159.3164 H   0  0  0  0  0  0  0  0  0  0  0  0  # atno 6908 bound_to 6896
  151.6014  135.1049  160.0112 H   0  0  0  0  0  0  0  0  0  0  0  0  # atno 6909 bound_to 6896
  145.7730  139.2852  143.1310 H   0  0  0  0  0  0  0  0  0  0  0  0  # atno 7974 bound_to 7965
  156.0624  140.1351  156.9926 H   0  0  0  0  0  0  0  0  0  0  0  0  # atno 8008 bound_to 7997
  154.4488  140.0989  156.6607 H   0  0  0  0  0  0  0  0  0  0  0  0  # atno 8009 bound_to 7997
  155.5357  140.3459  155.4438 H   0  0  0  0  0  0  0  0  0  0  0  0  # atno 8010 bound_to 7997
  140.4521  144.1032  150.6194 H   0  0  0  0  0  0  0  0  0  0  0  0  # atno 10167 bound_to 10162
  156.0672  130.4247  150.1559 H   0  0  0  0  0  0  0  0  0  0  0  0  # atno 10718 bound_to 10713
  154.3836  135.6068  153.5804 H   0  0  0  0  0  0  0  0  0  0  0  0  # atno 10763 bound_to 10752
  152.9788  135.5867  154.4381 H   0  0  0  0  0  0  0  0  0  0  0  0  # atno 10764 bound_to 10752
  154.4154  135.2845  155.1988 H   0  0  0  0  0  0  0  0  0  0  0  0  # atno 10765 bound_to 10752
  141.1660  133.7024  156.7825 H   0  0  0  0  0  0  0  0  0  0  0  0  # atno 11005 bound_to 11000
  146.0150  140.8400  142.9952 LP  0  0  0  0  0  0  0  0  0  0  0  0  # atno 17320 bound_to 7965
  144.6809  140.2545  143.7327 LP  0  0  0  0  0  0  0  0  0  0  0  0  # atno 17321 bound_to 7965
  140.4194  143.2618  151.9734 LP  0  0  0  0  0  0  0  0  0  0  0  0  # atno 17342 bound_to 10162
  139.4797  144.5844  151.7878 LP  0  0  0  0  0  0  0  0  0  0  0  0  # atno 17343 bound_to 10162
  156.9617  130.9807  151.3478 LP  0  0  0  0  0  0  0  0  0  0  0  0  # atno 17370 bound_to 10713
  157.5720  130.8317  149.8405 LP  0  0  0  0  0  0  0  0  0  0  0  0  # atno 17371 bound_to 10713
  140.2384  134.8632  157.3548 LP  0  0  0  0  0  0  0  0  0  0  0  0  # atno 17394 bound_to 11000
  140.1821  134.4477  155.7766 LP  0  0  0  0  0  0  0  0  0  0  0  0  # atno 17395 bound_to 11000

$$$$
