AV-unprocessed.smi:69|AV-procd|sdf|650|dock2
  -GOLD-   2262016543D 1   1.00000     0.00000
 Structure written by MMmdl.
 32 34  0  0  0  0  0  0  0  0  1 V2000
  149.9888  129.0520  153.8382 N   0  0  0  0  0  0  0  0  0  0  0  0
  148.8366  129.1232  153.1579 C   0  0  0  0  0  0  0  0  0  0  0  0
  148.3716  128.0013  152.5591 N   0  0  0  0  0  0  0  0  0  0  0  0
  147.2252  128.0475  151.8714 C   0  0  0  0  0  0  0  0  0  0  0  0
  146.4132  129.0890  151.6674 N   0  0  0  0  0  0  0  0  0  0  0  0
  146.8854  130.2164  152.2753 C   0  0  0  0  0  0  0  0  0  0  0  0
  148.0833  130.3180  153.0340 C   0  0  0  0  0  0  0  0  0  0  0  0
  148.2427  131.6195  153.4930 N   0  0  0  0  0  0  0  0  0  0  0  0
  147.1954  132.2478  153.0279 C   0  0  0  0  0  0  0  0  0  0  0  0
  146.3272  131.4746  152.2865 N   0  0  0  0  0  0  0  0  0  0  0  0
  145.0556  131.8747  151.6124 C   0  0  1  0  0  0  0  0  0  0  0  0
  144.8272  133.2234  151.8536 O   0  0  0  0  0  0  0  0  0  0  0  0
  144.0005  133.7356  150.8152 C   0  0  1  0  0  0  0  0  0  0  0  0
  144.3718  135.2037  150.5402 C   0  0  0  0  0  0  0  0  0  0  0  0
  144.0209  135.5983  149.2298 O   0  0  0  0  0  0  0  0  0  0  0  0
  144.1216  132.7674  149.6174 C   0  0  2  0  0  0  0  0  0  0  0  0
  142.8669  132.1595  149.3751 O   0  0  0  0  0  0  0  0  0  0  0  0
  145.1205  131.7152  150.0879 C   0  0  1  0  0  0  0  0  0  0  0  0
  146.4098  131.9663  149.5579 O   0  0  0  0  0  0  0  0  0  0  0  0
  144.2690  131.2766  152.0762 H   0  0  0  0  0  0  0  0  0  0  0  0
  142.9817  133.7152  151.2068 H   0  0  0  0  0  0  0  0  0  0  0  0
  144.4428  133.2573  148.6972 H   0  0  0  0  0  0  0  0  0  0  0  0
  144.8347  130.6987  149.8128 H   0  0  0  0  0  0  0  0  0  0  0  0
  150.3560  129.8765  154.2917 H   0  0  0  0  0  0  0  0  0  0  0  0
  150.4882  128.1763  153.8946 H   0  0  0  0  0  0  0  0  0  0  0  0
  146.9142  127.1175  151.4190 H   0  0  0  0  0  0  0  0  0  0  0  0
  147.0292  133.3001  153.2090 H   0  0  0  0  0  0  0  0  0  0  0  0
  143.8424  135.8531  151.2376 H   0  0  0  0  0  0  0  0  0  0  0  0
  145.4382  135.3669  150.6982 H   0  0  0  0  0  0  0  0  0  0  0  0
  144.6277  135.2023  148.6231 H   0  0  0  0  0  0  0  0  0  0  0  0
  142.1955  132.8216  149.4398 H   0  0  0  0  0  0  0  0  0  0  0  0
  147.0067  131.3264  149.9150 H   0  0  0  0  0  0  0  0  0  0  0  0
  1  2  1  0  0  0  0
  1 24  1  0  0  0  0
  1 25  1  0  0  0  0
  2  7  1  0  0  0  0
  2  3  2  0  0  0  0
  3  4  1  0  0  0  0
  4  5  2  0  0  0  0
  4 26  1  0  0  0  0
  5  6  1  0  0  0  0
  6 10  1  0  0  0  0
  6  7  2  0  0  0  0
  7  8  1  0  0  0  0
  8  9  2  0  0  0  0
  9 10  1  0  0  0  0
  9 27  1  0  0  0  0
 10 11  1  0  0  0  0
 11 20  1  0  0  0  0
 11 18  1  0  0  0  0
 11 12  1  0  0  0  0
 12 13  1  0  0  0  0
 13 21  1  0  0  0  0
 13 14  1  0  0  0  0
 13 16  1  0  0  0  0
 14 15  1  0  0  0  0
 14 28  1  0  0  0  0
 14 29  1  0  0  0  0
 15 30  1  0  0  0  0
 16 22  1  0  0  0  0
 16 17  1  0  0  0  0
 16 18  1  0  0  0  0
 17 31  1  0  0  0  0
 18 23  1  0  0  0  0
 18 19  1  0  0  0  0
 19 32  1  0  0  0  0
M  END
> <s_m_source_file>
AV-unprocessed.smi

> <i_m_source_file_index>
69

> <i_lp_mmshare_version>
43012

> <i_f3d_flags>
0

> <s_epik_input>
bjFbY0hdbmMoW05IMl0pYyhjMTIpbltjSF1uMltDQEBIXTNPW0NASF0oW0NIMl1bT0hdKVtDQEBIXShbT0hdKVtDQEhdM1tPSF0=

> <s_epik_cmdline>
J2VwaWtfcHl0aG9uJywgJy1waCcsICc3LjAnLCAnLXRuJywgJzgnLCAnLW1hJywgJzIwMCcsICctbWV0YWxfYmluZGluZycsICctaW1hZScsICc8aW5maWxlLm1hZT4nLCAnLW9tYWUnLCAnPG91dGZpbGUubWFlPic=

> <r_lp_tautomer_probability>
1

> <r_epik_Ionization_Penalty>
0.000428445

> <r_epik_Ionization_Penalty_Charging>
0

> <r_epik_Ionization_Penalty_Neutral>
0.000428445

> <r_epik_State_Penalty>
-0

> <r_epik_Charging_Adjusted_Penalty>
0

> <i_epik_Tot_Q>
0

> <i_epik_Tot_abs_Q>
0

> <r_epik_Metal_State_Penalty>
-0

> <b_epik_Metal_Only>
0

> <s_epik_Chemistry_Notes>
This compound contains an acetal/aminal-like group ( X-CH(R)-Y where X, Y are N, S, or O) that may be acid/base labile, releasing an aldehyde.

> <s_lp_Force_Field>
OPLS_2005

> <r_lp_Energy>
41.0304

> <b_lp_Chiralities_Consistent>
1

> <s_lp_Variant>
AV-unprocessed.smi:69-8

> <Gold.Version>
5.8.1

> <Gold.Id.Protein>
6NUR|6NUR_protein|mol2

> <Gold.PLP.Fitness>
44.0172

> <Gold.PLP.PLP>
-34.0604

> <Gold.PLP.part.hbond>
-5.6925

> <Gold.PLP.part.metal>
0.0000

> <Gold.PLP.part.buried>
-6.1655

> <Gold.PLP.part.nonpolar>
-22.7680

> <Gold.PLP.part.repulsive>
0.4193

> <Gold.PLP.ligand.clash>
0.0000

> <Gold.PLP.ligand.torsion>
0.2858

> <Gold.PLP.Chemscore.Hbond>
3.5068

> <Gold.PLP.Chemscore.CHOScore>
0.0000

> <Gold.PLP.Chemscore.Metal>
0.0000

> <Gold.Chemscore.Hbonds>
donor molecule, donor type, donor heavy atom, donor atom, acceptor molecule, acceptor atom, score
      L1  H    15    30       P1  7921  1.00
      L1  H    17    31       P1 10186  1.00
      L1  H    19    32       P1 10747  0.89
      P1  H 10785 10796       L1    17  0.73

> <Gold.PLP.Chemscore.Internal.Correction>
0.0082

> <Gold.Rescore>
     Score         DG    S(hbond)    S(metal)    S(lipo)     H(rot)  DE(clash)    DE(int)     intcor
     10.21     -10.52       3.19        0.00      40.22       4.03       0.22       0.08       ----

> <Gold.Chemscore.Fitness>
10.2123

> <Gold.Chemscore.DG>
-10.5169

> <Gold.Chemscore.ZeroCoef>
-5.4800

> <Gold.Chemscore.Hbond>
3.1863

> <Gold.Chemscore.Metal>
0.0000

> <Gold.Chemscore.Lipo>
40.2183

> <Gold.Chemscore.Internal_Hbond>
0.0000

> <Gold.Chemscore.DEClash>
0.2226

> <Gold.Chemscore.DEInternal>
0.0820

> <Gold.Chemscore.Rot>
4.0277

> <Gold.Chemscore.Internal.Correction>
   9.000000E+99

> <Gold.Chemscore.Hbonds>
donor molecule, donor type, donor heavy atom, donor atom, acceptor molecule, acceptor atom, score
      L1  H    15    30       P1  7921  1.00
      L1  H    17    31       P1 10186  0.97
      L1  H    19    32       P1 10747  0.80
      P1  H 10785 10796       L1    17  0.51

> <Gold.Chemscore.Hbond.Weighted>
-10.6424

> <Gold.Chemscore.Metal.Weighted>
-0.0000

> <Gold.Chemscore.Lipo.Weighted>
-4.7055

> <Gold.Chemscore.Internal_Hbond.Weighted>
0.0000

> <Gold.Chemscore.DEClash.Weighted>
0.2226

> <Gold.Chemscore.DEInternal.Weighted>
0.0820

> <Gold.Chemscore.Rot.Weighted>
10.3110

> <Gold.Chemscore.Internal.Correction.Weighted>
   9.000000E+99

> <Gold.Protein.RotatedTorsions>
[ 6907 6896 6895 6894 ] final  131.05 input  -60.11 | X-H torsion
[ 7974 7965 7964 7962 ] final   22.25 input  175.53 | X-H torsion
[ 8008 7997 7996 7995 ] final  -30.64 input   59.86 | X-H torsion
[ 10167 10162 10161 10158 ] final  126.24 input  -65.29 | X-H torsion
[ 10718 10713 10712 10709 ] final  137.67 input   66.30 | X-H torsion
[ 10763 10752 10751 10750 ] final  -25.36 input  -60.55 | X-H torsion
[ 11005 11000 10999 10996 ] final -178.40 input  -57.11 | X-H torsion

> <Gold.Protein.ActiveResidues>
 VAL166  LYS551  ARG553  GLY616  TRP617  ASP618  TYR619  PRO620  LYS621  CYS622 
 ASP623  PHE694  ASN695  SER759  ASP760  ASP761  ALA762  ILE779  LEU786  VAL792 
 PHE793  MET794  SER795  GLU796  ALA797  LYS798  CYS799  TRP800  GLU811  SER814 

> <Gold.Protein.RotatedAtoms>
  152.3465  133.6129  159.5913 H   0  0  0  0  0  0  0  0  0  0  0  0  # atno 6907 bound_to 6896
  150.7511  133.9641  159.3533 H   0  0  0  0  0  0  0  0  0  0  0  0  # atno 6908 bound_to 6896
  151.7498  135.0836  160.0380 H   0  0  0  0  0  0  0  0  0  0  0  0  # atno 6909 bound_to 6896
  146.2037  139.7911  142.8742 H   0  0  0  0  0  0  0  0  0  0  0  0  # atno 7974 bound_to 7965
  154.4243  140.1786  156.1438 H   0  0  0  0  0  0  0  0  0  0  0  0  # atno 8008 bound_to 7997
  155.9970  140.3363  155.6783 H   0  0  0  0  0  0  0  0  0  0  0  0  # atno 8009 bound_to 7997
  155.6295  140.0668  157.2644 H   0  0  0  0  0  0  0  0  0  0  0  0  # atno 8010 bound_to 7997
  139.5642  144.6901  151.3957 H   0  0  0  0  0  0  0  0  0  0  0  0  # atno 10167 bound_to 10162
  157.4336  131.1051  151.0223 H   0  0  0  0  0  0  0  0  0  0  0  0  # atno 10718 bound_to 10713
  153.6986  135.6957  153.5069 H   0  0  0  0  0  0  0  0  0  0  0  0  # atno 10763 bound_to 10752
  153.2360  135.4322  155.0645 H   0  0  0  0  0  0  0  0  0  0  0  0  # atno 10764 bound_to 10752
  154.8351  135.3496  154.6525 H   0  0  0  0  0  0  0  0  0  0  0  0  # atno 10765 bound_to 10752
  140.4302  134.6526  157.4708 H   0  0  0  0  0  0  0  0  0  0  0  0  # atno 11005 bound_to 11000
  145.3396  141.0285  143.3400 LP  0  0  0  0  0  0  0  0  0  0  0  0  # atno 17320 bound_to 7965
  144.8741  139.4996  143.6754 LP  0  0  0  0  0  0  0  0  0  0  0  0  # atno 17321 bound_to 7965
  140.6924  143.7830  150.7275 LP  0  0  0  0  0  0  0  0  0  0  0  0  # atno 17342 bound_to 10162
  140.1316  143.4521  152.2251 LP  0  0  0  0  0  0  0  0  0  0  0  0  # atno 17343 bound_to 10162
  157.1111  130.6022  149.5482 LP  0  0  0  0  0  0  0  0  0  0  0  0  # atno 17370 bound_to 10713
  155.9922  130.4979  150.7330 LP  0  0  0  0  0  0  0  0  0  0  0  0  # atno 17371 bound_to 10713
  140.0139  134.6648  155.9338 LP  0  0  0  0  0  0  0  0  0  0  0  0  # atno 17394 bound_to 11000
  141.1748  133.6539  156.4789 LP  0  0  0  0  0  0  0  0  0  0  0  0  # atno 17395 bound_to 11000

$$$$
