AV-unprocessed.smi:1701|AV-procd|sdf|6825|dock2
  -GOLD-   22720 8 03D 1   1.00000     0.00000
 Structure written by MMmdl.
 55 57  0  0  0  0  0  0  0  0  3 V2000
  151.0000  144.9741  158.8004 C   0  0  0  0  0  0  0  0  0  0  0  0
  152.4431  144.4546  158.8408 C   0  0  0  0  0  0  0  0  0  0  0  0
  152.5119  143.0491  159.2326 N   0  0  0  0  0  0  0  0  0  0  0  0
  153.1456  142.6981  160.5027 C   0  0  0  0  0  0  0  0  0  0  0  0
  152.5011  143.4226  161.6916 C   0  0  0  0  0  0  0  0  0  0  0  0
  151.9370  142.0464  158.4172 C   0  0  0  0  0  0  0  0  0  0  0  0
  151.1290  142.3282  157.2877 C   0  0  0  0  0  0  0  0  0  0  0  0
  150.5913  141.2710  156.5260 C   0  0  0  0  0  0  0  0  0  0  0  0
  150.8667  139.9355  156.8849 C   0  0  0  0  0  0  0  0  0  0  0  0
  150.2944  138.9059  156.0909 N   0  0  0  0  0  0  0  0  0  0  0  0
  150.0730  137.6165  156.4144 C   0  0  0  0  0  0  0  0  0  0  0  0
  150.3280  137.1152  157.5065 O   0  0  0  0  0  0  0  0  0  0  0  0
  149.5714  136.8732  155.4108 N   0  0  0  0  0  0  0  0  0  0  0  0
  149.2163  135.4506  155.4148 C   0  0  2  0  0  0  0  0  0  0  0  0
  150.2158  134.5861  154.6222 C   0  0  0  0  0  0  0  0  0  0  0  0
  149.3459  133.5610  153.8881 C   0  0  0  0  0  0  0  0  0  0  0  0
  148.1220  134.3176  153.6017 N   0  3  1  0  0  0  0  0  0  0  0  0
  146.9374  133.5862  153.1085 C   0  0  0  0  0  0  0  0  0  0  0  0
  145.8625  134.6176  152.7029 C   0  0  0  0  0  0  0  0  0  0  0  0
  145.5676  135.6322  153.8315 C   0  0  0  0  0  0  0  0  0  0  0  0
  146.8610  136.2619  154.3925 C   0  0  0  0  0  0  0  0  0  0  0  0
  147.8329  135.1364  154.7919 C   0  0  2  0  0  0  0  0  0  0  0  0
  151.6694  139.7026  158.0262 C   0  0  0  0  0  0  0  0  0  0  0  0
  152.1626  140.7459  158.7271 N   0  3  0  0  0  0  0  0  0  0  0  0
  150.9748  146.0193  158.4921 H   0  0  0  0  0  0  0  0  0  0  0  0
  150.5231  144.9058  159.7784 H   0  0  0  0  0  0  0  0  0  0  0  0
  150.3949  144.4062  158.0932 H   0  0  0  0  0  0  0  0  0  0  0  0
  152.8839  144.5591  157.8489 H   0  0  0  0  0  0  0  0  0  0  0  0
  153.0584  145.0709  159.4958 H   0  0  0  0  0  0  0  0  0  0  0  0
  153.1290  141.6193  160.6592 H   0  0  0  0  0  0  0  0  0  0  0  0
  154.2004  142.9692  160.4500 H   0  0  0  0  0  0  0  0  0  0  0  0
  152.9991  143.1535  162.6232 H   0  0  0  0  0  0  0  0  0  0  0  0
  151.4472  143.1618  161.7927 H   0  0  0  0  0  0  0  0  0  0  0  0
  152.5692  144.5050  161.5806 H   0  0  0  0  0  0  0  0  0  0  0  0
  150.9156  143.3413  156.9831 H   0  0  0  0  0  0  0  0  0  0  0  0
  149.9763  141.4904  155.6653 H   0  0  0  0  0  0  0  0  0  0  0  0
  150.0926  139.1599  155.1352 H   0  0  0  0  0  0  0  0  0  0  0  0
  149.4682  137.3439  154.5229 H   0  0  0  0  0  0  0  0  0  0  0  0
  149.2226  135.0831  156.4427 H   0  0  0  0  0  0  0  0  0  0  0  0
  150.7456  135.1962  153.8888 H   0  0  0  0  0  0  0  0  0  0  0  0
  150.9650  134.1158  155.2602 H   0  0  0  0  0  0  0  0  0  0  0  0
  149.8154  133.1831  152.9795 H   0  0  0  0  0  0  0  0  0  0  0  0
  149.1149  132.7158  154.5384 H   0  0  0  0  0  0  0  0  0  0  0  0
  147.2131  132.9723  152.2504 H   0  0  0  0  0  0  0  0  0  0  0  0
  146.5613  132.9141  153.8814 H   0  0  0  0  0  0  0  0  0  0  0  0
  146.2040  135.1600  151.8200 H   0  0  0  0  0  0  0  0  0  0  0  0
  144.9449  134.1060  152.4109 H   0  0  0  0  0  0  0  0  0  0  0  0
  144.8990  136.4130  153.4675 H   0  0  0  0  0  0  0  0  0  0  0  0
  145.0356  135.1256  154.6377 H   0  0  0  0  0  0  0  0  0  0  0  0
  147.3173  136.9111  153.6437 H   0  0  0  0  0  0  0  0  0  0  0  0
  146.6164  136.8875  155.2506 H   0  0  0  0  0  0  0  0  0  0  0  0
  147.3182  134.4955  155.5114 H   0  0  0  0  0  0  0  0  0  0  0  0
  151.9312  138.7316  158.4182 H   0  0  0  0  0  0  0  0  0  0  0  0
  148.3772  134.9695  152.8734 H   0  0  0  0  0  0  0  0  0  0  0  0
  152.7383  140.5408  159.5439 H   0  0  0  0  0  0  0  0  0  0  0  0
  1  2  1  0  0  0  0
  1 25  1  0  0  0  0
  1 26  1  0  0  0  0
  1 27  1  0  0  0  0
  2  3  1  0  0  0  0
  2 28  1  0  0  0  0
  2 29  1  0  0  0  0
  3  4  1  0  0  0  0
  3  6  1  0  0  0  0
  4  5  1  0  0  0  0
  4 30  1  0  0  0  0
  4 31  1  0  0  0  0
  5 32  1  0  0  0  0
  5 33  1  0  0  0  0
  5 34  1  0  0  0  0
  6 24  1  0  0  0  0
  6  7  2  0  0  0  0
  7  8  1  0  0  0  0
  7 35  1  0  0  0  0
  8  9  2  0  0  0  0
  8 36  1  0  0  0  0
  9 10  1  0  0  0  0
  9 23  1  0  0  0  0
 10 11  1  0  0  0  0
 10 37  1  0  0  0  0
 11 12  2  0  0  0  0
 11 13  1  0  0  0  0
 13 14  1  0  0  0  0
 13 38  1  0  0  0  0
 14 22  1  0  0  0  0
 14 15  1  0  0  0  0
 14 39  1  0  0  0  0
 15 16  1  0  0  0  0
 15 40  1  0  0  0  0
 15 41  1  0  0  0  0
 16 17  1  0  0  0  0
 16 42  1  0  0  0  0
 16 43  1  0  0  0  0
 17 22  1  0  0  0  0
 17 18  1  0  0  0  0
 17 54  1  0  0  0  0
 18 19  1  0  0  0  0
 18 44  1  0  0  0  0
 18 45  1  0  0  0  0
 19 20  1  0  0  0  0
 19 46  1  0  0  0  0
 19 47  1  0  0  0  0
 20 21  1  0  0  0  0
 20 48  1  0  0  0  0
 20 49  1  0  0  0  0
 21 22  1  0  0  0  0
 21 50  1  0  0  0  0
 21 51  1  0  0  0  0
 22 52  1  0  0  0  0
 23 24  2  0  0  0  0
 23 53  1  0  0  0  0
 24 55  1  0  0  0  0
M  CHG  1  17   1
M  CHG  1  24   1
M  END
> <s_m_source_file>
AV-unprocessed.smi

> <i_m_source_file_index>
1701

> <i_lp_mmshare_version>
43012

> <i_f3d_flags>
0

> <s_epik_input>
W0NIM11bQ0gyXU4oW0NIMl1bQ0gzXSljMVtjSF1bY0hdYyhbY0hdbjEpW05IXUMoPU8pW05IXVtDQEhdKFtDSDJdW0NIMl0yKVtDQEBIXShOMjMpW0NIMl1bQ0gyXVtDSDJdW0NIMl0z

> <s_epik_cmdline>
J2VwaWtfcHl0aG9uJywgJy1waCcsICc3LjAnLCAnLXRuJywgJzgnLCAnLW1hJywgJzIwMCcsICctbWV0YWxfYmluZGluZycsICctaW1hZScsICc8aW5maWxlLm1hZT4nLCAnLW9tYWUnLCAnPG91dGZpbGUubWFlPic=

> <r_lp_tautomer_probability>
0.999994

> <r_epik_Ionization_Penalty>
0.302862

> <r_epik_Ionization_Penalty_Charging>
0.302842

> <r_epik_Ionization_Penalty_Neutral>
1.95166e-05

> <r_epik_State_Penalty>
0.019791

> <r_epik_Charging_Adjusted_Penalty>
0.322633

> <i_epik_Tot_Q>
2

> <i_epik_Tot_abs_Q>
2

> <r_epik_Metal_State_Penalty>
0.0536763

> <b_epik_Metal_Only>
0

> <s_lp_Force_Field>
OPLS_2005

> <r_lp_Energy>
67.2191

> <b_lp_Chiralities_Consistent>
1

> <s_lp_Variant>
AV-unprocessed.smi:1701-5

> <Gold.Version>
5.8.1

> <Gold.Id.Protein>
6NUR|6NUR_protein|mol2

> <Gold.PLP.Fitness>
47.6822

> <Gold.PLP.PLP>
-42.1754

> <Gold.PLP.part.hbond>
-1.0000

> <Gold.PLP.part.metal>
0.0000

> <Gold.PLP.part.buried>
-4.9131

> <Gold.PLP.part.nonpolar>
-36.1565

> <Gold.PLP.part.repulsive>
0.1539

> <Gold.PLP.ligand.clash>
0.0000

> <Gold.PLP.ligand.torsion>
0.3165

> <Gold.PLP.Chemscore.Hbond>
2.0000

> <Gold.PLP.Chemscore.CHOScore>
0.0000

> <Gold.PLP.Chemscore.Metal>
0.0000

> <Gold.Chemscore.Hbonds>
donor molecule, donor type, donor heavy atom, donor atom, acceptor molecule, acceptor atom, score
      L1  H    17    54       P1  7948  2.00

> <Gold.PLP.Chemscore.Internal.Correction>
0.1398

> <Gold.Rescore>
     Score         DG    S(hbond)    S(metal)    S(lipo)     H(rot)  DE(clash)    DE(int)     intcor
     15.85     -17.30       0.98        0.00     101.42       1.30       0.02       1.43       ----

> <Gold.Chemscore.Fitness>
15.8487

> <Gold.Chemscore.DG>
-17.2988

> <Gold.Chemscore.ZeroCoef>
-5.4800

> <Gold.Chemscore.Hbond>
0.9837

> <Gold.Chemscore.Metal>
0.0000

> <Gold.Chemscore.Lipo>
101.4223

> <Gold.Chemscore.Internal_Hbond>
0.0000

> <Gold.Chemscore.DEClash>
0.0215

> <Gold.Chemscore.DEInternal>
1.4285

> <Gold.Chemscore.Rot>
1.3020

> <Gold.Chemscore.Internal.Correction>
   9.000000E+99

> <Gold.Chemscore.Hbonds>
donor molecule, donor type, donor heavy atom, donor atom, acceptor molecule, acceptor atom, score
      L1  H    17    54       P1  7948  0.70

> <Gold.Chemscore.Hbond.Weighted>
-3.2854

> <Gold.Chemscore.Metal.Weighted>
-0.0000

> <Gold.Chemscore.Lipo.Weighted>
-11.8664

> <Gold.Chemscore.Internal_Hbond.Weighted>
0.0000

> <Gold.Chemscore.DEClash.Weighted>
0.0215

> <Gold.Chemscore.DEInternal.Weighted>
1.4285

> <Gold.Chemscore.Rot.Weighted>
3.3330

> <Gold.Chemscore.Internal.Correction.Weighted>
   9.000000E+99

> <Gold.Protein.RotatedTorsions>
[ 6907 6896 6895 6894 ] final    6.02 input  -60.11 | X-H torsion
[ 7974 7965 7964 7962 ] final   40.97 input  175.53 | X-H torsion
[ 8008 7997 7996 7995 ] final -175.25 input   59.86 | X-H torsion
[ 10167 10162 10161 10158 ] final  -41.20 input  -65.29 | X-H torsion
[ 10718 10713 10712 10709 ] final -137.85 input   66.30 | X-H torsion
[ 10763 10752 10751 10750 ] final -141.81 input  -60.55 | X-H torsion
[ 11005 11000 10999 10996 ] final -165.21 input  -57.11 | X-H torsion

> <Gold.Protein.ActiveResidues>
 VAL166  LYS551  ARG553  GLY616  TRP617  ASP618  TYR619  PRO620  LYS621  CYS622 
 ASP623  PHE694  ASN695  SER759  ASP760  ASP761  ALA762  ILE779  LEU786  VAL792 
 PHE793  MET794  SER795  GLU796  ALA797  LYS798  CYS799  TRP800  GLU811  SER814 

> <Gold.Protein.RotatedAtoms>
  151.6669  135.0981  160.0190 H   0  0  0  0  0  0  0  0  0  0  0  0  # atno 6907 bound_to 6896
  152.3914  133.6680  159.6249 H   0  0  0  0  0  0  0  0  0  0  0  0  # atno 6908 bound_to 6896
  150.7829  133.8864  159.3342 H   0  0  0  0  0  0  0  0  0  0  0  0  # atno 6909 bound_to 6896
  146.0862  139.5471  142.9505 H   0  0  0  0  0  0  0  0  0  0  0  0  # atno 7974 bound_to 7965
  155.9803  140.1180  157.0733 H   0  0  0  0  0  0  0  0  0  0  0  0  # atno 8008 bound_to 7997
  154.4181  140.1146  156.5494 H   0  0  0  0  0  0  0  0  0  0  0  0  # atno 8009 bound_to 7997
  155.6480  140.3473  155.4740 H   0  0  0  0  0  0  0  0  0  0  0  0  # atno 8010 bound_to 7997
  140.7010  143.3108  151.3033 H   0  0  0  0  0  0  0  0  0  0  0  0  # atno 10167 bound_to 10162
  156.2928  130.7384  151.1415 H   0  0  0  0  0  0  0  0  0  0  0  0  # atno 10718 bound_to 10713
  154.8532  135.3514  154.5928 H   0  0  0  0  0  0  0  0  0  0  0  0  # atno 10763 bound_to 10752
  153.6537  135.6993  153.5205 H   0  0  0  0  0  0  0  0  0  0  0  0  # atno 10764 bound_to 10752
  153.2873  135.4245  155.1092 H   0  0  0  0  0  0  0  0  0  0  0  0  # atno 10765 bound_to 10752
  140.5782  134.5168  157.5174 H   0  0  0  0  0  0  0  0  0  0  0  0  # atno 11005 bound_to 11000
  145.6126  141.0337  143.1958 LP  0  0  0  0  0  0  0  0  0  0  0  0  # atno 17320 bound_to 7965
  144.7327  139.7677  143.7341 LP  0  0  0  0  0  0  0  0  0  0  0  0  # atno 17321 bound_to 7965
  139.6530  144.0327  152.2640 LP  0  0  0  0  0  0  0  0  0  0  0  0  # atno 17342 bound_to 10162
  139.9870  144.6388  150.7849 LP  0  0  0  0  0  0  0  0  0  0  0  0  # atno 17343 bound_to 10162
  157.7347  131.0579  150.5510 LP  0  0  0  0  0  0  0  0  0  0  0  0  # atno 17370 bound_to 10713
  156.5628  130.4260  149.6055 LP  0  0  0  0  0  0  0  0  0  0  0  0  # atno 17371 bound_to 10713
  139.9329  134.7929  156.0880 LP  0  0  0  0  0  0  0  0  0  0  0  0  # atno 17394 bound_to 11000
  141.1013  133.6676  156.2761 LP  0  0  0  0  0  0  0  0  0  0  0  0  # atno 17395 bound_to 11000

$$$$
