AV-unprocessed.smi:45|AV-procd|sdf|417|dock7
  -GOLD-   2262016293D 1   1.00000     0.00000
 Structure written by MMmdl.
 60 63  0  0  0  0  0  0  0  0  3 V2000
  152.0062  140.9906  157.6504 C   0  0  0  0  0  0  0  0  0  0  0  0
  152.5743  139.7478  157.2646 O   0  0  0  0  0  0  0  0  0  0  0  0
  151.7220  138.7298  156.8896 C   0  0  0  0  0  0  0  0  0  0  0  0
  150.3454  138.9177  156.6059 C   0  0  0  0  0  0  0  0  0  0  0  0
  149.5351  137.8264  156.2388 C   0  0  0  0  0  0  0  0  0  0  0  0
  150.0828  136.5308  156.1511 C   0  0  0  0  0  0  0  0  0  0  0  0
  149.2078  135.3474  155.7852 C   0  0  0  0  0  0  0  0  0  0  0  0
  149.4392  134.8825  154.4267 N   0  0  0  0  0  0  0  0  0  0  0  0
  148.7101  133.7688  153.9855 C   0  0  0  0  0  0  0  0  0  0  0  0
  147.7084  133.9653  153.0882 N   0  3  0  0  0  0  0  0  0  0  0  0
  147.0043  132.9248  152.6106 C   0  0  0  0  0  0  0  0  0  0  0  0
  145.9819  133.1777  151.6974 N   0  0  0  0  0  0  0  0  0  0  0  0
  145.1663  132.1003  151.1482 C   0  0  0  0  0  0  0  0  0  0  0  0
  144.7887  132.5390  149.7345 C   0  0  0  0  0  0  0  0  0  0  0  0
  144.7715  134.0581  149.8431 C   0  0  0  0  0  0  0  0  0  0  0  0
  145.9011  134.3610  150.8391 C   0  0  1  0  0  0  0  0  0  0  0  0
  145.6616  135.6675  151.6249 C   0  0  0  0  0  0  0  0  0  0  0  0
  146.2483  136.7576  150.9462 O   0  0  0  0  0  0  0  0  0  0  0  0
  147.2489  131.6634  152.9924 N   0  0  0  0  0  0  0  0  0  0  0  0
  148.2350  131.4186  153.8775 C   0  0  0  0  0  0  0  0  0  0  0  0
  149.0124  132.4569  154.4219 C   0  0  0  0  0  0  0  0  0  0  0  0
  150.1114  132.1738  155.4053 C   0  0  0  0  0  0  0  0  0  0  0  0
  150.9708  133.0425  155.5890 O   0  0  0  0  0  0  0  0  0  0  0  0
  150.0074  130.9178  155.9182 N   0  5  0  0  0  0  0  0  0  0  0  0
  151.0355  130.3042  156.7616 C   0  0  0  0  0  0  0  0  0  0  0  0
  152.3115  129.9920  155.9820 C   0  0  0  0  0  0  0  0  0  0  0  0
  152.2630  128.9605  155.1288 N   0  0  0  0  0  0  0  0  0  0  0  0
  153.3792  128.7022  154.4132 C   0  0  0  0  0  0  0  0  0  0  0  0
  154.5464  129.4789  154.5536 C   0  0  0  0  0  0  0  0  0  0  0  0
  154.4813  130.5404  155.4778 C   0  0  0  0  0  0  0  0  0  0  0  0
  153.3633  130.7936  156.1921 N   0  0  0  0  0  0  0  0  0  0  0  0
  151.4504  136.3381  156.4265 C   0  0  0  0  0  0  0  0  0  0  0  0
  152.2631  137.4283  156.7932 C   0  0  0  0  0  0  0  0  0  0  0  0
  153.9320  137.1523  157.1419 Cl  0  0  0  0  0  0  0  0  0  0  0  0
  146.8434  134.4296  150.2934 H   0  0  0  0  0  0  0  0  0  0  0  0
  152.8037  141.6778  157.9327 H   0  0  0  0  0  0  0  0  0  0  0  0
  151.3483  140.8769  158.5134 H   0  0  0  0  0  0  0  0  0  0  0  0
  151.4521  141.4480  156.8297 H   0  0  0  0  0  0  0  0  0  0  0  0
  149.8836  139.8912  156.6661 H   0  0  0  0  0  0  0  0  0  0  0  0
  148.4870  137.9869  156.0322 H   0  0  0  0  0  0  0  0  0  0  0  0
  149.4097  134.5315  156.4798 H   0  0  0  0  0  0  0  0  0  0  0  0
  148.1599  135.6247  155.9110 H   0  0  0  0  0  0  0  0  0  0  0  0
  149.5556  135.6161  153.7410 H   0  0  0  0  0  0  0  0  0  0  0  0
  145.6944  131.1459  151.1317 H   0  0  0  0  0  0  0  0  0  0  0  0
  144.2762  131.9861  151.7677 H   0  0  0  0  0  0  0  0  0  0  0  0
  145.5620  132.2282  149.0306 H   0  0  0  0  0  0  0  0  0  0  0  0
  143.8384  132.1223  149.3996 H   0  0  0  0  0  0  0  0  0  0  0  0
  144.9113  134.5541  148.8822 H   0  0  0  0  0  0  0  0  0  0  0  0
  143.8098  134.3785  150.2467 H   0  0  0  0  0  0  0  0  0  0  0  0
  144.5946  135.8552  151.7504 H   0  0  0  0  0  0  0  0  0  0  0  0
  146.0958  135.6257  152.6229 H   0  0  0  0  0  0  0  0  0  0  0  0
  147.1839  136.7279  151.0784 H   0  0  0  0  0  0  0  0  0  0  0  0
  148.3973  130.3867  154.1531 H   0  0  0  0  0  0  0  0  0  0  0  0
  151.2833  130.9332  157.6187 H   0  0  0  0  0  0  0  0  0  0  0  0
  150.6746  129.3715  157.1968 H   0  0  0  0  0  0  0  0  0  0  0  0
  153.3401  127.8736  153.7216 H   0  0  0  0  0  0  0  0  0  0  0  0
  155.4385  129.2757  153.9802 H   0  0  0  0  0  0  0  0  0  0  0  0
  155.3289  131.1884  155.6439 H   0  0  0  0  0  0  0  0  0  0  0  0
  151.8804  135.3488  156.3685 H   0  0  0  0  0  0  0  0  0  0  0  0
  147.5021  134.9142  152.7782 H   0  0  0  0  0  0  0  0  0  0  0  0
  1  2  1  0  0  0  0
  1 36  1  0  0  0  0
  1 37  1  0  0  0  0
  1 38  1  0  0  0  0
  2  3  1  0  0  0  0
  3 33  1  0  0  0  0
  3  4  2  0  0  0  0
  4  5  1  0  0  0  0
  4 39  1  0  0  0  0
  5  6  2  0  0  0  0
  5 40  1  0  0  0  0
  6  7  1  0  0  0  0
  6 32  1  0  0  0  0
  7  8  1  0  0  0  0
  7 41  1  0  0  0  0
  7 42  1  0  0  0  0
  8  9  1  0  0  0  0
  8 43  1  0  0  0  0
  9 21  1  0  0  0  0
  9 10  2  0  0  0  0
 10 11  1  0  0  0  0
 10 60  1  0  0  0  0
 11 12  1  0  0  0  0
 11 19  2  0  0  0  0
 12 16  1  0  0  0  0
 12 13  1  0  0  0  0
 13 14  1  0  0  0  0
 13 44  1  0  0  0  0
 13 45  1  0  0  0  0
 14 15  1  0  0  0  0
 14 46  1  0  0  0  0
 14 47  1  0  0  0  0
 15 16  1  0  0  0  0
 15 48  1  0  0  0  0
 15 49  1  0  0  0  0
 16 35  1  0  0  0  0
 16 17  1  0  0  0  0
 17 18  1  0  0  0  0
 17 50  1  0  0  0  0
 17 51  1  0  0  0  0
 18 52  1  0  0  0  0
 19 20  1  0  0  0  0
 20 21  2  0  0  0  0
 20 53  1  0  0  0  0
 21 22  1  0  0  0  0
 22 23  2  0  0  0  0
 22 24  1  0  0  0  0
 24 25  1  0  0  0  0
 25 26  1  0  0  0  0
 25 54  1  0  0  0  0
 25 55  1  0  0  0  0
 26 31  1  0  0  0  0
 26 27  2  0  0  0  0
 27 28  1  0  0  0  0
 28 29  2  0  0  0  0
 28 56  1  0  0  0  0
 29 30  1  0  0  0  0
 29 57  1  0  0  0  0
 30 31  2  0  0  0  0
 30 58  1  0  0  0  0
 32 33  2  0  0  0  0
 32 59  1  0  0  0  0
 33 34  1  0  0  0  0
M  CHG  1  10   1
M  CHG  1  24  -1
M  END
> <s_m_source_file>
AV-unprocessed.smi

> <i_m_source_file_index>
45

> <i_lp_mmshare_version>
43012

> <i_f3d_flags>
0

> <s_epik_input>
W0NIM11PYzFbY0hdW2NIXWMoW2NIXWMxQ2wpW0NIMl1bTkhdYzJuYyhOM1tDSDJdW0NIMl1bQ0gyXVtDQEhdM1tDSDJdW09IXSluW2NIXWMyQyg9TylbTkhdW0NIMl1jNG5bY0hdW2NIXVtjSF1uNA==

> <s_epik_cmdline>
J2VwaWtfcHl0aG9uJywgJy1waCcsICc3LjAnLCAnLXRuJywgJzgnLCAnLW1hJywgJzIwMCcsICctbWV0YWxfYmluZGluZycsICctaW1hZScsICc8aW5maWxlLm1hZT4nLCAnLW9tYWUnLCAnPG91dGZpbGUubWFlPic=

> <r_lp_tautomer_probability>
0.424989

> <r_epik_Ionization_Penalty>
7.51351

> <r_epik_Ionization_Penalty_Charging>
7.51312

> <r_epik_Ionization_Penalty_Neutral>
0.00038389

> <r_epik_State_Penalty>
8.64696

> <r_epik_Charging_Adjusted_Penalty>
16.1601

> <i_epik_Tot_Q>
0

> <i_epik_Tot_abs_Q>
2

> <r_epik_Metal_State_Penalty>
4.61083

> <b_epik_Metal_Only>
1

> <s_epik_Chemistry_Notes>
This compound contains an electron-poor aromatic ring that is susceptible to covalent hydrolysis at low pH, typically resulting in measured values for nitrogen ring protonation that are around two units higher than predicted values.

> <s_lp_Force_Field>
OPLS_2005

> <r_lp_Energy>
39.4565

> <b_lp_Chiralities_Consistent>
1

> <s_lp_Variant>
AV-unprocessed.smi:45-11

> <Gold.Version>
5.8.1

> <Gold.Id.Protein>
6NUR|6NUR_protein|mol2

> <Gold.PLP.Fitness>
55.8610

> <Gold.PLP.PLP>
-44.1147

> <Gold.PLP.part.hbond>
-4.6473

> <Gold.PLP.part.metal>
0.0000

> <Gold.PLP.part.buried>
-2.1451

> <Gold.PLP.part.nonpolar>
-35.5107

> <Gold.PLP.part.repulsive>
0.1643

> <Gold.PLP.ligand.clash>
0.0403

> <Gold.PLP.ligand.torsion>
1.3373

> <Gold.PLP.Chemscore.Hbond>
3.5379

> <Gold.PLP.Chemscore.CHOScore>
0.9752

> <Gold.PLP.Chemscore.Metal>
0.0000

> <Gold.Chemscore.Hbonds>
donor molecule, donor type, donor heavy atom, donor atom, acceptor molecule, acceptor atom, score
      L1  H     8    43       P1  7948  0.86
      L1  H    10    60       P1  7948  0.68
      L1  H    18    52       P1  7948  1.00
      P1  H  7997  8008       L1     2  1.00
      L1  C    28    56       P1 10737  0.96

> <Gold.PLP.Chemscore.Internal.Correction>
0.9219

> <Gold.Rescore>
     Score         DG    S(hbond)    S(metal)    S(lipo)     H(rot)  DE(clash)    DE(int)     intcor
     11.95     -18.29       2.58        0.00     104.99       3.16       1.04       5.29       ----

> <Gold.Chemscore.Fitness>
11.9543

> <Gold.Chemscore.DG>
-18.2857

> <Gold.Chemscore.ZeroCoef>
-5.4800

> <Gold.Chemscore.Hbond>
2.5760

> <Gold.Chemscore.Metal>
0.0000

> <Gold.Chemscore.Lipo>
104.9921

> <Gold.Chemscore.Internal_Hbond>
0.0000

> <Gold.Chemscore.DEClash>
1.0413

> <Gold.Chemscore.DEInternal>
5.2901

> <Gold.Chemscore.Rot>
3.1571

> <Gold.Chemscore.Internal.Correction>
   9.000000E+99

> <Gold.Chemscore.Hbonds>
donor molecule, donor type, donor heavy atom, donor atom, acceptor molecule, acceptor atom, score
      L1  H     8    43       P1  7948  0.20
      L1  H    10    60       P1  7948  0.33
      L1  H    18    52       P1  7948  0.99
      P1  H  7997  8008       L1     2  0.64

> <Gold.Chemscore.Hbond.Weighted>
-8.6038

> <Gold.Chemscore.Metal.Weighted>
-0.0000

> <Gold.Chemscore.Lipo.Weighted>
-12.2841

> <Gold.Chemscore.Internal_Hbond.Weighted>
0.0000

> <Gold.Chemscore.DEClash.Weighted>
1.0413

> <Gold.Chemscore.DEInternal.Weighted>
5.2901

> <Gold.Chemscore.Rot.Weighted>
8.0822

> <Gold.Chemscore.Internal.Correction.Weighted>
   9.000000E+99

> <Gold.Protein.RotatedTorsions>
[ 6907 6896 6895 6894 ] final  -38.45 input  -60.11 | X-H torsion
[ 7974 7965 7964 7962 ] final -108.10 input  175.53 | X-H torsion
[ 8008 7997 7996 7995 ] final  -53.86 input   59.86 | X-H torsion
[ 10167 10162 10161 10158 ] final   62.76 input  -65.29 | X-H torsion
[ 10718 10713 10712 10709 ] final -121.58 input   66.30 | X-H torsion
[ 10763 10752 10751 10750 ] final  -34.53 input  -60.55 | X-H torsion
[ 11005 11000 10999 10996 ] final -110.96 input  -57.11 | X-H torsion

> <Gold.Protein.ActiveResidues>
 VAL166  LYS551  ARG553  GLY616  TRP617  ASP618  TYR619  PRO620  LYS621  CYS622 
 ASP623  PHE694  ASN695  SER759  ASP760  ASP761  ALA762  ILE779  LEU786  VAL792 
 PHE793  MET794  SER795  GLU796  ALA797  LYS798  CYS799  TRP800  GLU811  SER814 

> <Gold.Protein.RotatedAtoms>
  151.0023  134.9332  159.7960 H   0  0  0  0  0  0  0  0  0  0  0  0  # atno 6907 bound_to 6896
  152.5281  134.3138  159.9133 H   0  0  0  0  0  0  0  0  0  0  0  0  # atno 6908 bound_to 6896
  151.3143  133.4025  159.2683 H   0  0  0  0  0  0  0  0  0  0  0  0  # atno 6909 bound_to 6896
  145.1970  140.9040  143.3391 H   0  0  0  0  0  0  0  0  0  0  0  0  # atno 7974 bound_to 7965
  154.4145  140.1190  156.5223 H   0  0  0  0  0  0  0  0  0  0  0  0  # atno 8008 bound_to 7997
  155.6690  140.3496  155.4792 H   0  0  0  0  0  0  0  0  0  0  0  0  # atno 8009 bound_to 7997
  155.9649  140.1130  157.0853 H   0  0  0  0  0  0  0  0  0  0  0  0  # atno 8010 bound_to 7997
  140.1404  144.4559  150.6814 H   0  0  0  0  0  0  0  0  0  0  0  0  # atno 10167 bound_to 10162
  156.1349  130.6423  150.9680 H   0  0  0  0  0  0  0  0  0  0  0  0  # atno 10718 bound_to 10713
  153.8483  135.6851  153.4795 H   0  0  0  0  0  0  0  0  0  0  0  0  # atno 10763 bound_to 10752
  153.1412  135.4656  154.9497 H   0  0  0  0  0  0  0  0  0  0  0  0  # atno 10764 bound_to 10752
  154.7814  135.3270  154.7929 H   0  0  0  0  0  0  0  0  0  0  0  0  # atno 10765 bound_to 10752
  141.0762  133.9297  157.2385 H   0  0  0  0  0  0  0  0  0  0  0  0  # atno 11005 bound_to 11000
  144.9985  139.3621  143.6179 LP  0  0  0  0  0  0  0  0  0  0  0  0  # atno 17320 bound_to 7965
  146.3425  139.9198  142.8768 LP  0  0  0  0  0  0  0  0  0  0  0  0  # atno 17321 bound_to 7965
  140.6764  143.2307  151.5497 LP  0  0  0  0  0  0  0  0  0  0  0  0  # atno 17342 bound_to 10162
  139.5475  144.2483  152.1469 LP  0  0  0  0  0  0  0  0  0  0  0  0  # atno 17343 bound_to 10162
  157.6522  131.0895  150.8025 LP  0  0  0  0  0  0  0  0  0  0  0  0  # atno 17370 bound_to 10713
  156.8106  130.4951  149.5356 LP  0  0  0  0  0  0  0  0  0  0  0  0  # atno 17371 bound_to 10713
  139.9574  135.0162  156.9167 LP  0  0  0  0  0  0  0  0  0  0  0  0  # atno 17394 bound_to 11000
  140.5568  134.0573  155.7386 LP  0  0  0  0  0  0  0  0  0  0  0  0  # atno 17395 bound_to 11000

$$$$
