AV-unprocessed.smi:1946|AV-procd|sdf|7862|dock5
  -GOLD-   2272010 13D 1   1.00000     0.00000
 Structure written by MMmdl.
 38 40  0  0  0  0  0  0  0  0  1 V2000
  144.2326  145.7156  157.0775 C   0  0  0  0  0  0  0  0  0  0  0  0
  144.3326  144.1120  157.9716 S   0  0  0  0  0  0  0  0  0  0  0  0
  144.8849  144.3701  159.3105 O   0  0  0  0  0  0  0  0  0  0  0  0
  143.0336  143.4338  157.8388 O   0  0  0  0  0  0  0  0  0  0  0  0
  145.5430  143.1821  157.0384 C   0  0  0  0  0  0  0  0  0  0  0  0
  146.5603  142.4837  157.7182 C   0  0  0  0  0  0  0  0  0  0  0  0
  147.4969  141.7296  156.9850 C   0  0  0  0  0  0  0  0  0  0  0  0
  147.4155  141.6655  155.5757 C   0  0  0  0  0  0  0  0  0  0  0  0
  148.4253  140.8509  154.7819 C   0  0  1  0  0  0  0  0  0  0  0  0
  148.0604  140.7354  153.4197 O   0  0  0  0  0  0  0  0  0  0  0  0
  149.8430  141.4452  154.8988 C   0  0  0  0  0  0  0  0  0  0  0  0
  150.4800  141.1276  156.1649 N   0  0  0  0  0  0  0  0  0  0  0  0
  150.5591  139.9176  156.7511 C   0  0  0  0  0  0  0  0  0  0  0  0
  151.1921  139.8455  157.9185 N   0  0  0  0  0  0  0  0  0  0  0  0
  151.5692  141.1634  158.1132 C   0  0  0  0  0  0  0  0  0  0  0  0
  152.2822  141.7656  159.1744 C   0  0  0  0  0  0  0  0  0  0  0  0
  152.5563  143.1492  159.1565 C   0  0  0  0  0  0  0  0  0  0  0  0
  152.1235  143.9502  158.0796 C   0  0  0  0  0  0  0  0  0  0  0  0
  151.4109  143.3726  157.0113 C   0  0  0  0  0  0  0  0  0  0  0  0
  151.1384  141.9919  157.0333 C   0  0  0  0  0  0  0  0  0  0  0  0
  146.3798  142.3535  154.9063 C   0  0  0  0  0  0  0  0  0  0  0  0
  145.4401  143.1084  155.6351 C   0  0  0  0  0  0  0  0  0  0  0  0
  143.5100  146.3625  157.5744 H   0  0  0  0  0  0  0  0  0  0  0  0
  143.9158  145.5409  156.0495 H   0  0  0  0  0  0  0  0  0  0  0  0
  145.2108  146.1958  157.0798 H   0  0  0  0  0  0  0  0  0  0  0  0
  146.6268  142.5228  158.7955 H   0  0  0  0  0  0  0  0  0  0  0  0
  148.2780  141.1976  157.5083 H   0  0  0  0  0  0  0  0  0  0  0  0
  148.4390  139.8373  155.1848 H   0  0  0  0  0  0  0  0  0  0  0  0
  148.8420  140.8050  152.8932 H   0  0  0  0  0  0  0  0  0  0  0  0
  150.4791  141.0842  154.0895 H   0  0  0  0  0  0  0  0  0  0  0  0
  149.8035  142.5309  154.8018 H   0  0  0  0  0  0  0  0  0  0  0  0
  150.1279  139.0389  156.2941 H   0  0  0  0  0  0  0  0  0  0  0  0
  152.6200  141.1617  160.0035 H   0  0  0  0  0  0  0  0  0  0  0  0
  153.1027  143.5981  159.9730 H   0  0  0  0  0  0  0  0  0  0  0  0
  152.3400  145.0084  158.0735 H   0  0  0  0  0  0  0  0  0  0  0  0
  151.0808  143.9818  156.1831 H   0  0  0  0  0  0  0  0  0  0  0  0
  146.3005  142.3038  153.8301 H   0  0  0  0  0  0  0  0  0  0  0  0
  144.6481  143.6271  155.1151 H   0  0  0  0  0  0  0  0  0  0  0  0
  1  2  1  0  0  0  0
  1 23  1  0  0  0  0
  1 24  1  0  0  0  0
  1 25  1  0  0  0  0
  2  3  2  0  0  0  0
  2  4  2  0  0  0  0
  2  5  1  0  0  0  0
  5 22  1  0  0  0  0
  5  6  2  0  0  0  0
  6  7  1  0  0  0  0
  6 26  1  0  0  0  0
  7  8  2  0  0  0  0
  7 27  1  0  0  0  0
  8  9  1  0  0  0  0
  8 21  1  0  0  0  0
  9 10  1  0  0  0  0
  9 11  1  0  0  0  0
  9 28  1  0  0  0  0
 10 29  1  0  0  0  0
 11 12  1  0  0  0  0
 11 30  1  0  0  0  0
 11 31  1  0  0  0  0
 12 20  1  0  0  0  0
 12 13  1  0  0  0  0
 13 14  2  0  0  0  0
 13 32  1  0  0  0  0
 14 15  1  0  0  0  0
 15 20  2  0  0  0  0
 15 16  1  0  0  0  0
 16 17  2  0  0  0  0
 16 33  1  0  0  0  0
 17 18  1  0  0  0  0
 17 34  1  0  0  0  0
 18 19  2  0  0  0  0
 18 35  1  0  0  0  0
 19 20  1  0  0  0  0
 19 36  1  0  0  0  0
 21 22  2  0  0  0  0
 21 37  1  0  0  0  0
 22 38  1  0  0  0  0
M  END
> <s_m_source_file>
AV-unprocessed.smi

> <i_m_source_file_index>
1946

> <i_lp_mmshare_version>
43012

> <i_f3d_flags>
0

> <s_epik_input>
W0NIM11TKD1PKSg9TyljMVtjSF1bY0hdYyhbY0hdW2NIXTEpW0NASF0oW09IXSlbQ0gyXW4oW2NIXW4yKWMoYzIzKVtjSF1bY0hdW2NIXVtjSF0z

> <s_epik_cmdline>
J2VwaWtfcHl0aG9uJywgJy1waCcsICc3LjAnLCAnLXRuJywgJzgnLCAnLW1hJywgJzIwMCcsICctbWV0YWxfYmluZGluZycsICctaW1hZScsICc8aW5maWxlLm1hZT4nLCAnLW9tYWUnLCAnPG91dGZpbGUubWFlPic=

> <r_epik_Ionization_Penalty>
0.0696512

> <r_epik_Ionization_Penalty_Charging>
0

> <r_epik_Ionization_Penalty_Neutral>
0.0696512

> <r_epik_State_Penalty>
0.0610247

> <r_epik_Charging_Adjusted_Penalty>
0.0610247

> <i_epik_Tot_Q>
0

> <i_epik_Tot_abs_Q>
0

> <r_epik_Metal_State_Penalty>
6.42746e-05

> <b_epik_Metal_Only>
0

> <s_lp_Force_Field>
OPLS_2005

> <r_lp_Energy>
10.2228

> <b_lp_Chiralities_Consistent>
1

> <s_lp_Variant>
AV-unprocessed.smi:1946-2

> <Gold.Version>
5.8.1

> <Gold.Id.Protein>
6NUR|6NUR_protein|mol2

> <Gold.PLP.Fitness>
40.1587

> <Gold.PLP.PLP>
-38.8701

> <Gold.PLP.part.hbond>
-1.0000

> <Gold.PLP.part.metal>
0.0000

> <Gold.PLP.part.buried>
-2.5330

> <Gold.PLP.part.nonpolar>
-35.4637

> <Gold.PLP.part.repulsive>
0.0850

> <Gold.PLP.ligand.clash>
0.0000

> <Gold.PLP.ligand.torsion>
1.5346

> <Gold.PLP.Chemscore.Hbond>
0.7680

> <Gold.PLP.Chemscore.CHOScore>
0.0000

> <Gold.PLP.Chemscore.Metal>
0.0000

> <Gold.Chemscore.Hbonds>
donor molecule, donor type, donor heavy atom, donor atom, acceptor molecule, acceptor atom, score
      L1  H    10    29       P1  7957  0.78

> <Gold.PLP.Chemscore.Internal.Correction>
2.0538

> <Gold.Rescore>
     Score         DG    S(hbond)    S(metal)    S(lipo)     H(rot)  DE(clash)    DE(int)     intcor
     12.32     -13.99       0.55        0.00     100.34       1.98       0.13       1.54       ----

> <Gold.Chemscore.Fitness>
12.3188

> <Gold.Chemscore.DG>
-13.9922

> <Gold.Chemscore.ZeroCoef>
-5.4800

> <Gold.Chemscore.Hbond>
0.5544

> <Gold.Chemscore.Metal>
0.0000

> <Gold.Chemscore.Lipo>
100.3395

> <Gold.Chemscore.Internal_Hbond>
0.0000

> <Gold.Chemscore.DEClash>
0.1314

> <Gold.Chemscore.DEInternal>
1.5421

> <Gold.Chemscore.Rot>
1.9840

> <Gold.Chemscore.Internal.Correction>
   9.000000E+99

> <Gold.Chemscore.Hbonds>
donor molecule, donor type, donor heavy atom, donor atom, acceptor molecule, acceptor atom, score
      L1  H    10    29       P1  7957  0.72

> <Gold.Chemscore.Hbond.Weighted>
-1.8516

> <Gold.Chemscore.Metal.Weighted>
-0.0000

> <Gold.Chemscore.Lipo.Weighted>
-11.7397

> <Gold.Chemscore.Internal_Hbond.Weighted>
0.0000

> <Gold.Chemscore.DEClash.Weighted>
0.1314

> <Gold.Chemscore.DEInternal.Weighted>
1.5421

> <Gold.Chemscore.Rot.Weighted>
5.0791

> <Gold.Chemscore.Internal.Correction.Weighted>
   9.000000E+99

> <Gold.Protein.RotatedTorsions>
[ 6907 6896 6895 6894 ] final  -94.59 input  -60.11 | X-H torsion
[ 7974 7965 7964 7962 ] final   51.45 input  175.53 | X-H torsion
[ 8008 7997 7996 7995 ] final   54.04 input   59.86 | X-H torsion
[ 10167 10162 10161 10158 ] final  118.77 input  -65.29 | X-H torsion
[ 10718 10713 10712 10709 ] final -173.29 input   66.30 | X-H torsion
[ 10763 10752 10751 10750 ] final  -31.00 input  -60.55 | X-H torsion
[ 11005 11000 10999 10996 ] final   96.39 input  -57.11 | X-H torsion

> <Gold.Protein.ActiveResidues>
 VAL166  LYS551  ARG553  GLY616  TRP617  ASP618  TYR619  PRO620  LYS621  CYS622 
 ASP623  PHE694  ASN695  SER759  ASP760  ASP761  ALA762  ILE779  LEU786  VAL792 
 PHE793  MET794  SER795  GLU796  ALA797  LYS798  CYS799  TRP800  GLU811  SER814 

> <Gold.Protein.RotatedAtoms>
  150.6945  134.1789  159.4240 H   0  0  0  0  0  0  0  0  0  0  0  0  # atno 6907 bound_to 6896
  151.9764  135.0048  160.0564 H   0  0  0  0  0  0  0  0  0  0  0  0  # atno 6908 bound_to 6896
  152.1795  133.4662  159.4987 H   0  0  0  0  0  0  0  0  0  0  0  0  # atno 6909 bound_to 6896
  145.9912  139.4341  143.0072 H   0  0  0  0  0  0  0  0  0  0  0  0  # atno 7974 bound_to 7965
  155.4781  140.3467  155.4335 H   0  0  0  0  0  0  0  0  0  0  0  0  # atno 8008 bound_to 7997
  156.1057  140.1447  156.9436 H   0  0  0  0  0  0  0  0  0  0  0  0  # atno 8009 bound_to 7997
  154.4722  140.0897  156.7152 H   0  0  0  0  0  0  0  0  0  0  0  0  # atno 8010 bound_to 7997
  139.6089  144.7077  151.2888 H   0  0  0  0  0  0  0  0  0  0  0  0  # atno 10167 bound_to 10162
  156.7681  130.9438  151.3119 H   0  0  0  0  0  0  0  0  0  0  0  0  # atno 10718 bound_to 10713
  153.7902  135.6898  153.4873 H   0  0  0  0  0  0  0  0  0  0  0  0  # atno 10763 bound_to 10752
  153.1754  135.4526  154.9957 H   0  0  0  0  0  0  0  0  0  0  0  0  # atno 10764 bound_to 10752
  154.8047  135.3352  154.7399 H   0  0  0  0  0  0  0  0  0  0  0  0  # atno 10765 bound_to 10752
  139.8782  134.8948  156.4151 H   0  0  0  0  0  0  0  0  0  0  0  0  # atno 11005 bound_to 11000
  145.7627  140.9929  143.1191 LP  0  0  0  0  0  0  0  0  0  0  0  0  # atno 17320 bound_to 7965
  144.6889  139.9350  143.7473 LP  0  0  0  0  0  0  0  0  0  0  0  0  # atno 17321 bound_to 7965
  140.7305  143.6877  150.7947 LP  0  0  0  0  0  0  0  0  0  0  0  0  # atno 17342 bound_to 10162
  140.0468  143.5289  152.2692 LP  0  0  0  0  0  0  0  0  0  0  0  0  # atno 17343 bound_to 10162
  157.6704  130.9045  150.0027 LP  0  0  0  0  0  0  0  0  0  0  0  0  # atno 17370 bound_to 10713
  156.1296  130.3643  149.9754 LP  0  0  0  0  0  0  0  0  0  0  0  0  # atno 17371 bound_to 10713
  140.9173  133.7670  155.9863 LP  0  0  0  0  0  0  0  0  0  0  0  0  # atno 17394 bound_to 11000
  140.8479  134.2988  157.5287 LP  0  0  0  0  0  0  0  0  0  0  0  0  # atno 17395 bound_to 11000

$$$$
