AV-unprocessed.smi:287|AV-procd|sdf|2196|dock1
  -GOLD-   2262022 03D 1   1.00000     0.00000
 Structure written by MMmdl.
 55 58  0  0  0  0  0  0  0  0  1 V2000
  154.3947  131.8840  158.3768 C   0  0  0  0  0  0  0  0  0  0  0  0
  153.6236  131.1703  157.3200 C   0  0  0  0  0  0  0  0  0  0  0  0
  152.2939  131.0522  157.0379 C   0  0  0  0  0  0  0  0  0  0  0  0
  152.1750  130.2235  155.8826 C   0  0  0  0  0  0  0  0  0  0  0  0
  150.8724  129.8255  155.2007 C   0  0  2  0  0  0  0  0  0  0  0  0
  150.0028  128.9916  156.1582 C   0  0  0  0  0  0  0  0  0  0  0  0
  151.0723  128.9944  154.0736 O   0  0  0  0  0  0  0  0  0  0  0  0
  150.0811  131.0548  154.7008 C   0  0  0  0  0  0  0  0  0  0  0  0
  148.8955  130.6932  153.9345 N   0  0  0  0  0  0  0  0  0  0  0  0
  148.0837  131.6385  153.4167 C   0  0  0  0  0  0  0  0  0  0  0  0
  148.4730  132.9164  153.6335 N   0  0  0  0  0  0  0  0  0  0  0  0
  147.7369  133.9279  153.1700 C   0  0  0  0  0  0  0  0  0  0  0  0
  146.5999  133.8785  152.4766 N   0  0  0  0  0  0  0  0  0  0  0  0
  146.1930  132.5964  152.2452 C   0  0  0  0  0  0  0  0  0  0  0  0
  146.8791  131.4238  152.6817 C   0  0  0  0  0  0  0  0  0  0  0  0
  146.1749  130.3000  152.2684 N   0  0  0  0  0  0  0  0  0  0  0  0
  145.1388  130.7807  151.6403 C   0  0  0  0  0  0  0  0  0  0  0  0
  145.0694  132.1535  151.5636 N   0  0  0  0  0  0  0  0  0  0  0  0
  143.9550  132.9383  150.9232 C   0  0  1  0  0  0  0  0  0  0  0  0
  143.0130  133.2413  151.9017 O   0  0  0  0  0  0  0  0  0  0  0  0
  143.2690  134.5351  152.4288 C   0  0  2  0  0  0  0  0  0  0  0  0
  141.9872  135.1027  153.0572 C   0  0  0  0  0  0  0  0  0  0  0  0
  141.4113  134.1516  153.9273 O   0  0  0  0  0  0  0  0  0  0  0  0
  143.7438  135.3197  151.1953 C   0  0  1  0  0  0  0  0  0  0  0  0
  144.6731  136.3152  151.5730 O   0  0  0  0  0  0  0  0  0  0  0  0
  144.4047  134.2695  150.2959 C   0  0  2  0  0  0  0  0  0  0  0  0
  143.9270  134.3963  148.9715 O   0  0  0  0  0  0  0  0  0  0  0  0
  153.4690  129.9047  155.5454 C   0  0  0  0  0  0  0  0  0  0  0  0
  154.0890  129.0964  154.4536 C   0  0  0  0  0  0  0  0  0  0  0  0
  154.3522  130.4719  156.4137 O   0  0  0  0  0  0  0  0  0  0  0  0
  143.5323  132.2415  150.1979 H   0  0  0  0  0  0  0  0  0  0  0  0
  144.0611  134.4729  153.1750 H   0  0  0  0  0  0  0  0  0  0  0  0
  142.8916  135.7813  150.6930 H   0  0  0  0  0  0  0  0  0  0  0  0
  145.4917  134.3380  150.2695 H   0  0  0  0  0  0  0  0  0  0  0  0
  153.7412  132.5232  158.9710 H   0  0  0  0  0  0  0  0  0  0  0  0
  155.1687  132.5112  157.9342 H   0  0  0  0  0  0  0  0  0  0  0  0
  154.8761  131.1740  159.0494 H   0  0  0  0  0  0  0  0  0  0  0  0
  151.4926  131.5116  157.5976 H   0  0  0  0  0  0  0  0  0  0  0  0
  149.7382  129.5573  157.0523 H   0  0  0  0  0  0  0  0  0  0  0  0
  150.5234  128.0897  156.4832 H   0  0  0  0  0  0  0  0  0  0  0  0
  149.0705  128.6818  155.6841 H   0  0  0  0  0  0  0  0  0  0  0  0
  150.3470  128.3917  154.0137 H   0  0  0  0  0  0  0  0  0  0  0  0
  149.8146  131.7090  155.5321 H   0  0  0  0  0  0  0  0  0  0  0  0
  150.7260  131.6311  154.0357 H   0  0  0  0  0  0  0  0  0  0  0  0
  148.7714  129.7056  153.7643 H   0  0  0  0  0  0  0  0  0  0  0  0
  148.1105  134.9178  153.3855 H   0  0  0  0  0  0  0  0  0  0  0  0
  144.3847  130.1366  151.2118 H   0  0  0  0  0  0  0  0  0  0  0  0
  142.2218  135.9870  153.6503 H   0  0  0  0  0  0  0  0  0  0  0  0
  141.2693  135.4044  152.2938 H   0  0  0  0  0  0  0  0  0  0  0  0
  141.9432  133.3706  153.9149 H   0  0  0  0  0  0  0  0  0  0  0  0
  144.4262  137.1277  151.1585 H   0  0  0  0  0  0  0  0  0  0  0  0
  144.6685  134.4888  148.3929 H   0  0  0  0  0  0  0  0  0  0  0  0
  153.7761  128.0544  154.5189 H   0  0  0  0  0  0  0  0  0  0  0  0
  155.1777  129.1236  154.5101 H   0  0  0  0  0  0  0  0  0  0  0  0
  153.7953  129.4791  153.4760 H   0  0  0  0  0  0  0  0  0  0  0  0
  1  2  1  0  0  0  0
  1 35  1  0  0  0  0
  1 36  1  0  0  0  0
  1 37  1  0  0  0  0
  2 30  1  0  0  0  0
  2  3  2  0  0  0  0
  3  4  1  0  0  0  0
  3 38  1  0  0  0  0
  4  5  1  0  0  0  0
  4 28  2  0  0  0  0
  5  6  1  0  0  0  0
  5  7  1  0  0  0  0
  5  8  1  0  0  0  0
  6 39  1  0  0  0  0
  6 40  1  0  0  0  0
  6 41  1  0  0  0  0
  7 42  1  0  0  0  0
  8  9  1  0  0  0  0
  8 43  1  0  0  0  0
  8 44  1  0  0  0  0
  9 10  1  0  0  0  0
  9 45  1  0  0  0  0
 10 15  1  0  0  0  0
 10 11  2  0  0  0  0
 11 12  1  0  0  0  0
 12 13  2  0  0  0  0
 12 46  1  0  0  0  0
 13 14  1  0  0  0  0
 14 18  1  0  0  0  0
 14 15  2  0  0  0  0
 15 16  1  0  0  0  0
 16 17  2  0  0  0  0
 17 18  1  0  0  0  0
 17 47  1  0  0  0  0
 18 19  1  0  0  0  0
 19 31  1  0  0  0  0
 19 26  1  0  0  0  0
 19 20  1  0  0  0  0
 20 21  1  0  0  0  0
 21 32  1  0  0  0  0
 21 22  1  0  0  0  0
 21 24  1  0  0  0  0
 22 23  1  0  0  0  0
 22 48  1  0  0  0  0
 22 49  1  0  0  0  0
 23 50  1  0  0  0  0
 24 33  1  0  0  0  0
 24 25  1  0  0  0  0
 24 26  1  0  0  0  0
 25 51  1  0  0  0  0
 26 34  1  0  0  0  0
 26 27  1  0  0  0  0
 27 52  1  0  0  0  0
 28 29  1  0  0  0  0
 28 30  1  0  0  0  0
 29 53  1  0  0  0  0
 29 54  1  0  0  0  0
 29 55  1  0  0  0  0
M  END
> <s_m_source_file>
AV-unprocessed.smi

> <i_m_source_file_index>
287

> <i_lp_mmshare_version>
43012

> <i_f3d_flags>
0

> <s_epik_input>
W0NIM11jMVtjSF1jKGMobzEpW0NIM10pW0NAQF0oW0NIM10pKFtPSF0pW0NIMl1bTkhdYyhuW2NIXW4yKWMoYzIzKW5bY0hdbjNbQ0BASF00T1tDQEhdKFtDSDJdW09IXSlbQ0BASF0oW09IXSlbQ0BIXTRbT0hd

> <s_epik_cmdline>
J2VwaWtfcHl0aG9uJywgJy1waCcsICc3LjAnLCAnLXRuJywgJzgnLCAnLW1hJywgJzIwMCcsICctbWV0YWxfYmluZGluZycsICctaW1hZScsICc8aW5maWxlLm1hZT4nLCAnLW9tYWUnLCAnPG91dGZpbGUubWFlPic=

> <r_lp_tautomer_probability>
1

> <r_epik_Ionization_Penalty>
0.000992612

> <r_epik_Ionization_Penalty_Charging>
0

> <r_epik_Ionization_Penalty_Neutral>
0.000992612

> <r_epik_State_Penalty>
-0

> <r_epik_Charging_Adjusted_Penalty>
0

> <i_epik_Tot_Q>
0

> <i_epik_Tot_abs_Q>
0

> <r_epik_Metal_State_Penalty>
-0

> <b_epik_Metal_Only>
0

> <s_epik_Chemistry_Notes>
This compound contains an acetal/aminal-like group ( X-CH(R)-Y where X, Y are N, S, or O) that may be acid/base labile, releasing an aldehyde.

> <s_lp_Force_Field>
OPLS_2005

> <r_lp_Energy>
37.3025

> <b_lp_Chiralities_Consistent>
1

> <s_lp_Variant>
AV-unprocessed.smi:287-20

> <Gold.Version>
5.8.1

> <Gold.Id.Protein>
6NUR|6NUR_protein|mol2

> <Gold.PLP.Fitness>
58.4331

> <Gold.PLP.PLP>
-45.2527

> <Gold.PLP.part.hbond>
-6.0550

> <Gold.PLP.part.metal>
0.0000

> <Gold.PLP.part.buried>
-6.5761

> <Gold.PLP.part.nonpolar>
-33.7331

> <Gold.PLP.part.repulsive>
0.7068

> <Gold.PLP.ligand.clash>
0.0000

> <Gold.PLP.ligand.torsion>
0.8502

> <Gold.PLP.Chemscore.Hbond>
3.9913

> <Gold.PLP.Chemscore.CHOScore>
0.9383

> <Gold.PLP.Chemscore.Metal>
0.0000

> <Gold.Chemscore.Hbonds>
donor molecule, donor type, donor heavy atom, donor atom, acceptor molecule, acceptor atom, score
      L1  H    23    50       P1 10957  1.00
      L1  H    25    51       P1 10171  0.93
      L1  H    27    52       P1  7921  1.00
      P1  H 11000 11005       L1    23  1.00
      L1  C    12    46       P1  7948  0.84

> <Gold.PLP.Chemscore.Internal.Correction>
0.0924

> <Gold.Rescore>
     Score         DG    S(hbond)    S(metal)    S(lipo)     H(rot)  DE(clash)    DE(int)     intcor
      9.80     -12.04       3.48        0.00      71.84       5.27       0.55       1.69       ----

> <Gold.Chemscore.Fitness>
9.7953

> <Gold.Chemscore.DG>
-12.0362

> <Gold.Chemscore.ZeroCoef>
-5.4800

> <Gold.Chemscore.Hbond>
3.4836

> <Gold.Chemscore.Metal>
0.0000

> <Gold.Chemscore.Lipo>
71.8373

> <Gold.Chemscore.Internal_Hbond>
0.0000

> <Gold.Chemscore.DEClash>
0.5472

> <Gold.Chemscore.DEInternal>
1.6938

> <Gold.Chemscore.Rot>
5.2672

> <Gold.Chemscore.Internal.Correction>
   9.000000E+99

> <Gold.Chemscore.Hbonds>
donor molecule, donor type, donor heavy atom, donor atom, acceptor molecule, acceptor atom, score
      L1  H    23    50       P1 10957  0.95
      L1  H    25    51       P1 10171  0.89
      L1  H    27    52       P1  7921  1.00
      P1  H 11000 11005       L1    23  0.38

> <Gold.Chemscore.Hbond.Weighted>
-11.6352

> <Gold.Chemscore.Metal.Weighted>
-0.0000

> <Gold.Chemscore.Lipo.Weighted>
-8.4050

> <Gold.Chemscore.Internal_Hbond.Weighted>
0.0000

> <Gold.Chemscore.DEClash.Weighted>
0.5472

> <Gold.Chemscore.DEInternal.Weighted>
1.6938

> <Gold.Chemscore.Rot.Weighted>
13.4839

> <Gold.Chemscore.Internal.Correction.Weighted>
   9.000000E+99

> <Gold.Protein.RotatedTorsions>
[ 6907 6896 6895 6894 ] final -131.71 input  -60.11 | X-H torsion
[ 7974 7965 7964 7962 ] final   91.71 input  175.53 | X-H torsion
[ 8008 7997 7996 7995 ] final  -29.45 input   59.86 | X-H torsion
[ 10167 10162 10161 10158 ] final   24.13 input  -65.29 | X-H torsion
[ 10718 10713 10712 10709 ] final   84.64 input   66.30 | X-H torsion
[ 10763 10752 10751 10750 ] final   83.12 input  -60.55 | X-H torsion
[ 11005 11000 10999 10996 ] final   12.21 input  -57.11 | X-H torsion

> <Gold.Protein.ActiveResidues>
 VAL166  LYS551  ARG553  GLY616  TRP617  ASP618  TYR619  PRO620  LYS621  CYS622 
 ASP623  PHE694  ASN695  SER759  ASP760  ASP761  ALA762  ILE779  LEU786  VAL792 
 PHE793  MET794  SER795  GLU796  ALA797  LYS798  CYS799  TRP800  GLU811  SER814 

> <Gold.Protein.RotatedAtoms>
  150.9541  133.6517  159.2766 H   0  0  0  0  0  0  0  0  0  0  0  0  # atno 6907 bound_to 6896
  151.3862  135.0947  159.9521 H   0  0  0  0  0  0  0  0  0  0  0  0  # atno 6908 bound_to 6896
  152.5122  133.9065  159.7521 H   0  0  0  0  0  0  0  0  0  0  0  0  # atno 6909 bound_to 6896
  145.5020  139.2276  143.2772 H   0  0  0  0  0  0  0  0  0  0  0  0  # atno 7974 bound_to 7965
  154.4289  140.1818  156.1250 H   0  0  0  0  0  0  0  0  0  0  0  0  # atno 8008 bound_to 7997
  156.0113  140.3350  155.6918 H   0  0  0  0  0  0  0  0  0  0  0  0  # atno 8009 bound_to 7997
  155.6107  140.0649  157.2697 H   0  0  0  0  0  0  0  0  0  0  0  0  # atno 8010 bound_to 7997
  140.5213  143.9997  150.6418 H   0  0  0  0  0  0  0  0  0  0  0  0  # atno 10167 bound_to 10162
  157.6901  131.0141  150.2703 H   0  0  0  0  0  0  0  0  0  0  0  0  # atno 10718 bound_to 10713
  153.1263  135.4703  154.9277 H   0  0  0  0  0  0  0  0  0  0  0  0  # atno 10763 bound_to 10752
  154.7623  135.3135  154.8357 H   0  0  0  0  0  0  0  0  0  0  0  0  # atno 10764 bound_to 10752
  153.8909  135.6885  153.4814 H   0  0  0  0  0  0  0  0  0  0  0  0  # atno 10765 bound_to 10752
  140.4945  134.0807  155.7779 H   0  0  0  0  0  0  0  0  0  0  0  0  # atno 11005 bound_to 11000
  146.2220  140.5821  142.9013 LP  0  0  0  0  0  0  0  0  0  0  0  0  # atno 17320 bound_to 7965
  144.7775  140.5770  143.6628 LP  0  0  0  0  0  0  0  0  0  0  0  0  # atno 17321 bound_to 7965
  140.3347  143.3056  152.0651 LP  0  0  0  0  0  0  0  0  0  0  0  0  # atno 17342 bound_to 10162
  139.4924  144.6485  151.6728 LP  0  0  0  0  0  0  0  0  0  0  0  0  # atno 17343 bound_to 10162
  156.3267  130.3794  149.7527 LP  0  0  0  0  0  0  0  0  0  0  0  0  # atno 17370 bound_to 10713
  156.5080  130.8159  151.3158 LP  0  0  0  0  0  0  0  0  0  0  0  0  # atno 17371 bound_to 10713
  141.1467  133.9042  157.2198 LP  0  0  0  0  0  0  0  0  0  0  0  0  # atno 17394 bound_to 11000
  139.9749  135.0117  156.9607 LP  0  0  0  0  0  0  0  0  0  0  0  0  # atno 17395 bound_to 11000

$$$$
