AV-unprocessed.smi:1473|AV-procd|sdf|5971|dock4
  -GOLD-   22720 6 63D 1   1.00000     0.00000
 Structure written by MMmdl.
 32 33  0  0  0  0  0  0  0  0  3 V2000
  154.5307  138.6912  157.8954 N   0  5  0  0  0  0  0  0  0  0  0  0
  153.7505  137.5497  157.0511 S   0  0  0  0  0  0  0  0  0  0  0  0
  154.6299  136.3855  156.8647 O   0  0  0  0  0  0  0  0  0  0  0  0
  152.4329  137.2519  157.6401 O   0  0  0  0  0  0  0  0  0  0  0  0
  153.6469  138.3926  155.6581 N   0  5  0  0  0  0  0  0  0  0  0  0
  152.4134  138.4642  154.8789 C   0  0  0  0  0  0  0  0  0  0  0  0
  151.5375  139.6266  155.3248 C   0  0  0  0  0  0  0  0  0  0  0  0
  150.3215  139.9095  154.6647 C   0  0  0  0  0  0  0  0  0  0  0  0
  149.5555  141.0005  155.1135 C   0  0  0  0  0  0  0  0  0  0  0  0
  149.9183  141.7873  156.1475 N   0  0  0  0  0  0  0  0  0  0  0  0
  151.0810  141.5243  156.7940 C   0  0  0  0  0  0  0  0  0  0  0  0
  151.4454  142.3542  157.8768 N   0  0  0  0  0  0  0  0  0  0  0  0
  151.5061  143.7838  157.5832 C   0  0  0  0  0  0  0  0  0  0  0  0
  151.6076  144.5951  158.8866 C   0  0  0  0  0  0  0  0  0  0  0  0
  152.7161  144.1394  159.6554 O   0  0  0  0  0  0  0  0  0  0  0  0
  152.5766  142.7714  160.0244 C   0  0  0  0  0  0  0  0  0  0  0  0
  152.5166  141.8979  158.7602 C   0  0  0  0  0  0  0  0  0  0  0  0
  151.9211  140.4529  156.4064 C   0  0  0  0  0  0  0  0  0  0  0  0
  154.8028  139.4395  157.2469 H   0  0  0  0  0  0  0  0  0  0  0  0
  152.6144  138.5863  153.8137 H   0  0  0  0  0  0  0  0  0  0  0  0
  151.8259  137.5486  154.9603 H   0  0  0  0  0  0  0  0  0  0  0  0
  149.9756  139.3187  153.8275 H   0  0  0  0  0  0  0  0  0  0  0  0
  148.6227  141.2478  154.6288 H   0  0  0  0  0  0  0  0  0  0  0  0
  152.3773  143.9764  156.9558 H   0  0  0  0  0  0  0  0  0  0  0  0
  150.6339  144.1203  157.0247 H   0  0  0  0  0  0  0  0  0  0  0  0
  151.7441  145.6525  158.6598 H   0  0  0  0  0  0  0  0  0  0  0  0
  150.6884  144.5108  159.4685 H   0  0  0  0  0  0  0  0  0  0  0  0
  153.4272  142.4810  160.6409 H   0  0  0  0  0  0  0  0  0  0  0  0
  151.6811  142.6369  160.6333 H   0  0  0  0  0  0  0  0  0  0  0  0
  152.3527  140.8583  159.0469 H   0  0  0  0  0  0  0  0  0  0  0  0
  153.4681  141.9451  158.2288 H   0  0  0  0  0  0  0  0  0  0  0  0
  152.8562  140.2803  156.9217 H   0  0  0  0  0  0  0  0  0  0  0  0
  1  2  1  0  0  0  0
  1 19  1  0  0  0  0
  2  3  2  0  0  0  0
  2  4  2  0  0  0  0
  2  5  1  0  0  0  0
  5  6  1  0  0  0  0
  6  7  1  0  0  0  0
  6 20  1  0  0  0  0
  6 21  1  0  0  0  0
  7 18  1  0  0  0  0
  7  8  2  0  0  0  0
  8  9  1  0  0  0  0
  8 22  1  0  0  0  0
  9 10  2  0  0  0  0
  9 23  1  0  0  0  0
 10 11  1  0  0  0  0
 11 12  1  0  0  0  0
 11 18  2  0  0  0  0
 12 17  1  0  0  0  0
 12 13  1  0  0  0  0
 13 14  1  0  0  0  0
 13 24  1  0  0  0  0
 13 25  1  0  0  0  0
 14 15  1  0  0  0  0
 14 26  1  0  0  0  0
 14 27  1  0  0  0  0
 15 16  1  0  0  0  0
 16 17  1  0  0  0  0
 16 28  1  0  0  0  0
 16 29  1  0  0  0  0
 17 30  1  0  0  0  0
 17 31  1  0  0  0  0
 18 32  1  0  0  0  0
M  CHG  1   1  -1
M  CHG  1   5  -1
M  END
> <s_m_source_file>
AV-unprocessed.smi

> <i_m_source_file_index>
1473

> <i_lp_mmshare_version>
43012

> <i_f3d_flags>
0

> <s_epik_input>
W05IMl1TKD1PKSg9TylbTkhdW0NIMl1jMVtjSF1bY0hdbmMoW2NIXTEpTjJbQ0gyXVtDSDJdT1tDSDJdW0NIMl0y

> <s_epik_cmdline>
J2VwaWtfcHl0aG9uJywgJy1waCcsICc3LjAnLCAnLXRuJywgJzgnLCAnLW1hJywgJzIwMCcsICctbWV0YWxfYmluZGluZycsICctaW1hZScsICc8aW5maWxlLm1hZT4nLCAnLW9tYWUnLCAnPG91dGZpbGUubWFlPic=

> <r_lp_tautomer_probability>
1

> <r_epik_Ionization_Penalty>
9.31635

> <r_epik_Ionization_Penalty_Charging>
9.0542

> <r_epik_Ionization_Penalty_Neutral>
0.262148

> <r_epik_State_Penalty>
4.75451

> <r_epik_Charging_Adjusted_Penalty>
13.8087

> <i_epik_Tot_Q>
-2

> <i_epik_Tot_abs_Q>
2

> <r_epik_Metal_State_Penalty>
1.32914

> <b_epik_Metal_Only>
1

> <s_lp_Force_Field>
OPLS_2005

> <r_lp_Energy>
19.9679

> <b_lp_Chiralities_Consistent>
1

> <s_lp_Variant>
AV-unprocessed.smi:1473-6

> <Gold.Version>
5.8.1

> <Gold.Id.Protein>
6NUR|6NUR_protein|mol2

> <Gold.PLP.Fitness>
41.9121

> <Gold.PLP.PLP>
-34.9795

> <Gold.PLP.part.hbond>
-3.0000

> <Gold.PLP.part.metal>
0.0000

> <Gold.PLP.part.buried>
-3.0320

> <Gold.PLP.part.nonpolar>
-29.6181

> <Gold.PLP.part.repulsive>
0.7025

> <Gold.PLP.ligand.clash>
0.0000

> <Gold.PLP.ligand.torsion>
0.9339

> <Gold.PLP.Chemscore.Hbond>
2.4823

> <Gold.PLP.Chemscore.CHOScore>
0.0000

> <Gold.PLP.Chemscore.Metal>
0.0000

> <Gold.Chemscore.Hbonds>
donor molecule, donor type, donor heavy atom, donor atom, acceptor molecule, acceptor atom, score
      P1  H  7997  8008       L1     5  1.41
      P1  H 10752 10764       L1     3  0.75

> <Gold.PLP.Chemscore.Internal.Correction>
1.3536

> <Gold.Rescore>
     Score         DG    S(hbond)    S(metal)    S(lipo)     H(rot)  DE(clash)    DE(int)     intcor
     14.16     -15.29       1.66        0.00      77.12       1.86       0.21       0.92       ----

> <Gold.Chemscore.Fitness>
14.1626

> <Gold.Chemscore.DG>
-15.2885

> <Gold.Chemscore.ZeroCoef>
-5.4800

> <Gold.Chemscore.Hbond>
1.6611

> <Gold.Chemscore.Metal>
0.0000

> <Gold.Chemscore.Lipo>
77.1231

> <Gold.Chemscore.Internal_Hbond>
0.0000

> <Gold.Chemscore.DEClash>
0.2107

> <Gold.Chemscore.DEInternal>
0.9152

> <Gold.Chemscore.Rot>
1.8606

> <Gold.Chemscore.Internal.Correction>
   9.000000E+99

> <Gold.Chemscore.Hbonds>
donor molecule, donor type, donor heavy atom, donor atom, acceptor molecule, acceptor atom, score
      P1  H  7997  8008       L1     5  0.16
      P1  H 10752 10764       L1     3  0.33

> <Gold.Chemscore.Hbond.Weighted>
-5.5482

> <Gold.Chemscore.Metal.Weighted>
-0.0000

> <Gold.Chemscore.Lipo.Weighted>
-9.0234

> <Gold.Chemscore.Internal_Hbond.Weighted>
0.0000

> <Gold.Chemscore.DEClash.Weighted>
0.2107

> <Gold.Chemscore.DEInternal.Weighted>
0.9152

> <Gold.Chemscore.Rot.Weighted>
4.7631

> <Gold.Chemscore.Internal.Correction.Weighted>
   9.000000E+99

> <Gold.Protein.RotatedTorsions>
[ 6907 6896 6895 6894 ] final   18.45 input  -60.11 | X-H torsion
[ 7974 7965 7964 7962 ] final -178.56 input  175.53 | X-H torsion
[ 8008 7997 7996 7995 ] final  -37.98 input   59.86 | X-H torsion
[ 10167 10162 10161 10158 ] final    8.35 input  -65.29 | X-H torsion
[ 10718 10713 10712 10709 ] final  -21.84 input   66.30 | X-H torsion
[ 10763 10752 10751 10750 ] final    9.99 input  -60.55 | X-H torsion
[ 11005 11000 10999 10996 ] final  133.50 input  -57.11 | X-H torsion

> <Gold.Protein.ActiveResidues>
 VAL166  LYS551  ARG553  GLY616  TRP617  ASP618  TYR619  PRO620  LYS621  CYS622 
 ASP623  PHE694  ASN695  SER759  ASP760  ASP761  ALA762  ILE779  LEU786  VAL792 
 PHE793  MET794  SER795  GLU796  ALA797  LYS798  CYS799  TRP800  GLU811  SER814 

> <Gold.Protein.RotatedAtoms>
  151.8655  135.0508  160.0473 H   0  0  0  0  0  0  0  0  0  0  0  0  # atno 6907 bound_to 6896
  152.2629  133.5309  159.5401 H   0  0  0  0  0  0  0  0  0  0  0  0  # atno 6908 bound_to 6896
  150.7123  134.0720  159.3910 H   0  0  0  0  0  0  0  0  0  0  0  0  # atno 6909 bound_to 6896
  144.7131  140.0850  143.6424 H   0  0  0  0  0  0  0  0  0  0  0  0  # atno 7974 bound_to 7965
  154.4044  140.1590  156.2626 H   0  0  0  0  0  0  0  0  0  0  0  0  # atno 8008 bound_to 7997
  155.9023  140.3432  155.6013 H   0  0  0  0  0  0  0  0  0  0  0  0  # atno 8009 bound_to 7997
  155.7433  140.0795  157.2226 H   0  0  0  0  0  0  0  0  0  0  0  0  # atno 8010 bound_to 7997
  140.6319  143.7974  150.7307 H   0  0  0  0  0  0  0  0  0  0  0  0  # atno 10167 bound_to 10162
  156.5127  130.4614  149.6639 H   0  0  0  0  0  0  0  0  0  0  0  0  # atno 10718 bound_to 10713
  153.2080  135.6865  153.8148 H   0  0  0  0  0  0  0  0  0  0  0  0  # atno 10763 bound_to 10752
  153.7391  135.3241  155.3301 H   0  0  0  0  0  0  0  0  0  0  0  0  # atno 10764 bound_to 10752
  154.8207  135.4654  154.0876 H   0  0  0  0  0  0  0  0  0  0  0  0  # atno 10765 bound_to 10752
  139.9856  134.9533  156.9734 H   0  0  0  0  0  0  0  0  0  0  0  0  # atno 11005 bound_to 11000
  145.9669  139.2841  143.1122 LP  0  0  0  0  0  0  0  0  0  0  0  0  # atno 17320 bound_to 7965
  145.9159  140.9148  143.0430 LP  0  0  0  0  0  0  0  0  0  0  0  0  # atno 17321 bound_to 7965
  140.1587  143.4294  152.2082 LP  0  0  0  0  0  0  0  0  0  0  0  0  # atno 17342 bound_to 10162
  139.5532  144.7354  151.4371 LP  0  0  0  0  0  0  0  0  0  0  0  0  # atno 17343 bound_to 10162
  156.3225  130.7288  151.2202 LP  0  0  0  0  0  0  0  0  0  0  0  0  # atno 17370 bound_to 10713
  157.7448  131.0452  150.4830 LP  0  0  0  0  0  0  0  0  0  0  0  0  # atno 17371 bound_to 10713
  140.5009  134.1098  155.7250 LP  0  0  0  0  0  0  0  0  0  0  0  0  # atno 17394 bound_to 11000
  141.1521  133.8949  157.2070 LP  0  0  0  0  0  0  0  0  0  0  0  0  # atno 17395 bound_to 11000

$$$$
