AV-unprocessed.smi:911|AV-procd|sdf|4138|dock4
  -GOLD-   22720 2 43D 1   1.00000     0.00000
 Structure written by MMmdl.
 47 49  0  0  0  0  0  0  0  0  3 V2000
  144.6768  136.4187  160.8683 C   0  0  0  0  0  0  0  0  0  0  0  0
  145.0959  135.1229  161.6194 C   0  0  0  0  0  0  0  0  0  0  0  0
  144.2316  135.1075  162.9118 C   0  0  0  0  0  0  0  0  0  0  0  0
  144.9949  133.8376  160.7735 C   0  0  2  0  0  0  0  0  0  0  0  0
  145.5627  132.7441  161.7071 C   0  0  0  0  0  0  0  0  0  0  0  0
  146.6792  133.4953  162.4624 C   0  0  0  0  0  0  0  0  0  0  0  0
  146.6213  134.9134  161.8375 C   0  0  2  0  0  0  0  0  0  0  0  0
  147.3265  135.9705  162.7103 C   0  0  0  0  0  0  0  0  0  0  0  0
  147.2025  134.7388  160.3988 C   0  0  2  0  0  0  0  0  0  0  0  0
  147.5872  136.0030  159.7780 N   0  0  0  0  0  0  0  0  0  0  0  0
  148.5486  136.2018  158.8613 C   0  0  0  0  0  0  0  0  0  0  0  0
  149.2084  135.2882  158.3682 O   0  0  0  0  0  0  0  0  0  0  0  0
  148.8456  137.6539  158.4471 C   0  0  0  0  0  0  0  0  0  0  0  0
  150.2412  137.8907  158.0320 N   0  0  0  0  0  0  0  0  0  0  0  0
  150.4309  138.4782  156.7654 C   0  0  0  0  0  0  0  0  0  0  0  0
  151.6573  138.6939  156.2519 C   0  0  0  0  0  0  0  0  0  0  0  0
  151.8302  139.2648  154.9347 N   0  3  0  0  0  0  0  0  0  0  0  0
  150.8356  139.6326  154.3180 O   0  0  0  0  0  0  0  0  0  0  0  0
  152.9637  139.3687  154.4755 O   0  5  0  0  0  0  0  0  0  0  0  0
  152.8013  138.3125  157.0568 C   0  0  0  0  0  0  0  0  0  0  0  0
  152.6270  137.7459  158.2671 C   0  0  0  0  0  0  0  0  0  0  0  0
  151.2902  137.4940  158.8155 C   0  0  0  0  0  0  0  0  0  0  0  0
  151.1249  136.9483  159.9061 O   0  0  0  0  0  0  0  0  0  0  0  0
  146.0381  134.0501  159.6526 C   0  0  0  0  0  0  0  0  0  0  0  0
  143.5975  136.4414  160.7154 H   0  0  0  0  0  0  0  0  0  0  0  0
  145.1155  136.5503  159.8834 H   0  0  0  0  0  0  0  0  0  0  0  0
  144.9340  137.3051  161.4489 H   0  0  0  0  0  0  0  0  0  0  0  0
  144.3996  134.2601  163.5725 H   0  0  0  0  0  0  0  0  0  0  0  0
  143.1700  135.0956  162.6632 H   0  0  0  0  0  0  0  0  0  0  0  0
  144.4102  136.0037  163.5068 H   0  0  0  0  0  0  0  0  0  0  0  0
  143.9969  133.6105  160.3975 H   0  0  0  0  0  0  0  0  0  0  0  0
  144.8044  132.3670  162.3937 H   0  0  0  0  0  0  0  0  0  0  0  0
  145.9473  131.8866  161.1536 H   0  0  0  0  0  0  0  0  0  0  0  0
  146.4830  133.5143  163.5346 H   0  0  0  0  0  0  0  0  0  0  0  0
  147.6520  133.0185  162.3370 H   0  0  0  0  0  0  0  0  0  0  0  0
  148.3927  135.7584  162.7919 H   0  0  0  0  0  0  0  0  0  0  0  0
  146.9167  135.9874  163.7200 H   0  0  0  0  0  0  0  0  0  0  0  0
  147.2191  136.9745  162.2995 H   0  0  0  0  0  0  0  0  0  0  0  0
  148.0682  134.0741  160.4109 H   0  0  0  0  0  0  0  0  0  0  0  0
  147.1005  136.8207  160.1150 H   0  0  0  0  0  0  0  0  0  0  0  0
  148.1741  137.9176  157.6286 H   0  0  0  0  0  0  0  0  0  0  0  0
  148.5597  138.3129  159.2684 H   0  0  0  0  0  0  0  0  0  0  0  0
  149.5152  138.7137  156.2420 H   0  0  0  0  0  0  0  0  0  0  0  0
  153.8056  138.4778  156.6952 H   0  0  0  0  0  0  0  0  0  0  0  0
  153.4935  137.4681  158.8493 H   0  0  0  0  0  0  0  0  0  0  0  0
  146.3481  133.1095  159.1957 H   0  0  0  0  0  0  0  0  0  0  0  0
  145.6379  134.6685  158.8485 H   0  0  0  0  0  0  0  0  0  0  0  0
  1  2  1  0  0  0  0
  1 25  1  0  0  0  0
  1 26  1  0  0  0  0
  1 27  1  0  0  0  0
  2  7  1  0  0  0  0
  2  3  1  0  0  0  0
  2  4  1  0  0  0  0
  3 28  1  0  0  0  0
  3 29  1  0  0  0  0
  3 30  1  0  0  0  0
  4 24  1  0  0  0  0
  4  5  1  0  0  0  0
  4 31  1  0  0  0  0
  5  6  1  0  0  0  0
  5 32  1  0  0  0  0
  5 33  1  0  0  0  0
  6  7  1  0  0  0  0
  6 34  1  0  0  0  0
  6 35  1  0  0  0  0
  7  8  1  0  0  0  0
  7  9  1  0  0  0  0
  8 36  1  0  0  0  0
  8 37  1  0  0  0  0
  8 38  1  0  0  0  0
  9 10  1  0  0  0  0
  9 24  1  0  0  0  0
  9 39  1  0  0  0  0
 10 11  1  0  0  0  0
 10 40  1  0  0  0  0
 11 12  2  0  0  0  0
 11 13  1  0  0  0  0
 13 14  1  0  0  0  0
 13 41  1  0  0  0  0
 13 42  1  0  0  0  0
 14 22  1  0  0  0  0
 14 15  1  0  0  0  0
 15 16  2  0  0  0  0
 15 43  1  0  0  0  0
 16 17  1  0  0  0  0
 16 20  1  0  0  0  0
 17 18  2  0  0  0  0
 17 19  1  0  0  0  0
 20 21  2  0  0  0  0
 20 44  1  0  0  0  0
 21 22  1  0  0  0  0
 21 45  1  0  0  0  0
 22 23  2  0  0  0  0
 24 46  1  0  0  0  0
 24 47  1  0  0  0  0
M  CHG  1  17   1
M  CHG  1  19  -1
M  END
> <s_m_source_file>
AV-unprocessed.smi

> <i_m_source_file_index>
911

> <i_lp_mmshare_version>
43012

> <i_f3d_flags>
0

> <s_epik_input>
W0NIM11bQ0BdMTJDKFtDSDNdKShbQ0gzXSlbQ0BIXShbQ0gyXVtDSDJdMSlbQ0gyXVtDQEBIXTJbTkhdQyg9TylbQ0gyXW4zW2NIXWMoW04rXSg9TylbTy1dKVtjSF1bY0hdYzM9Tw==

> <s_epik_cmdline>
J2VwaWtfcHl0aG9uJywgJy1waCcsICc3LjAnLCAnLXRuJywgJzgnLCAnLW1hJywgJzIwMCcsICctbWV0YWxfYmluZGluZycsICctaW1hZScsICc8aW5maWxlLm1hZT4nLCAnLW9tYWUnLCAnPG91dGZpbGUubWFlPic=

> <r_lp_tautomer_probability>
1

> <r_epik_Ionization_Penalty>
2.04092e-08

> <r_epik_Ionization_Penalty_Charging>
8.54191e-11

> <r_epik_Ionization_Penalty_Neutral>
2.03238e-08

> <r_epik_State_Penalty>
-0

> <r_epik_Charging_Adjusted_Penalty>
8.54191e-11

> <i_epik_Tot_Q>
0

> <i_epik_Tot_abs_Q>
2

> <r_epik_Metal_State_Penalty>
-0

> <b_epik_Metal_Only>
0

> <s_lp_Force_Field>
OPLS_2005

> <r_lp_Energy>
66.6033

> <b_lp_Chiralities_Consistent>
1

> <s_lp_Variant>
AV-unprocessed.smi:911-3

> <Gold.Version>
5.8.1

> <Gold.Id.Protein>
6NUR|6NUR_protein|mol2

> <Gold.PLP.Fitness>
42.1813

> <Gold.PLP.PLP>
-34.7560

> <Gold.PLP.part.hbond>
-5.0706

> <Gold.PLP.part.metal>
0.0000

> <Gold.PLP.part.buried>
-3.1603

> <Gold.PLP.part.nonpolar>
-26.5101

> <Gold.PLP.part.repulsive>
0.2568

> <Gold.PLP.ligand.clash>
0.0000

> <Gold.PLP.ligand.torsion>
0.8031

> <Gold.PLP.Chemscore.Hbond>
3.0000

> <Gold.PLP.Chemscore.CHOScore>
0.0000

> <Gold.PLP.Chemscore.Metal>
0.0000

> <Gold.Chemscore.Hbonds>
donor molecule, donor type, donor heavy atom, donor atom, acceptor molecule, acceptor atom, score
      P1  H  6896  6907       L1    23  1.00
      P1  H  7989  7998       L1    18  0.75
      P1  H  7997  8010       L1    19  0.57

> <Gold.PLP.Chemscore.Internal.Correction>
0.0314

> <Gold.Rescore>
     Score         DG    S(hbond)    S(metal)    S(lipo)     H(rot)  DE(clash)    DE(int)     intcor
     16.61     -19.30       2.77        0.00      72.53       1.53       0.00       2.68       ----

> <Gold.Chemscore.Fitness>
16.6141

> <Gold.Chemscore.DG>
-19.2960

> <Gold.Chemscore.ZeroCoef>
-5.4800

> <Gold.Chemscore.Hbond>
2.7669

> <Gold.Chemscore.Metal>
0.0000

> <Gold.Chemscore.Lipo>
72.5250

> <Gold.Chemscore.Internal_Hbond>
0.0000

> <Gold.Chemscore.DEClash>
0.0009

> <Gold.Chemscore.DEInternal>
2.6810

> <Gold.Chemscore.Rot>
1.5277

> <Gold.Chemscore.Internal.Correction>
   9.000000E+99

> <Gold.Chemscore.Hbonds>
donor molecule, donor type, donor heavy atom, donor atom, acceptor molecule, acceptor atom, score
      P1  H  6896  6907       L1    23  0.90
      P1  H  7989  7998       L1    18  0.09
      P1  H  7997  8010       L1    19  0.57

> <Gold.Chemscore.Hbond.Weighted>
-9.2416

> <Gold.Chemscore.Metal.Weighted>
-0.0000

> <Gold.Chemscore.Lipo.Weighted>
-8.4854

> <Gold.Chemscore.Internal_Hbond.Weighted>
0.0000

> <Gold.Chemscore.DEClash.Weighted>
0.0009

> <Gold.Chemscore.DEInternal.Weighted>
2.6810

> <Gold.Chemscore.Rot.Weighted>
3.9110

> <Gold.Chemscore.Internal.Correction.Weighted>
   9.000000E+99

> <Gold.Protein.RotatedTorsions>
[ 6907 6896 6895 6894 ] final  -26.83 input  -60.11 | X-H torsion
[ 7974 7965 7964 7962 ] final    4.24 input  175.53 | X-H torsion
[ 8008 7997 7996 7995 ] final  115.29 input   59.86 | X-H torsion
[ 10167 10162 10161 10158 ] final  -16.21 input  -65.29 | X-H torsion
[ 10718 10713 10712 10709 ] final -116.83 input   66.30 | X-H torsion
[ 10763 10752 10751 10750 ] final -152.87 input  -60.55 | X-H torsion
[ 11005 11000 10999 10996 ] final -133.54 input  -57.11 | X-H torsion

> <Gold.Protein.ActiveResidues>
 VAL166  LYS551  ARG553  GLY616  TRP617  ASP618  TYR619  PRO620  LYS621  CYS622 
 ASP623  PHE694  ASN695  SER759  ASP760  ASP761  ALA762  ILE779  LEU786  VAL792 
 PHE793  MET794  SER795  GLU796  ALA797  LYS798  CYS799  TRP800  GLU811  SER814 

> <Gold.Protein.RotatedAtoms>
  151.1554  135.0247  159.8686 H   0  0  0  0  0  0  0  0  0  0  0  0  # atno 6907 bound_to 6896
  152.5452  134.1340  159.8461 H   0  0  0  0  0  0  0  0  0  0  0  0  # atno 6908 bound_to 6896
  151.1430  133.4912  159.2629 H   0  0  0  0  0  0  0  0  0  0  0  0  # atno 6909 bound_to 6896
  146.2444  140.0564  142.8371 H   0  0  0  0  0  0  0  0  0  0  0  0  # atno 7974 bound_to 7965
  156.2372  140.2941  156.0346 H   0  0  0  0  0  0  0  0  0  0  0  0  # atno 8008 bound_to 7997
  155.2056  140.0411  157.2942 H   0  0  0  0  0  0  0  0  0  0  0  0  # atno 8009 bound_to 7997
  154.6101  140.2449  155.7687 H   0  0  0  0  0  0  0  0  0  0  0  0  # atno 8010 bound_to 7997
  140.7230  143.5140  150.9715 H   0  0  0  0  0  0  0  0  0  0  0  0  # atno 10167 bound_to 10162
  156.0991  130.6157  150.9086 H   0  0  0  0  0  0  0  0  0  0  0  0  # atno 10718 bound_to 10713
  154.7966  135.3226  154.7653 H   0  0  0  0  0  0  0  0  0  0  0  0  # atno 10763 bound_to 10752
  153.8330  135.6877  153.4816 H   0  0  0  0  0  0  0  0  0  0  0  0  # atno 10764 bound_to 10752
  153.1660  135.4642  154.9780 H   0  0  0  0  0  0  0  0  0  0  0  0  # atno 10765 bound_to 10752
  140.9071  134.1615  157.4417 H   0  0  0  0  0  0  0  0  0  0  0  0  # atno 11005 bound_to 11000
  145.0938  140.9302  143.4753 LP  0  0  0  0  0  0  0  0  0  0  0  0  # atno 17320 bound_to 7965
  145.0743  139.3008  143.5816 LP  0  0  0  0  0  0  0  0  0  0  0  0  # atno 17321 bound_to 7965
  139.8854  143.7019  152.3152 LP  0  0  0  0  0  0  0  0  0  0  0  0  # atno 17342 bound_to 10162
  139.7316  144.7581  151.0793 LP  0  0  0  0  0  0  0  0  0  0  0  0  # atno 17343 bound_to 10162
  157.6157  131.0933  150.8714 LP  0  0  0  0  0  0  0  0  0  0  0  0  # atno 17370 bound_to 10713
  156.8846  130.5191  149.5289 LP  0  0  0  0  0  0  0  0  0  0  0  0  # atno 17371 bound_to 10713
  139.8751  134.9921  156.5582 LP  0  0  0  0  0  0  0  0  0  0  0  0  # atno 17394 bound_to 11000
  140.8156  133.8394  155.8849 LP  0  0  0  0  0  0  0  0  0  0  0  0  # atno 17395 bound_to 11000

$$$$
