AV-unprocessed.smi:1251|AV-procd|sdf|5261|dock5
  -GOLD-   22720 4373D 1   1.00000     0.00000
 Structure written by MMmdl.
 38 39  0  0  0  0  0  0  0  0  2 V2000
  142.3716  134.4906  163.4312 C   0  0  0  0  0  0  0  0  0  0  0  0
  143.4433  135.2871  162.6788 C   0  0  0  0  0  0  0  0  0  0  0  0
  144.8353  134.6487  162.7854 C   0  0  0  0  0  0  0  0  0  0  0  0
  145.8546  135.3556  161.9559 C   0  0  0  0  0  0  0  0  0  0  0  0
  145.6676  136.5852  161.4695 N   0  0  0  0  0  0  0  0  0  0  0  0
  146.7457  137.0161  160.7102 N   0  0  0  0  0  0  0  0  0  0  0  0
  147.7197  136.1002  160.6128 C   0  0  0  0  0  0  0  0  0  0  0  0
  148.8518  136.3215  159.9248 N   0  5  0  0  0  0  0  0  0  0  0  0
  148.8403  137.1406  158.8485 C   0  0  0  0  0  0  0  0  0  0  0  0
  147.8902  137.3306  158.0854 O   0  0  0  0  0  0  0  0  0  0  0  0
  150.0021  137.7784  158.6460 N   0  0  0  0  0  0  0  0  0  0  0  0
  150.2984  138.7172  157.5659 C   0  0  1  0  0  0  0  0  0  0  0  0
  150.9314  139.9917  158.1514 C   0  0  0  0  0  0  0  0  0  0  0  0
  151.2168  138.0256  156.5405 C   0  0  2  0  0  0  0  0  0  0  0  0
  151.3785  138.7697  155.2153 C   0  0  0  0  0  0  0  0  0  0  0  0
  151.7875  137.6729  154.2466 C   0  0  0  0  0  0  0  0  0  0  0  0
  151.3370  136.3820  154.9363 C   0  0  0  0  0  0  0  0  0  0  0  0
  150.6505  136.7968  156.1096 O   0  0  0  0  0  0  0  0  0  0  0  0
  147.3728  134.6093  161.4873 S   0  0  0  0  0  0  0  0  0  0  0  0
  141.3976  134.9726  163.3444 H   0  0  0  0  0  0  0  0  0  0  0  0
  142.6117  134.4125  164.4918 H   0  0  0  0  0  0  0  0  0  0  0  0
  142.2799  133.4801  163.0322 H   0  0  0  0  0  0  0  0  0  0  0  0
  143.1587  135.3698  161.6292 H   0  0  0  0  0  0  0  0  0  0  0  0
  143.4768  136.3044  163.0711 H   0  0  0  0  0  0  0  0  0  0  0  0
  145.1692  134.6458  163.8238 H   0  0  0  0  0  0  0  0  0  0  0  0
  144.7942  133.6062  162.4686 H   0  0  0  0  0  0  0  0  0  0  0  0
  150.7505  137.5861  159.2953 H   0  0  0  0  0  0  0  0  0  0  0  0
  149.3699  138.9896  157.0610 H   0  0  0  0  0  0  0  0  0  0  0  0
  151.1191  140.7347  157.3765 H   0  0  0  0  0  0  0  0  0  0  0  0
  151.8804  139.7734  158.6422 H   0  0  0  0  0  0  0  0  0  0  0  0
  150.2753  140.4545  158.8893 H   0  0  0  0  0  0  0  0  0  0  0  0
  152.1982  137.8289  156.9770 H   0  0  0  0  0  0  0  0  0  0  0  0
  150.4234  139.1952  154.9039 H   0  0  0  0  0  0  0  0  0  0  0  0
  152.1079  139.5783  155.2691 H   0  0  0  0  0  0  0  0  0  0  0  0
  151.3158  137.8056  153.2725 H   0  0  0  0  0  0  0  0  0  0  0  0
  152.8681  137.6654  154.0993 H   0  0  0  0  0  0  0  0  0  0  0  0
  150.6868  135.7767  154.3045 H   0  0  0  0  0  0  0  0  0  0  0  0
  152.1990  135.7758  155.2172 H   0  0  0  0  0  0  0  0  0  0  0  0
  1  2  1  0  0  0  0
  1 20  1  0  0  0  0
  1 21  1  0  0  0  0
  1 22  1  0  0  0  0
  2  3  1  0  0  0  0
  2 23  1  0  0  0  0
  2 24  1  0  0  0  0
  3  4  1  0  0  0  0
  3 25  1  0  0  0  0
  3 26  1  0  0  0  0
  4 19  1  0  0  0  0
  4  5  2  0  0  0  0
  5  6  1  0  0  0  0
  6  7  2  0  0  0  0
  7  8  1  0  0  0  0
  7 19  1  0  0  0  0
  8  9  1  0  0  0  0
  9 10  2  0  0  0  0
  9 11  1  0  0  0  0
 11 12  1  0  0  0  0
 11 27  1  0  0  0  0
 12 13  1  0  0  0  0
 12 14  1  0  0  0  0
 12 28  1  0  0  0  0
 13 29  1  0  0  0  0
 13 30  1  0  0  0  0
 13 31  1  0  0  0  0
 14 18  1  0  0  0  0
 14 15  1  0  0  0  0
 14 32  1  0  0  0  0
 15 16  1  0  0  0  0
 15 33  1  0  0  0  0
 15 34  1  0  0  0  0
 16 17  1  0  0  0  0
 16 35  1  0  0  0  0
 16 36  1  0  0  0  0
 17 18  1  0  0  0  0
 17 37  1  0  0  0  0
 17 38  1  0  0  0  0
M  CHG  1   8  -1
M  END
> <s_m_source_file>
AV-unprocessed.smi

> <i_m_source_file_index>
1251

> <i_lp_mmshare_version>
43012

> <i_f3d_flags>
0

> <s_epik_input>
W0NIM11bQ0gyXVtDSDJdYzFubmMoczEpW05IXUMoPU8pW05IXVtDQEhdKFtDSDNdKVtDQEBIXTJbQ0gyXVtDSDJdW0NIMl1PMg==

> <s_epik_cmdline>
J2VwaWtfcHl0aG9uJywgJy1waCcsICc3LjAnLCAnLXRuJywgJzgnLCAnLW1hJywgJzIwMCcsICctbWV0YWxfYmluZGluZycsICctaW1hZScsICc8aW5maWxlLm1hZT4nLCAnLW9tYWUnLCAnPG91dGZpbGUubWFlPic=

> <r_lp_tautomer_probability>
1

> <r_epik_Ionization_Penalty>
4.22551

> <r_epik_Ionization_Penalty_Charging>
4.21437

> <r_epik_Ionization_Penalty_Neutral>
0.0111434

> <r_epik_State_Penalty>
4.21389

> <r_epik_Charging_Adjusted_Penalty>
8.42826

> <i_epik_Tot_Q>
-1

> <i_epik_Tot_abs_Q>
1

> <r_epik_Metal_State_Penalty>
0.69377

> <b_epik_Metal_Only>
1

> <s_lp_Force_Field>
OPLS_2005

> <r_lp_Energy>
12.2708

> <b_lp_Chiralities_Consistent>
1

> <s_lp_Variant>
AV-unprocessed.smi:1251-6

> <Gold.Version>
5.8.1

> <Gold.Id.Protein>
6NUR|6NUR_protein|mol2

> <Gold.PLP.Fitness>
41.7509

> <Gold.PLP.PLP>
-31.5984

> <Gold.PLP.part.hbond>
-3.3127

> <Gold.PLP.part.metal>
0.0000

> <Gold.PLP.part.buried>
-3.3547

> <Gold.PLP.part.nonpolar>
-25.1129

> <Gold.PLP.part.repulsive>
0.1781

> <Gold.PLP.ligand.clash>
0.0000

> <Gold.PLP.ligand.torsion>
0.8403

> <Gold.PLP.Chemscore.Hbond>
3.9040

> <Gold.PLP.Chemscore.CHOScore>
0.0000

> <Gold.PLP.Chemscore.Metal>
0.0000

> <Gold.Chemscore.Hbonds>
donor molecule, donor type, donor heavy atom, donor atom, acceptor molecule, acceptor atom, score
      P1  H  6934  6947       L1     6  0.93

> <Gold.PLP.Chemscore.Internal.Correction>
0.1209

> <Gold.Rescore>
     Score         DG    S(hbond)    S(metal)    S(lipo)     H(rot)  DE(clash)    DE(int)     intcor
     15.22     -16.41       1.93        0.00      72.10       1.55       0.01       1.18       ----

> <Gold.Chemscore.Fitness>
15.2215

> <Gold.Chemscore.DG>
-16.4141

> <Gold.Chemscore.ZeroCoef>
-5.4800

> <Gold.Chemscore.Hbond>
1.9336

> <Gold.Chemscore.Metal>
0.0000

> <Gold.Chemscore.Lipo>
72.1023

> <Gold.Chemscore.Internal_Hbond>
0.0000

> <Gold.Chemscore.DEClash>
0.0124

> <Gold.Chemscore.DEInternal>
1.1802

> <Gold.Chemscore.Rot>
1.5469

> <Gold.Chemscore.Internal.Correction>
   9.000000E+99

> <Gold.Chemscore.Hbonds>
donor molecule, donor type, donor heavy atom, donor atom, acceptor molecule, acceptor atom, score
      P1  H  6896  6909       L1     8  0.02
      P1  H  6934  6947       L1     6  0.77

> <Gold.Chemscore.Hbond.Weighted>
-6.4582

> <Gold.Chemscore.Metal.Weighted>
-0.0000

> <Gold.Chemscore.Lipo.Weighted>
-8.4360

> <Gold.Chemscore.Internal_Hbond.Weighted>
0.0000

> <Gold.Chemscore.DEClash.Weighted>
0.0124

> <Gold.Chemscore.DEInternal.Weighted>
1.1802

> <Gold.Chemscore.Rot.Weighted>
3.9600

> <Gold.Chemscore.Internal.Correction.Weighted>
   9.000000E+99

> <Gold.Protein.RotatedTorsions>
[ 6907 6896 6895 6894 ] final   76.67 input  -60.11 | X-H torsion
[ 7974 7965 7964 7962 ] final  126.89 input  175.53 | X-H torsion
[ 8008 7997 7996 7995 ] final   74.93 input   59.86 | X-H torsion
[ 10167 10162 10161 10158 ] final  -16.10 input  -65.29 | X-H torsion
[ 10718 10713 10712 10709 ] final   70.22 input   66.30 | X-H torsion
[ 10763 10752 10751 10750 ] final   90.58 input  -60.55 | X-H torsion
[ 11005 11000 10999 10996 ] final -157.12 input  -57.11 | X-H torsion

> <Gold.Protein.ActiveResidues>
 VAL166  LYS551  ARG553  GLY616  TRP617  ASP618  TYR619  PRO620  LYS621  CYS622 
 ASP623  PHE694  ASN695  SER759  ASP760  ASP761  ALA762  ILE779  LEU786  VAL792 
 PHE793  MET794  SER795  GLU796  ALA797  LYS798  CYS799  TRP800  GLU811  SER814 

> <Gold.Protein.RotatedAtoms>
  152.5084  134.3933  159.9391 H   0  0  0  0  0  0  0  0  0  0  0  0  # atno 6907 bound_to 6896
  151.3894  133.3788  159.2727 H   0  0  0  0  0  0  0  0  0  0  0  0  # atno 6908 bound_to 6896
  150.9444  134.8871  159.7691 H   0  0  0  0  0  0  0  0  0  0  0  0  # atno 6909 bound_to 6896
  145.0567  139.3838  143.5026 H   0  0  0  0  0  0  0  0  0  0  0  0  # atno 7974 bound_to 7965
  155.8055  140.3475  155.5427 H   0  0  0  0  0  0  0  0  0  0  0  0  # atno 8008 bound_to 7997
  155.8494  140.0954  157.1705 H   0  0  0  0  0  0  0  0  0  0  0  0  # atno 8009 bound_to 7997
  154.4007  140.1379  156.3813 H   0  0  0  0  0  0  0  0  0  0  0  0  # atno 8010 bound_to 7997
  140.7229  143.5150  150.9702 H   0  0  0  0  0  0  0  0  0  0  0  0  # atno 10167 bound_to 10162
  157.6388  130.9466  150.0620 H   0  0  0  0  0  0  0  0  0  0  0  0  # atno 10718 bound_to 10713
  153.1991  135.4428  155.0244 H   0  0  0  0  0  0  0  0  0  0  0  0  # atno 10763 bound_to 10752
  154.8136  135.3305  154.7240 H   0  0  0  0  0  0  0  0  0  0  0  0  # atno 10764 bound_to 10752
  153.7687  135.6986  153.4966 H   0  0  0  0  0  0  0  0  0  0  0  0  # atno 10765 bound_to 10752
  140.6681  134.4277  157.5232 H   0  0  0  0  0  0  0  0  0  0  0  0  # atno 11005 bound_to 11000
  146.3522  140.0245  142.8655 LP  0  0  0  0  0  0  0  0  0  0  0  0  # atno 17320 bound_to 7965
  145.1459  140.9597  143.4461 LP  0  0  0  0  0  0  0  0  0  0  0  0  # atno 17321 bound_to 7965
  139.8866  143.7006  152.3150 LP  0  0  0  0  0  0  0  0  0  0  0  0  # atno 17342 bound_to 10162
  139.7307  144.7583  151.0807 LP  0  0  0  0  0  0  0  0  0  0  0  0  # atno 17343 bound_to 10162
  156.1650  130.3645  149.9245 LP  0  0  0  0  0  0  0  0  0  0  0  0  # atno 17370 bound_to 10713
  156.7234  130.9015  151.3620 LP  0  0  0  0  0  0  0  0  0  0  0  0  # atno 17371 bound_to 10713
  139.8990  134.8600  156.1976 LP  0  0  0  0  0  0  0  0  0  0  0  0  # atno 17394 bound_to 11000
  141.0413  133.6936  156.1604 LP  0  0  0  0  0  0  0  0  0  0  0  0  # atno 17395 bound_to 11000

$$$$
