AV-unprocessed.smi:726|AV-procd|sdf|3515|dock3
  -GOLD-   22720 0513D 1   1.00000     0.00000
 Structure written by MMmdl.
 24 24  0  0  0  0  0  0  0  0  2 V2000
  153.0812  140.9223  160.0712 C   0  0  0  0  0  0  0  0  0  0  0  0
  152.3762  142.0143  159.2771 C   0  0  0  0  0  0  0  0  0  0  0  0
  152.6591  143.3089  159.5517 C   0  0  0  0  0  0  0  0  0  0  0  0
  151.9393  144.3991  158.8737 C   0  0  0  0  0  0  0  0  0  0  0  0
  152.2280  145.5816  159.0474 O   0  0  0  0  0  0  0  0  0  0  0  0
  150.8398  143.9841  157.9934 C   0  0  0  0  0  0  0  0  0  0  0  0
  150.6342  142.6705  157.7775 C   0  0  0  0  0  0  0  0  0  0  0  0
  149.6048  142.2493  157.0288 O   0  0  0  0  0  0  0  0  0  0  0  0
  151.4198  141.6240  158.3104 N   0  0  0  0  0  0  0  0  0  0  0  0
  151.3900  140.2396  157.7822 C   0  0  1  0  0  0  0  0  0  0  0  0
  150.1132  139.4743  158.1890 C   0  0  0  0  0  0  0  0  0  0  0  0
  151.7443  140.1450  156.2851 C   0  0  0  0  0  0  0  0  0  0  0  0
  152.7888  139.5370  155.9602 O   0  0  0  0  0  0  0  0  0  0  0  0
  150.9535  140.6932  155.4860 O   0  5  0  0  0  0  0  0  0  0  0  0
  153.4544  141.3130  161.0185 H   0  0  0  0  0  0  0  0  0  0  0  0
  153.9329  140.5338  159.5121 H   0  0  0  0  0  0  0  0  0  0  0  0
  152.4084  140.1000  160.3154 H   0  0  0  0  0  0  0  0  0  0  0  0
  153.3930  143.5731  160.2992 H   0  0  0  0  0  0  0  0  0  0  0  0
  150.2025  144.7401  157.5587 H   0  0  0  0  0  0  0  0  0  0  0  0
  152.2053  139.6712  158.2221 H   0  0  0  0  0  0  0  0  0  0  0  0
  150.1566  138.4362  157.8578 H   0  0  0  0  0  0  0  0  0  0  0  0
  149.2102  139.9137  157.7669 H   0  0  0  0  0  0  0  0  0  0  0  0
  149.9977  139.4633  159.2727 H   0  0  0  0  0  0  0  0  0  0  0  0
  149.2645  142.9983  156.5649 H   0  0  0  0  0  0  0  0  0  0  0  0
  1  2  1  0  0  0  0
  1 15  1  0  0  0  0
  1 16  1  0  0  0  0
  1 17  1  0  0  0  0
  2  9  1  0  0  0  0
  2  3  2  0  0  0  0
  3  4  1  0  0  0  0
  3 18  1  0  0  0  0
  4  5  2  0  0  0  0
  4  6  1  0  0  0  0
  6  7  2  0  0  0  0
  6 19  1  0  0  0  0
  7  8  1  0  0  0  0
  7  9  1  0  0  0  0
  8 24  1  0  0  0  0
  9 10  1  0  0  0  0
 10 11  1  0  0  0  0
 10 12  1  0  0  0  0
 10 20  1  0  0  0  0
 11 21  1  0  0  0  0
 11 22  1  0  0  0  0
 11 23  1  0  0  0  0
 12 13  2  0  0  0  0
 12 14  1  0  0  0  0
M  CHG  1  14  -1
M  END
> <s_m_source_file>
AV-unprocessed.smi

> <i_m_source_file_index>
726

> <i_lp_mmshare_version>
43012

> <i_f3d_flags>
0

> <s_epik_input>
W0NIM11jMVtjSF1jKFtPSF0pW2NIXWMoPU8pbjFbQ0BIXShbQ0gzXSlDKD1PKVtPSF0=

> <s_epik_cmdline>
J2VwaWtfcHl0aG9uJywgJy1waCcsICc3LjAnLCAnLXRuJywgJzgnLCAnLW1hJywgJzIwMCcsICctbWV0YWxfYmluZGluZycsICctaW1hZScsICc8aW5maWxlLm1hZT4nLCAnLW9tYWUnLCAnPG91dGZpbGUubWFlPic=

> <r_epik_Ionization_Penalty>
0.000857085

> <r_epik_Ionization_Penalty_Charging>
0.000857085

> <r_epik_Ionization_Penalty_Neutral>
0

> <r_epik_State_Penalty>
1.45659

> <r_epik_Charging_Adjusted_Penalty>
1.45745

> <i_epik_Tot_Q>
-1

> <i_epik_Tot_abs_Q>
1

> <r_epik_Metal_State_Penalty>
1.45659

> <b_epik_Metal_Only>
0

> <s_lp_Force_Field>
OPLS_2005

> <r_lp_Energy>
4.31766

> <b_lp_Chiralities_Consistent>
1

> <s_lp_Variant>
AV-unprocessed.smi:726-6

> <Gold.Version>
5.8.1

> <Gold.Id.Protein>
6NUR|6NUR_protein|mol2

> <Gold.PLP.Fitness>
41.2694

> <Gold.PLP.PLP>
-29.8791

> <Gold.PLP.part.hbond>
-3.5297

> <Gold.PLP.part.metal>
0.0000

> <Gold.PLP.part.buried>
-1.9017

> <Gold.PLP.part.nonpolar>
-23.8943

> <Gold.PLP.part.repulsive>
0.1214

> <Gold.PLP.ligand.clash>
0.0000

> <Gold.PLP.ligand.torsion>
0.1981

> <Gold.PLP.Chemscore.Hbond>
3.8160

> <Gold.PLP.Chemscore.CHOScore>
0.0000

> <Gold.PLP.Chemscore.Metal>
0.0000

> <Gold.Chemscore.Hbonds>
donor molecule, donor type, donor heavy atom, donor atom, acceptor molecule, acceptor atom, score
      L1  H     8    24       P1  8028  1.00
      P1  H  7989  7998       L1    14  0.70
      P1  H  7997  8008       L1    13  2.00

> <Gold.PLP.Chemscore.Internal.Correction>
0.3385

> <Gold.Rescore>
     Score         DG    S(hbond)    S(metal)    S(lipo)     H(rot)  DE(clash)    DE(int)     intcor
     11.13     -14.79       2.67        0.00      49.64       2.11       0.36       3.30       ----

> <Gold.Chemscore.Fitness>
11.1277

> <Gold.Chemscore.DG>
-14.7876

> <Gold.Chemscore.ZeroCoef>
-5.4800

> <Gold.Chemscore.Hbond>
2.6670

> <Gold.Chemscore.Metal>
0.0000

> <Gold.Chemscore.Lipo>
49.6383

> <Gold.Chemscore.Internal_Hbond>
0.0000

> <Gold.Chemscore.DEClash>
0.3598

> <Gold.Chemscore.DEInternal>
3.3001

> <Gold.Chemscore.Rot>
2.1124

> <Gold.Chemscore.Internal.Correction>
   9.000000E+99

> <Gold.Chemscore.Hbonds>
donor molecule, donor type, donor heavy atom, donor atom, acceptor molecule, acceptor atom, score
      L1  H     8    24       P1  8028  0.98
      P1  H  7989  7998       L1    14  0.62
      P1  H  7997  8008       L1    13  1.00

> <Gold.Chemscore.Hbond.Weighted>
-8.9077

> <Gold.Chemscore.Metal.Weighted>
-0.0000

> <Gold.Chemscore.Lipo.Weighted>
-5.8077

> <Gold.Chemscore.Internal_Hbond.Weighted>
0.0000

> <Gold.Chemscore.DEClash.Weighted>
0.3598

> <Gold.Chemscore.DEInternal.Weighted>
3.3001

> <Gold.Chemscore.Rot.Weighted>
5.4078

> <Gold.Chemscore.Internal.Correction.Weighted>
   9.000000E+99

> <Gold.Protein.RotatedTorsions>
[ 6907 6896 6895 6894 ] final -170.72 input  -60.11 | X-H torsion
[ 7974 7965 7964 7962 ] final    6.54 input  175.53 | X-H torsion
[ 8008 7997 7996 7995 ] final  -29.75 input   59.86 | X-H torsion
[ 10167 10162 10161 10158 ] final   45.71 input  -65.29 | X-H torsion
[ 10718 10713 10712 10709 ] final    6.14 input   66.30 | X-H torsion
[ 10763 10752 10751 10750 ] final  -21.59 input  -60.55 | X-H torsion
[ 11005 11000 10999 10996 ] final   15.29 input  -57.11 | X-H torsion

> <Gold.Protein.ActiveResidues>
 VAL166  LYS551  ARG553  GLY616  TRP617  ASP618  TYR619  PRO620  LYS621  CYS622 
 ASP623  PHE694  ASN695  SER759  ASP760  ASP761  ALA762  ILE779  LEU786  VAL792 
 PHE793  MET794  SER795  GLU796  ALA797  LYS798  CYS799  TRP800  GLU811  SER814 

> <Gold.Protein.RotatedAtoms>
  151.5123  133.3482  159.2886 H   0  0  0  0  0  0  0  0  0  0  0  0  # atno 6907 bound_to 6896
  150.8705  134.8079  159.7162 H   0  0  0  0  0  0  0  0  0  0  0  0  # atno 6908 bound_to 6896
  152.4694  134.5006  159.9775 H   0  0  0  0  0  0  0  0  0  0  0  0  # atno 6909 bound_to 6896
  146.2434  140.0218  142.8397 H   0  0  0  0  0  0  0  0  0  0  0  0  # atno 7974 bound_to 7965
  154.4277  140.1810  156.1297 H   0  0  0  0  0  0  0  0  0  0  0  0  # atno 8008 bound_to 7997
  156.0077  140.3353  155.6884 H   0  0  0  0  0  0  0  0  0  0  0  0  # atno 8009 bound_to 7997
  155.6154  140.0654  157.2684 H   0  0  0  0  0  0  0  0  0  0  0  0  # atno 8010 bound_to 7997
  140.3214  144.2701  150.6182 H   0  0  0  0  0  0  0  0  0  0  0  0  # atno 10167 bound_to 10162
  156.9178  130.5780  149.5647 H   0  0  0  0  0  0  0  0  0  0  0  0  # atno 10718 bound_to 10713
  153.6385  135.6986  153.5250 H   0  0  0  0  0  0  0  0  0  0  0  0  # atno 10763 bound_to 10752
  153.2802  135.4188  155.1070 H   0  0  0  0  0  0  0  0  0  0  0  0  # atno 10764 bound_to 10752
  154.8505  135.3600  154.5929 H   0  0  0  0  0  0  0  0  0  0  0  0  # atno 10765 bound_to 10752
  140.4599  134.1138  155.7715 H   0  0  0  0  0  0  0  0  0  0  0  0  # atno 11005 bound_to 11000
  145.1234  140.9476  143.4587 LP  0  0  0  0  0  0  0  0  0  0  0  0  # atno 17320 bound_to 7965
  145.0458  139.3222  143.5953 LP  0  0  0  0  0  0  0  0  0  0  0  0  # atno 17321 bound_to 7965
  140.5480  143.2211  151.7974 LP  0  0  0  0  0  0  0  0  0  0  0  0  # atno 17342 bound_to 10162
  139.4873  144.4514  151.9650 LP  0  0  0  0  0  0  0  0  0  0  0  0  # atno 17343 bound_to 10162
  156.0505  130.5575  150.8979 LP  0  0  0  0  0  0  0  0  0  0  0  0  # atno 17370 bound_to 10713
  157.5927  131.0944  150.9092 LP  0  0  0  0  0  0  0  0  0  0  0  0  # atno 17371 bound_to 10713
  141.1626  133.8764  157.1806 LP  0  0  0  0  0  0  0  0  0  0  0  0  # atno 17394 bound_to 11000
  139.9952  135.0049  157.0066 LP  0  0  0  0  0  0  0  0  0  0  0  0  # atno 17395 bound_to 11000

$$$$
