AV-unprocessed.smi:1115|AV-procd|sdf|4803|dock3
  -GOLD-   22720 3353D 1   1.00000     0.00000
 Structure written by MMmdl.
 50 51  0  0  0  0  0  0  0  0  1 V2000
  150.6101  145.1790  159.4224 C   0  0  0  0  0  0  0  0  0  0  0  0
  151.1312  143.8800  159.0091 N   0  0  0  0  0  0  0  0  0  0  0  0
  150.8562  143.3839  157.6663 C   0  0  0  0  0  0  0  0  0  0  0  0
  152.0113  143.1727  159.8601 C   0  0  0  0  0  0  0  0  0  0  0  0
  152.4223  143.7059  161.1073 C   0  0  0  0  0  0  0  0  0  0  0  0
  153.2999  142.9638  161.9208 C   0  0  0  0  0  0  0  0  0  0  0  0
  153.7562  141.7047  161.4677 C   0  0  0  0  0  0  0  0  0  0  0  0
  154.6228  140.8528  162.2041 N   0  0  0  0  0  0  0  0  0  0  0  0
  154.6142  139.5109  162.2775 C   0  0  0  0  0  0  0  0  0  0  0  0
  153.7982  138.7732  161.7251 O   0  0  0  0  0  0  0  0  0  0  0  0
  155.6042  139.0662  163.0638 N   0  0  0  0  0  0  0  0  0  0  0  0
  155.8641  137.6682  163.4075 C   0  0  0  0  0  0  0  0  0  0  0  0
  155.9603  137.4328  164.9443 C   0  0  0  0  0  0  0  0  0  0  0  0
  157.2876  138.0844  165.4091 C   0  0  0  0  0  0  0  0  0  0  0  0
  154.8086  138.2316  165.6015 C   0  0  0  0  0  0  0  0  0  0  0  0
  155.9290  135.9811  165.2806 N   0  0  0  0  0  0  0  0  0  0  0  0
  154.8630  135.2178  164.6208 C   0  0  0  0  0  0  0  0  0  0  0  0
  154.9649  133.7110  164.9118 C   0  0  0  0  0  0  0  0  0  0  0  0
  154.9384  133.4916  166.3167 O   0  0  0  0  0  0  0  0  0  0  0  0
  155.9925  134.1676  166.9910 C   0  0  0  0  0  0  0  0  0  0  0  0
  155.9011  135.6785  166.7163 C   0  0  0  0  0  0  0  0  0  0  0  0
  153.2845  141.2514  160.2207 C   0  0  0  0  0  0  0  0  0  0  0  0
  152.4449  141.9596  159.4376 N   0  0  0  0  0  0  0  0  0  0  0  0
  151.4231  145.8963  159.5398 H   0  0  0  0  0  0  0  0  0  0  0  0
  150.0794  145.0969  160.3715 H   0  0  0  0  0  0  0  0  0  0  0  0
  149.9126  145.5803  158.6873 H   0  0  0  0  0  0  0  0  0  0  0  0
  151.7823  143.2731  157.1013 H   0  0  0  0  0  0  0  0  0  0  0  0
  150.2113  144.0681  157.1147 H   0  0  0  0  0  0  0  0  0  0  0  0
  150.3546  142.4166  157.7100 H   0  0  0  0  0  0  0  0  0  0  0  0
  152.0805  144.6674  161.4591 H   0  0  0  0  0  0  0  0  0  0  0  0
  153.5905  143.3689  162.8774 H   0  0  0  0  0  0  0  0  0  0  0  0
  155.2989  141.3242  162.7871 H   0  0  0  0  0  0  0  0  0  0  0  0
  156.2152  139.7508  163.4846 H   0  0  0  0  0  0  0  0  0  0  0  0
  155.1022  137.0188  162.9724 H   0  0  0  0  0  0  0  0  0  0  0  0
  156.7861  137.3708  162.9086 H   0  0  0  0  0  0  0  0  0  0  0  0
  157.4008  139.0920  165.0073 H   0  0  0  0  0  0  0  0  0  0  0  0
  158.1550  137.5072  165.0872 H   0  0  0  0  0  0  0  0  0  0  0  0
  157.3422  138.1824  166.4933 H   0  0  0  0  0  0  0  0  0  0  0  0
  154.8721  139.2900  165.3460 H   0  0  0  0  0  0  0  0  0  0  0  0
  154.8326  138.1704  166.6893 H   0  0  0  0  0  0  0  0  0  0  0  0
  153.8283  137.8883  165.2719 H   0  0  0  0  0  0  0  0  0  0  0  0
  153.8863  135.5723  164.9504 H   0  0  0  0  0  0  0  0  0  0  0  0
  154.8997  135.3492  163.5410 H   0  0  0  0  0  0  0  0  0  0  0  0
  154.1310  133.1796  164.4530 H   0  0  0  0  0  0  0  0  0  0  0  0
  155.8810  133.2967  164.4880 H   0  0  0  0  0  0  0  0  0  0  0  0
  155.9140  133.9717  168.0604 H   0  0  0  0  0  0  0  0  0  0  0  0
  156.9558  133.7735  166.6631 H   0  0  0  0  0  0  0  0  0  0  0  0
  156.7319  136.1578  167.2308 H   0  0  0  0  0  0  0  0  0  0  0  0
  154.9851  136.0627  167.1655 H   0  0  0  0  0  0  0  0  0  0  0  0
  153.5922  140.2905  159.8338 H   0  0  0  0  0  0  0  0  0  0  0  0
  1  2  1  0  0  0  0
  1 24  1  0  0  0  0
  1 25  1  0  0  0  0
  1 26  1  0  0  0  0
  2  3  1  0  0  0  0
  2  4  1  0  0  0  0
  3 27  1  0  0  0  0
  3 28  1  0  0  0  0
  3 29  1  0  0  0  0
  4 23  1  0  0  0  0
  4  5  2  0  0  0  0
  5  6  1  0  0  0  0
  5 30  1  0  0  0  0
  6  7  2  0  0  0  0
  6 31  1  0  0  0  0
  7  8  1  0  0  0  0
  7 22  1  0  0  0  0
  8  9  1  0  0  0  0
  8 32  1  0  0  0  0
  9 10  2  0  0  0  0
  9 11  1  0  0  0  0
 11 12  1  0  0  0  0
 11 33  1  0  0  0  0
 12 13  1  0  0  0  0
 12 34  1  0  0  0  0
 12 35  1  0  0  0  0
 13 14  1  0  0  0  0
 13 15  1  0  0  0  0
 13 16  1  0  0  0  0
 14 36  1  0  0  0  0
 14 37  1  0  0  0  0
 14 38  1  0  0  0  0
 15 39  1  0  0  0  0
 15 40  1  0  0  0  0
 15 41  1  0  0  0  0
 16 21  1  0  0  0  0
 16 17  1  0  0  0  0
 17 18  1  0  0  0  0
 17 42  1  0  0  0  0
 17 43  1  0  0  0  0
 18 19  1  0  0  0  0
 18 44  1  0  0  0  0
 18 45  1  0  0  0  0
 19 20  1  0  0  0  0
 20 21  1  0  0  0  0
 20 46  1  0  0  0  0
 20 47  1  0  0  0  0
 21 48  1  0  0  0  0
 21 49  1  0  0  0  0
 22 23  2  0  0  0  0
 22 50  1  0  0  0  0
M  END
> <s_m_source_file>
AV-unprocessed.smi

> <i_m_source_file_index>
1115

> <i_lp_mmshare_version>
43012

> <i_f3d_flags>
0

> <s_epik_input>
W0NIM11OKFtDSDNdKWMxW2NIXVtjSF1jKFtjSF1uMSlbTkhdQyg9TylbTkhdW0NIMl1DKFtDSDNdKShbQ0gzXSlOMltDSDJdW0NIMl1PW0NIMl1bQ0gyXTI=

> <s_epik_cmdline>
J2VwaWtfcHl0aG9uJywgJy1waCcsICc3LjAnLCAnLXRuJywgJzgnLCAnLW1hJywgJzIwMCcsICctbWV0YWxfYmluZGluZycsICctaW1hZScsICc8aW5maWxlLm1hZT4nLCAnLW9tYWUnLCAnPG91dGZpbGUubWFlPic=

> <r_lp_tautomer_probability>
1

> <r_epik_Ionization_Penalty>
0.880664

> <r_epik_Ionization_Penalty_Charging>
0

> <r_epik_Ionization_Penalty_Neutral>
0.880664

> <r_epik_State_Penalty>
0.865003

> <r_epik_Charging_Adjusted_Penalty>
0.865003

> <i_epik_Tot_Q>
0

> <i_epik_Tot_abs_Q>
0

> <r_epik_Metal_State_Penalty>
0.539426

> <b_epik_Metal_Only>
0

> <s_lp_Force_Field>
OPLS_2005

> <r_lp_Energy>
45.7519

> <b_lp_Chiralities_Consistent>
1

> <s_lp_Variant>
AV-unprocessed.smi:1115-2

> <Gold.Version>
5.8.1

> <Gold.Id.Protein>
6NUR|6NUR_protein|mol2

> <Gold.PLP.Fitness>
49.3688

> <Gold.PLP.PLP>
-50.4329

> <Gold.PLP.part.hbond>
0.0000

> <Gold.PLP.part.metal>
0.0000

> <Gold.PLP.part.buried>
-6.3299

> <Gold.PLP.part.nonpolar>
-43.9537

> <Gold.PLP.part.repulsive>
0.0263

> <Gold.PLP.ligand.clash>
0.0000

> <Gold.PLP.ligand.torsion>
0.5658

> <Gold.PLP.Chemscore.Hbond>
0.0000

> <Gold.PLP.Chemscore.CHOScore>
0.0000

> <Gold.PLP.Chemscore.Metal>
0.0000

> <Gold.PLP.Chemscore.Internal.Correction>
0.0675

> <Gold.Rescore>
     Score         DG    S(hbond)    S(metal)    S(lipo)     H(rot)  DE(clash)    DE(int)     intcor
     14.00     -15.98       0.00        0.00     120.84       1.42       0.09       1.90       ----

> <Gold.Chemscore.Fitness>
13.9956

> <Gold.Chemscore.DG>
-15.9783

> <Gold.Chemscore.ZeroCoef>
-5.4800

> <Gold.Chemscore.Hbond>
0.0000

> <Gold.Chemscore.Metal>
0.0000

> <Gold.Chemscore.Lipo>
120.8365

> <Gold.Chemscore.Internal_Hbond>
0.0000

> <Gold.Chemscore.DEClash>
0.0861

> <Gold.Chemscore.DEInternal>
1.8967

> <Gold.Chemscore.Rot>
1.4217

> <Gold.Chemscore.Internal.Correction>
   9.000000E+99

> <Gold.Chemscore.Hbond.Weighted>
-0.0000

> <Gold.Chemscore.Metal.Weighted>
-0.0000

> <Gold.Chemscore.Lipo.Weighted>
-14.1379

> <Gold.Chemscore.Internal_Hbond.Weighted>
0.0000

> <Gold.Chemscore.DEClash.Weighted>
0.0861

> <Gold.Chemscore.DEInternal.Weighted>
1.8967

> <Gold.Chemscore.Rot.Weighted>
3.6395

> <Gold.Chemscore.Internal.Correction.Weighted>
   9.000000E+99

> <Gold.Protein.RotatedTorsions>
[ 6907 6896 6895 6894 ] final  -85.24 input  -60.11 | X-H torsion
[ 7974 7965 7964 7962 ] final -122.77 input  175.53 | X-H torsion
[ 8008 7997 7996 7995 ] final  -91.58 input   59.86 | X-H torsion
[ 10167 10162 10161 10158 ] final -165.54 input  -65.29 | X-H torsion
[ 10718 10713 10712 10709 ] final  -92.54 input   66.30 | X-H torsion
[ 10763 10752 10751 10750 ] final   57.36 input  -60.55 | X-H torsion
[ 11005 11000 10999 10996 ] final  176.54 input  -57.11 | X-H torsion

> <Gold.Protein.ActiveResidues>
 VAL166  LYS551  ARG553  GLY616  TRP617  ASP618  TYR619  PRO620  LYS621  CYS622 
 ASP623  PHE694  ASN695  SER759  ASP760  ASP761  ALA762  ILE779  LEU786  VAL792 
 PHE793  MET794  SER795  GLU796  ALA797  LYS798  CYS799  TRP800  GLU811  SER814 

> <Gold.Protein.RotatedAtoms>
  150.6871  134.3235  159.4796 H   0  0  0  0  0  0  0  0  0  0  0  0  # atno 6907 bound_to 6896
  152.1107  134.9273  160.0576 H   0  0  0  0  0  0  0  0  0  0  0  0  # atno 6908 bound_to 6896
  152.0517  133.3987  159.4417 H   0  0  0  0  0  0  0  0  0  0  0  0  # atno 6909 bound_to 6896
  145.0259  140.8027  143.4353 H   0  0  0  0  0  0  0  0  0  0  0  0  # atno 7974 bound_to 7965
  154.7125  140.0518  157.0564 H   0  0  0  0  0  0  0  0  0  0  0  0  # atno 8008 bound_to 7997
  155.0535  140.3182  155.4665 H   0  0  0  0  0  0  0  0  0  0  0  0  # atno 8009 bound_to 7997
  156.2793  140.2111  156.5661 H   0  0  0  0  0  0  0  0  0  0  0  0  # atno 8010 bound_to 7997
  139.6175  144.0691  152.1901 H   0  0  0  0  0  0  0  0  0  0  0  0  # atno 10167 bound_to 10162
  156.0003  130.4991  150.5641 H   0  0  0  0  0  0  0  0  0  0  0  0  # atno 10718 bound_to 10713
  152.9848  135.5644  154.5379 H   0  0  0  0  0  0  0  0  0  0  0  0  # atno 10763 bound_to 10752
  154.4839  135.2790  155.1552 H   0  0  0  0  0  0  0  0  0  0  0  0  # atno 10764 bound_to 10752
  154.3049  135.6300  153.5493 H   0  0  0  0  0  0  0  0  0  0  0  0  # atno 10765 bound_to 10752
  140.3742  134.7003  157.4411 H   0  0  0  0  0  0  0  0  0  0  0  0  # atno 11005 bound_to 11000
  145.1834  139.2339  143.5280 LP  0  0  0  0  0  0  0  0  0  0  0  0  # atno 17320 bound_to 7965
  146.3492  140.1614  142.8591 LP  0  0  0  0  0  0  0  0  0  0  0  0  # atno 17321 bound_to 7965
  140.0324  144.6070  150.7477 LP  0  0  0  0  0  0  0  0  0  0  0  0  # atno 17342 bound_to 10162
  140.7360  143.2748  151.3776 LP  0  0  0  0  0  0  0  0  0  0  0  0  # atno 17343 bound_to 10162
  157.3546  131.0739  151.1686 LP  0  0  0  0  0  0  0  0  0  0  0  0  # atno 17370 bound_to 10713
  157.2491  130.6605  149.5923 LP  0  0  0  0  0  0  0  0  0  0  0  0  # atno 17371 bound_to 10713
  140.0528  134.6106  155.8841 LP  0  0  0  0  0  0  0  0  0  0  0  0  # atno 17394 bound_to 11000
  141.1944  133.6583  156.5596 LP  0  0  0  0  0  0  0  0  0  0  0  0  # atno 17395 bound_to 11000

$$$$
