AV-unprocessed.smi:1536|AV-procd|sdf|6187|dock10
  -GOLD-   22720 6353D 1   1.00000     0.00000
 Structure written by MMmdl.
 48 49  0  0  0  0  0  0  0  0  2 V2000
  152.1981  145.1790  159.0891 C   0  0  0  0  0  0  0  0  0  0  0  0
  151.4365  143.9032  158.7040 C   0  0  2  0  0  0  0  0  0  0  0  0
  151.5591  143.5997  157.2001 C   0  0  0  0  0  0  0  0  0  0  0  0
  150.7723  142.3353  156.8174 C   0  0  0  0  0  0  0  0  0  0  0  0
  149.3461  142.4643  157.2197 N   0  3  1  0  0  0  0  0  0  0  0  0
  148.4234  141.4417  156.6310 C   0  0  1  0  0  0  0  0  0  0  0  0
  146.9347  141.6264  157.0429 C   0  0  0  0  0  0  0  0  0  0  0  0
  146.2584  140.3584  157.2953 N   0  0  0  0  0  0  0  0  0  0  0  0
  145.8010  139.9345  158.4846 C   0  0  0  0  0  0  0  0  0  0  0  0
  145.8779  140.6015  159.5152 O   0  0  0  0  0  0  0  0  0  0  0  0
  145.1972  138.5278  158.5328 C   0  0  0  0  0  0  0  0  0  0  0  0
  144.8855  138.1133  159.8888 N   0  0  0  0  0  0  0  0  0  0  0  0
  143.7417  137.7026  160.4405 C   0  0  0  0  0  0  0  0  0  0  0  0
  143.8979  137.4019  161.7208 N   0  0  0  0  0  0  0  0  0  0  0  0
  145.2411  137.6570  161.9433 N   0  0  0  0  0  0  0  0  0  0  0  0
  145.8322  138.0804  160.8601 N   0  0  0  0  0  0  0  0  0  0  0  0
  148.6216  141.3781  155.0883 C   0  0  0  0  0  0  0  0  0  0  0  0
  147.3279  141.0282  154.3293 C   0  0  0  0  0  0  0  0  0  0  0  0
  149.7185  140.3694  154.6913 C   0  0  0  0  0  0  0  0  0  0  0  0
  149.1905  142.7198  158.6771 C   0  0  0  0  0  0  0  0  0  0  0  0
  149.9485  143.9923  159.0872 C   0  0  0  0  0  0  0  0  0  0  0  0
  151.7983  146.0519  158.5721 H   0  0  0  0  0  0  0  0  0  0  0  0
  153.2553  145.0973  158.8353 H   0  0  0  0  0  0  0  0  0  0  0  0
  152.1307  145.3680  160.1610 H   0  0  0  0  0  0  0  0  0  0  0  0
  151.8806  143.0728  159.2553 H   0  0  0  0  0  0  0  0  0  0  0  0
  151.1899  144.4469  156.6201 H   0  0  0  0  0  0  0  0  0  0  0  0
  152.6080  143.4733  156.9288 H   0  0  0  0  0  0  0  0  0  0  0  0
  150.8443  142.1849  155.7397 H   0  0  0  0  0  0  0  0  0  0  0  0
  151.2302  141.4678  157.2904 H   0  0  0  0  0  0  0  0  0  0  0  0
  148.7362  140.4681  157.0121 H   0  0  0  0  0  0  0  0  0  0  0  0
  146.8646  142.2937  157.9033 H   0  0  0  0  0  0  0  0  0  0  0  0
  146.3762  142.1079  156.2412 H   0  0  0  0  0  0  0  0  0  0  0  0
  146.1380  139.7439  156.5026 H   0  0  0  0  0  0  0  0  0  0  0  0
  144.2893  138.5007  157.9285 H   0  0  0  0  0  0  0  0  0  0  0  0
  145.8930  137.8072  158.1009 H   0  0  0  0  0  0  0  0  0  0  0  0
  142.8053  137.6208  159.9085 H   0  0  0  0  0  0  0  0  0  0  0  0
  148.9394  142.3599  154.7362 H   0  0  0  0  0  0  0  0  0  0  0  0
  146.8910  140.0985  154.6955 H   0  0  0  0  0  0  0  0  0  0  0  0
  147.5203  140.9043  153.2630 H   0  0  0  0  0  0  0  0  0  0  0  0
  146.5777  141.8135  154.4178 H   0  0  0  0  0  0  0  0  0  0  0  0
  149.4780  139.3649  155.0409 H   0  0  0  0  0  0  0  0  0  0  0  0
  150.6926  140.6401  155.0988 H   0  0  0  0  0  0  0  0  0  0  0  0
  149.8350  140.3224  153.6080 H   0  0  0  0  0  0  0  0  0  0  0  0
  148.1363  142.8325  158.9294 H   0  0  0  0  0  0  0  0  0  0  0  0
  149.5661  141.8747  159.2533 H   0  0  0  0  0  0  0  0  0  0  0  0
  149.8476  144.1480  160.1619 H   0  0  0  0  0  0  0  0  0  0  0  0
  149.4922  144.8586  158.6057 H   0  0  0  0  0  0  0  0  0  0  0  0
  149.0527  143.3235  156.7770 H   0  0  0  0  0  0  0  0  0  0  0  0
  1  2  1  0  0  0  0
  1 22  1  0  0  0  0
  1 23  1  0  0  0  0
  1 24  1  0  0  0  0
  2 21  1  0  0  0  0
  2  3  1  0  0  0  0
  2 25  1  0  0  0  0
  3  4  1  0  0  0  0
  3 26  1  0  0  0  0
  3 27  1  0  0  0  0
  4  5  1  0  0  0  0
  4 28  1  0  0  0  0
  4 29  1  0  0  0  0
  5  6  1  0  0  0  0
  5 20  1  0  0  0  0
  5 48  1  0  0  0  0
  6  7  1  0  0  0  0
  6 17  1  0  0  0  0
  6 30  1  0  0  0  0
  7  8  1  0  0  0  0
  7 31  1  0  0  0  0
  7 32  1  0  0  0  0
  8  9  1  0  0  0  0
  8 33  1  0  0  0  0
  9 10  2  0  0  0  0
  9 11  1  0  0  0  0
 11 12  1  0  0  0  0
 11 34  1  0  0  0  0
 11 35  1  0  0  0  0
 12 16  1  0  0  0  0
 12 13  1  0  0  0  0
 13 14  2  0  0  0  0
 13 36  1  0  0  0  0
 14 15  1  0  0  0  0
 15 16  2  0  0  0  0
 17 18  1  0  0  0  0
 17 19  1  0  0  0  0
 17 37  1  0  0  0  0
 18 38  1  0  0  0  0
 18 39  1  0  0  0  0
 18 40  1  0  0  0  0
 19 41  1  0  0  0  0
 19 42  1  0  0  0  0
 19 43  1  0  0  0  0
 20 21  1  0  0  0  0
 20 44  1  0  0  0  0
 20 45  1  0  0  0  0
 21 46  1  0  0  0  0
 21 47  1  0  0  0  0
M  CHG  1   5   1
M  END
> <s_m_source_file>
AV-unprocessed.smi

> <i_m_source_file_index>
1536

> <i_lp_mmshare_version>
43012

> <i_f3d_flags>
0

> <s_epik_input>
W0NIM11bQ0hdMVtDSDJdW0NIMl1OKFtDSDJdW0NIMl0xKVtDQEBIXShbQ0hdKFtDSDNdKVtDSDNdKVtDSDJdW05IXUMoPU8pW0NIMl1uMltjSF1ubm4y

> <s_epik_cmdline>
J2VwaWtfcHl0aG9uJywgJy1waCcsICc3LjAnLCAnLXRuJywgJzgnLCAnLW1hJywgJzIwMCcsICctbWV0YWxfYmluZGluZycsICctaW1hZScsICc8aW5maWxlLm1hZT4nLCAnLW9tYWUnLCAnPG91dGZpbGUubWFlPic=

> <r_lp_tautomer_probability>
1

> <r_epik_Ionization_Penalty>
0.00109671

> <r_epik_Ionization_Penalty_Charging>
0.00109273

> <r_epik_Ionization_Penalty_Neutral>
3.97951e-06

> <r_epik_State_Penalty>
0.000716588

> <r_epik_Charging_Adjusted_Penalty>
0.00180932

> <i_epik_Tot_Q>
1

> <i_epik_Tot_abs_Q>
1

> <r_epik_Metal_State_Penalty>
-0

> <b_epik_Metal_Only>
0

> <s_lp_Force_Field>
OPLS_2005

> <r_lp_Energy>
35.3262

> <b_lp_Chiralities_Consistent>
1

> <s_lp_Variant>
AV-unprocessed.smi:1536-2

> <Gold.Version>
5.8.1

> <Gold.Id.Protein>
6NUR|6NUR_protein|mol2

> <Gold.PLP.Fitness>
37.9408

> <Gold.PLP.PLP>
-31.1903

> <Gold.PLP.part.hbond>
-4.5992

> <Gold.PLP.part.metal>
0.0000

> <Gold.PLP.part.buried>
-3.1057

> <Gold.PLP.part.nonpolar>
-24.0092

> <Gold.PLP.part.repulsive>
0.0504

> <Gold.PLP.ligand.clash>
0.0000

> <Gold.PLP.ligand.torsion>
1.5498

> <Gold.PLP.Chemscore.Hbond>
3.1778

> <Gold.PLP.Chemscore.CHOScore>
0.0000

> <Gold.PLP.Chemscore.Metal>
0.0000

> <Gold.Chemscore.Hbonds>
donor molecule, donor type, donor heavy atom, donor atom, acceptor molecule, acceptor atom, score
      L1  H     5    48       P1  8028  2.00
      P1  H  6934  6946       L1    10  0.42
      P1  H  6934  6947       L1    16  0.91

> <Gold.PLP.Chemscore.Internal.Correction>
0.3166

> <Gold.Rescore>
     Score         DG    S(hbond)    S(metal)    S(lipo)     H(rot)  DE(clash)    DE(int)     intcor
     11.17     -15.09       2.11        0.00      82.62       2.77       0.95       2.97       ----

> <Gold.Chemscore.Fitness>
11.1692

> <Gold.Chemscore.DG>
-15.0861

> <Gold.Chemscore.ZeroCoef>
-5.4800

> <Gold.Chemscore.Hbond>
2.1057

> <Gold.Chemscore.Metal>
0.0000

> <Gold.Chemscore.Lipo>
82.6198

> <Gold.Chemscore.Internal_Hbond>
0.0000

> <Gold.Chemscore.DEClash>
0.9454

> <Gold.Chemscore.DEInternal>
2.9716

> <Gold.Chemscore.Rot>
2.7709

> <Gold.Chemscore.Internal.Correction>
   9.000000E+99

> <Gold.Chemscore.Hbonds>
donor molecule, donor type, donor heavy atom, donor atom, acceptor molecule, acceptor atom, score
      L1  H     5    48       P1  8028  0.91
      P1  H  6934  6946       L1    10  0.41
      P1  H  6934  6947       L1    16  0.87

> <Gold.Chemscore.Hbond.Weighted>
-7.0331

> <Gold.Chemscore.Metal.Weighted>
-0.0000

> <Gold.Chemscore.Lipo.Weighted>
-9.6665

> <Gold.Chemscore.Internal_Hbond.Weighted>
0.0000

> <Gold.Chemscore.DEClash.Weighted>
0.9454

> <Gold.Chemscore.DEInternal.Weighted>
2.9716

> <Gold.Chemscore.Rot.Weighted>
7.0935

> <Gold.Chemscore.Internal.Correction.Weighted>
   9.000000E+99

> <Gold.Protein.RotatedTorsions>
[ 6907 6896 6895 6894 ] final   85.95 input  -60.11 | X-H torsion
[ 7974 7965 7964 7962 ] final  -61.64 input  175.53 | X-H torsion
[ 8008 7997 7996 7995 ] final  149.11 input   59.86 | X-H torsion
[ 10167 10162 10161 10158 ] final   70.21 input  -65.29 | X-H torsion
[ 10718 10713 10712 10709 ] final   45.41 input   66.30 | X-H torsion
[ 10763 10752 10751 10750 ] final  112.57 input  -60.55 | X-H torsion
[ 11005 11000 10999 10996 ] final  -10.22 input  -57.11 | X-H torsion

> <Gold.Protein.ActiveResidues>
 VAL166  LYS551  ARG553  GLY616  TRP617  ASP618  TYR619  PRO620  LYS621  CYS622 
 ASP623  PHE694  ASN695  SER759  ASP760  ASP761  ALA762  ILE779  LEU786  VAL792 
 PHE793  MET794  SER795  GLU796  ALA797  LYS798  CYS799  TRP800  GLU811  SER814 

> <Gold.Protein.RotatedAtoms>
  152.5385  134.2507  159.8897 H   0  0  0  0  0  0  0  0  0  0  0  0  # atno 6907 bound_to 6896
  151.2470  133.4363  159.2617 H   0  0  0  0  0  0  0  0  0  0  0  0  # atno 6908 bound_to 6896
  151.0574  134.9728  159.8299 H   0  0  0  0  0  0  0  0  0  0  0  0  # atno 6909 bound_to 6896
  145.8010  140.8655  143.0231 H   0  0  0  0  0  0  0  0  0  0  0  0  # atno 7974 bound_to 7965
  156.2767  140.2110  156.5806 H   0  0  0  0  0  0  0  0  0  0  0  0  # atno 8008 bound_to 7997
  154.7062  140.0516  157.0529 H   0  0  0  0  0  0  0  0  0  0  0  0  # atno 8009 bound_to 7997
  155.0667  140.3172  155.4646 H   0  0  0  0  0  0  0  0  0  0  0  0  # atno 8010 bound_to 7997
  140.0594  144.5245  150.7305 H   0  0  0  0  0  0  0  0  0  0  0  0  # atno 10167 bound_to 10162
  157.4372  130.8060  149.7659 H   0  0  0  0  0  0  0  0  0  0  0  0  # atno 10718 bound_to 10713
  153.4798  135.3682  155.2436 H   0  0  0  0  0  0  0  0  0  0  0  0  # atno 10763 bound_to 10752
  154.8755  135.3951  154.3713 H   0  0  0  0  0  0  0  0  0  0  0  0  # atno 10764 bound_to 10752
  153.4315  135.7082  153.6293 H   0  0  0  0  0  0  0  0  0  0  0  0  # atno 10765 bound_to 10752
  140.7424  133.8659  155.8978 H   0  0  0  0  0  0  0  0  0  0  0  0  # atno 11005 bound_to 11000
  144.6769  140.0259  143.7483 LP  0  0  0  0  0  0  0  0  0  0  0  0  # atno 17320 bound_to 7965
  145.9878  139.2991  143.1003 LP  0  0  0  0  0  0  0  0  0  0  0  0  # atno 17321 bound_to 7965
  140.7179  143.2561  151.4375 LP  0  0  0  0  0  0  0  0  0  0  0  0  # atno 17342 bound_to 10162
  139.5903  144.1514  152.2080 LP  0  0  0  0  0  0  0  0  0  0  0  0  # atno 17343 bound_to 10162
  155.9935  130.3924  150.2898 LP  0  0  0  0  0  0  0  0  0  0  0  0  # atno 17370 bound_to 10713
  157.1060  131.0208  151.3067 LP  0  0  0  0  0  0  0  0  0  0  0  0  # atno 17371 bound_to 10713
  140.9825  134.1387  157.4482 LP  0  0  0  0  0  0  0  0  0  0  0  0  # atno 17394 bound_to 11000
  139.8803  135.0015  156.6070 LP  0  0  0  0  0  0  0  0  0  0  0  0  # atno 17395 bound_to 11000

$$$$
