AV-unprocessed.smi:1178|AV-procd|sdf|4957|dock7
  -GOLD-   22720 3553D 1   1.00000     0.00000
 Structure written by MMmdl.
 32 33  0  0  0  0  0  0  0  0  2 V2000
  153.1037  139.9712  157.1670 O   0  0  0  0  0  0  0  0  0  0  0  0
  151.9212  140.0220  157.5044 C   0  0  0  0  0  0  0  0  0  0  0  0
  150.8368  139.6036  156.4958 C   0  0  0  0  0  0  0  0  0  0  0  0
  150.9941  138.2473  155.9387 N   0  0  0  0  0  0  0  0  0  0  0  0
  149.9997  137.3006  156.2424 C   0  0  0  0  0  0  0  0  0  0  0  0
  150.0532  136.0387  155.7755 C   0  0  0  0  0  0  0  0  0  0  0  0
  151.1814  135.6620  154.9328 C   0  0  0  0  0  0  0  0  0  0  0  0
  151.2466  134.5142  154.4973 O   0  0  0  0  0  0  0  0  0  0  0  0
  152.1202  136.6164  154.6654 N   0  5  0  0  0  0  0  0  0  0  0  0
  152.0522  137.8963  155.1464 C   0  0  0  0  0  0  0  0  0  0  0  0
  152.9055  138.7444  154.8853 O   0  0  0  0  0  0  0  0  0  0  0  0
  151.5337  140.4248  158.7251 N   0  0  0  0  0  0  0  0  0  0  0  0
  152.4359  140.8587  159.7800 C   0  0  0  0  0  0  0  0  0  0  0  0
  153.0773  142.2075  159.4170 C   0  0  0  0  0  0  0  0  0  0  0  0
  152.2199  143.3299  159.8184 N   0  0  0  0  0  0  0  0  0  0  0  0
  152.0448  144.4289  159.0487 C   0  0  0  0  0  0  0  0  0  0  0  0
  152.5632  144.6062  157.9468 O   0  0  0  0  0  0  0  0  0  0  0  0
  151.1271  145.4932  159.6621 C   0  0  0  0  0  0  0  0  0  0  0  0
  150.6376  144.8197  161.2520 S   0  0  0  0  0  0  0  0  0  0  0  0
  151.5722  143.3710  160.9951 C   0  0  0  0  0  0  0  0  0  0  0  0
  151.6139  142.4860  161.8493 O   0  0  0  0  0  0  0  0  0  0  0  0
  149.8619  139.7031  156.9758 H   0  0  0  0  0  0  0  0  0  0  0  0
  150.8274  140.3377  155.6890 H   0  0  0  0  0  0  0  0  0  0  0  0
  149.1967  137.6620  156.8680 H   0  0  0  0  0  0  0  0  0  0  0  0
  149.2803  135.3242  156.0168 H   0  0  0  0  0  0  0  0  0  0  0  0
  150.5438  140.4463  158.9251 H   0  0  0  0  0  0  0  0  0  0  0  0
  151.8809  140.9421  160.7157 H   0  0  0  0  0  0  0  0  0  0  0  0
  153.2088  140.1025  159.9270 H   0  0  0  0  0  0  0  0  0  0  0  0
  154.0554  142.2935  159.8940 H   0  0  0  0  0  0  0  0  0  0  0  0
  153.2775  142.2471  158.3446 H   0  0  0  0  0  0  0  0  0  0  0  0
  151.6615  146.4345  159.7925 H   0  0  0  0  0  0  0  0  0  0  0  0
  150.2543  145.6619  159.0309 H   0  0  0  0  0  0  0  0  0  0  0  0
  1  2  2  0  0  0  0
  2  3  1  0  0  0  0
  2 12  1  0  0  0  0
  3  4  1  0  0  0  0
  3 22  1  0  0  0  0
  3 23  1  0  0  0  0
  4 10  1  0  0  0  0
  4  5  1  0  0  0  0
  5  6  2  0  0  0  0
  5 24  1  0  0  0  0
  6  7  1  0  0  0  0
  6 25  1  0  0  0  0
  7  8  2  0  0  0  0
  7  9  1  0  0  0  0
  9 10  1  0  0  0  0
 10 11  2  0  0  0  0
 12 13  1  0  0  0  0
 12 26  1  0  0  0  0
 13 14  1  0  0  0  0
 13 27  1  0  0  0  0
 13 28  1  0  0  0  0
 14 15  1  0  0  0  0
 14 29  1  0  0  0  0
 14 30  1  0  0  0  0
 15 20  1  0  0  0  0
 15 16  1  0  0  0  0
 16 17  2  0  0  0  0
 16 18  1  0  0  0  0
 18 19  1  0  0  0  0
 18 31  1  0  0  0  0
 18 32  1  0  0  0  0
 19 20  1  0  0  0  0
 20 21  2  0  0  0  0
M  CHG  1   9  -1
M  END
> <s_m_source_file>
AV-unprocessed.smi

> <i_m_source_file_index>
1178

> <i_lp_mmshare_version>
43012

> <i_f3d_flags>
0

> <s_epik_input>
Tz1jMVtuSF1jKD1PKVtjSF1bY0hdbjFbQ0gyXUMoPU8pW05IXVtDSDJdW0NIMl1OMkMoPU8pW0NIMl1TQzI9Tw==

> <s_epik_cmdline>
J2VwaWtfcHl0aG9uJywgJy1waCcsICc3LjAnLCAnLXRuJywgJzgnLCAnLW1hJywgJzIwMCcsICctbWV0YWxfYmluZGluZycsICctaW1hZScsICc8aW5maWxlLm1hZT4nLCAnLW9tYWUnLCAnPG91dGZpbGUubWFlPic=

> <r_lp_tautomer_probability>
0.999537

> <r_epik_Ionization_Penalty>
3.05962

> <r_epik_Ionization_Penalty_Charging>
2.46074e-08

> <r_epik_Ionization_Penalty_Neutral>
3.05962

> <r_epik_State_Penalty>
3.05863

> <r_epik_Charging_Adjusted_Penalty>
3.05863

> <i_epik_Tot_Q>
-1

> <i_epik_Tot_abs_Q>
1

> <r_epik_Metal_State_Penalty>
0.458209

> <b_epik_Metal_Only>
1

> <s_lp_Force_Field>
OPLS_2005

> <r_lp_Energy>
17.4268

> <b_lp_Chiralities_Consistent>
1

> <s_lp_Variant>
AV-unprocessed.smi:1178-2

> <Gold.Version>
5.8.1

> <Gold.Id.Protein>
6NUR|6NUR_protein|mol2

> <Gold.PLP.Fitness>
42.7761

> <Gold.PLP.PLP>
-32.4943

> <Gold.PLP.part.hbond>
-3.0000

> <Gold.PLP.part.metal>
0.0000

> <Gold.PLP.part.buried>
-1.2290

> <Gold.PLP.part.nonpolar>
-30.0654

> <Gold.PLP.part.repulsive>
0.6751

> <Gold.PLP.ligand.clash>
0.0000

> <Gold.PLP.ligand.torsion>
0.4908

> <Gold.PLP.Chemscore.Hbond>
3.7436

> <Gold.PLP.Chemscore.CHOScore>
0.0000

> <Gold.PLP.Chemscore.Metal>
0.0000

> <Gold.Chemscore.Hbonds>
donor molecule, donor type, donor heavy atom, donor atom, acceptor molecule, acceptor atom, score
      P1  H  6933  6945       L1    21  0.77
      P1  H  7997  8010       L1     1  0.62
      P1  H 10752 10763       L1     9  0.22

> <Gold.PLP.Chemscore.Internal.Correction>
0.0326

> <Gold.Rescore>
     Score         DG    S(hbond)    S(metal)    S(lipo)     H(rot)  DE(clash)    DE(int)     intcor
      7.88     -11.89       2.48        0.00      47.67       2.91       0.62       3.39       ----

> <Gold.Chemscore.Fitness>
7.8750

> <Gold.Chemscore.DG>
-11.8871

> <Gold.Chemscore.ZeroCoef>
-5.4800

> <Gold.Chemscore.Hbond>
2.4781

> <Gold.Chemscore.Metal>
0.0000

> <Gold.Chemscore.Lipo>
47.6716

> <Gold.Chemscore.Internal_Hbond>
0.0000

> <Gold.Chemscore.DEClash>
0.6241

> <Gold.Chemscore.DEInternal>
3.3880

> <Gold.Chemscore.Rot>
2.9092

> <Gold.Chemscore.Internal.Correction>
   9.000000E+99

> <Gold.Chemscore.Hbonds>
donor molecule, donor type, donor heavy atom, donor atom, acceptor molecule, acceptor atom, score
      P1  H  6933  6945       L1    21  0.69
      P1  H  7997  8010       L1     1  0.62

> <Gold.Chemscore.Hbond.Weighted>
-8.2770

> <Gold.Chemscore.Metal.Weighted>
-0.0000

> <Gold.Chemscore.Lipo.Weighted>
-5.5776

> <Gold.Chemscore.Internal_Hbond.Weighted>
0.0000

> <Gold.Chemscore.DEClash.Weighted>
0.6241

> <Gold.Chemscore.DEInternal.Weighted>
3.3880

> <Gold.Chemscore.Rot.Weighted>
7.4474

> <Gold.Chemscore.Internal.Correction.Weighted>
   9.000000E+99

> <Gold.Protein.RotatedTorsions>
[ 6907 6896 6895 6894 ] final  -50.36 input  -60.11 | X-H torsion
[ 7974 7965 7964 7962 ] final -179.15 input  175.53 | X-H torsion
[ 8008 7997 7996 7995 ] final   60.68 input   59.86 | X-H torsion
[ 10167 10162 10161 10158 ] final -151.12 input  -65.29 | X-H torsion
[ 10718 10713 10712 10709 ] final -161.95 input   66.30 | X-H torsion
[ 10763 10752 10751 10750 ] final   60.91 input  -60.55 | X-H torsion
[ 11005 11000 10999 10996 ] final   -4.81 input  -57.11 | X-H torsion

> <Gold.Protein.ActiveResidues>
 VAL166  LYS551  ARG553  GLY616  TRP617  ASP618  TYR619  PRO620  LYS621  CYS622 
 ASP623  PHE694  ASN695  SER759  ASP760  ASP761  ALA762  ILE779  LEU786  VAL792 
 PHE793  MET794  SER795  GLU796  ALA797  LYS798  CYS799  TRP800  GLU811  SER814 

> <Gold.Protein.RotatedAtoms>
  150.8714  134.8089  159.7157 H   0  0  0  0  0  0  0  0  0  0  0  0  # atno 6907 bound_to 6896
  152.4717  134.4940  159.9714 H   0  0  0  0  0  0  0  0  0  0  0  0  # atno 6908 bound_to 6896
  151.5028  133.3462  159.2907 H   0  0  0  0  0  0  0  0  0  0  0  0  # atno 6909 bound_to 6896
  144.7135  140.0761  143.6427 H   0  0  0  0  0  0  0  0  0  0  0  0  # atno 7974 bound_to 7965
  155.5862  140.3492  155.4554 H   0  0  0  0  0  0  0  0  0  0  0  0  # atno 8008 bound_to 7997
  156.0336  140.1280  157.0256 H   0  0  0  0  0  0  0  0  0  0  0  0  # atno 8009 bound_to 7997
  154.4362  140.1038  156.6121 H   0  0  0  0  0  0  0  0  0  0  0  0  # atno 8010 bound_to 7997
  139.7295  143.8831  152.2530 H   0  0  0  0  0  0  0  0  0  0  0  0  # atno 10167 bound_to 10162
  156.6035  130.8820  151.2919 H   0  0  0  0  0  0  0  0  0  0  0  0  # atno 10718 bound_to 10713
  152.9935  135.5519  154.5950 H   0  0  0  0  0  0  0  0  0  0  0  0  # atno 10763 bound_to 10752
  154.5303  135.2813  155.1188 H   0  0  0  0  0  0  0  0  0  0  0  0  # atno 10764 bound_to 10752
  154.2505  135.6399  153.5291 H   0  0  0  0  0  0  0  0  0  0  0  0  # atno 10765 bound_to 10752
  140.6843  133.9126  155.8575 H   0  0  0  0  0  0  0  0  0  0  0  0  # atno 11005 bound_to 11000
  145.9742  139.2892  143.1081 LP  0  0  0  0  0  0  0  0  0  0  0  0  # atno 17320 bound_to 7965
  145.9083  140.9197  143.0467 LP  0  0  0  0  0  0  0  0  0  0  0  0  # atno 17321 bound_to 7965
  139.8750  144.7048  150.8944 LP  0  0  0  0  0  0  0  0  0  0  0  0  # atno 17342 bound_to 10162
  140.7768  143.3707  151.1654 LP  0  0  0  0  0  0  0  0  0  0  0  0  # atno 17343 bound_to 10162
  157.7273  130.9641  150.1693 LP  0  0  0  0  0  0  0  0  0  0  0  0  # atno 17370 bound_to 10713
  156.2449  130.3694  149.8296 LP  0  0  0  0  0  0  0  0  0  0  0  0  # atno 17371 bound_to 10713
  141.0293  134.0779  157.4033 LP  0  0  0  0  0  0  0  0  0  0  0  0  # atno 17394 bound_to 11000
  139.8942  135.0135  156.6940 LP  0  0  0  0  0  0  0  0  0  0  0  0  # atno 17395 bound_to 11000

$$$$
