AV-unprocessed.smi:51|AV-procd|sdf|499|dock9
  -GOLD-   2262016373D 1   1.00000     0.00000
 Structure written by MMmdl.
 25 26  0  0  0  0  0  0  0  0  2 V2000
  152.6197  137.5135  153.8581 O   0  0  0  0  0  0  0  0  0  0  0  0
  152.5119  138.4151  154.7176 C   0  0  0  0  0  0  0  0  0  0  0  0
  153.4391  139.1611  155.1052 O   0  5  0  0  0  0  0  0  0  0  0  0
  151.1271  138.6056  155.3503 C   0  0  2  0  0  0  0  0  0  0  0  0
  150.0337  137.7490  154.6819 C   0  0  0  0  0  0  0  0  0  0  0  0
  149.2898  138.7407  153.7898 C   0  0  1  0  0  0  0  0  0  0  0  0
  147.9561  138.3503  153.5384 O   0  0  0  0  0  0  0  0  0  0  0  0
  149.3789  140.0329  154.5977 C   0  0  0  0  0  0  0  0  0  0  0  0
  150.7046  139.9987  155.1996 N   0  0  0  0  0  0  0  0  0  0  0  0
  150.8872  140.8186  156.3218 C   0  0  0  0  0  0  0  0  0  0  0  0
  151.2716  140.2431  157.5507 C   0  0  0  0  0  0  0  0  0  0  0  0
  151.4329  141.1272  158.6360 C   0  0  0  0  0  0  0  0  0  0  0  0
  151.2354  142.4571  158.5064 N   0  0  0  0  0  0  0  0  0  0  0  0
  150.8748  142.8942  157.2971 C   0  0  0  0  0  0  0  0  0  0  0  0
  150.6923  142.1542  156.2011 N   0  0  0  0  0  0  0  0  0  0  0  0
  151.1989  138.3285  156.4034 H   0  0  0  0  0  0  0  0  0  0  0  0
  150.4183  136.8918  154.1272 H   0  0  0  0  0  0  0  0  0  0  0  0
  149.3655  137.3641  155.4540 H   0  0  0  0  0  0  0  0  0  0  0  0
  149.8201  138.8570  152.8434 H   0  0  0  0  0  0  0  0  0  0  0  0
  147.9694  137.5981  152.9667 H   0  0  0  0  0  0  0  0  0  0  0  0
  149.2564  140.9119  153.9641 H   0  0  0  0  0  0  0  0  0  0  0  0
  148.6053  140.0606  155.3673 H   0  0  0  0  0  0  0  0  0  0  0  0
  151.4278  139.1796  157.6570 H   0  0  0  0  0  0  0  0  0  0  0  0
  151.7232  140.7660  159.6113 H   0  0  0  0  0  0  0  0  0  0  0  0
  150.7175  143.9576  157.1941 H   0  0  0  0  0  0  0  0  0  0  0  0
  1  2  2  0  0  0  0
  2  3  1  0  0  0  0
  2  4  1  0  0  0  0
  4  9  1  0  0  0  0
  4  5  1  0  0  0  0
  4 16  1  0  0  0  0
  5  6  1  0  0  0  0
  5 17  1  0  0  0  0
  5 18  1  0  0  0  0
  6  7  1  0  0  0  0
  6  8  1  0  0  0  0
  6 19  1  0  0  0  0
  7 20  1  0  0  0  0
  8  9  1  0  0  0  0
  8 21  1  0  0  0  0
  8 22  1  0  0  0  0
  9 10  1  0  0  0  0
 10 15  1  0  0  0  0
 10 11  2  0  0  0  0
 11 12  1  0  0  0  0
 11 23  1  0  0  0  0
 12 13  2  0  0  0  0
 12 24  1  0  0  0  0
 13 14  1  0  0  0  0
 14 15  2  0  0  0  0
 14 25  1  0  0  0  0
M  CHG  1   3  -1
M  END
> <s_m_source_file>
AV-unprocessed.smi

> <i_m_source_file_index>
51

> <i_lp_mmshare_version>
43012

> <i_f3d_flags>
0

> <s_epik_input>
Tz1DKFtPSF0pW0NAQEhdMVtDSDJdW0NAQEhdKFtPSF0pW0NIMl1OMWMyW2NIXVtjSF1uW2NIXW4y

> <s_epik_cmdline>
J2VwaWtfcHl0aG9uJywgJy1waCcsICc3LjAnLCAnLXRuJywgJzgnLCAnLW1hJywgJzIwMCcsICctbWV0YWxfYmluZGluZycsICctaW1hZScsICc8aW5maWxlLm1hZT4nLCAnLW9tYWUnLCAnPG91dGZpbGUubWFlPic=

> <r_lp_tautomer_probability>
1

> <r_epik_Ionization_Penalty>
0.225251

> <r_epik_Ionization_Penalty_Charging>
0.000248217

> <r_epik_Ionization_Penalty_Neutral>
0.225002

> <r_epik_State_Penalty>
0.21284

> <r_epik_Charging_Adjusted_Penalty>
0.213088

> <i_epik_Tot_Q>
-1

> <i_epik_Tot_abs_Q>
1

> <r_epik_Metal_State_Penalty>
0.154111

> <b_epik_Metal_Only>
0

> <s_lp_Force_Field>
OPLS_2005

> <r_lp_Energy>
17.878

> <b_lp_Chiralities_Consistent>
1

> <s_lp_Variant>
AV-unprocessed.smi:51-1

> <Gold.Version>
5.8.1

> <Gold.Id.Protein>
6NUR|6NUR_protein|mol2

> <Gold.PLP.Fitness>
39.7876

> <Gold.PLP.PLP>
-22.9355

> <Gold.PLP.part.hbond>
-3.7708

> <Gold.PLP.part.metal>
0.0000

> <Gold.PLP.part.buried>
-0.2493

> <Gold.PLP.part.nonpolar>
-19.5401

> <Gold.PLP.part.repulsive>
0.3280

> <Gold.PLP.ligand.clash>
0.1208

> <Gold.PLP.ligand.torsion>
0.1505

> <Gold.PLP.Chemscore.Hbond>
4.9540

> <Gold.PLP.Chemscore.CHOScore>
0.7709

> <Gold.PLP.Chemscore.Metal>
0.0000

> <Gold.Chemscore.Hbonds>
donor molecule, donor type, donor heavy atom, donor atom, acceptor molecule, acceptor atom, score
      L1  H     7    20       P1  7948  1.00
      P1  H  7989  7998       L1     9  0.50
      P1  H  7997  8010       L1     3  2.00
      P1  H 10752 10765       L1     1  1.38
      L1  C    14    25       P1  8028  0.78

> <Gold.PLP.Chemscore.Internal.Correction>
0.0992

> <Gold.Rescore>
     Score         DG    S(hbond)    S(metal)    S(lipo)     H(rot)  DE(clash)    DE(int)     intcor
     12.49     -12.62       2.59        0.00      35.84       2.23       0.02       0.10       ----

> <Gold.Chemscore.Fitness>
12.4890

> <Gold.Chemscore.DG>
-12.6168

> <Gold.Chemscore.ZeroCoef>
-5.4800

> <Gold.Chemscore.Hbond>
2.5895

> <Gold.Chemscore.Metal>
0.0000

> <Gold.Chemscore.Lipo>
35.8359

> <Gold.Chemscore.Internal_Hbond>
0.0000

> <Gold.Chemscore.DEClash>
0.0237

> <Gold.Chemscore.DEInternal>
0.1041

> <Gold.Chemscore.Rot>
2.2285

> <Gold.Chemscore.Internal.Correction>
   9.000000E+99

> <Gold.Chemscore.Hbonds>
donor molecule, donor type, donor heavy atom, donor atom, acceptor molecule, acceptor atom, score
      L1  H     7    20       P1  7948  0.92
      P1  H  7989  7998       L1     9  0.02
      P1  H  7997  8010       L1     3  0.98
      P1  H 10752 10765       L1     1  0.68

> <Gold.Chemscore.Hbond.Weighted>
-8.6489

> <Gold.Chemscore.Metal.Weighted>
-0.0000

> <Gold.Chemscore.Lipo.Weighted>
-4.1928

> <Gold.Chemscore.Internal_Hbond.Weighted>
0.0000

> <Gold.Chemscore.DEClash.Weighted>
0.0237

> <Gold.Chemscore.DEInternal.Weighted>
0.1041

> <Gold.Chemscore.Rot.Weighted>
5.7050

> <Gold.Chemscore.Internal.Correction.Weighted>
   9.000000E+99

> <Gold.Protein.RotatedTorsions>
[ 6907 6896 6895 6894 ] final   -2.98 input  -60.11 | X-H torsion
[ 7974 7965 7964 7962 ] final -160.24 input  175.53 | X-H torsion
[ 8008 7997 7996 7995 ] final   96.87 input   59.86 | X-H torsion
[ 10167 10162 10161 10158 ] final  -10.94 input  -65.29 | X-H torsion
[ 10718 10713 10712 10709 ] final  -39.98 input   66.30 | X-H torsion
[ 10763 10752 10751 10750 ] final  130.55 input  -60.55 | X-H torsion
[ 11005 11000 10999 10996 ] final  172.65 input  -57.11 | X-H torsion

> <Gold.Protein.ActiveResidues>
 VAL166  LYS551  ARG553  GLY616  TRP617  ASP618  TYR619  PRO620  LYS621  CYS622 
 ASP623  PHE694  ASN695  SER759  ASP760  ASP761  ALA762  ILE779  LEU786  VAL792 
 PHE793  MET794  SER795  GLU796  ALA797  LYS798  CYS799  TRP800  GLU811  SER814 

> <Gold.Protein.RotatedAtoms>
  151.5212  135.1067  159.9878 H   0  0  0  0  0  0  0  0  0  0  0  0  # atno 6907 bound_to 6896
  152.4620  133.7837  159.6875 H   0  0  0  0  0  0  0  0  0  0  0  0  # atno 6908 bound_to 6896
  150.8586  133.7613  159.3025 H   0  0  0  0  0  0  0  0  0  0  0  0  # atno 6909 bound_to 6896
  144.7434  140.3570  143.6104 H   0  0  0  0  0  0  0  0  0  0  0  0  # atno 7974 bound_to 7965
  156.0842  140.3266  155.7733 H   0  0  0  0  0  0  0  0  0  0  0  0  # atno 8008 bound_to 7997
  155.5103  140.0576  157.2942 H   0  0  0  0  0  0  0  0  0  0  0  0  # atno 8009 bound_to 7997
  154.4600  140.1962  156.0289 H   0  0  0  0  0  0  0  0  0  0  0  0  # atno 8010 bound_to 7997
  140.7126  143.5693  150.9110 H   0  0  0  0  0  0  0  0  0  0  0  0  # atno 10167 bound_to 10162
  156.2864  130.4223  149.8284 H   0  0  0  0  0  0  0  0  0  0  0  0  # atno 10718 bound_to 10713
  153.7599  135.3197  155.3335 H   0  0  0  0  0  0  0  0  0  0  0  0  # atno 10763 bound_to 10752
  154.8234  135.4587  154.0848 H   0  0  0  0  0  0  0  0  0  0  0  0  # atno 10764 bound_to 10752
  153.2076  135.6931  153.8237 H   0  0  0  0  0  0  0  0  0  0  0  0  # atno 10765 bound_to 10752
  140.3320  134.7349  157.4141 H   0  0  0  0  0  0  0  0  0  0  0  0  # atno 11005 bound_to 11000
  145.7217  139.1711  143.2481 LP  0  0  0  0  0  0  0  0  0  0  0  0  # atno 17320 bound_to 7965
  146.1272  140.7233  142.9429 LP  0  0  0  0  0  0  0  0  0  0  0  0  # atno 17321 bound_to 7965
  139.9419  143.6372  152.3051 LP  0  0  0  0  0  0  0  0  0  0  0  0  # atno 17342 bound_to 10162
  139.6860  144.7651  151.1524 LP  0  0  0  0  0  0  0  0  0  0  0  0  # atno 17343 bound_to 10162
  156.5712  130.8426  151.3357 LP  0  0  0  0  0  0  0  0  0  0  0  0  # atno 17370 bound_to 10713
  157.7330  130.9723  150.1954 LP  0  0  0  0  0  0  0  0  0  0  0  0  # atno 17371 bound_to 10713
  140.0853  134.5675  155.8499 LP  0  0  0  0  0  0  0  0  0  0  0  0  # atno 17394 bound_to 11000
  141.2061  133.6652  156.6220 LP  0  0  0  0  0  0  0  0  0  0  0  0  # atno 17395 bound_to 11000

$$$$
