AV-unprocessed.smi:783|AV-procd|sdf|3717|dock10
  -GOLD-   22720 1143D 1   1.00000     0.00000
 Structure written by MMmdl.
 45 46  0  0  0  0  0  0  0  0  1 V2000
  148.5634  134.9775  158.1369 C   0  0  0  0  0  0  0  0  0  0  0  0
  148.8237  136.1186  159.1417 C   0  0  1  0  0  0  0  0  0  0  0  0
  148.3863  137.4905  158.6060 C   0  0  0  0  0  0  0  0  0  0  0  0
  147.1922  137.7699  158.4932 O   0  0  0  0  0  0  0  0  0  0  0  0
  149.3742  138.3367  158.2740 N   0  0  0  0  0  0  0  0  0  0  0  0
  149.2046  139.6825  157.7258 C   0  0  0  0  0  0  0  0  0  0  0  0
  150.5407  140.4801  157.6138 C   0  0  0  0  0  0  0  0  0  0  0  0
  151.5547  139.7827  156.6427 C   0  0  0  0  0  0  0  0  0  0  0  0
  152.6359  139.4144  157.1090 O   0  0  0  0  0  0  0  0  0  0  0  0
  151.2892  139.5783  155.3235 N   0  0  0  0  0  0  0  0  0  0  0  0
  150.0320  140.0785  154.7563 C   0  0  0  0  0  0  0  0  0  0  0  0
  152.1152  138.8853  154.3309 C   0  0  0  0  0  0  0  0  0  0  0  0
  150.2221  141.9243  157.1338 C   0  0  0  0  0  0  0  0  0  0  0  0
  151.3931  142.8112  157.5694 C   0  0  0  0  0  0  0  0  0  0  0  0
  152.0014  142.1059  158.7836 C   0  0  0  0  0  0  0  0  0  0  0  0
  151.1729  140.8301  158.9857 C   0  0  0  0  0  0  0  0  0  0  0  0
  148.2139  135.8662  160.4423 N   0  0  0  0  0  0  0  0  0  0  0  0
  147.8056  134.6558  160.9653 C   0  0  0  0  0  0  0  0  0  0  0  0
  147.3342  134.8895  162.2253 C   0  0  0  0  0  0  0  0  0  0  0  0
  147.5085  136.2907  162.3962 C   0  0  0  0  0  0  0  0  0  0  0  0
  148.0429  136.8703  161.3340 N   0  0  0  0  0  0  0  0  0  0  0  0
  149.0679  135.1675  157.1889 H   0  0  0  0  0  0  0  0  0  0  0  0
  147.5013  134.8493  157.9245 H   0  0  0  0  0  0  0  0  0  0  0  0
  148.9398  134.0294  158.5219 H   0  0  0  0  0  0  0  0  0  0  0  0
  149.9029  136.1619  159.2990 H   0  0  0  0  0  0  0  0  0  0  0  0
  150.3239  138.0182  158.4005 H   0  0  0  0  0  0  0  0  0  0  0  0
  148.7171  139.6287  156.7509 H   0  0  0  0  0  0  0  0  0  0  0  0
  148.4788  140.1862  158.3573 H   0  0  0  0  0  0  0  0  0  0  0  0
  149.9247  141.1497  154.9344 H   0  0  0  0  0  0  0  0  0  0  0  0
  149.1790  139.5698  155.2076 H   0  0  0  0  0  0  0  0  0  0  0  0
  149.9703  139.9275  153.6776 H   0  0  0  0  0  0  0  0  0  0  0  0
  152.9464  138.3163  154.7305 H   0  0  0  0  0  0  0  0  0  0  0  0
  152.5250  139.6096  153.6262 H   0  0  0  0  0  0  0  0  0  0  0  0
  151.5086  138.1786  153.7632 H   0  0  0  0  0  0  0  0  0  0  0  0
  150.0177  142.0103  156.0658 H   0  0  0  0  0  0  0  0  0  0  0  0
  149.3221  142.2853  157.6342 H   0  0  0  0  0  0  0  0  0  0  0  0
  152.1330  142.8846  156.7714 H   0  0  0  0  0  0  0  0  0  0  0  0
  151.0628  143.8234  157.8043 H   0  0  0  0  0  0  0  0  0  0  0  0
  153.0430  141.8533  158.5807 H   0  0  0  0  0  0  0  0  0  0  0  0
  151.9847  142.7353  159.6740 H   0  0  0  0  0  0  0  0  0  0  0  0
  150.3781  141.0373  159.7039 H   0  0  0  0  0  0  0  0  0  0  0  0
  151.7871  140.0541  159.4339 H   0  0  0  0  0  0  0  0  0  0  0  0
  147.8842  133.7373  160.4026 H   0  0  0  0  0  0  0  0  0  0  0  0
  146.9314  134.1687  162.9212 H   0  0  0  0  0  0  0  0  0  0  0  0
  147.2692  136.8991  163.2558 H   0  0  0  0  0  0  0  0  0  0  0  0
  1  2  1  0  0  0  0
  1 22  1  0  0  0  0
  1 23  1  0  0  0  0
  1 24  1  0  0  0  0
  2  3  1  0  0  0  0
  2 17  1  0  0  0  0
  2 25  1  0  0  0  0
  3  4  2  0  0  0  0
  3  5  1  0  0  0  0
  5  6  1  0  0  0  0
  5 26  1  0  0  0  0
  6  7  1  0  0  0  0
  6 27  1  0  0  0  0
  6 28  1  0  0  0  0
  7 16  1  0  0  0  0
  7  8  1  0  0  0  0
  7 13  1  0  0  0  0
  8  9  2  0  0  0  0
  8 10  1  0  0  0  0
 10 11  1  0  0  0  0
 10 12  1  0  0  0  0
 11 29  1  0  0  0  0
 11 30  1  0  0  0  0
 11 31  1  0  0  0  0
 12 32  1  0  0  0  0
 12 33  1  0  0  0  0
 12 34  1  0  0  0  0
 13 14  1  0  0  0  0
 13 35  1  0  0  0  0
 13 36  1  0  0  0  0
 14 15  1  0  0  0  0
 14 37  1  0  0  0  0
 14 38  1  0  0  0  0
 15 16  1  0  0  0  0
 15 39  1  0  0  0  0
 15 40  1  0  0  0  0
 16 41  1  0  0  0  0
 16 42  1  0  0  0  0
 17 21  1  0  0  0  0
 17 18  1  0  0  0  0
 18 19  2  0  0  0  0
 18 43  1  0  0  0  0
 19 20  1  0  0  0  0
 19 44  1  0  0  0  0
 20 21  2  0  0  0  0
 20 45  1  0  0  0  0
M  END
> <s_m_source_file>
AV-unprocessed.smi

> <i_m_source_file_index>
783

> <i_lp_mmshare_version>
43012

> <i_f3d_flags>
0

> <s_epik_input>
bjFbY0hdW2NIXVtjSF1uMVtDQEhdKFtDSDNdKUMoPU8pW05IXVtDSDJdQzIoQyg9TylOKFtDSDNdKVtDSDNdKVtDSDJdW0NIMl1bQ0gyXVtDSDJdMg==

> <s_epik_cmdline>
J2VwaWtfcHl0aG9uJywgJy1waCcsICc3LjAnLCAnLXRuJywgJzgnLCAnLW1hJywgJzIwMCcsICctbWV0YWxfYmluZGluZycsICctaW1hZScsICc8aW5maWxlLm1hZT4nLCAnLW9tYWUnLCAnPG91dGZpbGUubWFlPic=

> <r_lp_tautomer_probability>
1

> <r_epik_Ionization_Penalty>
3.31274e-05

> <r_epik_Ionization_Penalty_Charging>
0

> <r_epik_Ionization_Penalty_Neutral>
3.31274e-05

> <r_epik_State_Penalty>
-0

> <r_epik_Charging_Adjusted_Penalty>
0

> <i_epik_Tot_Q>
0

> <i_epik_Tot_abs_Q>
0

> <r_epik_Metal_State_Penalty>
-0

> <b_epik_Metal_Only>
0

> <s_lp_Force_Field>
OPLS_2005

> <r_lp_Energy>
40.1786

> <b_lp_Chiralities_Consistent>
1

> <s_lp_Variant>
AV-unprocessed.smi:783-2

> <Gold.Version>
5.8.1

> <Gold.Id.Protein>
6NUR|6NUR_protein|mol2

> <Gold.PLP.Fitness>
46.4176

> <Gold.PLP.PLP>
-39.7956

> <Gold.PLP.part.hbond>
-3.0000

> <Gold.PLP.part.metal>
0.0000

> <Gold.PLP.part.buried>
-4.3148

> <Gold.PLP.part.nonpolar>
-32.4214

> <Gold.PLP.part.repulsive>
0.1566

> <Gold.PLP.ligand.clash>
0.0000

> <Gold.PLP.ligand.torsion>
0.8959

> <Gold.PLP.Chemscore.Hbond>
2.7040

> <Gold.PLP.Chemscore.CHOScore>
0.0000

> <Gold.PLP.Chemscore.Metal>
0.0000

> <Gold.Chemscore.Hbonds>
donor molecule, donor type, donor heavy atom, donor atom, acceptor molecule, acceptor atom, score
      P1  H  6931  6943       L1    21  1.00
      P1  H  6934  6947       L1    21  0.15
      P1  H  7997  8008       L1     9  1.00

> <Gold.PLP.Chemscore.Internal.Correction>
0.3018

> <Gold.Rescore>
     Score         DG    S(hbond)    S(metal)    S(lipo)     H(rot)  DE(clash)    DE(int)     intcor
     16.67     -18.16       2.37        0.00      81.17       1.84       0.07       1.42       ----

> <Gold.Chemscore.Fitness>
16.6660

> <Gold.Chemscore.DG>
-18.1567

> <Gold.Chemscore.ZeroCoef>
-5.4800

> <Gold.Chemscore.Hbond>
2.3661

> <Gold.Chemscore.Metal>
0.0000

> <Gold.Chemscore.Lipo>
81.1704

> <Gold.Chemscore.Internal_Hbond>
0.0000

> <Gold.Chemscore.DEClash>
0.0728

> <Gold.Chemscore.DEInternal>
1.4179

> <Gold.Chemscore.Rot>
1.8449

> <Gold.Chemscore.Internal.Correction>
   9.000000E+99

> <Gold.Chemscore.Hbonds>
donor molecule, donor type, donor heavy atom, donor atom, acceptor molecule, acceptor atom, score
      P1  H  6931  6943       L1    21  0.65
      P1  H  6934  6947       L1    21  0.13
      P1  H  7997  8008       L1     9  0.98

> <Gold.Chemscore.Hbond.Weighted>
-7.9026

> <Gold.Chemscore.Metal.Weighted>
-0.0000

> <Gold.Chemscore.Lipo.Weighted>
-9.4969

> <Gold.Chemscore.Internal_Hbond.Weighted>
0.0000

> <Gold.Chemscore.DEClash.Weighted>
0.0728

> <Gold.Chemscore.DEInternal.Weighted>
1.4179

> <Gold.Chemscore.Rot.Weighted>
4.7229

> <Gold.Chemscore.Internal.Correction.Weighted>
   9.000000E+99

> <Gold.Protein.RotatedTorsions>
[ 6907 6896 6895 6894 ] final -173.95 input  -60.11 | X-H torsion
[ 7974 7965 7964 7962 ] final   48.86 input  175.53 | X-H torsion
[ 8008 7997 7996 7995 ] final  -50.25 input   59.86 | X-H torsion
[ 10167 10162 10161 10158 ] final -139.36 input  -65.29 | X-H torsion
[ 10718 10713 10712 10709 ] final   73.10 input   66.30 | X-H torsion
[ 10763 10752 10751 10750 ] final  102.73 input  -60.55 | X-H torsion
[ 11005 11000 10999 10996 ] final   46.66 input  -57.11 | X-H torsion

> <Gold.Protein.ActiveResidues>
 VAL166  LYS551  ARG553  GLY616  TRP617  ASP618  TYR619  PRO620  LYS621  CYS622 
 ASP623  PHE694  ASN695  SER759  ASP760  ASP761  ALA762  ILE779  LEU786  VAL792 
 PHE793  MET794  SER795  GLU796  ALA797  LYS798  CYS799  TRP800  GLU811  SER814 

> <Gold.Protein.RotatedAtoms>
  151.5645  133.3398  159.2977 H   0  0  0  0  0  0  0  0  0  0  0  0  # atno 6907 bound_to 6896
  150.8403  134.7695  159.6938 H   0  0  0  0  0  0  0  0  0  0  0  0  # atno 6908 bound_to 6896
  152.4472  134.5477  159.9909 H   0  0  0  0  0  0  0  0  0  0  0  0  # atno 6909 bound_to 6896
  146.0164  139.4601  142.9924 H   0  0  0  0  0  0  0  0  0  0  0  0  # atno 7974 bound_to 7965
  154.4058  140.1277  156.4636 H   0  0  0  0  0  0  0  0  0  0  0  0  # atno 8008 bound_to 7997
  155.7249  140.3492  155.5013 H   0  0  0  0  0  0  0  0  0  0  0  0  # atno 8009 bound_to 7997
  155.9181  140.1047  157.1218 H   0  0  0  0  0  0  0  0  0  0  0  0  # atno 8010 bound_to 7997
  139.8387  143.7350  152.2664 H   0  0  0  0  0  0  0  0  0  0  0  0  # atno 10167 bound_to 10162
  157.6532  130.9612  150.1022 H   0  0  0  0  0  0  0  0  0  0  0  0  # atno 10718 bound_to 10713
  153.3434  135.4000  155.1590 H   0  0  0  0  0  0  0  0  0  0  0  0  # atno 10763 bound_to 10752
  154.8648  135.3639  154.5316 H   0  0  0  0  0  0  0  0  0  0  0  0  # atno 10764 bound_to 10752
  153.5762  135.7077  153.5542 H   0  0  0  0  0  0  0  0  0  0  0  0  # atno 10765 bound_to 10752
  140.1349  134.4658  155.8493 H   0  0  0  0  0  0  0  0  0  0  0  0  # atno 11005 bound_to 11000
  145.7262  141.0058  143.1376 LP  0  0  0  0  0  0  0  0  0  0  0  0  # atno 17320 bound_to 7965
  144.6972  139.8930  143.7454 LP  0  0  0  0  0  0  0  0  0  0  0  0  # atno 17321 bound_to 7965
  139.7581  144.7515  151.0405 LP  0  0  0  0  0  0  0  0  0  0  0  0  # atno 17342 bound_to 10162
  140.7800  143.4783  151.0053 LP  0  0  0  0  0  0  0  0  0  0  0  0  # atno 17343 bound_to 10162
  156.1941  130.3656  149.8871 LP  0  0  0  0  0  0  0  0  0  0  0  0  # atno 17370 bound_to 10713
  156.6792  130.8851  151.3573 LP  0  0  0  0  0  0  0  0  0  0  0  0  # atno 17371 bound_to 10713
  141.2176  133.6810  156.7139 LP  0  0  0  0  0  0  0  0  0  0  0  0  # atno 17394 bound_to 11000
  140.2795  134.8328  157.3920 LP  0  0  0  0  0  0  0  0  0  0  0  0  # atno 17395 bound_to 11000

$$$$
