AV-unprocessed.smi:3130|AV-procd|sdf|11926|dock8
  -GOLD-   2272017313D 1   1.00000     0.00000
 Structure written by MMmdl.
 40 40  0  0  0  0  0  0  0  0  2 V2000
  145.2914  130.9466  151.0238 C   0  0  0  0  0  0  0  0  0  0  0  0
  145.3096  132.3985  151.4056 C   0  0  0  0  0  0  0  0  0  0  0  0
  145.1181  132.9673  152.6970 C   0  0  0  0  0  0  0  0  0  0  0  0
  145.1901  134.2886  152.6925 N   0  0  0  0  0  0  0  0  0  0  0  0
  145.4328  134.6088  151.4041 N   0  0  0  0  0  0  0  0  0  0  0  0
  145.5634  136.0014  151.0205 C   0  0  0  0  0  0  0  0  0  0  0  0
  145.2863  136.9486  152.1973 C   0  0  0  0  0  0  0  0  0  0  0  0
  145.4559  138.3581  151.7946 N   0  3  0  0  0  0  0  0  0  0  0  0
  146.8198  138.8818  152.0040 C   0  0  0  0  0  0  0  0  0  0  0  0
  146.9543  139.5317  153.3916 C   0  0  0  0  0  0  0  0  0  0  0  0
  148.2185  139.0888  154.1341 C   0  0  0  0  0  0  0  0  0  0  0  0
  148.1338  138.5071  155.2157 O   0  0  0  0  0  0  0  0  0  0  0  0
  149.3878  139.3761  153.5406 N   0  0  0  0  0  0  0  0  0  0  0  0
  150.7098  139.0552  154.0717 C   0  0  0  0  0  0  0  0  0  0  0  0
  150.7865  137.5523  154.3724 C   0  0  0  0  0  0  0  0  0  0  0  0
  151.0086  139.8984  155.3214 C   0  0  0  0  0  0  0  0  0  0  0  0
  145.5067  133.4877  150.6049 C   0  0  0  0  0  0  0  0  0  0  0  0
  145.2343  130.2969  151.8975 H   0  0  0  0  0  0  0  0  0  0  0  0
  146.1883  130.6640  150.4721 H   0  0  0  0  0  0  0  0  0  0  0  0
  144.4357  130.7095  150.3912 H   0  0  0  0  0  0  0  0  0  0  0  0
  144.9274  132.4612  153.6321 H   0  0  0  0  0  0  0  0  0  0  0  0
  146.5712  136.1607  150.6343 H   0  0  0  0  0  0  0  0  0  0  0  0
  144.8737  136.1983  150.1985 H   0  0  0  0  0  0  0  0  0  0  0  0
  144.2695  136.8037  152.5651 H   0  0  0  0  0  0  0  0  0  0  0  0
  145.9638  136.7272  153.0233 H   0  0  0  0  0  0  0  0  0  0  0  0
  145.2247  138.4421  150.8149 H   0  0  0  0  0  0  0  0  0  0  0  0
  147.5310  138.0611  151.8973 H   0  0  0  0  0  0  0  0  0  0  0  0
  147.0461  139.6108  151.2239 H   0  0  0  0  0  0  0  0  0  0  0  0
  146.9601  140.6180  153.2879 H   0  0  0  0  0  0  0  0  0  0  0  0
  146.0906  139.2801  154.0082 H   0  0  0  0  0  0  0  0  0  0  0  0
  149.3631  139.8585  152.6539 H   0  0  0  0  0  0  0  0  0  0  0  0
  151.4616  139.2802  153.3130 H   0  0  0  0  0  0  0  0  0  0  0  0
  151.7730  137.2769  154.7462 H   0  0  0  0  0  0  0  0  0  0  0  0
  150.5992  136.9613  153.4752 H   0  0  0  0  0  0  0  0  0  0  0  0
  150.0530  137.2592  155.1243 H   0  0  0  0  0  0  0  0  0  0  0  0
  151.9954  139.6657  155.7228 H   0  0  0  0  0  0  0  0  0  0  0  0
  150.2778  139.7141  156.1095 H   0  0  0  0  0  0  0  0  0  0  0  0
  150.9922  140.9649  155.0941 H   0  0  0  0  0  0  0  0  0  0  0  0
  145.6901  133.5551  149.5426 H   0  0  0  0  0  0  0  0  0  0  0  0
  144.8111  138.9230  152.3289 H   0  0  0  0  0  0  0  0  0  0  0  0
  1  2  1  0  0  0  0
  1 18  1  0  0  0  0
  1 19  1  0  0  0  0
  1 20  1  0  0  0  0
  2 17  2  0  0  0  0
  2  3  1  0  0  0  0
  3  4  2  0  0  0  0
  3 21  1  0  0  0  0
  4  5  1  0  0  0  0
  5  6  1  0  0  0  0
  5 17  1  0  0  0  0
  6  7  1  0  0  0  0
  6 22  1  0  0  0  0
  6 23  1  0  0  0  0
  7  8  1  0  0  0  0
  7 24  1  0  0  0  0
  7 25  1  0  0  0  0
  8  9  1  0  0  0  0
  8 26  1  0  0  0  0
  8 40  1  0  0  0  0
  9 10  1  0  0  0  0
  9 27  1  0  0  0  0
  9 28  1  0  0  0  0
 10 11  1  0  0  0  0
 10 29  1  0  0  0  0
 10 30  1  0  0  0  0
 11 12  2  0  0  0  0
 11 13  1  0  0  0  0
 13 14  1  0  0  0  0
 13 31  1  0  0  0  0
 14 15  1  0  0  0  0
 14 16  1  0  0  0  0
 14 32  1  0  0  0  0
 15 33  1  0  0  0  0
 15 34  1  0  0  0  0
 15 35  1  0  0  0  0
 16 36  1  0  0  0  0
 16 37  1  0  0  0  0
 16 38  1  0  0  0  0
 17 39  1  0  0  0  0
M  CHG  1   8   1
M  END
> <s_m_source_file>
AV-unprocessed.smi

> <i_m_source_file_index>
3130

> <i_lp_mmshare_version>
43012

> <i_f3d_flags>
0

> <s_epik_input>
W0NIM11jMVtjSF1ubihbY0hdMSlbQ0gyXVtDSDJdW05IXVtDSDJdW0NIMl1DKD1PKVtOSF1bQ0hdKFtDSDNdKVtDSDNd

> <s_epik_cmdline>
J2VwaWtfcHl0aG9uJywgJy1waCcsICc3LjAnLCAnLXRuJywgJzgnLCAnLW1hJywgJzIwMCcsICctbWV0YWxfYmluZGluZycsICctaW1hZScsICc8aW5maWxlLm1hZT4nLCAnLW9tYWUnLCAnPG91dGZpbGUubWFlPic=

> <r_lp_tautomer_probability>
1

> <r_epik_Ionization_Penalty>
0.00578341

> <r_epik_Ionization_Penalty_Charging>
0.00577767

> <r_epik_Ionization_Penalty_Neutral>
5.73237e-06

> <r_epik_State_Penalty>
-0

> <r_epik_Charging_Adjusted_Penalty>
0.00577767

> <i_epik_Tot_Q>
1

> <i_epik_Tot_abs_Q>
1

> <r_epik_Metal_State_Penalty>
-0

> <b_epik_Metal_Only>
0

> <s_lp_Force_Field>
OPLS_2005

> <r_lp_Energy>
3.33075

> <b_lp_Chiralities_Consistent>
1

> <s_lp_Variant>
AV-unprocessed.smi:3130-1

> <Gold.Version>
5.8.1

> <Gold.Id.Protein>
6NUR|6NUR_protein|mol2

> <Gold.PLP.Fitness>
48.7298

> <Gold.PLP.PLP>
-32.8084

> <Gold.PLP.part.hbond>
-2.9889

> <Gold.PLP.part.metal>
0.0000

> <Gold.PLP.part.buried>
-2.7408

> <Gold.PLP.part.nonpolar>
-27.9447

> <Gold.PLP.part.repulsive>
0.3126

> <Gold.PLP.ligand.clash>
0.0000

> <Gold.PLP.ligand.torsion>
0.8044

> <Gold.PLP.Chemscore.Hbond>
3.8000

> <Gold.PLP.Chemscore.CHOScore>
2.0000

> <Gold.PLP.Chemscore.Metal>
0.0000

> <Gold.Chemscore.Hbonds>
donor molecule, donor type, donor heavy atom, donor atom, acceptor molecule, acceptor atom, score
      L1  H     8    26       P1 10171  0.82
      L1  H     8    40       P1 10175  1.98
      L1  H    13    31       P1  7957  0.99
      L1  C     3    21       P1 10957  0.78
      L1  C    17    39       P1  7921  0.98

> <Gold.PLP.Chemscore.Internal.Correction>
0.1303

> <Gold.Rescore>
     Score         DG    S(hbond)    S(metal)    S(lipo)     H(rot)  DE(clash)    DE(int)     intcor
     16.42     -18.23       2.73        0.00      80.37       2.26       0.07       1.74       ----

> <Gold.Chemscore.Fitness>
16.4170

> <Gold.Chemscore.DG>
-18.2271

> <Gold.Chemscore.ZeroCoef>
-5.4800

> <Gold.Chemscore.Hbond>
2.7325

> <Gold.Chemscore.Metal>
0.0000

> <Gold.Chemscore.Lipo>
80.3747

> <Gold.Chemscore.Internal_Hbond>
0.0000

> <Gold.Chemscore.DEClash>
0.0707

> <Gold.Chemscore.DEInternal>
1.7394

> <Gold.Chemscore.Rot>
2.2591

> <Gold.Chemscore.Internal.Correction>
   9.000000E+99

> <Gold.Chemscore.Hbonds>
donor molecule, donor type, donor heavy atom, donor atom, acceptor molecule, acceptor atom, score
      L1  H     8    26       P1 10171  0.81
      L1  H     8    40       P1 10175  0.93
      L1  H    13    31       P1  7957  0.91

> <Gold.Chemscore.Hbond.Weighted>
-9.1267

> <Gold.Chemscore.Metal.Weighted>
-0.0000

> <Gold.Chemscore.Lipo.Weighted>
-9.4038

> <Gold.Chemscore.Internal_Hbond.Weighted>
0.0000

> <Gold.Chemscore.DEClash.Weighted>
0.0707

> <Gold.Chemscore.DEInternal.Weighted>
1.7394

> <Gold.Chemscore.Rot.Weighted>
5.7834

> <Gold.Chemscore.Internal.Correction.Weighted>
   9.000000E+99

> <Gold.Protein.RotatedTorsions>
[ 6907 6896 6895 6894 ] final  156.08 input  -60.11 | X-H torsion
[ 7974 7965 7964 7962 ] final  -80.19 input  175.53 | X-H torsion
[ 8008 7997 7996 7995 ] final -149.59 input   59.86 | X-H torsion
[ 10167 10162 10161 10158 ] final  172.49 input  -65.29 | X-H torsion
[ 10718 10713 10712 10709 ] final  -98.96 input   66.30 | X-H torsion
[ 10763 10752 10751 10750 ] final -175.55 input  -60.55 | X-H torsion
[ 11005 11000 10999 10996 ] final  164.81 input  -57.11 | X-H torsion

> <Gold.Protein.ActiveResidues>
 VAL166  LYS551  ARG553  GLY616  TRP617  ASP618  TYR619  PRO620  LYS621  CYS622 
 ASP623  PHE694  ASN695  SER759  ASP760  ASP761  ALA762  ILE779  LEU786  VAL792 
 PHE793  MET794  SER795  GLU796  ALA797  LYS798  CYS799  TRP800  GLU811  SER814 

> <Gold.Protein.RotatedAtoms>
  152.0348  133.3952  159.4312 H   0  0  0  0  0  0  0  0  0  0  0  0  # atno 6907 bound_to 6896
  150.6879  134.3480  159.4906 H   0  0  0  0  0  0  0  0  0  0  0  0  # atno 6908 bound_to 6896
  152.1271  134.9162  160.0611 H   0  0  0  0  0  0  0  0  0  0  0  0  # atno 6909 bound_to 6896
  145.5632  140.9478  143.1436 H   0  0  0  0  0  0  0  0  0  0  0  0  # atno 7974 bound_to 7965
  155.6100  140.0671  157.2709 H   0  0  0  0  0  0  0  0  0  0  0  0  # atno 8008 bound_to 7997
  154.4256  140.1803  156.1310 H   0  0  0  0  0  0  0  0  0  0  0  0  # atno 8009 bound_to 7997
  156.0092  140.3328  155.6927 H   0  0  0  0  0  0  0  0  0  0  0  0  # atno 8010 bound_to 7997
  139.5078  144.3368  152.0058 H   0  0  0  0  0  0  0  0  0  0  0  0  # atno 10167 bound_to 10162
  156.0121  130.5261  150.6599 H   0  0  0  0  0  0  0  0  0  0  0  0  # atno 10718 bound_to 10713
  154.5830  135.2838  155.0713 H   0  0  0  0  0  0  0  0  0  0  0  0  # atno 10763 bound_to 10752
  154.2043  135.6419  153.5100 H   0  0  0  0  0  0  0  0  0  0  0  0  # atno 10764 bound_to 10752
  153.0094  135.5476  154.6490 H   0  0  0  0  0  0  0  0  0  0  0  0  # atno 10765 bound_to 10752
  140.2497  134.7986  157.3490 H   0  0  0  0  0  0  0  0  0  0  0  0  # atno 11005 bound_to 11000
  144.7473  139.7286  143.7287 LP  0  0  0  0  0  0  0  0  0  0  0  0  # atno 17320 bound_to 7965
  146.1836  139.5041  142.9850 LP  0  0  0  0  0  0  0  0  0  0  0  0  # atno 17321 bound_to 7965
  140.2806  144.3863  150.6120 LP  0  0  0  0  0  0  0  0  0  0  0  0  # atno 17342 bound_to 10162
  140.6021  143.2167  151.7053 LP  0  0  0  0  0  0  0  0  0  0  0  0  # atno 17343 bound_to 10162
  157.4344  131.0853  151.1007 LP  0  0  0  0  0  0  0  0  0  0  0  0  # atno 17370 bound_to 10713
  157.1570  130.6209  149.5599 LP  0  0  0  0  0  0  0  0  0  0  0  0  # atno 17371 bound_to 10713
  140.1570  134.4777  155.7921 LP  0  0  0  0  0  0  0  0  0  0  0  0  # atno 17394 bound_to 11000
  141.2202  133.6885  156.7478 LP  0  0  0  0  0  0  0  0  0  0  0  0  # atno 17395 bound_to 11000

$$$$
