AV-unprocessed.smi:501|AV-procd|sdf|2743|dock5
  -GOLD-   2262023203D 1   1.00000     0.00000
 Structure written by MMmdl.
 46 48  0  0  0  0  0  0  0  0  2 V2000
  147.5863  132.2963  160.4799 C   0  0  0  0  0  0  0  0  0  0  0  0
  147.3740  133.6892  161.0369 C   0  0  0  0  0  0  0  0  0  0  0  0
  146.6763  133.8747  162.2471 C   0  0  0  0  0  0  0  0  0  0  0  0
  146.4832  135.1725  162.7545 C   0  0  0  0  0  0  0  0  0  0  0  0
  146.9870  136.2852  162.0545 C   0  0  0  0  0  0  0  0  0  0  0  0
  147.6885  136.1181  160.8430 C   0  0  0  0  0  0  0  0  0  0  0  0
  148.1474  137.2608  160.2229 O   0  0  0  0  0  0  0  0  0  0  0  0
  148.8534  137.1176  158.9997 C   0  0  0  0  0  0  0  0  0  0  0  0
  148.0066  137.6973  157.8622 C   0  0  0  0  0  0  0  0  0  0  0  0
  148.6784  137.5508  156.5635 N   0  0  0  0  0  0  0  0  0  0  0  0
  148.3557  136.7878  155.4779 C   0  0  0  0  0  0  0  0  0  0  0  0
  147.1742  135.8767  155.3300 C   0  0  0  0  0  0  0  0  0  0  0  0
  147.5651  134.4125  155.0432 C   0  0  0  0  0  0  0  0  0  0  0  0
  148.1630  134.2260  153.7233 N   0  0  0  0  0  0  0  0  0  0  0  0
  148.6413  133.0646  153.2547 C   0  0  0  0  0  0  0  0  0  0  0  0
  148.6611  132.0136  153.8930 O   0  0  0  0  0  0  0  0  0  0  0  0
  149.3029  137.0261  154.5258 N   0  3  0  0  0  0  0  0  0  0  0  0
  150.2547  137.9202  155.0163 C   0  0  0  0  0  0  0  0  0  0  0  0
  151.4013  138.4446  154.4275 C   0  0  0  0  0  0  0  0  0  0  0  0
  152.1638  139.3360  155.2105 C   0  0  0  0  0  0  0  0  0  0  0  0
  151.7776  139.6739  156.5240 C   0  0  0  0  0  0  0  0  0  0  0  0
  150.6123  139.1368  157.1096 C   0  0  0  0  0  0  0  0  0  0  0  0
  149.8626  138.2584  156.3274 C   0  0  0  0  0  0  0  0  0  0  0  0
  147.8781  134.8058  160.3389 C   0  0  0  0  0  0  0  0  0  0  0  0
  147.1331  131.5375  161.1185 H   0  0  0  0  0  0  0  0  0  0  0  0
  148.6519  132.0806  160.3991 H   0  0  0  0  0  0  0  0  0  0  0  0
  147.1426  132.2147  159.4875 H   0  0  0  0  0  0  0  0  0  0  0  0
  146.2870  133.0253  162.7892 H   0  0  0  0  0  0  0  0  0  0  0  0
  145.9476  135.3155  163.6814 H   0  0  0  0  0  0  0  0  0  0  0  0
  146.8326  137.2778  162.4515 H   0  0  0  0  0  0  0  0  0  0  0  0
  149.8112  137.6376  159.0550 H   0  0  0  0  0  0  0  0  0  0  0  0
  149.0483  136.0641  158.8011 H   0  0  0  0  0  0  0  0  0  0  0  0
  147.0456  137.1861  157.8054 H   0  0  0  0  0  0  0  0  0  0  0  0
  147.7807  138.7498  158.0347 H   0  0  0  0  0  0  0  0  0  0  0  0
  146.5676  135.9165  156.2344 H   0  0  0  0  0  0  0  0  0  0  0  0
  146.5443  136.2540  154.5244 H   0  0  0  0  0  0  0  0  0  0  0  0
  148.2461  134.0486  155.8141 H   0  0  0  0  0  0  0  0  0  0  0  0
  146.6794  133.7788  155.0973 H   0  0  0  0  0  0  0  0  0  0  0  0
  148.1909  135.0305  153.1136 H   0  0  0  0  0  0  0  0  0  0  0  0
  149.0157  133.1796  152.2258 H   0  0  0  0  0  0  0  0  0  0  0  0
  151.6999  138.1851  153.4223 H   0  0  0  0  0  0  0  0  0  0  0  0
  153.0634  139.7684  154.7968 H   0  0  0  0  0  0  0  0  0  0  0  0
  152.3877  140.3592  157.0949 H   0  0  0  0  0  0  0  0  0  0  0  0
  150.3282  139.4008  158.1176 H   0  0  0  0  0  0  0  0  0  0  0  0
  148.4083  134.6296  159.4155 H   0  0  0  0  0  0  0  0  0  0  0  0
  149.2993  136.5997  153.6082 H   0  0  0  0  0  0  0  0  0  0  0  0
  1  2  1  0  0  0  0
  1 25  1  0  0  0  0
  1 26  1  0  0  0  0
  1 27  1  0  0  0  0
  2 24  1  0  0  0  0
  2  3  2  0  0  0  0
  3  4  1  0  0  0  0
  3 28  1  0  0  0  0
  4  5  2  0  0  0  0
  4 29  1  0  0  0  0
  5  6  1  0  0  0  0
  5 30  1  0  0  0  0
  6  7  1  0  0  0  0
  6 24  2  0  0  0  0
  7  8  1  0  0  0  0
  8  9  1  0  0  0  0
  8 31  1  0  0  0  0
  8 32  1  0  0  0  0
  9 10  1  0  0  0  0
  9 33  1  0  0  0  0
  9 34  1  0  0  0  0
 10 23  1  0  0  0  0
 10 11  1  0  0  0  0
 11 12  1  0  0  0  0
 11 17  2  0  0  0  0
 12 13  1  0  0  0  0
 12 35  1  0  0  0  0
 12 36  1  0  0  0  0
 13 14  1  0  0  0  0
 13 37  1  0  0  0  0
 13 38  1  0  0  0  0
 14 15  1  0  0  0  0
 14 39  1  0  0  0  0
 15 16  2  0  0  0  0
 15 40  1  0  0  0  0
 17 18  1  0  0  0  0
 17 46  1  0  0  0  0
 18 23  2  0  0  0  0
 18 19  1  0  0  0  0
 19 20  2  0  0  0  0
 19 41  1  0  0  0  0
 20 21  1  0  0  0  0
 20 42  1  0  0  0  0
 21 22  2  0  0  0  0
 21 43  1  0  0  0  0
 22 23  1  0  0  0  0
 22 44  1  0  0  0  0
 24 45  1  0  0  0  0
M  CHG  1  17   1
M  END
> <s_m_source_file>
AV-unprocessed.smi

> <i_m_source_file_index>
501

> <i_lp_mmshare_version>
43012

> <i_f3d_flags>
0

> <s_epik_input>
W0NIM11jMVtjSF1bY0hdW2NIXWMoW2NIXTEpT1tDSDJdW0NIMl1uKGMobjIpW0NIMl1bQ0gyXVtOSF1bQ0hdPU8pYyhjMjMpW2NIXVtjSF1bY0hdW2NIXTM=

> <s_epik_cmdline>
J2VwaWtfcHl0aG9uJywgJy1waCcsICc3LjAnLCAnLXRuJywgJzgnLCAnLW1hJywgJzIwMCcsICctbWV0YWxfYmluZGluZycsICctaW1hZScsICc8aW5maWxlLm1hZT4nLCAnLW9tYWUnLCAnPG91dGZpbGUubWFlPic=

> <r_lp_tautomer_probability>
1

> <r_epik_Ionization_Penalty>
1.14747

> <r_epik_Ionization_Penalty_Charging>
1.14747

> <r_epik_Ionization_Penalty_Neutral>
1.55554e-08

> <r_epik_State_Penalty>
1.20856

> <r_epik_Charging_Adjusted_Penalty>
2.35603

> <i_epik_Tot_Q>
1

> <i_epik_Tot_abs_Q>
1

> <r_epik_Metal_State_Penalty>
1.28951

> <b_epik_Metal_Only>
0

> <s_lp_Force_Field>
OPLS_2005

> <r_lp_Energy>
21.7567

> <b_lp_Chiralities_Consistent>
1

> <s_lp_Variant>
AV-unprocessed.smi:501-2

> <Gold.Version>
5.8.1

> <Gold.Id.Protein>
6NUR|6NUR_protein|mol2

> <Gold.PLP.Fitness>
52.4776

> <Gold.PLP.PLP>
-40.7510

> <Gold.PLP.part.hbond>
-4.0000

> <Gold.PLP.part.metal>
0.0000

> <Gold.PLP.part.buried>
-5.1116

> <Gold.PLP.part.nonpolar>
-32.5215

> <Gold.PLP.part.repulsive>
0.0845

> <Gold.PLP.ligand.clash>
0.0000

> <Gold.PLP.ligand.torsion>
0.4277

> <Gold.PLP.Chemscore.Hbond>
4.1154

> <Gold.PLP.Chemscore.CHOScore>
0.0000

> <Gold.PLP.Chemscore.Metal>
0.0000

> <Gold.Chemscore.Hbonds>
donor molecule, donor type, donor heavy atom, donor atom, acceptor molecule, acceptor atom, score
      L1  H    14    39       P1  7948  1.00
      L1  H    17    46       P1  7948  2.00
      P1  H  6931  6943       L1     7  0.48
      P1  H  6934  6947       L1     7  0.52

> <Gold.PLP.Chemscore.Internal.Correction>
0.2357

> <Gold.Rescore>
     Score         DG    S(hbond)    S(metal)    S(lipo)     H(rot)  DE(clash)    DE(int)     intcor
     18.08     -18.50       2.78        0.00      90.58       2.68       0.01       0.41       ----

> <Gold.Chemscore.Fitness>
18.0817

> <Gold.Chemscore.DG>
-18.5000

> <Gold.Chemscore.ZeroCoef>
-5.4800

> <Gold.Chemscore.Hbond>
2.7827

> <Gold.Chemscore.Metal>
0.0000

> <Gold.Chemscore.Lipo>
90.5775

> <Gold.Chemscore.Internal_Hbond>
0.0000

> <Gold.Chemscore.DEClash>
0.0106

> <Gold.Chemscore.DEInternal>
0.4076

> <Gold.Chemscore.Rot>
2.6843

> <Gold.Chemscore.Internal.Correction>
   9.000000E+99

> <Gold.Chemscore.Hbonds>
donor molecule, donor type, donor heavy atom, donor atom, acceptor molecule, acceptor atom, score
      L1  H    14    39       P1  7948  0.93
      L1  H    17    46       P1  7948  0.94
      P1  H  6931  6943       L1     7  0.14
      P1  H  6934  6947       L1     7  0.45

> <Gold.Chemscore.Hbond.Weighted>
-9.2942

> <Gold.Chemscore.Metal.Weighted>
-0.0000

> <Gold.Chemscore.Lipo.Weighted>
-10.5976

> <Gold.Chemscore.Internal_Hbond.Weighted>
0.0000

> <Gold.Chemscore.DEClash.Weighted>
0.0106

> <Gold.Chemscore.DEInternal.Weighted>
0.4076

> <Gold.Chemscore.Rot.Weighted>
6.8718

> <Gold.Chemscore.Internal.Correction.Weighted>
   9.000000E+99

> <Gold.Protein.RotatedTorsions>
[ 6907 6896 6895 6894 ] final   72.24 input  -60.11 | X-H torsion
[ 7974 7965 7964 7962 ] final   57.85 input  175.53 | X-H torsion
[ 8008 7997 7996 7995 ] final  128.81 input   59.86 | X-H torsion
[ 10167 10162 10161 10158 ] final  -41.44 input  -65.29 | X-H torsion
[ 10718 10713 10712 10709 ] final  -15.98 input   66.30 | X-H torsion
[ 10763 10752 10751 10750 ] final   39.55 input  -60.55 | X-H torsion
[ 11005 11000 10999 10996 ] final    0.51 input  -57.11 | X-H torsion

> <Gold.Protein.ActiveResidues>
 VAL166  LYS551  ARG553  GLY616  TRP617  ASP618  TYR619  PRO620  LYS621  CYS622 
 ASP623  PHE694  ASN695  SER759  ASP760  ASP761  ALA762  ILE779  LEU786  VAL792 
 PHE793  MET794  SER795  GLU796  ALA797  LYS798  CYS799  TRP800  GLU811  SER814 

> <Gold.Protein.RotatedAtoms>
  152.4857  134.4600  159.9601 H   0  0  0  0  0  0  0  0  0  0  0  0  # atno 6907 bound_to 6896
  151.4597  133.3590  159.2815 H   0  0  0  0  0  0  0  0  0  0  0  0  # atno 6908 bound_to 6896
  150.8965  134.8398  159.7390 H   0  0  0  0  0  0  0  0  0  0  0  0  # atno 6909 bound_to 6896
  145.9245  139.3757  143.0458 H   0  0  0  0  0  0  0  0  0  0  0  0  # atno 7974 bound_to 7965
  156.2923  140.2635  156.2497 H   0  0  0  0  0  0  0  0  0  0  0  0  # atno 8008 bound_to 7997
  154.9895  140.0389  157.2331 H   0  0  0  0  0  0  0  0  0  0  0  0  # atno 8009 bound_to 7997
  154.7699  140.2776  155.6151 H   0  0  0  0  0  0  0  0  0  0  0  0  # atno 8010 bound_to 7997
  140.7002  143.3094  151.3067 H   0  0  0  0  0  0  0  0  0  0  0  0  # atno 10167 bound_to 10162
  156.5940  130.4806  149.6267 H   0  0  0  0  0  0  0  0  0  0  0  0  # atno 10718 bound_to 10713
  152.9964  135.6217  154.2483 H   0  0  0  0  0  0  0  0  0  0  0  0  # atno 10763 bound_to 10752
  154.2222  135.2795  155.2922 H   0  0  0  0  0  0  0  0  0  0  0  0  # atno 10764 bound_to 10752
  154.5519  135.5731  153.6988 H   0  0  0  0  0  0  0  0  0  0  0  0  # atno 10765 bound_to 10752
  140.6258  133.9620  155.8248 H   0  0  0  0  0  0  0  0  0  0  0  0  # atno 11005 bound_to 11000
  145.8506  140.9531  143.0751 LP  0  0  0  0  0  0  0  0  0  0  0  0  # atno 17320 bound_to 7965
  144.6757  140.0402  143.7481 LP  0  0  0  0  0  0  0  0  0  0  0  0  # atno 17321 bound_to 7965
  139.6512  144.0359  152.2627 LP  0  0  0  0  0  0  0  0  0  0  0  0  # atno 17342 bound_to 10162
  139.9896  144.6371  150.7826 LP  0  0  0  0  0  0  0  0  0  0  0  0  # atno 17343 bound_to 10162
  156.2525  130.6915  151.1658 LP  0  0  0  0  0  0  0  0  0  0  0  0  # atno 17370 bound_to 10713
  157.7296  131.0622  150.5764 LP  0  0  0  0  0  0  0  0  0  0  0  0  # atno 17371 bound_to 10713
  141.0710  134.0205  157.3526 LP  0  0  0  0  0  0  0  0  0  0  0  0  # atno 17394 bound_to 11000
  139.9135  135.0194  156.7789 LP  0  0  0  0  0  0  0  0  0  0  0  0  # atno 17395 bound_to 11000

$$$$
