AV-unprocessed.smi:3329|AV-procd|sdf|12797|dock2
  -GOLD-   2272019153D 1   1.00000     0.00000
 Structure written by MMmdl.
 41 42  0  0  0  0  0  0  0  0  1 V2000
  154.6444  139.9437  161.4653 C   0  0  0  0  0  0  0  0  0  0  0  0
  153.9082  141.2501  161.5432 C   0  0  0  0  0  0  0  0  0  0  0  0
  153.5781  142.0015  162.7071 C   0  0  0  0  0  0  0  0  0  0  0  0
  152.9234  143.1178  162.4308 N   0  0  0  0  0  0  0  0  0  0  0  0
  152.8112  143.1173  161.0857 N   0  0  0  0  0  0  0  0  0  0  0  0
  152.1399  144.2150  160.4179 C   0  0  0  0  0  0  0  0  0  0  0  0
  152.3262  144.1497  158.8950 C   0  0  0  0  0  0  0  0  0  0  0  0
  151.5777  143.0202  158.3659 N   0  0  0  0  0  0  0  0  0  0  0  0
  151.5292  143.0699  156.9022 C   0  0  0  0  0  0  0  0  0  0  0  0
  150.9594  141.7762  156.3243 C   0  0  0  0  0  0  0  0  0  0  0  0
  151.5750  140.7207  156.4660 O   0  0  0  0  0  0  0  0  0  0  0  0
  149.7797  141.8770  155.6883 N   0  0  0  0  0  0  0  0  0  0  0  0
  148.9986  140.8096  155.0574 C   0  0  1  0  0  0  0  0  0  0  0  0
  149.8180  140.1781  153.9141 C   0  0  0  0  0  0  0  0  0  0  0  0
  148.7833  139.7660  156.0771 C   0  0  0  0  0  0  0  0  0  0  0  0
  148.6115  138.9487  156.8785 N   0  0  0  0  0  0  0  0  0  0  0  0
  147.6438  141.2826  154.5181 C   0  0  0  0  0  0  0  0  0  0  0  0
  147.0928  140.8353  153.1828 C   0  0  0  0  0  0  0  0  0  0  0  0
  147.5257  142.2717  153.3798 C   0  0  0  0  0  0  0  0  0  0  0  0
  153.3952  142.0021  160.5245 C   0  0  0  0  0  0  0  0  0  0  0  0
  155.0988  139.6764  162.4196 H   0  0  0  0  0  0  0  0  0  0  0  0
  155.4459  139.9764  160.7270 H   0  0  0  0  0  0  0  0  0  0  0  0
  153.9812  139.1254  161.1848 H   0  0  0  0  0  0  0  0  0  0  0  0
  153.7956  141.7701  163.7396 H   0  0  0  0  0  0  0  0  0  0  0  0
  151.0800  144.1768  160.6734 H   0  0  0  0  0  0  0  0  0  0  0  0
  152.5279  145.1547  160.8143 H   0  0  0  0  0  0  0  0  0  0  0  0
  151.9760  145.0743  158.4333 H   0  0  0  0  0  0  0  0  0  0  0  0
  153.3844  144.0406  158.6525 H   0  0  0  0  0  0  0  0  0  0  0  0
  150.6502  143.0213  158.7660 H   0  0  0  0  0  0  0  0  0  0  0  0
  150.9276  143.9221  156.5802 H   0  0  0  0  0  0  0  0  0  0  0  0
  152.5337  143.2145  156.5016 H   0  0  0  0  0  0  0  0  0  0  0  0
  149.3721  142.7994  155.6365 H   0  0  0  0  0  0  0  0  0  0  0  0
  149.3024  139.3130  153.4958 H   0  0  0  0  0  0  0  0  0  0  0  0
  150.7924  139.8369  154.2657 H   0  0  0  0  0  0  0  0  0  0  0  0
  149.9874  140.8776  153.0951 H   0  0  0  0  0  0  0  0  0  0  0  0
  146.8987  141.4208  155.2988 H   0  0  0  0  0  0  0  0  0  0  0  0
  147.7148  140.2041  152.5517 H   0  0  0  0  0  0  0  0  0  0  0  0
  146.0246  140.6364  153.1255 H   0  0  0  0  0  0  0  0  0  0  0  0
  146.7453  143.0263  153.4546 H   0  0  0  0  0  0  0  0  0  0  0  0
  148.4350  142.5964  152.8784 H   0  0  0  0  0  0  0  0  0  0  0  0
  153.3992  141.8386  159.4570 H   0  0  0  0  0  0  0  0  0  0  0  0
  1  2  1  0  0  0  0
  1 21  1  0  0  0  0
  1 22  1  0  0  0  0
  1 23  1  0  0  0  0
  2 20  2  0  0  0  0
  2  3  1  0  0  0  0
  3  4  2  0  0  0  0
  3 24  1  0  0  0  0
  4  5  1  0  0  0  0
  5  6  1  0  0  0  0
  5 20  1  0  0  0  0
  6  7  1  0  0  0  0
  6 25  1  0  0  0  0
  6 26  1  0  0  0  0
  7  8  1  0  0  0  0
  7 27  1  0  0  0  0
  7 28  1  0  0  0  0
  8  9  1  0  0  0  0
  8 29  1  0  0  0  0
  9 10  1  0  0  0  0
  9 30  1  0  0  0  0
  9 31  1  0  0  0  0
 10 11  2  0  0  0  0
 10 12  1  0  0  0  0
 12 13  1  0  0  0  0
 12 32  1  0  0  0  0
 13 14  1  0  0  0  0
 13 15  1  0  0  0  0
 13 17  1  0  0  0  0
 14 33  1  0  0  0  0
 14 34  1  0  0  0  0
 14 35  1  0  0  0  0
 15 16  3  0  0  0  0
 17 19  1  0  0  0  0
 17 18  1  0  0  0  0
 17 36  1  0  0  0  0
 18 19  1  0  0  0  0
 18 37  1  0  0  0  0
 18 38  1  0  0  0  0
 19 39  1  0  0  0  0
 19 40  1  0  0  0  0
 20 41  1  0  0  0  0
M  END
> <s_m_source_file>
AV-unprocessed.smi

> <i_m_source_file_index>
3329

> <i_lp_mmshare_version>
43012

> <i_f3d_flags>
0

> <s_epik_input>
W0NIM11jMVtjSF1ubihbY0hdMSlbQ0gyXVtDSDJdW05IXVtDSDJdQyg9TylbTkhdW0NAQF0oW0NIM10pKEMjTilbQ0hdMltDSDJdW0NIMl0y

> <s_epik_cmdline>
J2VwaWtfcHl0aG9uJywgJy1waCcsICc3LjAnLCAnLXRuJywgJzgnLCAnLW1hJywgJzIwMCcsICctbWV0YWxfYmluZGluZycsICctaW1hZScsICc8aW5maWxlLm1hZT4nLCAnLW9tYWUnLCAnPG91dGZpbGUubWFlPic=

> <r_lp_tautomer_probability>
1

> <r_epik_Ionization_Penalty>
0.481866

> <r_epik_Ionization_Penalty_Charging>
0

> <r_epik_Ionization_Penalty_Neutral>
0.481866

> <r_epik_State_Penalty>
0.48398

> <r_epik_Charging_Adjusted_Penalty>
0.48398

> <i_epik_Tot_Q>
0

> <i_epik_Tot_abs_Q>
0

> <r_epik_Metal_State_Penalty>
0.5042

> <b_epik_Metal_Only>
0

> <s_lp_Force_Field>
OPLS_2005

> <r_lp_Energy>
12.8497

> <b_lp_Chiralities_Consistent>
1

> <s_lp_Variant>
AV-unprocessed.smi:3329-3

> <Gold.Version>
5.8.1

> <Gold.Id.Protein>
6NUR|6NUR_protein|mol2

> <Gold.PLP.Fitness>
46.6801

> <Gold.PLP.PLP>
-44.2960

> <Gold.PLP.part.hbond>
-1.0000

> <Gold.PLP.part.metal>
0.0000

> <Gold.PLP.part.buried>
-5.1057

> <Gold.PLP.part.nonpolar>
-38.4190

> <Gold.PLP.part.repulsive>
0.2971

> <Gold.PLP.ligand.clash>
0.0063

> <Gold.PLP.ligand.torsion>
1.1447

> <Gold.PLP.Chemscore.Hbond>
1.0000

> <Gold.PLP.Chemscore.CHOScore>
0.0000

> <Gold.PLP.Chemscore.Metal>
0.0000

> <Gold.Chemscore.Hbonds>
donor molecule, donor type, donor heavy atom, donor atom, acceptor molecule, acceptor atom, score
      L1  H    12    32       P1  8028  1.00

> <Gold.PLP.Chemscore.Internal.Correction>
1.6799

> <Gold.Rescore>
     Score         DG    S(hbond)    S(metal)    S(lipo)     H(rot)  DE(clash)    DE(int)     intcor
     12.82     -15.05       0.91        0.00     106.45       2.31       0.10       2.12       ----

> <Gold.Chemscore.Fitness>
12.8237

> <Gold.Chemscore.DG>
-15.0488

> <Gold.Chemscore.ZeroCoef>
-5.4800

> <Gold.Chemscore.Hbond>
0.9089

> <Gold.Chemscore.Metal>
0.0000

> <Gold.Chemscore.Lipo>
106.4473

> <Gold.Chemscore.Internal_Hbond>
0.0000

> <Gold.Chemscore.DEClash>
0.1036

> <Gold.Chemscore.DEInternal>
2.1214

> <Gold.Chemscore.Rot>
2.3129

> <Gold.Chemscore.Internal.Correction>
   9.000000E+99

> <Gold.Chemscore.Hbonds>
donor molecule, donor type, donor heavy atom, donor atom, acceptor molecule, acceptor atom, score
      L1  H    12    32       P1  8028  0.98

> <Gold.Chemscore.Hbond.Weighted>
-3.0356

> <Gold.Chemscore.Metal.Weighted>
-0.0000

> <Gold.Chemscore.Lipo.Weighted>
-12.4543

> <Gold.Chemscore.Internal_Hbond.Weighted>
0.0000

> <Gold.Chemscore.DEClash.Weighted>
0.1036

> <Gold.Chemscore.DEInternal.Weighted>
2.1214

> <Gold.Chemscore.Rot.Weighted>
5.9211

> <Gold.Chemscore.Internal.Correction.Weighted>
   9.000000E+99

> <Gold.Protein.RotatedTorsions>
[ 6907 6896 6895 6894 ] final -161.54 input  -60.11 | X-H torsion
[ 7974 7965 7964 7962 ] final   33.10 input  175.53 | X-H torsion
[ 8008 7997 7996 7995 ] final -128.59 input   59.86 | X-H torsion
[ 10167 10162 10161 10158 ] final   69.52 input  -65.29 | X-H torsion
[ 10718 10713 10712 10709 ] final   66.63 input   66.30 | X-H torsion
[ 10763 10752 10751 10750 ] final   84.75 input  -60.55 | X-H torsion
[ 11005 11000 10999 10996 ] final  138.99 input  -57.11 | X-H torsion

> <Gold.Protein.ActiveResidues>
 VAL166  LYS551  ARG553  GLY616  TRP617  ASP618  TYR619  PRO620  LYS621  CYS622 
 ASP623  PHE694  ASN695  SER759  ASP760  ASP761  ALA762  ILE779  LEU786  VAL792 
 PHE793  MET794  SER795  GLU796  ALA797  LYS798  CYS799  TRP800  GLU811  SER814 

> <Gold.Protein.RotatedAtoms>
  151.3662  133.3871  159.2694 H   0  0  0  0  0  0  0  0  0  0  0  0  # atno 6907 bound_to 6896
  150.9686  134.9064  159.7785 H   0  0  0  0  0  0  0  0  0  0  0  0  # atno 6908 bound_to 6896
  152.5176  134.3623  159.9341 H   0  0  0  0  0  0  0  0  0  0  0  0  # atno 6909 bound_to 6896
  146.1443  139.6440  142.9142 H   0  0  0  0  0  0  0  0  0  0  0  0  # atno 7974 bound_to 7965
  155.2653  140.0437  157.3001 H   0  0  0  0  0  0  0  0  0  0  0  0  # atno 8008 bound_to 7997
  154.5686  140.2367  155.8195 H   0  0  0  0  0  0  0  0  0  0  0  0  # atno 8009 bound_to 7997
  156.2105  140.3000  155.9729 H   0  0  0  0  0  0  0  0  0  0  0  0  # atno 8010 bound_to 7997
  140.0669  144.5185  150.7254 H   0  0  0  0  0  0  0  0  0  0  0  0  # atno 10167 bound_to 10162
  157.6181  130.9278  150.0135 H   0  0  0  0  0  0  0  0  0  0  0  0  # atno 10718 bound_to 10713
  153.1411  135.4642  154.9496 H   0  0  0  0  0  0  0  0  0  0  0  0  # atno 10763 bound_to 10752
  154.7747  135.3169  154.8118 H   0  0  0  0  0  0  0  0  0  0  0  0  # atno 10764 bound_to 10752
  153.8641  135.6910  153.4834 H   0  0  0  0  0  0  0  0  0  0  0  0  # atno 10765 bound_to 10752
  140.0223  134.9391  157.0499 H   0  0  0  0  0  0  0  0  0  0  0  0  # atno 11005 bound_to 11000
  145.4974  141.0438  143.2559 LP  0  0  0  0  0  0  0  0  0  0  0  0  # atno 17320 bound_to 7965
  144.7828  139.6490  143.7147 LP  0  0  0  0  0  0  0  0  0  0  0  0  # atno 17321 bound_to 7965
  140.7145  143.2532  151.4479 LP  0  0  0  0  0  0  0  0  0  0  0  0  # atno 17342 bound_to 10162
  139.5859  144.1605  152.2029 LP  0  0  0  0  0  0  0  0  0  0  0  0  # atno 17343 bound_to 10162
  156.1313  130.3643  149.9728 LP  0  0  0  0  0  0  0  0  0  0  0  0  # atno 17370 bound_to 10713
  156.7788  130.9213  151.3645 LP  0  0  0  0  0  0  0  0  0  0  0  0  # atno 17371 bound_to 10713
  140.4366  134.1725  155.7171 LP  0  0  0  0  0  0  0  0  0  0  0  0  # atno 17394 bound_to 11000
  141.1781  133.8471  157.1351 LP  0  0  0  0  0  0  0  0  0  0  0  0  # atno 17395 bound_to 11000

$$$$
