AV-unprocessed.smi:1309|AV-procd|sdf|5444|dock3
  -GOLD-   22720 5 13D 1   1.00000     0.00000
 Structure written by MMmdl.
 41 42  0  0  0  0  0  0  0  0  1 V2000
  151.8966  144.4221  161.0682 C   0  0  0  0  0  0  0  0  0  0  0  0
  152.4927  143.8335  159.7812 C   0  0  0  0  0  0  0  0  0  0  0  0
  151.7591  144.2939  158.5128 C   0  0  0  0  0  0  0  0  0  0  0  0
  152.6177  142.3439  159.8485 C   0  0  0  0  0  0  0  0  0  0  0  0
  151.9777  141.5084  159.0249 N   0  0  0  0  0  0  0  0  0  0  0  0
  152.2679  140.1645  159.2819 C   0  0  0  0  0  0  0  0  0  0  0  0
  151.6453  139.0888  158.4404 C   0  0  0  0  0  0  0  0  0  0  0  0
  151.2320  137.9070  159.3190 C   0  0  0  0  0  0  0  0  0  0  0  0
  152.0885  137.2426  159.9020 O   0  0  0  0  0  0  0  0  0  0  0  0
  149.9158  137.6541  159.4053 N   0  0  0  0  0  0  0  0  0  0  0  0
  149.3134  136.5818  160.1942 C   0  0  0  0  0  0  0  0  0  0  0  0
  147.7919  136.7312  160.3789 C   0  0  0  0  0  0  0  0  0  0  0  0
  147.2012  137.6886  159.8754 O   0  0  0  0  0  0  0  0  0  0  0  0
  147.1475  135.7981  161.1093 N   0  0  0  0  0  0  0  0  0  0  0  0
  145.7096  135.7642  161.3751 C   0  0  0  0  0  0  0  0  0  0  0  0
  145.4397  134.4001  162.0110 C   0  0  0  0  0  0  0  0  0  0  0  0
  146.7681  134.0169  162.6481 C   0  0  0  0  0  0  0  0  0  0  0  0
  147.8171  134.6643  161.7435 C   0  0  0  0  0  0  0  0  0  0  0  0
  153.1337  139.9918  160.3337 C   0  0  0  0  0  0  0  0  0  0  0  0
  153.6277  141.5120  161.0260 S   0  0  0  0  0  0  0  0  0  0  0  0
  152.4874  144.1383  161.9399 H   0  0  0  0  0  0  0  0  0  0  0  0
  150.8764  144.0718  161.2285 H   0  0  0  0  0  0  0  0  0  0  0  0
  151.8709  145.5114  161.0270 H   0  0  0  0  0  0  0  0  0  0  0  0
  153.5087  144.2234  159.7066 H   0  0  0  0  0  0  0  0  0  0  0  0
  152.2566  143.9241  157.6157 H   0  0  0  0  0  0  0  0  0  0  0  0
  151.7287  145.3819  158.4495 H   0  0  0  0  0  0  0  0  0  0  0  0
  150.7303  143.9323  158.4965 H   0  0  0  0  0  0  0  0  0  0  0  0
  150.7715  139.4692  157.9095 H   0  0  0  0  0  0  0  0  0  0  0  0
  152.3426  138.7434  157.6759 H   0  0  0  0  0  0  0  0  0  0  0  0
  149.2844  138.2462  158.8858 H   0  0  0  0  0  0  0  0  0  0  0  0
  149.5421  135.6190  159.7342 H   0  0  0  0  0  0  0  0  0  0  0  0
  149.7864  136.5830  161.1762 H   0  0  0  0  0  0  0  0  0  0  0  0
  145.4570  136.5649  162.0716 H   0  0  0  0  0  0  0  0  0  0  0  0
  145.1156  135.8977  160.4700 H   0  0  0  0  0  0  0  0  0  0  0  0
  144.6171  134.4224  162.7264 H   0  0  0  0  0  0  0  0  0  0  0  0
  145.1871  133.6778  161.2336 H   0  0  0  0  0  0  0  0  0  0  0  0
  146.8304  134.4491  163.6477 H   0  0  0  0  0  0  0  0  0  0  0  0
  146.8979  132.9384  162.7418 H   0  0  0  0  0  0  0  0  0  0  0  0
  148.1415  133.9652  160.9713 H   0  0  0  0  0  0  0  0  0  0  0  0
  148.6954  134.9724  162.3130 H   0  0  0  0  0  0  0  0  0  0  0  0
  153.5144  139.0658  160.7382 H   0  0  0  0  0  0  0  0  0  0  0  0
  1  2  1  0  0  0  0
  1 21  1  0  0  0  0
  1 22  1  0  0  0  0
  1 23  1  0  0  0  0
  2  3  1  0  0  0  0
  2  4  1  0  0  0  0
  2 24  1  0  0  0  0
  3 25  1  0  0  0  0
  3 26  1  0  0  0  0
  3 27  1  0  0  0  0
  4 20  1  0  0  0  0
  4  5  2  0  0  0  0
  5  6  1  0  0  0  0
  6  7  1  0  0  0  0
  6 19  2  0  0  0  0
  7  8  1  0  0  0  0
  7 28  1  0  0  0  0
  7 29  1  0  0  0  0
  8  9  2  0  0  0  0
  8 10  1  0  0  0  0
 10 11  1  0  0  0  0
 10 30  1  0  0  0  0
 11 12  1  0  0  0  0
 11 31  1  0  0  0  0
 11 32  1  0  0  0  0
 12 13  2  0  0  0  0
 12 14  1  0  0  0  0
 14 18  1  0  0  0  0
 14 15  1  0  0  0  0
 15 16  1  0  0  0  0
 15 33  1  0  0  0  0
 15 34  1  0  0  0  0
 16 17  1  0  0  0  0
 16 35  1  0  0  0  0
 16 36  1  0  0  0  0
 17 18  1  0  0  0  0
 17 37  1  0  0  0  0
 17 38  1  0  0  0  0
 18 39  1  0  0  0  0
 18 40  1  0  0  0  0
 19 20  1  0  0  0  0
 19 41  1  0  0  0  0
M  END
> <s_m_source_file>
AV-unprocessed.smi

> <i_m_source_file_index>
1309

> <i_lp_mmshare_version>
43012

> <i_f3d_flags>
0

> <s_epik_input>
W0NIM11bQ0hdKFtDSDNdKWMxbmMoW2NIXXMxKVtDSDJdQyg9TylbTkhdW0NIMl1DKD1PKU4yW0NIMl1bQ0gyXVtDSDJdW0NIMl0y

> <s_epik_cmdline>
J2VwaWtfcHl0aG9uJywgJy1waCcsICc3LjAnLCAnLXRuJywgJzgnLCAnLW1hJywgJzIwMCcsICctbWV0YWxfYmluZGluZycsICctaW1hZScsICc8aW5maWxlLm1hZT4nLCAnLW9tYWUnLCAnPG91dGZpbGUubWFlPic=

> <r_lp_tautomer_probability>
1

> <r_epik_Ionization_Penalty>
2.87584e-05

> <r_epik_Ionization_Penalty_Charging>
0

> <r_epik_Ionization_Penalty_Neutral>
2.87584e-05

> <r_epik_State_Penalty>
-0

> <r_epik_Charging_Adjusted_Penalty>
0

> <i_epik_Tot_Q>
0

> <i_epik_Tot_abs_Q>
0

> <r_epik_Metal_State_Penalty>
-0

> <b_epik_Metal_Only>
0

> <s_lp_Force_Field>
OPLS_2005

> <r_lp_Energy>
16.8696

> <b_lp_Chiralities_Consistent>
1

> <s_lp_Variant>
AV-unprocessed.smi:1309-1

> <Gold.Version>
5.8.1

> <Gold.Id.Protein>
6NUR|6NUR_protein|mol2

> <Gold.PLP.Fitness>
47.8476

> <Gold.PLP.PLP>
-43.1578

> <Gold.PLP.part.hbond>
-2.0000

> <Gold.PLP.part.metal>
0.0000

> <Gold.PLP.part.buried>
-5.0817

> <Gold.PLP.part.nonpolar>
-36.9265

> <Gold.PLP.part.repulsive>
0.2285

> <Gold.PLP.ligand.clash>
0.0000

> <Gold.PLP.ligand.torsion>
0.4910

> <Gold.PLP.Chemscore.Hbond>
1.8553

> <Gold.PLP.Chemscore.CHOScore>
0.0000

> <Gold.PLP.Chemscore.Metal>
0.0000

> <Gold.Chemscore.Hbonds>
donor molecule, donor type, donor heavy atom, donor atom, acceptor molecule, acceptor atom, score
      P1  H  6896  6907       L1     9  0.76
      P1  H  6934  6947       L1    13  0.91

> <Gold.PLP.Chemscore.Internal.Correction>
0.1060

> <Gold.Rescore>
     Score         DG    S(hbond)    S(metal)    S(lipo)     H(rot)  DE(clash)    DE(int)     intcor
     19.11     -19.58       1.83        0.00     105.35       1.70       0.01       0.46       ----

> <Gold.Chemscore.Fitness>
19.1056

> <Gold.Chemscore.DG>
-19.5828

> <Gold.Chemscore.ZeroCoef>
-5.4800

> <Gold.Chemscore.Hbond>
1.8342

> <Gold.Chemscore.Metal>
0.0000

> <Gold.Chemscore.Lipo>
105.3534

> <Gold.Chemscore.Internal_Hbond>
0.0000

> <Gold.Chemscore.DEClash>
0.0133

> <Gold.Chemscore.DEInternal>
0.4639

> <Gold.Chemscore.Rot>
1.6991

> <Gold.Chemscore.Internal.Correction>
   9.000000E+99

> <Gold.Chemscore.Hbonds>
donor molecule, donor type, donor heavy atom, donor atom, acceptor molecule, acceptor atom, score
      P1  H  6896  6907       L1     9  0.68
      P1  H  6934  6947       L1    13  0.73

> <Gold.Chemscore.Hbond.Weighted>
-6.1261

> <Gold.Chemscore.Metal.Weighted>
-0.0000

> <Gold.Chemscore.Lipo.Weighted>
-12.3263

> <Gold.Chemscore.Internal_Hbond.Weighted>
0.0000

> <Gold.Chemscore.DEClash.Weighted>
0.0133

> <Gold.Chemscore.DEInternal.Weighted>
0.4639

> <Gold.Chemscore.Rot.Weighted>
4.3497

> <Gold.Chemscore.Internal.Correction.Weighted>
   9.000000E+99

> <Gold.Protein.RotatedTorsions>
[ 6907 6896 6895 6894 ] final    3.88 input  -60.11 | X-H torsion
[ 7974 7965 7964 7962 ] final  -52.24 input  175.53 | X-H torsion
[ 8008 7997 7996 7995 ] final -115.38 input   59.86 | X-H torsion
[ 10167 10162 10161 10158 ] final  -46.86 input  -65.29 | X-H torsion
[ 10718 10713 10712 10709 ] final  164.99 input   66.30 | X-H torsion
[ 10763 10752 10751 10750 ] final   -2.54 input  -60.55 | X-H torsion
[ 11005 11000 10999 10996 ] final  170.90 input  -57.11 | X-H torsion

> <Gold.Protein.ActiveResidues>
 VAL166  LYS551  ARG553  GLY616  TRP617  ASP618  TYR619  PRO620  LYS621  CYS622 
 ASP623  PHE694  ASN695  SER759  ASP760  ASP761  ALA762  ILE779  LEU786  VAL792 
 PHE793  MET794  SER795  GLU796  ALA797  LYS798  CYS799  TRP800  GLU811  SER814 

> <Gold.Protein.RotatedAtoms>
  151.6322  135.1022  160.0123 H   0  0  0  0  0  0  0  0  0  0  0  0  # atno 6907 bound_to 6896
  152.4100  133.6944  159.6398 H   0  0  0  0  0  0  0  0  0  0  0  0  # atno 6908 bound_to 6896
  150.7991  133.8558  159.3259 H   0  0  0  0  0  0  0  0  0  0  0  0  # atno 6909 bound_to 6896
  145.9102  140.7922  142.9699 H   0  0  0  0  0  0  0  0  0  0  0  0  # atno 7974 bound_to 7965
  155.0512  140.0393  157.2544 H   0  0  0  0  0  0  0  0  0  0  0  0  # atno 8008 bound_to 7997
  154.7136  140.2697  155.6582 H   0  0  0  0  0  0  0  0  0  0  0  0  # atno 8009 bound_to 7997
  156.2796  140.2717  156.1785 H   0  0  0  0  0  0  0  0  0  0  0  0  # atno 8010 bound_to 7997
  140.6799  143.2811  151.3844 H   0  0  0  0  0  0  0  0  0  0  0  0  # atno 10167 bound_to 10162
  157.0865  131.0406  151.2554 H   0  0  0  0  0  0  0  0  0  0  0  0  # atno 10718 bound_to 10713
  153.3594  135.6989  153.6724 H   0  0  0  0  0  0  0  0  0  0  0  0  # atno 10763 bound_to 10752
  153.5419  135.3571  155.2722 H   0  0  0  0  0  0  0  0  0  0  0  0  # atno 10764 bound_to 10752
  154.8666  135.4205  154.2847 H   0  0  0  0  0  0  0  0  0  0  0  0  # atno 10765 bound_to 10752
  140.3132  134.7499  157.4008 H   0  0  0  0  0  0  0  0  0  0  0  0  # atno 11005 bound_to 11000
  144.6742  140.1813  143.7405 LP  0  0  0  0  0  0  0  0  0  0  0  0  # atno 17320 bound_to 7965
  145.8682  139.2258  143.1677 LP  0  0  0  0  0  0  0  0  0  0  0  0  # atno 17321 bound_to 7965
  139.6115  144.1088  152.2304 LP  0  0  0  0  0  0  0  0  0  0  0  0  # atno 17342 bound_to 10162
  140.0504  144.5937  150.7341 LP  0  0  0  0  0  0  0  0  0  0  0  0  # atno 17343 bound_to 10162
  157.4757  130.7735  149.7365 LP  0  0  0  0  0  0  0  0  0  0  0  0  # atno 17370 bound_to 10713
  155.9909  130.3941  150.3006 LP  0  0  0  0  0  0  0  0  0  0  0  0  # atno 17371 bound_to 10713
  140.1006  134.5478  155.8356 LP  0  0  0  0  0  0  0  0  0  0  0  0  # atno 17394 bound_to 11000
  141.2103  133.6694  156.6502 LP  0  0  0  0  0  0  0  0  0  0  0  0  # atno 17395 bound_to 11000

$$$$
