AV-unprocessed.smi:99|AV-procd|sdf|894|dock8
  -GOLD-   2262017383D 1   1.00000     0.00000
 Structure written by MMmdl.
 52 55  0  0  0  0  0  0  0  0  2 V2000
  145.0299  135.7975  153.6027 O   0  0  0  0  0  0  0  0  0  0  0  0
  145.5885  134.7347  153.3241 C   0  0  0  0  0  0  0  0  0  0  0  0
  146.6000  134.2116  154.0422 O   0  0  0  0  0  0  0  0  0  0  0  0
  147.0071  134.8095  155.2624 C   0  0  0  0  0  0  0  0  0  0  0  0
  148.4260  134.3306  155.5932 C   0  0  1  0  0  0  0  0  0  0  0  0
  149.3641  134.8809  154.6718 O   0  0  0  0  0  0  0  0  0  0  0  0
  150.6001  135.0923  155.2991 C   0  0  1  0  0  0  0  0  0  0  0  0
  150.9659  136.5577  155.1991 N   0  0  0  0  0  0  0  0  0  0  0  0
  150.1376  137.4578  154.5490 C   0  0  0  0  0  0  0  0  0  0  0  0
  150.4501  138.7673  154.4674 C   0  0  0  0  0  0  0  0  0  0  0  0
  151.6853  139.2492  155.0794 C   0  0  0  0  0  0  0  0  0  0  0  0
  151.9670  140.4426  154.9917 O   0  0  0  0  0  0  0  0  0  0  0  0
  152.4757  138.3459  155.7279 N   0  5  0  0  0  0  0  0  0  0  0  0
  152.1588  137.0213  155.8180 C   0  0  0  0  0  0  0  0  0  0  0  0
  152.8545  136.2022  156.4189 O   0  0  0  0  0  0  0  0  0  0  0  0
  150.4558  134.6834  156.7732 C   0  0  2  0  0  0  0  0  0  0  0  0
  150.9387  133.3660  156.9629 O   0  0  0  0  0  0  0  0  0  0  0  0
  148.9507  134.7858  156.9540 C   0  0  2  0  0  0  0  0  0  0  0  0
  148.4927  134.0115  158.0586 O   0  0  0  0  0  0  0  0  0  0  0  0
  148.6686  134.4332  159.3302 C   0  0  0  0  0  0  0  0  0  0  0  0
  149.3999  135.3732  159.6481 O   0  0  0  0  0  0  0  0  0  0  0  0
  147.8492  133.6664  160.3114 C   0  0  0  0  0  0  0  0  0  0  0  0
  147.7929  134.1015  161.6561 C   0  0  0  0  0  0  0  0  0  0  0  0
  147.0060  133.4138  162.6001 C   0  0  0  0  0  0  0  0  0  0  0  0
  146.2674  132.2812  162.2109 C   0  0  0  0  0  0  0  0  0  0  0  0
  146.3178  131.8365  160.8770 C   0  0  0  0  0  0  0  0  0  0  0  0
  147.1034  132.5236  159.9311 C   0  0  0  0  0  0  0  0  0  0  0  0
  145.2019  133.8763  152.1671 C   0  0  0  0  0  0  0  0  0  0  0  0
  146.2096  133.3484  151.3268 C   0  0  0  0  0  0  0  0  0  0  0  0
  145.8717  132.5533  150.2143 C   0  0  0  0  0  0  0  0  0  0  0  0
  144.5222  132.2764  149.9280 C   0  0  0  0  0  0  0  0  0  0  0  0
  143.5105  132.7919  150.7585 C   0  0  0  0  0  0  0  0  0  0  0  0
  143.8467  133.5846  151.8729 C   0  0  0  0  0  0  0  0  0  0  0  0
  146.9903  135.8934  155.1451 H   0  0  0  0  0  0  0  0  0  0  0  0
  146.3269  134.5547  156.0765 H   0  0  0  0  0  0  0  0  0  0  0  0
  148.4872  133.2440  155.5111 H   0  0  0  0  0  0  0  0  0  0  0  0
  151.3776  134.5528  154.7554 H   0  0  0  0  0  0  0  0  0  0  0  0
  149.2168  137.1207  154.0978 H   0  0  0  0  0  0  0  0  0  0  0  0
  149.7918  139.4552  153.9575 H   0  0  0  0  0  0  0  0  0  0  0  0
  151.0004  135.3582  157.4348 H   0  0  0  0  0  0  0  0  0  0  0  0
  150.4756  132.7904  156.3742 H   0  0  0  0  0  0  0  0  0  0  0  0
  148.7113  135.8421  157.0848 H   0  0  0  0  0  0  0  0  0  0  0  0
  148.3451  134.9732  161.9767 H   0  0  0  0  0  0  0  0  0  0  0  0
  146.9668  133.7589  163.6227 H   0  0  0  0  0  0  0  0  0  0  0  0
  145.6626  131.7547  162.9345 H   0  0  0  0  0  0  0  0  0  0  0  0
  145.7512  130.9673  160.5769 H   0  0  0  0  0  0  0  0  0  0  0  0
  147.1166  132.1583  158.9144 H   0  0  0  0  0  0  0  0  0  0  0  0
  147.2523  133.5527  151.5230 H   0  0  0  0  0  0  0  0  0  0  0  0
  146.6497  132.1580  149.5779 H   0  0  0  0  0  0  0  0  0  0  0  0
  144.2634  131.6700  149.0726 H   0  0  0  0  0  0  0  0  0  0  0  0
  142.4736  132.5842  150.5388 H   0  0  0  0  0  0  0  0  0  0  0  0
  143.0442  133.9693  152.4851 H   0  0  0  0  0  0  0  0  0  0  0  0
  1  2  2  0  0  0  0
  2  3  1  0  0  0  0
  2 28  1  0  0  0  0
  3  4  1  0  0  0  0
  4  5  1  0  0  0  0
  4 34  1  0  0  0  0
  4 35  1  0  0  0  0
  5 18  1  0  0  0  0
  5  6  1  0  0  0  0
  5 36  1  0  0  0  0
  6  7  1  0  0  0  0
  7  8  1  0  0  0  0
  7 16  1  0  0  0  0
  7 37  1  0  0  0  0
  8 14  1  0  0  0  0
  8  9  1  0  0  0  0
  9 10  2  0  0  0  0
  9 38  1  0  0  0  0
 10 11  1  0  0  0  0
 10 39  1  0  0  0  0
 11 12  2  0  0  0  0
 11 13  1  0  0  0  0
 13 14  1  0  0  0  0
 14 15  2  0  0  0  0
 16 17  1  0  0  0  0
 16 18  1  0  0  0  0
 16 40  1  0  0  0  0
 17 41  1  0  0  0  0
 18 19  1  0  0  0  0
 18 42  1  0  0  0  0
 19 20  1  0  0  0  0
 20 21  2  0  0  0  0
 20 22  1  0  0  0  0
 22 27  1  0  0  0  0
 22 23  2  0  0  0  0
 23 24  1  0  0  0  0
 23 43  1  0  0  0  0
 24 25  2  0  0  0  0
 24 44  1  0  0  0  0
 25 26  1  0  0  0  0
 25 45  1  0  0  0  0
 26 27  2  0  0  0  0
 26 46  1  0  0  0  0
 27 47  1  0  0  0  0
 28 33  1  0  0  0  0
 28 29  2  0  0  0  0
 29 30  1  0  0  0  0
 29 48  1  0  0  0  0
 30 31  2  0  0  0  0
 30 49  1  0  0  0  0
 31 32  1  0  0  0  0
 31 50  1  0  0  0  0
 32 33  2  0  0  0  0
 32 51  1  0  0  0  0
 33 52  1  0  0  0  0
M  CHG  1  13  -1
M  END
> <s_m_source_file>
AV-unprocessed.smi

> <i_m_source_file_index>
99

> <i_lp_mmshare_version>
43012

> <i_f3d_flags>
0

> <s_epik_input>
W2NIXTFbY0hdW2NIXVtjSF1bY0hdYzFDKD1PKU9bQ0gyXVtDQEBIXTJPW0NAQEhdKG4zW2NIXVtjSF1jKD1PKVtuSF1jMz1PKVtDQEBIXShbT0hdKVtDQEhdMk9DKD1PKWM0W2NIXVtjSF1bY0hdW2NIXVtjSF00

> <s_epik_cmdline>
J2VwaWtfcHl0aG9uJywgJy1waCcsICc3LjAnLCAnLXRuJywgJzgnLCAnLW1hJywgJzIwMCcsICctbWV0YWxfYmluZGluZycsICctaW1hZScsICc8aW5maWxlLm1hZT4nLCAnLW9tYWUnLCAnPG91dGZpbGUubWFlPic=

> <r_lp_tautomer_probability>
1

> <r_epik_Ionization_Penalty>
2.89159

> <r_epik_Ionization_Penalty_Charging>
2.1077e-08

> <r_epik_Ionization_Penalty_Neutral>
2.89159

> <r_epik_State_Penalty>
2.88671

> <r_epik_Charging_Adjusted_Penalty>
2.88671

> <i_epik_Tot_Q>
-1

> <i_epik_Tot_abs_Q>
1

> <r_epik_Metal_State_Penalty>
0.0727308

> <b_epik_Metal_Only>
1

> <s_epik_Chemistry_Notes>
This compound has an ester and may undergo hydrolysis at high or low pH. This compound contains an acetal/aminal-like group ( X-CH(R)-Y where X, Y are N, S, or O) that may be acid/base labile, releasing an aldehyde.

> <s_lp_Force_Field>
OPLS_2005

> <r_lp_Energy>
45.2634

> <b_lp_Chiralities_Consistent>
1

> <s_lp_Variant>
AV-unprocessed.smi:99-30

> <Gold.Version>
5.8.1

> <Gold.Id.Protein>
6NUR|6NUR_protein|mol2

> <Gold.PLP.Fitness>
54.0394

> <Gold.PLP.PLP>
-43.8533

> <Gold.PLP.part.hbond>
-3.5312

> <Gold.PLP.part.metal>
0.0000

> <Gold.PLP.part.buried>
-1.4895

> <Gold.PLP.part.nonpolar>
-38.9194

> <Gold.PLP.part.repulsive>
0.3510

> <Gold.PLP.ligand.clash>
0.0000

> <Gold.PLP.ligand.torsion>
1.2047

> <Gold.PLP.Chemscore.Hbond>
3.1653

> <Gold.PLP.Chemscore.CHOScore>
1.0000

> <Gold.PLP.Chemscore.Metal>
0.0000

> <Gold.Chemscore.Hbonds>
donor molecule, donor type, donor heavy atom, donor atom, acceptor molecule, acceptor atom, score
      P1  H  6896  6908       L1    17  0.23
      P1  H  6896  6909       L1    21  0.93
      P1  H  7989  7998       L1    12  0.70
      P1  H 10752 10764       L1    15  0.94
      L1  C     9    38       P1  7948  0.91

> <Gold.PLP.Chemscore.Internal.Correction>
0.0996

> <Gold.Rescore>
     Score         DG    S(hbond)    S(metal)    S(lipo)     H(rot)  DE(clash)    DE(int)     intcor
     12.15     -15.24       1.67        0.00     104.36       3.13       0.24       2.85       ----

> <Gold.Chemscore.Fitness>
12.1473

> <Gold.Chemscore.DG>
-15.2360

> <Gold.Chemscore.ZeroCoef>
-5.4800

> <Gold.Chemscore.Hbond>
1.6678

> <Gold.Chemscore.Metal>
0.0000

> <Gold.Chemscore.Lipo>
104.3600

> <Gold.Chemscore.Internal_Hbond>
0.0000

> <Gold.Chemscore.DEClash>
0.2383

> <Gold.Chemscore.DEInternal>
2.8503

> <Gold.Chemscore.Rot>
3.1346

> <Gold.Chemscore.Internal.Correction>
   9.000000E+99

> <Gold.Chemscore.Hbonds>
donor molecule, donor type, donor heavy atom, donor atom, acceptor molecule, acceptor atom, score
      P1  H  6896  6908       L1    17  0.07
      P1  H  6896  6909       L1    21  0.63
      P1  H  7989  7998       L1    12  0.41
      P1  H 10752 10764       L1    15  0.58

> <Gold.Chemscore.Hbond.Weighted>
-5.5704

> <Gold.Chemscore.Metal.Weighted>
-0.0000

> <Gold.Chemscore.Lipo.Weighted>
-12.2101

> <Gold.Chemscore.Internal_Hbond.Weighted>
0.0000

> <Gold.Chemscore.DEClash.Weighted>
0.2383

> <Gold.Chemscore.DEInternal.Weighted>
2.8503

> <Gold.Chemscore.Rot.Weighted>
8.0246

> <Gold.Chemscore.Internal.Correction.Weighted>
   9.000000E+99

> <Gold.Protein.RotatedTorsions>
[ 6907 6896 6895 6894 ] final   74.94 input  -60.11 | X-H torsion
[ 7974 7965 7964 7962 ] final  -34.56 input  175.53 | X-H torsion
[ 8008 7997 7996 7995 ] final   38.13 input   59.86 | X-H torsion
[ 10167 10162 10161 10158 ] final  144.47 input  -65.29 | X-H torsion
[ 10718 10713 10712 10709 ] final   73.75 input   66.30 | X-H torsion
[ 10763 10752 10751 10750 ] final    6.68 input  -60.55 | X-H torsion
[ 11005 11000 10999 10996 ] final -145.38 input  -57.11 | X-H torsion

> <Gold.Protein.ActiveResidues>
 VAL166  LYS551  ARG553  GLY616  TRP617  ASP618  TYR619  PRO620  LYS621  CYS622 
 ASP623  PHE694  ASN695  SER759  ASP760  ASP761  ALA762  ILE779  LEU786  VAL792 
 PHE793  MET794  SER795  GLU796  ALA797  LYS798  CYS799  TRP800  GLU811  SER814 

> <Gold.Protein.RotatedAtoms>
  152.5001  134.4195  159.9475 H   0  0  0  0  0  0  0  0  0  0  0  0  # atno 6907 bound_to 6896
  151.4168  133.3704  159.2758 H   0  0  0  0  0  0  0  0  0  0  0  0  # atno 6908 bound_to 6896
  150.9252  134.8691  159.7574 H   0  0  0  0  0  0  0  0  0  0  0  0  # atno 6909 bound_to 6896
  146.0819  140.6053  142.8904 H   0  0  0  0  0  0  0  0  0  0  0  0  # atno 7974 bound_to 7965
  155.2151  140.3326  155.4323 H   0  0  0  0  0  0  0  0  0  0  0  0  # atno 8008 bound_to 7997
  156.2355  140.1870  156.7178 H   0  0  0  0  0  0  0  0  0  0  0  0  # atno 8009 bound_to 7997
  154.6052  140.0617  156.9407 H   0  0  0  0  0  0  0  0  0  0  0  0  # atno 8010 bound_to 7997
  139.4946  144.5970  151.6562 H   0  0  0  0  0  0  0  0  0  0  0  0  # atno 10167 bound_to 10162
  157.6561  130.9644  150.1113 H   0  0  0  0  0  0  0  0  0  0  0  0  # atno 10718 bound_to 10713
  153.2450  135.6907  153.7741 H   0  0  0  0  0  0  0  0  0  0  0  0  # atno 10763 bound_to 10752
  153.6857  135.3321  155.3190 H   0  0  0  0  0  0  0  0  0  0  0  0  # atno 10764 bound_to 10752
  154.8371  135.4533  154.1385 H   0  0  0  0  0  0  0  0  0  0  0  0  # atno 10765 bound_to 10752
  140.7929  134.2947  157.5007 H   0  0  0  0  0  0  0  0  0  0  0  0  # atno 11005 bound_to 11000
  144.7299  140.4640  143.6945 LP  0  0  0  0  0  0  0  0  0  0  0  0  # atno 17320 bound_to 7965
  145.6202  139.1523  143.3027 LP  0  0  0  0  0  0  0  0  0  0  0  0  # atno 17321 bound_to 7965
  140.5610  144.0269  150.6170 LP  0  0  0  0  0  0  0  0  0  0  0  0  # atno 17342 bound_to 10162
  140.3354  143.3052  152.0643 LP  0  0  0  0  0  0  0  0  0  0  0  0  # atno 17343 bound_to 10162
  156.2009  130.3660  149.8790 LP  0  0  0  0  0  0  0  0  0  0  0  0  # atno 17370 bound_to 10713
  156.6694  130.8814  151.3560 LP  0  0  0  0  0  0  0  0  0  0  0  0  # atno 17371 bound_to 10713
  139.8729  134.9385  156.3716 LP  0  0  0  0  0  0  0  0  0  0  0  0  # atno 17394 bound_to 11000
  140.9372  133.7539  156.0099 LP  0  0  0  0  0  0  0  0  0  0  0  0  # atno 17395 bound_to 11000

$$$$
