AV-unprocessed.smi:1512|AV-procd|sdf|6106|dock1
  -GOLD-   22720 6243D 1   1.00000     0.00000
 Structure written by MMmdl.
 44 46  0  0  0  0  0  0  0  0  3 V2000
  150.2826  142.0859  156.0154 C   0  0  0  0  0  0  0  0  0  0  0  0
  151.4169  141.7107  156.9841 C   0  0  2  0  0  0  0  0  0  0  0  0
  151.3668  140.2654  157.2031 N   0  0  0  0  0  0  0  0  0  0  0  0
  151.3394  139.3208  156.2502 C   0  0  0  0  0  0  0  0  0  0  0  0
  151.3812  139.5702  155.0448 O   0  0  0  0  0  0  0  0  0  0  0  0
  151.2740  137.8703  156.7495 C   0  0  0  0  0  0  0  0  0  0  0  0
  149.9226  137.4563  157.1650 N   0  0  0  0  0  0  0  0  0  0  0  0
  148.9235  137.4566  156.1736 C   0  0  0  0  0  0  0  0  0  0  0  0
  147.6591  137.1009  156.4417 C   0  0  0  0  0  0  0  0  0  0  0  0
  147.3296  136.7169  157.7925 C   0  0  0  0  0  0  0  0  0  0  0  0
  148.2719  136.7130  158.7636 C   0  0  0  0  0  0  0  0  0  0  0  0
  147.8711  136.3306  160.0982 N   0  3  0  0  0  0  0  0  0  0  0  0
  147.6395  137.2097  160.9223 O   0  0  0  0  0  0  0  0  0  0  0  0
  147.7626  135.1358  160.3576 O   0  5  0  0  0  0  0  0  0  0  0  0
  149.6679  137.0913  158.4603 C   0  0  0  0  0  0  0  0  0  0  0  0
  150.5637  137.0771  159.3068 O   0  0  0  0  0  0  0  0  0  0  0  0
  151.3216  142.4498  158.3429 C   0  0  1  0  0  0  0  0  0  0  0  0
  152.5194  142.1747  159.2877 C   0  0  0  0  0  0  0  0  0  0  0  0
  153.0168  143.5836  159.6538 C   0  0  2  0  0  0  0  0  0  0  0  0
  151.9809  144.2794  160.5549 C   0  0  0  0  0  0  0  0  0  0  0  0
  150.8361  144.5908  159.5731 C   0  0  0  0  0  0  0  0  0  0  0  0
  151.3521  143.9969  158.2480 C   0  0  1  0  0  0  0  0  0  0  0  0
  152.8404  144.3203  158.3333 C   0  0  0  0  0  0  0  0  0  0  0  0
  150.3209  143.1366  155.7309 H   0  0  0  0  0  0  0  0  0  0  0  0
  149.3037  141.8942  156.4564 H   0  0  0  0  0  0  0  0  0  0  0  0
  150.3496  141.5057  155.0942 H   0  0  0  0  0  0  0  0  0  0  0  0
  152.3605  141.9828  156.5090 H   0  0  0  0  0  0  0  0  0  0  0  0
  151.3372  139.9592  158.1648 H   0  0  0  0  0  0  0  0  0  0  0  0
  151.6483  137.2233  155.9550 H   0  0  0  0  0  0  0  0  0  0  0  0
  151.9751  137.7390  157.5759 H   0  0  0  0  0  0  0  0  0  0  0  0
  149.2478  137.7658  155.1904 H   0  0  0  0  0  0  0  0  0  0  0  0
  146.9053  137.1088  155.6682 H   0  0  0  0  0  0  0  0  0  0  0  0
  146.3095  136.4440  158.0210 H   0  0  0  0  0  0  0  0  0  0  0  0
  150.3973  142.1351  158.8304 H   0  0  0  0  0  0  0  0  0  0  0  0
  152.2312  141.5944  160.1649 H   0  0  0  0  0  0  0  0  0  0  0  0
  153.3151  141.6285  158.7796 H   0  0  0  0  0  0  0  0  0  0  0  0
  154.0296  143.5976  160.0577 H   0  0  0  0  0  0  0  0  0  0  0  0
  151.6605  143.6440  161.3813 H   0  0  0  0  0  0  0  0  0  0  0  0
  152.3862  145.2001  160.9764 H   0  0  0  0  0  0  0  0  0  0  0  0
  149.8866  144.1556  159.8862 H   0  0  0  0  0  0  0  0  0  0  0  0
  150.6934  145.6685  159.4835 H   0  0  0  0  0  0  0  0  0  0  0  0
  150.8466  144.4133  157.3778 H   0  0  0  0  0  0  0  0  0  0  0  0
  153.0475  145.3896  158.4035 H   0  0  0  0  0  0  0  0  0  0  0  0
  153.4284  143.8968  157.5178 H   0  0  0  0  0  0  0  0  0  0  0  0
  1  2  1  0  0  0  0
  1 24  1  0  0  0  0
  1 25  1  0  0  0  0
  1 26  1  0  0  0  0
  2  3  1  0  0  0  0
  2 17  1  0  0  0  0
  2 27  1  0  0  0  0
  3  4  1  0  0  0  0
  3 28  1  0  0  0  0
  4  5  2  0  0  0  0
  4  6  1  0  0  0  0
  6  7  1  0  0  0  0
  6 29  1  0  0  0  0
  6 30  1  0  0  0  0
  7 15  1  0  0  0  0
  7  8  1  0  0  0  0
  8  9  2  0  0  0  0
  8 31  1  0  0  0  0
  9 10  1  0  0  0  0
  9 32  1  0  0  0  0
 10 11  2  0  0  0  0
 10 33  1  0  0  0  0
 11 12  1  0  0  0  0
 11 15  1  0  0  0  0
 12 13  2  0  0  0  0
 12 14  1  0  0  0  0
 15 16  2  0  0  0  0
 17 22  1  0  0  0  0
 17 18  1  0  0  0  0
 17 34  1  0  0  0  0
 18 19  1  0  0  0  0
 18 35  1  0  0  0  0
 18 36  1  0  0  0  0
 19 23  1  0  0  0  0
 19 20  1  0  0  0  0
 19 37  1  0  0  0  0
 20 21  1  0  0  0  0
 20 38  1  0  0  0  0
 20 39  1  0  0  0  0
 21 22  1  0  0  0  0
 21 40  1  0  0  0  0
 21 41  1  0  0  0  0
 22 23  1  0  0  0  0
 22 42  1  0  0  0  0
 23 43  1  0  0  0  0
 23 44  1  0  0  0  0
M  CHG  1  12   1
M  CHG  1  14  -1
M  END
> <s_m_source_file>
AV-unprocessed.smi

> <i_m_source_file_index>
1512

> <i_lp_mmshare_version>
43012

> <i_f3d_flags>
0

> <s_epik_input>
W0NIMl0xW0NIMl1bQ0BIXShbQ0gyXTIpW0NAQEhdKFtDSDJdW0NAQEhdMTIpW0NASF0oW0NIM10pW05IXUMoPU8pW0NIMl1uM1tjSF1bY0hdW2NIXWMoW04rXSg9TylbTy1dKWMzPU8=

> <s_epik_cmdline>
J2VwaWtfcHl0aG9uJywgJy1waCcsICc3LjAnLCAnLXRuJywgJzgnLCAnLW1hJywgJzIwMCcsICctbWV0YWxfYmluZGluZycsICctaW1hZScsICc8aW5maWxlLm1hZT4nLCAnLW9tYWUnLCAnPG91dGZpbGUubWFlPic=

> <r_lp_tautomer_probability>
1

> <r_epik_Ionization_Penalty>
2.17697e-08

> <r_epik_Ionization_Penalty_Charging>
1.42735e-10

> <r_epik_Ionization_Penalty_Neutral>
2.16269e-08

> <r_epik_State_Penalty>
-0

> <r_epik_Charging_Adjusted_Penalty>
1.42735e-10

> <i_epik_Tot_Q>
0

> <i_epik_Tot_abs_Q>
2

> <r_epik_Metal_State_Penalty>
-0

> <b_epik_Metal_Only>
0

> <s_lp_Force_Field>
OPLS_2005

> <r_lp_Energy>
64.581

> <b_lp_Chiralities_Consistent>
1

> <s_lp_Variant>
AV-unprocessed.smi:1512-7

> <Gold.Version>
5.8.1

> <Gold.Id.Protein>
6NUR|6NUR_protein|mol2

> <Gold.PLP.Fitness>
46.6940

> <Gold.PLP.PLP>
-39.0631

> <Gold.PLP.part.hbond>
-3.8947

> <Gold.PLP.part.metal>
0.0000

> <Gold.PLP.part.buried>
-5.4456

> <Gold.PLP.part.nonpolar>
-30.4860

> <Gold.PLP.part.repulsive>
0.1114

> <Gold.PLP.ligand.clash>
0.0000

> <Gold.PLP.ligand.torsion>
1.7729

> <Gold.PLP.Chemscore.Hbond>
3.7020

> <Gold.PLP.Chemscore.CHOScore>
0.0000

> <Gold.PLP.Chemscore.Metal>
0.0000

> <Gold.Chemscore.Hbonds>
donor molecule, donor type, donor heavy atom, donor atom, acceptor molecule, acceptor atom, score
      P1  H  6896  6907       L1    16  0.73
      P1  H  6931  6943       L1    13  0.85
      P1  H  6934  6947       L1    13  0.93
      P1  H  7989  7998       L1     5  0.99

> <Gold.PLP.Chemscore.Internal.Correction>
0.0706

> <Gold.Rescore>
     Score         DG    S(hbond)    S(metal)    S(lipo)     H(rot)  DE(clash)    DE(int)     intcor
     22.42     -25.07       3.46        0.00     106.84       1.75       0.19       2.46       ----

> <Gold.Chemscore.Fitness>
22.4179

> <Gold.Chemscore.DG>
-25.0726

> <Gold.Chemscore.ZeroCoef>
-5.4800

> <Gold.Chemscore.Hbond>
3.4629

> <Gold.Chemscore.Metal>
0.0000

> <Gold.Chemscore.Lipo>
106.8363

> <Gold.Chemscore.Internal_Hbond>
0.0000

> <Gold.Chemscore.DEClash>
0.1938

> <Gold.Chemscore.DEInternal>
2.4609

> <Gold.Chemscore.Rot>
1.7474

> <Gold.Chemscore.Internal.Correction>
   9.000000E+99

> <Gold.Chemscore.Hbonds>
donor molecule, donor type, donor heavy atom, donor atom, acceptor molecule, acceptor atom, score
      P1  H  6896  6907       L1    16  0.64
      P1  H  6931  6943       L1    13  0.82
      P1  H  6934  6947       L1    13  0.91
      P1  H  7989  7998       L1     5  0.93

> <Gold.Chemscore.Hbond.Weighted>
-11.5660

> <Gold.Chemscore.Metal.Weighted>
-0.0000

> <Gold.Chemscore.Lipo.Weighted>
-12.4998

> <Gold.Chemscore.Internal_Hbond.Weighted>
0.0000

> <Gold.Chemscore.DEClash.Weighted>
0.1938

> <Gold.Chemscore.DEInternal.Weighted>
2.4609

> <Gold.Chemscore.Rot.Weighted>
4.4733

> <Gold.Chemscore.Internal.Correction.Weighted>
   9.000000E+99

> <Gold.Protein.RotatedTorsions>
[ 6907 6896 6895 6894 ] final  -22.47 input  -60.11 | X-H torsion
[ 7974 7965 7964 7962 ] final  -45.31 input  175.53 | X-H torsion
[ 8008 7997 7996 7995 ] final  -74.72 input   59.86 | X-H torsion
[ 10167 10162 10161 10158 ] final  -63.98 input  -65.29 | X-H torsion
[ 10718 10713 10712 10709 ] final  -84.57 input   66.30 | X-H torsion
[ 10763 10752 10751 10750 ] final   77.87 input  -60.55 | X-H torsion
[ 11005 11000 10999 10996 ] final  140.50 input  -57.11 | X-H torsion

> <Gold.Protein.ActiveResidues>
 VAL166  LYS551  ARG553  GLY616  TRP617  ASP618  TYR619  PRO620  LYS621  CYS622 
 ASP623  PHE694  ASN695  SER759  ASP760  ASP761  ALA762  ILE779  LEU786  VAL792 
 PHE793  MET794  SER795  GLU796  ALA797  LYS798  CYS799  TRP800  GLU811  SER814 

> <Gold.Protein.RotatedAtoms>
  151.2181  135.0508  159.8938 H   0  0  0  0  0  0  0  0  0  0  0  0  # atno 6907 bound_to 6896
  152.5418  134.0671  159.8188 H   0  0  0  0  0  0  0  0  0  0  0  0  # atno 6908 bound_to 6896
  151.0833  133.5325  159.2651 H   0  0  0  0  0  0  0  0  0  0  0  0  # atno 6909 bound_to 6896
  145.9834  140.7259  142.9352 H   0  0  0  0  0  0  0  0  0  0  0  0  # atno 7974 bound_to 7965
  154.5355  140.0756  156.8419 H   0  0  0  0  0  0  0  0  0  0  0  0  # atno 8008 bound_to 7997
  155.3287  140.3400  155.4221 H   0  0  0  0  0  0  0  0  0  0  0  0  # atno 8009 bound_to 7997
  156.1823  140.1657  156.8237 H   0  0  0  0  0  0  0  0  0  0  0  0  # atno 8010 bound_to 7997
  140.5833  143.2330  151.6297 H   0  0  0  0  0  0  0  0  0  0  0  0  # atno 10167 bound_to 10162
  156.0005  130.4702  150.4429 H   0  0  0  0  0  0  0  0  0  0  0  0  # atno 10718 bound_to 10713
  153.0831  135.4898  154.8542 H   0  0  0  0  0  0  0  0  0  0  0  0  # atno 10763 bound_to 10752
  154.7176  135.3032  154.9101 H   0  0  0  0  0  0  0  0  0  0  0  0  # atno 10764 bound_to 10752
  153.9775  135.6794  153.4802 H   0  0  0  0  0  0  0  0  0  0  0  0  # atno 10765 bound_to 10752
  140.0332  134.9342  157.0702 H   0  0  0  0  0  0  0  0  0  0  0  0  # atno 11005 bound_to 11000
  144.6868  140.2946  143.7272 LP  0  0  0  0  0  0  0  0  0  0  0  0  # atno 17320 bound_to 7965
  145.7736  139.1866  143.2198 LP  0  0  0  0  0  0  0  0  0  0  0  0  # atno 17321 bound_to 7965
  139.5182  144.3291  152.0843 LP  0  0  0  0  0  0  0  0  0  0  0  0  # atno 17342 bound_to 10162
  140.2444  144.4235  150.6247 LP  0  0  0  0  0  0  0  0  0  0  0  0  # atno 17343 bound_to 10162
  157.2469  131.0538  151.2403 LP  0  0  0  0  0  0  0  0  0  0  0  0  # atno 17370 bound_to 10713
  157.3566  130.7109  149.6475 LP  0  0  0  0  0  0  0  0  0  0  0  0  # atno 17371 bound_to 10713
  140.4191  134.1899  155.7164 LP  0  0  0  0  0  0  0  0  0  0  0  0  # atno 17394 bound_to 11000
  141.1842  133.8348  157.1146 LP  0  0  0  0  0  0  0  0  0  0  0  0  # atno 17395 bound_to 11000

$$$$
