AV-unprocessed.smi:1913|AV-procd|sdf|7753|dock1
  -GOLD-   22720 9493D 1   1.00000     0.00000
 Structure written by MMmdl.
 40 42  0  0  0  0  0  0  0  0  1 V2000
  153.6919  139.2247  154.8542 C   0  0  0  0  0  0  0  0  0  0  0  0
  152.5127  138.4495  154.6936 O   0  0  0  0  0  0  0  0  0  0  0  0
  151.2971  139.0964  154.7585 C   0  0  0  0  0  0  0  0  0  0  0  0
  150.1353  138.6791  154.0675 C   0  0  0  0  0  0  0  0  0  0  0  0
  148.9359  139.4054  154.1846 C   0  0  0  0  0  0  0  0  0  0  0  0
  148.8645  140.5639  154.9975 C   0  0  0  0  0  0  0  0  0  0  0  0
  147.7210  141.3246  155.1362 O   0  0  0  0  0  0  0  0  0  0  0  0
  146.6487  141.1078  154.2313 C   0  0  0  0  0  0  0  0  0  0  0  0
  150.0215  140.9757  155.7025 C   0  0  0  0  0  0  0  0  0  0  0  0
  149.9760  142.2217  156.5828 C   0  0  1  0  0  0  0  0  0  0  0  0
  149.0079  142.1388  157.6126 O   0  0  0  0  0  0  0  0  0  0  0  0
  151.3573  142.5196  157.1959 C   0  0  0  0  0  0  0  0  0  0  0  0
  151.2614  143.2993  158.4159 N   0  0  0  0  0  0  0  0  0  0  0  0
  150.6218  144.4717  158.5909 C   0  0  0  0  0  0  0  0  0  0  0  0
  150.6676  145.0148  159.8046 N   0  0  0  0  0  0  0  0  0  0  0  0
  151.4254  144.0863  160.4978 C   0  0  0  0  0  0  0  0  0  0  0  0
  151.8453  144.0667  161.8471 C   0  0  0  0  0  0  0  0  0  0  0  0
  152.6244  142.9978  162.3375 C   0  0  0  0  0  0  0  0  0  0  0  0
  152.9965  141.9349  161.4887 C   0  0  0  0  0  0  0  0  0  0  0  0
  152.5903  141.9324  160.1405 C   0  0  0  0  0  0  0  0  0  0  0  0
  151.8121  143.0002  159.6562 C   0  0  0  0  0  0  0  0  0  0  0  0
  151.2241  140.2459  155.5681 C   0  0  0  0  0  0  0  0  0  0  0  0
  154.5632  138.5739  154.7807 H   0  0  0  0  0  0  0  0  0  0  0  0
  153.7227  139.7066  155.8322 H   0  0  0  0  0  0  0  0  0  0  0  0
  153.7799  139.9826  154.0746 H   0  0  0  0  0  0  0  0  0  0  0  0
  150.1383  137.8048  153.4346 H   0  0  0  0  0  0  0  0  0  0  0  0
  148.0794  139.0494  153.6328 H   0  0  0  0  0  0  0  0  0  0  0  0
  145.8363  141.7946  154.4685 H   0  0  0  0  0  0  0  0  0  0  0  0
  146.2570  140.0931  154.3127 H   0  0  0  0  0  0  0  0  0  0  0  0
  146.9513  141.2988  153.2008 H   0  0  0  0  0  0  0  0  0  0  0  0
  149.6726  143.0680  155.9660 H   0  0  0  0  0  0  0  0  0  0  0  0
  148.4137  142.8683  157.5232 H   0  0  0  0  0  0  0  0  0  0  0  0
  151.8955  141.5939  157.4048 H   0  0  0  0  0  0  0  0  0  0  0  0
  151.9682  143.0828  156.4893 H   0  0  0  0  0  0  0  0  0  0  0  0
  150.0963  144.9553  157.7804 H   0  0  0  0  0  0  0  0  0  0  0  0
  151.5671  144.8757  162.5062 H   0  0  0  0  0  0  0  0  0  0  0  0
  152.9387  142.9935  163.3708 H   0  0  0  0  0  0  0  0  0  0  0  0
  153.5942  141.1215  161.8729 H   0  0  0  0  0  0  0  0  0  0  0  0
  152.8731  141.1212  159.4859 H   0  0  0  0  0  0  0  0  0  0  0  0
  152.1131  140.5696  156.0896 H   0  0  0  0  0  0  0  0  0  0  0  0
  1  2  1  0  0  0  0
  1 23  1  0  0  0  0
  1 24  1  0  0  0  0
  1 25  1  0  0  0  0
  2  3  1  0  0  0  0
  3 22  1  0  0  0  0
  3  4  2  0  0  0  0
  4  5  1  0  0  0  0
  4 26  1  0  0  0  0
  5  6  2  0  0  0  0
  5 27  1  0  0  0  0
  6  7  1  0  0  0  0
  6  9  1  0  0  0  0
  7  8  1  0  0  0  0
  8 28  1  0  0  0  0
  8 29  1  0  0  0  0
  8 30  1  0  0  0  0
  9 10  1  0  0  0  0
  9 22  2  0  0  0  0
 10 11  1  0  0  0  0
 10 12  1  0  0  0  0
 10 31  1  0  0  0  0
 11 32  1  0  0  0  0
 12 13  1  0  0  0  0
 12 33  1  0  0  0  0
 12 34  1  0  0  0  0
 13 21  1  0  0  0  0
 13 14  1  0  0  0  0
 14 15  2  0  0  0  0
 14 35  1  0  0  0  0
 15 16  1  0  0  0  0
 16 21  2  0  0  0  0
 16 17  1  0  0  0  0
 17 18  2  0  0  0  0
 17 36  1  0  0  0  0
 18 19  1  0  0  0  0
 18 37  1  0  0  0  0
 19 20  2  0  0  0  0
 19 38  1  0  0  0  0
 20 21  1  0  0  0  0
 20 39  1  0  0  0  0
 22 40  1  0  0  0  0
M  END
> <s_m_source_file>
AV-unprocessed.smi

> <i_m_source_file_index>
1913

> <i_lp_mmshare_version>
43012

> <i_f3d_flags>
0

> <s_epik_input>
W0NIM11PYzFbY0hdW2NIXWMoT1tDSDNdKWMoW2NIXTEpW0NASF0oW09IXSlbQ0gyXW4oW2NIXW4yKWMoYzIzKVtjSF1bY0hdW2NIXVtjSF0z

> <s_epik_cmdline>
J2VwaWtfcHl0aG9uJywgJy1waCcsICc3LjAnLCAnLXRuJywgJzgnLCAnLW1hJywgJzIwMCcsICctbWV0YWxfYmluZGluZycsICctaW1hZScsICc8aW5maWxlLm1hZT4nLCAnLW9tYWUnLCAnPG91dGZpbGUubWFlPic=

> <r_lp_tautomer_probability>
1

> <r_epik_Ionization_Penalty>
0.0696512

> <r_epik_Ionization_Penalty_Charging>
0

> <r_epik_Ionization_Penalty_Neutral>
0.0696512

> <r_epik_State_Penalty>
0.0610247

> <r_epik_Charging_Adjusted_Penalty>
0.0610247

> <i_epik_Tot_Q>
0

> <i_epik_Tot_abs_Q>
0

> <r_epik_Metal_State_Penalty>
6.42746e-05

> <b_epik_Metal_Only>
0

> <s_lp_Force_Field>
OPLS_2005

> <r_lp_Energy>
19.1382

> <b_lp_Chiralities_Consistent>
1

> <s_lp_Variant>
AV-unprocessed.smi:1913-2

> <Gold.Version>
5.8.1

> <Gold.Id.Protein>
6NUR|6NUR_protein|mol2

> <Gold.PLP.Fitness>
54.5209

> <Gold.PLP.PLP>
-51.0052

> <Gold.PLP.part.hbond>
-1.2151

> <Gold.PLP.part.metal>
0.0000

> <Gold.PLP.part.buried>
-0.0083

> <Gold.PLP.part.nonpolar>
-49.6639

> <Gold.PLP.part.repulsive>
0.3153

> <Gold.PLP.ligand.clash>
0.0000

> <Gold.PLP.ligand.torsion>
0.8889

> <Gold.PLP.Chemscore.Hbond>
0.7520

> <Gold.PLP.Chemscore.CHOScore>
1.0000

> <Gold.PLP.Chemscore.Metal>
0.0000

> <Gold.Chemscore.Hbonds>
donor molecule, donor type, donor heavy atom, donor atom, acceptor molecule, acceptor atom, score
      L1  C    14    35       P1  8028  0.51
      L1  C    14    35       P1  8029  0.42

> <Gold.PLP.Chemscore.Internal.Correction>
0.0376

> <Gold.Rescore>
     Score         DG    S(hbond)    S(metal)    S(lipo)     H(rot)  DE(clash)    DE(int)     intcor
     15.39     -18.52       0.76        0.00     140.91       2.33       2.48       0.65       ----

> <Gold.Chemscore.Fitness>
15.3905

> <Gold.Chemscore.DG>
-18.5237

> <Gold.Chemscore.ZeroCoef>
-5.4800

> <Gold.Chemscore.Hbond>
0.7569

> <Gold.Chemscore.Metal>
0.0000

> <Gold.Chemscore.Lipo>
140.9095

> <Gold.Chemscore.Internal_Hbond>
0.0000

> <Gold.Chemscore.DEClash>
2.4819

> <Gold.Chemscore.DEInternal>
0.6513

> <Gold.Chemscore.Rot>
2.3323

> <Gold.Chemscore.Internal.Correction>
   9.000000E+99

> <Gold.Chemscore.Hbond.Weighted>
-2.5281

> <Gold.Chemscore.Metal.Weighted>
-0.0000

> <Gold.Chemscore.Lipo.Weighted>
-16.4864

> <Gold.Chemscore.Internal_Hbond.Weighted>
0.0000

> <Gold.Chemscore.DEClash.Weighted>
2.4819

> <Gold.Chemscore.DEInternal.Weighted>
0.6513

> <Gold.Chemscore.Rot.Weighted>
5.9708

> <Gold.Chemscore.Internal.Correction.Weighted>
   9.000000E+99

> <Gold.Protein.RotatedTorsions>
[ 6907 6896 6895 6894 ] final -146.53 input  -60.11 | X-H torsion
[ 7974 7965 7964 7962 ] final  -27.17 input  175.53 | X-H torsion
[ 8008 7997 7996 7995 ] final   87.86 input   59.86 | X-H torsion
[ 10167 10162 10161 10158 ] final  -46.08 input  -65.29 | X-H torsion
[ 10718 10713 10712 10709 ] final   60.44 input   66.30 | X-H torsion
[ 10763 10752 10751 10750 ] final  172.55 input  -60.55 | X-H torsion
[ 11005 11000 10999 10996 ] final  149.11 input  -57.11 | X-H torsion

> <Gold.Protein.ActiveResidues>
 VAL166  LYS551  ARG553  GLY616  TRP617  ASP618  TYR619  PRO620  LYS621  CYS622 
 ASP623  PHE694  ASN695  SER759  ASP760  ASP761  ALA762  ILE779  LEU786  VAL792 
 PHE793  MET794  SER795  GLU796  ALA797  LYS798  CYS799  TRP800  GLU811  SER814 

> <Gold.Protein.RotatedAtoms>
  151.1430  133.4958  159.2596 H   0  0  0  0  0  0  0  0  0  0  0  0  # atno 6907 bound_to 6896
  151.1635  135.0284  159.8730 H   0  0  0  0  0  0  0  0  0  0  0  0  # atno 6908 bound_to 6896
  152.5462  134.1301  159.8489 H   0  0  0  0  0  0  0  0  0  0  0  0  # atno 6909 bound_to 6896
  146.1376  140.5117  142.8666 H   0  0  0  0  0  0  0  0  0  0  0  0  # atno 7974 bound_to 7965
  155.9806  140.3377  155.6659 H   0  0  0  0  0  0  0  0  0  0  0  0  # atno 8008 bound_to 7997
  155.6554  140.0710  157.2591 H   0  0  0  0  0  0  0  0  0  0  0  0  # atno 8009 bound_to 7997
  154.4191  140.1718  156.1706 H   0  0  0  0  0  0  0  0  0  0  0  0  # atno 8010 bound_to 7997
  140.6832  143.2848  151.3731 H   0  0  0  0  0  0  0  0  0  0  0  0  # atno 10167 bound_to 10162
  157.5753  130.8939  149.9336 H   0  0  0  0  0  0  0  0  0  0  0  0  # atno 10718 bound_to 10713
  154.4276  135.2759  155.1934 H   0  0  0  0  0  0  0  0  0  0  0  0  # atno 10763 bound_to 10752
  154.3853  135.6078  153.5817 H   0  0  0  0  0  0  0  0  0  0  0  0  # atno 10764 bound_to 10752
  152.9835  135.5890  154.4582 H   0  0  0  0  0  0  0  0  0  0  0  0  # atno 10765 bound_to 10752
  140.1017  134.8979  157.1805 H   0  0  0  0  0  0  0  0  0  0  0  0  # atno 11005 bound_to 11000
  144.7756  140.5733  143.6640 LP  0  0  0  0  0  0  0  0  0  0  0  0  # atno 17320 bound_to 7965
  145.5121  139.1479  143.3599 LP  0  0  0  0  0  0  0  0  0  0  0  0  # atno 17321 bound_to 7965
  139.6170  144.0983  152.2355 LP  0  0  0  0  0  0  0  0  0  0  0  0  # atno 17342 bound_to 10162
  140.0415  144.6003  150.7407 LP  0  0  0  0  0  0  0  0  0  0  0  0  # atno 17343 bound_to 10162
  156.0798  130.3674  150.0604 LP  0  0  0  0  0  0  0  0  0  0  0  0  # atno 17370 bound_to 10713
  156.8752  130.9537  151.3605 LP  0  0  0  0  0  0  0  0  0  0  0  0  # atno 17371 bound_to 10713
  140.3211  134.2915  155.7246 LP  0  0  0  0  0  0  0  0  0  0  0  0  # atno 17394 bound_to 11000
  141.2107  133.7710  156.9912 LP  0  0  0  0  0  0  0  0  0  0  0  0  # atno 17395 bound_to 11000

$$$$
