AV-unprocessed.smi:772|AV-procd|sdf|3686|dock4
  -GOLD-   22720 1103D 1   1.00000     0.00000
 Structure written by MMmdl.
 46 47  0  0  0  0  0  0  0  0  1 V2000
  144.3245  132.1135  150.0935 C   0  0  0  0  0  0  0  0  0  0  0  0
  144.4730  133.4348  150.8185 C   0  0  0  0  0  0  0  0  0  0  0  0
  143.5089  133.8576  151.7576 C   0  0  0  0  0  0  0  0  0  0  0  0
  143.6978  135.0957  152.4006 C   0  0  0  0  0  0  0  0  0  0  0  0
  144.8377  135.8618  152.0805 C   0  0  0  0  0  0  0  0  0  0  0  0
  145.0790  137.2144  152.7273 C   0  0  0  0  0  0  0  0  0  0  0  0
  146.1303  138.0682  151.9943 C   0  0  0  0  0  0  0  0  0  0  0  0
  146.3830  139.3337  152.6789 N   0  0  0  0  0  0  0  0  0  0  0  0
  147.4642  139.6250  153.4238 C   0  0  0  0  0  0  0  0  0  0  0  0
  148.3595  138.8048  153.6310 O   0  0  0  0  0  0  0  0  0  0  0  0
  147.4962  140.8936  153.9057 N   0  0  0  0  0  0  0  0  0  0  0  0
  146.3344  141.7756  154.1010 C   0  0  0  0  0  0  0  0  0  0  0  0
  145.8964  141.7033  155.5716 C   0  0  0  0  0  0  0  0  0  0  0  0
  147.2130  142.3088  156.6719 S   0  0  0  0  0  0  0  0  0  0  0  0
  148.6350  141.3487  156.0388 C   0  0  2  0  0  0  0  0  0  0  0  0
  149.9627  141.7314  156.7405 C   0  0  0  0  0  0  0  0  0  0  0  0
  151.1664  140.9820  156.1441 C   0  0  0  0  0  0  0  0  0  0  0  0
  149.9266  141.5796  158.2728 C   0  0  0  0  0  0  0  0  0  0  0  0
  148.7130  141.4609  154.4996 C   0  0  0  0  0  0  0  0  0  0  0  0
  145.7417  135.3469  151.1277 C   0  0  0  0  0  0  0  0  0  0  0  0
  145.5698  134.1601  150.5073 N   0  0  0  0  0  0  0  0  0  0  0  0
  143.4105  131.5990  150.3911 H   0  0  0  0  0  0  0  0  0  0  0  0
  145.1694  131.4615  150.3166 H   0  0  0  0  0  0  0  0  0  0  0  0
  144.2884  132.2745  149.0157 H   0  0  0  0  0  0  0  0  0  0  0  0
  142.6437  133.2509  151.9807 H   0  0  0  0  0  0  0  0  0  0  0  0
  142.9749  135.4526  153.1194 H   0  0  0  0  0  0  0  0  0  0  0  0
  144.1350  137.7587  152.7769 H   0  0  0  0  0  0  0  0  0  0  0  0
  145.3913  137.0565  153.7603 H   0  0  0  0  0  0  0  0  0  0  0  0
  147.0704  137.5193  151.9371 H   0  0  0  0  0  0  0  0  0  0  0  0
  145.8185  138.2400  150.9627 H   0  0  0  0  0  0  0  0  0  0  0  0
  145.6925  140.0596  152.5551 H   0  0  0  0  0  0  0  0  0  0  0  0
  146.5986  142.8020  153.8422 H   0  0  0  0  0  0  0  0  0  0  0  0
  145.4956  141.5315  153.4490 H   0  0  0  0  0  0  0  0  0  0  0  0
  145.0025  142.3059  155.7327 H   0  0  0  0  0  0  0  0  0  0  0  0
  145.6455  140.6779  155.8456 H   0  0  0  0  0  0  0  0  0  0  0  0
  148.4319  140.3036  156.2783 H   0  0  0  0  0  0  0  0  0  0  0  0
  150.1333  142.7888  156.5341 H   0  0  0  0  0  0  0  0  0  0  0  0
  151.1092  139.9101  156.3335 H   0  0  0  0  0  0  0  0  0  0  0  0
  152.1022  141.3409  156.5734 H   0  0  0  0  0  0  0  0  0  0  0  0
  151.2262  141.1272  155.0652 H   0  0  0  0  0  0  0  0  0  0  0  0
  149.7748  140.5433  158.5744 H   0  0  0  0  0  0  0  0  0  0  0  0
  149.1333  142.1777  158.7199 H   0  0  0  0  0  0  0  0  0  0  0  0
  150.8653  141.9124  158.7162 H   0  0  0  0  0  0  0  0  0  0  0  0
  149.6101  140.9615  154.1298 H   0  0  0  0  0  0  0  0  0  0  0  0
  148.8185  142.5019  154.1927 H   0  0  0  0  0  0  0  0  0  0  0  0
  146.6240  135.9051  150.8508 H   0  0  0  0  0  0  0  0  0  0  0  0
  1  2  1  0  0  0  0
  1 22  1  0  0  0  0
  1 23  1  0  0  0  0
  1 24  1  0  0  0  0
  2 21  1  0  0  0  0
  2  3  2  0  0  0  0
  3  4  1  0  0  0  0
  3 25  1  0  0  0  0
  4  5  2  0  0  0  0
  4 26  1  0  0  0  0
  5  6  1  0  0  0  0
  5 20  1  0  0  0  0
  6  7  1  0  0  0  0
  6 27  1  0  0  0  0
  6 28  1  0  0  0  0
  7  8  1  0  0  0  0
  7 29  1  0  0  0  0
  7 30  1  0  0  0  0
  8  9  1  0  0  0  0
  8 31  1  0  0  0  0
  9 10  2  0  0  0  0
  9 11  1  0  0  0  0
 11 19  1  0  0  0  0
 11 12  1  0  0  0  0
 12 13  1  0  0  0  0
 12 32  1  0  0  0  0
 12 33  1  0  0  0  0
 13 14  1  0  0  0  0
 13 34  1  0  0  0  0
 13 35  1  0  0  0  0
 14 15  1  0  0  0  0
 15 16  1  0  0  0  0
 15 19  1  0  0  0  0
 15 36  1  0  0  0  0
 16 17  1  0  0  0  0
 16 18  1  0  0  0  0
 16 37  1  0  0  0  0
 17 38  1  0  0  0  0
 17 39  1  0  0  0  0
 17 40  1  0  0  0  0
 18 41  1  0  0  0  0
 18 42  1  0  0  0  0
 18 43  1  0  0  0  0
 19 44  1  0  0  0  0
 19 45  1  0  0  0  0
 20 21  2  0  0  0  0
 20 46  1  0  0  0  0
M  END
> <s_m_source_file>
AV-unprocessed.smi

> <i_m_source_file_index>
772

> <i_lp_mmshare_version>
43012

> <i_f3d_flags>
0

> <s_epik_input>
W0NIM11jMVtjSF1bY0hdYyhbY0hdbjEpW0NIMl1bQ0gyXVtOSF1DKD1PKU4yW0NIMl1bQ0gyXVNbQ0BIXShbQ0gyXTIpW0NIXShbQ0gzXSlbQ0gzXQ==

> <s_epik_cmdline>
J2VwaWtfcHl0aG9uJywgJy1waCcsICc3LjAnLCAnLXRuJywgJzgnLCAnLW1hJywgJzIwMCcsICctbWV0YWxfYmluZGluZycsICctaW1hZScsICc8aW5maWxlLm1hZT4nLCAnLW9tYWUnLCAnPG91dGZpbGUubWFlPic=

> <r_epik_Ionization_Penalty>
0.0566916

> <r_epik_Ionization_Penalty_Charging>
0

> <r_epik_Ionization_Penalty_Neutral>
0.0566916

> <r_epik_State_Penalty>
0.0488669

> <r_epik_Charging_Adjusted_Penalty>
0.0488669

> <i_epik_Tot_Q>
0

> <i_epik_Tot_abs_Q>
0

> <r_epik_Metal_State_Penalty>
0.0445784

> <b_epik_Metal_Only>
0

> <s_lp_Force_Field>
OPLS_2005

> <r_lp_Energy>
25.5588

> <b_lp_Chiralities_Consistent>
1

> <s_lp_Variant>
AV-unprocessed.smi:772-2

> <Gold.Version>
5.8.1

> <Gold.Id.Protein>
6NUR|6NUR_protein|mol2

> <Gold.PLP.Fitness>
43.1821

> <Gold.PLP.PLP>
-38.3155

> <Gold.PLP.part.hbond>
-1.0000

> <Gold.PLP.part.metal>
0.0000

> <Gold.PLP.part.buried>
-5.2343

> <Gold.PLP.part.nonpolar>
-35.0307

> <Gold.PLP.part.repulsive>
1.9103

> <Gold.PLP.ligand.clash>
0.0000

> <Gold.PLP.ligand.torsion>
0.4672

> <Gold.PLP.Chemscore.Hbond>
0.9040

> <Gold.PLP.Chemscore.CHOScore>
1.0000

> <Gold.PLP.Chemscore.Metal>
0.0000

> <Gold.Chemscore.Hbonds>
donor molecule, donor type, donor heavy atom, donor atom, acceptor molecule, acceptor atom, score
      L1  H     8    31       P1 10175  0.87
      L1  C    20    46       P1  7948  1.00

> <Gold.PLP.Chemscore.Internal.Correction>
0.0889

> <Gold.Rescore>
     Score         DG    S(hbond)    S(metal)    S(lipo)     H(rot)  DE(clash)    DE(int)     intcor
     14.92     -15.57       0.94        0.00      88.43       1.32       0.06       0.60       ----

> <Gold.Chemscore.Fitness>
14.9183

> <Gold.Chemscore.DG>
-15.5716

> <Gold.Chemscore.ZeroCoef>
-5.4800

> <Gold.Chemscore.Hbond>
0.9381

> <Gold.Chemscore.Metal>
0.0000

> <Gold.Chemscore.Lipo>
88.4270

> <Gold.Chemscore.Internal_Hbond>
0.0000

> <Gold.Chemscore.DEClash>
0.0568

> <Gold.Chemscore.DEInternal>
0.5965

> <Gold.Chemscore.Rot>
1.3233

> <Gold.Chemscore.Internal.Correction>
   9.000000E+99

> <Gold.Chemscore.Hbonds>
donor molecule, donor type, donor heavy atom, donor atom, acceptor molecule, acceptor atom, score
      L1  H     8    31       P1 10175  0.74

> <Gold.Chemscore.Hbond.Weighted>
-3.1333

> <Gold.Chemscore.Metal.Weighted>
-0.0000

> <Gold.Chemscore.Lipo.Weighted>
-10.3460

> <Gold.Chemscore.Internal_Hbond.Weighted>
0.0000

> <Gold.Chemscore.DEClash.Weighted>
0.0568

> <Gold.Chemscore.DEInternal.Weighted>
0.5965

> <Gold.Chemscore.Rot.Weighted>
3.3876

> <Gold.Chemscore.Internal.Correction.Weighted>
   9.000000E+99

> <Gold.Protein.RotatedTorsions>
[ 6907 6896 6895 6894 ] final  -80.42 input  -60.11 | X-H torsion
[ 7974 7965 7964 7962 ] final   -8.07 input  175.53 | X-H torsion
[ 8008 7997 7996 7995 ] final  -64.34 input   59.86 | X-H torsion
[ 10167 10162 10161 10158 ] final    9.90 input  -65.29 | X-H torsion
[ 10718 10713 10712 10709 ] final -118.11 input   66.30 | X-H torsion
[ 10763 10752 10751 10750 ] final  166.51 input  -60.55 | X-H torsion
[ 11005 11000 10999 10996 ] final  -45.25 input  -57.11 | X-H torsion

> <Gold.Protein.ActiveResidues>
 VAL166  LYS551  ARG553  GLY616  TRP617  ASP618  TYR619  PRO620  LYS621  CYS622 
 ASP623  PHE694  ASN695  SER759  ASP760  ASP761  ALA762  ILE779  LEU786  VAL792 
 PHE793  MET794  SER795  GLU796  ALA797  LYS798  CYS799  TRP800  GLU811  SER814 

> <Gold.Protein.RotatedAtoms>
  150.6930  134.3973  159.5102 H   0  0  0  0  0  0  0  0  0  0  0  0  # atno 6907 bound_to 6896
  152.1752  134.8798  160.0540 H   0  0  0  0  0  0  0  0  0  0  0  0  # atno 6908 bound_to 6896
  151.9809  133.3722  159.4144 H   0  0  0  0  0  0  0  0  0  0  0  0  # atno 6909 bound_to 6896
  146.2290  140.2413  142.8343 H   0  0  0  0  0  0  0  0  0  0  0  0  # atno 7974 bound_to 7965
  154.4606  140.0956  156.6882 H   0  0  0  0  0  0  0  0  0  0  0  0  # atno 8008 bound_to 7997
  155.5006  140.3473  155.4352 H   0  0  0  0  0  0  0  0  0  0  0  0  # atno 8009 bound_to 7997
  156.0863  140.1386  156.9638 H   0  0  0  0  0  0  0  0  0  0  0  0  # atno 8010 bound_to 7997
  140.6227  143.8170  150.7194 H   0  0  0  0  0  0  0  0  0  0  0  0  # atno 10167 bound_to 10162
  156.1082  130.6228  150.9249 H   0  0  0  0  0  0  0  0  0  0  0  0  # atno 10718 bound_to 10713
  154.3401  135.2754  155.2427 H   0  0  0  0  0  0  0  0  0  0  0  0  # atno 10763 bound_to 10752
  154.4701  135.5885  153.6319 H   0  0  0  0  0  0  0  0  0  0  0  0  # atno 10764 bound_to 10752
  152.9858  135.6086  154.3602 H   0  0  0  0  0  0  0  0  0  0  0  0  # atno 10765 bound_to 10752
  141.0503  133.6745  156.2987 H   0  0  0  0  0  0  0  0  0  0  0  0  # atno 11005 bound_to 11000
  144.9482  140.8151  143.5588 LP  0  0  0  0  0  0  0  0  0  0  0  0  # atno 17320 bound_to 7965
  145.2371  139.2089  143.5012 LP  0  0  0  0  0  0  0  0  0  0  0  0  # atno 17321 bound_to 7965
  140.1763  143.4152  152.1965 LP  0  0  0  0  0  0  0  0  0  0  0  0  # atno 17342 bound_to 10162
  139.5452  144.7292  151.4605 LP  0  0  0  0  0  0  0  0  0  0  0  0  # atno 17343 bound_to 10162
  157.6261  131.0925  150.8530 LP  0  0  0  0  0  0  0  0  0  0  0  0  # atno 17370 bound_to 10713
  156.8646  130.5125  149.5301 LP  0  0  0  0  0  0  0  0  0  0  0  0  # atno 17371 bound_to 10713
  140.6067  134.5500  157.5527 LP  0  0  0  0  0  0  0  0  0  0  0  0  # atno 17394 bound_to 11000
  139.9345  134.7901  156.0840 LP  0  0  0  0  0  0  0  0  0  0  0  0  # atno 17395 bound_to 11000

$$$$
