AV-unprocessed.smi:2346|AV-procd|sdf|9367|dock8
  -GOLD-   2272012593D 1   1.00000     0.00000
 Structure written by MMmdl.
 45 47  0  0  0  0  0  0  0  0  2 V2000
  149.0542  131.8420  158.5501 C   0  0  0  0  0  0  0  0  0  0  0  0
  148.1648  132.3273  157.5552 O   0  0  0  0  0  0  0  0  0  0  0  0
  147.5681  133.5559  157.7519 C   0  0  0  0  0  0  0  0  0  0  0  0
  147.7659  134.3482  158.9114 C   0  0  0  0  0  0  0  0  0  0  0  0
  147.1239  135.5946  159.0451 C   0  0  0  0  0  0  0  0  0  0  0  0
  147.3318  136.3978  160.2384 C   0  0  0  0  0  0  0  0  0  0  0  0
  147.4971  137.0375  161.1882 N   0  0  0  0  0  0  0  0  0  0  0  0
  146.2790  136.0600  158.0210 C   0  0  0  0  0  0  0  0  0  0  0  0
  146.0777  135.2820  156.8669 C   0  0  0  0  0  0  0  0  0  0  0  0
  146.7200  134.0263  156.7229 C   0  0  0  0  0  0  0  0  0  0  0  0
  146.5687  133.2123  155.6193 O   0  0  0  0  0  0  0  0  0  0  0  0
  145.7513  133.6645  154.5502 C   0  0  0  0  0  0  0  0  0  0  0  0
  146.6229  134.4794  153.5877 C   0  0  0  0  0  0  0  0  0  0  0  0
  145.8725  134.9010  152.3972 N   0  0  0  0  0  0  0  0  0  0  0  0
  145.5073  136.1480  151.9784 C   0  0  0  0  0  0  0  0  0  0  0  0
  145.8185  137.4499  152.6519 C   0  0  2  0  0  0  0  0  0  0  0  0
  145.1073  137.5760  154.0075 C   0  0  0  0  0  0  0  0  0  0  0  0
  145.4548  138.5503  151.8472 O   0  0  0  0  0  0  0  0  0  0  0  0
  144.8435  135.9937  150.7967 N   0  3  0  0  0  0  0  0  0  0  0  0
  144.7549  134.6395  150.4745 C   0  0  0  0  0  0  0  0  0  0  0  0
  144.1666  133.9980  149.3890 C   0  0  0  0  0  0  0  0  0  0  0  0
  144.2504  132.5904  149.3647 C   0  0  0  0  0  0  0  0  0  0  0  0
  144.8999  131.8759  150.3924 C   0  0  0  0  0  0  0  0  0  0  0  0
  145.4958  132.5382  151.4865 C   0  0  0  0  0  0  0  0  0  0  0  0
  145.4096  133.9302  151.5018 C   0  0  0  0  0  0  0  0  0  0  0  0
  149.4371  130.8683  158.2445 H   0  0  0  0  0  0  0  0  0  0  0  0
  148.5485  131.7110  159.5077 H   0  0  0  0  0  0  0  0  0  0  0  0
  149.9095  132.5064  158.6798 H   0  0  0  0  0  0  0  0  0  0  0  0
  148.4090  134.0148  159.7123 H   0  0  0  0  0  0  0  0  0  0  0  0
  145.7804  137.0144  158.1138 H   0  0  0  0  0  0  0  0  0  0  0  0
  145.4215  135.6732  156.1045 H   0  0  0  0  0  0  0  0  0  0  0  0
  145.3091  132.8165  154.0250 H   0  0  0  0  0  0  0  0  0  0  0  0
  144.9433  134.2906  154.9327 H   0  0  0  0  0  0  0  0  0  0  0  0
  146.9951  135.3765  154.0831 H   0  0  0  0  0  0  0  0  0  0  0  0
  147.5029  133.9152  153.2781 H   0  0  0  0  0  0  0  0  0  0  0  0
  146.8931  137.5088  152.8248 H   0  0  0  0  0  0  0  0  0  0  0  0
  145.3847  136.7571  154.6722 H   0  0  0  0  0  0  0  0  0  0  0  0
  144.0224  137.5642  153.8972 H   0  0  0  0  0  0  0  0  0  0  0  0
  145.3772  138.5077  154.5056 H   0  0  0  0  0  0  0  0  0  0  0  0
  144.8715  138.2462  151.1683 H   0  0  0  0  0  0  0  0  0  0  0  0
  143.6677  134.5435  148.6013 H   0  0  0  0  0  0  0  0  0  0  0  0
  143.8072  132.0482  148.5418 H   0  0  0  0  0  0  0  0  0  0  0  0
  144.9432  130.7976  150.3404 H   0  0  0  0  0  0  0  0  0  0  0  0
  145.9902  131.9804  152.2680 H   0  0  0  0  0  0  0  0  0  0  0  0
  144.4756  136.7651  150.2549 H   0  0  0  0  0  0  0  0  0  0  0  0
  1  2  1  0  0  0  0
  1 26  1  0  0  0  0
  1 27  1  0  0  0  0
  1 28  1  0  0  0  0
  2  3  1  0  0  0  0
  3 10  1  0  0  0  0
  3  4  2  0  0  0  0
  4  5  1  0  0  0  0
  4 29  1  0  0  0  0
  5  6  1  0  0  0  0
  5  8  2  0  0  0  0
  6  7  3  0  0  0  0
  8  9  1  0  0  0  0
  8 30  1  0  0  0  0
  9 10  2  0  0  0  0
  9 31  1  0  0  0  0
 10 11  1  0  0  0  0
 11 12  1  0  0  0  0
 12 13  1  0  0  0  0
 12 32  1  0  0  0  0
 12 33  1  0  0  0  0
 13 14  1  0  0  0  0
 13 34  1  0  0  0  0
 13 35  1  0  0  0  0
 14 25  1  0  0  0  0
 14 15  1  0  0  0  0
 15 16  1  0  0  0  0
 15 19  2  0  0  0  0
 16 17  1  0  0  0  0
 16 18  1  0  0  0  0
 16 36  1  0  0  0  0
 17 37  1  0  0  0  0
 17 38  1  0  0  0  0
 17 39  1  0  0  0  0
 18 40  1  0  0  0  0
 19 20  1  0  0  0  0
 19 45  1  0  0  0  0
 20 25  2  0  0  0  0
 20 21  1  0  0  0  0
 21 22  2  0  0  0  0
 21 41  1  0  0  0  0
 22 23  1  0  0  0  0
 22 42  1  0  0  0  0
 23 24  2  0  0  0  0
 23 43  1  0  0  0  0
 24 25  1  0  0  0  0
 24 44  1  0  0  0  0
M  CHG  1  19   1
M  END
> <s_m_source_file>
AV-unprocessed.smi

> <i_m_source_file_index>
2346

> <i_lp_mmshare_version>
43012

> <i_f3d_flags>
0

> <s_epik_input>
W0NIM11PYzFbY0hdYyhDI04pW2NIXVtjSF1jMU9bQ0gyXVtDSDJdbihjKG4yKVtDQEhdKFtDSDNdKVtPSF0pYyhjMjMpW2NIXVtjSF1bY0hdW2NIXTM=

> <s_epik_cmdline>
J2VwaWtfcHl0aG9uJywgJy1waCcsICc3LjAnLCAnLXRuJywgJzgnLCAnLW1hJywgJzIwMCcsICctbWV0YWxfYmluZGluZycsICctaW1hZScsICc8aW5maWxlLm1hZT4nLCAnLW9tYWUnLCAnPG91dGZpbGUubWFlPic=

> <r_epik_Ionization_Penalty>
1.58928

> <r_epik_Ionization_Penalty_Charging>
1.58925

> <r_epik_Ionization_Penalty_Neutral>
2.92192e-05

> <r_epik_State_Penalty>
1.68649

> <r_epik_Charging_Adjusted_Penalty>
3.27574

> <i_epik_Tot_Q>
1

> <i_epik_Tot_abs_Q>
1

> <r_epik_Metal_State_Penalty>
5.74385

> <b_epik_Metal_Only>
0

> <s_lp_Force_Field>
OPLS_2005

> <r_lp_Energy>
24.6554

> <b_lp_Chiralities_Consistent>
1

> <s_lp_Variant>
AV-unprocessed.smi:2346-3

> <Gold.Version>
5.8.1

> <Gold.Id.Protein>
6NUR|6NUR_protein|mol2

> <Gold.PLP.Fitness>
41.7216

> <Gold.PLP.PLP>
-30.8374

> <Gold.PLP.part.hbond>
-5.0000

> <Gold.PLP.part.metal>
0.0000

> <Gold.PLP.part.buried>
-2.1944

> <Gold.PLP.part.nonpolar>
-23.5239

> <Gold.PLP.part.repulsive>
0.0927

> <Gold.PLP.ligand.clash>
0.0000

> <Gold.PLP.ligand.torsion>
0.3002

> <Gold.PLP.Chemscore.Hbond>
3.7920

> <Gold.PLP.Chemscore.CHOScore>
0.0000

> <Gold.PLP.Chemscore.Metal>
0.0000

> <Gold.Chemscore.Hbonds>
donor molecule, donor type, donor heavy atom, donor atom, acceptor molecule, acceptor atom, score
      L1  H    18    40       P1 10171  0.98
      L1  H    19    45       P1 10171  1.00
      P1  H  6931  6943       L1     7  0.84
      P1  H  6934  6947       L1     7  0.98

> <Gold.PLP.Chemscore.Internal.Correction>
0.1086

> <Gold.Rescore>
     Score         DG    S(hbond)    S(metal)    S(lipo)     H(rot)  DE(clash)    DE(int)     intcor
     17.15     -19.19       3.71        0.00      69.15       2.65       1.74       0.30       ----

> <Gold.Chemscore.Fitness>
17.1497

> <Gold.Chemscore.DG>
-19.1893

> <Gold.Chemscore.ZeroCoef>
-5.4800

> <Gold.Chemscore.Hbond>
3.7110

> <Gold.Chemscore.Metal>
0.0000

> <Gold.Chemscore.Lipo>
69.1475

> <Gold.Chemscore.Internal_Hbond>
0.0000

> <Gold.Chemscore.DEClash>
1.7354

> <Gold.Chemscore.DEInternal>
0.3043

> <Gold.Chemscore.Rot>
2.6467

> <Gold.Chemscore.Internal.Correction>
   9.000000E+99

> <Gold.Chemscore.Hbonds>
donor molecule, donor type, donor heavy atom, donor atom, acceptor molecule, acceptor atom, score
      L1  H    18    40       P1 10171  0.93
      L1  H    19    45       P1 10171  0.98
      P1  H  6931  6943       L1     7  0.77
      P1  H  6934  6947       L1     7  0.79

> <Gold.Chemscore.Hbond.Weighted>
-12.3947

> <Gold.Chemscore.Metal.Weighted>
-0.0000

> <Gold.Chemscore.Lipo.Weighted>
-8.0903

> <Gold.Chemscore.Internal_Hbond.Weighted>
0.0000

> <Gold.Chemscore.DEClash.Weighted>
1.7354

> <Gold.Chemscore.DEInternal.Weighted>
0.3043

> <Gold.Chemscore.Rot.Weighted>
6.7756

> <Gold.Chemscore.Internal.Correction.Weighted>
   9.000000E+99

> <Gold.Protein.RotatedTorsions>
[ 6907 6896 6895 6894 ] final -150.16 input  -60.11 | X-H torsion
[ 7974 7965 7964 7962 ] final   33.81 input  175.53 | X-H torsion
[ 8008 7997 7996 7995 ] final  109.04 input   59.86 | X-H torsion
[ 10167 10162 10161 10158 ] final  -86.04 input  -65.29 | X-H torsion
[ 10718 10713 10712 10709 ] final   26.00 input   66.30 | X-H torsion
[ 10763 10752 10751 10750 ] final -101.82 input  -60.55 | X-H torsion
[ 11005 11000 10999 10996 ] final  134.64 input  -57.11 | X-H torsion

> <Gold.Protein.ActiveResidues>
 VAL166  LYS551  ARG553  GLY616  TRP617  ASP618  TYR619  PRO620  LYS621  CYS622 
 ASP623  PHE694  ASN695  SER759  ASP760  ASP761  ALA762  ILE779  LEU786  VAL792 
 PHE793  MET794  SER795  GLU796  ALA797  LYS798  CYS799  TRP800  GLU811  SER814 

> <Gold.Protein.RotatedAtoms>
  151.1945  133.4647  159.2595 H   0  0  0  0  0  0  0  0  0  0  0  0  # atno 6907 bound_to 6896
  151.1130  135.0037  159.8513 H   0  0  0  0  0  0  0  0  0  0  0  0  # atno 6908 bound_to 6896
  152.5451  134.1863  159.8709 H   0  0  0  0  0  0  0  0  0  0  0  0  # atno 6909 bound_to 6896
  146.1396  139.6350  142.9172 H   0  0  0  0  0  0  0  0  0  0  0  0  # atno 7974 bound_to 7965
  156.1949  140.3065  155.9407 H   0  0  0  0  0  0  0  0  0  0  0  0  # atno 8008 bound_to 7997
  155.3089  140.0450  157.3051 H   0  0  0  0  0  0  0  0  0  0  0  0  # atno 8009 bound_to 7997
  154.5497  140.2287  155.8514 H   0  0  0  0  0  0  0  0  0  0  0  0  # atno 8010 bound_to 7997
  140.3980  143.2675  151.9180 H   0  0  0  0  0  0  0  0  0  0  0  0  # atno 10167 bound_to 10162
  157.2010  130.6890  149.6188 H   0  0  0  0  0  0  0  0  0  0  0  0  # atno 10718 bound_to 10713
  154.7687  135.4883  153.9606 H   0  0  0  0  0  0  0  0  0  0  0  0  # atno 10763 bound_to 10752
  153.1340  135.6759  153.9139 H   0  0  0  0  0  0  0  0  0  0  0  0  # atno 10764 bound_to 10752
  153.8834  135.3129  155.3424 H   0  0  0  0  0  0  0  0  0  0  0  0  # atno 10765 bound_to 10752
  139.9928  134.9509  156.9895 H   0  0  0  0  0  0  0  0  0  0  0  0  # atno 11005 bound_to 11000
  145.5078  141.0436  143.2505 LP  0  0  0  0  0  0  0  0  0  0  0  0  # atno 17320 bound_to 7965
  144.7777  139.6593  143.7167 LP  0  0  0  0  0  0  0  0  0  0  0  0  # atno 17321 bound_to 7965
  139.4786  144.5662  151.8161 LP  0  0  0  0  0  0  0  0  0  0  0  0  # atno 17342 bound_to 10162
  140.4770  144.1504  150.5926 LP  0  0  0  0  0  0  0  0  0  0  0  0  # atno 17343 bound_to 10162
  155.9700  130.4583  150.5993 LP  0  0  0  0  0  0  0  0  0  0  0  0  # atno 17370 bound_to 10713
  157.3767  131.0774  151.1512 LP  0  0  0  0  0  0  0  0  0  0  0  0  # atno 17371 bound_to 10713
  140.4876  134.1226  155.7227 LP  0  0  0  0  0  0  0  0  0  0  0  0  # atno 17394 bound_to 11000
  141.1580  133.8847  157.1926 LP  0  0  0  0  0  0  0  0  0  0  0  0  # atno 17395 bound_to 11000

$$$$
