AV-unprocessed.smi:1817|AV-procd|sdf|7368|dock4
  -GOLD-   22720 9 33D 1   1.00000     0.00000
 Structure written by MMmdl.
 43 44  0  0  0  0  0  0  0  0  2 V2000
  150.2766  140.4907  157.6837 C   0  0  0  0  0  0  0  0  0  0  0  0
  150.0416  141.9584  157.2992 C   0  0  0  0  0  0  0  0  0  0  0  0
  149.0689  142.1121  156.1887 N   0  3  0  0  0  0  0  0  0  0  0  0
  147.7019  141.6894  156.5807 C   0  0  0  0  0  0  0  0  0  0  0  0
  146.7165  141.8939  155.4112 C   0  0  0  0  0  0  0  0  0  0  0  0
  147.1043  141.1097  154.2300 N   0  0  0  0  0  0  0  0  0  0  0  0
  147.0376  139.6390  154.3831 C   0  0  2  0  0  0  0  0  0  0  0  0
  146.8338  138.9643  153.0060 C   0  0  0  0  0  0  0  0  0  0  0  0
  145.9152  139.2004  155.3646 C   0  0  0  0  0  0  0  0  0  0  0  0
  144.6032  139.1595  154.7256 N   0  0  0  0  0  0  0  0  0  0  0  0
  143.6867  138.2023  154.9325 C   0  0  0  0  0  0  0  0  0  0  0  0
  143.8552  137.2629  155.7114 O   0  0  0  0  0  0  0  0  0  0  0  0
  142.5891  138.4050  154.1832 N   0  0  0  0  0  0  0  0  0  0  0  0
  141.4271  137.5939  154.0902 C   0  0  0  0  0  0  0  0  0  0  0  0
  141.3516  136.3440  154.5741 N   0  0  0  0  0  0  0  0  0  0  0  0
  140.1064  135.7730  154.3460 N   0  0  0  0  0  0  0  0  0  0  0  0
  139.2935  136.6130  153.6989 C   0  0  0  0  0  0  0  0  0  0  0  0
  139.9694  138.1844  153.3056 S   0  0  0  0  0  0  0  0  0  0  0  0
  148.4228  141.6228  153.8271 C   0  0  0  0  0  0  0  0  0  0  0  0
  149.4860  141.4353  154.9336 C   0  0  0  0  0  0  0  0  0  0  0  0
  151.0664  140.4138  158.4311 H   0  0  0  0  0  0  0  0  0  0  0  0
  150.5824  139.9002  156.8197 H   0  0  0  0  0  0  0  0  0  0  0  0
  149.3850  140.0317  158.1100 H   0  0  0  0  0  0  0  0  0  0  0  0
  149.7140  142.5345  158.1658 H   0  0  0  0  0  0  0  0  0  0  0  0
  150.9989  142.3810  156.9914 H   0  0  0  0  0  0  0  0  0  0  0  0
  147.7071  140.6518  156.9177 H   0  0  0  0  0  0  0  0  0  0  0  0
  147.3732  142.2882  157.4307 H   0  0  0  0  0  0  0  0  0  0  0  0
  145.6958  141.6760  155.7190 H   0  0  0  0  0  0  0  0  0  0  0  0
  146.6992  142.9501  155.1379 H   0  0  0  0  0  0  0  0  0  0  0  0
  147.9823  139.2815  154.7884 H   0  0  0  0  0  0  0  0  0  0  0  0
  146.6832  137.8891  153.0994 H   0  0  0  0  0  0  0  0  0  0  0  0
  147.6990  139.0802  152.3550 H   0  0  0  0  0  0  0  0  0  0  0  0
  145.9631  139.3710  152.4905 H   0  0  0  0  0  0  0  0  0  0  0  0
  146.0882  138.2059  155.7737 H   0  0  0  0  0  0  0  0  0  0  0  0
  145.8669  139.8830  156.2137 H   0  0  0  0  0  0  0  0  0  0  0  0
  144.3882  139.8994  154.0729 H   0  0  0  0  0  0  0  0  0  0  0  0
  142.5903  139.2271  153.5978 H   0  0  0  0  0  0  0  0  0  0  0  0
  138.2886  136.3048  153.4512 H   0  0  0  0  0  0  0  0  0  0  0  0
  148.7572  141.1685  152.8965 H   0  0  0  0  0  0  0  0  0  0  0  0
  148.3265  142.6856  153.5996 H   0  0  0  0  0  0  0  0  0  0  0  0
  150.4252  141.8625  154.5836 H   0  0  0  0  0  0  0  0  0  0  0  0
  149.6813  140.3791  155.1205 H   0  0  0  0  0  0  0  0  0  0  0  0
  149.0090  143.0992  155.9838 H   0  0  0  0  0  0  0  0  0  0  0  0
  1  2  1  0  0  0  0
  1 21  1  0  0  0  0
  1 22  1  0  0  0  0
  1 23  1  0  0  0  0
  2  3  1  0  0  0  0
  2 24  1  0  0  0  0
  2 25  1  0  0  0  0
  3 20  1  0  0  0  0
  3  4  1  0  0  0  0
  3 43  1  0  0  0  0
  4  5  1  0  0  0  0
  4 26  1  0  0  0  0
  4 27  1  0  0  0  0
  5  6  1  0  0  0  0
  5 28  1  0  0  0  0
  5 29  1  0  0  0  0
  6  7  1  0  0  0  0
  6 19  1  0  0  0  0
  7  8  1  0  0  0  0
  7  9  1  0  0  0  0
  7 30  1  0  0  0  0
  8 31  1  0  0  0  0
  8 32  1  0  0  0  0
  8 33  1  0  0  0  0
  9 10  1  0  0  0  0
  9 34  1  0  0  0  0
  9 35  1  0  0  0  0
 10 11  1  0  0  0  0
 10 36  1  0  0  0  0
 11 12  2  0  0  0  0
 11 13  1  0  0  0  0
 13 14  1  0  0  0  0
 13 37  1  0  0  0  0
 14 18  1  0  0  0  0
 14 15  2  0  0  0  0
 15 16  1  0  0  0  0
 16 17  2  0  0  0  0
 17 18  1  0  0  0  0
 17 38  1  0  0  0  0
 19 20  1  0  0  0  0
 19 39  1  0  0  0  0
 19 40  1  0  0  0  0
 20 41  1  0  0  0  0
 20 42  1  0  0  0  0
M  CHG  1   3   1
M  END
> <s_m_source_file>
AV-unprocessed.smi

> <i_m_source_file_index>
1817

> <i_lp_mmshare_version>
43012

> <i_f3d_flags>
0

> <s_epik_input>
W0NIM11bQ0gyXU4xW0NIMl1bQ0gyXU4oW0NIMl1bQ0gyXTEpW0NASF0oW0NIM10pW0NIMl1bTkhdQyg9TylbTkhdYzJubltjSF1zMg==

> <s_epik_cmdline>
J2VwaWtfcHl0aG9uJywgJy1waCcsICc3LjAnLCAnLXRuJywgJzgnLCAnLW1hJywgJzIwMCcsICctbWV0YWxfYmluZGluZycsICctaW1hZScsICc8aW5maWxlLm1hZT4nLCAnLW9tYWUnLCAnPG91dGZpbGUubWFlPic=

> <r_lp_tautomer_probability>
1

> <r_epik_Ionization_Penalty>
0.0474318

> <r_epik_Ionization_Penalty_Charging>
0.0451959

> <r_epik_Ionization_Penalty_Neutral>
0.00223598

> <r_epik_State_Penalty>
0.165541

> <r_epik_Charging_Adjusted_Penalty>
0.210737

> <i_epik_Tot_Q>
1

> <i_epik_Tot_abs_Q>
1

> <r_epik_Metal_State_Penalty>
0.500395

> <b_epik_Metal_Only>
0

> <s_lp_Force_Field>
OPLS_2005

> <r_lp_Energy>
19.2999

> <b_lp_Chiralities_Consistent>
1

> <s_lp_Variant>
AV-unprocessed.smi:1817-1

> <Gold.Version>
5.8.1

> <Gold.Id.Protein>
6NUR|6NUR_protein|mol2

> <Gold.PLP.Fitness>
41.6366

> <Gold.PLP.PLP>
-28.5282

> <Gold.PLP.part.hbond>
-4.8319

> <Gold.PLP.part.metal>
0.0000

> <Gold.PLP.part.buried>
-3.3625

> <Gold.PLP.part.nonpolar>
-20.1961

> <Gold.PLP.part.repulsive>
0.3779

> <Gold.PLP.ligand.clash>
0.0000

> <Gold.PLP.ligand.torsion>
0.9379

> <Gold.PLP.Chemscore.Hbond>
4.9760

> <Gold.PLP.Chemscore.CHOScore>
0.0000

> <Gold.PLP.Chemscore.Metal>
0.0000

> <Gold.Chemscore.Hbonds>
donor molecule, donor type, donor heavy atom, donor atom, acceptor molecule, acceptor atom, score
      L1  H     3    43       P1  8028  2.00
      L1  H    10    36       P1 10175  1.00
      L1  H    13    37       P1 10175  0.96
      P1  H 11000 11005       L1    16  0.90

> <Gold.PLP.Chemscore.Internal.Correction>
0.0562

> <Gold.Rescore>
     Score         DG    S(hbond)    S(metal)    S(lipo)     H(rot)  DE(clash)    DE(int)     intcor
     16.76     -19.17       3.57        0.00      57.21       1.92       0.10       2.31       ----

> <Gold.Chemscore.Fitness>
16.7614

> <Gold.Chemscore.DG>
-19.1712

> <Gold.Chemscore.ZeroCoef>
-5.4800

> <Gold.Chemscore.Hbond>
3.5662

> <Gold.Chemscore.Metal>
0.0000

> <Gold.Chemscore.Lipo>
57.2141

> <Gold.Chemscore.Internal_Hbond>
0.0000

> <Gold.Chemscore.DEClash>
0.0962

> <Gold.Chemscore.DEInternal>
2.3136

> <Gold.Chemscore.Rot>
1.9196

> <Gold.Chemscore.Internal.Correction>
   9.000000E+99

> <Gold.Chemscore.Hbonds>
donor molecule, donor type, donor heavy atom, donor atom, acceptor molecule, acceptor atom, score
      L1  H     3    43       P1  8028  1.00
      L1  H    10    36       P1 10175  0.95
      L1  H    13    37       P1 10175  0.91
      P1  H 11000 11005       L1    16  0.18

> <Gold.Chemscore.Hbond.Weighted>
-11.9113

> <Gold.Chemscore.Metal.Weighted>
-0.0000

> <Gold.Chemscore.Lipo.Weighted>
-6.6941

> <Gold.Chemscore.Internal_Hbond.Weighted>
0.0000

> <Gold.Chemscore.DEClash.Weighted>
0.0962

> <Gold.Chemscore.DEInternal.Weighted>
2.3136

> <Gold.Chemscore.Rot.Weighted>
4.9141

> <Gold.Chemscore.Internal.Correction.Weighted>
   9.000000E+99

> <Gold.Protein.RotatedTorsions>
[ 6907 6896 6895 6894 ] final  -88.28 input  -60.11 | X-H torsion
[ 7974 7965 7964 7962 ] final  151.22 input  175.53 | X-H torsion
[ 8008 7997 7996 7995 ] final  -18.28 input   59.86 | X-H torsion
[ 10167 10162 10161 10158 ] final   60.17 input  -65.29 | X-H torsion
[ 10718 10713 10712 10709 ] final   13.43 input   66.30 | X-H torsion
[ 10763 10752 10751 10750 ] final  -77.29 input  -60.55 | X-H torsion
[ 11005 11000 10999 10996 ] final   56.84 input  -57.11 | X-H torsion

> <Gold.Protein.ActiveResidues>
 VAL166  LYS551  ARG553  GLY616  TRP617  ASP618  TYR619  PRO620  LYS621  CYS622 
 ASP623  PHE694  ASN695  SER759  ASP760  ASP761  ALA762  ILE779  LEU786  VAL792 
 PHE793  MET794  SER795  GLU796  ALA797  LYS798  CYS799  TRP800  GLU811  SER814 

> <Gold.Protein.RotatedAtoms>
  150.6868  134.2767  159.4609 H   0  0  0  0  0  0  0  0  0  0  0  0  # atno 6907 bound_to 6896
  152.0684  134.9547  160.0584 H   0  0  0  0  0  0  0  0  0  0  0  0  # atno 6908 bound_to 6896
  152.0946  133.4183  159.4596 H   0  0  0  0  0  0  0  0  0  0  0  0  # atno 6909 bound_to 6896
  144.8308  139.6509  143.6059 H   0  0  0  0  0  0  0  0  0  0  0  0  # atno 7974 bound_to 7965
  154.4917  140.2120  155.9534 H   0  0  0  0  0  0  0  0  0  0  0  0  # atno 8008 bound_to 7997
  156.1315  140.3196  155.8324 H   0  0  0  0  0  0  0  0  0  0  0  0  # atno 8009 bound_to 7997
  155.4288  140.0502  157.3011 H   0  0  0  0  0  0  0  0  0  0  0  0  # atno 8010 bound_to 7997
  140.1685  144.4300  150.6673 H   0  0  0  0  0  0  0  0  0  0  0  0  # atno 10167 bound_to 10162
  157.0245  130.6168  149.5726 H   0  0  0  0  0  0  0  0  0  0  0  0  # atno 10718 bound_to 10713
  154.5111  135.5769  153.6605 H   0  0  0  0  0  0  0  0  0  0  0  0  # atno 10763 bound_to 10752
  152.9897  135.6159  154.2878 H   0  0  0  0  0  0  0  0  0  0  0  0  # atno 10764 bound_to 10752
  154.2793  135.2851  155.2684 H   0  0  0  0  0  0  0  0  0  0  0  0  # atno 10765 bound_to 10752
  140.0498  134.5753  155.9277 H   0  0  0  0  0  0  0  0  0  0  0  0  # atno 11005 bound_to 11000
  146.2611  139.6413  142.9361 LP  0  0  0  0  0  0  0  0  0  0  0  0  # atno 17320 bound_to 7965
  145.4900  141.0438  143.2598 LP  0  0  0  0  0  0  0  0  0  0  0  0  # atno 17321 bound_to 7965
  140.6597  143.2248  151.5884 LP  0  0  0  0  0  0  0  0  0  0  0  0  # atno 17342 bound_to 10162
  139.5349  144.2811  152.1228 LP  0  0  0  0  0  0  0  0  0  0  0  0  # atno 17343 bound_to 10162
  156.0091  130.5180  150.7928 LP  0  0  0  0  0  0  0  0  0  0  0  0  # atno 17370 bound_to 10713
  157.5225  131.0932  151.0061 LP  0  0  0  0  0  0  0  0  0  0  0  0  # atno 17371 bound_to 10713
  141.1925  133.6575  156.5503 LP  0  0  0  0  0  0  0  0  0  0  0  0  # atno 17394 bound_to 11000
  140.3935  134.7419  157.4736 LP  0  0  0  0  0  0  0  0  0  0  0  0  # atno 17395 bound_to 11000

$$$$
