AV-unprocessed.smi:1587|AV-procd|sdf|6388|dock7
  -GOLD-   22720 7 23D 1   1.00000     0.00000
 Structure written by MMmdl.
 37 38  0  0  0  0  0  0  0  0  2 V2000
  150.5309  140.6514  156.0560 O   0  0  0  0  0  0  0  0  0  0  0  0
  150.0293  141.7666  155.9100 C   0  0  0  0  0  0  0  0  0  0  0  0
  149.0951  142.0360  154.9864 N   0  0  0  0  0  0  0  0  0  0  0  0
  148.5504  141.0612  154.0481 C   0  0  0  0  0  0  0  0  0  0  0  0
  147.0348  141.2550  153.8486 C   0  0  0  0  0  0  0  0  0  0  0  0
  146.3570  140.0085  153.4137 N   0  3  0  0  0  0  0  0  0  0  0  0
  146.9797  139.4216  152.2029 C   0  0  0  0  0  0  0  0  0  0  0  0
  146.2193  138.1596  151.7623 C   0  0  0  0  0  0  0  0  0  0  0  0
  146.1921  137.2224  152.8310 O   0  0  0  0  0  0  0  0  0  0  0  0
  145.5182  137.7374  153.9723 C   0  0  0  0  0  0  0  0  0  0  0  0
  146.2513  138.9880  154.4867 C   0  0  0  0  0  0  0  0  0  0  0  0
  150.3334  142.8591  156.6328 N   0  0  0  0  0  0  0  0  0  0  0  0
  151.2758  142.9771  157.6892 C   0  0  0  0  0  0  0  0  0  0  0  0
  151.5649  144.3014  158.0894 C   0  0  0  0  0  0  0  0  0  0  0  0
  152.4891  144.5252  159.1283 C   0  0  0  0  0  0  0  0  0  0  0  0
  153.1010  143.4173  159.7412 C   0  0  0  0  0  0  0  0  0  0  0  0
  152.7572  142.1322  159.2830 C   0  0  0  0  0  0  0  0  0  0  0  0
  151.8721  141.9155  158.2874 N   0  0  0  0  0  0  0  0  0  0  0  0
  148.7327  142.9769  154.9324 H   0  0  0  0  0  0  0  0  0  0  0  0
  149.0913  141.1351  153.1042 H   0  0  0  0  0  0  0  0  0  0  0  0
  148.7487  140.0640  154.4419 H   0  0  0  0  0  0  0  0  0  0  0  0
  146.6083  141.5811  154.7984 H   0  0  0  0  0  0  0  0  0  0  0  0
  146.8285  142.0505  153.1308 H   0  0  0  0  0  0  0  0  0  0  0  0
  146.9761  140.1513  151.3921 H   0  0  0  0  0  0  0  0  0  0  0  0
  148.0228  139.1762  152.4094 H   0  0  0  0  0  0  0  0  0  0  0  0
  145.2027  138.4050  151.4505 H   0  0  0  0  0  0  0  0  0  0  0  0
  146.7140  137.7033  150.9048 H   0  0  0  0  0  0  0  0  0  0  0  0
  144.4805  137.9674  153.7247 H   0  0  0  0  0  0  0  0  0  0  0  0
  145.4980  136.9696  154.7460 H   0  0  0  0  0  0  0  0  0  0  0  0
  147.2496  138.7157  154.8328 H   0  0  0  0  0  0  0  0  0  0  0  0
  145.7147  139.3893  155.3457 H   0  0  0  0  0  0  0  0  0  0  0  0
  149.8351  143.7056  156.4010 H   0  0  0  0  0  0  0  0  0  0  0  0
  151.0857  145.1416  157.6083 H   0  0  0  0  0  0  0  0  0  0  0  0
  152.7237  145.5296  159.4485 H   0  0  0  0  0  0  0  0  0  0  0  0
  153.8146  143.5486  160.5411 H   0  0  0  0  0  0  0  0  0  0  0  0
  153.2045  141.2550  159.7267 H   0  0  0  0  0  0  0  0  0  0  0  0
  145.4156  140.2651  153.1524 H   0  0  0  0  0  0  0  0  0  0  0  0
  1  2  2  0  0  0  0
  2  3  1  0  0  0  0
  2 12  1  0  0  0  0
  3  4  1  0  0  0  0
  3 19  1  0  0  0  0
  4  5  1  0  0  0  0
  4 20  1  0  0  0  0
  4 21  1  0  0  0  0
  5  6  1  0  0  0  0
  5 22  1  0  0  0  0
  5 23  1  0  0  0  0
  6 11  1  0  0  0  0
  6  7  1  0  0  0  0
  6 37  1  0  0  0  0
  7  8  1  0  0  0  0
  7 24  1  0  0  0  0
  7 25  1  0  0  0  0
  8  9  1  0  0  0  0
  8 26  1  0  0  0  0
  8 27  1  0  0  0  0
  9 10  1  0  0  0  0
 10 11  1  0  0  0  0
 10 28  1  0  0  0  0
 10 29  1  0  0  0  0
 11 30  1  0  0  0  0
 11 31  1  0  0  0  0
 12 13  1  0  0  0  0
 12 32  1  0  0  0  0
 13 18  1  0  0  0  0
 13 14  2  0  0  0  0
 14 15  1  0  0  0  0
 14 33  1  0  0  0  0
 15 16  2  0  0  0  0
 15 34  1  0  0  0  0
 16 17  1  0  0  0  0
 16 35  1  0  0  0  0
 17 18  2  0  0  0  0
 17 36  1  0  0  0  0
M  CHG  1   6   1
M  END
> <s_m_source_file>
AV-unprocessed.smi

> <i_m_source_file_index>
1587

> <i_lp_mmshare_version>
43012

> <i_f3d_flags>
0

> <s_epik_input>
bjFbY0hdW2NIXVtjSF1bY0hdYzFbTkhdQyg9TylbTkhdW0NIMl1bQ0gyXU4yW0NIMl1bQ0gyXU9bQ0gyXVtDSDJdMg==

> <s_epik_cmdline>
J2VwaWtfcHl0aG9uJywgJy1waCcsICc3LjAnLCAnLXRuJywgJzgnLCAnLW1hJywgJzIwMCcsICctbWV0YWxfYmluZGluZycsICctaW1hZScsICc8aW5maWxlLm1hZT4nLCAnLW9tYWUnLCAnPG91dGZpbGUubWFlPic=

> <r_epik_Ionization_Penalty>
0.602565

> <r_epik_Ionization_Penalty_Charging>
0.602531

> <r_epik_Ionization_Penalty_Neutral>
3.41998e-05

> <r_epik_State_Penalty>
0.617039

> <r_epik_Charging_Adjusted_Penalty>
1.21957

> <i_epik_Tot_Q>
1

> <i_epik_Tot_abs_Q>
1

> <r_epik_Metal_State_Penalty>
0.617041

> <b_epik_Metal_Only>
0

> <s_lp_Force_Field>
OPLS_2005

> <r_lp_Energy>
15.9912

> <b_lp_Chiralities_Consistent>
1

> <s_lp_Variant>
AV-unprocessed.smi:1587-2

> <Gold.Version>
5.8.1

> <Gold.Id.Protein>
6NUR|6NUR_protein|mol2

> <Gold.PLP.Fitness>
48.6955

> <Gold.PLP.PLP>
-37.6561

> <Gold.PLP.part.hbond>
-3.0000

> <Gold.PLP.part.metal>
0.0000

> <Gold.PLP.part.buried>
-2.0772

> <Gold.PLP.part.nonpolar>
-33.8336

> <Gold.PLP.part.repulsive>
0.4972

> <Gold.PLP.ligand.clash>
0.0000

> <Gold.PLP.ligand.torsion>
0.3568

> <Gold.PLP.Chemscore.Hbond>
3.9120

> <Gold.PLP.Chemscore.CHOScore>
0.0000

> <Gold.PLP.Chemscore.Metal>
0.0000

> <Gold.Chemscore.Hbonds>
donor molecule, donor type, donor heavy atom, donor atom, acceptor molecule, acceptor atom, score
      L1  H     3    19       P1  8028  0.91
      L1  H     6    37       P1 10175  2.00
      L1  H    12    32       P1  8028  1.00

> <Gold.PLP.Chemscore.Internal.Correction>
0.0171

> <Gold.Rescore>
     Score         DG    S(hbond)    S(metal)    S(lipo)     H(rot)  DE(clash)    DE(int)     intcor
     19.28     -21.14       2.93        0.00      85.25       1.60       0.18       1.68       ----

> <Gold.Chemscore.Fitness>
19.2823

> <Gold.Chemscore.DG>
-21.1407

> <Gold.Chemscore.ZeroCoef>
-5.4800

> <Gold.Chemscore.Hbond>
2.9273

> <Gold.Chemscore.Metal>
0.0000

> <Gold.Chemscore.Lipo>
85.2530

> <Gold.Chemscore.Internal_Hbond>
0.0000

> <Gold.Chemscore.DEClash>
0.1814

> <Gold.Chemscore.DEInternal>
1.6770

> <Gold.Chemscore.Rot>
1.5981

> <Gold.Chemscore.Internal.Correction>
   9.000000E+99

> <Gold.Chemscore.Hbonds>
donor molecule, donor type, donor heavy atom, donor atom, acceptor molecule, acceptor atom, score
      L1  H     3    19       P1  8028  0.88
      L1  H     6    37       P1 10175  0.99
      L1  H    12    32       P1  8028  0.97

> <Gold.Chemscore.Hbond.Weighted>
-9.7771

> <Gold.Chemscore.Metal.Weighted>
-0.0000

> <Gold.Chemscore.Lipo.Weighted>
-9.9746

> <Gold.Chemscore.Internal_Hbond.Weighted>
0.0000

> <Gold.Chemscore.DEClash.Weighted>
0.1814

> <Gold.Chemscore.DEInternal.Weighted>
1.6770

> <Gold.Chemscore.Rot.Weighted>
4.0911

> <Gold.Chemscore.Internal.Correction.Weighted>
   9.000000E+99

> <Gold.Protein.RotatedTorsions>
[ 6907 6896 6895 6894 ] final  -44.85 input  -60.11 | X-H torsion
[ 7974 7965 7964 7962 ] final -129.55 input  175.53 | X-H torsion
[ 8008 7997 7996 7995 ] final  112.16 input   59.86 | X-H torsion
[ 10167 10162 10161 10158 ] final  137.39 input  -65.29 | X-H torsion
[ 10718 10713 10712 10709 ] final  165.63 input   66.30 | X-H torsion
[ 10763 10752 10751 10750 ] final   44.16 input  -60.55 | X-H torsion
[ 11005 11000 10999 10996 ] final  151.08 input  -57.11 | X-H torsion

> <Gold.Protein.ActiveResidues>
 VAL166  LYS551  ARG553  GLY616  TRP617  ASP618  TYR619  PRO620  LYS621  CYS622 
 ASP623  PHE694  ASN695  SER759  ASP760  ASP761  ALA762  ILE779  LEU786  VAL792 
 PHE793  MET794  SER795  GLU796  ALA797  LYS798  CYS799  TRP800  GLU811  SER814 

> <Gold.Protein.RotatedAtoms>
  150.9283  134.8699  159.7534 H   0  0  0  0  0  0  0  0  0  0  0  0  # atno 6907 bound_to 6896
  152.5026  134.4116  159.9460 H   0  0  0  0  0  0  0  0  0  0  0  0  # atno 6908 bound_to 6896
  151.4145  133.3677  159.2783 H   0  0  0  0  0  0  0  0  0  0  0  0  # atno 6909 bound_to 6896
  144.9561  140.7397  143.4758 H   0  0  0  0  0  0  0  0  0  0  0  0  # atno 7974 bound_to 7965
  156.2173  140.3005  155.9870 H   0  0  0  0  0  0  0  0  0  0  0  0  # atno 8008 bound_to 7997
  155.2572  140.0428  157.3010 H   0  0  0  0  0  0  0  0  0  0  0  0  # atno 8009 bound_to 7997
  154.5787  140.2369  155.8093 H   0  0  0  0  0  0  0  0  0  0  0  0  # atno 8010 bound_to 7997
  139.5146  144.6413  151.5562 H   0  0  0  0  0  0  0  0  0  0  0  0  # atno 10167 bound_to 10162
  157.0773  131.0382  151.2588 H   0  0  0  0  0  0  0  0  0  0  0  0  # atno 10718 bound_to 10713
  152.9846  135.6079  154.3229 H   0  0  0  0  0  0  0  0  0  0  0  0  # atno 10763 bound_to 10752
  154.2937  135.2774  155.2644 H   0  0  0  0  0  0  0  0  0  0  0  0  # atno 10764 bound_to 10752
  154.4928  135.5887  153.6528 H   0  0  0  0  0  0  0  0  0  0  0  0  # atno 10765 bound_to 10752
  140.1187  134.8878  157.2041 H   0  0  0  0  0  0  0  0  0  0  0  0  # atno 11005 bound_to 11000
  145.2770  139.1933  143.4811 LP  0  0  0  0  0  0  0  0  0  0  0  0  # atno 17320 bound_to 7965
  146.3337  140.2726  142.8606 LP  0  0  0  0  0  0  0  0  0  0  0  0  # atno 17321 bound_to 7965
  140.6180  143.9312  150.6504 LP  0  0  0  0  0  0  0  0  0  0  0  0  # atno 17342 bound_to 10162
  140.2576  143.3547  152.1351 LP  0  0  0  0  0  0  0  0  0  0  0  0  # atno 17343 bound_to 10162
  157.4829  130.7775  149.7431 LP  0  0  0  0  0  0  0  0  0  0  0  0  # atno 17370 bound_to 10713
  155.9933  130.3925  150.2905 LP  0  0  0  0  0  0  0  0  0  0  0  0  # atno 17371 bound_to 10713
  140.2994  134.3149  155.7294 LP  0  0  0  0  0  0  0  0  0  0  0  0  # atno 17394 bound_to 11000
  141.2147  133.7582  156.9618 LP  0  0  0  0  0  0  0  0  0  0  0  0  # atno 17395 bound_to 11000

$$$$
