#       Name:                AV-unprocessed.smi:1458
#       Creating user name   scv26
#       Creation time:       Fri Mar 27 06:00:45 2020


#       File generated by GOLD software.
#

@<TRIPOS>MOLECULE
AV-unprocessed.smi:1458
    54    55     1
SMALL
NO_CHARGES


@<TRIPOS>ATOM
      1 ****        -5.7493   6.2262  -1.1461 C.3            1 S1                 0.0000
      2 ****        -5.3784   4.8686  -0.9809 O.3            1 S1                 0.0000
      3 ****        -5.2586   4.1839  -2.2172 C.3            1 S1                 0.0000
      4 ****        -4.8762   2.7222  -1.9581 C.3            1 S1                 0.0000
      5 ****        -3.5387   2.6283  -1.3881 N.am           1 S1                 0.0000
      6 ****        -2.8768   1.4792  -1.2011 C.2            1 S1                 0.0000
      7 ****        -3.3394   0.3764  -1.4923 O.2            1 S1                 0.0000
      8 ****        -1.6728   1.6945  -0.6437 N.am           1 S1                 0.0000
      9 ****        -0.6685   0.7414  -0.3229 C.ar           1 S1                 0.0000
     10 ****         0.2996   1.0926   0.6375 C.ar           1 S1                 0.0000
     11 ****         1.3162   0.1732   0.9588 C.ar           1 S1                 0.0000
     12 ****         1.3463  -1.0792   0.3017 C.ar           1 S1                 0.0000
     13 ****         2.3555  -2.0162   0.6102 N.3            1 S1                 0.0000
     14 ****         2.4801  -2.3641   2.0216 C.3            1 S1                 0.0000
     15 ****         3.8149  -3.0862   2.2798 C.3            1 S1                 0.0000
     16 ****         3.9222  -3.5889   3.7233 C.3            1 S1                 0.0000
     17 ****         3.9275  -4.2131   1.4113 O.3            1 S1                 0.0000
     18 ****         3.8403  -3.9063   0.0178 C.3            1 S1                 0.0000
     19 ****         5.0914  -3.1708  -0.4955 C.3            1 S1                 0.0000
     20 ****         2.5245  -3.1617  -0.2811 C.3            1 S1                 0.0000
     21 ****         0.4270  -1.4083  -0.6385 N.ar           1 S1                 0.0000
     22 ****        -0.5486  -0.5258  -0.9410 C.ar           1 S1                 0.0000
     23 ****        -5.8246   6.7068  -0.1709 H              1 S1                 0.0000
     24 ****        -6.7180   6.3133  -1.6397 H              1 S1                 0.0000
     25 ****        -5.0075   6.7696  -1.7327 H              1 S1                 0.0000
     26 ****        -6.2101   4.2216  -2.7494 H              1 S1                 0.0000
     27 ****        -4.5117   4.6654  -2.8506 H              1 S1                 0.0000
     28 ****        -5.5974   2.2546  -1.2862 H              1 S1                 0.0000
     29 ****        -4.9063   2.1681  -2.8977 H              1 S1                 0.0000
     30 ****        -3.0960   3.4929  -1.1131 H              1 S1                 0.0000
     31 ****        -1.4699   2.6464  -0.3756 H              1 S1                 0.0000
     32 ****         0.2665   2.0554   1.1264 H              1 S1                 0.0000
     33 ****         2.0649   0.4418   1.6892 H              1 S1                 0.0000
     34 ****         2.4203  -1.4835   2.6598 H              1 S1                 0.0000
     35 ****         1.6443  -3.0093   2.2956 H              1 S1                 0.0000
     36 ****         4.6427  -2.3996   2.1007 H              1 S1                 0.0000
     37 ****         3.8613  -2.7630   4.4324 H              1 S1                 0.0000
     38 ****         4.8713  -4.0991   3.8886 H              1 S1                 0.0000
     39 ****         3.1215  -4.2910   3.9569 H              1 S1                 0.0000
     40 ****         3.8038  -4.8639  -0.5021 H              1 S1                 0.0000
     41 ****         5.0592  -3.0664  -1.5803 H              1 S1                 0.0000
     42 ****         5.9972  -3.7229  -0.2445 H              1 S1                 0.0000
     43 ****         5.1833  -2.1683  -0.0784 H              1 S1                 0.0000
     44 ****         1.6811  -3.8399  -0.1431 H              1 S1                 0.0000
     45 ****         2.5125  -2.8419  -1.3239 H              1 S1                 0.0000
     46 ****        -1.2254  -0.8508  -1.7156 H              1 S1                 0.0000
     47 ****        -6.0742   4.4111  -0.4271 LP             1 S1                 0.0000
     48 ****        -4.4984   4.8319  -0.5074 LP             1 S1                 0.0000
     49 ****        -4.2542   0.3071  -1.8903 LP             1 S1                 0.0000
     50 ****        -2.8005  -0.4504  -1.3309 LP             1 S1                 0.0000
     51 ****         3.1563  -1.4578   0.3939 LP             1 S1                 0.0000
     52 ****         3.1929  -4.8535   1.6355 LP             1 S1                 0.0000
     53 ****         4.8119  -4.6484   1.5793 LP             1 S1                 0.0000
     54 ****         0.4709  -2.2934  -1.1020 LP             1 S1                 0.0000
@<TRIPOS>BOND
    1    1    2 1     
    2    1   23 1     
    3    1   24 1     
    4    1   25 1     
    5    2    3 1     
    6    3    4 1     
    7    3   26 1     
    8    3   27 1     
    9    4    5 1     
   10    4   28 1     
   11    4   29 1     
   12    5    6 am    
   13    5   30 1     
   14    6    7 2     
   15    6    8 am    
   16    8    9 1     
   17    8   31 1     
   18    9   22 ar    
   19    9   10 ar    
   20   10   11 ar    
   21   10   32 1     
   22   11   12 ar    
   23   11   33 1     
   24   12   13 1     
   25   12   21 ar    
   26   13   20 1     
   27   13   14 1     
   28   14   15 1     
   29   14   34 1     
   30   14   35 1     
   31   15   16 1     
   32   15   17 1     
   33   15   36 1     
   34   16   37 1     
   35   16   38 1     
   36   16   39 1     
   37   17   18 1     
   38   18   19 1     
   39   18   20 1     
   40   18   40 1     
   41   19   41 1     
   42   19   42 1     
   43   19   43 1     
   44   20   44 1     
   45   20   45 1     
   46   21   22 ar    
   47   22   46 1     
   48    2   47 1     
   49    2   48 1     
   50    7   49 1     
   51    7   50 1     
   52   13   51 1     
   53   17   52 1     
   54   17   53 1     
   55   21   54 1     
@<TRIPOS>SUBSTRUCTURE
      1 S1             1
@<TRIPOS>SET
LONE_PAIRS      STATIC     ATOMS    <user>   **** ""
8 47 48 49 50 51 52 53 54
DONOR_HYDROGENS      STATIC     ATOMS    <user>   **** ""
2 30 31
ATOM$BLUE        STATIC     ATOMS    COLORGROUP SYSTEM
8 47 48 49 50 51 52 53 54
ATOM$RED        STATIC     ATOMS    COLORGROUP SYSTEM
2 30 31
