AV-unprocessed.smi:2926|AV-procd|sdf|11227|dock8
  -GOLD-   2272016123D 1   1.00000     0.00000
 Structure written by MMmdl.
 32 32  0  0  0  0  0  0  0  0  1 V2000
  147.6157  139.9415  155.8094 C   0  0  0  0  0  0  0  0  0  0  0  0
  148.4712  140.4054  154.6177 C   0  0  0  0  0  0  0  0  0  0  0  0
  148.0006  141.7794  154.1039 C   0  0  0  0  0  0  0  0  0  0  0  0
  148.5577  139.3159  153.5150 C   0  0  2  0  0  0  0  0  0  0  0  0
  147.1961  138.9216  152.9024 C   0  0  0  0  0  0  0  0  0  0  0  0
  147.3373  138.5653  151.5437 O   0  0  0  0  0  0  0  0  0  0  0  0
  149.2295  138.1227  154.0464 N   0  0  0  0  0  0  0  0  0  0  0  0
  150.7569  138.2816  154.8368 S   0  0  0  0  0  0  0  0  0  0  0  0
  151.6231  137.1963  154.3513 O   0  0  0  0  0  0  0  0  0  0  0  0
  151.1907  139.6821  154.7128 O   0  0  0  0  0  0  0  0  0  0  0  0
  150.3239  137.9601  156.5981 C   0  0  0  0  0  0  0  0  0  0  0  0
  151.3533  138.5919  157.4906 C   0  0  0  0  0  0  0  0  0  0  0  0
  151.4426  138.5424  158.9095 C   0  0  0  0  0  0  0  0  0  0  0  0
  152.5588  139.2786  159.1841 C   0  0  0  0  0  0  0  0  0  0  0  0
  153.1119  139.7487  158.0376 O   0  0  0  0  0  0  0  0  0  0  0  0
  152.3339  139.3065  156.9616 N   0  0  0  0  0  0  0  0  0  0  0  0
  149.1762  139.7165  152.7107 H   0  0  0  0  0  0  0  0  0  0  0  0
  146.5720  139.8033  155.5256 H   0  0  0  0  0  0  0  0  0  0  0  0
  147.6427  140.6716  156.6188 H   0  0  0  0  0  0  0  0  0  0  0  0
  147.9793  138.9954  156.2112 H   0  0  0  0  0  0  0  0  0  0  0  0
  149.4777  140.5478  155.0126 H   0  0  0  0  0  0  0  0  0  0  0  0
  146.9931  141.7328  153.6900 H   0  0  0  0  0  0  0  0  0  0  0  0
  148.6627  142.1707  153.3322 H   0  0  0  0  0  0  0  0  0  0  0  0
  147.9872  142.5110  154.9122 H   0  0  0  0  0  0  0  0  0  0  0  0
  146.7760  138.0605  153.4223 H   0  0  0  0  0  0  0  0  0  0  0  0
  146.4673  139.7269  152.9917 H   0  0  0  0  0  0  0  0  0  0  0  0
  148.2201  138.7651  151.2714 H   0  0  0  0  0  0  0  0  0  0  0  0
  149.2527  137.3774  153.3508 H   0  0  0  0  0  0  0  0  0  0  0  0
  149.3279  138.3623  156.7866 H   0  0  0  0  0  0  0  0  0  0  0  0
  150.2830  136.8822  156.7523 H   0  0  0  0  0  0  0  0  0  0  0  0
  150.7936  138.0419  159.6127 H   0  0  0  0  0  0  0  0  0  0  0  0
  153.0639  139.5473  160.1001 H   0  0  0  0  0  0  0  0  0  0  0  0
  1  2  1  0  0  0  0
  1 18  1  0  0  0  0
  1 19  1  0  0  0  0
  1 20  1  0  0  0  0
  2  3  1  0  0  0  0
  2  4  1  0  0  0  0
  2 21  1  0  0  0  0
  3 22  1  0  0  0  0
  3 23  1  0  0  0  0
  3 24  1  0  0  0  0
  4 17  1  0  0  0  0
  4  5  1  0  0  0  0
  4  7  1  0  0  0  0
  5  6  1  0  0  0  0
  5 25  1  0  0  0  0
  5 26  1  0  0  0  0
  6 27  1  0  0  0  0
  7  8  1  0  0  0  0
  7 28  1  0  0  0  0
  8  9  2  0  0  0  0
  8 10  2  0  0  0  0
  8 11  1  0  0  0  0
 11 12  1  0  0  0  0
 11 29  1  0  0  0  0
 11 30  1  0  0  0  0
 12 16  2  0  0  0  0
 12 13  1  0  0  0  0
 13 14  2  0  0  0  0
 13 31  1  0  0  0  0
 14 15  1  0  0  0  0
 14 32  1  0  0  0  0
 15 16  1  0  0  0  0
M  END
> <s_m_source_file>
AV-unprocessed.smi

> <i_m_source_file_index>
2926

> <i_lp_mmshare_version>
43012

> <i_f3d_flags>
0

> <s_epik_input>
W0NIM11bQ0hdKFtDSDNdKVtDQEBIXShbQ0gyXVtPSF0pW05IXVMoPU8pKD1PKVtDSDJdYzFbY0hdW2NIXW9uMQ==

> <s_epik_cmdline>
J2VwaWtfcHl0aG9uJywgJy1waCcsICc3LjAnLCAnLXRuJywgJzgnLCAnLW1hJywgJzIwMCcsICctbWV0YWxfYmluZGluZycsICctaW1hZScsICc8aW5maWxlLm1hZT4nLCAnLW9tYWUnLCAnPG91dGZpbGUubWFlPic=

> <r_lp_tautomer_probability>
1

> <r_epik_Ionization_Penalty>
0.000193122

> <r_epik_Ionization_Penalty_Charging>
0

> <r_epik_Ionization_Penalty_Neutral>
0.000193122

> <r_epik_State_Penalty>
-0

> <r_epik_Charging_Adjusted_Penalty>
0

> <i_epik_Tot_Q>
0

> <i_epik_Tot_abs_Q>
0

> <r_epik_Metal_State_Penalty>
0.130256

> <b_epik_Metal_Only>
0

> <s_lp_Force_Field>
OPLS_2005

> <r_lp_Energy>
0.568984

> <b_lp_Chiralities_Consistent>
1

> <s_lp_Variant>
AV-unprocessed.smi:2926-2

> <Gold.Version>
5.8.1

> <Gold.Id.Protein>
6NUR|6NUR_protein|mol2

> <Gold.PLP.Fitness>
36.7071

> <Gold.PLP.PLP>
-23.7724

> <Gold.PLP.part.hbond>
-7.4252

> <Gold.PLP.part.metal>
0.0000

> <Gold.PLP.part.buried>
-1.4786

> <Gold.PLP.part.nonpolar>
-15.2543

> <Gold.PLP.part.repulsive>
0.2500

> <Gold.PLP.ligand.clash>
0.0000

> <Gold.PLP.ligand.torsion>
1.0939

> <Gold.PLP.Chemscore.Hbond>
4.9680

> <Gold.PLP.Chemscore.CHOScore>
0.0000

> <Gold.PLP.Chemscore.Metal>
0.0000

> <Gold.Chemscore.Hbonds>
donor molecule, donor type, donor heavy atom, donor atom, acceptor molecule, acceptor atom, score
      L1  H     6    27       P1  7957  0.98
      L1  H     7    28       P1  7948  1.00
      P1  H  7989  7998       L1    10  1.00
      P1  H  7997  8010       L1    15  0.99
      P1  H 10752 10765       L1     9  0.99

> <Gold.PLP.Chemscore.Internal.Correction>
0.2185

> <Gold.Rescore>
     Score         DG    S(hbond)    S(metal)    S(lipo)     H(rot)  DE(clash)    DE(int)     intcor
     11.08     -17.12       4.24        0.00      43.22       2.96       1.64       4.40       ----

> <Gold.Chemscore.Fitness>
11.0818

> <Gold.Chemscore.DG>
-17.1202

> <Gold.Chemscore.ZeroCoef>
-5.4800

> <Gold.Chemscore.Hbond>
4.2373

> <Gold.Chemscore.Metal>
0.0000

> <Gold.Chemscore.Lipo>
43.2158

> <Gold.Chemscore.Internal_Hbond>
0.0000

> <Gold.Chemscore.DEClash>
1.6382

> <Gold.Chemscore.DEInternal>
4.4003

> <Gold.Chemscore.Rot>
2.9564

> <Gold.Chemscore.Internal.Correction>
   9.000000E+99

> <Gold.Chemscore.Hbonds>
donor molecule, donor type, donor heavy atom, donor atom, acceptor molecule, acceptor atom, score
      L1  H     6    27       P1  7957  0.24
      L1  H     7    28       P1  7948  0.99
      P1  H  7989  7998       L1    10  1.00
      P1  H  7997  8010       L1    15  0.24
      P1  H 10752 10765       L1     9  0.91

> <Gold.Chemscore.Hbond.Weighted>
-14.1525

> <Gold.Chemscore.Metal.Weighted>
-0.0000

> <Gold.Chemscore.Lipo.Weighted>
-5.0562

> <Gold.Chemscore.Internal_Hbond.Weighted>
0.0000

> <Gold.Chemscore.DEClash.Weighted>
1.6382

> <Gold.Chemscore.DEInternal.Weighted>
4.4003

> <Gold.Chemscore.Rot.Weighted>
7.5685

> <Gold.Chemscore.Internal.Correction.Weighted>
   9.000000E+99

> <Gold.Protein.RotatedTorsions>
[ 6907 6896 6895 6894 ] final   31.07 input  -60.11 | X-H torsion
[ 7974 7965 7964 7962 ] final  -66.93 input  175.53 | X-H torsion
[ 8008 7997 7996 7995 ] final   21.83 input   59.86 | X-H torsion
[ 10167 10162 10161 10158 ] final  -72.19 input  -65.29 | X-H torsion
[ 10718 10713 10712 10709 ] final  -91.84 input   66.30 | X-H torsion
[ 10763 10752 10751 10750 ] final  152.58 input  -60.55 | X-H torsion
[ 11005 11000 10999 10996 ] final  -75.77 input  -57.11 | X-H torsion

> <Gold.Protein.ActiveResidues>
 VAL166  LYS551  ARG553  GLY616  TRP617  ASP618  TYR619  PRO620  LYS621  CYS622 
 ASP623  PHE694  ASN695  SER759  ASP760  ASP761  ALA762  ILE779  LEU786  VAL792 
 PHE793  MET794  SER795  GLU796  ALA797  LYS798  CYS799  TRP800  GLU811  SER814 

> <Gold.Protein.RotatedAtoms>
  152.0550  134.9630  160.0574 H   0  0  0  0  0  0  0  0  0  0  0  0  # atno 6907 bound_to 6896
  152.1016  133.4248  159.4598 H   0  0  0  0  0  0  0  0  0  0  0  0  # atno 6908 bound_to 6896
  150.6839  134.2673  159.4617 H   0  0  0  0  0  0  0  0  0  0  0  0  # atno 6909 bound_to 6896
  145.7355  140.8977  143.0557 H   0  0  0  0  0  0  0  0  0  0  0  0  # atno 7974 bound_to 7965
  154.9566  140.3072  155.5050 H   0  0  0  0  0  0  0  0  0  0  0  0  # atno 8008 bound_to 7997
  156.2981  140.2309  156.4586 H   0  0  0  0  0  0  0  0  0  0  0  0  # atno 8009 bound_to 7997
  154.8005  140.0434  157.1257 H   0  0  0  0  0  0  0  0  0  0  0  0  # atno 8010 bound_to 7997
  140.5212  143.2331  151.7427 H   0  0  0  0  0  0  0  0  0  0  0  0  # atno 10167 bound_to 10162
  155.9997  130.4963  150.5535 H   0  0  0  0  0  0  0  0  0  0  0  0  # atno 10718 bound_to 10713
  154.1223  135.2832  155.3205 H   0  0  0  0  0  0  0  0  0  0  0  0  # atno 10763 bound_to 10752
  154.6414  135.5401  153.7797 H   0  0  0  0  0  0  0  0  0  0  0  0  # atno 10764 bound_to 10752
  153.0308  135.6487  154.1377 H   0  0  0  0  0  0  0  0  0  0  0  0  # atno 10765 bound_to 10752
  141.1648  133.6958  156.7567 H   0  0  0  0  0  0  0  0  0  0  0  0  # atno 11005 bound_to 11000
  144.6882  139.9390  143.7474 LP  0  0  0  0  0  0  0  0  0  0  0  0  # atno 17320 bound_to 7965
  146.0497  139.3499  143.0647 LP  0  0  0  0  0  0  0  0  0  0  0  0  # atno 17321 bound_to 7965
  139.4924  144.4252  151.9934 LP  0  0  0  0  0  0  0  0  0  0  0  0  # atno 17342 bound_to 10162
  140.3349  144.3273  150.5979 LP  0  0  0  0  0  0  0  0  0  0  0  0  # atno 17343 bound_to 10162
  157.3455  131.0724  151.1755 LP  0  0  0  0  0  0  0  0  0  0  0  0  # atno 17370 bound_to 10713
  157.2589  130.6649  149.5965 LP  0  0  0  0  0  0  0  0  0  0  0  0  # atno 17371 bound_to 10713
  140.2564  134.8501  157.3717 LP  0  0  0  0  0  0  0  0  0  0  0  0  # atno 17394 bound_to 11000
  140.1653  134.4677  155.7867 LP  0  0  0  0  0  0  0  0  0  0  0  0  # atno 17395 bound_to 11000

$$$$
