AV-unprocessed.smi:326|AV-procd|sdf|2344|dock6
  -GOLD-   2262022253D 1   1.00000     0.00000
 Structure written by MMmdl.
 44 45  0  0  0  0  0  0  0  0  1 V2000
  151.0390  140.8510  155.9817 C   0  0  0  0  0  0  0  0  0  0  0  0
  151.0580  139.8730  154.9574 O   0  0  0  0  0  0  0  0  0  0  0  0
  150.3792  138.6843  155.3262 C   0  0  0  0  0  0  0  0  0  0  0  0
  151.0191  137.4775  154.6210 C   0  0  0  0  0  0  0  0  0  0  0  0
  150.5584  136.2071  155.1929 N   0  0  0  0  0  0  0  0  0  0  0  0
  149.3563  135.7604  154.6690 N   0  0  0  0  0  0  0  0  0  0  0  0
  148.8447  134.6432  155.0744 C   0  0  0  0  0  0  0  0  0  0  0  0
  147.5560  134.1281  154.5347 C   0  0  0  0  0  0  0  0  0  0  0  0
  146.6894  133.6482  155.2676 O   0  0  0  0  0  0  0  0  0  0  0  0
  147.4115  134.2241  153.2006 N   0  0  0  0  0  0  0  0  0  0  0  0
  146.2402  133.7954  152.4427 C   0  0  2  0  0  0  0  0  0  0  0  0
  146.4995  132.4409  151.7529 C   0  0  0  0  0  0  0  0  0  0  0  0
  145.3002  132.0110  150.8924 C   0  0  0  0  0  0  0  0  0  0  0  0
  144.9298  133.0866  149.8533 C   0  0  1  0  0  0  0  0  0  0  0  0
  143.7258  132.6559  149.0037 C   0  0  0  0  0  0  0  0  0  0  0  0
  144.6743  134.4383  150.5477 C   0  0  0  0  0  0  0  0  0  0  0  0
  145.8759  134.8705  151.4031 C   0  0  0  0  0  0  0  0  0  0  0  0
  149.5156  133.8399  156.0823 C   0  0  0  0  0  0  0  0  0  0  0  0
  150.6876  134.2876  156.5833 C   0  0  0  0  0  0  0  0  0  0  0  0
  151.2899  135.5463  156.1408 C   0  0  0  0  0  0  0  0  0  0  0  0
  152.3584  135.9698  156.5801 O   0  0  0  0  0  0  0  0  0  0  0  0
  151.5790  141.7378  155.6505 H   0  0  0  0  0  0  0  0  0  0  0  0
  151.5202  140.4827  156.8887 H   0  0  0  0  0  0  0  0  0  0  0  0
  150.0177  141.1489  156.2224 H   0  0  0  0  0  0  0  0  0  0  0  0
  150.4473  138.5516  156.4067 H   0  0  0  0  0  0  0  0  0  0  0  0
  149.3195  138.7543  155.0751 H   0  0  0  0  0  0  0  0  0  0  0  0
  150.8354  137.5269  153.5463 H   0  0  0  0  0  0  0  0  0  0  0  0
  152.1034  137.5390  154.7273 H   0  0  0  0  0  0  0  0  0  0  0  0
  148.1712  134.6300  152.6732 H   0  0  0  0  0  0  0  0  0  0  0  0
  145.3971  133.6882  153.1283 H   0  0  0  0  0  0  0  0  0  0  0  0
  147.3895  132.5092  151.1257 H   0  0  0  0  0  0  0  0  0  0  0  0
  146.7060  131.6709  152.4971 H   0  0  0  0  0  0  0  0  0  0  0  0
  145.5313  131.0707  150.3905 H   0  0  0  0  0  0  0  0  0  0  0  0
  144.4443  131.8123  151.5390 H   0  0  0  0  0  0  0  0  0  0  0  0
  145.7795  133.2097  149.1799 H   0  0  0  0  0  0  0  0  0  0  0  0
  142.8337  132.5247  149.6171 H   0  0  0  0  0  0  0  0  0  0  0  0
  143.9216  131.7117  148.4947 H   0  0  0  0  0  0  0  0  0  0  0  0
  143.4980  133.3999  148.2397 H   0  0  0  0  0  0  0  0  0  0  0  0
  144.4618  135.2067  149.8034 H   0  0  0  0  0  0  0  0  0  0  0  0
  143.7874  134.3674  151.1792 H   0  0  0  0  0  0  0  0  0  0  0  0
  145.6492  135.8131  151.9031 H   0  0  0  0  0  0  0  0  0  0  0  0
  146.7307  135.0633  150.7528 H   0  0  0  0  0  0  0  0  0  0  0  0
  149.0949  132.9065  156.4273 H   0  0  0  0  0  0  0  0  0  0  0  0
  151.1976  133.7003  157.3325 H   0  0  0  0  0  0  0  0  0  0  0  0
  1  2  1  0  0  0  0
  1 22  1  0  0  0  0
  1 23  1  0  0  0  0
  1 24  1  0  0  0  0
  2  3  1  0  0  0  0
  3  4  1  0  0  0  0
  3 25  1  0  0  0  0
  3 26  1  0  0  0  0
  4  5  1  0  0  0  0
  4 27  1  0  0  0  0
  4 28  1  0  0  0  0
  5 20  1  0  0  0  0
  5  6  1  0  0  0  0
  6  7  2  0  0  0  0
  7  8  1  0  0  0  0
  7 18  1  0  0  0  0
  8  9  2  0  0  0  0
  8 10  1  0  0  0  0
 10 11  1  0  0  0  0
 10 29  1  0  0  0  0
 11 17  1  0  0  0  0
 11 12  1  0  0  0  0
 11 30  1  0  0  0  0
 12 13  1  0  0  0  0
 12 31  1  0  0  0  0
 12 32  1  0  0  0  0
 13 14  1  0  0  0  0
 13 33  1  0  0  0  0
 13 34  1  0  0  0  0
 14 15  1  0  0  0  0
 14 16  1  0  0  0  0
 14 35  1  0  0  0  0
 15 36  1  0  0  0  0
 15 37  1  0  0  0  0
 15 38  1  0  0  0  0
 16 17  1  0  0  0  0
 16 39  1  0  0  0  0
 16 40  1  0  0  0  0
 17 41  1  0  0  0  0
 17 42  1  0  0  0  0
 18 19  2  0  0  0  0
 18 43  1  0  0  0  0
 19 20  1  0  0  0  0
 19 44  1  0  0  0  0
 20 21  2  0  0  0  0
M  END
> <s_m_source_file>
AV-unprocessed.smi

> <i_m_source_file_index>
326

> <i_lp_mmshare_version>
43012

> <i_f3d_flags>
0

> <s_epik_input>
W0NIM11PW0NIMl1bQ0gyXW4xbmMoW2NIXVtjSF1jMT1PKUMoPU8pW05IXVtDQEBIXTJbQ0gyXVtDSDJdW0NAQEhdKFtDSDNdKVtDSDJdW0NIMl0y

> <s_epik_cmdline>
J2VwaWtfcHl0aG9uJywgJy1waCcsICc3LjAnLCAnLXRuJywgJzgnLCAnLW1hJywgJzIwMCcsICctbWV0YWxfYmluZGluZycsICctaW1hZScsICc8aW5maWxlLm1hZT4nLCAnLW9tYWUnLCAnPG91dGZpbGUubWFlPic=

> <r_lp_tautomer_probability>
1

> <r_epik_Ionization_Penalty>
6.47102e-07

> <r_epik_Ionization_Penalty_Charging>
6.8576e-09

> <r_epik_Ionization_Penalty_Neutral>
6.40245e-07

> <r_epik_State_Penalty>
-0

> <r_epik_Charging_Adjusted_Penalty>
6.8576e-09

> <i_epik_Tot_Q>
0

> <i_epik_Tot_abs_Q>
0

> <r_epik_Metal_State_Penalty>
-0

> <b_epik_Metal_Only>
0

> <s_lp_Force_Field>
OPLS_2005

> <r_lp_Energy>
29.5472

> <b_lp_Chiralities_Consistent>
1

> <s_lp_Variant>
AV-unprocessed.smi:326-1

> <Gold.Version>
5.8.1

> <Gold.Id.Protein>
6NUR|6NUR_protein|mol2

> <Gold.PLP.Fitness>
39.9975

> <Gold.PLP.PLP>
-33.9864

> <Gold.PLP.part.hbond>
-3.0000

> <Gold.PLP.part.metal>
0.0000

> <Gold.PLP.part.buried>
-2.8955

> <Gold.PLP.part.nonpolar>
-29.7857

> <Gold.PLP.part.repulsive>
2.4881

> <Gold.PLP.ligand.clash>
0.0000

> <Gold.PLP.ligand.torsion>
1.5097

> <Gold.PLP.Chemscore.Hbond>
3.0000

> <Gold.PLP.Chemscore.CHOScore>
0.0000

> <Gold.PLP.Chemscore.Metal>
0.0000

> <Gold.Chemscore.Hbonds>
donor molecule, donor type, donor heavy atom, donor atom, acceptor molecule, acceptor atom, score
      L1  H    10    29       P1  7948  0.99
      P1  H  7989  7998       L1     2  1.00
      P1  H 10752 10763       L1    21  1.00

> <Gold.PLP.Chemscore.Internal.Correction>
0.0304

> <Gold.Rescore>
     Score         DG    S(hbond)    S(metal)    S(lipo)     H(rot)  DE(clash)    DE(int)     intcor
     15.41     -18.81       2.14        0.00      86.65       1.55       1.81       1.59       ----

> <Gold.Chemscore.Fitness>
15.4105

> <Gold.Chemscore.DG>
-18.8115

> <Gold.Chemscore.ZeroCoef>
-5.4800

> <Gold.Chemscore.Hbond>
2.1423

> <Gold.Chemscore.Metal>
0.0000

> <Gold.Chemscore.Lipo>
86.6549

> <Gold.Chemscore.Internal_Hbond>
0.0000

> <Gold.Chemscore.DEClash>
1.8067

> <Gold.Chemscore.DEInternal>
1.5943

> <Gold.Chemscore.Rot>
1.5478

> <Gold.Chemscore.Internal.Correction>
   9.000000E+99

> <Gold.Chemscore.Hbonds>
donor molecule, donor type, donor heavy atom, donor atom, acceptor molecule, acceptor atom, score
      L1  H    10    29       P1  7948  0.47
      P1  H  7989  7998       L1     2  0.35
      P1  H 10752 10763       L1    21  0.25

> <Gold.Chemscore.Hbond.Weighted>
-7.1551

> <Gold.Chemscore.Metal.Weighted>
-0.0000

> <Gold.Chemscore.Lipo.Weighted>
-10.1386

> <Gold.Chemscore.Internal_Hbond.Weighted>
0.0000

> <Gold.Chemscore.DEClash.Weighted>
1.8067

> <Gold.Chemscore.DEInternal.Weighted>
1.5943

> <Gold.Chemscore.Rot.Weighted>
3.9623

> <Gold.Chemscore.Internal.Correction.Weighted>
   9.000000E+99

> <Gold.Protein.RotatedTorsions>
[ 6907 6896 6895 6894 ] final   99.37 input  -60.11 | X-H torsion
[ 7974 7965 7964 7962 ] final   20.64 input  175.53 | X-H torsion
[ 8008 7997 7996 7995 ] final  171.80 input   59.86 | X-H torsion
[ 10167 10162 10161 10158 ] final  -53.77 input  -65.29 | X-H torsion
[ 10718 10713 10712 10709 ] final -163.40 input   66.30 | X-H torsion
[ 10763 10752 10751 10750 ] final  114.88 input  -60.55 | X-H torsion
[ 11005 11000 10999 10996 ] final  -84.30 input  -57.11 | X-H torsion

> <Gold.Protein.ActiveResidues>
 VAL166  LYS551  ARG553  GLY616  TRP617  ASP618  TYR619  PRO620  LYS621  CYS622 
 ASP623  PHE694  ASN695  SER759  ASP760  ASP761  ALA762  ILE779  LEU786  VAL792 
 PHE793  MET794  SER795  GLU796  ALA797  LYS798  CYS799  TRP800  GLU811  SER814 

> <Gold.Protein.RotatedAtoms>
  152.5393  134.0438  159.8079 H   0  0  0  0  0  0  0  0  0  0  0  0  # atno 6907 bound_to 6896
  151.0590  133.5552  159.2643 H   0  0  0  0  0  0  0  0  0  0  0  0  # atno 6908 bound_to 6896
  151.2458  135.0613  159.9096 H   0  0  0  0  0  0  0  0  0  0  0  0  # atno 6909 bound_to 6896
  146.2103  139.8140  142.8694 H   0  0  0  0  0  0  0  0  0  0  0  0  # atno 7974 bound_to 7965
  156.1236  140.1502  156.9169 H   0  0  0  0  0  0  0  0  0  0  0  0  # atno 8008 bound_to 7997
  154.4854  140.0867  156.7516 H   0  0  0  0  0  0  0  0  0  0  0  0  # atno 8009 bound_to 7997
  155.4384  140.3430  155.4289 H   0  0  0  0  0  0  0  0  0  0  0  0  # atno 8010 bound_to 7997
  140.6467  143.2539  151.4840 H   0  0  0  0  0  0  0  0  0  0  0  0  # atno 10167 bound_to 10162
  156.6242  130.8903  151.2964 H   0  0  0  0  0  0  0  0  0  0  0  0  # atno 10718 bound_to 10713
  153.5139  135.3612  155.2600 H   0  0  0  0  0  0  0  0  0  0  0  0  # atno 10763 bound_to 10752
  154.8740  135.4029  154.3337 H   0  0  0  0  0  0  0  0  0  0  0  0  # atno 10764 bound_to 10752
  153.3995  135.7074  153.6503 H   0  0  0  0  0  0  0  0  0  0  0  0  # atno 10765 bound_to 10752
  141.1651  133.7339  156.8848 H   0  0  0  0  0  0  0  0  0  0  0  0  # atno 11005 bound_to 11000
  145.3166  141.0233  143.3524 LP  0  0  0  0  0  0  0  0  0  0  0  0  # atno 17320 bound_to 7965
  144.8897  139.4791  143.6683 LP  0  0  0  0  0  0  0  0  0  0  0  0  # atno 17321 bound_to 7965
  139.5678  144.2001  152.1791 LP  0  0  0  0  0  0  0  0  0  0  0  0  # atno 17342 bound_to 10162
  140.1288  144.5307  150.6816 LP  0  0  0  0  0  0  0  0  0  0  0  0  # atno 17343 bound_to 10162
  157.7219  130.9570  150.1473 LP  0  0  0  0  0  0  0  0  0  0  0  0  # atno 17370 bound_to 10713
  156.2287  130.3680  149.8470 LP  0  0  0  0  0  0  0  0  0  0  0  0  # atno 17371 bound_to 10713
  140.1689  134.9113  157.2809 LP  0  0  0  0  0  0  0  0  0  0  0  0  # atno 17394 bound_to 11000
  140.2524  134.3667  155.7437 LP  0  0  0  0  0  0  0  0  0  0  0  0  # atno 17395 bound_to 11000

$$$$
