#       Name:                AV-unprocessed.smi:1161
#       Creating user name   scv26
#       Creation time:       Fri Mar 27 03:50:00 2020


#       File generated by GOLD software.
#

@<TRIPOS>MOLECULE
AV-unprocessed.smi:1161
    54    55     1
SMALL
NO_CHARGES


@<TRIPOS>ATOM
      1 ****        -4.2642  -0.7348   5.9761 C.3            1 S1                 0.0000
      2 ****        -2.7419  -0.6496   5.7684 C.3            1 S1                 0.0000
      3 ****        -2.2698  -0.3148   4.3307 C.3            1 S1                 0.0000
      4 ****        -2.8291   1.0384   3.8386 C.3            1 S1                 0.0000
      5 ****        -2.7625  -1.3435   3.4934 O.3            1 S1                 0.0000
      6 ****        -0.7187  -0.3863   4.2848 C.3            1 S1                 0.0000
      7 ****        -0.1179   0.2655   3.1231 N.am           1 S1                 0.0000
      8 ****         0.0477  -0.2977   1.9186 C.2            1 S1                 0.0000
      9 ****        -0.2981  -1.4483   1.6521 O.2            1 S1                 0.0000
     10 ****         0.6496   0.5473   1.0647 N.am           1 S1                 0.0000
     11 ****         0.9634   0.3300  -0.3032 C.ar           1 S1                 0.0000
     12 ****         0.2517  -0.5541  -1.1460 C.ar           1 S1                 0.0000
     13 ****         0.6402  -0.6712  -2.4942 C.ar           1 S1                 0.0000
     14 ****         1.7254   0.1006  -2.9717 C.ar           1 S1                 0.0000
     15 ****         2.1322  -0.0077  -4.3188 N.3            1 S1                 0.0000
     16 ****         1.0841   0.2080  -5.3130 C.3            1 S1                 0.0000
     17 ****         1.5674  -0.2337  -6.7055 C.3            1 S1                 0.0000
     18 ****         2.7847   0.4307  -7.0284 O.3            1 S1                 0.0000
     19 ****         3.8216   0.1129  -6.1061 C.3            1 S1                 0.0000
     20 ****         3.4185   0.5750  -4.6957 C.3            1 S1                 0.0000
     21 ****         2.3997   0.9536  -2.1618 N.ar           1 S1                 0.0000
     22 ****         2.0205   1.0671  -0.8718 C.ar           1 S1                 0.0000
     23 ****        -4.4918  -1.0358   6.9989 H              1 S1                 0.0000
     24 ****        -4.7221  -1.4684   5.3126 H              1 S1                 0.0000
     25 ****        -4.7514   0.2250   5.8081 H              1 S1                 0.0000
     26 ****        -2.3441   0.0946   6.4594 H              1 S1                 0.0000
     27 ****        -2.3033  -1.6003   6.0759 H              1 S1                 0.0000
     28 ****        -2.4725   1.8590   4.4614 H              1 S1                 0.0000
     29 ****        -3.9183   1.0582   3.8564 H              1 S1                 0.0000
     30 ****        -2.5379   1.2527   2.8101 H              1 S1                 0.0000
     31 ****        -2.3879  -1.2346   2.6320 H              1 S1                 0.0000
     32 ****        -0.3139   0.1382   5.1509 H              1 S1                 0.0000
     33 ****        -0.3664  -1.4160   4.3751 H              1 S1                 0.0000
     34 ****         0.1981   1.2156   3.2509 H              1 S1                 0.0000
     35 ****         0.9710   1.4223   1.4521 H              1 S1                 0.0000
     36 ****        -0.5871  -1.1318  -0.7895 H              1 S1                 0.0000
     37 ****         0.1112  -1.3563  -3.1398 H              1 S1                 0.0000
     38 ****         0.1742  -0.3360  -5.0633 H              1 S1                 0.0000
     39 ****         0.8265   1.2677  -5.3269 H              1 S1                 0.0000
     40 ****         1.7099  -1.3149  -6.7420 H              1 S1                 0.0000
     41 ****         0.8185   0.0135  -7.4579 H              1 S1                 0.0000
     42 ****         4.0217  -0.9597  -6.1220 H              1 S1                 0.0000
     43 ****         4.7394   0.6123  -6.4164 H              1 S1                 0.0000
     44 ****         3.3459   1.6631  -4.6663 H              1 S1                 0.0000
     45 ****         4.1895   0.2787  -3.9833 H              1 S1                 0.0000
     46 ****         2.5873   1.7649  -0.2728 H              1 S1                 0.0000
     47 ****        -3.7592  -1.2847   3.4377 LP             1 S1                 0.0000
     48 ****        -2.5014  -2.2346   3.8646 LP             1 S1                 0.0000
     49 ****        -0.7285  -2.0162   2.3537 LP             1 S1                 0.0000
     50 ****        -0.1487  -1.8153   0.7340 LP             1 S1                 0.0000
     51 ****         2.3299  -0.9876  -4.3438 LP             1 S1                 0.0000
     52 ****         2.6285   1.4183  -7.0121 LP             1 S1                 0.0000
     53 ****         3.0712   0.1536  -7.9455 LP             1 S1                 0.0000
     54 ****         3.1660   1.4902  -2.5149 LP             1 S1                 0.0000
@<TRIPOS>BOND
    1    1    2 1     
    2    1   23 1     
    3    1   24 1     
    4    1   25 1     
    5    2    3 1     
    6    2   26 1     
    7    2   27 1     
    8    3    4 1     
    9    3    5 1     
   10    3    6 1     
   11    4   28 1     
   12    4   29 1     
   13    4   30 1     
   14    5   31 1     
   15    6    7 1     
   16    6   32 1     
   17    6   33 1     
   18    7    8 am    
   19    7   34 1     
   20    8    9 2     
   21    8   10 am    
   22   10   11 1     
   23   10   35 1     
   24   11   22 ar    
   25   11   12 ar    
   26   12   13 ar    
   27   12   36 1     
   28   13   14 ar    
   29   13   37 1     
   30   14   15 1     
   31   14   21 ar    
   32   15   20 1     
   33   15   16 1     
   34   16   17 1     
   35   16   38 1     
   36   16   39 1     
   37   17   18 1     
   38   17   40 1     
   39   17   41 1     
   40   18   19 1     
   41   19   20 1     
   42   19   42 1     
   43   19   43 1     
   44   20   44 1     
   45   20   45 1     
   46   21   22 ar    
   47   22   46 1     
   48    5   47 1     
   49    5   48 1     
   50    9   49 1     
   51    9   50 1     
   52   15   51 1     
   53   18   52 1     
   54   18   53 1     
   55   21   54 1     
@<TRIPOS>SUBSTRUCTURE
      1 S1             1
@<TRIPOS>SET
LONE_PAIRS      STATIC     ATOMS    <user>   **** ""
8 47 48 49 50 51 52 53 54
DONOR_HYDROGENS      STATIC     ATOMS    <user>   **** ""
3 31 34 35
ATOM$BLUE        STATIC     ATOMS    COLORGROUP SYSTEM
8 47 48 49 50 51 52 53 54
ATOM$RED        STATIC     ATOMS    COLORGROUP SYSTEM
3 31 34 35
