AV-unprocessed.smi:127|AV-procd|sdf|1154|dock1
  -GOLD-   2262018293D 1   1.00000     0.00000
 Structure written by MMmdl.
 28 29  0  0  0  0  0  0  0  0  2 V2000
  153.9111  139.0774  154.4028 O   0  0  0  0  0  0  0  0  0  0  0  0
  152.9538  138.3646  154.7752 C   0  0  0  0  0  0  0  0  0  0  0  0
  152.3842  137.4917  154.0846 O   0  5  0  0  0  0  0  0  0  0  0  0
  152.4312  138.5834  156.1983 C   0  0  0  0  0  0  0  0  0  0  0  0
  151.8652  139.9114  156.3910 N   0  0  0  0  0  0  0  0  0  0  0  0
  150.8364  140.3264  155.5078 C   0  0  0  0  0  0  0  0  0  0  0  0
  150.5095  139.6641  154.5213 O   0  0  0  0  0  0  0  0  0  0  0  0
  150.2061  141.5939  155.8605 C   0  0  0  0  0  0  0  0  0  0  0  0
  149.2235  142.0856  155.0864 F   0  0  0  0  0  0  0  0  0  0  0  0
  150.5883  142.2837  156.9566 C   0  0  0  0  0  0  0  0  0  0  0  0
  151.5874  141.8490  157.8116 N   0  0  0  0  0  0  0  0  0  0  0  0
  151.9938  142.6342  159.0411 C   0  0  1  0  0  0  0  0  0  0  0  0
  152.6644  143.9625  158.6396 C   0  0  0  0  0  0  0  0  0  0  0  0
  151.8878  144.9870  159.4426 C   0  0  0  0  0  0  0  0  0  0  0  0
  150.5250  144.3229  159.5662 C   0  0  0  0  0  0  0  0  0  0  0  0
  150.8607  142.9607  159.7951 O   0  0  0  0  0  0  0  0  0  0  0  0
  152.2451  140.6262  157.5532 C   0  0  0  0  0  0  0  0  0  0  0  0
  153.1212  140.2137  158.3172 O   0  0  0  0  0  0  0  0  0  0  0  0
  151.6725  137.8418  156.4531 H   0  0  0  0  0  0  0  0  0  0  0  0
  153.2231  138.4354  156.9343 H   0  0  0  0  0  0  0  0  0  0  0  0
  150.0751  143.2111  157.1584 H   0  0  0  0  0  0  0  0  0  0  0  0
  152.6345  141.9660  159.6193 H   0  0  0  0  0  0  0  0  0  0  0  0
  153.7292  143.9496  158.8731 H   0  0  0  0  0  0  0  0  0  0  0  0
  152.5379  144.1424  157.5706 H   0  0  0  0  0  0  0  0  0  0  0  0
  152.3353  145.1082  160.4299 H   0  0  0  0  0  0  0  0  0  0  0  0
  151.8454  145.9644  158.9614 H   0  0  0  0  0  0  0  0  0  0  0  0
  149.9275  144.7320  160.3809 H   0  0  0  0  0  0  0  0  0  0  0  0
  149.9592  144.4217  158.6387 H   0  0  0  0  0  0  0  0  0  0  0  0
  1  2  2  0  0  0  0
  2  3  1  0  0  0  0
  2  4  1  0  0  0  0
  4  5  1  0  0  0  0
  4 19  1  0  0  0  0
  4 20  1  0  0  0  0
  5 17  1  0  0  0  0
  5  6  1  0  0  0  0
  6  7  2  0  0  0  0
  6  8  1  0  0  0  0
  8  9  1  0  0  0  0
  8 10  2  0  0  0  0
 10 11  1  0  0  0  0
 10 21  1  0  0  0  0
 11 12  1  0  0  0  0
 11 17  1  0  0  0  0
 12 16  1  0  0  0  0
 12 13  1  0  0  0  0
 12 22  1  0  0  0  0
 13 14  1  0  0  0  0
 13 23  1  0  0  0  0
 13 24  1  0  0  0  0
 14 15  1  0  0  0  0
 14 25  1  0  0  0  0
 14 26  1  0  0  0  0
 15 16  1  0  0  0  0
 15 27  1  0  0  0  0
 15 28  1  0  0  0  0
 17 18  2  0  0  0  0
M  CHG  1   3  -1
M  END
> <s_m_source_file>
AV-unprocessed.smi

> <i_m_source_file_index>
127

> <i_lp_mmshare_version>
43012

> <i_f3d_flags>
0

> <s_epik_input>
Tz1DKFtPSF0pW0NIMl1uMWMoPU8pYyhGKVtjSF1uKGMxPU8pW0NAQEhdMltDSDJdW0NIMl1bQ0gyXU8y

> <s_epik_cmdline>
J2VwaWtfcHl0aG9uJywgJy1waCcsICc3LjAnLCAnLXRuJywgJzgnLCAnLW1hJywgJzIwMCcsICctbWV0YWxfYmluZGluZycsICctaW1hZScsICc8aW5maWxlLm1hZT4nLCAnLW9tYWUnLCAnPG91dGZpbGUubWFlPic=

> <r_lp_tautomer_probability>
1

> <r_epik_Ionization_Penalty>
0.00125813

> <r_epik_Ionization_Penalty_Charging>
0.00125813

> <r_epik_Ionization_Penalty_Neutral>
6.20402e-12

> <r_epik_State_Penalty>
0.000832915

> <r_epik_Charging_Adjusted_Penalty>
0.00209104

> <i_epik_Tot_Q>
-1

> <i_epik_Tot_abs_Q>
1

> <r_epik_Metal_State_Penalty>
-0

> <b_epik_Metal_Only>
0

> <s_epik_Chemistry_Notes>
This compound contains an acetal/aminal-like group ( X-CH(R)-Y where X, Y are N, S, or O) that may be acid/base labile, releasing an aldehyde.

> <s_lp_Force_Field>
OPLS_2005

> <r_lp_Energy>
23.1331

> <b_lp_Chiralities_Consistent>
1

> <s_lp_Variant>
AV-unprocessed.smi:127-2

> <Gold.Version>
5.8.1

> <Gold.Id.Protein>
6NUR|6NUR_protein|mol2

> <Gold.PLP.Fitness>
54.5477

> <Gold.PLP.PLP>
-38.0469

> <Gold.PLP.part.hbond>
-5.0000

> <Gold.PLP.part.metal>
0.0000

> <Gold.PLP.part.buried>
0.8458

> <Gold.PLP.part.nonpolar>
-33.3510

> <Gold.PLP.part.repulsive>
0.2924

> <Gold.PLP.ligand.clash>
0.0000

> <Gold.PLP.ligand.torsion>
0.2353

> <Gold.PLP.Chemscore.Hbond>
4.6380

> <Gold.PLP.Chemscore.CHOScore>
1.0000

> <Gold.PLP.Chemscore.Metal>
0.0000

> <Gold.Chemscore.Hbonds>
donor molecule, donor type, donor heavy atom, donor atom, acceptor molecule, acceptor atom, score
      P1  H  7989  7998       L1     7  0.35
      P1  H  7997  8009       L1    18  0.78
      P1  H  7997  8010       L1     1  2.00
      P1  H 10752 10763       L1     3  1.47
      L1  C    10    21       P1  8028  1.00

> <Gold.PLP.Chemscore.Internal.Correction>
0.0575

> <Gold.Rescore>
     Score         DG    S(hbond)    S(metal)    S(lipo)     H(rot)  DE(clash)    DE(int)     intcor
     11.17     -13.66       2.06        0.00      56.64       2.08       0.42       2.08       ----

> <Gold.Chemscore.Fitness>
11.1655

> <Gold.Chemscore.DG>
-13.6645

> <Gold.Chemscore.ZeroCoef>
-5.4800

> <Gold.Chemscore.Hbond>
2.0581

> <Gold.Chemscore.Metal>
0.0000

> <Gold.Chemscore.Lipo>
56.6358

> <Gold.Chemscore.Internal_Hbond>
0.0000

> <Gold.Chemscore.DEClash>
0.4179

> <Gold.Chemscore.DEInternal>
2.0811

> <Gold.Chemscore.Rot>
2.0765

> <Gold.Chemscore.Internal.Correction>
   9.000000E+99

> <Gold.Chemscore.Hbonds>
donor molecule, donor type, donor heavy atom, donor atom, acceptor molecule, acceptor atom, score
      P1  H  7989  7998       L1     7  0.01
      P1  H  7997  8009       L1    18  0.40
      P1  H  7997  8010       L1     1  0.95
      P1  H 10752 10763       L1     3  0.73

> <Gold.Chemscore.Hbond.Weighted>
-6.8740

> <Gold.Chemscore.Metal.Weighted>
-0.0000

> <Gold.Chemscore.Lipo.Weighted>
-6.6264

> <Gold.Chemscore.Internal_Hbond.Weighted>
0.0000

> <Gold.Chemscore.DEClash.Weighted>
0.4179

> <Gold.Chemscore.DEInternal.Weighted>
2.0811

> <Gold.Chemscore.Rot.Weighted>
5.3159

> <Gold.Chemscore.Internal.Correction.Weighted>
   9.000000E+99

> <Gold.Protein.RotatedTorsions>
[ 6907 6896 6895 6894 ] final  157.92 input  -60.11 | X-H torsion
[ 7974 7965 7964 7962 ] final  -45.59 input  175.53 | X-H torsion
[ 8008 7997 7996 7995 ] final  137.19 input   59.86 | X-H torsion
[ 10167 10162 10161 10158 ] final  -31.38 input  -65.29 | X-H torsion
[ 10718 10713 10712 10709 ] final  -95.04 input   66.30 | X-H torsion
[ 10763 10752 10751 10750 ] final   25.00 input  -60.55 | X-H torsion
[ 11005 11000 10999 10996 ] final -124.74 input  -57.11 | X-H torsion

> <Gold.Protein.ActiveResidues>
 VAL166  LYS551  ARG553  GLY616  TRP617  ASP618  TYR619  PRO620  LYS621  CYS622 
 ASP623  PHE694  ASN695  SER759  ASP760  ASP761  ALA762  ILE779  LEU786  VAL792 
 PHE793  MET794  SER795  GLU796  ALA797  LYS798  CYS799  TRP800  GLU811  SER814 

> <Gold.Protein.RotatedAtoms>
  152.0081  133.3850  159.4208 H   0  0  0  0  0  0  0  0  0  0  0  0  # atno 6907 bound_to 6896
  150.6902  134.3761  159.5022 H   0  0  0  0  0  0  0  0  0  0  0  0  # atno 6908 bound_to 6896
  152.1518  134.8982  160.0598 H   0  0  0  0  0  0  0  0  0  0  0  0  # atno 6909 bound_to 6896
  145.9805  140.7288  142.9366 H   0  0  0  0  0  0  0  0  0  0  0  0  # atno 7974 bound_to 7965
  156.3003  140.2426  156.3869 H   0  0  0  0  0  0  0  0  0  0  0  0  # atno 8008 bound_to 7997
  154.8649  140.0418  157.1708 H   0  0  0  0  0  0  0  0  0  0  0  0  # atno 8009 bound_to 7997
  154.8856  140.2955  155.5403 H   0  0  0  0  0  0  0  0  0  0  0  0  # atno 8010 bound_to 7997
  140.7237  143.3775  151.1661 H   0  0  0  0  0  0  0  0  0  0  0  0  # atno 10167 bound_to 10162
  156.0037  130.5093  150.6017 H   0  0  0  0  0  0  0  0  0  0  0  0  # atno 10718 bound_to 10713
  153.0723  135.6593  154.0220 H   0  0  0  0  0  0  0  0  0  0  0  0  # atno 10763 bound_to 10752
  153.9862  135.2950  155.3417 H   0  0  0  0  0  0  0  0  0  0  0  0  # atno 10764 bound_to 10752
  154.7102  135.5208  153.8724 H   0  0  0  0  0  0  0  0  0  0  0  0  # atno 10765 bound_to 10752
  140.9817  134.0664  157.3757 H   0  0  0  0  0  0  0  0  0  0  0  0  # atno 11005 bound_to 11000
  144.6860  140.2901  143.7279 LP  0  0  0  0  0  0  0  0  0  0  0  0  # atno 17320 bound_to 7965
  145.7776  139.1879  143.2176 LP  0  0  0  0  0  0  0  0  0  0  0  0  # atno 17321 bound_to 7965
  139.7358  143.9001  152.3034 LP  0  0  0  0  0  0  0  0  0  0  0  0  # atno 17342 bound_to 10162
  139.8805  144.7020  150.8883 LP  0  0  0  0  0  0  0  0  0  0  0  0  # atno 17343 bound_to 10162
  157.3865  131.0789  151.1431 LP  0  0  0  0  0  0  0  0  0  0  0  0  # atno 17370 bound_to 10713
  157.2137  130.6449  149.5784 LP  0  0  0  0  0  0  0  0  0  0  0  0  # atno 17371 bound_to 10713
  139.8953  135.0140  156.6995 LP  0  0  0  0  0  0  0  0  0  0  0  0  # atno 17394 bound_to 11000
  140.7176  133.9168  155.8125 LP  0  0  0  0  0  0  0  0  0  0  0  0  # atno 17395 bound_to 11000

$$$$
