AV-unprocessed.smi:3250|AV-procd|sdf|12431|dock3
  -GOLD-   2272018323D 1   1.00000     0.00000
 Structure written by MMmdl.
 40 41  0  0  0  0  0  0  0  0  3 V2000
  152.2735  140.2965  152.5394 C   0  0  0  0  0  0  0  0  0  0  0  0
  151.3547  139.1242  152.1680 C   0  0  0  0  0  0  0  0  0  0  0  0
  149.9168  139.4893  152.2177 N   0  3  1  0  0  0  0  0  0  0  0  0
  149.5541  140.4857  151.1828 C   0  0  0  0  0  0  0  0  0  0  0  0
  148.0708  140.8690  151.3016 C   0  0  0  0  0  0  0  0  0  0  0  0
  147.2694  139.6987  151.2000 O   0  0  0  0  0  0  0  0  0  0  0  0
  147.5314  138.7685  152.2461 C   0  0  1  0  0  0  0  0  0  0  0  0
  146.5682  137.5841  152.0801 C   0  0  0  0  0  0  0  0  0  0  0  0
  145.1912  138.0250  151.9130 N   0  0  0  0  0  0  0  0  0  0  0  0
  144.1758  137.2130  151.4429 C   0  0  0  0  0  0  0  0  0  0  0  0
  142.9503  137.7479  151.3375 N   0  3  0  0  0  0  0  0  0  0  0  0
  141.9216  136.9905  150.8831 C   0  0  0  0  0  0  0  0  0  0  0  0
  142.1336  135.6483  150.5202 C   0  0  0  0  0  0  0  0  0  0  0  0
  143.4410  135.1523  150.6516 C   0  0  0  0  0  0  0  0  0  0  0  0
  143.7103  133.8444  150.3046 O   0  0  0  0  0  0  0  0  0  0  0  0
  145.0657  133.4698  150.0825 C   0  0  0  0  0  0  0  0  0  0  0  0
  144.4408  135.9408  151.1129 N   0  0  0  0  0  0  0  0  0  0  0  0
  149.0042  138.3203  152.1503 C   0  0  0  0  0  0  0  0  0  0  0  0
  153.3194  140.0195  152.4054 H   0  0  0  0  0  0  0  0  0  0  0  0
  152.1515  140.6000  153.5789 H   0  0  0  0  0  0  0  0  0  0  0  0
  152.0799  141.1642  151.9082 H   0  0  0  0  0  0  0  0  0  0  0  0
  151.6074  138.8122  151.1537 H   0  0  0  0  0  0  0  0  0  0  0  0
  151.5470  138.2650  152.8124 H   0  0  0  0  0  0  0  0  0  0  0  0
  150.1718  141.3777  151.2924 H   0  0  0  0  0  0  0  0  0  0  0  0
  149.7562  140.0750  150.1921 H   0  0  0  0  0  0  0  0  0  0  0  0
  147.8731  141.3813  152.2445 H   0  0  0  0  0  0  0  0  0  0  0  0
  147.7957  141.5564  150.5016 H   0  0  0  0  0  0  0  0  0  0  0  0
  147.3590  139.2423  153.2147 H   0  0  0  0  0  0  0  0  0  0  0  0
  146.8672  136.9729  151.2276 H   0  0  0  0  0  0  0  0  0  0  0  0
  146.6133  136.9455  152.9631 H   0  0  0  0  0  0  0  0  0  0  0  0
  144.9514  138.9686  152.1808 H   0  0  0  0  0  0  0  0  0  0  0  0
  140.9626  137.4844  150.8238 H   0  0  0  0  0  0  0  0  0  0  0  0
  141.3284  135.0274  150.1548 H   0  0  0  0  0  0  0  0  0  0  0  0
  145.1092  132.4142  149.8150 H   0  0  0  0  0  0  0  0  0  0  0  0
  145.6706  133.6085  150.9798 H   0  0  0  0  0  0  0  0  0  0  0  0
  145.5069  134.0373  149.2617 H   0  0  0  0  0  0  0  0  0  0  0  0
  149.1735  137.7803  151.2170 H   0  0  0  0  0  0  0  0  0  0  0  0
  149.2213  137.6275  152.9629 H   0  0  0  0  0  0  0  0  0  0  0  0
  149.7640  139.9382  153.1098 H   0  0  0  0  0  0  0  0  0  0  0  0
  142.7781  138.7200  151.5951 H   0  0  0  0  0  0  0  0  0  0  0  0
  1  2  1  0  0  0  0
  1 19  1  0  0  0  0
  1 20  1  0  0  0  0
  1 21  1  0  0  0  0
  2  3  1  0  0  0  0
  2 22  1  0  0  0  0
  2 23  1  0  0  0  0
  3 18  1  0  0  0  0
  3  4  1  0  0  0  0
  3 39  1  0  0  0  0
  4  5  1  0  0  0  0
  4 24  1  0  0  0  0
  4 25  1  0  0  0  0
  5  6  1  0  0  0  0
  5 26  1  0  0  0  0
  5 27  1  0  0  0  0
  6  7  1  0  0  0  0
  7  8  1  0  0  0  0
  7 18  1  0  0  0  0
  7 28  1  0  0  0  0
  8  9  1  0  0  0  0
  8 29  1  0  0  0  0
  8 30  1  0  0  0  0
  9 10  1  0  0  0  0
  9 31  1  0  0  0  0
 10 17  1  0  0  0  0
 10 11  2  0  0  0  0
 11 12  1  0  0  0  0
 11 40  1  0  0  0  0
 12 13  2  0  0  0  0
 12 32  1  0  0  0  0
 13 14  1  0  0  0  0
 13 33  1  0  0  0  0
 14 15  1  0  0  0  0
 14 17  2  0  0  0  0
 15 16  1  0  0  0  0
 16 34  1  0  0  0  0
 16 35  1  0  0  0  0
 16 36  1  0  0  0  0
 18 37  1  0  0  0  0
 18 38  1  0  0  0  0
M  CHG  1   3   1
M  CHG  1  11   1
M  END
> <s_m_source_file>
AV-unprocessed.smi

> <i_m_source_file_index>
3250

> <i_lp_mmshare_version>
43012

> <i_f3d_flags>
0

> <s_epik_input>
W0NIM11bQ0gyXU4xW0NIMl1bQ0gyXU9bQ0BIXShbQ0gyXTEpW0NIMl1bTkhdYzJuW2NIXVtjSF1jKG4yKU9bQ0gzXQ==

> <s_epik_cmdline>
J2VwaWtfcHl0aG9uJywgJy1waCcsICc3LjAnLCAnLXRuJywgJzgnLCAnLW1hJywgJzIwMCcsICctbWV0YWxfYmluZGluZycsICctaW1hZScsICc8aW5maWxlLm1hZT4nLCAnLW9tYWUnLCAnPG91dGZpbGUubWFlPic=

> <r_lp_tautomer_probability>
0.999985

> <r_epik_Ionization_Penalty>
2.24691

> <r_epik_Ionization_Penalty_Charging>
2.24686

> <r_epik_Ionization_Penalty_Neutral>
4.52111e-05

> <r_epik_State_Penalty>
2.24709

> <r_epik_Charging_Adjusted_Penalty>
4.49395

> <i_epik_Tot_Q>
2

> <i_epik_Tot_abs_Q>
2

> <r_epik_Metal_State_Penalty>
2.26327

> <b_epik_Metal_Only>
0

> <s_lp_Force_Field>
OPLS_2005

> <r_lp_Energy>
18.3796

> <b_lp_Chiralities_Consistent>
1

> <s_lp_Variant>
AV-unprocessed.smi:3250-7

> <Gold.Version>
5.8.1

> <Gold.Id.Protein>
6NUR|6NUR_protein|mol2

> <Gold.PLP.Fitness>
45.1999

> <Gold.PLP.PLP>
-31.5329

> <Gold.PLP.part.hbond>
-3.0000

> <Gold.PLP.part.metal>
0.0000

> <Gold.PLP.part.buried>
-1.7709

> <Gold.PLP.part.nonpolar>
-29.1375

> <Gold.PLP.part.repulsive>
2.7904

> <Gold.PLP.ligand.clash>
0.0000

> <Gold.PLP.ligand.torsion>
0.4402

> <Gold.PLP.Chemscore.Hbond>
4.8400

> <Gold.PLP.Chemscore.CHOScore>
0.0000

> <Gold.PLP.Chemscore.Metal>
0.0000

> <Gold.Chemscore.Hbonds>
donor molecule, donor type, donor heavy atom, donor atom, acceptor molecule, acceptor atom, score
      L1  H     9    31       P1 10175  2.00
      L1  H    11    40       P1 10175  1.60

> <Gold.PLP.Chemscore.Internal.Correction>
0.0273

> <Gold.Rescore>
     Score         DG    S(hbond)    S(metal)    S(lipo)     H(rot)  DE(clash)    DE(int)     intcor
     12.10     -14.31       1.83        0.00      61.72       1.75       1.59       0.63       ----

> <Gold.Chemscore.Fitness>
12.1035

> <Gold.Chemscore.DG>
-14.3145

> <Gold.Chemscore.ZeroCoef>
-5.4800

> <Gold.Chemscore.Hbond>
1.8268

> <Gold.Chemscore.Metal>
0.0000

> <Gold.Chemscore.Lipo>
61.7155

> <Gold.Chemscore.Internal_Hbond>
0.0000

> <Gold.Chemscore.DEClash>
1.5857

> <Gold.Chemscore.DEInternal>
0.6254

> <Gold.Chemscore.Rot>
1.7530

> <Gold.Chemscore.Internal.Correction>
   9.000000E+99

> <Gold.Chemscore.Hbonds>
donor molecule, donor type, donor heavy atom, donor atom, acceptor molecule, acceptor atom, score
      L1  H     9    31       P1 10175  0.95
      L1  H    11    40       P1 10175  0.53

> <Gold.Chemscore.Hbond.Weighted>
-6.1015

> <Gold.Chemscore.Metal.Weighted>
-0.0000

> <Gold.Chemscore.Lipo.Weighted>
-7.2207

> <Gold.Chemscore.Internal_Hbond.Weighted>
0.0000

> <Gold.Chemscore.DEClash.Weighted>
1.5857

> <Gold.Chemscore.DEInternal.Weighted>
0.6254

> <Gold.Chemscore.Rot.Weighted>
4.4876

> <Gold.Chemscore.Internal.Correction.Weighted>
   9.000000E+99

> <Gold.Protein.RotatedTorsions>
[ 6907 6896 6895 6894 ] final   -3.36 input  -60.11 | X-H torsion
[ 7974 7965 7964 7962 ] final  -43.95 input  175.53 | X-H torsion
[ 8008 7997 7996 7995 ] final  105.57 input   59.86 | X-H torsion
[ 10167 10162 10161 10158 ] final  133.44 input  -65.29 | X-H torsion
[ 10718 10713 10712 10709 ] final   54.57 input   66.30 | X-H torsion
[ 10763 10752 10751 10750 ] final   13.65 input  -60.55 | X-H torsion
[ 11005 11000 10999 10996 ] final  -10.42 input  -57.11 | X-H torsion

> <Gold.Protein.ActiveResidues>
 VAL166  LYS551  ARG553  GLY616  TRP617  ASP618  TYR619  PRO620  LYS621  CYS622 
 ASP623  PHE694  ASN695  SER759  ASP760  ASP761  ALA762  ILE779  LEU786  VAL792 
 PHE793  MET794  SER795  GLU796  ALA797  LYS798  CYS799  TRP800  GLU811  SER814 

> <Gold.Protein.RotatedAtoms>
  151.5150  135.1066  159.9863 H   0  0  0  0  0  0  0  0  0  0  0  0  # atno 6907 bound_to 6896
  152.4645  133.7889  159.6902 H   0  0  0  0  0  0  0  0  0  0  0  0  # atno 6908 bound_to 6896
  150.8622  133.7563  159.3014 H   0  0  0  0  0  0  0  0  0  0  0  0  # atno 6909 bound_to 6896
  145.9969  140.7119  142.9290 H   0  0  0  0  0  0  0  0  0  0  0  0  # atno 7974 bound_to 7965
  156.1670  140.3128  155.8906 H   0  0  0  0  0  0  0  0  0  0  0  0  # atno 8008 bound_to 7997
  155.3666  140.0479  157.3063 H   0  0  0  0  0  0  0  0  0  0  0  0  # atno 8009 bound_to 7997
  154.5202  140.2195  155.9001 H   0  0  0  0  0  0  0  0  0  0  0  0  # atno 8010 bound_to 7997
  139.5297  144.6615  151.4997 H   0  0  0  0  0  0  0  0  0  0  0  0  # atno 10167 bound_to 10162
  157.5268  130.8603  149.8633 H   0  0  0  0  0  0  0  0  0  0  0  0  # atno 10718 bound_to 10713
  153.1700  135.6810  153.8621 H   0  0  0  0  0  0  0  0  0  0  0  0  # atno 10763 bound_to 10752
  153.7988  135.3159  155.3389 H   0  0  0  0  0  0  0  0  0  0  0  0  # atno 10764 bound_to 10752
  154.7991  135.4788  154.0325 H   0  0  0  0  0  0  0  0  0  0  0  0  # atno 10765 bound_to 10752
  140.7445  133.8643  155.8994 H   0  0  0  0  0  0  0  0  0  0  0  0  # atno 11005 bound_to 11000
  144.6906  140.3165  143.7239 LP  0  0  0  0  0  0  0  0  0  0  0  0  # atno 17320 bound_to 7965
  145.7547  139.1805  143.2301 LP  0  0  0  0  0  0  0  0  0  0  0  0  # atno 17321 bound_to 7965
  140.6466  143.8782  150.6743 LP  0  0  0  0  0  0  0  0  0  0  0  0  # atno 17342 bound_to 10162
  140.2133  143.3866  152.1701 LP  0  0  0  0  0  0  0  0  0  0  0  0  # atno 17343 bound_to 10162
  156.0393  130.3743  150.1477 LP  0  0  0  0  0  0  0  0  0  0  0  0  # atno 17370 bound_to 10713
  156.9663  130.9821  151.3468 LP  0  0  0  0  0  0  0  0  0  0  0  0  # atno 17371 bound_to 10713
  140.9807  134.1410  157.4497 LP  0  0  0  0  0  0  0  0  0  0  0  0  # atno 17394 bound_to 11000
  139.8799  135.0009  156.6038 LP  0  0  0  0  0  0  0  0  0  0  0  0  # atno 17395 bound_to 11000

$$$$
