AV-unprocessed.smi:2195|AV-procd|sdf|8904|dock8
  -GOLD-   2272012123D 1   1.00000     0.00000
 Structure written by MMmdl.
 39 41  0  0  0  0  0  0  0  0  1 V2000
  152.2349  143.3633  161.4694 C   0  0  0  0  0  0  0  0  0  0  0  0
  151.8266  142.7603  160.1413 C   0  0  0  0  0  0  0  0  0  0  0  0
  152.2532  141.4666  159.7811 C   0  0  0  0  0  0  0  0  0  0  0  0
  151.8664  140.9148  158.5449 C   0  0  0  0  0  0  0  0  0  0  0  0
  151.0509  141.6403  157.6527 C   0  0  0  0  0  0  0  0  0  0  0  0
  150.7200  141.0213  156.4670 O   0  0  0  0  0  0  0  0  0  0  0  0
  149.7429  141.6337  155.6345 C   0  0  0  0  0  0  0  0  0  0  0  0
  149.1238  140.5851  154.6958 C   0  0  2  0  0  0  0  0  0  0  0  0
  150.1119  140.1203  153.7972 O   0  0  0  0  0  0  0  0  0  0  0  0
  147.8725  141.0857  153.9481 C   0  0  0  0  0  0  0  0  0  0  0  0
  146.7877  141.4223  154.8523 N   0  0  0  0  0  0  0  0  0  0  0  0
  146.6293  140.9947  156.1196 C   0  0  0  0  0  0  0  0  0  0  0  0
  145.5577  141.4253  156.7791 N   0  0  0  0  0  0  0  0  0  0  0  0
  144.9498  142.2283  155.8294 C   0  0  0  0  0  0  0  0  0  0  0  0
  143.7593  142.9869  155.8966 C   0  0  0  0  0  0  0  0  0  0  0  0
  143.3280  143.7392  154.7842 C   0  0  0  0  0  0  0  0  0  0  0  0
  144.0778  143.7445  153.5899 C   0  0  0  0  0  0  0  0  0  0  0  0
  145.2673  142.9963  153.4991 C   0  0  0  0  0  0  0  0  0  0  0  0
  145.6947  142.2477  154.6114 C   0  0  0  0  0  0  0  0  0  0  0  0
  150.6267  142.9423  158.0200 C   0  0  0  0  0  0  0  0  0  0  0  0
  151.0140  143.4955  159.2562 C   0  0  0  0  0  0  0  0  0  0  0  0
  152.8145  142.6581  162.0658 H   0  0  0  0  0  0  0  0  0  0  0  0
  151.3519  143.6477  162.0421 H   0  0  0  0  0  0  0  0  0  0  0  0
  152.8423  144.2542  161.3084 H   0  0  0  0  0  0  0  0  0  0  0  0
  152.8772  140.8914  160.4494 H   0  0  0  0  0  0  0  0  0  0  0  0
  152.1975  139.9217  158.2787 H   0  0  0  0  0  0  0  0  0  0  0  0
  148.9649  142.1166  156.2285 H   0  0  0  0  0  0  0  0  0  0  0  0
  150.2248  142.4040  155.0302 H   0  0  0  0  0  0  0  0  0  0  0  0
  148.8421  139.7253  155.3050 H   0  0  0  0  0  0  0  0  0  0  0  0
  149.7431  140.1043  152.9273 H   0  0  0  0  0  0  0  0  0  0  0  0
  148.1159  141.9732  153.3624 H   0  0  0  0  0  0  0  0  0  0  0  0
  147.5159  140.3351  153.2419 H   0  0  0  0  0  0  0  0  0  0  0  0
  147.3411  140.3273  156.5833 H   0  0  0  0  0  0  0  0  0  0  0  0
  143.1766  142.9896  156.8058 H   0  0  0  0  0  0  0  0  0  0  0  0
  142.4163  144.3148  154.8475 H   0  0  0  0  0  0  0  0  0  0  0  0
  143.7385  144.3232  152.7432 H   0  0  0  0  0  0  0  0  0  0  0  0
  145.8429  142.9968  152.5853 H   0  0  0  0  0  0  0  0  0  0  0  0
  150.0040  143.5384  157.3706 H   0  0  0  0  0  0  0  0  0  0  0  0
  150.6838  144.4885  159.5242 H   0  0  0  0  0  0  0  0  0  0  0  0
  1  2  1  0  0  0  0
  1 22  1  0  0  0  0
  1 23  1  0  0  0  0
  1 24  1  0  0  0  0
  2 21  1  0  0  0  0
  2  3  2  0  0  0  0
  3  4  1  0  0  0  0
  3 25  1  0  0  0  0
  4  5  2  0  0  0  0
  4 26  1  0  0  0  0
  5  6  1  0  0  0  0
  5 20  1  0  0  0  0
  6  7  1  0  0  0  0
  7  8  1  0  0  0  0
  7 27  1  0  0  0  0
  7 28  1  0  0  0  0
  8  9  1  0  0  0  0
  8 10  1  0  0  0  0
  8 29  1  0  0  0  0
  9 30  1  0  0  0  0
 10 11  1  0  0  0  0
 10 31  1  0  0  0  0
 10 32  1  0  0  0  0
 11 19  1  0  0  0  0
 11 12  1  0  0  0  0
 12 13  2  0  0  0  0
 12 33  1  0  0  0  0
 13 14  1  0  0  0  0
 14 19  2  0  0  0  0
 14 15  1  0  0  0  0
 15 16  2  0  0  0  0
 15 34  1  0  0  0  0
 16 17  1  0  0  0  0
 16 35  1  0  0  0  0
 17 18  2  0  0  0  0
 17 36  1  0  0  0  0
 18 19  1  0  0  0  0
 18 37  1  0  0  0  0
 20 21  2  0  0  0  0
 20 38  1  0  0  0  0
 21 39  1  0  0  0  0
M  END
> <s_m_source_file>
AV-unprocessed.smi

> <i_m_source_file_index>
2195

> <i_lp_mmshare_version>
43012

> <i_f3d_flags>
0

> <s_epik_input>
W0NIM11jMVtjSF1bY0hdYyhbY0hdW2NIXTEpT1tDSDJdW0NASF0oW09IXSlbQ0gyXW4oW2NIXW4yKWMoYzIzKVtjSF1bY0hdW2NIXVtjSF0z

> <s_epik_cmdline>
J2VwaWtfcHl0aG9uJywgJy1waCcsICc3LjAnLCAnLXRuJywgJzgnLCAnLW1hJywgJzIwMCcsICctbWV0YWxfYmluZGluZycsICctaW1hZScsICc8aW5maWxlLm1hZT4nLCAnLW9tYWUnLCAnPG91dGZpbGUubWFlPic=

> <r_lp_tautomer_probability>
1

> <r_epik_Ionization_Penalty>
0.0609831

> <r_epik_Ionization_Penalty_Charging>
0

> <r_epik_Ionization_Penalty_Neutral>
0.0609831

> <r_epik_State_Penalty>
0.0529032

> <r_epik_Charging_Adjusted_Penalty>
0.0529032

> <i_epik_Tot_Q>
0

> <i_epik_Tot_abs_Q>
0

> <r_epik_Metal_State_Penalty>
5.53344e-05

> <b_epik_Metal_Only>
0

> <s_lp_Force_Field>
OPLS_2005

> <r_lp_Energy>
15.928

> <b_lp_Chiralities_Consistent>
1

> <s_lp_Variant>
AV-unprocessed.smi:2195-1

> <Gold.Version>
5.8.1

> <Gold.Id.Protein>
6NUR|6NUR_protein|mol2

> <Gold.PLP.Fitness>
53.3848

> <Gold.PLP.PLP>
-48.9035

> <Gold.PLP.part.hbond>
-2.0000

> <Gold.PLP.part.metal>
0.0000

> <Gold.PLP.part.buried>
-6.1576

> <Gold.PLP.part.nonpolar>
-40.6825

> <Gold.PLP.part.repulsive>
0.1449

> <Gold.PLP.ligand.clash>
0.0000

> <Gold.PLP.ligand.torsion>
0.5403

> <Gold.PLP.Chemscore.Hbond>
1.8320

> <Gold.PLP.Chemscore.CHOScore>
0.0000

> <Gold.PLP.Chemscore.Metal>
0.0000

> <Gold.Chemscore.Hbonds>
donor molecule, donor type, donor heavy atom, donor atom, acceptor molecule, acceptor atom, score
      L1  H     9    30       P1  7957  1.00
      P1  H  7989  7998       L1     9  0.82

> <Gold.PLP.Chemscore.Internal.Correction>
0.0659

> <Gold.Rescore>
     Score         DG    S(hbond)    S(metal)    S(lipo)     H(rot)  DE(clash)    DE(int)     intcor
     19.09     -19.88       1.50        0.00     128.12       2.19       0.16       0.62       ----

> <Gold.Chemscore.Fitness>
19.0919

> <Gold.Chemscore.DG>
-19.8758

> <Gold.Chemscore.ZeroCoef>
-5.4800

> <Gold.Chemscore.Hbond>
1.4988

> <Gold.Chemscore.Metal>
0.0000

> <Gold.Chemscore.Lipo>
128.1225

> <Gold.Chemscore.Internal_Hbond>
0.0000

> <Gold.Chemscore.DEClash>
0.1632

> <Gold.Chemscore.DEInternal>
0.6206

> <Gold.Chemscore.Rot>
2.1877

> <Gold.Chemscore.Internal.Correction>
   9.000000E+99

> <Gold.Chemscore.Hbonds>
donor molecule, donor type, donor heavy atom, donor atom, acceptor molecule, acceptor atom, score
      L1  H     9    30       P1  7957  1.00
      P1  H  7989  7998       L1     9  0.21

> <Gold.Chemscore.Hbond.Weighted>
-5.0060

> <Gold.Chemscore.Metal.Weighted>
-0.0000

> <Gold.Chemscore.Lipo.Weighted>
-14.9903

> <Gold.Chemscore.Internal_Hbond.Weighted>
0.0000

> <Gold.Chemscore.DEClash.Weighted>
0.1632

> <Gold.Chemscore.DEInternal.Weighted>
0.6206

> <Gold.Chemscore.Rot.Weighted>
5.6005

> <Gold.Chemscore.Internal.Correction.Weighted>
   9.000000E+99

> <Gold.Protein.RotatedTorsions>
[ 6907 6896 6895 6894 ] final  178.34 input  -60.11 | X-H torsion
[ 7974 7965 7964 7962 ] final    9.96 input  175.53 | X-H torsion
[ 8008 7997 7996 7995 ] final -171.24 input   59.86 | X-H torsion
[ 10167 10162 10161 10158 ] final  166.67 input  -65.29 | X-H torsion
[ 10718 10713 10712 10709 ] final -159.99 input   66.30 | X-H torsion
[ 10763 10752 10751 10750 ] final  -46.48 input  -60.55 | X-H torsion
[ 11005 11000 10999 10996 ] final    9.90 input  -57.11 | X-H torsion

> <Gold.Protein.ActiveResidues>
 VAL166  LYS551  ARG553  GLY616  TRP617  ASP618  TYR619  PRO620  LYS621  CYS622 
 ASP623  PHE694  ASN695  SER759  ASP760  ASP761  ALA762  ILE779  LEU786  VAL792 
 PHE793  MET794  SER795  GLU796  ALA797  LYS798  CYS799  TRP800  GLU811  SER814 

> <Gold.Protein.RotatedAtoms>
  151.6894  133.3311  159.3238 H   0  0  0  0  0  0  0  0  0  0  0  0  # atno 6907 bound_to 6896
  150.7786  134.6712  159.6402 H   0  0  0  0  0  0  0  0  0  0  0  0  # atno 6908 bound_to 6896
  152.3836  134.6555  160.0186 H   0  0  0  0  0  0  0  0  0  0  0  0  # atno 6909 bound_to 6896
  146.2396  139.9705  142.8447 H   0  0  0  0  0  0  0  0  0  0  0  0  # atno 7974 bound_to 7965
  155.9290  140.1087  157.1148 H   0  0  0  0  0  0  0  0  0  0  0  0  # atno 8008 bound_to 7997
  154.4067  140.1241  156.4843 H   0  0  0  0  0  0  0  0  0  0  0  0  # atno 8009 bound_to 7997
  155.7104  140.3471  155.4973 H   0  0  0  0  0  0  0  0  0  0  0  0  # atno 8010 bound_to 7997
  139.4929  144.4003  151.9417 H   0  0  0  0  0  0  0  0  0  0  0  0  # atno 10167 bound_to 10162
  156.5758  130.8708  151.2851 H   0  0  0  0  0  0  0  0  0  0  0  0  # atno 10718 bound_to 10713
  154.0456  135.6638  153.4794 H   0  0  0  0  0  0  0  0  0  0  0  0  # atno 10763 bound_to 10752
  153.0484  135.5100  154.7800 H   0  0  0  0  0  0  0  0  0  0  0  0  # atno 10764 bound_to 10752
  154.6790  135.3042  154.9605 H   0  0  0  0  0  0  0  0  0  0  0  0  # atno 10765 bound_to 10752
  140.5206  134.0563  155.7843 H   0  0  0  0  0  0  0  0  0  0  0  0  # atno 11005 bound_to 11000
  145.1685  140.9709  143.4335 LP  0  0  0  0  0  0  0  0  0  0  0  0  # atno 17320 bound_to 7965
  145.0050  139.3562  143.6148 LP  0  0  0  0  0  0  0  0  0  0  0  0  # atno 17321 bound_to 7965
  140.3442  144.3167  150.5961 LP  0  0  0  0  0  0  0  0  0  0  0  0  # atno 17342 bound_to 10162
  140.5540  143.2202  151.7878 LP  0  0  0  0  0  0  0  0  0  0  0  0  # atno 17343 bound_to 10162
  157.7338  130.9736  150.1995 LP  0  0  0  0  0  0  0  0  0  0  0  0  # atno 17370 bound_to 10713
  156.2675  130.3718  149.8066 LP  0  0  0  0  0  0  0  0  0  0  0  0  # atno 17371 bound_to 10713
  141.1336  133.9260  157.2482 LP  0  0  0  0  0  0  0  0  0  0  0  0  # atno 17394 bound_to 11000
  139.9608  135.0154  156.9255 LP  0  0  0  0  0  0  0  0  0  0  0  0  # atno 17395 bound_to 11000

$$$$
