AV-unprocessed.smi:1426|AV-procd|sdf|5806|dock6
  -GOLD-   22720 5463D 1   1.00000     0.00000
 Structure written by MMmdl.
 43 45  0  0  0  0  0  0  0  0  1 V2000
  150.4026  133.9984  155.4738 O   0  0  0  0  0  0  0  0  0  0  0  0
  149.8640  134.5602  154.5200 C   0  0  0  0  0  0  0  0  0  0  0  0
  150.0041  135.8660  154.2514 N   0  0  0  0  0  0  0  0  0  0  0  0
  150.7743  136.8165  155.0475 C   0  0  0  0  0  0  0  0  0  0  0  0
  150.6454  138.2511  154.5019 C   0  0  1  0  0  0  0  0  0  0  0  0
  149.2647  138.8677  154.6208 C   0  0  0  0  0  0  0  0  0  0  0  0
  149.5679  140.3553  154.4718 C   0  0  0  0  0  0  0  0  0  0  0  0
  150.8801  140.5412  154.9955 O   0  0  0  0  0  0  0  0  0  0  0  0
  151.4846  139.2789  155.2596 C   0  0  0  0  0  0  0  0  0  0  0  0
  149.0456  133.9696  153.6335 N   0  0  0  0  0  0  0  0  0  0  0  0
  148.5910  132.6203  153.6195 C   0  0  0  0  0  0  0  0  0  0  0  0
  149.1716  131.6147  154.4300 C   0  0  0  0  0  0  0  0  0  0  0  0
  148.6765  130.3008  154.3537 C   0  0  0  0  0  0  0  0  0  0  0  0
  147.6230  130.0354  153.4616 C   0  0  0  0  0  0  0  0  0  0  0  0
  147.0719  130.9774  152.6698 N   0  0  0  0  0  0  0  0  0  0  0  0
  147.5396  132.2480  152.7397 C   0  0  0  0  0  0  0  0  0  0  0  0
  146.9694  133.2040  151.8741 N   0  0  0  0  0  0  0  0  0  0  0  0
  146.1842  132.6098  150.7955 C   0  0  0  0  0  0  0  0  0  0  0  0
  144.9803  133.5287  150.5779 C   0  0  0  0  0  0  0  0  0  0  0  0
  144.7832  134.1660  151.9476 C   0  0  0  0  0  0  0  0  0  0  0  0
  146.2183  134.3193  152.4483 C   0  0  0  0  0  0  0  0  0  0  0  0
  149.5212  136.2373  153.4463 H   0  0  0  0  0  0  0  0  0  0  0  0
  150.4801  136.7749  156.0978 H   0  0  0  0  0  0  0  0  0  0  0  0
  151.8192  136.5075  155.0129 H   0  0  0  0  0  0  0  0  0  0  0  0
  150.9448  138.2673  153.4523 H   0  0  0  0  0  0  0  0  0  0  0  0
  148.5627  138.5033  153.8703 H   0  0  0  0  0  0  0  0  0  0  0  0
  148.8432  138.6690  155.6074 H   0  0  0  0  0  0  0  0  0  0  0  0
  149.5726  140.6381  153.4185 H   0  0  0  0  0  0  0  0  0  0  0  0
  148.8397  140.9818  154.9873 H   0  0  0  0  0  0  0  0  0  0  0  0
  151.4422  139.0964  156.3343 H   0  0  0  0  0  0  0  0  0  0  0  0
  152.5318  139.2685  154.9566 H   0  0  0  0  0  0  0  0  0  0  0  0
  148.6052  134.5794  152.9604 H   0  0  0  0  0  0  0  0  0  0  0  0
  149.9944  131.8248  155.0960 H   0  0  0  0  0  0  0  0  0  0  0  0
  149.0985  129.5144  154.9617 H   0  0  0  0  0  0  0  0  0  0  0  0
  147.2182  129.0380  153.3737 H   0  0  0  0  0  0  0  0  0  0  0  0
  146.7783  132.5111  149.8866 H   0  0  0  0  0  0  0  0  0  0  0  0
  145.8437  131.6126  151.0810 H   0  0  0  0  0  0  0  0  0  0  0  0
  145.2281  134.2986  149.8456 H   0  0  0  0  0  0  0  0  0  0  0  0
  144.0980  132.9951  150.2230 H   0  0  0  0  0  0  0  0  0  0  0  0
  144.2437  135.1127  151.9072 H   0  0  0  0  0  0  0  0  0  0  0  0
  144.2319  133.4861  152.5989 H   0  0  0  0  0  0  0  0  0  0  0  0
  146.2656  134.3811  153.5358 H   0  0  0  0  0  0  0  0  0  0  0  0
  146.6498  135.2426  152.0605 H   0  0  0  0  0  0  0  0  0  0  0  0
  1  2  2  0  0  0  0
  2  3  1  0  0  0  0
  2 10  1  0  0  0  0
  3  4  1  0  0  0  0
  3 22  1  0  0  0  0
  4  5  1  0  0  0  0
  4 23  1  0  0  0  0
  4 24  1  0  0  0  0
  5  9  1  0  0  0  0
  5  6  1  0  0  0  0
  5 25  1  0  0  0  0
  6  7  1  0  0  0  0
  6 26  1  0  0  0  0
  6 27  1  0  0  0  0
  7  8  1  0  0  0  0
  7 28  1  0  0  0  0
  7 29  1  0  0  0  0
  8  9  1  0  0  0  0
  9 30  1  0  0  0  0
  9 31  1  0  0  0  0
 10 11  1  0  0  0  0
 10 32  1  0  0  0  0
 11 16  1  0  0  0  0
 11 12  2  0  0  0  0
 12 13  1  0  0  0  0
 12 33  1  0  0  0  0
 13 14  2  0  0  0  0
 13 34  1  0  0  0  0
 14 15  1  0  0  0  0
 14 35  1  0  0  0  0
 15 16  2  0  0  0  0
 16 17  1  0  0  0  0
 17 21  1  0  0  0  0
 17 18  1  0  0  0  0
 18 19  1  0  0  0  0
 18 36  1  0  0  0  0
 18 37  1  0  0  0  0
 19 20  1  0  0  0  0
 19 38  1  0  0  0  0
 19 39  1  0  0  0  0
 20 21  1  0  0  0  0
 20 40  1  0  0  0  0
 20 41  1  0  0  0  0
 21 42  1  0  0  0  0
 21 43  1  0  0  0  0
M  END
> <s_m_source_file>
AV-unprocessed.smi

> <i_m_source_file_index>
1426

> <i_lp_mmshare_version>
43012

> <i_f3d_flags>
0

> <s_epik_input>
W0NIMl0xT1tDSDJdW0NIMl1bQ0BIXTFbQ0gyXVtOSF1DKD1PKVtOSF1jMltjSF1bY0hdW2NIXW5jMk4zW0NIMl1bQ0gyXVtDSDJdW0NIMl0z

> <s_epik_cmdline>
J2VwaWtfcHl0aG9uJywgJy1waCcsICc3LjAnLCAnLXRuJywgJzgnLCAnLW1hJywgJzIwMCcsICctbWV0YWxfYmluZGluZycsICctaW1hZScsICc8aW5maWxlLm1hZT4nLCAnLW9tYWUnLCAnPG91dGZpbGUubWFlPic=

> <r_lp_tautomer_probability>
1

> <r_epik_Ionization_Penalty>
0.0999657

> <r_epik_Ionization_Penalty_Charging>
0

> <r_epik_Ionization_Penalty_Neutral>
0.0999657

> <r_epik_State_Penalty>
0.0894442

> <r_epik_Charging_Adjusted_Penalty>
0.0894442

> <i_epik_Tot_Q>
0

> <i_epik_Tot_abs_Q>
0

> <r_epik_Metal_State_Penalty>
0.076486

> <b_epik_Metal_Only>
0

> <s_lp_Force_Field>
OPLS_2005

> <r_lp_Energy>
46.9111

> <b_lp_Chiralities_Consistent>
1

> <s_lp_Variant>
AV-unprocessed.smi:1426-2

> <Gold.Version>
5.8.1

> <Gold.Id.Protein>
6NUR|6NUR_protein|mol2

> <Gold.PLP.Fitness>
42.7051

> <Gold.PLP.PLP>
-35.3164

> <Gold.PLP.part.hbond>
-4.0000

> <Gold.PLP.part.metal>
0.0000

> <Gold.PLP.part.buried>
-1.4564

> <Gold.PLP.part.nonpolar>
-29.9617

> <Gold.PLP.part.repulsive>
0.6401

> <Gold.PLP.ligand.clash>
0.0000

> <Gold.PLP.ligand.torsion>
0.2759

> <Gold.PLP.Chemscore.Hbond>
2.6075

> <Gold.PLP.Chemscore.CHOScore>
0.0000

> <Gold.PLP.Chemscore.Metal>
0.0000

> <Gold.Chemscore.Hbonds>
donor molecule, donor type, donor heavy atom, donor atom, acceptor molecule, acceptor atom, score
      L1  H     3    22       P1  7948  1.00
      L1  H    10    32       P1  7948  0.78
      P1  H  7989  7998       L1     8  0.76

> <Gold.PLP.Chemscore.Internal.Correction>
0.1180

> <Gold.Rescore>
     Score         DG    S(hbond)    S(metal)    S(lipo)     H(rot)  DE(clash)    DE(int)     intcor
     12.62     -14.29       1.20        0.00      71.28       1.38       0.06       1.61       ----

> <Gold.Chemscore.Fitness>
12.6244

> <Gold.Chemscore.DG>
-14.2947

> <Gold.Chemscore.ZeroCoef>
-5.4800

> <Gold.Chemscore.Hbond>
1.1994

> <Gold.Chemscore.Metal>
0.0000

> <Gold.Chemscore.Lipo>
71.2838

> <Gold.Chemscore.Internal_Hbond>
0.0000

> <Gold.Chemscore.DEClash>
0.0585

> <Gold.Chemscore.DEInternal>
1.6118

> <Gold.Chemscore.Rot>
1.3796

> <Gold.Chemscore.Internal.Correction>
   9.000000E+99

> <Gold.Chemscore.Hbonds>
donor molecule, donor type, donor heavy atom, donor atom, acceptor molecule, acceptor atom, score
      L1  H     3    22       P1  7948  0.49
      L1  H    10    32       P1  7948  0.17
      P1  H  7989  7998       L1     8  0.02

> <Gold.Chemscore.Hbond.Weighted>
-4.0061

> <Gold.Chemscore.Metal.Weighted>
-0.0000

> <Gold.Chemscore.Lipo.Weighted>
-8.3402

> <Gold.Chemscore.Internal_Hbond.Weighted>
0.0000

> <Gold.Chemscore.DEClash.Weighted>
0.0585

> <Gold.Chemscore.DEInternal.Weighted>
1.6118

> <Gold.Chemscore.Rot.Weighted>
3.5317

> <Gold.Chemscore.Internal.Correction.Weighted>
   9.000000E+99

> <Gold.Protein.RotatedTorsions>
[ 6907 6896 6895 6894 ] final  -52.34 input  -60.11 | X-H torsion
[ 7974 7965 7964 7962 ] final   78.90 input  175.53 | X-H torsion
[ 8008 7997 7996 7995 ] final  -56.48 input   59.86 | X-H torsion
[ 10167 10162 10161 10158 ] final  102.54 input  -65.29 | X-H torsion
[ 10718 10713 10712 10709 ] final  -91.37 input   66.30 | X-H torsion
[ 10763 10752 10751 10750 ] final  -51.86 input  -60.55 | X-H torsion
[ 11005 11000 10999 10996 ] final  -45.89 input  -57.11 | X-H torsion

> <Gold.Protein.ActiveResidues>
 VAL166  LYS551  ARG553  GLY616  TRP617  ASP618  TYR619  PRO620  LYS621  CYS622 
 ASP623  PHE694  ASN695  SER759  ASP760  ASP761  ALA762  ILE779  LEU786  VAL792 
 PHE793  MET794  SER795  GLU796  ALA797  LYS798  CYS799  TRP800  GLU811  SER814 

> <Gold.Protein.RotatedAtoms>
  150.8527  134.7857  159.7021 H   0  0  0  0  0  0  0  0  0  0  0  0  # atno 6907 bound_to 6896
  152.4587  134.5229  159.9798 H   0  0  0  0  0  0  0  0  0  0  0  0  # atno 6908 bound_to 6896
  151.5347  133.3405  159.2960 H   0  0  0  0  0  0  0  0  0  0  0  0  # atno 6909 bound_to 6896
  145.6712  139.2497  143.1867 H   0  0  0  0  0  0  0  0  0  0  0  0  # atno 7974 bound_to 7965
  154.4231  140.1129  156.5644 H   0  0  0  0  0  0  0  0  0  0  0  0  # atno 8008 bound_to 7997
  155.6278  140.3495  155.4654 H   0  0  0  0  0  0  0  0  0  0  0  0  # atno 8009 bound_to 7997
  155.9972  140.1191  157.0571 H   0  0  0  0  0  0  0  0  0  0  0  0  # atno 8010 bound_to 7997
  139.7341  144.7028  151.0676 H   0  0  0  0  0  0  0  0  0  0  0  0  # atno 10167 bound_to 10162
  155.9993  130.4945  150.5464 H   0  0  0  0  0  0  0  0  0  0  0  0  # atno 10718 bound_to 10713
  154.1334  135.6516  153.4927 H   0  0  0  0  0  0  0  0  0  0  0  0  # atno 10763 bound_to 10752
  153.0188  135.5298  154.6978 H   0  0  0  0  0  0  0  0  0  0  0  0  # atno 10764 bound_to 10752
  154.6219  135.2965  155.0287 H   0  0  0  0  0  0  0  0  0  0  0  0  # atno 10765 bound_to 10752
  141.0544  133.6731  156.3077 H   0  0  0  0  0  0  0  0  0  0  0  0  # atno 11005 bound_to 11000
  146.1044  140.7505  142.9533 LP  0  0  0  0  0  0  0  0  0  0  0  0  # atno 17320 bound_to 7965
  144.7056  140.3838  143.7121 LP  0  0  0  0  0  0  0  0  0  0  0  0  # atno 17321 bound_to 7965
  140.7776  143.5006  150.9776 LP  0  0  0  0  0  0  0  0  0  0  0  0  # atno 17342 bound_to 10162
  139.8694  143.7211  152.3167 LP  0  0  0  0  0  0  0  0  0  0  0  0  # atno 17343 bound_to 10162
  157.3393  131.0714  151.1800 LP  0  0  0  0  0  0  0  0  0  0  0  0  # atno 17370 bound_to 10713
  157.2654  130.6679  149.5994 LP  0  0  0  0  0  0  0  0  0  0  0  0  # atno 17371 bound_to 10713
  140.5992  134.5572  157.5514 LP  0  0  0  0  0  0  0  0  0  0  0  0  # atno 17394 bound_to 11000
  139.9377  134.7844  156.0758 LP  0  0  0  0  0  0  0  0  0  0  0  0  # atno 17395 bound_to 11000

$$$$
