AV-unprocessed.smi:1698|AV-procd|sdf|6813|dock3
  -GOLD-   22720 7593D 1   1.00000     0.00000
 Structure written by MMmdl.
 28 29  0  0  0  0  0  0  0  0  1 V2000
  146.5914  133.3931  154.0693 O   0  0  0  0  0  0  0  0  0  0  0  0
  147.2763  134.1351  153.3679 C   0  0  0  0  0  0  0  0  0  0  0  0
  146.8962  134.6152  152.1686 N   0  0  0  0  0  0  0  0  0  0  0  0
  145.6739  134.3798  151.4908 C   0  0  0  0  0  0  0  0  0  0  0  0
  145.0532  133.1076  151.3619 C   0  0  0  0  0  0  0  0  0  0  0  0
  143.9212  133.1891  150.6775 N   0  0  0  0  0  0  0  0  0  0  0  0
  143.8133  134.5012  150.3686 N   0  0  0  0  0  0  0  0  0  0  0  0
  144.8575  135.2640  150.8431 C   0  0  0  0  0  0  0  0  0  0  0  0
  148.4966  134.5388  153.7652 N   0  0  0  0  0  0  0  0  0  0  0  0
  149.2040  134.2056  155.0025 C   0  0  2  0  0  0  0  0  0  0  0  0
  150.5855  134.8852  155.0460 C   0  0  0  0  0  0  0  0  0  0  0  0
  151.4196  134.2389  156.1596 C   0  0  0  0  0  0  0  0  0  0  0  0
  150.8480  132.5015  156.2815 S   0  0  0  0  0  0  0  0  0  0  0  0
  151.8406  131.6090  155.6644 O   0  0  0  0  0  0  0  0  0  0  0  0
  150.3549  132.2581  157.6456 O   0  0  0  0  0  0  0  0  0  0  0  0
  149.4236  132.6907  155.1458 C   0  0  0  0  0  0  0  0  0  0  0  0
  143.0302  134.8568  149.8390 H   0  0  0  0  0  0  0  0  0  0  0  0
  147.5521  135.2179  151.6938 H   0  0  0  0  0  0  0  0  0  0  0  0
  145.3800  132.1477  151.7339 H   0  0  0  0  0  0  0  0  0  0  0  0
  144.9165  136.3297  150.6786 H   0  0  0  0  0  0  0  0  0  0  0  0
  148.9856  135.1611  153.1378 H   0  0  0  0  0  0  0  0  0  0  0  0
  148.6381  134.5635  155.8647 H   0  0  0  0  0  0  0  0  0  0  0  0
  151.0942  134.7251  154.0939 H   0  0  0  0  0  0  0  0  0  0  0  0
  150.5032  135.9638  155.1833 H   0  0  0  0  0  0  0  0  0  0  0  0
  152.4911  134.2709  155.9614 H   0  0  0  0  0  0  0  0  0  0  0  0
  151.2280  134.7228  157.1176 H   0  0  0  0  0  0  0  0  0  0  0  0
  148.5560  132.1631  155.5423 H   0  0  0  0  0  0  0  0  0  0  0  0
  149.6980  132.2399  154.1914 H   0  0  0  0  0  0  0  0  0  0  0  0
  1  2  2  0  0  0  0
  2  3  1  0  0  0  0
  2  9  1  0  0  0  0
  3  4  1  0  0  0  0
  3 18  1  0  0  0  0
  4  8  2  0  0  0  0
  4  5  1  0  0  0  0
  5  6  2  0  0  0  0
  5 19  1  0  0  0  0
  6  7  1  0  0  0  0
  7 17  1  0  0  0  0
  7  8  1  0  0  0  0
  8 20  1  0  0  0  0
  9 10  1  0  0  0  0
  9 21  1  0  0  0  0
 10 16  1  0  0  0  0
 10 11  1  0  0  0  0
 10 22  1  0  0  0  0
 11 12  1  0  0  0  0
 11 23  1  0  0  0  0
 11 24  1  0  0  0  0
 12 13  1  0  0  0  0
 12 25  1  0  0  0  0
 12 26  1  0  0  0  0
 13 14  2  0  0  0  0
 13 15  2  0  0  0  0
 13 16  1  0  0  0  0
 16 27  1  0  0  0  0
 16 28  1  0  0  0  0
M  END
> <s_m_source_file>
AV-unprocessed.smi

> <i_m_source_file_index>
1698

> <i_lp_mmshare_version>
43012

> <i_f3d_flags>
0

> <s_epik_input>
Tz1TMSg9TylbQ0gyXVtDSDJdW0NASF0oW0NIMl0xKVtOSF1DKD1PKVtOSF1jMltjSF1uW25IXVtjSF0y

> <s_epik_cmdline>
J2VwaWtfcHl0aG9uJywgJy1waCcsICc3LjAnLCAnLXRuJywgJzgnLCAnLW1hJywgJzIwMCcsICctbWV0YWxfYmluZGluZycsICctaW1hZScsICc8aW5maWxlLm1hZT4nLCAnLW9tYWUnLCAnPG91dGZpbGUubWFlPic=

> <r_lp_tautomer_probability>
1

> <r_epik_Ionization_Penalty>
3.85517e-05

> <r_epik_Ionization_Penalty_Charging>
0

> <r_epik_Ionization_Penalty_Neutral>
3.85517e-05

> <r_epik_State_Penalty>
-0

> <r_epik_Charging_Adjusted_Penalty>
0

> <i_epik_Tot_Q>
0

> <i_epik_Tot_abs_Q>
0

> <r_epik_Metal_State_Penalty>
-0

> <b_epik_Metal_Only>
0

> <s_lp_Force_Field>
OPLS_2005

> <r_lp_Energy>
17.454

> <b_lp_Chiralities_Consistent>
1

> <s_lp_Variant>
AV-unprocessed.smi:1698-1

> <Gold.Version>
5.8.1

> <Gold.Id.Protein>
6NUR|6NUR_protein|mol2

> <Gold.PLP.Fitness>
34.9695

> <Gold.PLP.PLP>
-21.6771

> <Gold.PLP.part.hbond>
-4.0000

> <Gold.PLP.part.metal>
0.0000

> <Gold.PLP.part.buried>
-3.1005

> <Gold.PLP.part.nonpolar>
-14.6900

> <Gold.PLP.part.repulsive>
0.3319

> <Gold.PLP.ligand.clash>
0.0000

> <Gold.PLP.ligand.torsion>
0.3737

> <Gold.PLP.Chemscore.Hbond>
3.6960

> <Gold.PLP.Chemscore.CHOScore>
0.9839

> <Gold.PLP.Chemscore.Metal>
0.0000

> <Gold.Chemscore.Hbonds>
donor molecule, donor type, donor heavy atom, donor atom, acceptor molecule, acceptor atom, score
      L1  H     3    18       P1  7948  0.94
      L1  H     7    17       P1 10186  0.70
      L1  H     9    21       P1  7948  1.00
      P1  H  6896  6909       L1    15  0.80
      L1  C     8    20       P1 10171  0.76

> <Gold.PLP.Chemscore.Internal.Correction>
0.0003

> <Gold.Rescore>
     Score         DG    S(hbond)    S(metal)    S(lipo)     H(rot)  DE(clash)    DE(int)     intcor
     18.66     -19.37       3.69        0.00      35.29       1.00       0.27       0.44       ----

> <Gold.Chemscore.Fitness>
18.6554

> <Gold.Chemscore.DG>
-19.3659

> <Gold.Chemscore.ZeroCoef>
-5.4800

> <Gold.Chemscore.Hbond>
3.6877

> <Gold.Chemscore.Metal>
0.0000

> <Gold.Chemscore.Lipo>
35.2891

> <Gold.Chemscore.Internal_Hbond>
0.0000

> <Gold.Chemscore.DEClash>
0.2692

> <Gold.Chemscore.DEInternal>
0.4412

> <Gold.Chemscore.Rot>
1.0000

> <Gold.Chemscore.Internal.Correction>
   9.000000E+99

> <Gold.Chemscore.Hbonds>
donor molecule, donor type, donor heavy atom, donor atom, acceptor molecule, acceptor atom, score
      L1  H     3    18       P1  7948  0.78
      L1  H     7    17       P1 10186  0.44
      L1  H     9    21       P1  7948  0.28
      P1  H  6896  6909       L1    15  0.75

> <Gold.Chemscore.Hbond.Weighted>
-12.3171

> <Gold.Chemscore.Metal.Weighted>
-0.0000

> <Gold.Chemscore.Lipo.Weighted>
-4.1288

> <Gold.Chemscore.Internal_Hbond.Weighted>
0.0000

> <Gold.Chemscore.DEClash.Weighted>
0.2692

> <Gold.Chemscore.DEInternal.Weighted>
0.4412

> <Gold.Chemscore.Rot.Weighted>
2.5600

> <Gold.Chemscore.Internal.Correction.Weighted>
   9.000000E+99

> <Gold.Protein.RotatedTorsions>
[ 6907 6896 6895 6894 ] final  -31.30 input  -60.11 | X-H torsion
[ 7974 7965 7964 7962 ] final  128.79 input  175.53 | X-H torsion
[ 8008 7997 7996 7995 ] final -152.91 input   59.86 | X-H torsion
[ 10167 10162 10161 10158 ] final  160.43 input  -65.29 | X-H torsion
[ 10718 10713 10712 10709 ] final  -21.15 input   66.30 | X-H torsion
[ 10763 10752 10751 10750 ] final  130.04 input  -60.55 | X-H torsion
[ 11005 11000 10999 10996 ] final  -12.09 input  -57.11 | X-H torsion

> <Gold.Protein.ActiveResidues>
 VAL166  LYS551  ARG553  GLY616  TRP617  ASP618  TYR619  PRO620  LYS621  CYS622 
 ASP623  PHE694  ASN695  SER759  ASP760  ASP761  ALA762  ILE779  LEU786  VAL792 
 PHE793  MET794  SER795  GLU796  ALA797  LYS798  CYS799  TRP800  GLU811  SER814 

> <Gold.Protein.RotatedAtoms>
  151.0939  134.9932  159.8415 H   0  0  0  0  0  0  0  0  0  0  0  0  # atno 6907 bound_to 6896
  152.5431  134.2032  159.8730 H   0  0  0  0  0  0  0  0  0  0  0  0  # atno 6908 bound_to 6896
  151.2070  133.4533  159.2631 H   0  0  0  0  0  0  0  0  0  0  0  0  # atno 6909 bound_to 6896
  145.0357  139.4007  143.5127 H   0  0  0  0  0  0  0  0  0  0  0  0  # atno 7974 bound_to 7965
  155.6625  140.0724  157.2549 H   0  0  0  0  0  0  0  0  0  0  0  0  # atno 8008 bound_to 7997
  154.4139  140.1713  156.1842 H   0  0  0  0  0  0  0  0  0  0  0  0  # atno 8009 bound_to 7997
  155.9685  140.3364  155.6557 H   0  0  0  0  0  0  0  0  0  0  0  0  # atno 8010 bound_to 7997
  139.4840  144.4635  151.8673 H   0  0  0  0  0  0  0  0  0  0  0  0  # atno 10167 bound_to 10162
  156.5221  130.4635  149.6591 H   0  0  0  0  0  0  0  0  0  0  0  0  # atno 10718 bound_to 10713
  153.7516  135.3209  155.3322 H   0  0  0  0  0  0  0  0  0  0  0  0  # atno 10763 bound_to 10752
  154.8261  135.4568  154.0926 H   0  0  0  0  0  0  0  0  0  0  0  0  # atno 10764 bound_to 10752
  153.2130  135.6938  153.8173 H   0  0  0  0  0  0  0  0  0  0  0  0  # atno 10765 bound_to 10752
  140.7621  133.8506  155.9133 H   0  0  0  0  0  0  0  0  0  0  0  0  # atno 11005 bound_to 11000
  146.3504  139.9931  142.8683 LP  0  0  0  0  0  0  0  0  0  0  0  0  # atno 17320 bound_to 7965
  145.1712  140.9722  143.4320 LP  0  0  0  0  0  0  0  0  0  0  0  0  # atno 17321 bound_to 7965
  140.4099  144.2383  150.5889 LP  0  0  0  0  0  0  0  0  0  0  0  0  # atno 17342 bound_to 10162
  140.4977  143.2327  151.8725 LP  0  0  0  0  0  0  0  0  0  0  0  0  # atno 17343 bound_to 10162
  156.3139  130.7244  151.2142 LP  0  0  0  0  0  0  0  0  0  0  0  0  # atno 17370 bound_to 10713
  157.7435  131.0474  150.4940 LP  0  0  0  0  0  0  0  0  0  0  0  0  # atno 17371 bound_to 10713
  140.9653  134.1602  157.4621 LP  0  0  0  0  0  0  0  0  0  0  0  0  # atno 17394 bound_to 11000
  139.8769  134.9959  156.5769 LP  0  0  0  0  0  0  0  0  0  0  0  0  # atno 17395 bound_to 11000

$$$$
