#       Name:                AV-unprocessed.smi:2799
#       Creating user name   scv26
#       Creation time:       Fri Mar 27 15:22:42 2020


#       File generated by GOLD software.
#

@<TRIPOS>MOLECULE
AV-unprocessed.smi:2799
    56    57     1
SMALL
NO_CHARGES


@<TRIPOS>ATOM
      1 ****        -3.3212   4.7837  -0.0042 C.3            1 S1                 0.0000
      2 ****        -1.7972   4.5877  -0.0006 C.3            1 S1                 0.0000
      3 ****        -1.1873   5.1220  -1.3078 C.3            1 S1                 0.0000
      4 ****        -1.4467   3.0990   0.2368 C.3            1 S1                 0.0000
      5 ****         0.0188   2.8057   0.2832 N.4            1 S1                 1.0000
      6 ****         0.6648   3.4377   1.4720 C.3            1 S1                 0.0000
      7 ****         2.1902   3.2796   1.4580 C.3            1 S1                 0.0000
      8 ****         2.5718   1.8035   1.3999 C.3            1 S1                 0.0000
      9 ****         1.9090   1.1593   0.1819 C.3            1 S1                 0.0000
     10 ****         0.3688   1.3461   0.1786 C.3            1 S1                 0.0000
     11 ****        -0.2432   0.6479  -1.0715 C.3            1 S1                 0.0000
     12 ****         0.1499  -0.7534  -1.1984 N.am           1 S1                 0.0000
     13 ****        -0.3076  -1.7531  -0.4308 C.2            1 S1                 0.0000
     14 ****        -1.1301  -1.5843   0.4689 O.2            1 S1                 0.0000
     15 ****         0.2483  -2.9255  -0.7879 N.am           1 S1                 0.0000
     16 ****         0.0802  -4.2065  -0.2320 C.2            1 S1                 0.0000
     17 ****        -0.5428  -4.4663   0.9455 C.2            1 S1                 0.0000
     18 ****        -0.6583  -5.8166   1.4416 C.2            1 S1                 0.0000
     19 ****        -0.1277  -6.8103   0.7156 C.2            1 S1                 0.0000
     20 ****         0.5295  -6.5642  -0.5016 N.am           1 S1                 0.0000
     21 ****         1.0763  -7.7170  -1.2218 C.3            1 S1                 0.0000
     22 ****         0.6649  -5.3082  -1.0220 C.2            1 S1                 0.0000
     23 ****         1.2462  -5.1211  -2.0939 O.2            1 S1                 0.0000
     24 ****        -3.7931   4.2290  -0.8161 H              1 S1                 0.0000
     25 ****        -3.5824   5.8354  -0.1255 H              1 S1                 0.0000
     26 ****        -3.7638   4.4430   0.9324 H              1 S1                 0.0000
     27 ****        -1.4230   5.1946   0.8218 H              1 S1                 0.0000
     28 ****        -1.5394   4.5557  -2.1707 H              1 S1                 0.0000
     29 ****        -0.0987   5.0663  -1.2945 H              1 S1                 0.0000
     30 ****        -1.4551   6.1672  -1.4660 H              1 S1                 0.0000
     31 ****        -1.9095   2.7410   1.1579 H              1 S1                 0.0000
     32 ****        -1.9279   2.5610  -0.5739 H              1 S1                 0.0000
     33 ****         0.4557   4.5042   1.5116 H              1 S1                 0.0000
     34 ****         0.2518   3.0034   2.3840 H              1 S1                 0.0000
     35 ****         2.6098   3.8072   0.6004 H              1 S1                 0.0000
     36 ****         2.6212   3.7399   2.3476 H              1 S1                 0.0000
     37 ****         3.6553   1.6945   1.3429 H              1 S1                 0.0000
     38 ****         2.2514   1.2964   2.3110 H              1 S1                 0.0000
     39 ****         2.3318   1.5854  -0.7292 H              1 S1                 0.0000
     40 ****         2.1741   0.1021   0.1759 H              1 S1                 0.0000
     41 ****        -0.0330   0.8601   1.0693 H              1 S1                 0.0000
     42 ****        -1.3317   0.6522  -1.0579 H              1 S1                 0.0000
     43 ****         0.0621   1.1694  -1.9790 H              1 S1                 0.0000
     44 ****         0.8201  -0.9763  -1.9202 H              1 S1                 0.0000
     45 ****         0.8680  -2.8998  -1.5849 H              1 S1                 0.0000
     46 ****        -0.9608  -3.6848   1.5578 H              1 S1                 0.0000
     47 ****        -1.1604  -6.0213   2.3757 H              1 S1                 0.0000
     48 ****        -0.1731  -7.8461   1.0190 H              1 S1                 0.0000
     49 ****         2.1432  -7.5854  -1.4082 H              1 S1                 0.0000
     50 ****         0.5749  -7.8370  -2.1831 H              1 S1                 0.0000
     51 ****         0.9582  -8.6519  -0.6729 H              1 S1                 0.0000
     52 ****         0.4191   3.2464  -0.5327 H              1 S1                 0.0000
     53 ****        -1.4876  -0.6689   0.6542 LP             1 S1                 0.0000
     54 ****        -1.4410  -2.3624   1.0146 LP             1 S1                 0.0000
     55 ****         1.3355  -4.1944  -2.4592 LP             1 S1                 0.0000
     56 ****         1.6281  -5.8960  -2.5975 LP             1 S1                 0.0000
@<TRIPOS>BOND
    1    1    2 1     
    2    1   24 1     
    3    1   25 1     
    4    1   26 1     
    5    2    3 1     
    6    2    4 1     
    7    2   27 1     
    8    3   28 1     
    9    3   29 1     
   10    3   30 1     
   11    4    5 1     
   12    4   31 1     
   13    4   32 1     
   14    5   10 1     
   15    5    6 1     
   16    5   52 1     
   17    6    7 1     
   18    6   33 1     
   19    6   34 1     
   20    7    8 1     
   21    7   35 1     
   22    7   36 1     
   23    8    9 1     
   24    8   37 1     
   25    8   38 1     
   26    9   10 1     
   27    9   39 1     
   28    9   40 1     
   29   10   11 1     
   30   10   41 1     
   31   11   12 1     
   32   11   42 1     
   33   11   43 1     
   34   12   13 am    
   35   12   44 1     
   36   13   14 2     
   37   13   15 am    
   38   15   16 1     
   39   15   45 1     
   40   16   22 1     
   41   16   17 2     
   42   17   18 1     
   43   17   46 1     
   44   18   19 2     
   45   18   47 1     
   46   19   20 1     
   47   19   48 1     
   48   20   21 1     
   49   20   22 am    
   50   21   49 1     
   51   21   50 1     
   52   21   51 1     
   53   22   23 2     
   54   14   53 1     
   55   14   54 1     
   56   23   55 1     
   57   23   56 1     
@<TRIPOS>SUBSTRUCTURE
      1 S1             1
@<TRIPOS>SET
LONE_PAIRS      STATIC     ATOMS    <user>   **** ""
4 53 54 55 56
DONOR_HYDROGENS      STATIC     ATOMS    <user>   **** ""
3 52 44 45
ATOM$BLUE        STATIC     ATOMS    COLORGROUP SYSTEM
4 53 54 55 56
ATOM$RED        STATIC     ATOMS    COLORGROUP SYSTEM
3 52 44 45
