AV-unprocessed.smi:3032|AV-procd|sdf|11571|dock1
  -GOLD-   2272016533D 1   1.00000     0.00000
 Structure written by MMmdl.
 36 37  0  0  0  0  0  0  0  0  2 V2000
  153.6924  141.9551  160.9407 C   0  0  0  0  0  0  0  0  0  0  0  0
  153.0464  142.7029  159.7654 C   0  0  2  0  0  0  0  0  0  0  0  0
  152.3210  143.9773  160.2391 C   0  0  0  0  0  0  0  0  0  0  0  0
  151.6671  144.7230  159.0651 C   0  0  0  0  0  0  0  0  0  0  0  0
  150.7079  143.8071  158.2893 C   0  0  0  0  0  0  0  0  0  0  0  0
  151.4271  142.5346  157.7962 C   0  0  2  0  0  0  0  0  0  0  0  0
  150.4556  141.6180  157.0404 C   0  0  0  0  0  0  0  0  0  0  0  0
  150.4869  140.3992  157.2161 O   0  0  0  0  0  0  0  0  0  0  0  0
  149.5947  142.2183  156.2053 N   0  0  0  0  0  0  0  0  0  0  0  0
  148.5538  141.5367  155.4428 C   0  0  0  0  0  0  0  0  0  0  0  0
  149.1043  140.8563  154.1758 C   0  0  0  0  0  0  0  0  0  0  0  0
  149.8908  139.5938  154.4685 C   0  0  0  0  0  0  0  0  0  0  0  0
  149.3655  138.4216  154.8805 N   0  5  0  0  0  0  0  0  0  0  0  0
  150.3247  137.5385  155.0780 N   0  0  0  0  0  0  0  0  0  0  0  0
  151.4477  138.2041  154.7842 C   0  0  0  0  0  0  0  0  0  0  0  0
  151.2149  139.4674  154.4133 N   0  0  0  0  0  0  0  0  0  0  0  0
  152.0795  141.7923  158.9827 C   0  0  0  0  0  0  0  0  0  0  0  0
  152.9417  141.6150  161.6549 H   0  0  0  0  0  0  0  0  0  0  0  0
  154.3955  142.5948  161.4749 H   0  0  0  0  0  0  0  0  0  0  0  0
  154.2425  141.0796  160.5938 H   0  0  0  0  0  0  0  0  0  0  0  0
  153.8469  143.0041  159.0881 H   0  0  0  0  0  0  0  0  0  0  0  0
  151.5574  143.7162  160.9732 H   0  0  0  0  0  0  0  0  0  0  0  0
  153.0225  144.6403  160.7464 H   0  0  0  0  0  0  0  0  0  0  0  0
  151.1288  145.5967  159.4335 H   0  0  0  0  0  0  0  0  0  0  0  0
  152.4399  145.0969  158.3923 H   0  0  0  0  0  0  0  0  0  0  0  0
  149.8676  143.5402  158.9326 H   0  0  0  0  0  0  0  0  0  0  0  0
  150.2874  144.3526  157.4431 H   0  0  0  0  0  0  0  0  0  0  0  0
  152.2188  142.8373  157.1080 H   0  0  0  0  0  0  0  0  0  0  0  0
  149.6262  143.2248  156.1321 H   0  0  0  0  0  0  0  0  0  0  0  0
  148.1052  140.7847  156.0925 H   0  0  0  0  0  0  0  0  0  0  0  0
  147.7561  142.2339  155.1825 H   0  0  0  0  0  0  0  0  0  0  0  0
  148.2822  140.6066  153.5048 H   0  0  0  0  0  0  0  0  0  0  0  0
  149.7475  141.5473  153.6298 H   0  0  0  0  0  0  0  0  0  0  0  0
  152.4369  137.7675  154.8437 H   0  0  0  0  0  0  0  0  0  0  0  0
  152.6182  140.9167  158.6170 H   0  0  0  0  0  0  0  0  0  0  0  0
  151.3091  141.4179  159.6592 H   0  0  0  0  0  0  0  0  0  0  0  0
  1  2  1  0  0  0  0
  1 18  1  0  0  0  0
  1 19  1  0  0  0  0
  1 20  1  0  0  0  0
  2 17  1  0  0  0  0
  2  3  1  0  0  0  0
  2 21  1  0  0  0  0
  3  4  1  0  0  0  0
  3 22  1  0  0  0  0
  3 23  1  0  0  0  0
  4  5  1  0  0  0  0
  4 24  1  0  0  0  0
  4 25  1  0  0  0  0
  5  6  1  0  0  0  0
  5 26  1  0  0  0  0
  5 27  1  0  0  0  0
  6  7  1  0  0  0  0
  6 17  1  0  0  0  0
  6 28  1  0  0  0  0
  7  8  2  0  0  0  0
  7  9  1  0  0  0  0
  9 10  1  0  0  0  0
  9 29  1  0  0  0  0
 10 11  1  0  0  0  0
 10 30  1  0  0  0  0
 10 31  1  0  0  0  0
 11 32  1  0  0  0  0
 11 33  1  0  0  0  0
 11 12  1  0  0  0  0
 12 16  2  0  0  0  0
 12 13  1  0  0  0  0
 13 14  1  0  0  0  0
 14 15  2  0  0  0  0
 15 16  1  0  0  0  0
 15 34  1  0  0  0  0
 17 35  1  0  0  0  0
 17 36  1  0  0  0  0
M  CHG  1  13  -1
M  END
> <s_m_source_file>
AV-unprocessed.smi

> <i_m_source_file_index>
3032

> <i_lp_mmshare_version>
43012

> <i_f3d_flags>
0

> <s_epik_input>
W0NIM11bQ0BASF0xW0NIMl1bQ0gyXVtDSDJdW0NASF0oW0NIMl0xKUMoPU8pW05IXVtDSDJdW0NIMl1jMm5uW2NIXVtuSF0y

> <s_epik_cmdline>
J2VwaWtfcHl0aG9uJywgJy1waCcsICc3LjAnLCAnLXRuJywgJzgnLCAnLW1hJywgJzIwMCcsICctbWV0YWxfYmluZGluZycsICctaW1hZScsICc8aW5maWxlLm1hZT4nLCAnLW9tYWUnLCAnPG91dGZpbGUubWFlPic=

> <r_lp_tautomer_probability>
0.948284

> <r_epik_Ionization_Penalty>
12.042

> <r_epik_Ionization_Penalty_Charging>
12.042

> <r_epik_Ionization_Penalty_Neutral>
4.36781e-08

> <r_epik_State_Penalty>
4.67286

> <r_epik_Charging_Adjusted_Penalty>
16.7149

> <i_epik_Tot_Q>
-1

> <i_epik_Tot_abs_Q>
1

> <r_epik_Metal_State_Penalty>
0.981637

> <b_epik_Metal_Only>
1

> <s_lp_Force_Field>
OPLS_2005

> <r_lp_Energy>
10.3443

> <b_lp_Chiralities_Consistent>
1

> <s_lp_Variant>
AV-unprocessed.smi:3032-15

> <Gold.Version>
5.8.1

> <Gold.Id.Protein>
6NUR|6NUR_protein|mol2

> <Gold.PLP.Fitness>
41.7789

> <Gold.PLP.PLP>
-37.3207

> <Gold.PLP.part.hbond>
-2.0000

> <Gold.PLP.part.metal>
0.0000

> <Gold.PLP.part.buried>
-3.0242

> <Gold.PLP.part.nonpolar>
-32.4374

> <Gold.PLP.part.repulsive>
0.4937

> <Gold.PLP.ligand.clash>
0.0000

> <Gold.PLP.ligand.torsion>
0.7843

> <Gold.PLP.Chemscore.Hbond>
2.0000

> <Gold.PLP.Chemscore.CHOScore>
0.0000

> <Gold.PLP.Chemscore.Metal>
0.0000

> <Gold.Chemscore.Hbonds>
donor molecule, donor type, donor heavy atom, donor atom, acceptor molecule, acceptor atom, score
      L1  H     9    29       P1  8028  1.00
      P1  H  7989  7998       L1    16  1.00

> <Gold.PLP.Chemscore.Internal.Correction>
0.0269

> <Gold.Rescore>
     Score         DG    S(hbond)    S(metal)    S(lipo)     H(rot)  DE(clash)    DE(int)     intcor
     15.54     -16.46       1.89        0.00      88.25       2.21       0.01       0.91       ----

> <Gold.Chemscore.Fitness>
15.5355

> <Gold.Chemscore.DG>
-16.4602

> <Gold.Chemscore.ZeroCoef>
-5.4800

> <Gold.Chemscore.Hbond>
1.8938

> <Gold.Chemscore.Metal>
0.0000

> <Gold.Chemscore.Lipo>
88.2488

> <Gold.Chemscore.Internal_Hbond>
0.0000

> <Gold.Chemscore.DEClash>
0.0126

> <Gold.Chemscore.DEInternal>
0.9120

> <Gold.Chemscore.Rot>
2.2149

> <Gold.Chemscore.Internal.Correction>
   9.000000E+99

> <Gold.Chemscore.Hbonds>
donor molecule, donor type, donor heavy atom, donor atom, acceptor molecule, acceptor atom, score
      L1  H     9    29       P1  8028  0.94
      P1  H  7989  7998       L1    16  0.30

> <Gold.Chemscore.Hbond.Weighted>
-6.3253

> <Gold.Chemscore.Metal.Weighted>
-0.0000

> <Gold.Chemscore.Lipo.Weighted>
-10.3251

> <Gold.Chemscore.Internal_Hbond.Weighted>
0.0000

> <Gold.Chemscore.DEClash.Weighted>
0.0126

> <Gold.Chemscore.DEInternal.Weighted>
0.9120

> <Gold.Chemscore.Rot.Weighted>
5.6702

> <Gold.Chemscore.Internal.Correction.Weighted>
   9.000000E+99

> <Gold.Protein.RotatedTorsions>
[ 6907 6896 6895 6894 ] final   46.08 input  -60.11 | X-H torsion
[ 7974 7965 7964 7962 ] final -113.36 input  175.53 | X-H torsion
[ 8008 7997 7996 7995 ] final  -91.26 input   59.86 | X-H torsion
[ 10167 10162 10161 10158 ] final    2.05 input  -65.29 | X-H torsion
[ 10718 10713 10712 10709 ] final  -13.70 input   66.30 | X-H torsion
[ 10763 10752 10751 10750 ] final  170.94 input  -60.55 | X-H torsion
[ 11005 11000 10999 10996 ] final  -80.56 input  -57.11 | X-H torsion

> <Gold.Protein.ActiveResidues>
 VAL166  LYS551  ARG553  GLY616  TRP617  ASP618  TYR619  PRO620  LYS621  CYS622 
 ASP623  PHE694  ASN695  SER759  ASP760  ASP761  ALA762  ILE779  LEU786  VAL792 
 PHE793  MET794  SER795  GLU796  ALA797  LYS798  CYS799  TRP800  GLU811  SER814 

> <Gold.Protein.RotatedAtoms>
  152.2521  134.8121  160.0444 H   0  0  0  0  0  0  0  0  0  0  0  0  # atno 6907 bound_to 6896
  151.8798  133.3487  159.3770 H   0  0  0  0  0  0  0  0  0  0  0  0  # atno 6908 bound_to 6896
  150.7087  134.4957  159.5581 H   0  0  0  0  0  0  0  0  0  0  0  0  # atno 6909 bound_to 6896
  145.1330  140.8735  143.3747 H   0  0  0  0  0  0  0  0  0  0  0  0  # atno 7974 bound_to 7965
  154.7085  140.0521  157.0527 H   0  0  0  0  0  0  0  0  0  0  0  0  # atno 8008 bound_to 7997
  155.0587  140.3187  155.4649 H   0  0  0  0  0  0  0  0  0  0  0  0  # atno 8009 bound_to 7997
  156.2782  140.2102  156.5714 H   0  0  0  0  0  0  0  0  0  0  0  0  # atno 8010 bound_to 7997
  140.6654  143.7194  150.7816 H   0  0  0  0  0  0  0  0  0  0  0  0  # atno 10167 bound_to 10162
  156.6265  130.4890  149.6145 H   0  0  0  0  0  0  0  0  0  0  0  0  # atno 10718 bound_to 10713
  154.4049  135.2755  155.2074 H   0  0  0  0  0  0  0  0  0  0  0  0  # atno 10763 bound_to 10752
  154.4084  135.6028  153.5941 H   0  0  0  0  0  0  0  0  0  0  0  0  # atno 10764 bound_to 10752
  152.9831  135.5943  154.4322 H   0  0  0  0  0  0  0  0  0  0  0  0  # atno 10765 bound_to 10752
  141.1668  133.7156  156.8291 H   0  0  0  0  0  0  0  0  0  0  0  0  # atno 11005 bound_to 11000
  145.0614  139.3102  143.5878 LP  0  0  0  0  0  0  0  0  0  0  0  0  # atno 17320 bound_to 7965
  146.3512  140.0058  142.8672 LP  0  0  0  0  0  0  0  0  0  0  0  0  # atno 17321 bound_to 7965
  140.0871  143.4913  152.2499 LP  0  0  0  0  0  0  0  0  0  0  0  0  # atno 17342 bound_to 10162
  139.5900  144.7546  151.3423 LP  0  0  0  0  0  0  0  0  0  0  0  0  # atno 17343 bound_to 10162
  156.2269  130.6771  151.1425 LP  0  0  0  0  0  0  0  0  0  0  0  0  # atno 17370 bound_to 10713
  157.7212  131.0680  150.6125 LP  0  0  0  0  0  0  0  0  0  0  0  0  # atno 17371 bound_to 10713
  140.2064  134.8860  157.3226 LP  0  0  0  0  0  0  0  0  0  0  0  0  # atno 17394 bound_to 11000
  140.2133  134.4112  155.7602 LP  0  0  0  0  0  0  0  0  0  0  0  0  # atno 17395 bound_to 11000

$$$$
