AV-unprocessed.smi:1008|AV-procd|sdf|4410|dock6
  -GOLD-   22720 2353D 1   1.00000     0.00000
 Structure written by MMmdl.
 23 23  0  0  0  0  0  0  0  0  1 V2000
  146.6360  142.3589  154.1516 C   0  0  0  0  0  0  0  0  0  0  0  0
  147.4286  141.0911  153.8859 C   0  0  0  0  0  0  0  0  0  0  0  0
  146.7440  140.0812  153.1961 N   0  0  0  0  0  0  0  0  0  0  0  0
  147.3447  138.9673  152.9298 C   0  0  0  0  0  0  0  0  0  0  0  0
  146.7942  137.8929  152.2620 N   0  0  0  0  0  0  0  0  0  0  0  0
  148.6675  138.7507  153.3158 N   0  0  0  0  0  0  0  0  0  0  0  0
  149.4123  139.6639  153.9789 C   0  0  0  0  0  0  0  0  0  0  0  0
  150.5775  139.4146  154.2847 O   0  0  0  0  0  0  0  0  0  0  0  0
  148.7236  140.9307  154.2809 C   0  0  0  0  0  0  0  0  0  0  0  0
  149.5015  141.9968  155.0473 C   0  0  0  0  0  0  0  0  0  0  0  0
  149.8550  141.5437  156.4712 C   0  0  0  0  0  0  0  0  0  0  0  0
  150.2006  142.6634  157.2568 O   0  0  0  0  0  0  0  0  0  0  0  0
  149.1014  137.8679  153.0897 H   0  0  0  0  0  0  0  0  0  0  0  0
  147.1816  143.2357  153.8020 H   0  0  0  0  0  0  0  0  0  0  0  0
  146.4456  142.4706  155.2192 H   0  0  0  0  0  0  0  0  0  0  0  0
  145.6736  142.3395  153.6392 H   0  0  0  0  0  0  0  0  0  0  0  0
  145.8463  137.8842  151.9135 H   0  0  0  0  0  0  0  0  0  0  0  0
  147.2923  137.0357  152.0705 H   0  0  0  0  0  0  0  0  0  0  0  0
  150.4131  142.2554  154.5093 H   0  0  0  0  0  0  0  0  0  0  0  0
  148.9196  142.9192  155.0811 H   0  0  0  0  0  0  0  0  0  0  0  0
  149.0122  141.0313  156.9358 H   0  0  0  0  0  0  0  0  0  0  0  0
  150.6942  140.8477  156.4577 H   0  0  0  0  0  0  0  0  0  0  0  0
  149.7327  143.4164  156.9295 H   0  0  0  0  0  0  0  0  0  0  0  0
  1  2  1  0  0  0  0
  1 14  1  0  0  0  0
  1 15  1  0  0  0  0
  1 16  1  0  0  0  0
  2  9  2  0  0  0  0
  2  3  1  0  0  0  0
  3  4  2  0  0  0  0
  4  5  1  0  0  0  0
  4  6  1  0  0  0  0
  5 17  1  0  0  0  0
  5 18  1  0  0  0  0
  6 13  1  0  0  0  0
  6  7  1  0  0  0  0
  7  8  2  0  0  0  0
  7  9  1  0  0  0  0
  9 10  1  0  0  0  0
 10 11  1  0  0  0  0
 10 19  1  0  0  0  0
 10 20  1  0  0  0  0
 11 12  1  0  0  0  0
 11 21  1  0  0  0  0
 11 22  1  0  0  0  0
 12 23  1  0  0  0  0
M  END
> <s_m_source_file>
AV-unprocessed.smi

> <i_m_source_file_index>
1008

> <i_lp_mmshare_version>
43012

> <i_f3d_flags>
0

> <s_epik_input>
W0NIM11jMW5jKFtOSDJdKVtuSF1jKD1PKWMxW0NIMl1bQ0gyXVtPSF0=

> <s_epik_cmdline>
J2VwaWtfcHl0aG9uJywgJy1waCcsICc3LjAnLCAnLXRuJywgJzgnLCAnLW1hJywgJzIwMCcsICctbWV0YWxfYmluZGluZycsICctaW1hZScsICc8aW5maWxlLm1hZT4nLCAnLW9tYWUnLCAnPG91dGZpbGUubWFlPic=

> <r_lp_tautomer_probability>
0.878315

> <r_epik_Ionization_Penalty>
0.000554322

> <r_epik_Ionization_Penalty_Charging>
3.57358e-05

> <r_epik_Ionization_Penalty_Neutral>
0.000518586

> <r_epik_State_Penalty>
0.0663044

> <r_epik_Charging_Adjusted_Penalty>
0.0663402

> <i_epik_Tot_Q>
0

> <i_epik_Tot_abs_Q>
0

> <r_epik_Metal_State_Penalty>
0.196169

> <b_epik_Metal_Only>
0

> <s_lp_Force_Field>
OPLS_2005

> <r_lp_Energy>
7.47934

> <b_lp_Chiralities_Consistent>
1

> <s_lp_Variant>
AV-unprocessed.smi:1008-1

> <Gold.Version>
5.8.1

> <Gold.Id.Protein>
6NUR|6NUR_protein|mol2

> <Gold.PLP.Fitness>
33.1049

> <Gold.PLP.PLP>
-21.8862

> <Gold.PLP.part.hbond>
-5.0000

> <Gold.PLP.part.metal>
0.0000

> <Gold.PLP.part.buried>
2.0113

> <Gold.PLP.part.nonpolar>
-18.9523

> <Gold.PLP.part.repulsive>
0.5103

> <Gold.PLP.ligand.clash>
0.0000

> <Gold.PLP.ligand.torsion>
0.1029

> <Gold.PLP.Chemscore.Hbond>
3.8080

> <Gold.PLP.Chemscore.CHOScore>
0.0000

> <Gold.PLP.Chemscore.Metal>
0.0000

> <Gold.Chemscore.Hbonds>
donor molecule, donor type, donor heavy atom, donor atom, acceptor molecule, acceptor atom, score
      L1  H     5    18       P1  7948  0.93
      L1  H     6    13       P1  7948  0.88
      L1  H    12    23       P1  8028  1.00
      P1  H  7989  7998       L1     8  1.00

> <Gold.PLP.Chemscore.Internal.Correction>
0.0006

> <Gold.Rescore>
     Score         DG    S(hbond)    S(metal)    S(lipo)     H(rot)  DE(clash)    DE(int)     intcor
     13.10     -15.78       3.40        0.00      35.93       2.06       2.56       0.12       ----

> <Gold.Chemscore.Fitness>
13.1023

> <Gold.Chemscore.DG>
-15.7756

> <Gold.Chemscore.ZeroCoef>
-5.4800

> <Gold.Chemscore.Hbond>
3.4026

> <Gold.Chemscore.Metal>
0.0000

> <Gold.Chemscore.Lipo>
35.9256

> <Gold.Chemscore.Internal_Hbond>
0.0000

> <Gold.Chemscore.DEClash>
2.5569

> <Gold.Chemscore.DEInternal>
0.1163

> <Gold.Chemscore.Rot>
2.0595

> <Gold.Chemscore.Internal.Correction>
   9.000000E+99

> <Gold.Chemscore.Hbonds>
donor molecule, donor type, donor heavy atom, donor atom, acceptor molecule, acceptor atom, score
      L1  H     5    18       P1  7948  0.90
      L1  H     6    13       P1  7948  0.80
      L1  H    12    23       P1  8028  0.95
      P1  H  7989  7998       L1     8  0.49

> <Gold.Chemscore.Hbond.Weighted>
-11.3646

> <Gold.Chemscore.Metal.Weighted>
-0.0000

> <Gold.Chemscore.Lipo.Weighted>
-4.2033

> <Gold.Chemscore.Internal_Hbond.Weighted>
0.0000

> <Gold.Chemscore.DEClash.Weighted>
2.5569

> <Gold.Chemscore.DEInternal.Weighted>
0.1163

> <Gold.Chemscore.Rot.Weighted>
5.2724

> <Gold.Chemscore.Internal.Correction.Weighted>
   9.000000E+99

> <Gold.Protein.RotatedTorsions>
[ 6907 6896 6895 6894 ] final -110.71 input  -60.11 | X-H torsion
[ 7974 7965 7964 7962 ] final   99.35 input  175.53 | X-H torsion
[ 8008 7997 7996 7995 ] final  -34.26 input   59.86 | X-H torsion
[ 10167 10162 10161 10158 ] final   21.85 input  -65.29 | X-H torsion
[ 10718 10713 10712 10709 ] final -107.92 input   66.30 | X-H torsion
[ 10763 10752 10751 10750 ] final -134.56 input  -60.55 | X-H torsion
[ 11005 11000 10999 10996 ] final -167.40 input  -57.11 | X-H torsion

> <Gold.Protein.ActiveResidues>
 VAL166  LYS551  ARG553  GLY616  TRP617  ASP618  TYR619  PRO620  LYS621  CYS622 
 ASP623  PHE694  ASN695  SER759  ASP760  ASP761  ALA762  ILE779  LEU786  VAL792 
 PHE793  MET794  SER795  GLU796  ALA797  LYS798  CYS799  TRP800  GLU811  SER814 

> <Gold.Protein.RotatedAtoms>
  150.7642  133.9342  159.3436 H   0  0  0  0  0  0  0  0  0  0  0  0  # atno 6907 bound_to 6896
  151.7244  135.0886  160.0299 H   0  0  0  0  0  0  0  0  0  0  0  0  # atno 6908 bound_to 6896
  152.3629  133.6282  159.6065 H   0  0  0  0  0  0  0  0  0  0  0  0  # atno 6909 bound_to 6896
  145.4001  139.2349  143.3305 H   0  0  0  0  0  0  0  0  0  0  0  0  # atno 7974 bound_to 7965
  154.4125  140.1688  156.2021 H   0  0  0  0  0  0  0  0  0  0  0  0  # atno 8008 bound_to 7997
  155.9515  140.3400  155.6388 H   0  0  0  0  0  0  0  0  0  0  0  0  # atno 8009 bound_to 7997
  155.6864  140.0728  157.2456 H   0  0  0  0  0  0  0  0  0  0  0  0  # atno 8010 bound_to 7997
  140.5394  143.9703  150.6510 H   0  0  0  0  0  0  0  0  0  0  0  0  # atno 10167 bound_to 10162
  156.0460  130.5687  150.7889 H   0  0  0  0  0  0  0  0  0  0  0  0  # atno 10718 bound_to 10713
  154.8717  135.3730  154.4756 H   0  0  0  0  0  0  0  0  0  0  0  0  # atno 10763 bound_to 10752
  153.5413  135.7026  153.5640 H   0  0  0  0  0  0  0  0  0  0  0  0  # atno 10764 bound_to 10752
  153.3801  135.3999  155.1815 H   0  0  0  0  0  0  0  0  0  0  0  0  # atno 10765 bound_to 10752
  140.5537  134.5403  157.5128 H   0  0  0  0  0  0  0  0  0  0  0  0  # atno 11005 bound_to 11000
  146.2756  140.4697  142.8797 LP  0  0  0  0  0  0  0  0  0  0  0  0  # atno 17320 bound_to 7965
  144.8380  140.6812  143.6248 LP  0  0  0  0  0  0  0  0  0  0  0  0  # atno 17321 bound_to 7965
  140.3099  143.3204  152.0889 LP  0  0  0  0  0  0  0  0  0  0  0  0  # atno 17342 bound_to 10162
  139.4983  144.6642  151.6394 LP  0  0  0  0  0  0  0  0  0  0  0  0  # atno 17343 bound_to 10162
  157.5335  131.0937  150.9923 LP  0  0  0  0  0  0  0  0  0  0  0  0  # atno 17370 bound_to 10713
  157.0223  130.5679  149.5333 LP  0  0  0  0  0  0  0  0  0  0  0  0  # atno 17371 bound_to 10713
  139.9442  134.7732  156.0602 LP  0  0  0  0  0  0  0  0  0  0  0  0  # atno 17394 bound_to 11000
  141.1156  133.6629  156.3086 LP  0  0  0  0  0  0  0  0  0  0  0  0  # atno 17395 bound_to 11000

$$$$
