AV-unprocessed.smi:1286|AV-procd|sdf|5377|dock8
  -GOLD-   22720 4523D 1   1.00000     0.00000
 Structure written by MMmdl.
 36 37  0  0  0  0  0  0  0  0  1 V2000
  151.2863  144.7846  158.5624 C   0  0  0  0  0  0  0  0  0  0  0  0
  151.0692  143.2698  158.4236 C   0  0  2  0  0  0  0  0  0  0  0  0
  152.3786  142.4893  158.6503 C   0  0  0  0  0  0  0  0  0  0  0  0
  152.7859  142.4832  160.0442 N   0  0  0  0  0  0  0  0  0  0  0  0
  153.8432  141.8152  160.6258 C   0  0  0  0  0  0  0  0  0  0  0  0
  153.8234  142.1070  161.9595 C   0  0  0  0  0  0  0  0  0  0  0  0
  152.7036  142.9738  162.0992 C   0  0  0  0  0  0  0  0  0  0  0  0
  152.0853  143.1980  160.9510 N   0  0  0  0  0  0  0  0  0  0  0  0
  150.5280  142.9643  157.1008 N   0  0  0  0  0  0  0  0  0  0  0  0
  150.5184  141.7534  156.5227 C   0  0  0  0  0  0  0  0  0  0  0  0
  150.9675  140.7417  157.0613 O   0  0  0  0  0  0  0  0  0  0  0  0
  149.9084  141.6753  155.1188 C   0  0  0  0  0  0  0  0  0  0  0  0
  148.4394  141.1985  155.1050 C   0  0  1  0  0  0  0  0  0  0  0  0
  147.5225  142.0391  155.9611 C   0  0  0  0  0  0  0  0  0  0  0  0
  146.4754  142.5088  155.2871 C   0  0  0  0  0  0  0  0  0  0  0  0
  146.4793  142.0814  153.8458 C   0  0  0  0  0  0  0  0  0  0  0  0
  147.7892  141.2746  153.6995 C   0  0  0  0  0  0  0  0  0  0  0  0
  151.6755  145.0350  159.5495 H   0  0  0  0  0  0  0  0  0  0  0  0
  150.3520  145.3315  158.4313 H   0  0  0  0  0  0  0  0  0  0  0  0
  151.9958  145.1540  157.8211 H   0  0  0  0  0  0  0  0  0  0  0  0
  150.3533  142.9598  159.1874 H   0  0  0  0  0  0  0  0  0  0  0  0
  152.2754  141.4574  158.3111 H   0  0  0  0  0  0  0  0  0  0  0  0
  153.1861  142.9293  158.0632 H   0  0  0  0  0  0  0  0  0  0  0  0
  154.5113  141.1927  160.0492 H   0  0  0  0  0  0  0  0  0  0  0  0
  154.5047  141.7547  162.7197 H   0  0  0  0  0  0  0  0  0  0  0  0
  152.3243  143.4438  162.9948 H   0  0  0  0  0  0  0  0  0  0  0  0
  150.1355  143.7363  156.5820 H   0  0  0  0  0  0  0  0  0  0  0  0
  149.9815  142.6512  154.6351 H   0  0  0  0  0  0  0  0  0  0  0  0
  150.5193  140.9932  154.5263 H   0  0  0  0  0  0  0  0  0  0  0  0
  148.3818  140.1722  155.4716 H   0  0  0  0  0  0  0  0  0  0  0  0
  147.7100  142.2127  157.0108 H   0  0  0  0  0  0  0  0  0  0  0  0
  145.6901  143.1219  155.7044 H   0  0  0  0  0  0  0  0  0  0  0  0
  145.6019  141.4693  153.6352 H   0  0  0  0  0  0  0  0  0  0  0  0
  146.4639  142.9520  153.1895 H   0  0  0  0  0  0  0  0  0  0  0  0
  148.4502  141.7689  152.9862 H   0  0  0  0  0  0  0  0  0  0  0  0
  147.5912  140.2761  153.3075 H   0  0  0  0  0  0  0  0  0  0  0  0
  1  2  1  0  0  0  0
  1 18  1  0  0  0  0
  1 19  1  0  0  0  0
  1 20  1  0  0  0  0
  2  3  1  0  0  0  0
  2  9  1  0  0  0  0
  2 21  1  0  0  0  0
  3  4  1  0  0  0  0
  3 22  1  0  0  0  0
  3 23  1  0  0  0  0
  4  8  1  0  0  0  0
  4  5  1  0  0  0  0
  5  6  2  0  0  0  0
  5 24  1  0  0  0  0
  6  7  1  0  0  0  0
  6 25  1  0  0  0  0
  7  8  2  0  0  0  0
  7 26  1  0  0  0  0
  9 10  1  0  0  0  0
  9 27  1  0  0  0  0
 10 11  2  0  0  0  0
 10 12  1  0  0  0  0
 12 13  1  0  0  0  0
 12 28  1  0  0  0  0
 12 29  1  0  0  0  0
 13 17  1  0  0  0  0
 13 14  1  0  0  0  0
 13 30  1  0  0  0  0
 14 15  2  0  0  0  0
 14 31  1  0  0  0  0
 15 16  1  0  0  0  0
 15 32  1  0  0  0  0
 16 17  1  0  0  0  0
 16 33  1  0  0  0  0
 16 34  1  0  0  0  0
 17 35  1  0  0  0  0
 17 36  1  0  0  0  0
M  END
> <s_m_source_file>
AV-unprocessed.smi

> <i_m_source_file_index>
1286

> <i_lp_mmshare_version>
43012

> <i_f3d_flags>
0

> <s_epik_input>
bjFbY0hdW2NIXVtjSF1uMVtDSDJdW0NAQEhdKFtDSDNdKVtOSF1DKD1PKVtDSDJdW0NAQEhdMltDSF09W0NIXVtDSDJdW0NIMl0y

> <s_epik_cmdline>
J2VwaWtfcHl0aG9uJywgJy1waCcsICc3LjAnLCAnLXRuJywgJzgnLCAnLW1hJywgJzIwMCcsICctbWV0YWxfYmluZGluZycsICctaW1hZScsICc8aW5maWxlLm1hZT4nLCAnLW9tYWUnLCAnPG91dGZpbGUubWFlPic=

> <r_lp_tautomer_probability>
1

> <r_epik_Ionization_Penalty>
0.000301761

> <r_epik_Ionization_Penalty_Charging>
0

> <r_epik_Ionization_Penalty_Neutral>
0.000301761

> <r_epik_State_Penalty>
-0

> <r_epik_Charging_Adjusted_Penalty>
0

> <i_epik_Tot_Q>
0

> <i_epik_Tot_abs_Q>
0

> <r_epik_Metal_State_Penalty>
-0

> <b_epik_Metal_Only>
0

> <s_lp_Force_Field>
OPLS_2005

> <r_lp_Energy>
17.4811

> <b_lp_Chiralities_Consistent>
1

> <s_lp_Variant>
AV-unprocessed.smi:1286-3

> <Gold.Version>
5.8.1

> <Gold.Id.Protein>
6NUR|6NUR_protein|mol2

> <Gold.PLP.Fitness>
44.1861

> <Gold.PLP.PLP>
-42.5559

> <Gold.PLP.part.hbond>
-1.0400

> <Gold.PLP.part.metal>
0.0000

> <Gold.PLP.part.buried>
-2.8226

> <Gold.PLP.part.nonpolar>
-37.5196

> <Gold.PLP.part.repulsive>
0.1156

> <Gold.PLP.ligand.clash>
0.0000

> <Gold.PLP.ligand.torsion>
0.6951

> <Gold.PLP.Chemscore.Hbond>
1.0000

> <Gold.PLP.Chemscore.CHOScore>
0.0000

> <Gold.PLP.Chemscore.Metal>
0.0000

> <Gold.Chemscore.Hbonds>
donor molecule, donor type, donor heavy atom, donor atom, acceptor molecule, acceptor atom, score
      L1  H     9    27       P1  8028  1.00

> <Gold.PLP.Chemscore.Internal.Correction>
0.0204

> <Gold.Rescore>
     Score         DG    S(hbond)    S(metal)    S(lipo)     H(rot)  DE(clash)    DE(int)     intcor
     14.35     -16.28       1.00        0.00      99.75       1.64       0.02       1.91       ----

> <Gold.Chemscore.Fitness>
14.3498

> <Gold.Chemscore.DG>
-16.2828

> <Gold.Chemscore.ZeroCoef>
-5.4800

> <Gold.Chemscore.Hbond>
0.9966

> <Gold.Chemscore.Metal>
0.0000

> <Gold.Chemscore.Lipo>
99.7521

> <Gold.Chemscore.Internal_Hbond>
0.0000

> <Gold.Chemscore.DEClash>
0.0212

> <Gold.Chemscore.DEInternal>
1.9118

> <Gold.Chemscore.Rot>
1.6394

> <Gold.Chemscore.Internal.Correction>
   9.000000E+99

> <Gold.Chemscore.Hbonds>
donor molecule, donor type, donor heavy atom, donor atom, acceptor molecule, acceptor atom, score
      L1  H     9    27       P1  8028  1.00

> <Gold.Chemscore.Hbond.Weighted>
-3.3288

> <Gold.Chemscore.Metal.Weighted>
-0.0000

> <Gold.Chemscore.Lipo.Weighted>
-11.6710

> <Gold.Chemscore.Internal_Hbond.Weighted>
0.0000

> <Gold.Chemscore.DEClash.Weighted>
0.0212

> <Gold.Chemscore.DEInternal.Weighted>
1.9118

> <Gold.Chemscore.Rot.Weighted>
4.1969

> <Gold.Chemscore.Internal.Correction.Weighted>
   9.000000E+99

> <Gold.Protein.RotatedTorsions>
[ 6907 6896 6895 6894 ] final   62.15 input  -60.11 | X-H torsion
[ 7974 7965 7964 7962 ] final   37.10 input  175.53 | X-H torsion
[ 8008 7997 7996 7995 ] final  135.52 input   59.86 | X-H torsion
[ 10167 10162 10161 10158 ] final  121.65 input  -65.29 | X-H torsion
[ 10718 10713 10712 10709 ] final -178.99 input   66.30 | X-H torsion
[ 10763 10752 10751 10750 ] final  -83.68 input  -60.55 | X-H torsion
[ 11005 11000 10999 10996 ] final  160.47 input  -57.11 | X-H torsion

> <Gold.Protein.ActiveResidues>
 VAL166  LYS551  ARG553  GLY616  TRP617  ASP618  TYR619  PRO620  LYS621  CYS622 
 ASP623  PHE694  ASN695  SER759  ASP760  ASP761  ALA762  ILE779  LEU786  VAL792 
 PHE793  MET794  SER795  GLU796  ALA797  LYS798  CYS799  TRP800  GLU811  SER814 

> <Gold.Protein.RotatedAtoms>
  152.4148  134.6060  160.0012 H   0  0  0  0  0  0  0  0  0  0  0  0  # atno 6907 bound_to 6896
  151.6227  133.3332  159.3099 H   0  0  0  0  0  0  0  0  0  0  0  0  # atno 6908 bound_to 6896
  150.8037  134.7188  159.6691 H   0  0  0  0  0  0  0  0  0  0  0  0  # atno 6909 bound_to 6896
  146.1162  139.5935  142.9319 H   0  0  0  0  0  0  0  0  0  0  0  0  # atno 7974 bound_to 7965
  156.3003  140.2468  156.3594 H   0  0  0  0  0  0  0  0  0  0  0  0  # atno 8008 bound_to 7997
  154.8891  140.0410  157.1847 H   0  0  0  0  0  0  0  0  0  0  0  0  # atno 8009 bound_to 7997
  154.8616  140.2921  155.5539 H   0  0  0  0  0  0  0  0  0  0  0  0  # atno 8010 bound_to 7997
  139.5906  144.7024  151.3299 H   0  0  0  0  0  0  0  0  0  0  0  0  # atno 10167 bound_to 10162
  156.8524  130.9724  151.3091 H   0  0  0  0  0  0  0  0  0  0  0  0  # atno 10718 bound_to 10713
  154.5906  135.5547  153.7275 H   0  0  0  0  0  0  0  0  0  0  0  0  # atno 10763 bound_to 10752
  153.0115  135.6342  154.1854 H   0  0  0  0  0  0  0  0  0  0  0  0  # atno 10764 bound_to 10752
  154.1795  135.2888  155.3036 H   0  0  0  0  0  0  0  0  0  0  0  0  # atno 10765 bound_to 10752
  140.2062  134.8301  157.3072 H   0  0  0  0  0  0  0  0  0  0  0  0  # atno 11005 bound_to 11000
  145.5561  141.0409  143.2252 LP  0  0  0  0  0  0  0  0  0  0  0  0  # atno 17320 bound_to 7965
  144.7555  139.7085  143.7255 LP  0  0  0  0  0  0  0  0  0  0  0  0  # atno 17321 bound_to 7965
  140.7170  143.7240  150.7674 LP  0  0  0  0  0  0  0  0  0  0  0  0  # atno 17342 bound_to 10162
  140.0795  143.4983  152.2538 LP  0  0  0  0  0  0  0  0  0  0  0  0  # atno 17343 bound_to 10162
  157.6296  130.8718  149.9250 LP  0  0  0  0  0  0  0  0  0  0  0  0  # atno 17370 bound_to 10713
  156.0821  130.3672  150.0560 LP  0  0  0  0  0  0  0  0  0  0  0  0  # atno 17371 bound_to 10713
  140.2000  134.4266  155.7668 LP  0  0  0  0  0  0  0  0  0  0  0  0  # atno 17394 bound_to 11000
  141.2227  133.7067  156.8168 LP  0  0  0  0  0  0  0  0  0  0  0  0  # atno 17395 bound_to 11000

$$$$
