#       Name:                AV-unprocessed.smi:2490
#       Creating user name   scv26
#       Creation time:       Fri Mar 27 13:44:06 2020


#       File generated by GOLD software.
#

@<TRIPOS>MOLECULE
AV-unprocessed.smi:2490
    40    41     1
SMALL
NO_CHARGES


@<TRIPOS>ATOM
      1 ****        -4.4384  -3.6053   0.3659 C.3            1 S1                 0.0000
      2 ****        -3.0404  -3.2073   0.3095 N.am           1 S1                 0.0000
      3 ****        -2.6047  -1.9473   0.4567 C.2            1 S1                 0.0000
      4 ****        -3.3623  -0.9980   0.6626 O.2            1 S1                 0.0000
      5 ****        -1.0859  -1.7377   0.3785 C.3            1 S1                 0.0000
      6 ****        -0.6992  -0.2605   0.1397 C.3            1 S1                 0.0000
      7 ****         0.7434  -0.1298  -0.0195 N.3            1 S1                 0.0000
      8 ****         1.2619   1.1500   0.0361 C.ar           1 S1                 0.0000
      9 ****         0.9483   1.9885  -0.9591 N.ar           1 S1                 0.0000
     10 ****         1.4621   3.2356  -0.8919 C.ar           1 S1                 0.0000
     11 ****         2.2911   3.6381   0.1754 C.ar           1 S1                 0.0000
     12 ****         2.8660   5.0363   0.2495 C.3            1 S1                 0.0000
     13 ****         2.5518   2.6678   1.1656 C.ar           1 S1                 0.0000
     14 ****         2.0348   1.4225   1.0911 N.ar           1 S1                 0.0000
     15 ****         1.2722  -1.0055  -1.0557 C.3            1 S1                 0.0000
     16 ****         0.8491  -2.4584  -0.7864 C.3            1 S1                 0.0000
     17 ****        -0.5697  -2.5318  -0.6908 O.3            1 S1                 0.0000
     18 ****        -4.5229  -4.6836   0.2313 H              1 S1                 0.0000
     19 ****        -5.0127  -3.1170  -0.4224 H              1 S1                 0.0000
     20 ****        -4.8781  -3.3465   1.3300 H              1 S1                 0.0000
     21 ****        -2.3573  -3.9325   0.1438 H              1 S1                 0.0000
     22 ****        -0.6572  -2.0830   1.3211 H              1 S1                 0.0000
     23 ****        -1.1951   0.1235  -0.7532 H              1 S1                 0.0000
     24 ****        -1.0252   0.3553   0.9794 H              1 S1                 0.0000
     25 ****         1.2102   3.9136  -1.6940 H              1 S1                 0.0000
     26 ****         3.5094   5.1516   1.1223 H              1 S1                 0.0000
     27 ****         2.0636   5.7713   0.3160 H              1 S1                 0.0000
     28 ****         3.4568   5.2498  -0.6415 H              1 S1                 0.0000
     29 ****         3.1756   2.8877   2.0197 H              1 S1                 0.0000
     30 ****         0.9021  -0.6798  -2.0288 H              1 S1                 0.0000
     31 ****         2.3601  -0.9311  -1.0831 H              1 S1                 0.0000
     32 ****         1.1841  -3.1044  -1.5978 H              1 S1                 0.0000
     33 ****         1.3063  -2.8336   0.1306 H              1 S1                 0.0000
     34 ****        -4.3486  -1.1501   0.7265 LP             1 S1                 0.0000
     35 ****        -2.9910  -0.0752   0.7658 LP             1 S1                 0.0000
     36 ****         1.1251  -0.4862   0.8333 LP             1 S1                 0.0000
     37 ****         0.3609   1.7047  -1.7170 LP             1 S1                 0.0000
     38 ****         2.2219   0.7358   1.7935 LP             1 S1                 0.0000
     39 ****        -0.9665  -2.2097  -1.5504 LP             1 S1                 0.0000
     40 ****        -0.8323  -3.4846  -0.5388 LP             1 S1                 0.0000
@<TRIPOS>BOND
    1    1    2 1     
    2    1   18 1     
    3    1   19 1     
    4    1   20 1     
    5    2    3 am    
    6    2   21 1     
    7    3    4 2     
    8    3    5 1     
    9    5   17 1     
   10    5    6 1     
   11    5   22 1     
   12    6    7 1     
   13    6   23 1     
   14    6   24 1     
   15    7    8 1     
   16    7   15 1     
   17    8   14 ar    
   18    8    9 ar    
   19    9   10 ar    
   20   10   11 ar    
   21   10   25 1     
   22   11   12 1     
   23   11   13 ar    
   24   12   26 1     
   25   12   27 1     
   26   12   28 1     
   27   13   14 ar    
   28   13   29 1     
   29   15   16 1     
   30   15   30 1     
   31   15   31 1     
   32   16   17 1     
   33   16   32 1     
   34   16   33 1     
   35    4   34 1     
   36    4   35 1     
   37    7   36 1     
   38    9   37 1     
   39   14   38 1     
   40   17   39 1     
   41   17   40 1     
@<TRIPOS>SUBSTRUCTURE
      1 S1             1
@<TRIPOS>SET
LONE_PAIRS      STATIC     ATOMS    <user>   **** ""
7 34 35 36 37 38 39 40
DONOR_HYDROGENS      STATIC     ATOMS    <user>   **** ""
1 21
ATOM$BLUE        STATIC     ATOMS    COLORGROUP SYSTEM
7 34 35 36 37 38 39 40
ATOM$RED        STATIC     ATOMS    COLORGROUP SYSTEM
1 21
