AV-unprocessed.smi:682|AV-procd|sdf|3327|dock7
  -GOLD-   22720 0293D 1   1.00000     0.00000
 Structure written by MMmdl.
 41 42  0  0  0  0  0  0  0  0  1 V2000
  146.3741  142.6599  154.6950 C   0  0  0  0  0  0  0  0  0  0  0  0
  146.8757  141.4320  155.2085 O   0  0  0  0  0  0  0  0  0  0  0  0
  147.8584  140.7424  154.4238 C   0  0  2  0  0  0  0  0  0  0  0  0
  149.1799  141.5209  154.4083 C   0  0  0  0  0  0  0  0  0  0  0  0
  147.2421  140.2739  153.0913 C   0  0  0  0  0  0  0  0  0  0  0  0
  146.7049  139.0626  153.8510 C   0  0  1  0  0  0  0  0  0  0  0  0
  146.7533  137.8348  153.0642 N   0  0  0  0  0  0  0  0  0  0  0  0
  145.6851  137.0761  152.7848 C   0  0  0  0  0  0  0  0  0  0  0  0
  144.5418  137.3513  153.1495 O   0  0  0  0  0  0  0  0  0  0  0  0
  146.0288  135.9902  152.0733 N   0  0  0  0  0  0  0  0  0  0  0  0
  145.1727  134.9575  151.6136 C   0  0  0  0  0  0  0  0  0  0  0  0
  143.9992  134.5208  152.2816 C   0  0  0  0  0  0  0  0  0  0  0  0
  143.4036  133.5433  151.6149 N   0  0  0  0  0  0  0  0  0  0  0  0
  144.1791  133.3416  150.5218 N   0  0  0  0  0  0  0  0  0  0  0  0
  143.8027  132.3238  149.5643 C   0  0  0  0  0  0  0  0  0  0  0  0
  145.2697  134.1876  150.4890 C   0  0  0  0  0  0  0  0  0  0  0  0
  147.8709  139.2399  154.8579 C   0  0  0  0  0  0  0  0  0  0  0  0
  149.1679  138.4633  154.5603 C   0  0  0  0  0  0  0  0  0  0  0  0
  147.5388  138.9463  156.3252 C   0  0  0  0  0  0  0  0  0  0  0  0
  145.5268  142.9789  155.3018 H   0  0  0  0  0  0  0  0  0  0  0  0
  146.0282  142.5707  153.6657 H   0  0  0  0  0  0  0  0  0  0  0  0
  147.1220  143.4511  154.7463 H   0  0  0  0  0  0  0  0  0  0  0  0
  149.9683  140.9710  153.8956 H   0  0  0  0  0  0  0  0  0  0  0  0
  149.5300  141.7266  155.4200 H   0  0  0  0  0  0  0  0  0  0  0  0
  149.0879  142.4722  153.8847 H   0  0  0  0  0  0  0  0  0  0  0  0
  146.4690  140.9140  152.6676 H   0  0  0  0  0  0  0  0  0  0  0  0
  147.9947  140.0218  152.3420 H   0  0  0  0  0  0  0  0  0  0  0  0
  145.7265  139.2673  154.2924 H   0  0  0  0  0  0  0  0  0  0  0  0
  147.6574  137.5401  152.7256 H   0  0  0  0  0  0  0  0  0  0  0  0
  147.0064  135.8854  151.8452 H   0  0  0  0  0  0  0  0  0  0  0  0
  143.5676  134.8730  153.2069 H   0  0  0  0  0  0  0  0  0  0  0  0
  144.5289  132.2870  148.7519 H   0  0  0  0  0  0  0  0  0  0  0  0
  142.8202  132.5520  149.1503 H   0  0  0  0  0  0  0  0  0  0  0  0
  143.7692  131.3499  150.0537 H   0  0  0  0  0  0  0  0  0  0  0  0
  145.9928  134.1617  149.6873 H   0  0  0  0  0  0  0  0  0  0  0  0
  149.0440  137.3925  154.7260 H   0  0  0  0  0  0  0  0  0  0  0  0
  149.9865  138.7942  155.2002 H   0  0  0  0  0  0  0  0  0  0  0  0
  149.4966  138.5889  153.5286 H   0  0  0  0  0  0  0  0  0  0  0  0
  147.4983  137.8743  156.5207 H   0  0  0  0  0  0  0  0  0  0  0  0
  146.5687  139.3515  156.6135 H   0  0  0  0  0  0  0  0  0  0  0  0
  148.2827  139.3770  156.9958 H   0  0  0  0  0  0  0  0  0  0  0  0
  1  2  1  0  0  0  0
  1 20  1  0  0  0  0
  1 21  1  0  0  0  0
  1 22  1  0  0  0  0
  2  3  1  0  0  0  0
  3 17  1  0  0  0  0
  3  4  1  0  0  0  0
  3  5  1  0  0  0  0
  4 23  1  0  0  0  0
  4 24  1  0  0  0  0
  4 25  1  0  0  0  0
  5  6  1  0  0  0  0
  5 26  1  0  0  0  0
  5 27  1  0  0  0  0
  6  7  1  0  0  0  0
  6 17  1  0  0  0  0
  6 28  1  0  0  0  0
  7  8  1  0  0  0  0
  7 29  1  0  0  0  0
  8  9  2  0  0  0  0
  8 10  1  0  0  0  0
 10 11  1  0  0  0  0
 10 30  1  0  0  0  0
 11 16  2  0  0  0  0
 11 12  1  0  0  0  0
 12 13  2  0  0  0  0
 12 31  1  0  0  0  0
 13 14  1  0  0  0  0
 14 15  1  0  0  0  0
 14 16  1  0  0  0  0
 15 32  1  0  0  0  0
 15 33  1  0  0  0  0
 15 34  1  0  0  0  0
 16 35  1  0  0  0  0
 17 18  1  0  0  0  0
 17 19  1  0  0  0  0
 18 36  1  0  0  0  0
 18 37  1  0  0  0  0
 18 38  1  0  0  0  0
 19 39  1  0  0  0  0
 19 40  1  0  0  0  0
 19 41  1  0  0  0  0
M  END
> <s_m_source_file>
AV-unprocessed.smi

> <i_m_source_file_index>
682

> <i_lp_mmshare_version>
43012

> <i_f3d_flags>
0

> <s_epik_input>
W0NIM11PW0NAQF0xKFtDSDNdKVtDSDJdW0NASF0oQzEoW0NIM10pW0NIM10pW05IXUMoPU8pW05IXWMyW2NIXW5uKFtDSDNdKVtjSF0y

> <s_epik_cmdline>
J2VwaWtfcHl0aG9uJywgJy1waCcsICc3LjAnLCAnLXRuJywgJzgnLCAnLW1hJywgJzIwMCcsICctbWV0YWxfYmluZGluZycsICctaW1hZScsICc8aW5maWxlLm1hZT4nLCAnLW9tYWUnLCAnPG91dGZpbGUubWFlPic=

> <r_lp_tautomer_probability>
1

> <r_epik_Ionization_Penalty>
0.000192302

> <r_epik_Ionization_Penalty_Charging>
0

> <r_epik_Ionization_Penalty_Neutral>
0.000192302

> <r_epik_State_Penalty>
-0

> <r_epik_Charging_Adjusted_Penalty>
0

> <i_epik_Tot_Q>
0

> <i_epik_Tot_abs_Q>
0

> <r_epik_Metal_State_Penalty>
-0

> <b_epik_Metal_Only>
0

> <s_lp_Force_Field>
OPLS_2005

> <r_lp_Energy>
24.7984

> <b_lp_Chiralities_Consistent>
1

> <s_lp_Variant>
AV-unprocessed.smi:682-2

> <Gold.Version>
5.8.1

> <Gold.Id.Protein>
6NUR|6NUR_protein|mol2

> <Gold.PLP.Fitness>
37.0209

> <Gold.PLP.PLP>
-28.5707

> <Gold.PLP.part.hbond>
-2.0000

> <Gold.PLP.part.metal>
0.0000

> <Gold.PLP.part.buried>
-1.8804

> <Gold.PLP.part.nonpolar>
-25.2645

> <Gold.PLP.part.repulsive>
0.5222

> <Gold.PLP.ligand.clash>
0.0000

> <Gold.PLP.ligand.torsion>
0.4620

> <Gold.PLP.Chemscore.Hbond>
2.0000

> <Gold.PLP.Chemscore.CHOScore>
1.0000

> <Gold.PLP.Chemscore.Metal>
0.0000

> <Gold.Chemscore.Hbonds>
donor molecule, donor type, donor heavy atom, donor atom, acceptor molecule, acceptor atom, score
      L1  H     7    29       P1  7948  1.00
      L1  H    10    30       P1  7948  1.00
      L1  C    16    35       P1  7921  1.00

> <Gold.PLP.Chemscore.Internal.Correction>
0.3742

> <Gold.Rescore>
     Score         DG    S(hbond)    S(metal)    S(lipo)     H(rot)  DE(clash)    DE(int)     intcor
     15.02     -16.62       1.96        0.00      66.37       1.23       0.15       1.45       ----

> <Gold.Chemscore.Fitness>
15.0199

> <Gold.Chemscore.DG>
-16.6238

> <Gold.Chemscore.ZeroCoef>
-5.4800

> <Gold.Chemscore.Hbond>
1.9571

> <Gold.Chemscore.Metal>
0.0000

> <Gold.Chemscore.Lipo>
66.3701

> <Gold.Chemscore.Internal_Hbond>
0.0000

> <Gold.Chemscore.DEClash>
0.1512

> <Gold.Chemscore.DEInternal>
1.4527

> <Gold.Chemscore.Rot>
1.2336

> <Gold.Chemscore.Internal.Correction>
   9.000000E+99

> <Gold.Chemscore.Hbonds>
donor molecule, donor type, donor heavy atom, donor atom, acceptor molecule, acceptor atom, score
      L1  H     7    29       P1  7948  0.92
      L1  H    10    30       P1  7948  0.98

> <Gold.Chemscore.Hbond.Weighted>
-6.5366

> <Gold.Chemscore.Metal.Weighted>
-0.0000

> <Gold.Chemscore.Lipo.Weighted>
-7.7653

> <Gold.Chemscore.Internal_Hbond.Weighted>
0.0000

> <Gold.Chemscore.DEClash.Weighted>
0.1512

> <Gold.Chemscore.DEInternal.Weighted>
1.4527

> <Gold.Chemscore.Rot.Weighted>
3.1581

> <Gold.Chemscore.Internal.Correction.Weighted>
   9.000000E+99

> <Gold.Protein.RotatedTorsions>
[ 6907 6896 6895 6894 ] final   37.25 input  -60.11 | X-H torsion
[ 7974 7965 7964 7962 ] final  129.34 input  175.53 | X-H torsion
[ 8008 7997 7996 7995 ] final -168.80 input   59.86 | X-H torsion
[ 10167 10162 10161 10158 ] final   20.57 input  -65.29 | X-H torsion
[ 10718 10713 10712 10709 ] final  -57.63 input   66.30 | X-H torsion
[ 10763 10752 10751 10750 ] final  160.92 input  -60.55 | X-H torsion
[ 11005 11000 10999 10996 ] final -106.83 input  -57.11 | X-H torsion

> <Gold.Protein.ActiveResidues>
 VAL166  LYS551  ARG553  GLY616  TRP617  ASP618  TYR619  PRO620  LYS621  CYS622 
 ASP623  PHE694  ASN695  SER759  ASP760  ASP761  ALA762  ILE779  LEU786  VAL792 
 PHE793  MET794  SER795  GLU796  ALA797  LYS798  CYS799  TRP800  GLU811  SER814 

> <Gold.Protein.RotatedAtoms>
  152.1406  134.9065  160.0553 H   0  0  0  0  0  0  0  0  0  0  0  0  # atno 6907 bound_to 6896
  152.0134  133.3865  159.4237 H   0  0  0  0  0  0  0  0  0  0  0  0  # atno 6908 bound_to 6896
  150.6865  134.3627  159.5001 H   0  0  0  0  0  0  0  0  0  0  0  0  # atno 6909 bound_to 6896
  145.0297  139.4057  143.5156 H   0  0  0  0  0  0  0  0  0  0  0  0  # atno 7974 bound_to 7965
  155.8964  140.1033  157.1382 H   0  0  0  0  0  0  0  0  0  0  0  0  # atno 8008 bound_to 7997
  154.4021  140.1301  156.4444 H   0  0  0  0  0  0  0  0  0  0  0  0  # atno 8009 bound_to 7997
  155.7474  140.3466  155.5136 H   0  0  0  0  0  0  0  0  0  0  0  0  # atno 8010 bound_to 7997
  140.5493  143.9537  150.6568 H   0  0  0  0  0  0  0  0  0  0  0  0  # atno 10167 bound_to 10162
  156.1196  130.4167  150.0467 H   0  0  0  0  0  0  0  0  0  0  0  0  # atno 10718 bound_to 10713
  154.2549  135.2770  155.2802 H   0  0  0  0  0  0  0  0  0  0  0  0  # atno 10763 bound_to 10752
  154.5434  135.5696  153.6862 H   0  0  0  0  0  0  0  0  0  0  0  0  # atno 10764 bound_to 10752
  152.9973  135.6256  154.2697 H   0  0  0  0  0  0  0  0  0  0  0  0  # atno 10765 bound_to 10752
  141.0984  133.8928  157.1904 H   0  0  0  0  0  0  0  0  0  0  0  0  # atno 11005 bound_to 11000
  146.3497  139.9840  142.8692 LP  0  0  0  0  0  0  0  0  0  0  0  0  # atno 17320 bound_to 7965
  145.1787  140.9756  143.4279 LP  0  0  0  0  0  0  0  0  0  0  0  0  # atno 17321 bound_to 7965
  140.2959  143.3293  152.1018 LP  0  0  0  0  0  0  0  0  0  0  0  0  # atno 17342 bound_to 10162
  139.5020  144.6727  151.6204 LP  0  0  0  0  0  0  0  0  0  0  0  0  # atno 17343 bound_to 10162
  156.8409  130.9425  151.3632 LP  0  0  0  0  0  0  0  0  0  0  0  0  # atno 17370 bound_to 10713
  157.6379  130.8782  149.9394 LP  0  0  0  0  0  0  0  0  0  0  0  0  # atno 17371 bound_to 10713
  139.9828  135.0092  156.9791 LP  0  0  0  0  0  0  0  0  0  0  0  0  # atno 17394 bound_to 11000
  140.5082  134.1029  155.7264 LP  0  0  0  0  0  0  0  0  0  0  0  0  # atno 17395 bound_to 11000

$$$$
