AV-unprocessed.smi:3319|AV-procd|sdf|12767|dock9
  -GOLD-   2272019103D 1   1.00000     0.00000
 Structure written by MMmdl.
 40 41  0  0  0  0  0  0  0  0  2 V2000
  151.8533  141.2769  157.9897 C   0  0  0  0  0  0  0  0  0  0  0  0
  150.7493  141.4516  157.4978 C   0  0  0  0  0  0  0  0  0  0  0  0
  149.4201  141.6781  156.9013 C   0  0  0  0  0  0  0  0  0  0  0  0
  149.2520  141.0218  155.6047 N   0  0  0  0  0  0  0  0  0  0  0  0
  147.9225  141.3424  155.0818 C   0  0  0  0  0  0  0  0  0  0  0  0
  147.7494  140.7556  153.6702 C   0  0  0  0  0  0  0  0  0  0  0  0
  147.9300  139.2302  153.6772 C   0  0  0  0  0  0  0  0  0  0  0  0
  147.8502  138.7031  152.2968 N   0  3  0  0  0  0  0  0  0  0  0  0
  146.4827  138.4850  151.7802 C   0  0  0  0  0  0  0  0  0  0  0  0
  145.5988  137.8097  152.8372 C   0  0  0  0  0  0  0  0  0  0  0  0
  145.0791  136.4623  152.3743 C   0  0  0  0  0  0  0  0  0  0  0  0
  145.4206  135.9561  151.1031 C   0  0  0  0  0  0  0  0  0  0  0  0
  144.9103  134.6986  150.7214 C   0  0  0  0  0  0  0  0  0  0  0  0
  144.1113  133.9516  151.5133 N   0  0  0  0  0  0  0  0  0  0  0  0
  143.7893  134.4423  152.7294 C   0  0  0  0  0  0  0  0  0  0  0  0
  144.2459  135.6874  153.2072 C   0  0  0  0  0  0  0  0  0  0  0  0
  149.2768  138.8984  154.3445 C   0  0  0  0  0  0  0  0  0  0  0  0
  149.3886  139.5653  155.7269 C   0  0  0  0  0  0  0  0  0  0  0  0
  152.8169  141.1270  158.4224 H   0  0  0  0  0  0  0  0  0  0  0  0
  148.6509  141.3594  157.6062 H   0  0  0  0  0  0  0  0  0  0  0  0
  149.3248  142.7583  156.7842 H   0  0  0  0  0  0  0  0  0  0  0  0
  147.1500  140.9618  155.7523 H   0  0  0  0  0  0  0  0  0  0  0  0
  147.7990  142.4251  155.0341 H   0  0  0  0  0  0  0  0  0  0  0  0
  146.7617  141.0132  153.2864 H   0  0  0  0  0  0  0  0  0  0  0  0
  148.4731  141.2166  152.9959 H   0  0  0  0  0  0  0  0  0  0  0  0
  147.1195  138.7932  154.2630 H   0  0  0  0  0  0  0  0  0  0  0  0
  148.2988  139.3728  151.6882 H   0  0  0  0  0  0  0  0  0  0  0  0
  146.0410  139.4386  151.4908 H   0  0  0  0  0  0  0  0  0  0  0  0
  146.5307  137.8644  150.8844 H   0  0  0  0  0  0  0  0  0  0  0  0
  146.1588  137.6730  153.7635 H   0  0  0  0  0  0  0  0  0  0  0  0
  144.7508  138.4508  153.0816 H   0  0  0  0  0  0  0  0  0  0  0  0
  146.0572  136.5145  150.4323 H   0  0  0  0  0  0  0  0  0  0  0  0
  145.1510  134.2819  149.7544 H   0  0  0  0  0  0  0  0  0  0  0  0
  143.1489  133.8242  153.3412 H   0  0  0  0  0  0  0  0  0  0  0  0
  143.9600  136.0352  154.1892 H   0  0  0  0  0  0  0  0  0  0  0  0
  149.3916  137.8210  154.4623 H   0  0  0  0  0  0  0  0  0  0  0  0
  150.1013  139.2316  153.7123 H   0  0  0  0  0  0  0  0  0  0  0  0
  150.3564  139.3119  156.1603 H   0  0  0  0  0  0  0  0  0  0  0  0
  148.6264  139.1716  156.4013 H   0  0  0  0  0  0  0  0  0  0  0  0
  148.3649  137.8351  152.2506 H   0  0  0  0  0  0  0  0  0  0  0  0
  1  2  3  0  0  0  0
  1 19  1  0  0  0  0
  2  3  1  0  0  0  0
  3  4  1  0  0  0  0
  3 20  1  0  0  0  0
  3 21  1  0  0  0  0
  4 18  1  0  0  0  0
  4  5  1  0  0  0  0
  5  6  1  0  0  0  0
  5 22  1  0  0  0  0
  5 23  1  0  0  0  0
  6  7  1  0  0  0  0
  6 24  1  0  0  0  0
  6 25  1  0  0  0  0
  7  8  1  0  0  0  0
  7 17  1  0  0  0  0
  7 26  1  0  0  0  0
  8  9  1  0  0  0  0
  8 27  1  0  0  0  0
  8 40  1  0  0  0  0
  9 10  1  0  0  0  0
  9 28  1  0  0  0  0
  9 29  1  0  0  0  0
 10 11  1  0  0  0  0
 10 30  1  0  0  0  0
 10 31  1  0  0  0  0
 11 16  1  0  0  0  0
 11 12  2  0  0  0  0
 12 13  1  0  0  0  0
 12 32  1  0  0  0  0
 13 14  2  0  0  0  0
 13 33  1  0  0  0  0
 14 15  1  0  0  0  0
 15 16  2  0  0  0  0
 15 34  1  0  0  0  0
 16 35  1  0  0  0  0
 17 18  1  0  0  0  0
 17 36  1  0  0  0  0
 17 37  1  0  0  0  0
 18 38  1  0  0  0  0
 18 39  1  0  0  0  0
M  CHG  1   8   1
M  END
> <s_m_source_file>
AV-unprocessed.smi

> <i_m_source_file_index>
3319

> <i_lp_mmshare_version>
43012

> <i_f3d_flags>
0

> <s_epik_input>
W0NIXSNDW0NIMl1OMVtDSDJdW0NIMl1bQ0hdKFtDSDJdW0NIMl0xKVtOSF1bQ0gyXVtDSDJdYzJbY0hdW2NIXW5bY0hdW2NIXTI=

> <s_epik_cmdline>
J2VwaWtfcHl0aG9uJywgJy1waCcsICc3LjAnLCAnLXRuJywgJzgnLCAnLW1hJywgJzIwMCcsICctbWV0YWxfYmluZGluZycsICctaW1hZScsICc8aW5maWxlLm1hZT4nLCAnLW9tYWUnLCAnPG91dGZpbGUubWFlPic=

> <r_epik_Ionization_Penalty>
0.00927662

> <r_epik_Ionization_Penalty_Charging>
0.000485704

> <r_epik_Ionization_Penalty_Neutral>
0.00879091

> <r_epik_State_Penalty>
0.00559669

> <r_epik_Charging_Adjusted_Penalty>
0.0060824

> <i_epik_Tot_Q>
1

> <i_epik_Tot_abs_Q>
1

> <r_epik_Metal_State_Penalty>
-0

> <b_epik_Metal_Only>
0

> <s_lp_Force_Field>
OPLS_2005

> <r_lp_Energy>
19.7292

> <b_lp_Chiralities_Consistent>
1

> <s_lp_Variant>
AV-unprocessed.smi:3319-1

> <Gold.Version>
5.8.1

> <Gold.Id.Protein>
6NUR|6NUR_protein|mol2

> <Gold.PLP.Fitness>
44.9353

> <Gold.PLP.PLP>
-31.2860

> <Gold.PLP.part.hbond>
-1.7538

> <Gold.PLP.part.metal>
0.0000

> <Gold.PLP.part.buried>
-4.0823

> <Gold.PLP.part.nonpolar>
-27.1853

> <Gold.PLP.part.repulsive>
0.3078

> <Gold.PLP.ligand.clash>
0.0000

> <Gold.PLP.ligand.torsion>
0.6782

> <Gold.PLP.Chemscore.Hbond>
2.9913

> <Gold.PLP.Chemscore.CHOScore>
2.0000

> <Gold.PLP.Chemscore.Metal>
0.0000

> <Gold.Chemscore.Hbonds>
donor molecule, donor type, donor heavy atom, donor atom, acceptor molecule, acceptor atom, score
      L1  H     8    27       P1  7957  0.99
      L1  H     8    40       P1  7948  2.00
      L1  C    13    33       P1  7921  1.00
      L1  C    15    34       P1 10957  0.94

> <Gold.PLP.Chemscore.Internal.Correction>
0.0319

> <Gold.Rescore>
     Score         DG    S(hbond)    S(metal)    S(lipo)     H(rot)  DE(clash)    DE(int)     intcor
     17.69     -18.42       1.86        0.00      88.90       1.44       0.11       0.63       ----

> <Gold.Chemscore.Fitness>
17.6880

> <Gold.Chemscore.DG>
-18.4225

> <Gold.Chemscore.ZeroCoef>
-5.4800

> <Gold.Chemscore.Hbond>
1.8624

> <Gold.Chemscore.Metal>
0.0000

> <Gold.Chemscore.Lipo>
88.8978

> <Gold.Chemscore.Internal_Hbond>
0.0000

> <Gold.Chemscore.DEClash>
0.1062

> <Gold.Chemscore.DEInternal>
0.6283

> <Gold.Chemscore.Rot>
1.4371

> <Gold.Chemscore.Internal.Correction>
   9.000000E+99

> <Gold.Chemscore.Hbonds>
donor molecule, donor type, donor heavy atom, donor atom, acceptor molecule, acceptor atom, score
      L1  H     8    27       P1  7957  0.87
      L1  H     8    40       P1  7948  1.00

> <Gold.Chemscore.Hbond.Weighted>
-6.2204

> <Gold.Chemscore.Metal.Weighted>
-0.0000

> <Gold.Chemscore.Lipo.Weighted>
-10.4010

> <Gold.Chemscore.Internal_Hbond.Weighted>
0.0000

> <Gold.Chemscore.DEClash.Weighted>
0.1062

> <Gold.Chemscore.DEInternal.Weighted>
0.6283

> <Gold.Chemscore.Rot.Weighted>
3.6790

> <Gold.Chemscore.Internal.Correction.Weighted>
   9.000000E+99

> <Gold.Protein.RotatedTorsions>
[ 6907 6896 6895 6894 ] final  -52.95 input  -60.11 | X-H torsion
[ 7974 7965 7964 7962 ] final -126.68 input  175.53 | X-H torsion
[ 8008 7997 7996 7995 ] final -118.35 input   59.86 | X-H torsion
[ 10167 10162 10161 10158 ] final  -28.91 input  -65.29 | X-H torsion
[ 10718 10713 10712 10709 ] final -138.52 input   66.30 | X-H torsion
[ 10763 10752 10751 10750 ] final   -4.29 input  -60.55 | X-H torsion
[ 11005 11000 10999 10996 ] final -120.31 input  -57.11 | X-H torsion

> <Gold.Protein.ActiveResidues>
 VAL166  LYS551  ARG553  GLY616  TRP617  ASP618  TYR619  PRO620  LYS621  CYS622 
 ASP623  PHE694  ASN695  SER759  ASP760  ASP761  ALA762  ILE779  LEU786  VAL792 
 PHE793  MET794  SER795  GLU796  ALA797  LYS798  CYS799  TRP800  GLU811  SER814 

> <Gold.Protein.RotatedAtoms>
  150.8471  134.7783  159.6978 H   0  0  0  0  0  0  0  0  0  0  0  0  # atno 6907 bound_to 6896
  152.4545  134.5319  159.9823 H   0  0  0  0  0  0  0  0  0  0  0  0  # atno 6908 bound_to 6896
  151.5447  133.3389  159.2977 H   0  0  0  0  0  0  0  0  0  0  0  0  # atno 6909 bound_to 6896
  144.9848  140.7675  143.4590 H   0  0  0  0  0  0  0  0  0  0  0  0  # atno 7974 bound_to 7965
  155.0982  140.0395  157.2689 H   0  0  0  0  0  0  0  0  0  0  0  0  # atno 8008 bound_to 7997
  154.6778  140.2626  155.6914 H   0  0  0  0  0  0  0  0  0  0  0  0  # atno 8009 bound_to 7997
  156.2683  140.2784  156.1312 H   0  0  0  0  0  0  0  0  0  0  0  0  # atno 8010 bound_to 7997
  140.7265  143.3972  151.1328 H   0  0  0  0  0  0  0  0  0  0  0  0  # atno 10167 bound_to 10162
  156.3003  130.7425  151.1475 H   0  0  0  0  0  0  0  0  0  0  0  0  # atno 10718 bound_to 10713
  153.3828  135.6999  153.6552 H   0  0  0  0  0  0  0  0  0  0  0  0  # atno 10763 bound_to 10752
  153.5156  135.3622  155.2608 H   0  0  0  0  0  0  0  0  0  0  0  0  # atno 10764 bound_to 10752
  154.8694  135.4145  154.3130 H   0  0  0  0  0  0  0  0  0  0  0  0  # atno 10765 bound_to 10752
  141.0153  134.0205  157.3358 H   0  0  0  0  0  0  0  0  0  0  0  0  # atno 11005 bound_to 11000
  145.2369  139.2090  143.5013 LP  0  0  0  0  0  0  0  0  0  0  0  0  # atno 17320 bound_to 7965
  146.3417  140.2257  142.8592 LP  0  0  0  0  0  0  0  0  0  0  0  0  # atno 17321 bound_to 7965
  139.7586  143.8670  152.3095 LP  0  0  0  0  0  0  0  0  0  0  0  0  # atno 17342 bound_to 10162
  139.8548  144.7147  150.9170 LP  0  0  0  0  0  0  0  0  0  0  0  0  # atno 17343 bound_to 10162
  157.7366  131.0560  150.5404 LP  0  0  0  0  0  0  0  0  0  0  0  0  # atno 17370 bound_to 10713
  156.5530  130.4236  149.6098 LP  0  0  0  0  0  0  0  0  0  0  0  0  # atno 17371 bound_to 10713
  139.9113  135.0190  156.7703 LP  0  0  0  0  0  0  0  0  0  0  0  0  # atno 17394 bound_to 11000
  140.6665  133.9597  155.7833 LP  0  0  0  0  0  0  0  0  0  0  0  0  # atno 17395 bound_to 11000

$$$$
