#       Name:                AV-unprocessed.smi:2974
#       Creating user name   scv26
#       Creation time:       Fri Mar 27 16:27:08 2020


#       File generated by GOLD software.
#

@<TRIPOS>MOLECULE
AV-unprocessed.smi:2974
    34    35     1
SMALL
NO_CHARGES


@<TRIPOS>ATOM
      1 ****        -4.5518  -0.1027  -0.0097 O.co2          1 S1                 0.0000
      2 ****        -4.0434  -1.2453  -0.0078 C.2            1 S1                 0.0000
      3 ****        -4.7286  -2.2923  -0.0071 O.co2          1 S1                -1.0000
      4 ****        -2.5483  -1.3699  -0.0064 C.ar           1 S1                 0.0000
      5 ****        -1.7001  -0.2385  -0.0075 C.ar           1 S1                 0.0000
      6 ****        -0.2999  -0.4140  -0.0065 C.ar           1 S1                 0.0000
      7 ****         0.5316   0.7143  -0.0056 N.3            1 S1                 0.0000
      8 ****         1.3113   0.8593   1.2172 C.3            1 S1                 0.0000
      9 ****         2.0966   2.1822   1.1871 C.3            1 S1                 0.0000
     10 ****         2.9065   2.2296   0.0158 O.3            1 S1                 0.0000
     11 ****         2.1276   2.1666  -1.1756 C.3            1 S1                 0.0000
     12 ****         1.3439   0.8429  -1.2091 C.3            1 S1                 0.0000
     13 ****         0.2242  -1.7284  -0.0041 C.ar           1 S1                 0.0000
     14 ****        -0.6636  -2.8223  -0.0027 C.ar           1 S1                 0.0000
     15 ****        -1.9959  -2.6049  -0.0038 N.pl3          1 S1                 1.0000
     16 ****        -2.1168   0.7590  -0.0090 H              1 S1                 0.0000
     17 ****         0.6491   0.8377   2.0838 H              1 S1                 0.0000
     18 ****         2.0036   0.0224   1.3176 H              1 S1                 0.0000
     19 ****         1.4196   3.0376   1.2092 H              1 S1                 0.0000
     20 ****         2.7372   2.2599   2.0656 H              1 S1                 0.0000
     21 ****         1.4509   3.0213  -1.2264 H              1 S1                 0.0000
     22 ****         2.7909   2.2336  -2.0379 H              1 S1                 0.0000
     23 ****         2.0394   0.0055  -1.2798 H              1 S1                 0.0000
     24 ****         0.7050   0.8090  -2.0926 H              1 S1                 0.0000
     25 ****         1.2907  -1.8998  -0.0025 H              1 S1                 0.0000
     26 ****        -0.3518  -3.8563  -0.0002 H              1 S1                 0.0000
     27 ****        -2.6268  -3.4073  -0.0026 H              1 S1                 0.0000
     28 ****        -5.5463   0.0021  -0.0107 LP             1 S1                 0.0000
     29 ****        -3.9639   0.7062  -0.0102 LP             1 S1                 0.0000
     30 ****        -5.7271  -2.2364  -0.0081 LP             1 S1                 0.0000
     31 ****        -4.2778  -3.1849  -0.0055 LP             1 S1                 0.0000
     32 ****        -0.0970   1.4919  -0.0216 LP             1 S1                 0.0000
     33 ****         3.5389   1.4551   0.0292 LP             1 S1                 0.0000
     34 ****         3.4259   3.0842   0.0170 LP             1 S1                 0.0000
@<TRIPOS>BOND
    1    1    2 ar    
    2    2    3 ar    
    3    2    4 1     
    4    4   15 ar    
    5    4    5 ar    
    6    5    6 ar    
    7    5   16 1     
    8    6    7 1     
    9    6   13 ar    
   10    7   12 1     
   11    7    8 1     
   12    8    9 1     
   13    8   17 1     
   14    8   18 1     
   15    9   10 1     
   16    9   19 1     
   17    9   20 1     
   18   10   11 1     
   19   11   12 1     
   20   11   21 1     
   21   11   22 1     
   22   12   23 1     
   23   12   24 1     
   24   13   14 ar    
   25   13   25 1     
   26   14   15 ar    
   27   14   26 1     
   28   15   27 1     
   29    1   28 1     
   30    1   29 1     
   31    3   30 1     
   32    3   31 1     
   33    7   32 1     
   34   10   33 1     
   35   10   34 1     
@<TRIPOS>SUBSTRUCTURE
      1 S1             1
@<TRIPOS>SET
LONE_PAIRS      STATIC     ATOMS    <user>   **** ""
7 28 29 30 31 32 33 34
DONOR_HYDROGENS      STATIC     ATOMS    <user>   **** ""
1 27
ATOM$BLUE        STATIC     ATOMS    COLORGROUP SYSTEM
7 28 29 30 31 32 33 34
ATOM$RED        STATIC     ATOMS    COLORGROUP SYSTEM
1 27
