AV-unprocessed.smi:12|AV-procd|sdf|67|dock7
  -GOLD-   2262015183D 1   1.00000     0.00000
 Structure written by MMmdl.
 41 44  0  0  0  0  0  0  0  0  1 V2000
  146.2013  136.0163  154.1750 C   0  0  0  0  0  0  0  0  0  0  0  0
  146.5470  137.4500  154.5346 C   0  0  0  0  0  0  0  0  0  0  0  0
  147.7115  138.0211  154.1457 C   0  0  0  0  0  0  0  0  0  0  0  0
  147.9762  139.3141  154.5014 N   0  0  0  0  0  0  0  0  0  0  0  0
  147.0320  140.0385  155.2562 C   0  0  0  0  0  0  0  0  0  0  0  0
  145.8971  139.5651  155.6676 N   0  0  0  0  0  0  0  0  0  0  0  0
  145.5752  138.2347  155.3371 C   0  0  0  0  0  0  0  0  0  0  0  0
  144.5109  137.7397  155.7058 O   0  0  0  0  0  0  0  0  0  0  0  0
  147.5111  141.2944  155.4637 O   0  0  0  0  0  0  0  0  0  0  0  0
  148.7678  141.4687  154.7854 C   0  0  1  0  0  0  0  0  0  0  0  0
  149.9164  141.7262  155.7512 C   0  0  1  0  0  0  0  0  0  0  0  0
  149.5438  142.5948  156.8024 O   0  0  0  0  0  0  0  0  0  0  0  0
  150.3165  140.3164  156.1853 C   0  0  2  0  0  0  0  0  0  0  0  0
  151.7373  140.2013  156.7520 C   0  0  0  0  0  0  0  0  0  0  0  0
  151.9260  141.1823  157.7591 O   0  0  0  0  0  0  0  0  0  0  0  0
  152.7522  140.9384  158.7947 C   0  0  0  0  0  0  0  0  0  0  0  0
  153.4883  139.9521  158.8625 O   0  0  0  0  0  0  0  0  0  0  0  0
  152.6824  141.9890  159.8514 C   0  0  0  0  0  0  0  0  0  0  0  0
  152.1611  143.2637  159.5278 C   0  0  0  0  0  0  0  0  0  0  0  0
  152.0823  144.2756  160.5042 C   0  0  0  0  0  0  0  0  0  0  0  0
  152.5233  144.0251  161.8165 C   0  0  0  0  0  0  0  0  0  0  0  0
  153.0435  142.7614  162.1514 C   0  0  0  0  0  0  0  0  0  0  0  0
  153.1236  141.7480  161.1763 C   0  0  0  0  0  0  0  0  0  0  0  0
  150.2351  139.6100  154.9504 O   0  0  0  0  0  0  0  0  0  0  0  0
  149.1702  140.1026  154.1866 C   0  0  1  0  0  0  0  0  0  0  0  0
  146.9925  135.5528  153.5849 H   0  0  0  0  0  0  0  0  0  0  0  0
  145.2810  135.9806  153.5913 H   0  0  0  0  0  0  0  0  0  0  0  0
  146.0607  135.4211  155.0780 H   0  0  0  0  0  0  0  0  0  0  0  0
  148.4357  137.4695  153.5639 H   0  0  0  0  0  0  0  0  0  0  0  0
  148.6857  142.2284  154.0073 H   0  0  0  0  0  0  0  0  0  0  0  0
  150.7435  142.1812  155.2040 H   0  0  0  0  0  0  0  0  0  0  0  0
  149.4951  143.4751  156.4618 H   0  0  0  0  0  0  0  0  0  0  0  0
  149.5881  139.8981  156.8824 H   0  0  0  0  0  0  0  0  0  0  0  0
  151.8843  139.2108  157.1843 H   0  0  0  0  0  0  0  0  0  0  0  0
  152.4747  140.3255  155.9577 H   0  0  0  0  0  0  0  0  0  0  0  0
  151.8163  143.4797  158.5268 H   0  0  0  0  0  0  0  0  0  0  0  0
  151.6831  145.2451  160.2453 H   0  0  0  0  0  0  0  0  0  0  0  0
  152.4624  144.8014  162.5650 H   0  0  0  0  0  0  0  0  0  0  0  0
  153.3822  142.5681  163.1585 H   0  0  0  0  0  0  0  0  0  0  0  0
  153.5282  140.7897  161.4679 H   0  0  0  0  0  0  0  0  0  0  0  0
  149.2980  140.0547  153.1048 H   0  0  0  0  0  0  0  0  0  0  0  0
  1  2  1  0  0  0  0
  1 26  1  0  0  0  0
  1 27  1  0  0  0  0
  1 28  1  0  0  0  0
  2  7  1  0  0  0  0
  2  3  2  0  0  0  0
  3  4  1  0  0  0  0
  3 29  1  0  0  0  0
  4 25  1  0  0  0  0
  4  5  1  0  0  0  0
  5  6  2  0  0  0  0
  5  9  1  0  0  0  0
  6  7  1  0  0  0  0
  7  8  2  0  0  0  0
  9 10  1  0  0  0  0
 10 25  1  0  0  0  0
 10 11  1  0  0  0  0
 10 30  1  0  0  0  0
 11 12  1  0  0  0  0
 11 13  1  0  0  0  0
 11 31  1  0  0  0  0
 12 32  1  0  0  0  0
 13 14  1  0  0  0  0
 13 24  1  0  0  0  0
 13 33  1  0  0  0  0
 14 15  1  0  0  0  0
 14 34  1  0  0  0  0
 14 35  1  0  0  0  0
 15 16  1  0  0  0  0
 16 17  2  0  0  0  0
 16 18  1  0  0  0  0
 18 23  1  0  0  0  0
 18 19  2  0  0  0  0
 19 20  1  0  0  0  0
 19 36  1  0  0  0  0
 20 21  2  0  0  0  0
 20 37  1  0  0  0  0
 21 22  1  0  0  0  0
 21 38  1  0  0  0  0
 22 23  2  0  0  0  0
 22 39  1  0  0  0  0
 23 40  1  0  0  0  0
 24 25  1  0  0  0  0
 25 41  1  0  0  0  0
M  END
> <s_m_source_file>
AV-unprocessed.smi

> <i_m_source_file_index>
12

> <i_lp_mmshare_version>
43012

> <i_f3d_flags>
0

> <s_epik_input>
W0NIM11jKFtjSF0xKWMoPU8pbmMobjEyKU9bQ0BIXTNbQ0BASF0yT1tDQEBIXShbQ0BASF0zW09IXSlbQ0gyXU9DKD1PKWM0W2NIXVtjSF1bY0hdW2NIXVtjSF00

> <s_epik_cmdline>
J2VwaWtfcHl0aG9uJywgJy1waCcsICc3LjAnLCAnLXRuJywgJzgnLCAnLW1hJywgJzIwMCcsICctbWV0YWxfYmluZGluZycsICctaW1hZScsICc8aW5maWxlLm1hZT4nLCAnLW9tYWUnLCAnPG91dGZpbGUubWFlPic=

> <r_lp_tautomer_probability>
0.933681

> <r_epik_Ionization_Penalty>
0.00399549

> <r_epik_Ionization_Penalty_Charging>
3.09373e-09

> <r_epik_Ionization_Penalty_Neutral>
0.00399549

> <r_epik_State_Penalty>
0.00284953

> <r_epik_Charging_Adjusted_Penalty>
0.00284953

> <i_epik_Tot_Q>
0

> <i_epik_Tot_abs_Q>
0

> <r_epik_Metal_State_Penalty>
-0

> <b_epik_Metal_Only>
0

> <s_epik_Chemistry_Notes>
This compound has an ester and may undergo hydrolysis at high or low pH. This compound contains an acetal/aminal-like group ( X-CH(R)-Y where X, Y are N, S, or O) that may be acid/base labile, releasing an aldehyde.

> <s_lp_Force_Field>
OPLS_2005

> <r_lp_Energy>
46.3609

> <b_lp_Chiralities_Consistent>
1

> <s_lp_Variant>
AV-unprocessed.smi:12-7

> <Gold.Version>
5.8.1

> <Gold.Id.Protein>
6NUR|6NUR_protein|mol2

> <Gold.PLP.Fitness>
47.4917

> <Gold.PLP.PLP>
-38.9347

> <Gold.PLP.part.hbond>
-2.3275

> <Gold.PLP.part.metal>
0.0000

> <Gold.PLP.part.buried>
-0.8222

> <Gold.PLP.part.nonpolar>
-34.9233

> <Gold.PLP.part.repulsive>
0.2104

> <Gold.PLP.ligand.clash>
0.0000

> <Gold.PLP.ligand.torsion>
0.5226

> <Gold.PLP.Chemscore.Hbond>
2.1950

> <Gold.PLP.Chemscore.CHOScore>
1.0000

> <Gold.PLP.Chemscore.Metal>
0.0000

> <Gold.Chemscore.Hbonds>
donor molecule, donor type, donor heavy atom, donor atom, acceptor molecule, acceptor atom, score
      L1  H    12    32       P1  8028  1.00
      P1  H  7989  7998       L1    24  0.04
      P1  H  7997  8008       L1    17  0.81
      L1  C     3    29       P1  7948  1.00

> <Gold.PLP.Chemscore.Internal.Correction>
0.0172

> <Gold.Rescore>
     Score         DG    S(hbond)    S(metal)    S(lipo)     H(rot)  DE(clash)    DE(int)     intcor
     15.88     -17.97       1.86        0.00     101.35       2.18       0.43       1.66       ----

> <Gold.Chemscore.Fitness>
15.8818

> <Gold.Chemscore.DG>
-17.9734

> <Gold.Chemscore.ZeroCoef>
-5.4800

> <Gold.Chemscore.Hbond>
1.8612

> <Gold.Chemscore.Metal>
0.0000

> <Gold.Chemscore.Lipo>
101.3493

> <Gold.Chemscore.Internal_Hbond>
0.0000

> <Gold.Chemscore.DEClash>
0.4291

> <Gold.Chemscore.DEInternal>
1.6625

> <Gold.Chemscore.Rot>
2.1800

> <Gold.Chemscore.Internal.Correction>
   9.000000E+99

> <Gold.Chemscore.Hbonds>
donor molecule, donor type, donor heavy atom, donor atom, acceptor molecule, acceptor atom, score
      L1  H    12    32       P1  8028  0.98
      P1  H  7997  8008       L1    17  0.42

> <Gold.Chemscore.Hbond.Weighted>
-6.2163

> <Gold.Chemscore.Metal.Weighted>
-0.0000

> <Gold.Chemscore.Lipo.Weighted>
-11.8579

> <Gold.Chemscore.Internal_Hbond.Weighted>
0.0000

> <Gold.Chemscore.DEClash.Weighted>
0.4291

> <Gold.Chemscore.DEInternal.Weighted>
1.6625

> <Gold.Chemscore.Rot.Weighted>
5.5807

> <Gold.Chemscore.Internal.Correction.Weighted>
   9.000000E+99

> <Gold.Protein.RotatedTorsions>
[ 6907 6896 6895 6894 ] final  128.90 input  -60.11 | X-H torsion
[ 7974 7965 7964 7962 ] final  145.88 input  175.53 | X-H torsion
[ 8008 7997 7996 7995 ] final  -95.69 input   59.86 | X-H torsion
[ 10167 10162 10161 10158 ] final -106.27 input  -65.29 | X-H torsion
[ 10718 10713 10712 10709 ] final -166.57 input   66.30 | X-H torsion
[ 10763 10752 10751 10750 ] final -123.62 input  -60.55 | X-H torsion
[ 11005 11000 10999 10996 ] final  153.73 input  -57.11 | X-H torsion

> <Gold.Protein.ActiveResidues>
 VAL166  LYS551  ARG553  GLY616  TRP617  ASP618  TYR619  PRO620  LYS621  CYS622 
 ASP623  PHE694  ASN695  SER759  ASP760  ASP761  ALA762  ILE779  LEU786  VAL792 
 PHE793  MET794  SER795  GLU796  ALA797  LYS798  CYS799  TRP800  GLU811  SER814 

> <Gold.Protein.RotatedAtoms>
  152.3675  133.6376  159.6061 H   0  0  0  0  0  0  0  0  0  0  0  0  # atno 6907 bound_to 6896
  150.7644  133.9324  159.3440 H   0  0  0  0  0  0  0  0  0  0  0  0  # atno 6908 bound_to 6896
  151.7152  135.0906  160.0326 H   0  0  0  0  0  0  0  0  0  0  0  0  # atno 6909 bound_to 6896
  144.8716  139.5837  143.5884 H   0  0  0  0  0  0  0  0  0  0  0  0  # atno 7974 bound_to 7965
  154.7646  140.0478  157.1001 H   0  0  0  0  0  0  0  0  0  0  0  0  # atno 8008 bound_to 7997
  154.9895  140.3111  155.4892 H   0  0  0  0  0  0  0  0  0  0  0  0  # atno 8009 bound_to 7997
  156.2910  140.2221  156.4999 H   0  0  0  0  0  0  0  0  0  0  0  0  # atno 8010 bound_to 7997
  140.1895  143.3903  152.1217 H   0  0  0  0  0  0  0  0  0  0  0  0  # atno 10167 bound_to 10162
  156.6698  130.9079  151.3042 H   0  0  0  0  0  0  0  0  0  0  0  0  # atno 10718 bound_to 10713
  154.8711  135.4092  154.2974 H   0  0  0  0  0  0  0  0  0  0  0  0  # atno 10763 bound_to 10752
  153.3839  135.7012  153.6550 H   0  0  0  0  0  0  0  0  0  0  0  0  # atno 10764 bound_to 10752
  153.5361  135.3657  155.2669 H   0  0  0  0  0  0  0  0  0  0  0  0  # atno 10765 bound_to 10752
  140.1424  134.8730  157.2348 H   0  0  0  0  0  0  0  0  0  0  0  0  # atno 11005 bound_to 11000
  146.2934  139.7205  142.9144 LP  0  0  0  0  0  0  0  0  0  0  0  0  # atno 17320 bound_to 7965
  145.4120  141.0397  143.3012 LP  0  0  0  0  0  0  0  0  0  0  0  0  # atno 17321 bound_to 7965
  139.5262  144.7104  151.5222 LP  0  0  0  0  0  0  0  0  0  0  0  0  # atno 17342 bound_to 10162
  140.6465  143.8783  150.6742 LP  0  0  0  0  0  0  0  0  0  0  0  0  # atno 17343 bound_to 10162
  157.7081  130.9408  150.0997 LP  0  0  0  0  0  0  0  0  0  0  0  0  # atno 17370 bound_to 10713
  156.1947  130.3656  149.8864 LP  0  0  0  0  0  0  0  0  0  0  0  0  # atno 17371 bound_to 10713
  140.2705  134.3465  155.7375 LP  0  0  0  0  0  0  0  0  0  0  0  0  # atno 17394 bound_to 11000
  141.2188  133.7421  156.9216 LP  0  0  0  0  0  0  0  0  0  0  0  0  # atno 17395 bound_to 11000

$$$$
