AV-unprocessed.smi:252|AV-procd|sdf|1936|dock5
  -GOLD-   2262021 53D 1   1.00000     0.00000
 Structure written by MMmdl.
 56 59  0  0  0  0  0  0  0  0  1 V2000
  152.0804  144.9700  158.8482 C   0  0  0  0  0  0  0  0  0  0  0  0
  151.0860  144.0390  159.5595 C   0  0  0  0  0  0  0  0  0  0  0  0
  151.7624  142.9537  160.4032 C   0  0  0  0  0  0  0  0  0  0  0  0
  151.7886  143.0328  161.6319 O   0  0  0  0  0  0  0  0  0  0  0  0
  152.3099  141.9367  159.7204 N   0  0  0  0  0  0  0  0  0  0  0  0
  153.0081  140.8011  160.3139 C   0  0  2  0  0  0  0  0  0  0  0  0
  154.0628  141.2823  161.3299 C   0  0  0  0  0  0  0  0  0  0  0  0
  154.8694  140.0923  161.8703 C   0  0  0  0  0  0  0  0  0  0  0  0
  155.4877  139.2789  160.7223 C   0  0  0  0  0  0  0  0  0  0  0  0
  154.4603  138.8717  159.7623 N   0  0  0  0  0  0  0  0  0  0  0  0
  154.7772  137.8935  158.8763 C   0  0  0  0  0  0  0  0  0  0  0  0
  155.0534  138.2117  157.5829 N   0  0  0  0  0  0  0  0  0  0  0  0
  155.3487  137.2532  156.7000 C   0  0  0  0  0  0  0  0  0  0  0  0
  155.4240  135.9353  156.8931 N   0  0  0  0  0  0  0  0  0  0  0  0
  155.1604  135.6096  158.1909 C   0  0  0  0  0  0  0  0  0  0  0  0
  154.8307  136.5173  159.2371 C   0  0  0  0  0  0  0  0  0  0  0  0
  154.6363  135.8193  160.4235 N   0  0  0  0  0  0  0  0  0  0  0  0
  154.8282  134.5713  160.0948 C   0  0  0  0  0  0  0  0  0  0  0  0
  155.1533  134.3546  158.7749 N   0  0  0  0  0  0  0  0  0  0  0  0
  155.4172  133.0717  158.1406 C   0  0  0  0  0  0  0  0  0  0  0  0
  154.1526  132.1878  157.9766 C   0  0  1  0  0  0  0  0  0  0  0  0
  153.6533  131.8898  159.2696 O   0  0  0  0  0  0  0  0  0  0  0  0
  153.0330  132.8654  157.1900 C   0  0  0  0  0  0  0  0  0  0  0  0
  152.3090  131.6946  156.5433 C   0  0  0  0  0  0  0  0  0  0  0  0
  153.3787  130.8421  156.1765 O   0  0  0  0  0  0  0  0  0  0  0  0
  154.3461  130.8409  157.2229 C   0  0  1  0  0  0  0  0  0  0  0  0
  155.7223  130.5930  156.5856 C   0  0  0  0  0  0  0  0  0  0  0  0
  153.6688  139.9666  159.2015 C   0  0  0  0  0  0  0  0  0  0  0  0
  151.5528  145.6928  158.2255 H   0  0  0  0  0  0  0  0  0  0  0  0
  152.7577  144.4104  158.2018 H   0  0  0  0  0  0  0  0  0  0  0  0
  152.6830  145.5314  159.5634 H   0  0  0  0  0  0  0  0  0  0  0  0
  150.4307  144.6245  160.2052 H   0  0  0  0  0  0  0  0  0  0  0  0
  150.4475  143.5608  158.8152 H   0  0  0  0  0  0  0  0  0  0  0  0
  152.2403  141.9522  158.7133 H   0  0  0  0  0  0  0  0  0  0  0  0
  152.2859  140.1636  160.8282 H   0  0  0  0  0  0  0  0  0  0  0  0
  154.7396  141.9937  160.8546 H   0  0  0  0  0  0  0  0  0  0  0  0
  153.5839  141.8101  162.1555 H   0  0  0  0  0  0  0  0  0  0  0  0
  155.6520  140.4437  162.5431 H   0  0  0  0  0  0  0  0  0  0  0  0
  154.2168  139.4489  162.4619 H   0  0  0  0  0  0  0  0  0  0  0  0
  156.2443  139.8750  160.2098 H   0  0  0  0  0  0  0  0  0  0  0  0
  155.9893  138.4008  161.1309 H   0  0  0  0  0  0  0  0  0  0  0  0
  155.5515  137.5906  155.6943 H   0  0  0  0  0  0  0  0  0  0  0  0
  154.7399  133.7693  160.8132 H   0  0  0  0  0  0  0  0  0  0  0  0
  155.8689  133.2751  157.1692 H   0  0  0  0  0  0  0  0  0  0  0  0
  156.1727  132.5500  158.7294 H   0  0  0  0  0  0  0  0  0  0  0  0
  154.1451  131.1637  159.6215 H   0  0  0  0  0  0  0  0  0  0  0  0
  152.3798  133.4916  157.7994 H   0  0  0  0  0  0  0  0  0  0  0  0
  153.4538  133.4925  156.4031 H   0  0  0  0  0  0  0  0  0  0  0  0
  151.6589  131.1877  157.2582 H   0  0  0  0  0  0  0  0  0  0  0  0
  151.7137  131.9897  155.6791 H   0  0  0  0  0  0  0  0  0  0  0  0
  154.1172  130.0007  157.8814 H   0  0  0  0  0  0  0  0  0  0  0  0
  156.5108  130.5671  157.3378 H   0  0  0  0  0  0  0  0  0  0  0  0
  155.9706  131.3627  155.8546 H   0  0  0  0  0  0  0  0  0  0  0  0
  155.7375  129.6348  156.0659 H   0  0  0  0  0  0  0  0  0  0  0  0
  152.8995  139.5949  158.5252 H   0  0  0  0  0  0  0  0  0  0  0  0
  154.3295  140.5965  158.6036 H   0  0  0  0  0  0  0  0  0  0  0  0
  1  2  1  0  0  0  0
  1 29  1  0  0  0  0
  1 30  1  0  0  0  0
  1 31  1  0  0  0  0
  2  3  1  0  0  0  0
  2 32  1  0  0  0  0
  2 33  1  0  0  0  0
  3  4  2  0  0  0  0
  3  5  1  0  0  0  0
  5  6  1  0  0  0  0
  5 34  1  0  0  0  0
  6 28  1  0  0  0  0
  6  7  1  0  0  0  0
  6 35  1  0  0  0  0
  7  8  1  0  0  0  0
  7 36  1  0  0  0  0
  7 37  1  0  0  0  0
  8  9  1  0  0  0  0
  8 38  1  0  0  0  0
  8 39  1  0  0  0  0
  9 10  1  0  0  0  0
  9 40  1  0  0  0  0
  9 41  1  0  0  0  0
 10 11  1  0  0  0  0
 10 28  1  0  0  0  0
 11 16  1  0  0  0  0
 11 12  2  0  0  0  0
 12 13  1  0  0  0  0
 13 14  2  0  0  0  0
 13 42  1  0  0  0  0
 14 15  1  0  0  0  0
 15 19  1  0  0  0  0
 15 16  2  0  0  0  0
 16 17  1  0  0  0  0
 17 18  2  0  0  0  0
 18 19  1  0  0  0  0
 18 43  1  0  0  0  0
 19 20  1  0  0  0  0
 20 21  1  0  0  0  0
 20 44  1  0  0  0  0
 20 45  1  0  0  0  0
 21 26  1  0  0  0  0
 21 22  1  0  0  0  0
 21 23  1  0  0  0  0
 22 46  1  0  0  0  0
 23 24  1  0  0  0  0
 23 47  1  0  0  0  0
 23 48  1  0  0  0  0
 24 25  1  0  0  0  0
 24 49  1  0  0  0  0
 24 50  1  0  0  0  0
 25 26  1  0  0  0  0
 26 27  1  0  0  0  0
 26 51  1  0  0  0  0
 27 52  1  0  0  0  0
 27 53  1  0  0  0  0
 27 54  1  0  0  0  0
 28 55  1  0  0  0  0
 28 56  1  0  0  0  0
M  END
> <s_m_source_file>
AV-unprocessed.smi

> <i_m_source_file_index>
252

> <i_lp_mmshare_version>
43012

> <i_f3d_flags>
0

> <s_epik_input>
W0NIM11bQ0gyXUMoPU8pW05IXVtDQEBIXTFbQ0gyXVtDSDJdW0NIMl1OKFtDSDJdMSljKG5bY0hdbjIpYyhjMjMpbltjSF1uM1tDSDJdW0NAQF00KFtPSF0pW0NIMl1bQ0gyXU9bQ0BIXTRbQ0gzXQ==

> <s_epik_cmdline>
J2VwaWtfcHl0aG9uJywgJy1waCcsICc3LjAnLCAnLXRuJywgJzgnLCAnLW1hJywgJzIwMCcsICctbWV0YWxfYmluZGluZycsICctaW1hZScsICc8aW5maWxlLm1hZT4nLCAnLW9tYWUnLCAnPG91dGZpbGUubWFlPic=

> <r_lp_tautomer_probability>
1

> <r_epik_Ionization_Penalty>
0.00182575

> <r_epik_Ionization_Penalty_Charging>
0

> <r_epik_Ionization_Penalty_Neutral>
0.00182575

> <r_epik_State_Penalty>
0.00104524

> <r_epik_Charging_Adjusted_Penalty>
0.00104524

> <i_epik_Tot_Q>
0

> <i_epik_Tot_abs_Q>
0

> <r_epik_Metal_State_Penalty>
-0

> <b_epik_Metal_Only>
0

> <s_lp_Force_Field>
OPLS_2005

> <r_lp_Energy>
34.3477

> <b_lp_Chiralities_Consistent>
1

> <s_lp_Variant>
AV-unprocessed.smi:252-1

> <Gold.Version>
5.8.1

> <Gold.Id.Protein>
6NUR|6NUR_protein|mol2

> <Gold.PLP.Fitness>
39.6445

> <Gold.PLP.PLP>
-33.0646

> <Gold.PLP.part.hbond>
-3.7179

> <Gold.PLP.part.metal>
0.0000

> <Gold.PLP.part.buried>
-4.0055

> <Gold.PLP.part.nonpolar>
-26.9827

> <Gold.PLP.part.repulsive>
0.2349

> <Gold.PLP.ligand.clash>
0.0000

> <Gold.PLP.ligand.torsion>
0.9439

> <Gold.PLP.Chemscore.Hbond>
2.6632

> <Gold.PLP.Chemscore.CHOScore>
0.0000

> <Gold.PLP.Chemscore.Metal>
0.0000

> <Gold.Chemscore.Hbonds>
donor molecule, donor type, donor heavy atom, donor atom, acceptor molecule, acceptor atom, score
      P1  H  6896  6909       L1    22  0.83
      P1  H  6933  6945       L1     4  0.31
      P1  H  7997  8009       L1    12  0.51
      P1  H 10752 10763       L1    14  1.00

> <Gold.PLP.Chemscore.Internal.Correction>
0.4781

> <Gold.Rescore>
     Score         DG    S(hbond)    S(metal)    S(lipo)     H(rot)  DE(clash)    DE(int)     intcor
     12.61     -15.82       2.04        0.00      89.39       2.70       0.78       2.44       ----

> <Gold.Chemscore.Fitness>
12.6060

> <Gold.Chemscore.DG>
-15.8250

> <Gold.Chemscore.ZeroCoef>
-5.4800

> <Gold.Chemscore.Hbond>
2.0384

> <Gold.Chemscore.Metal>
0.0000

> <Gold.Chemscore.Lipo>
89.3946

> <Gold.Chemscore.Internal_Hbond>
0.0000

> <Gold.Chemscore.DEClash>
0.7795

> <Gold.Chemscore.DEInternal>
2.4394

> <Gold.Chemscore.Rot>
2.7041

> <Gold.Chemscore.Internal.Correction>
   9.000000E+99

> <Gold.Chemscore.Hbonds>
donor molecule, donor type, donor heavy atom, donor atom, acceptor molecule, acceptor atom, score
      P1  H  6896  6909       L1    22  0.21
      P1  H  6933  6945       L1     4  0.11
      P1  H  7997  8009       L1    12  0.44
      P1  H 10752 10763       L1    14  0.24

> <Gold.Chemscore.Hbond.Weighted>
-6.8083

> <Gold.Chemscore.Metal.Weighted>
-0.0000

> <Gold.Chemscore.Lipo.Weighted>
-10.4592

> <Gold.Chemscore.Internal_Hbond.Weighted>
0.0000

> <Gold.Chemscore.DEClash.Weighted>
0.7795

> <Gold.Chemscore.DEInternal.Weighted>
2.4394

> <Gold.Chemscore.Rot.Weighted>
6.9225

> <Gold.Chemscore.Internal.Correction.Weighted>
   9.000000E+99

> <Gold.Protein.RotatedTorsions>
[ 6907 6896 6895 6894 ] final -102.47 input  -60.11 | X-H torsion
[ 7974 7965 7964 7962 ] final   58.46 input  175.53 | X-H torsion
[ 8008 7997 7996 7995 ] final  104.62 input   59.86 | X-H torsion
[ 10167 10162 10161 10158 ] final -165.80 input  -65.29 | X-H torsion
[ 10718 10713 10712 10709 ] final  -24.17 input   66.30 | X-H torsion
[ 10763 10752 10751 10750 ] final  163.72 input  -60.55 | X-H torsion
[ 11005 11000 10999 10996 ] final  114.26 input  -57.11 | X-H torsion

> <Gold.Protein.ActiveResidues>
 VAL166  LYS551  ARG553  GLY616  TRP617  ASP618  TYR619  PRO620  LYS621  CYS622 
 ASP623  PHE694  ASN695  SER759  ASP760  ASP761  ALA762  ILE779  LEU786  VAL792 
 PHE793  MET794  SER795  GLU796  ALA797  LYS798  CYS799  TRP800  GLU811  SER814 

> <Gold.Protein.RotatedAtoms>
  150.7197  134.0577  159.3819 H   0  0  0  0  0  0  0  0  0  0  0  0  # atno 6907 bound_to 6896
  151.8556  135.0540  160.0473 H   0  0  0  0  0  0  0  0  0  0  0  0  # atno 6908 bound_to 6896
  152.2757  133.5387  159.5503 H   0  0  0  0  0  0  0  0  0  0  0  0  # atno 6909 bound_to 6896
  145.9179  139.3706  143.0496 H   0  0  0  0  0  0  0  0  0  0  0  0  # atno 7974 bound_to 7965
  156.1589  140.3144  155.8773 H   0  0  0  0  0  0  0  0  0  0  0  0  # atno 8008 bound_to 7997
  155.3822  140.0488  157.3060 H   0  0  0  0  0  0  0  0  0  0  0  0  # atno 8009 bound_to 7997
  154.5127  140.2170  155.9135 H   0  0  0  0  0  0  0  0  0  0  0  0  # atno 8010 bound_to 7997
  139.6157  144.0724  152.1886 H   0  0  0  0  0  0  0  0  0  0  0  0  # atno 10167 bound_to 10162
  156.4812  130.4545  149.6810 H   0  0  0  0  0  0  0  0  0  0  0  0  # atno 10718 bound_to 10713
  154.2979  135.2759  155.2624 H   0  0  0  0  0  0  0  0  0  0  0  0  # atno 10763 bound_to 10752
  154.5074  135.5791  153.6582 H   0  0  0  0  0  0  0  0  0  0  0  0  # atno 10764 bound_to 10752
  152.9904  135.6173  154.3148 H   0  0  0  0  0  0  0  0  0  0  0  0  # atno 10765 bound_to 10752
  139.8975  134.9564  156.6864 H   0  0  0  0  0  0  0  0  0  0  0  0  # atno 11005 bound_to 11000
  145.8587  140.9487  143.0711 LP  0  0  0  0  0  0  0  0  0  0  0  0  # atno 17320 bound_to 7965
  144.6750  140.0502  143.7479 LP  0  0  0  0  0  0  0  0  0  0  0  0  # atno 17321 bound_to 7965
  140.0353  144.6049  150.7454 LP  0  0  0  0  0  0  0  0  0  0  0  0  # atno 17342 bound_to 10162
  140.7349  143.2735  151.3814 LP  0  0  0  0  0  0  0  0  0  0  0  0  # atno 17343 bound_to 10162
  156.3519  130.7436  151.2397 LP  0  0  0  0  0  0  0  0  0  0  0  0  # atno 17370 bound_to 10713
  157.7483  131.0374  150.4457 LP  0  0  0  0  0  0  0  0  0  0  0  0  # atno 17371 bound_to 10713
  140.7259  133.9100  155.8178 LP  0  0  0  0  0  0  0  0  0  0  0  0  # atno 17394 bound_to 11000
  141.0191  134.0914  157.4140 LP  0  0  0  0  0  0  0  0  0  0  0  0  # atno 17395 bound_to 11000

$$$$
