AV-unprocessed.smi:2882|AV-procd|sdf|11074|dock1
  -GOLD-   2272015543D 1   1.00000     0.00000
 Structure written by MMmdl.
 28 30  0  0  0  0  0  0  0  0  1 V2000
  153.3806  138.8140  155.9353 N   0  0  0  0  0  0  0  0  0  0  0  0
  152.4249  139.4560  155.8191 C   0  0  0  0  0  0  0  0  0  0  0  0
  151.2220  140.2657  155.6724 C   0  0  0  0  0  0  0  0  0  0  0  0
  150.5137  140.1002  154.5312 N   0  0  0  0  0  0  0  0  0  0  0  0
  149.3935  140.8393  154.3858 C   0  0  0  0  0  0  0  0  0  0  0  0
  148.9748  141.7469  155.3778 C   0  0  0  0  0  0  0  0  0  0  0  0
  149.6754  141.9190  156.5186 N   0  0  0  0  0  0  0  0  0  0  0  0
  150.8032  141.1819  156.6781 C   0  0  0  0  0  0  0  0  0  0  0  0
  151.5458  141.3534  157.8607 N   0  0  0  0  0  0  0  0  0  0  0  0
  151.2939  142.4755  158.7585 C   0  0  1  0  0  0  0  0  0  0  0  0
  152.1435  142.4263  160.0352 C   0  0  0  0  0  0  0  0  0  0  0  0
  152.8602  143.7816  159.9922 C   0  0  2  0  0  0  0  0  0  0  0  0
  151.9001  144.9564  160.2248 C   0  0  0  0  0  0  0  0  0  0  0  0
  151.1317  144.9981  158.9044 C   0  0  0  0  0  0  0  0  0  0  0  0
  151.7431  143.8126  158.1454 C   0  0  1  0  0  0  0  0  0  0  0  0
  153.0849  143.8974  158.5987 O   0  0  0  0  0  0  0  0  0  0  0  0
  148.8293  140.7063  153.4746 H   0  0  0  0  0  0  0  0  0  0  0  0
  148.0778  142.3358  155.2559 H   0  0  0  0  0  0  0  0  0  0  0  0
  152.0974  140.5827  158.2104 H   0  0  0  0  0  0  0  0  0  0  0  0
  150.2282  142.5181  158.9887 H   0  0  0  0  0  0  0  0  0  0  0  0
  151.5406  142.3012  160.9350 H   0  0  0  0  0  0  0  0  0  0  0  0
  152.8733  141.6160  160.0027 H   0  0  0  0  0  0  0  0  0  0  0  0
  153.7653  143.8218  160.5985 H   0  0  0  0  0  0  0  0  0  0  0  0
  151.2528  144.7971  161.0878 H   0  0  0  0  0  0  0  0  0  0  0  0
  152.4501  145.8859  160.3762 H   0  0  0  0  0  0  0  0  0  0  0  0
  150.0537  144.8989  159.0373 H   0  0  0  0  0  0  0  0  0  0  0  0
  151.3260  145.9339  158.3794 H   0  0  0  0  0  0  0  0  0  0  0  0
  151.6220  143.8794  157.0635 H   0  0  0  0  0  0  0  0  0  0  0  0
  1  2  3  0  0  0  0
  2  3  1  0  0  0  0
  3  8  1  0  0  0  0
  3  4  2  0  0  0  0
  4  5  1  0  0  0  0
  5  6  2  0  0  0  0
  5 17  1  0  0  0  0
  6  7  1  0  0  0  0
  6 18  1  0  0  0  0
  7  8  2  0  0  0  0
  8  9  1  0  0  0  0
  9 10  1  0  0  0  0
  9 19  1  0  0  0  0
 10 15  1  0  0  0  0
 10 11  1  0  0  0  0
 10 20  1  0  0  0  0
 11 12  1  0  0  0  0
 11 21  1  0  0  0  0
 11 22  1  0  0  0  0
 12 16  1  0  0  0  0
 12 13  1  0  0  0  0
 12 23  1  0  0  0  0
 13 14  1  0  0  0  0
 13 24  1  0  0  0  0
 13 25  1  0  0  0  0
 14 15  1  0  0  0  0
 14 26  1  0  0  0  0
 14 27  1  0  0  0  0
 15 16  1  0  0  0  0
 15 28  1  0  0  0  0
M  END
> <s_m_source_file>
AV-unprocessed.smi

> <i_m_source_file_index>
2882

> <i_lp_mmshare_version>
43012

> <i_f3d_flags>
0

> <s_epik_input>
TiNDYzFuW2NIXVtjSF1uYzFbTkhdW0NASF0oW0NIMl1bQ0BASF0yMylbQ0BASF0oTzMpW0NIMl1bQ0gyXTI=

> <s_epik_cmdline>
J2VwaWtfcHl0aG9uJywgJy1waCcsICc3LjAnLCAnLXRuJywgJzgnLCAnLW1hJywgJzIwMCcsICctbWV0YWxfYmluZGluZycsICctaW1hZScsICc8aW5maWxlLm1hZT4nLCAnLW9tYWUnLCAnPG91dGZpbGUubWFlPic=

> <r_lp_tautomer_probability>
1

> <r_epik_Ionization_Penalty>
4.95445e-05

> <r_epik_Ionization_Penalty_Charging>
0

> <r_epik_Ionization_Penalty_Neutral>
4.95445e-05

> <r_epik_State_Penalty>
-0

> <r_epik_Charging_Adjusted_Penalty>
0

> <i_epik_Tot_Q>
0

> <i_epik_Tot_abs_Q>
0

> <r_epik_Metal_State_Penalty>
-0

> <b_epik_Metal_Only>
0

> <s_lp_Force_Field>
OPLS_2005

> <r_lp_Energy>
50.0658

> <b_lp_Chiralities_Consistent>
1

> <s_lp_Variant>
AV-unprocessed.smi:2882-4

> <Gold.Version>
5.8.1

> <Gold.Id.Protein>
6NUR|6NUR_protein|mol2

> <Gold.PLP.Fitness>
44.0561

> <Gold.PLP.PLP>
-35.0085

> <Gold.PLP.part.hbond>
-2.0000

> <Gold.PLP.part.metal>
0.0000

> <Gold.PLP.part.buried>
-1.2071

> <Gold.PLP.part.nonpolar>
-31.9914

> <Gold.PLP.part.repulsive>
0.8841

> <Gold.PLP.ligand.clash>
0.0000

> <Gold.PLP.ligand.torsion>
0.0945

> <Gold.PLP.Chemscore.Hbond>
1.5940

> <Gold.PLP.Chemscore.CHOScore>
1.4781

> <Gold.PLP.Chemscore.Metal>
0.0000

> <Gold.Chemscore.Hbonds>
donor molecule, donor type, donor heavy atom, donor atom, acceptor molecule, acceptor atom, score
      P1  H  7989  7998       L1     4  0.85
      P1  H  7997  8008       L1     1  0.69
      L1  C     5    17       P1  7957  1.00
      L1  C     6    18       P1  8028  0.48

> <Gold.PLP.Chemscore.Internal.Correction>
0.0204

> <Gold.Rescore>
     Score         DG    S(hbond)    S(metal)    S(lipo)     H(rot)  DE(clash)    DE(int)     intcor
     15.56     -15.80       0.90        0.00      84.35       1.00       0.03       0.21       ----

> <Gold.Chemscore.Fitness>
15.5627

> <Gold.Chemscore.DG>
-15.8008

> <Gold.Chemscore.ZeroCoef>
-5.4800

> <Gold.Chemscore.Hbond>
0.9018

> <Gold.Chemscore.Metal>
0.0000

> <Gold.Chemscore.Lipo>
84.3498

> <Gold.Chemscore.Internal_Hbond>
0.0000

> <Gold.Chemscore.DEClash>
0.0264

> <Gold.Chemscore.DEInternal>
0.2117

> <Gold.Chemscore.Rot>
1.0000

> <Gold.Chemscore.Internal.Correction>
   9.000000E+99

> <Gold.Chemscore.Hbonds>
donor molecule, donor type, donor heavy atom, donor atom, acceptor molecule, acceptor atom, score
      P1  H  7989  7998       L1     4  0.06
      P1  H  7997  8008       L1     1  0.07

> <Gold.Chemscore.Hbond.Weighted>
-3.0119

> <Gold.Chemscore.Metal.Weighted>
-0.0000

> <Gold.Chemscore.Lipo.Weighted>
-9.8689

> <Gold.Chemscore.Internal_Hbond.Weighted>
0.0000

> <Gold.Chemscore.DEClash.Weighted>
0.0264

> <Gold.Chemscore.DEInternal.Weighted>
0.2117

> <Gold.Chemscore.Rot.Weighted>
2.5600

> <Gold.Chemscore.Internal.Correction.Weighted>
   9.000000E+99

> <Gold.Protein.RotatedTorsions>
[ 6907 6896 6895 6894 ] final  107.79 input  -60.11 | X-H torsion
[ 7974 7965 7964 7962 ] final  -45.30 input  175.53 | X-H torsion
[ 8008 7997 7996 7995 ] final  -36.40 input   59.86 | X-H torsion
[ 10167 10162 10161 10158 ] final    7.33 input  -65.29 | X-H torsion
[ 10718 10713 10712 10709 ] final -168.06 input   66.30 | X-H torsion
[ 10763 10752 10751 10750 ] final   60.49 input  -60.55 | X-H torsion
[ 11005 11000 10999 10996 ] final    9.88 input  -57.11 | X-H torsion

> <Gold.Protein.ActiveResidues>
 VAL166  LYS551  ARG553  GLY616  TRP617  ASP618  TYR619  PRO620  LYS621  CYS622 
 ASP623  PHE694  ASN695  SER759  ASP760  ASP761  ALA762  ILE779  LEU786  VAL792 
 PHE793  MET794  SER795  GLU796  ALA797  LYS798  CYS799  TRP800  GLU811  SER814 

> <Gold.Protein.RotatedAtoms>
  152.5139  133.9182  159.7521 H   0  0  0  0  0  0  0  0  0  0  0  0  # atno 6907 bound_to 6896
  150.9560  133.6488  159.2770 H   0  0  0  0  0  0  0  0  0  0  0  0  # atno 6908 bound_to 6896
  151.3750  135.0935  159.9530 H   0  0  0  0  0  0  0  0  0  0  0  0  # atno 6909 bound_to 6896
  145.9834  140.7259  142.9352 H   0  0  0  0  0  0  0  0  0  0  0  0  # atno 7974 bound_to 7965
  154.4074  140.1631  156.2368 H   0  0  0  0  0  0  0  0  0  0  0  0  # atno 8008 bound_to 7997
  155.9235  140.3419  155.6169 H   0  0  0  0  0  0  0  0  0  0  0  0  # atno 8009 bound_to 7997
  155.7193  140.0766  157.2328 H   0  0  0  0  0  0  0  0  0  0  0  0  # atno 8010 bound_to 7997
  140.6378  143.7846  150.7384 H   0  0  0  0  0  0  0  0  0  0  0  0  # atno 10167 bound_to 10162
  156.6914  130.9160  151.3069 H   0  0  0  0  0  0  0  0  0  0  0  0  # atno 10718 bound_to 10713
  152.9922  135.5534  154.5881 H   0  0  0  0  0  0  0  0  0  0  0  0  # atno 10763 bound_to 10752
  154.5249  135.2810  155.1233 H   0  0  0  0  0  0  0  0  0  0  0  0  # atno 10764 bound_to 10752
  154.2572  135.6388  153.5314 H   0  0  0  0  0  0  0  0  0  0  0  0  # atno 10765 bound_to 10752
  140.5207  134.0562  155.7844 H   0  0  0  0  0  0  0  0  0  0  0  0  # atno 11005 bound_to 11000
  144.6868  140.2948  143.7272 LP  0  0  0  0  0  0  0  0  0  0  0  0  # atno 17320 bound_to 7965
  145.7735  139.1866  143.2198 LP  0  0  0  0  0  0  0  0  0  0  0  0  # atno 17321 bound_to 7965
  140.1471  143.4390  152.2156 LP  0  0  0  0  0  0  0  0  0  0  0  0  # atno 17342 bound_to 10162
  139.5587  144.7391  151.4217 LP  0  0  0  0  0  0  0  0  0  0  0  0  # atno 17343 bound_to 10162
  157.7007  130.9330  150.0778 LP  0  0  0  0  0  0  0  0  0  0  0  0  # atno 17370 bound_to 10713
  156.1795  130.3649  149.9055 LP  0  0  0  0  0  0  0  0  0  0  0  0  # atno 17371 bound_to 10713
  141.1336  133.9261  157.2483 LP  0  0  0  0  0  0  0  0  0  0  0  0  # atno 17394 bound_to 11000
  139.9607  135.0155  156.9254 LP  0  0  0  0  0  0  0  0  0  0  0  0  # atno 17395 bound_to 11000

$$$$
