AV-unprocessed.smi:52|AV-procd|sdf|508|dock2
  -GOLD-   2262016383D 1   1.00000     0.00000
 Structure written by MMmdl.
 27 28  0  0  0  0  0  0  0  0  3 V2000
  150.9903  135.7927  154.6892 O   0  0  0  0  0  0  0  0  0  0  0  0
  150.2012  136.5399  155.3080 C   0  0  0  0  0  0  0  0  0  0  0  0
  149.2241  136.0885  155.9449 O   0  5  0  0  0  0  0  0  0  0  0  0
  150.4287  138.0073  155.2820 C   0  0  0  0  0  0  0  0  0  0  0  0
  151.2513  138.6973  154.4276 C   0  0  0  0  0  0  0  0  0  0  0  0
  151.1757  140.0342  154.7121 O   0  0  0  0  0  0  0  0  0  0  0  0
  150.2983  140.1055  155.7496 C   0  0  0  0  0  0  0  0  0  0  0  0
  149.9461  141.4435  156.3096 C   0  0  0  0  0  0  0  0  0  0  0  0
  148.7131  141.8305  155.5823 N   0  3  1  0  0  0  0  0  0  0  0  0
  148.7769  141.7041  154.1068 C   0  0  0  0  0  0  0  0  0  0  0  0
  147.3344  141.4898  153.6606 C   0  0  0  0  0  0  0  0  0  0  0  0
  146.7749  140.6203  154.7809 C   0  0  2  0  0  0  0  0  0  0  0  0
  145.3718  140.7323  154.8866 O   0  0  0  0  0  0  0  0  0  0  0  0
  147.4933  141.1236  156.0404 C   0  0  0  0  0  0  0  0  0  0  0  0
  149.8246  138.9232  156.1334 N   0  0  0  0  0  0  0  0  0  0  0  0
  147.0425  139.5782  154.5994 H   0  0  0  0  0  0  0  0  0  0  0  0
  151.9039  138.4042  153.6184 H   0  0  0  0  0  0  0  0  0  0  0  0
  149.7893  141.3902  157.3877 H   0  0  0  0  0  0  0  0  0  0  0  0
  150.7579  142.1426  156.1055 H   0  0  0  0  0  0  0  0  0  0  0  0
  149.2280  142.5821  153.6430 H   0  0  0  0  0  0  0  0  0  0  0  0
  149.3756  140.8338  153.8327 H   0  0  0  0  0  0  0  0  0  0  0  0
  146.8157  142.4494  153.6246 H   0  0  0  0  0  0  0  0  0  0  0  0
  147.2561  141.0240  152.6776 H   0  0  0  0  0  0  0  0  0  0  0  0
  144.9904  140.5803  154.0351 H   0  0  0  0  0  0  0  0  0  0  0  0
  147.7157  140.2969  156.7167 H   0  0  0  0  0  0  0  0  0  0  0  0
  146.8804  141.8405  156.5885 H   0  0  0  0  0  0  0  0  0  0  0  0
  148.5525  142.8083  155.7788 H   0  0  0  0  0  0  0  0  0  0  0  0
  1  2  2  0  0  0  0
  2  3  1  0  0  0  0
  2  4  1  0  0  0  0
  4 15  1  0  0  0  0
  4  5  2  0  0  0  0
  5  6  1  0  0  0  0
  5 17  1  0  0  0  0
  6  7  1  0  0  0  0
  7  8  1  0  0  0  0
  7 15  2  0  0  0  0
  8  9  1  0  0  0  0
  8 18  1  0  0  0  0
  8 19  1  0  0  0  0
  9 14  1  0  0  0  0
  9 10  1  0  0  0  0
  9 27  1  0  0  0  0
 10 11  1  0  0  0  0
 10 20  1  0  0  0  0
 10 21  1  0  0  0  0
 11 12  1  0  0  0  0
 11 22  1  0  0  0  0
 11 23  1  0  0  0  0
 12 16  1  0  0  0  0
 12 13  1  0  0  0  0
 12 14  1  0  0  0  0
 13 24  1  0  0  0  0
 14 25  1  0  0  0  0
 14 26  1  0  0  0  0
M  CHG  1   3  -1
M  CHG  1   9   1
M  END
> <s_m_source_file>
AV-unprocessed.smi

> <i_m_source_file_index>
52

> <i_lp_mmshare_version>
43012

> <i_f3d_flags>
0

> <s_epik_input>
Tz1DKFtPSF0pYzFbY0hdb2MobjEpW0NIMl1OMltDSDJdW0NIMl1bQ0BIXShbT0hdKVtDSDJdMg==

> <s_epik_cmdline>
J2VwaWtfcHl0aG9uJywgJy1waCcsICc3LjAnLCAnLXRuJywgJzgnLCAnLW1hJywgJzIwMCcsICctbWV0YWxfYmluZGluZycsICctaW1hZScsICc8aW5maWxlLm1hZT4nLCAnLW9tYWUnLCAnPG91dGZpbGUubWFlPic=

> <r_epik_Ionization_Penalty>
0.0376014

> <r_epik_Ionization_Penalty_Charging>
0.0376013

> <r_epik_Ionization_Penalty_Neutral>
1.78687e-08

> <r_epik_State_Penalty>
0.0314164

> <r_epik_Charging_Adjusted_Penalty>
0.0690177

> <i_epik_Tot_Q>
0

> <i_epik_Tot_abs_Q>
2

> <r_epik_Metal_State_Penalty>
0.0314164

> <b_epik_Metal_Only>
0

> <s_lp_Force_Field>
OPLS_2005

> <r_lp_Energy>
18.2584

> <b_lp_Chiralities_Consistent>
1

> <s_lp_Variant>
AV-unprocessed.smi:52-2

> <Gold.Version>
5.8.1

> <Gold.Id.Protein>
6NUR|6NUR_protein|mol2

> <Gold.PLP.Fitness>
38.0875

> <Gold.PLP.PLP>
-21.1473

> <Gold.PLP.part.hbond>
-4.0000

> <Gold.PLP.part.metal>
0.0000

> <Gold.PLP.part.buried>
-2.8238

> <Gold.PLP.part.nonpolar>
-15.1887

> <Gold.PLP.part.repulsive>
0.4112

> <Gold.PLP.ligand.clash>
0.0000

> <Gold.PLP.ligand.torsion>
0.5367

> <Gold.PLP.Chemscore.Hbond>
6.0000

> <Gold.PLP.Chemscore.CHOScore>
0.0000

> <Gold.PLP.Chemscore.Metal>
0.0000

> <Gold.Chemscore.Hbonds>
donor molecule, donor type, donor heavy atom, donor atom, acceptor molecule, acceptor atom, score
      L1  H     9    27       P1  8028  2.00
      L1  H    13    24       P1 10175  1.00
      P1  H  7989  7998       L1     6  1.00
      P1  H 10752 10763       L1     1  2.00

> <Gold.PLP.Chemscore.Internal.Correction>
0.0136

> <Gold.Rescore>
     Score         DG    S(hbond)    S(metal)    S(lipo)     H(rot)  DE(clash)    DE(int)     intcor
     15.23     -17.56       3.66        0.00      42.28       1.99       0.67       1.66       ----

> <Gold.Chemscore.Fitness>
15.2333

> <Gold.Chemscore.DG>
-17.5608

> <Gold.Chemscore.ZeroCoef>
-5.4800

> <Gold.Chemscore.Hbond>
3.6628

> <Gold.Chemscore.Metal>
0.0000

> <Gold.Chemscore.Lipo>
42.2761

> <Gold.Chemscore.Internal_Hbond>
0.0000

> <Gold.Chemscore.DEClash>
0.6704

> <Gold.Chemscore.DEInternal>
1.6571

> <Gold.Chemscore.Rot>
1.9919

> <Gold.Chemscore.Internal.Correction>
   9.000000E+99

> <Gold.Chemscore.Hbonds>
donor molecule, donor type, donor heavy atom, donor atom, acceptor molecule, acceptor atom, score
      L1  H     9    27       P1  8028  0.98
      L1  H    13    24       P1 10175  0.93
      P1  H  7989  7998       L1     6  0.70
      P1  H 10752 10763       L1     1  0.97

> <Gold.Chemscore.Hbond.Weighted>
-12.2336

> <Gold.Chemscore.Metal.Weighted>
-0.0000

> <Gold.Chemscore.Lipo.Weighted>
-4.9463

> <Gold.Chemscore.Internal_Hbond.Weighted>
0.0000

> <Gold.Chemscore.DEClash.Weighted>
0.6704

> <Gold.Chemscore.DEInternal.Weighted>
1.6571

> <Gold.Chemscore.Rot.Weighted>
5.0991

> <Gold.Chemscore.Internal.Correction.Weighted>
   9.000000E+99

> <Gold.Protein.RotatedTorsions>
[ 6907 6896 6895 6894 ] final -135.12 input  -60.11 | X-H torsion
[ 7974 7965 7964 7962 ] final  -58.01 input  175.53 | X-H torsion
[ 8008 7997 7996 7995 ] final -138.09 input   59.86 | X-H torsion
[ 10167 10162 10161 10158 ] final  -56.78 input  -65.29 | X-H torsion
[ 10718 10713 10712 10709 ] final -126.59 input   66.30 | X-H torsion
[ 10763 10752 10751 10750 ] final   43.42 input  -60.55 | X-H torsion
[ 11005 11000 10999 10996 ] final   98.06 input  -57.11 | X-H torsion

> <Gold.Protein.ActiveResidues>
 VAL166  LYS551  ARG553  GLY616  TRP617  ASP618  TYR619  PRO620  LYS621  CYS622 
 ASP623  PHE694  ASN695  SER759  ASP760  ASP761  ALA762  ILE779  LEU786  VAL792 
 PHE793  MET794  SER795  GLU796  ALA797  LYS798  CYS799  TRP800  GLU811  SER814 

> <Gold.Protein.RotatedAtoms>
  150.9941  133.6121  159.2703 H   0  0  0  0  0  0  0  0  0  0  0  0  # atno 6907 bound_to 6896
  151.3331  135.0845  159.9355 H   0  0  0  0  0  0  0  0  0  0  0  0  # atno 6908 bound_to 6896
  152.5254  133.9566  159.7752 H   0  0  0  0  0  0  0  0  0  0  0  0  # atno 6909 bound_to 6896
  145.8443  140.8395  143.0018 H   0  0  0  0  0  0  0  0  0  0  0  0  # atno 7974 bound_to 7965
  155.4225  140.0519  157.3024 H   0  0  0  0  0  0  0  0  0  0  0  0  # atno 8008 bound_to 7997
  154.4896  140.2115  155.9537 H   0  0  0  0  0  0  0  0  0  0  0  0  # atno 8009 bound_to 7997
  156.1323  140.3169  155.8373 H   0  0  0  0  0  0  0  0  0  0  0  0  # atno 8010 bound_to 7997
  140.6297  143.2454  151.5273 H   0  0  0  0  0  0  0  0  0  0  0  0  # atno 10167 bound_to 10162
  156.1779  130.6712  151.0266 H   0  0  0  0  0  0  0  0  0  0  0  0  # atno 10718 bound_to 10713
  152.9861  135.6102  154.3109 H   0  0  0  0  0  0  0  0  0  0  0  0  # atno 10763 bound_to 10752
  154.2824  135.2776  155.2693 H   0  0  0  0  0  0  0  0  0  0  0  0  # atno 10764 bound_to 10752
  154.5026  135.5863  153.6599 H   0  0  0  0  0  0  0  0  0  0  0  0  # atno 10765 bound_to 10752
  139.8773  134.9031  156.4399 H   0  0  0  0  0  0  0  0  0  0  0  0  # atno 11005 bound_to 11000
  144.6732  140.0859  143.7467 LP  0  0  0  0  0  0  0  0  0  0  0  0  # atno 17320 bound_to 7965
  145.9429  139.2681  143.1258 LP  0  0  0  0  0  0  0  0  0  0  0  0  # atno 17321 bound_to 7965
  139.5512  144.2390  152.1534 LP  0  0  0  0  0  0  0  0  0  0  0  0  # atno 17342 bound_to 10162
  140.1630  144.5007  150.6621 LP  0  0  0  0  0  0  0  0  0  0  0  0  # atno 17343 bound_to 10162
  157.6848  131.0828  150.7272 LP  0  0  0  0  0  0  0  0  0  0  0  0  # atno 17370 bound_to 10713
  156.7330  130.4715  149.5495 LP  0  0  0  0  0  0  0  0  0  0  0  0  # atno 17371 bound_to 10713
  140.9006  133.7782  155.9676 LP  0  0  0  0  0  0  0  0  0  0  0  0  # atno 17394 bound_to 11000
  140.8654  134.2790  157.5215 LP  0  0  0  0  0  0  0  0  0  0  0  0  # atno 17395 bound_to 11000

$$$$
