AV-unprocessed.smi:3054|AV-procd|sdf|11639|dock3
  -GOLD-   2272017 33D 1   1.00000     0.00000
 Structure written by MMmdl.
 40 41  0  0  0  0  0  0  0  0  2 V2000
  151.6309  145.6344  159.6625 C   0  0  0  0  0  0  0  0  0  0  0  0
  152.1952  144.8928  158.4406 C   0  0  0  0  0  0  0  0  0  0  0  0
  152.2994  143.3522  158.6086 C   0  0  2  0  0  0  0  0  0  0  0  0
  150.9084  142.6724  158.6843 C   0  0  0  0  0  0  0  0  0  0  0  0
  150.2600  142.6078  157.3783 N   0  0  0  0  0  0  0  0  0  0  0  0
  149.9626  141.4773  156.7236 C   0  0  0  0  0  0  0  0  0  0  0  0
  150.2144  140.3534  157.1575 O   0  0  0  0  0  0  0  0  0  0  0  0
  149.3618  141.7369  155.5511 N   0  0  0  0  0  0  0  0  0  0  0  0
  148.9062  140.7960  154.5942 C   0  0  0  0  0  0  0  0  0  0  0  0
  147.7743  140.8634  153.7294 C   0  0  0  0  0  0  0  0  0  0  0  0
  147.6825  139.7778  152.9745 N   0  0  0  0  0  0  0  0  0  0  0  0
  148.7394  139.0215  153.3468 N   0  0  0  0  0  0  0  0  0  0  0  0
  149.5098  139.6031  154.3294 C   0  0  0  0  0  0  0  0  0  0  0  0
  153.1566  142.9913  159.7768 N   0  3  0  0  0  0  0  0  0  0  0  0
  152.5378  143.1596  161.1098 C   0  0  0  0  0  0  0  0  0  0  0  0
  153.3826  142.3057  162.0478 C   0  0  0  0  0  0  0  0  0  0  0  0
  153.7325  141.0957  161.1894 C   0  0  0  0  0  0  0  0  0  0  0  0
  153.7296  141.6212  159.7471 C   0  0  0  0  0  0  0  0  0  0  0  0
  148.9189  138.1211  152.9257 H   0  0  0  0  0  0  0  0  0  0  0  0
  151.6193  146.7101  159.4856 H   0  0  0  0  0  0  0  0  0  0  0  0
  152.2324  145.4552  160.5537 H   0  0  0  0  0  0  0  0  0  0  0  0
  150.6065  145.3314  159.8794 H   0  0  0  0  0  0  0  0  0  0  0  0
  151.5741  145.1272  157.5757 H   0  0  0  0  0  0  0  0  0  0  0  0
  153.1703  145.3134  158.1963 H   0  0  0  0  0  0  0  0  0  0  0  0
  152.7985  142.9625  157.7196 H   0  0  0  0  0  0  0  0  0  0  0  0
  150.9953  141.6457  159.0399 H   0  0  0  0  0  0  0  0  0  0  0  0
  150.2796  143.1969  159.4059 H   0  0  0  0  0  0  0  0  0  0  0  0
  150.0183  143.4861  156.9430 H   0  0  0  0  0  0  0  0  0  0  0  0
  149.2157  142.7079  155.3173 H   0  0  0  0  0  0  0  0  0  0  0  0
  147.0302  141.6380  153.6199 H   0  0  0  0  0  0  0  0  0  0  0  0
  150.3905  139.1307  154.7391 H   0  0  0  0  0  0  0  0  0  0  0  0
  152.5144  144.2043  161.4218 H   0  0  0  0  0  0  0  0  0  0  0  0
  151.5134  142.7831  161.0921 H   0  0  0  0  0  0  0  0  0  0  0  0
  154.2920  142.8427  162.3211 H   0  0  0  0  0  0  0  0  0  0  0  0
  152.8592  142.0382  162.9663 H   0  0  0  0  0  0  0  0  0  0  0  0
  154.6866  140.6490  161.4714 H   0  0  0  0  0  0  0  0  0  0  0  0
  152.9626  140.3310  161.3026 H   0  0  0  0  0  0  0  0  0  0  0  0
  153.1428  140.9511  159.1172 H   0  0  0  0  0  0  0  0  0  0  0  0
  154.7392  141.6637  159.3375 H   0  0  0  0  0  0  0  0  0  0  0  0
  153.9468  143.6207  159.7646 H   0  0  0  0  0  0  0  0  0  0  0  0
  1  2  1  0  0  0  0
  1 20  1  0  0  0  0
  1 21  1  0  0  0  0
  1 22  1  0  0  0  0
  2  3  1  0  0  0  0
  2 23  1  0  0  0  0
  2 24  1  0  0  0  0
  3  4  1  0  0  0  0
  3 14  1  0  0  0  0
  3 25  1  0  0  0  0
  4  5  1  0  0  0  0
  4 26  1  0  0  0  0
  4 27  1  0  0  0  0
  5  6  1  0  0  0  0
  5 28  1  0  0  0  0
  6  7  2  0  0  0  0
  6  8  1  0  0  0  0
  8  9  1  0  0  0  0
  8 29  1  0  0  0  0
  9 13  2  0  0  0  0
  9 10  1  0  0  0  0
 10 11  2  0  0  0  0
 10 30  1  0  0  0  0
 11 12  1  0  0  0  0
 12 19  1  0  0  0  0
 12 13  1  0  0  0  0
 13 31  1  0  0  0  0
 14 18  1  0  0  0  0
 14 15  1  0  0  0  0
 14 40  1  0  0  0  0
 15 16  1  0  0  0  0
 15 32  1  0  0  0  0
 15 33  1  0  0  0  0
 16 17  1  0  0  0  0
 16 34  1  0  0  0  0
 16 35  1  0  0  0  0
 17 18  1  0  0  0  0
 17 36  1  0  0  0  0
 17 37  1  0  0  0  0
 18 38  1  0  0  0  0
 18 39  1  0  0  0  0
M  CHG  1  14   1
M  END
> <s_m_source_file>
AV-unprocessed.smi

> <i_m_source_file_index>
3054

> <i_lp_mmshare_version>
43012

> <i_f3d_flags>
0

> <s_epik_input>
W0NIMl0xW0NIMl1bQ0gyXVtDSDJdTjFbQ0BIXShbQ0gyXVtDSDNdKVtDSDJdW05IXUMoPU8pW05IXWMyW2NIXW5bbkhdW2NIXTI=

> <s_epik_cmdline>
J2VwaWtfcHl0aG9uJywgJy1waCcsICc3LjAnLCAnLXRuJywgJzgnLCAnLW1hJywgJzIwMCcsICctbWV0YWxfYmluZGluZycsICctaW1hZScsICc8aW5maWxlLm1hZT4nLCAnLW9tYWUnLCAnPG91dGZpbGUubWFlPic=

> <r_lp_tautomer_probability>
0.5

> <r_epik_Ionization_Penalty>
0.00108132

> <r_epik_Ionization_Penalty_Charging>
0.00104139

> <r_epik_Ionization_Penalty_Neutral>
3.99244e-05

> <r_epik_State_Penalty>
0.00068071

> <r_epik_Charging_Adjusted_Penalty>
0.0017221

> <i_epik_Tot_Q>
1

> <i_epik_Tot_abs_Q>
1

> <r_epik_Metal_State_Penalty>
-0

> <b_epik_Metal_Only>
0

> <s_lp_Force_Field>
OPLS_2005

> <r_lp_Energy>
36.476

> <b_lp_Chiralities_Consistent>
1

> <s_lp_Variant>
AV-unprocessed.smi:3054-1

> <Gold.Version>
5.8.1

> <Gold.Id.Protein>
6NUR|6NUR_protein|mol2

> <Gold.PLP.Fitness>
49.2380

> <Gold.PLP.PLP>
-43.0296

> <Gold.PLP.part.hbond>
-3.4675

> <Gold.PLP.part.metal>
0.0000

> <Gold.PLP.part.buried>
-6.8553

> <Gold.PLP.part.nonpolar>
-36.2440

> <Gold.PLP.part.repulsive>
2.9301

> <Gold.PLP.ligand.clash>
0.0000

> <Gold.PLP.ligand.torsion>
0.6602

> <Gold.PLP.Chemscore.Hbond>
2.4788

> <Gold.PLP.Chemscore.CHOScore>
0.0000

> <Gold.PLP.Chemscore.Metal>
0.0000

> <Gold.Chemscore.Hbonds>
donor molecule, donor type, donor heavy atom, donor atom, acceptor molecule, acceptor atom, score
      L1  H     5    28       P1  8028  0.83
      L1  H     8    29       P1  8028  0.93
      L1  H    12    19       P1  7948  0.73

> <Gold.PLP.Chemscore.Internal.Correction>
0.0924

> <Gold.Rescore>
     Score         DG    S(hbond)    S(metal)    S(lipo)     H(rot)  DE(clash)    DE(int)     intcor
     19.24     -22.36       2.50        0.00     112.58       1.81       1.43       1.69       ----

> <Gold.Chemscore.Fitness>
19.2423

> <Gold.Chemscore.DG>
-22.3637

> <Gold.Chemscore.ZeroCoef>
-5.4800

> <Gold.Chemscore.Hbond>
2.4983

> <Gold.Chemscore.Metal>
0.0000

> <Gold.Chemscore.Lipo>
112.5775

> <Gold.Chemscore.Internal_Hbond>
0.0000

> <Gold.Chemscore.DEClash>
1.4325

> <Gold.Chemscore.DEInternal>
1.6889

> <Gold.Chemscore.Rot>
1.8094

> <Gold.Chemscore.Internal.Correction>
   9.000000E+99

> <Gold.Chemscore.Hbonds>
donor molecule, donor type, donor heavy atom, donor atom, acceptor molecule, acceptor atom, score
      L1  H     5    28       P1  8028  0.79
      L1  H     8    29       P1  8028  0.88
      L1  H    12    19       P1  7948  0.73

> <Gold.Chemscore.Hbond.Weighted>
-8.3443

> <Gold.Chemscore.Metal.Weighted>
-0.0000

> <Gold.Chemscore.Lipo.Weighted>
-13.1716

> <Gold.Chemscore.Internal_Hbond.Weighted>
0.0000

> <Gold.Chemscore.DEClash.Weighted>
1.4325

> <Gold.Chemscore.DEInternal.Weighted>
1.6889

> <Gold.Chemscore.Rot.Weighted>
4.6322

> <Gold.Chemscore.Internal.Correction.Weighted>
   9.000000E+99

> <Gold.Protein.RotatedTorsions>
[ 6907 6896 6895 6894 ] final  -30.74 input  -60.11 | X-H torsion
[ 7974 7965 7964 7962 ] final   63.34 input  175.53 | X-H torsion
[ 8008 7997 7996 7995 ] final  179.07 input   59.86 | X-H torsion
[ 10167 10162 10161 10158 ] final -161.19 input  -65.29 | X-H torsion
[ 10718 10713 10712 10709 ] final -111.54 input   66.30 | X-H torsion
[ 10763 10752 10751 10750 ] final   15.83 input  -60.55 | X-H torsion
[ 11005 11000 10999 10996 ] final   35.18 input  -57.11 | X-H torsion

> <Gold.Protein.ActiveResidues>
 VAL166  LYS551  ARG553  GLY616  TRP617  ASP618  TYR619  PRO620  LYS621  CYS622 
 ASP623  PHE694  ASN695  SER759  ASP760  ASP761  ALA762  ILE779  LEU786  VAL792 
 PHE793  MET794  SER795  GLU796  ALA797  LYS798  CYS799  TRP800  GLU811  SER814 

> <Gold.Protein.RotatedAtoms>
  151.1015  134.9975  159.8450 H   0  0  0  0  0  0  0  0  0  0  0  0  # atno 6907 bound_to 6896
  152.5437  134.1945  159.8697 H   0  0  0  0  0  0  0  0  0  0  0  0  # atno 6908 bound_to 6896
  151.1988  133.4579  159.2629 H   0  0  0  0  0  0  0  0  0  0  0  0  # atno 6909 bound_to 6896
  145.8629  139.3327  143.0808 H   0  0  0  0  0  0  0  0  0  0  0  0  # atno 7974 bound_to 7965
  156.0476  140.1318  157.0087 H   0  0  0  0  0  0  0  0  0  0  0  0  # atno 8008 bound_to 7997
  154.4419  140.1017  156.6399 H   0  0  0  0  0  0  0  0  0  0  0  0  # atno 8009 bound_to 7997
  155.5573  140.3464  155.4485 H   0  0  0  0  0  0  0  0  0  0  0  0  # atno 8010 bound_to 7997
  139.6483  144.0130  152.2143 H   0  0  0  0  0  0  0  0  0  0  0  0  # atno 10167 bound_to 10162
  156.0653  130.5873  150.8387 H   0  0  0  0  0  0  0  0  0  0  0  0  # atno 10718 bound_to 10713
  153.1488  135.6774  153.8914 H   0  0  0  0  0  0  0  0  0  0  0  0  # atno 10763 bound_to 10752
  153.8347  135.3113  155.3422 H   0  0  0  0  0  0  0  0  0  0  0  0  # atno 10764 bound_to 10752
  154.7846  135.4869  154.0004 H   0  0  0  0  0  0  0  0  0  0  0  0  # atno 10765 bound_to 10752
  140.2453  134.3367  155.7910 H   0  0  0  0  0  0  0  0  0  0  0  0  # atno 11005 bound_to 11000
  145.9227  140.9104  143.0397 LP  0  0  0  0  0  0  0  0  0  0  0  0  # atno 17320 bound_to 7965
  144.6726  140.1310  143.7443 LP  0  0  0  0  0  0  0  0  0  0  0  0  # atno 17321 bound_to 7965
  139.9838  144.6410  150.7876 LP  0  0  0  0  0  0  0  0  0  0  0  0  # atno 17342 bound_to 10162
  140.7525  143.2992  151.3124 LP  0  0  0  0  0  0  0  0  0  0  0  0  # atno 17343 bound_to 10162
  157.5690  131.0946  150.9446 LP  0  0  0  0  0  0  0  0  0  0  0  0  # atno 17370 bound_to 10713
  156.9666  130.5475  149.5288 LP  0  0  0  0  0  0  0  0  0  0  0  0  # atno 17371 bound_to 10713
  141.2207  133.7322  156.8951 LP  0  0  0  0  0  0  0  0  0  0  0  0  # atno 17394 bound_to 11000
  140.1612  134.9164  157.2717 LP  0  0  0  0  0  0  0  0  0  0  0  0  # atno 17395 bound_to 11000

$$$$
