AV-unprocessed.smi:1244|AV-procd|sdf|5233|dock6
  -GOLD-   22720 4333D 1   1.00000     0.00000
 Structure written by MMmdl.
 56 58  0  0  0  0  0  0  0  0  3 V2000
  148.6047  131.7671  153.7611 C   0  0  0  0  0  0  0  0  0  0  0  0
  149.0235  132.4961  155.0426 C   0  0  2  0  0  0  0  0  0  0  0  0
  149.1449  134.0188  154.8293 C   0  0  0  0  0  0  0  0  0  0  0  0
  149.6342  134.6984  156.0539 N   0  3  1  0  0  0  0  0  0  0  0  0
  148.5892  134.8705  157.0978 C   0  0  0  0  0  0  0  0  0  0  0  0
  148.9714  135.9427  158.1366 C   0  0  0  0  0  0  0  0  0  0  0  0
  149.1787  137.2451  157.5130 N   0  0  0  0  0  0  0  0  0  0  0  0
  149.8218  138.2729  158.0852 C   0  0  0  0  0  0  0  0  0  0  0  0
  150.3013  138.2270  159.2180 O   0  0  0  0  0  0  0  0  0  0  0  0
  149.8848  139.3322  157.2607 N   0  0  0  0  0  0  0  0  0  0  0  0
  150.5116  140.5893  157.4965 C   0  0  0  0  0  0  0  0  0  0  0  0
  151.5254  140.7333  158.4788 C   0  0  0  0  0  0  0  0  0  0  0  0
  152.0763  142.0019  158.7407 C   0  0  0  0  0  0  0  0  0  0  0  0
  151.5943  143.1127  158.0283 C   0  0  0  0  0  0  0  0  0  0  0  0
  150.6208  142.9463  157.1096 N   0  3  0  0  0  0  0  0  0  0  0  0
  150.0610  141.7495  156.8017 C   0  0  0  0  0  0  0  0  0  0  0  0
  149.0582  141.7252  155.8060 N   0  0  0  0  0  0  0  0  0  0  0  0
  149.2947  141.0446  154.5379 C   0  0  0  0  0  0  0  0  0  0  0  0
  147.9157  140.9111  153.8981 C   0  0  0  0  0  0  0  0  0  0  0  0
  147.0138  140.6870  155.1084 C   0  0  0  0  0  0  0  0  0  0  0  0
  147.6709  141.5221  156.2129 C   0  0  0  0  0  0  0  0  0  0  0  0
  150.8912  134.0651  156.5293 C   0  0  0  0  0  0  0  0  0  0  0  0
  150.7395  132.5358  156.6806 C   0  0  2  0  0  0  0  0  0  0  0  0
  152.0661  131.8608  157.0460 C   0  0  0  0  0  0  0  0  0  0  0  0
  150.2890  131.9852  155.4476 O   0  0  0  0  0  0  0  0  0  0  0  0
  147.6332  132.1161  153.4100 H   0  0  0  0  0  0  0  0  0  0  0  0
  148.5296  130.6927  153.9308 H   0  0  0  0  0  0  0  0  0  0  0  0
  149.3273  131.9277  152.9606 H   0  0  0  0  0  0  0  0  0  0  0  0
  148.2838  132.2826  155.8160 H   0  0  0  0  0  0  0  0  0  0  0  0
  149.8538  134.2176  154.0243 H   0  0  0  0  0  0  0  0  0  0  0  0
  148.1937  134.4454  154.5085 H   0  0  0  0  0  0  0  0  0  0  0  0
  147.6589  135.1840  156.6223 H   0  0  0  0  0  0  0  0  0  0  0  0
  148.3750  133.9177  157.5818 H   0  0  0  0  0  0  0  0  0  0  0  0
  148.2129  136.0373  158.9142 H   0  0  0  0  0  0  0  0  0  0  0  0
  149.8958  135.6577  158.6400 H   0  0  0  0  0  0  0  0  0  0  0  0
  148.8181  137.3657  156.5776 H   0  0  0  0  0  0  0  0  0  0  0  0
  149.5320  139.1911  156.3255 H   0  0  0  0  0  0  0  0  0  0  0  0
  151.8755  139.8910  159.0558 H   0  0  0  0  0  0  0  0  0  0  0  0
  152.8481  142.1217  159.4870 H   0  0  0  0  0  0  0  0  0  0  0  0
  151.9510  144.1233  158.1666 H   0  0  0  0  0  0  0  0  0  0  0  0
  149.9819  141.6071  153.9052 H   0  0  0  0  0  0  0  0  0  0  0  0
  149.7148  140.0526  154.7080 H   0  0  0  0  0  0  0  0  0  0  0  0
  147.6428  141.8414  153.3976 H   0  0  0  0  0  0  0  0  0  0  0  0
  147.8622  140.1031  153.1676 H   0  0  0  0  0  0  0  0  0  0  0  0
  145.9764  140.9681  154.9248 H   0  0  0  0  0  0  0  0  0  0  0  0
  147.0310  139.6323  155.3863 H   0  0  0  0  0  0  0  0  0  0  0  0
  147.5941  141.0274  157.1822 H   0  0  0  0  0  0  0  0  0  0  0  0
  147.1802  142.4928  156.2876 H   0  0  0  0  0  0  0  0  0  0  0  0
  151.6697  134.2783  155.7953 H   0  0  0  0  0  0  0  0  0  0  0  0
  151.2284  134.5118  157.4636 H   0  0  0  0  0  0  0  0  0  0  0  0
  150.0156  132.3021  157.4624 H   0  0  0  0  0  0  0  0  0  0  0  0
  152.4528  132.2416  157.9916 H   0  0  0  0  0  0  0  0  0  0  0  0
  152.8228  132.0348  156.2804 H   0  0  0  0  0  0  0  0  0  0  0  0
  151.9392  130.7830  157.1498 H   0  0  0  0  0  0  0  0  0  0  0  0
  149.8754  135.6364  155.7673 H   0  0  0  0  0  0  0  0  0  0  0  0
  150.2913  143.7724  156.6101 H   0  0  0  0  0  0  0  0  0  0  0  0
  1  2  1  0  0  0  0
  1 26  1  0  0  0  0
  1 27  1  0  0  0  0
  1 28  1  0  0  0  0
  2 25  1  0  0  0  0
  2  3  1  0  0  0  0
  2 29  1  0  0  0  0
  3  4  1  0  0  0  0
  3 30  1  0  0  0  0
  3 31  1  0  0  0  0
  4  5  1  0  0  0  0
  4 22  1  0  0  0  0
  4 55  1  0  0  0  0
  5  6  1  0  0  0  0
  5 32  1  0  0  0  0
  5 33  1  0  0  0  0
  6  7  1  0  0  0  0
  6 34  1  0  0  0  0
  6 35  1  0  0  0  0
  7  8  1  0  0  0  0
  7 36  1  0  0  0  0
  8  9  2  0  0  0  0
  8 10  1  0  0  0  0
 10 11  1  0  0  0  0
 10 37  1  0  0  0  0
 11 16  1  0  0  0  0
 11 12  2  0  0  0  0
 12 13  1  0  0  0  0
 12 38  1  0  0  0  0
 13 14  2  0  0  0  0
 13 39  1  0  0  0  0
 14 15  1  0  0  0  0
 14 40  1  0  0  0  0
 15 16  2  0  0  0  0
 15 56  1  0  0  0  0
 16 17  1  0  0  0  0
 17 21  1  0  0  0  0
 17 18  1  0  0  0  0
 18 19  1  0  0  0  0
 18 41  1  0  0  0  0
 18 42  1  0  0  0  0
 19 20  1  0  0  0  0
 19 43  1  0  0  0  0
 19 44  1  0  0  0  0
 20 21  1  0  0  0  0
 20 45  1  0  0  0  0
 20 46  1  0  0  0  0
 21 47  1  0  0  0  0
 21 48  1  0  0  0  0
 22 23  1  0  0  0  0
 22 49  1  0  0  0  0
 22 50  1  0  0  0  0
 23 24  1  0  0  0  0
 23 25  1  0  0  0  0
 23 51  1  0  0  0  0
 24 52  1  0  0  0  0
 24 53  1  0  0  0  0
 24 54  1  0  0  0  0
M  CHG  1   4   1
M  CHG  1  15   1
M  END
> <s_m_source_file>
AV-unprocessed.smi

> <i_m_source_file_index>
1244

> <i_lp_mmshare_version>
43012

> <i_f3d_flags>
0

> <s_epik_input>
W0NIM11bQ0BASF0xW0NIMl1OKFtDSDJdW0NASF0oTzEpW0NIM10pW0NIMl1bQ0gyXVtOSF1DKD1PKVtOSF1jMltjSF1bY0hdW2NIXW5jMk4zW0NIMl1bQ0gyXVtDSDJdW0NIMl0z

> <s_epik_cmdline>
J2VwaWtfcHl0aG9uJywgJy1waCcsICc3LjAnLCAnLXRuJywgJzgnLCAnLW1hJywgJzIwMCcsICctbWV0YWxfYmluZGluZycsICctaW1hZScsICc8aW5maWxlLm1hZT4nLCAnLW9tYWUnLCAnPG91dGZpbGUubWFlPic=

> <r_lp_tautomer_probability>
0.999994

> <r_epik_Ionization_Penalty>
1.81601

> <r_epik_Ionization_Penalty_Charging>
1.81599

> <r_epik_Ionization_Penalty_Neutral>
2.01972e-05

> <r_epik_State_Penalty>
1.85672

> <r_epik_Charging_Adjusted_Penalty>
3.6727

> <i_epik_Tot_Q>
2

> <i_epik_Tot_abs_Q>
2

> <r_epik_Metal_State_Penalty>
1.93796

> <b_epik_Metal_Only>
0

> <s_lp_Force_Field>
OPLS_2005

> <r_lp_Energy>
53.9706

> <b_lp_Chiralities_Consistent>
1

> <s_lp_Variant>
AV-unprocessed.smi:1244-13

> <Gold.Version>
5.8.1

> <Gold.Id.Protein>
6NUR|6NUR_protein|mol2

> <Gold.PLP.Fitness>
39.9641

> <Gold.PLP.PLP>
-34.6070

> <Gold.PLP.part.hbond>
-1.6161

> <Gold.PLP.part.metal>
0.0000

> <Gold.PLP.part.buried>
-5.1518

> <Gold.PLP.part.nonpolar>
-28.6520

> <Gold.PLP.part.repulsive>
0.9605

> <Gold.PLP.ligand.clash>
0.0000

> <Gold.PLP.ligand.torsion>
0.5208

> <Gold.PLP.Chemscore.Hbond>
2.0000

> <Gold.PLP.Chemscore.CHOScore>
0.0000

> <Gold.PLP.Chemscore.Metal>
0.0000

> <Gold.Chemscore.Hbonds>
donor molecule, donor type, donor heavy atom, donor atom, acceptor molecule, acceptor atom, score
      L1  H    15    56       P1  8028  2.00

> <Gold.PLP.Chemscore.Internal.Correction>
0.3988

> <Gold.Rescore>
     Score         DG    S(hbond)    S(metal)    S(lipo)     H(rot)  DE(clash)    DE(int)     intcor
     13.27     -15.24       0.98        0.00      91.03       1.63       0.19       1.78       ----

> <Gold.Chemscore.Fitness>
13.2682

> <Gold.Chemscore.DG>
-15.2420

> <Gold.Chemscore.ZeroCoef>
-5.4800

> <Gold.Chemscore.Hbond>
0.9826

> <Gold.Chemscore.Metal>
0.0000

> <Gold.Chemscore.Lipo>
91.0334

> <Gold.Chemscore.Internal_Hbond>
0.0000

> <Gold.Chemscore.DEClash>
0.1943

> <Gold.Chemscore.DEInternal>
1.7795

> <Gold.Chemscore.Rot>
1.6293

> <Gold.Chemscore.Internal.Correction>
   9.000000E+99

> <Gold.Chemscore.Hbonds>
donor molecule, donor type, donor heavy atom, donor atom, acceptor molecule, acceptor atom, score
      L1  H    15    56       P1  8028  0.95

> <Gold.Chemscore.Hbond.Weighted>
-3.2820

> <Gold.Chemscore.Metal.Weighted>
-0.0000

> <Gold.Chemscore.Lipo.Weighted>
-10.6509

> <Gold.Chemscore.Internal_Hbond.Weighted>
0.0000

> <Gold.Chemscore.DEClash.Weighted>
0.1943

> <Gold.Chemscore.DEInternal.Weighted>
1.7795

> <Gold.Chemscore.Rot.Weighted>
4.1709

> <Gold.Chemscore.Internal.Correction.Weighted>
   9.000000E+99

> <Gold.Protein.RotatedTorsions>
[ 6907 6896 6895 6894 ] final  -52.29 input  -60.11 | X-H torsion
[ 7974 7965 7964 7962 ] final   84.15 input  175.53 | X-H torsion
[ 8008 7997 7996 7995 ] final  148.27 input   59.86 | X-H torsion
[ 10167 10162 10161 10158 ] final  -23.92 input  -65.29 | X-H torsion
[ 10718 10713 10712 10709 ] final   57.35 input   66.30 | X-H torsion
[ 10763 10752 10751 10750 ] final   39.14 input  -60.55 | X-H torsion
[ 11005 11000 10999 10996 ] final  129.29 input  -57.11 | X-H torsion

> <Gold.Protein.ActiveResidues>
 VAL166  LYS551  ARG553  GLY616  TRP617  ASP618  TYR619  PRO620  LYS621  CYS622 
 ASP623  PHE694  ASN695  SER759  ASP760  ASP761  ALA762  ILE779  LEU786  VAL792 
 PHE793  MET794  SER795  GLU796  ALA797  LYS798  CYS799  TRP800  GLU811  SER814 

> <Gold.Protein.RotatedAtoms>
  150.8532  134.7862  159.7024 H   0  0  0  0  0  0  0  0  0  0  0  0  # atno 6907 bound_to 6896
  152.4591  134.5222  159.9796 H   0  0  0  0  0  0  0  0  0  0  0  0  # atno 6908 bound_to 6896
  151.5340  133.3406  159.2959 H   0  0  0  0  0  0  0  0  0  0  0  0  # atno 6909 bound_to 6896
  145.6026  139.2355  143.2237 H   0  0  0  0  0  0  0  0  0  0  0  0  # atno 7974 bound_to 7965
  156.2797  140.2133  156.5671 H   0  0  0  0  0  0  0  0  0  0  0  0  # atno 8008 bound_to 7997
  154.7165  140.0507  157.0623 H   0  0  0  0  0  0  0  0  0  0  0  0  # atno 8009 bound_to 7997
  155.0535  140.3159  155.4687 H   0  0  0  0  0  0  0  0  0  0  0  0  # atno 8010 bound_to 7997
  140.7288  143.4400  151.0672 H   0  0  0  0  0  0  0  0  0  0  0  0  # atno 10167 bound_to 10162
  157.5507  130.8764  149.8959 H   0  0  0  0  0  0  0  0  0  0  0  0  # atno 10718 bound_to 10713
  152.9977  135.6229  154.2417 H   0  0  0  0  0  0  0  0  0  0  0  0  # atno 10763 bound_to 10752
  154.2158  135.2798  155.2944 H   0  0  0  0  0  0  0  0  0  0  0  0  # atno 10764 bound_to 10752
  154.5569  135.5716  153.7031 H   0  0  0  0  0  0  0  0  0  0  0  0  # atno 10765 bound_to 10752
  139.9607  134.9603  156.9127 H   0  0  0  0  0  0  0  0  0  0  0  0  # atno 11005 bound_to 11000
  146.1565  140.6851  142.9297 LP  0  0  0  0  0  0  0  0  0  0  0  0  # atno 17320 bound_to 7965
  144.7303  140.4652  143.6942 LP  0  0  0  0  0  0  0  0  0  0  0  0  # atno 17321 bound_to 7965
  139.8066  143.8009  152.3168 LP  0  0  0  0  0  0  0  0  0  0  0  0  # atno 17342 bound_to 10162
  139.8044  144.7361  150.9781 LP  0  0  0  0  0  0  0  0  0  0  0  0  # atno 17343 bound_to 10162
  156.0574  130.3706  150.1059 LP  0  0  0  0  0  0  0  0  0  0  0  0  # atno 17370 bound_to 10713
  156.9232  130.9689  151.3545 LP  0  0  0  0  0  0  0  0  0  0  0  0  # atno 17371 bound_to 10713
  140.5506  134.0631  155.7368 LP  0  0  0  0  0  0  0  0  0  0  0  0  # atno 17394 bound_to 11000
  141.1284  133.9344  157.2587 LP  0  0  0  0  0  0  0  0  0  0  0  0  # atno 17395 bound_to 11000

$$$$
