AV-unprocessed.smi:227|AV-procd|sdf|1729|dock2
  -GOLD-   2262020213D 1   1.00000     0.00000
 Structure written by MMmdl.
 54 58  0  0  0  0  0  0  0  0  1 V2000
  148.4497  134.2506  154.1228 O   0  0  0  0  0  0  0  0  0  0  0  0
  149.7368  134.6023  154.5858 C   0  0  0  0  0  0  0  0  0  0  0  0
  149.9228  134.2586  156.0863 C   0  0  2  0  0  0  0  0  0  0  0  0
  151.2712  134.8011  156.6256 C   0  0  0  0  0  0  0  0  0  0  0  0
  151.2303  136.2072  156.9886 N   0  0  0  0  0  0  0  0  0  0  0  0
  150.6091  136.7587  158.0849 C   0  0  0  0  0  0  0  0  0  0  0  0
  150.7155  138.0547  158.1871 N   0  0  0  0  0  0  0  0  0  0  0  0
  151.4617  138.4319  157.0755 C   0  0  0  0  0  0  0  0  0  0  0  0
  151.9456  139.6738  156.5665 C   0  0  0  0  0  0  0  0  0  0  0  0
  151.7452  140.8835  157.1604 N   0  0  0  0  0  0  0  0  0  0  0  0
  150.9313  141.9074  156.5248 C   0  0  1  0  0  0  0  0  0  0  0  0
  149.4869  141.3973  156.6965 C   0  0  0  0  0  0  0  0  0  0  0  0
  149.5732  140.7097  158.0685 C   0  0  0  0  0  0  0  0  0  0  0  0
  151.0507  140.9620  158.4400 C   0  0  2  0  0  0  0  0  0  0  0  0
  151.2169  142.4440  158.8360 C   0  0  1  0  0  0  0  0  0  0  0  0
  152.5278  142.7140  159.5964 C   0  0  0  0  0  0  0  0  0  0  0  0
  152.3850  142.3590  160.9554 O   0  0  0  0  0  0  0  0  0  0  0  0
  151.1552  143.1161  157.4488 C   0  0  0  0  0  0  0  0  0  0  0  0
  152.6316  139.6362  155.3928 N   0  0  0  0  0  0  0  0  0  0  0  0
  152.8557  138.4759  154.7710 C   0  0  0  0  0  0  0  0  0  0  0  0
  152.4830  137.2492  155.1367 N   0  0  0  0  0  0  0  0  0  0  0  0
  151.7800  137.2763  156.3042 C   0  0  0  0  0  0  0  0  0  0  0  0
  149.8171  132.7331  156.3607 C   0  0  2  0  0  0  0  0  0  0  0  0
  149.9423  132.3083  157.8139 C   0  0  0  0  0  0  0  0  0  0  0  0
  150.2591  130.8221  157.6940 C   0  0  0  0  0  0  0  0  0  0  0  0
  151.0052  130.6854  156.4908 O   0  0  0  0  0  0  0  0  0  0  0  0
  150.9398  131.8930  155.7395 C   0  0  0  0  0  0  0  0  0  0  0  0
  148.2501  134.7737  153.3615 H   0  0  0  0  0  0  0  0  0  0  0  0
  150.4936  134.1057  153.9781 H   0  0  0  0  0  0  0  0  0  0  0  0
  149.8390  135.6706  154.4015 H   0  0  0  0  0  0  0  0  0  0  0  0
  149.1293  134.7599  156.6428 H   0  0  0  0  0  0  0  0  0  0  0  0
  151.5828  134.2516  157.5138 H   0  0  0  0  0  0  0  0  0  0  0  0
  152.0569  134.6578  155.8825 H   0  0  0  0  0  0  0  0  0  0  0  0
  150.0771  136.1658  158.8144 H   0  0  0  0  0  0  0  0  0  0  0  0
  151.1853  142.1443  155.4936 H   0  0  0  0  0  0  0  0  0  0  0  0
  148.7510  142.2016  156.6693 H   0  0  0  0  0  0  0  0  0  0  0  0
  149.2305  140.6757  155.9197 H   0  0  0  0  0  0  0  0  0  0  0  0
  148.8749  141.1235  158.7967 H   0  0  0  0  0  0  0  0  0  0  0  0
  149.3673  139.6428  157.9759 H   0  0  0  0  0  0  0  0  0  0  0  0
  151.4192  140.2814  159.2087 H   0  0  0  0  0  0  0  0  0  0  0  0
  150.3798  142.7616  159.4601 H   0  0  0  0  0  0  0  0  0  0  0  0
  153.3397  142.1239  159.1704 H   0  0  0  0  0  0  0  0  0  0  0  0
  152.8193  143.7622  159.5229 H   0  0  0  0  0  0  0  0  0  0  0  0
  153.1273  141.8307  161.2066 H   0  0  0  0  0  0  0  0  0  0  0  0
  152.0958  143.6111  157.2025 H   0  0  0  0  0  0  0  0  0  0  0  0
  150.3585  143.8568  157.3733 H   0  0  0  0  0  0  0  0  0  0  0  0
  153.4136  138.5397  153.8483 H   0  0  0  0  0  0  0  0  0  0  0  0
  148.8622  132.3662  155.9801 H   0  0  0  0  0  0  0  0  0  0  0  0
  150.7714  132.8303  158.2939 H   0  0  0  0  0  0  0  0  0  0  0  0
  149.0386  132.4889  158.3960 H   0  0  0  0  0  0  0  0  0  0  0  0
  150.8115  130.4418  158.5535 H   0  0  0  0  0  0  0  0  0  0  0  0
  149.3393  130.2439  157.5987 H   0  0  0  0  0  0  0  0  0  0  0  0
  150.7695  131.6812  154.6837 H   0  0  0  0  0  0  0  0  0  0  0  0
  151.8997  132.4032  155.8312 H   0  0  0  0  0  0  0  0  0  0  0  0
  1  2  1  0  0  0  0
  1 28  1  0  0  0  0
  2  3  1  0  0  0  0
  2 29  1  0  0  0  0
  2 30  1  0  0  0  0
  3  4  1  0  0  0  0
  3 23  1  0  0  0  0
  3 31  1  0  0  0  0
  4  5  1  0  0  0  0
  4 32  1  0  0  0  0
  4 33  1  0  0  0  0
  5 22  1  0  0  0  0
  5  6  1  0  0  0  0
  6  7  2  0  0  0  0
  6 34  1  0  0  0  0
  7  8  1  0  0  0  0
  8 22  2  0  0  0  0
  8  9  1  0  0  0  0
  9 10  1  0  0  0  0
  9 19  2  0  0  0  0
 10 14  1  0  0  0  0
 10 11  1  0  0  0  0
 11 18  1  0  0  0  0
 11 12  1  0  0  0  0
 11 35  1  0  0  0  0
 12 13  1  0  0  0  0
 12 36  1  0  0  0  0
 12 37  1  0  0  0  0
 13 14  1  0  0  0  0
 13 38  1  0  0  0  0
 13 39  1  0  0  0  0
 14 15  1  0  0  0  0
 14 40  1  0  0  0  0
 15 16  1  0  0  0  0
 15 18  1  0  0  0  0
 15 41  1  0  0  0  0
 16 17  1  0  0  0  0
 16 42  1  0  0  0  0
 16 43  1  0  0  0  0
 17 44  1  0  0  0  0
 18 45  1  0  0  0  0
 18 46  1  0  0  0  0
 19 20  1  0  0  0  0
 20 21  2  0  0  0  0
 20 47  1  0  0  0  0
 21 22  1  0  0  0  0
 23 27  1  0  0  0  0
 23 24  1  0  0  0  0
 23 48  1  0  0  0  0
 24 25  1  0  0  0  0
 24 49  1  0  0  0  0
 24 50  1  0  0  0  0
 25 26  1  0  0  0  0
 25 51  1  0  0  0  0
 25 52  1  0  0  0  0
 26 27  1  0  0  0  0
 27 53  1  0  0  0  0
 27 54  1  0  0  0  0
M  END
> <s_m_source_file>
AV-unprocessed.smi

> <i_m_source_file_index>
227

> <i_lp_mmshare_version>
43012

> <i_f3d_flags>
0

> <s_epik_input>
W0NIMl0xT1tDSDJdW0NIMl1bQ0BIXTFbQ0BIXShbQ0gyXVtPSF0pW0NIMl1uKFtjSF1uMiljKGMyMyluW2NIXW5jM04oW0NASF00NSlbQ0BASF0oW0NIMl1bQ0gyXTQpW0NASF0oW0NIMl01KVtDSDJdW09IXQ==

> <s_epik_cmdline>
J2VwaWtfcHl0aG9uJywgJy1waCcsICc3LjAnLCAnLXRuJywgJzgnLCAnLW1hJywgJzIwMCcsICctbWV0YWxfYmluZGluZycsICctaW1hZScsICc8aW5maWxlLm1hZT4nLCAnLW9tYWUnLCAnPG91dGZpbGUubWFlPic=

> <r_lp_tautomer_probability>
1

> <r_epik_Ionization_Penalty>
0.0055791

> <r_epik_Ionization_Penalty_Charging>
0

> <r_epik_Ionization_Penalty_Neutral>
0.0055791

> <r_epik_State_Penalty>
0.00401299

> <r_epik_Charging_Adjusted_Penalty>
0.00401299

> <i_epik_Tot_Q>
0

> <i_epik_Tot_abs_Q>
0

> <r_epik_Metal_State_Penalty>
-0

> <b_epik_Metal_Only>
0

> <s_lp_Force_Field>
OPLS_2005

> <r_lp_Energy>
88.7609

> <b_lp_Chiralities_Consistent>
1

> <s_lp_Variant>
AV-unprocessed.smi:227-3

> <Gold.Version>
5.8.1

> <Gold.Id.Protein>
6NUR|6NUR_protein|mol2

> <Gold.PLP.Fitness>
44.0091

> <Gold.PLP.PLP>
-37.1935

> <Gold.PLP.part.hbond>
-3.6071

> <Gold.PLP.part.metal>
0.0000

> <Gold.PLP.part.buried>
-5.6104

> <Gold.PLP.part.nonpolar>
-28.7456

> <Gold.PLP.part.repulsive>
0.0506

> <Gold.PLP.ligand.clash>
0.0000

> <Gold.PLP.ligand.torsion>
0.6410

> <Gold.PLP.Chemscore.Hbond>
2.6160

> <Gold.PLP.Chemscore.CHOScore>
0.0000

> <Gold.PLP.Chemscore.Metal>
0.0000

> <Gold.Chemscore.Hbonds>
donor molecule, donor type, donor heavy atom, donor atom, acceptor molecule, acceptor atom, score
      L1  H     1    28       P1  7948  0.60
      P1  H  7997  8008       L1    19  0.85
      P1  H 10752 10763       L1    21  0.64

> <Gold.PLP.Chemscore.Internal.Correction>
0.2497

> <Gold.Rescore>
     Score         DG    S(hbond)    S(metal)    S(lipo)     H(rot)  DE(clash)    DE(int)     intcor
     10.32     -13.33       2.25        0.00      81.77       3.61       0.12       2.89       ----

> <Gold.Chemscore.Fitness>
10.3169

> <Gold.Chemscore.DG>
-13.3268

> <Gold.Chemscore.ZeroCoef>
-5.4800

> <Gold.Chemscore.Hbond>
2.2495

> <Gold.Chemscore.Metal>
0.0000

> <Gold.Chemscore.Lipo>
81.7738

> <Gold.Chemscore.Internal_Hbond>
0.0000

> <Gold.Chemscore.DEClash>
0.1232

> <Gold.Chemscore.DEInternal>
2.8866

> <Gold.Chemscore.Rot>
3.6071

> <Gold.Chemscore.Internal.Correction>
   9.000000E+99

> <Gold.Chemscore.Hbonds>
donor molecule, donor type, donor heavy atom, donor atom, acceptor molecule, acceptor atom, score
      L1  H     1    28       P1  7948  0.47
      P1  H  7989  7998       L1    19  0.01
      P1  H  7997  8008       L1    19  0.07
      P1  H 10752 10763       L1    21  0.55

> <Gold.Chemscore.Hbond.Weighted>
-7.5134

> <Gold.Chemscore.Metal.Weighted>
-0.0000

> <Gold.Chemscore.Lipo.Weighted>
-9.5675

> <Gold.Chemscore.Internal_Hbond.Weighted>
0.0000

> <Gold.Chemscore.DEClash.Weighted>
0.1232

> <Gold.Chemscore.DEInternal.Weighted>
2.8866

> <Gold.Chemscore.Rot.Weighted>
9.2342

> <Gold.Chemscore.Internal.Correction.Weighted>
   9.000000E+99

> <Gold.Protein.RotatedTorsions>
[ 6907 6896 6895 6894 ] final  -81.59 input  -60.11 | X-H torsion
[ 7974 7965 7964 7962 ] final  -98.64 input  175.53 | X-H torsion
[ 8008 7997 7996 7995 ] final  -31.11 input   59.86 | X-H torsion
[ 10167 10162 10161 10158 ] final -101.16 input  -65.29 | X-H torsion
[ 10718 10713 10712 10709 ] final   60.34 input   66.30 | X-H torsion
[ 10763 10752 10751 10750 ] final   62.86 input  -60.55 | X-H torsion
[ 11005 11000 10999 10996 ] final   -0.33 input  -57.11 | X-H torsion

> <Gold.Protein.ActiveResidues>
 VAL166  LYS551  ARG553  GLY616  TRP617  ASP618  TYR619  PRO620  LYS621  CYS622 
 ASP623  PHE694  ASN695  SER759  ASP760  ASP761  ALA762  ILE779  LEU786  VAL792 
 PHE793  MET794  SER795  GLU796  ALA797  LYS798  CYS799  TRP800  GLU811  SER814 

> <Gold.Protein.RotatedAtoms>
  150.6910  134.3795  159.5027 H   0  0  0  0  0  0  0  0  0  0  0  0  # atno 6907 bound_to 6896
  152.1599  134.8918  160.0551 H   0  0  0  0  0  0  0  0  0  0  0  0  # atno 6908 bound_to 6896
  151.9983  133.3781  159.4208 H   0  0  0  0  0  0  0  0  0  0  0  0  # atno 6909 bound_to 6896
  145.3179  140.9415  143.2732 H   0  0  0  0  0  0  0  0  0  0  0  0  # atno 7974 bound_to 7965
  154.4225  140.1773  156.1514 H   0  0  0  0  0  0  0  0  0  0  0  0  # atno 8008 bound_to 7997
  155.9912  140.3369  155.6730 H   0  0  0  0  0  0  0  0  0  0  0  0  # atno 8009 bound_to 7997
  155.6370  140.0676  157.2621 H   0  0  0  0  0  0  0  0  0  0  0  0  # atno 8010 bound_to 7997
  140.2443  143.3517  152.0773 H   0  0  0  0  0  0  0  0  0  0  0  0  # atno 10167 bound_to 10162
  157.5745  130.8933  149.9324 H   0  0  0  0  0  0  0  0  0  0  0  0  # atno 10718 bound_to 10713
  152.9997  135.5450  154.6259 H   0  0  0  0  0  0  0  0  0  0  0  0  # atno 10763 bound_to 10752
  154.5548  135.2829  155.0977 H   0  0  0  0  0  0  0  0  0  0  0  0  # atno 10764 bound_to 10752
  154.2202  135.6452  153.5195 H   0  0  0  0  0  0  0  0  0  0  0  0  # atno 10765 bound_to 10752
  140.6351  133.9540  155.8295 H   0  0  0  0  0  0  0  0  0  0  0  0  # atno 11005 bound_to 11000
  144.8963  139.4708  143.6654 LP  0  0  0  0  0  0  0  0  0  0  0  0  # atno 17320 bound_to 7965
  146.3093  139.7690  142.9032 LP  0  0  0  0  0  0  0  0  0  0  0  0  # atno 17321 bound_to 7965
  139.5067  144.6818  151.5988 LP  0  0  0  0  0  0  0  0  0  0  0  0  # atno 17342 bound_to 10162
  140.6090  143.9472  150.6439 LP  0  0  0  0  0  0  0  0  0  0  0  0  # atno 17343 bound_to 10162
  156.0790  130.3675  150.0619 LP  0  0  0  0  0  0  0  0  0  0  0  0  # atno 17370 bound_to 10713
  156.8767  130.9542  151.3604 LP  0  0  0  0  0  0  0  0  0  0  0  0  # atno 17371 bound_to 10713
  141.0647  134.0294  157.3610 LP  0  0  0  0  0  0  0  0  0  0  0  0  # atno 17394 bound_to 11000
  139.9101  135.0188  156.7656 LP  0  0  0  0  0  0  0  0  0  0  0  0  # atno 17395 bound_to 11000

$$$$
