#       Name:                AV-unprocessed.smi:2883
#       Creating user name   scv26
#       Creation time:       Fri Mar 27 15:55:23 2020


#       File generated by GOLD software.
#

@<TRIPOS>MOLECULE
AV-unprocessed.smi:2883
    43    45     1
SMALL
NO_CHARGES


@<TRIPOS>ATOM
      1 ****        -3.3435   1.1030  -1.4469 C.3            1 S1                 0.0000
      2 ****        -2.9650   0.8246   0.0192 C.3            1 S1                 0.0000
      3 ****        -2.0758   1.9729   0.5525 C.3            1 S1                 0.0000
      4 ****        -4.2412   0.8294   0.8933 C.3            1 S1                 0.0000
      5 ****        -2.2346  -0.5260   0.1119 C.ar           1 S1                 0.0000
      6 ****        -2.9898  -1.6266   0.2260 N.ar           1 S1                 0.0000
      7 ****        -2.3627  -2.8210   0.1797 C.ar           1 S1                 0.0000
      8 ****        -0.9717  -2.9215  -0.0152 C.ar           1 S1                 0.0000
      9 ****        -0.2706  -1.7089  -0.1664 C.ar           1 S1                 0.0000
     10 ****         1.1148  -1.7341  -0.3772 N.pl3          1 S1                 0.0000
     11 ****         1.8973  -0.5027  -0.3712 C.3            1 S1                 0.0000
     12 ****         2.0732   0.0926   1.0318 C.3            1 S1                 0.0000
     13 ****         3.5993   0.1899   1.1457 C.3            1 S1                 0.0000
     14 ****         4.1873   1.2523   0.2069 C.3            1 S1                 0.0000
     15 ****         4.0488   0.5753  -1.1565 C.3            1 S1                 0.0000
     16 ****         3.3586  -0.7443  -0.7857 C.3            1 S1                 0.0000
     17 ****         3.9733  -0.9963   0.4678 O.3            1 S1                 0.0000
     18 ****        -0.9154  -0.5203  -0.1189 N.ar           1 S1                 0.0000
     19 ****        -3.8609   2.0572  -1.5504 H              1 S1                 0.0000
     20 ****        -4.0009   0.3269  -1.8403 H              1 S1                 0.0000
     21 ****        -2.4591   1.1375  -2.0842 H              1 S1                 0.0000
     22 ****        -1.1730   2.1035  -0.0454 H              1 S1                 0.0000
     23 ****        -1.7657   1.7898   1.5821 H              1 S1                 0.0000
     24 ****        -2.6053   2.9261   0.5345 H              1 S1                 0.0000
     25 ****        -4.7370   1.8005   0.8669 H              1 S1                 0.0000
     26 ****        -4.0094   0.6084   1.9358 H              1 S1                 0.0000
     27 ****        -4.9721   0.0947   0.5538 H              1 S1                 0.0000
     28 ****        -2.9759  -3.7027   0.2926 H              1 S1                 0.0000
     29 ****        -0.4750  -3.8797  -0.0531 H              1 S1                 0.0000
     30 ****         1.6044  -2.6172  -0.3707 H              1 S1                 0.0000
     31 ****         1.4367   0.2140  -1.0527 H              1 S1                 0.0000
     32 ****         1.5832   1.0607   1.1414 H              1 S1                 0.0000
     33 ****         1.6825  -0.5724   1.8036 H              1 S1                 0.0000
     34 ****         3.9618   0.2547   2.1719 H              1 S1                 0.0000
     35 ****         3.6496   2.1992   0.2671 H              1 S1                 0.0000
     36 ****         5.2370   1.4383   0.4365 H              1 S1                 0.0000
     37 ****         3.4691   1.1656  -1.8670 H              1 S1                 0.0000
     38 ****         5.0315   0.3878  -1.5907 H              1 S1                 0.0000
     39 ****         3.4961  -1.5314  -1.5282 H              1 S1                 0.0000
     40 ****        -3.9813  -1.5656   0.3412 LP             1 S1                 0.0000
     41 ****         3.6016  -1.8128   0.9095 LP             1 S1                 0.0000
     42 ****         4.9662  -1.0839   0.3868 LP             1 S1                 0.0000
     43 ****        -0.4207   0.3385  -0.2524 LP             1 S1                 0.0000
@<TRIPOS>BOND
    1    1    2 1     
    2    1   19 1     
    3    1   20 1     
    4    1   21 1     
    5    2    3 1     
    6    2    4 1     
    7    2    5 1     
    8    3   22 1     
    9    3   23 1     
   10    3   24 1     
   11    4   25 1     
   12    4   26 1     
   13    4   27 1     
   14    5   18 ar    
   15    5    6 ar    
   16    6    7 ar    
   17    7    8 ar    
   18    7   28 1     
   19    8    9 ar    
   20    8   29 1     
   21    9   10 1     
   22    9   18 ar    
   23   10   11 1     
   24   10   30 1     
   25   11   16 1     
   26   11   12 1     
   27   11   31 1     
   28   12   13 1     
   29   12   32 1     
   30   12   33 1     
   31   13   17 1     
   32   13   14 1     
   33   13   34 1     
   34   14   15 1     
   35   14   35 1     
   36   14   36 1     
   37   15   16 1     
   38   15   37 1     
   39   15   38 1     
   40   16   17 1     
   41   16   39 1     
   42    6   40 1     
   43   17   41 1     
   44   17   42 1     
   45   18   43 1     
@<TRIPOS>SUBSTRUCTURE
      1 S1             1
@<TRIPOS>SET
LONE_PAIRS      STATIC     ATOMS    <user>   **** ""
4 40 41 42 43
DONOR_HYDROGENS      STATIC     ATOMS    <user>   **** ""
1 30
ATOM$BLUE        STATIC     ATOMS    COLORGROUP SYSTEM
4 40 41 42 43
ATOM$RED        STATIC     ATOMS    COLORGROUP SYSTEM
1 30
