#       Name:                AV-unprocessed.smi:2032
#       Creating user name   scv26
#       Creation time:       Fri Mar 27 10:51:18 2020


#       File generated by GOLD software.
#

@<TRIPOS>MOLECULE
AV-unprocessed.smi:2032
    48    49     1
SMALL
NO_CHARGES


@<TRIPOS>ATOM
      1 ****        -4.1255  -1.9527  -2.7530 C.3            1 S1                 0.0000
      2 ****        -3.5492  -1.2096  -1.5425 C.3            1 S1                 0.0000
      3 ****        -2.0097  -1.1727  -1.5614 C.3            1 S1                 0.0000
      4 ****        -1.4579  -0.5148  -0.3433 N.4            1 S1                 1.0000
      5 ****         0.0432  -0.4399  -0.3325 C.3            1 S1                 0.0000
      6 ****         0.5807   0.3296  -1.5647 C.3            1 S1                 0.0000
      7 ****         0.5926   0.1771   0.9850 C.3            1 S1                 0.0000
      8 ****         2.0505   0.2764   1.0161 N.am           1 S1                 0.0000
      9 ****         2.7543   1.4128   0.9025 C.2            1 S1                 0.0000
     10 ****         2.2366   2.5170   0.7320 O.2            1 S1                 0.0000
     11 ****         4.0751   1.1781   0.9901 N.am           1 S1                 0.0000
     12 ****         5.1398   2.1136   0.9084 C.2            1 S1                 0.0000
     13 ****         4.9764   3.4296   0.7286 N.2            1 S1                 0.0000
     14 ****         6.1968   4.1090   0.6899 C.2            1 S1                 0.0000
     15 ****         7.2869   3.2883   0.8409 C.2            1 S1                 0.0000
     16 ****         6.8215   1.6199   1.0397 S.3            1 S1                 0.0000
     17 ****        -2.0454  -1.1458   0.8726 C.3            1 S1                 0.0000
     18 ****        -3.5839  -1.1913   0.8075 C.3            1 S1                 0.0000
     19 ****        -4.1915  -1.9177   2.0128 C.3            1 S1                 0.0000
     20 ****        -3.9824  -1.8793  -0.3683 O.3            1 S1                 0.0000
     21 ****        -3.8352  -1.4689  -3.6859 H              1 S1                 0.0000
     22 ****        -5.2149  -1.9722  -2.7151 H              1 S1                 0.0000
     23 ****        -3.7758  -2.9849  -2.7880 H              1 S1                 0.0000
     24 ****        -3.9424  -0.1911  -1.5455 H              1 S1                 0.0000
     25 ****        -1.6095  -2.1850  -1.6393 H              1 S1                 0.0000
     26 ****        -1.7138  -0.6380  -2.4617 H              1 S1                 0.0000
     27 ****         0.4195  -1.4624  -0.3936 H              1 S1                 0.0000
     28 ****         1.6662   0.4166  -1.5524 H              1 S1                 0.0000
     29 ****         0.1716   1.3392  -1.6103 H              1 S1                 0.0000
     30 ****         0.3565  -0.1717  -2.5045 H              1 S1                 0.0000
     31 ****         0.1268   1.1465   1.1710 H              1 S1                 0.0000
     32 ****         0.3470  -0.4529   1.8387 H              1 S1                 0.0000
     33 ****         2.5611  -0.5846   1.1486 H              1 S1                 0.0000
     34 ****         4.3534   0.2183   1.1313 H              1 S1                 0.0000
     35 ****         6.1971   5.1800   0.5508 H              1 S1                 0.0000
     36 ****         8.3311   3.5634   0.8474 H              1 S1                 0.0000
     37 ****        -1.6408  -2.1527   0.9898 H              1 S1                 0.0000
     38 ****        -1.7848  -0.5818   1.7665 H              1 S1                 0.0000
     39 ****        -3.9816  -0.1751   0.7831 H              1 S1                 0.0000
     40 ****        -3.9304  -1.4173   2.9456 H              1 S1                 0.0000
     41 ****        -3.8369  -2.9471   2.0745 H              1 S1                 0.0000
     42 ****        -5.2794  -1.9440   1.9444 H              1 S1                 0.0000
     43 ****        -1.7919   0.4386  -0.3555 H              1 S1                 0.0000
     44 ****         1.2418   2.5988   0.6715 LP             1 S1                 0.0000
     45 ****         2.8109   3.3318   0.6540 LP             1 S1                 0.0000
     46 ****         4.0858   3.8743   0.6332 LP             1 S1                 0.0000
     47 ****        -3.5879  -2.7981  -0.3553 LP             1 S1                 0.0000
     48 ****        -4.9802  -1.9452  -0.3825 LP             1 S1                 0.0000
@<TRIPOS>BOND
    1    1    2 1     
    2    1   21 1     
    3    1   22 1     
    4    1   23 1     
    5    2   20 1     
    6    2    3 1     
    7    2   24 1     
    8    3    4 1     
    9    3   25 1     
   10    3   26 1     
   11    4    5 1     
   12    4   17 1     
   13    4   43 1     
   14    5    6 1     
   15    5    7 1     
   16    5   27 1     
   17    6   28 1     
   18    6   29 1     
   19    6   30 1     
   20    7    8 1     
   21    7   31 1     
   22    7   32 1     
   23    8    9 am    
   24    8   33 1     
   25    9   10 2     
   26    9   11 am    
   27   11   12 1     
   28   11   34 1     
   29   12   16 1     
   30   12   13 2     
   31   13   14 1     
   32   14   15 2     
   33   14   35 1     
   34   15   16 1     
   35   15   36 1     
   36   17   18 1     
   37   17   37 1     
   38   17   38 1     
   39   18   19 1     
   40   18   20 1     
   41   18   39 1     
   42   19   40 1     
   43   19   41 1     
   44   19   42 1     
   45   10   44 1     
   46   10   45 1     
   47   13   46 1     
   48   20   47 1     
   49   20   48 1     
@<TRIPOS>SUBSTRUCTURE
      1 S1             1
@<TRIPOS>SET
LONE_PAIRS      STATIC     ATOMS    <user>   **** ""
5 44 45 46 47 48
DONOR_HYDROGENS      STATIC     ATOMS    <user>   **** ""
3 43 33 34
ATOM$BLUE        STATIC     ATOMS    COLORGROUP SYSTEM
5 44 45 46 47 48
ATOM$RED        STATIC     ATOMS    COLORGROUP SYSTEM
3 43 33 34
