AV-unprocessed.smi:2825|AV-procd|sdf|10890|dock9
  -GOLD-   2272015333D 1   1.00000     0.00000
 Structure written by MMmdl.
 49 50  0  0  0  0  0  0  0  0  2 V2000
  148.2970  133.5089  153.3937 C   0  0  0  0  0  0  0  0  0  0  0  0
  148.7246  134.5622  154.4205 C   0  0  0  0  0  0  0  0  0  0  0  0
  150.1000  134.2608  155.0341 C   0  0  0  0  0  0  0  0  0  0  0  0
  150.5603  135.4933  156.3313 S   0  0  0  0  0  0  0  0  0  0  0  0
  149.5160  135.4752  157.3672 O   0  0  0  0  0  0  0  0  0  0  0  0
  151.9699  135.3006  156.7069 O   0  0  0  0  0  0  0  0  0  0  0  0
  150.4353  137.0168  155.5032 N   0  0  0  0  0  0  0  0  0  0  0  0
  149.1093  137.4937  155.0855 C   0  0  0  0  0  0  0  0  0  0  0  0
  151.6105  137.5745  154.7977 C   0  0  0  0  0  0  0  0  0  0  0  0
  152.2029  138.8552  155.4342 C   0  0  2  0  0  0  0  0  0  0  0  0
  153.5232  138.6065  155.8707 O   0  0  0  0  0  0  0  0  0  0  0  0
  151.3771  139.2975  156.6589 C   0  0  0  0  0  0  0  0  0  0  0  0
  151.2432  140.7571  156.7591 N   0  0  0  0  0  0  0  0  0  0  0  0
  150.7254  141.6542  155.8765 C   0  0  0  0  0  0  0  0  0  0  0  0
  150.8294  142.8899  156.4397 N   0  3  0  0  0  0  0  0  0  0  0  0
  151.4225  142.7799  157.6993 C   0  0  0  0  0  0  0  0  0  0  0  0
  151.7372  143.7469  158.6468 C   0  0  0  0  0  0  0  0  0  0  0  0
  152.3426  143.3035  159.8445 C   0  0  0  0  0  0  0  0  0  0  0  0
  152.7006  144.3350  160.9011 C   0  0  0  0  0  0  0  0  0  0  0  0
  152.6137  141.9271  160.0599 C   0  0  0  0  0  0  0  0  0  0  0  0
  153.2657  141.4610  161.3507 C   0  0  0  0  0  0  0  0  0  0  0  0
  152.2845  140.9589  159.0845 C   0  0  0  0  0  0  0  0  0  0  0  0
  151.6898  141.4135  157.9103 C   0  0  0  0  0  0  0  0  0  0  0  0
  147.3176  133.7472  152.9779 H   0  0  0  0  0  0  0  0  0  0  0  0
  148.2345  132.5192  153.8473 H   0  0  0  0  0  0  0  0  0  0  0  0
  149.0057  133.4556  152.5667 H   0  0  0  0  0  0  0  0  0  0  0  0
  148.7442  135.5424  153.9429 H   0  0  0  0  0  0  0  0  0  0  0  0
  147.9727  134.6207  155.2072 H   0  0  0  0  0  0  0  0  0  0  0  0
  150.1450  133.2624  155.4672 H   0  0  0  0  0  0  0  0  0  0  0  0
  150.8622  134.3040  154.2560 H   0  0  0  0  0  0  0  0  0  0  0  0
  148.7580  136.9327  154.2194 H   0  0  0  0  0  0  0  0  0  0  0  0
  149.1414  138.5545  154.8358 H   0  0  0  0  0  0  0  0  0  0  0  0
  148.3868  137.3686  155.8916 H   0  0  0  0  0  0  0  0  0  0  0  0
  152.3754  136.7972  154.8036 H   0  0  0  0  0  0  0  0  0  0  0  0
  151.3765  137.7461  153.7469 H   0  0  0  0  0  0  0  0  0  0  0  0
  152.2228  139.6816  154.7253 H   0  0  0  0  0  0  0  0  0  0  0  0
  153.5269  137.8075  156.3754 H   0  0  0  0  0  0  0  0  0  0  0  0
  150.3764  138.8642  156.6339 H   0  0  0  0  0  0  0  0  0  0  0  0
  151.8419  138.9446  157.5809 H   0  0  0  0  0  0  0  0  0  0  0  0
  150.3050  141.4269  154.9074 H   0  0  0  0  0  0  0  0  0  0  0  0
  151.5282  144.7930  158.4762 H   0  0  0  0  0  0  0  0  0  0  0  0
  153.7802  144.3700  161.0485 H   0  0  0  0  0  0  0  0  0  0  0  0
  152.2285  144.0912  161.8528 H   0  0  0  0  0  0  0  0  0  0  0  0
  152.3699  145.3333  160.6128 H   0  0  0  0  0  0  0  0  0  0  0  0
  153.4539  140.3871  161.3369 H   0  0  0  0  0  0  0  0  0  0  0  0
  152.6208  141.6760  162.2031 H   0  0  0  0  0  0  0  0  0  0  0  0
  154.2214  141.9634  161.5023 H   0  0  0  0  0  0  0  0  0  0  0  0
  152.4879  139.9110  159.2488 H   0  0  0  0  0  0  0  0  0  0  0  0
  150.5170  143.7438  155.9951 H   0  0  0  0  0  0  0  0  0  0  0  0
  1  2  1  0  0  0  0
  1 24  1  0  0  0  0
  1 25  1  0  0  0  0
  1 26  1  0  0  0  0
  2  3  1  0  0  0  0
  2 27  1  0  0  0  0
  2 28  1  0  0  0  0
  3  4  1  0  0  0  0
  3 29  1  0  0  0  0
  3 30  1  0  0  0  0
  4  5  2  0  0  0  0
  4  6  2  0  0  0  0
  4  7  1  0  0  0  0
  7  8  1  0  0  0  0
  7  9  1  0  0  0  0
  8 31  1  0  0  0  0
  8 32  1  0  0  0  0
  8 33  1  0  0  0  0
  9 10  1  0  0  0  0
  9 34  1  0  0  0  0
  9 35  1  0  0  0  0
 10 11  1  0  0  0  0
 10 12  1  0  0  0  0
 10 36  1  0  0  0  0
 11 37  1  0  0  0  0
 12 13  1  0  0  0  0
 12 38  1  0  0  0  0
 12 39  1  0  0  0  0
 13 23  1  0  0  0  0
 13 14  1  0  0  0  0
 14 15  2  0  0  0  0
 14 40  1  0  0  0  0
 15 16  1  0  0  0  0
 15 49  1  0  0  0  0
 16 23  2  0  0  0  0
 16 17  1  0  0  0  0
 17 18  2  0  0  0  0
 17 41  1  0  0  0  0
 18 19  1  0  0  0  0
 18 20  1  0  0  0  0
 19 42  1  0  0  0  0
 19 43  1  0  0  0  0
 19 44  1  0  0  0  0
 20 21  1  0  0  0  0
 20 22  2  0  0  0  0
 21 45  1  0  0  0  0
 21 46  1  0  0  0  0
 21 47  1  0  0  0  0
 22 23  1  0  0  0  0
 22 48  1  0  0  0  0
M  CHG  1  15   1
M  END
> <s_m_source_file>
AV-unprocessed.smi

> <i_m_source_file_index>
2825

> <i_lp_mmshare_version>
43012

> <i_f3d_flags>
0

> <s_epik_input>
W0NIM11bQ0gyXVtDSDJdUyg9TykoPU8pTihbQ0gzXSlbQ0gyXVtDQEhdKFtPSF0pW0NIMl1uKFtjSF1uMSljKGMxMilbY0hdYyhbQ0gzXSljKFtjSF0yKVtDSDNd

> <s_epik_cmdline>
J2VwaWtfcHl0aG9uJywgJy1waCcsICc3LjAnLCAnLXRuJywgJzgnLCAnLW1hJywgJzIwMCcsICctbWV0YWxfYmluZGluZycsICctaW1hZScsICc8aW5maWxlLm1hZT4nLCAnLW9tYWUnLCAnPG91dGZpbGUubWFlPic=

> <r_epik_Ionization_Penalty>
1.0773

> <r_epik_Ionization_Penalty_Charging>
1.0773

> <r_epik_Ionization_Penalty_Neutral>
1.44651e-06

> <r_epik_State_Penalty>
1.13242

> <r_epik_Charging_Adjusted_Penalty>
2.20972

> <i_epik_Tot_Q>
1

> <i_epik_Tot_abs_Q>
1

> <r_epik_Metal_State_Penalty>
5.13045

> <b_epik_Metal_Only>
0

> <s_lp_Force_Field>
OPLS_2005

> <r_lp_Energy>
13.8299

> <b_lp_Chiralities_Consistent>
1

> <s_lp_Variant>
AV-unprocessed.smi:2825-3

> <Gold.Version>
5.8.1

> <Gold.Id.Protein>
6NUR|6NUR_protein|mol2

> <Gold.PLP.Fitness>
60.6424

> <Gold.PLP.PLP>
-49.5891

> <Gold.PLP.part.hbond>
-3.6466

> <Gold.PLP.part.metal>
0.0000

> <Gold.PLP.part.buried>
-6.8783

> <Gold.PLP.part.nonpolar>
-40.6037

> <Gold.PLP.part.repulsive>
0.1201

> <Gold.PLP.ligand.clash>
0.0000

> <Gold.PLP.ligand.torsion>
2.5872

> <Gold.PLP.Chemscore.Hbond>
4.5879

> <Gold.PLP.Chemscore.CHOScore>
0.0000

> <Gold.PLP.Chemscore.Metal>
0.0000

> <Gold.Chemscore.Hbonds>
donor molecule, donor type, donor heavy atom, donor atom, acceptor molecule, acceptor atom, score
      L1  H    15    49       P1  8028  1.63
      P1  H  7997  8008       L1    11  0.83
      P1  H 10752 10764       L1     6  1.00

> <Gold.PLP.Chemscore.Internal.Correction>
2.4640

> <Gold.Rescore>
     Score         DG    S(hbond)    S(metal)    S(lipo)     H(rot)  DE(clash)    DE(int)     intcor
     18.83     -21.27       2.90        0.00     107.18       2.51       0.03       2.41       ----

> <Gold.Chemscore.Fitness>
18.8272

> <Gold.Chemscore.DG>
-21.2678

> <Gold.Chemscore.ZeroCoef>
-5.4800

> <Gold.Chemscore.Hbond>
2.8968

> <Gold.Chemscore.Metal>
0.0000

> <Gold.Chemscore.Lipo>
107.1768

> <Gold.Chemscore.Internal_Hbond>
0.0000

> <Gold.Chemscore.DEClash>
0.0310

> <Gold.Chemscore.DEInternal>
2.4096

> <Gold.Chemscore.Rot>
2.5106

> <Gold.Chemscore.Internal.Correction>
   9.000000E+99

> <Gold.Chemscore.Hbonds>
donor molecule, donor type, donor heavy atom, donor atom, acceptor molecule, acceptor atom, score
      L1  H    15    49       P1  8028  0.81
      P1  H  7997  8008       L1    11  0.65
      P1  H 10752 10764       L1     6  0.73

> <Gold.Chemscore.Hbond.Weighted>
-9.6752

> <Gold.Chemscore.Metal.Weighted>
-0.0000

> <Gold.Chemscore.Lipo.Weighted>
-12.5397

> <Gold.Chemscore.Internal_Hbond.Weighted>
0.0000

> <Gold.Chemscore.DEClash.Weighted>
0.0310

> <Gold.Chemscore.DEInternal.Weighted>
2.4096

> <Gold.Chemscore.Rot.Weighted>
6.4271

> <Gold.Chemscore.Internal.Correction.Weighted>
   9.000000E+99

> <Gold.Protein.RotatedTorsions>
[ 6907 6896 6895 6894 ] final   28.67 input  -60.11 | X-H torsion
[ 7974 7965 7964 7962 ] final  -20.42 input  175.53 | X-H torsion
[ 8008 7997 7996 7995 ] final  -33.23 input   59.86 | X-H torsion
[ 10167 10162 10161 10158 ] final    2.95 input  -65.29 | X-H torsion
[ 10718 10713 10712 10709 ] final -111.93 input   66.30 | X-H torsion
[ 10763 10752 10751 10750 ] final  -28.33 input  -60.55 | X-H torsion
[ 11005 11000 10999 10996 ] final   65.62 input  -57.11 | X-H torsion

> <Gold.Protein.ActiveResidues>
 VAL166  LYS551  ARG553  GLY616  TRP617  ASP618  TYR619  PRO620  LYS621  CYS622 
 ASP623  PHE694  ASN695  SER759  ASP760  ASP761  ALA762  ILE779  LEU786  VAL792 
 PHE793  MET794  SER795  GLU796  ALA797  LYS798  CYS799  TRP800  GLU811  SER814 

> <Gold.Protein.RotatedAtoms>
  152.0203  134.9826  160.0570 H   0  0  0  0  0  0  0  0  0  0  0  0  # atno 6907 bound_to 6896
  152.1344  133.4422  159.4744 H   0  0  0  0  0  0  0  0  0  0  0  0  # atno 6908 bound_to 6896
  150.6859  134.2300  159.4474 H   0  0  0  0  0  0  0  0  0  0  0  0  # atno 6909 bound_to 6896
  146.1789  140.4200  142.8502 H   0  0  0  0  0  0  0  0  0  0  0  0  # atno 7974 bound_to 7965
  154.4155  140.1716  156.1854 H   0  0  0  0  0  0  0  0  0  0  0  0  # atno 8008 bound_to 7997
  155.9647  140.3390  155.6498 H   0  0  0  0  0  0  0  0  0  0  0  0  # atno 8009 bound_to 7997
  155.6703  140.0711  157.2513 H   0  0  0  0  0  0  0  0  0  0  0  0  # atno 8010 bound_to 7997
  140.6610  143.7304  150.7739 H   0  0  0  0  0  0  0  0  0  0  0  0  # atno 10167 bound_to 10162
  156.0676  130.5893  150.8440 H   0  0  0  0  0  0  0  0  0  0  0  0  # atno 10718 bound_to 10713
  153.7465  135.6929  153.4955 H   0  0  0  0  0  0  0  0  0  0  0  0  # atno 10763 bound_to 10752
  153.2032  135.4429  155.0291 H   0  0  0  0  0  0  0  0  0  0  0  0  # atno 10764 bound_to 10752
  154.8202  135.3418  154.6988 H   0  0  0  0  0  0  0  0  0  0  0  0  # atno 10765 bound_to 10752
  139.9883  134.6632  156.0136 H   0  0  0  0  0  0  0  0  0  0  0  0  # atno 11005 bound_to 11000
  144.8281  140.6662  143.6309 LP  0  0  0  0  0  0  0  0  0  0  0  0  # atno 17320 bound_to 7965
  145.4134  139.1576  143.4113 LP  0  0  0  0  0  0  0  0  0  0  0  0  # atno 17321 bound_to 7965
  140.0973  143.4821  152.2445 LP  0  0  0  0  0  0  0  0  0  0  0  0  # atno 17342 bound_to 10162
  139.5844  144.7524  151.3558 LP  0  0  0  0  0  0  0  0  0  0  0  0  # atno 17343 bound_to 10162
  157.5727  131.0946  150.9393 LP  0  0  0  0  0  0  0  0  0  0  0  0  # atno 17370 bound_to 10713
  156.9606  130.5454  149.5286 LP  0  0  0  0  0  0  0  0  0  0  0  0  # atno 17371 bound_to 10713
  141.1544  133.6544  156.4114 LP  0  0  0  0  0  0  0  0  0  0  0  0  # atno 17394 bound_to 11000
  140.4959  134.6532  157.5229 LP  0  0  0  0  0  0  0  0  0  0  0  0  # atno 17395 bound_to 11000

$$$$
