AV-unprocessed.smi:2985|AV-procd|sdf|11379|dock8
  -GOLD-   2272016303D 1   1.00000     0.00000
 Structure written by MMmdl.
 33 34  0  0  0  0  0  0  0  0  1 V2000
  155.4058  140.4813  160.1865 C   0  0  0  0  0  0  0  0  0  0  0  0
  154.9972  139.8628  158.9791 O   0  0  0  0  0  0  0  0  0  0  0  0
  153.8723  139.0196  159.1563 C   0  0  0  0  0  0  0  0  0  0  0  0
  152.7478  139.8234  159.8212 C   0  0  0  0  0  0  0  0  0  0  0  0
  152.2178  140.8393  158.9262 N   0  0  0  0  0  0  0  0  0  0  0  0
  151.6344  140.6570  157.7170 C   0  0  0  0  0  0  0  0  0  0  0  0
  151.4182  139.0514  157.0238 S   0  0  0  0  0  0  0  0  0  0  0  0
  151.0352  139.5610  155.3240 C   0  0  0  0  0  0  0  0  0  0  0  0
  150.6433  138.3856  154.4321 C   0  0  0  0  0  0  0  0  0  0  0  0
  149.5548  138.5345  153.6722 N   0  0  0  0  0  0  0  0  0  0  0  0
  151.3065  137.3510  154.4352 O   0  0  0  0  0  0  0  0  0  0  0  0
  151.2454  141.7671  157.0896 N   0  0  0  0  0  0  0  0  0  0  0  0
  151.6135  142.7623  157.9741 C   0  0  0  0  0  0  0  0  0  0  0  0
  151.4752  144.1661  157.8870 C   0  0  0  0  0  0  0  0  0  0  0  0
  151.9398  144.9948  158.9294 C   0  0  0  0  0  0  0  0  0  0  0  0
  152.5487  144.4334  160.0705 C   0  0  0  0  0  0  0  0  0  0  0  0
  152.6957  143.0370  160.1776 C   0  0  0  0  0  0  0  0  0  0  0  0
  152.2284  142.2143  159.1352 C   0  0  0  0  0  0  0  0  0  0  0  0
  156.2734  141.1138  159.9993 H   0  0  0  0  0  0  0  0  0  0  0  0
  155.6858  139.7390  160.9351 H   0  0  0  0  0  0  0  0  0  0  0  0
  154.6133  141.1092  160.5955 H   0  0  0  0  0  0  0  0  0  0  0  0
  153.5378  138.6340  158.1916 H   0  0  0  0  0  0  0  0  0  0  0  0
  154.1439  138.1640  159.7768 H   0  0  0  0  0  0  0  0  0  0  0  0
  151.9375  139.1653  160.1357 H   0  0  0  0  0  0  0  0  0  0  0  0
  153.1173  140.3088  160.7250 H   0  0  0  0  0  0  0  0  0  0  0  0
  150.2294  140.2958  155.3427 H   0  0  0  0  0  0  0  0  0  0  0  0
  151.9082  140.0533  154.8933 H   0  0  0  0  0  0  0  0  0  0  0  0
  149.2495  137.7795  153.0753 H   0  0  0  0  0  0  0  0  0  0  0  0
  149.0339  139.3987  153.7074 H   0  0  0  0  0  0  0  0  0  0  0  0
  151.0117  144.6059  157.0163 H   0  0  0  0  0  0  0  0  0  0  0  0
  151.8296  146.0665  158.8521 H   0  0  0  0  0  0  0  0  0  0  0  0
  152.9031  145.0753  160.8637 H   0  0  0  0  0  0  0  0  0  0  0  0
  153.1632  142.6052  161.0499 H   0  0  0  0  0  0  0  0  0  0  0  0
  1  2  1  0  0  0  0
  1 19  1  0  0  0  0
  1 20  1  0  0  0  0
  1 21  1  0  0  0  0
  2  3  1  0  0  0  0
  3  4  1  0  0  0  0
  3 22  1  0  0  0  0
  3 23  1  0  0  0  0
  4  5  1  0  0  0  0
  4 24  1  0  0  0  0
  4 25  1  0  0  0  0
  5 18  1  0  0  0  0
  5  6  1  0  0  0  0
  6  7  1  0  0  0  0
  6 12  2  0  0  0  0
  7  8  1  0  0  0  0
  8  9  1  0  0  0  0
  8 26  1  0  0  0  0
  8 27  1  0  0  0  0
  9 10  1  0  0  0  0
  9 11  2  0  0  0  0
 10 28  1  0  0  0  0
 10 29  1  0  0  0  0
 12 13  1  0  0  0  0
 13 18  2  0  0  0  0
 13 14  1  0  0  0  0
 14 15  2  0  0  0  0
 14 30  1  0  0  0  0
 15 16  1  0  0  0  0
 15 31  1  0  0  0  0
 16 17  2  0  0  0  0
 16 32  1  0  0  0  0
 17 18  1  0  0  0  0
 17 33  1  0  0  0  0
M  END
> <s_m_source_file>
AV-unprocessed.smi

> <i_m_source_file_index>
2985

> <i_lp_mmshare_version>
43012

> <i_f3d_flags>
0

> <s_epik_input>
W2NIXTFbY0hdW2NIXVtjSF1jKGMxMiluKFtDSDJdW0NIMl1PW0NIM10pYyhuMilTW0NIMl1DKD1PKVtOSDJd

> <s_epik_cmdline>
J2VwaWtfcHl0aG9uJywgJy1waCcsICc3LjAnLCAnLXRuJywgJzgnLCAnLW1hJywgJzIwMCcsICctbWV0YWxfYmluZGluZycsICctaW1hZScsICc8aW5maWxlLm1hZT4nLCAnLW9tYWUnLCAnPG91dGZpbGUubWFlPic=

> <r_epik_Ionization_Penalty>
0.0273334

> <r_epik_Ionization_Penalty_Charging>
0

> <r_epik_Ionization_Penalty_Neutral>
0.0273334

> <r_epik_State_Penalty>
0.0223655

> <r_epik_Charging_Adjusted_Penalty>
0.0223655

> <i_epik_Tot_Q>
0

> <i_epik_Tot_abs_Q>
0

> <r_epik_Metal_State_Penalty>
0.0213644

> <b_epik_Metal_Only>
0

> <s_lp_Force_Field>
OPLS_2005

> <r_lp_Energy>
5.41897

> <b_lp_Chiralities_Consistent>
1

> <s_lp_Variant>
AV-unprocessed.smi:2985-1

> <Gold.Version>
5.8.1

> <Gold.Id.Protein>
6NUR|6NUR_protein|mol2

> <Gold.PLP.Fitness>
48.8124

> <Gold.PLP.PLP>
-40.5032

> <Gold.PLP.part.hbond>
-4.0153

> <Gold.PLP.part.metal>
0.0000

> <Gold.PLP.part.buried>
-3.5892

> <Gold.PLP.part.nonpolar>
-32.3681

> <Gold.PLP.part.repulsive>
0.2898

> <Gold.PLP.ligand.clash>
0.0000

> <Gold.PLP.ligand.torsion>
0.3599

> <Gold.PLP.Chemscore.Hbond>
3.0000

> <Gold.PLP.Chemscore.CHOScore>
0.0000

> <Gold.PLP.Chemscore.Metal>
0.0000

> <Gold.Chemscore.Hbonds>
donor molecule, donor type, donor heavy atom, donor atom, acceptor molecule, acceptor atom, score
      L1  H    10    28       P1  7948  1.00
      P1  H  7997  8009       L1     2  1.00
      P1  H 10752 10763       L1    11  0.18

> <Gold.PLP.Chemscore.Internal.Correction>
0.0290

> <Gold.Rescore>
     Score         DG    S(hbond)    S(metal)    S(lipo)     H(rot)  DE(clash)    DE(int)     intcor
     20.09     -20.50       2.89        0.00     104.65       2.68       0.09       0.32       ----

> <Gold.Chemscore.Fitness>
20.0862

> <Gold.Chemscore.DG>
-20.5022

> <Gold.Chemscore.ZeroCoef>
-5.4800

> <Gold.Chemscore.Hbond>
2.8870

> <Gold.Chemscore.Metal>
0.0000

> <Gold.Chemscore.Lipo>
104.6498

> <Gold.Chemscore.Internal_Hbond>
0.0000

> <Gold.Chemscore.DEClash>
0.0936

> <Gold.Chemscore.DEInternal>
0.3224

> <Gold.Chemscore.Rot>
2.6814

> <Gold.Chemscore.Internal.Correction>
   9.000000E+99

> <Gold.Chemscore.Hbonds>
donor molecule, donor type, donor heavy atom, donor atom, acceptor molecule, acceptor atom, score
      L1  H    10    28       P1  7948  0.97
      P1  H  7997  8009       L1     2  0.59
      P1  H 10752 10763       L1    11  0.19

> <Gold.Chemscore.Hbond.Weighted>
-9.6425

> <Gold.Chemscore.Metal.Weighted>
-0.0000

> <Gold.Chemscore.Lipo.Weighted>
-12.2440

> <Gold.Chemscore.Internal_Hbond.Weighted>
0.0000

> <Gold.Chemscore.DEClash.Weighted>
0.0936

> <Gold.Chemscore.DEInternal.Weighted>
0.3224

> <Gold.Chemscore.Rot.Weighted>
6.8644

> <Gold.Chemscore.Internal.Correction.Weighted>
   9.000000E+99

> <Gold.Protein.RotatedTorsions>
[ 6907 6896 6895 6894 ] final  127.04 input  -60.11 | X-H torsion
[ 7974 7965 7964 7962 ] final  -16.49 input  175.53 | X-H torsion
[ 8008 7997 7996 7995 ] final  113.28 input   59.86 | X-H torsion
[ 10167 10162 10161 10158 ] final  141.03 input  -65.29 | X-H torsion
[ 10718 10713 10712 10709 ] final   63.45 input   66.30 | X-H torsion
[ 10763 10752 10751 10750 ] final   36.58 input  -60.55 | X-H torsion
[ 11005 11000 10999 10996 ] final   -8.20 input  -57.11 | X-H torsion

> <Gold.Protein.ActiveResidues>
 VAL166  LYS551  ARG553  GLY616  TRP617  ASP618  TYR619  PRO620  LYS621  CYS622 
 ASP623  PHE694  ASN695  SER759  ASP760  ASP761  ALA762  ILE779  LEU786  VAL792 
 PHE793  MET794  SER795  GLU796  ALA797  LYS798  CYS799  TRP800  GLU811  SER814 

> <Gold.Protein.RotatedAtoms>
  152.3848  133.6596  159.6190 H   0  0  0  0  0  0  0  0  0  0  0  0  # atno 6907 bound_to 6896
  150.7770  133.9053  159.3362 H   0  0  0  0  0  0  0  0  0  0  0  0  # atno 6908 bound_to 6896
  151.6851  135.0957  160.0274 H   0  0  0  0  0  0  0  0  0  0  0  0  # atno 6909 bound_to 6896
  146.1985  140.3644  142.8432 H   0  0  0  0  0  0  0  0  0  0  0  0  # atno 7974 bound_to 7965
  156.2248  140.2982  156.0040 H   0  0  0  0  0  0  0  0  0  0  0  0  # atno 8008 bound_to 7997
  155.2386  140.0421  157.2989 H   0  0  0  0  0  0  0  0  0  0  0  0  # atno 8009 bound_to 7997
  154.5898  140.2398  155.7945 H   0  0  0  0  0  0  0  0  0  0  0  0  # atno 8010 bound_to 7997
  139.5032  144.6197  151.6080 H   0  0  0  0  0  0  0  0  0  0  0  0  # atno 10167 bound_to 10162
  157.5972  130.9106  149.9717 H   0  0  0  0  0  0  0  0  0  0  0  0  # atno 10718 bound_to 10713
  153.0071  135.6302  154.2008 H   0  0  0  0  0  0  0  0  0  0  0  0  # atno 10763 bound_to 10752
  154.1751  135.2816  155.3071 H   0  0  0  0  0  0  0  0  0  0  0  0  # atno 10764 bound_to 10752
  154.5878  135.5627  153.7309 H   0  0  0  0  0  0  0  0  0  0  0  0  # atno 10765 bound_to 10752
  140.7209  133.8829  155.8820 H   0  0  0  0  0  0  0  0  0  0  0  0  # atno 11005 bound_to 11000
  144.8631  140.7168  143.6094 LP  0  0  0  0  0  0  0  0  0  0  0  0  # atno 17320 bound_to 7965
  145.3564  139.1693  143.4407 LP  0  0  0  0  0  0  0  0  0  0  0  0  # atno 17321 bound_to 7965
  140.5896  143.9803  150.6316 LP  0  0  0  0  0  0  0  0  0  0  0  0  # atno 17342 bound_to 10162
  140.2979  143.3280  152.0999 LP  0  0  0  0  0  0  0  0  0  0  0  0  # atno 17343 bound_to 10162
  156.1037  130.3654  150.0172 LP  0  0  0  0  0  0  0  0  0  0  0  0  # atno 17370 bound_to 10713
  156.8283  130.9383  151.3638 LP  0  0  0  0  0  0  0  0  0  0  0  0  # atno 17371 bound_to 10713
  141.0004  134.1158  157.4323 LP  0  0  0  0  0  0  0  0  0  0  0  0  # atno 17394 bound_to 11000
  139.8848  135.0066  156.6394 LP  0  0  0  0  0  0  0  0  0  0  0  0  # atno 17395 bound_to 11000

$$$$
