AV-unprocessed.smi:2182|AV-procd|sdf|8863|dock8
  -GOLD-   2272012 63D 1   1.00000     0.00000
 Structure written by MMmdl.
 41 43  0  0  0  0  0  0  0  0  1 V2000
  153.8467  138.9055  154.4610 N   0  0  0  0  0  0  0  0  0  0  0  0
  152.7225  138.6456  154.5502 C   0  0  0  0  0  0  0  0  0  0  0  0
  151.3444  138.3057  154.6843 C   0  0  0  0  0  0  0  0  0  0  0  0
  150.3740  139.0231  154.0815 C   0  0  0  0  0  0  0  0  0  0  0  0
  149.0381  138.7053  154.1938 N   0  0  0  0  0  0  0  0  0  0  0  0
  148.0165  139.5745  153.6814 C   0  0  0  0  0  0  0  0  0  0  0  0
  148.0529  141.0609  153.9796 C   0  0  0  0  0  0  0  0  0  0  0  0
  147.0202  140.1832  154.6437 C   0  0  0  0  0  0  0  0  0  0  0  0
  148.6305  137.6397  155.0252 C   0  0  0  0  0  0  0  0  0  0  0  0
  147.4352  137.3998  155.2164 O   0  0  0  0  0  0  0  0  0  0  0  0
  149.6369  136.8612  155.6474 N   0  0  0  0  0  0  0  0  0  0  0  0
  149.2164  135.7390  156.5144 C   0  0  0  0  0  0  0  0  0  0  0  0
  149.5953  135.9541  157.9867 C   0  0  0  0  0  0  0  0  0  0  0  0
  150.7768  135.9729  158.3345 O   0  0  0  0  0  0  0  0  0  0  0  0
  148.5732  136.1144  158.8406 N   0  0  0  0  0  0  0  0  0  0  0  0
  148.6990  136.3884  160.2682 C   0  0  0  0  0  0  0  0  0  0  0  0
  147.6957  135.5643  161.0943 C   0  0  2  0  0  0  0  0  0  0  0  0
  147.8861  135.6277  162.6090 C   0  0  0  0  0  0  0  0  0  0  0  0
  147.1984  134.3628  163.0900 C   0  0  0  0  0  0  0  0  0  0  0  0
  147.1959  133.4513  161.8578 C   0  0  0  0  0  0  0  0  0  0  0  0
  147.8579  134.1804  160.8303 O   0  0  0  0  0  0  0  0  0  0  0  0
  151.0199  137.1468  155.5130 C   0  0  0  0  0  0  0  0  0  0  0  0
  151.8700  136.4572  156.0785 O   0  0  0  0  0  0  0  0  0  0  0  0
  150.6525  139.8786  153.4828 H   0  0  0  0  0  0  0  0  0  0  0  0
  147.6219  139.2987  152.7049 H   0  0  0  0  0  0  0  0  0  0  0  0
  148.8569  141.4421  154.6066 H   0  0  0  0  0  0  0  0  0  0  0  0
  147.7117  141.7369  153.1983 H   0  0  0  0  0  0  0  0  0  0  0  0
  145.9900  140.2764  154.3061 H   0  0  0  0  0  0  0  0  0  0  0  0
  147.1457  139.9842  155.7065 H   0  0  0  0  0  0  0  0  0  0  0  0
  148.1385  135.5867  156.4328 H   0  0  0  0  0  0  0  0  0  0  0  0
  149.6439  134.7896  156.1898 H   0  0  0  0  0  0  0  0  0  0  0  0
  147.6358  136.0749  158.4674 H   0  0  0  0  0  0  0  0  0  0  0  0
  149.7143  136.1275  160.5678 H   0  0  0  0  0  0  0  0  0  0  0  0
  148.5850  137.4540  160.4749 H   0  0  0  0  0  0  0  0  0  0  0  0
  146.6731  135.8480  160.8366 H   0  0  0  0  0  0  0  0  0  0  0  0
  148.9476  135.5839  162.8567 H   0  0  0  0  0  0  0  0  0  0  0  0
  147.4708  136.5326  163.0539 H   0  0  0  0  0  0  0  0  0  0  0  0
  147.7223  133.9162  163.9358 H   0  0  0  0  0  0  0  0  0  0  0  0
  146.1754  134.5756  163.4027 H   0  0  0  0  0  0  0  0  0  0  0  0
  147.7069  132.5057  162.0412 H   0  0  0  0  0  0  0  0  0  0  0  0
  146.1741  133.2297  161.5467 H   0  0  0  0  0  0  0  0  0  0  0  0
  1  2  3  0  0  0  0
  2  3  1  0  0  0  0
  3 22  1  0  0  0  0
  3  4  2  0  0  0  0
  4  5  1  0  0  0  0
  4 24  1  0  0  0  0
  5  6  1  0  0  0  0
  5  9  1  0  0  0  0
  6  8  1  0  0  0  0
  6  7  1  0  0  0  0
  6 25  1  0  0  0  0
  7  8  1  0  0  0  0
  7 26  1  0  0  0  0
  7 27  1  0  0  0  0
  8 28  1  0  0  0  0
  8 29  1  0  0  0  0
  9 10  2  0  0  0  0
  9 11  1  0  0  0  0
 11 12  1  0  0  0  0
 11 22  1  0  0  0  0
 12 13  1  0  0  0  0
 12 30  1  0  0  0  0
 12 31  1  0  0  0  0
 13 14  2  0  0  0  0
 13 15  1  0  0  0  0
 15 16  1  0  0  0  0
 15 32  1  0  0  0  0
 16 17  1  0  0  0  0
 16 33  1  0  0  0  0
 16 34  1  0  0  0  0
 17 21  1  0  0  0  0
 17 18  1  0  0  0  0
 17 35  1  0  0  0  0
 18 19  1  0  0  0  0
 18 36  1  0  0  0  0
 18 37  1  0  0  0  0
 19 20  1  0  0  0  0
 19 38  1  0  0  0  0
 19 39  1  0  0  0  0
 20 21  1  0  0  0  0
 20 40  1  0  0  0  0
 20 41  1  0  0  0  0
 22 23  2  0  0  0  0
M  END
> <s_m_source_file>
AV-unprocessed.smi

> <i_m_source_file_index>
2182

> <i_lp_mmshare_version>
43012

> <i_f3d_flags>
0

> <s_epik_input>
TiNDYzFbY0hdbihbQ0hdMltDSDJdW0NIMl0yKWMoPU8pbihjMT1PKVtDSDJdQyg9TylbTkhdW0NIMl1bQ0BASF0zW0NIMl1bQ0gyXVtDSDJdTzM=

> <s_epik_cmdline>
J2VwaWtfcHl0aG9uJywgJy1waCcsICc3LjAnLCAnLXRuJywgJzgnLCAnLW1hJywgJzIwMCcsICctbWV0YWxfYmluZGluZycsICctaW1hZScsICc8aW5maWxlLm1hZT4nLCAnLW9tYWUnLCAnPG91dGZpbGUubWFlPic=

> <r_lp_tautomer_probability>
1

> <r_epik_Ionization_Penalty>
2.69429e-08

> <r_epik_Ionization_Penalty_Charging>
8.38654e-11

> <r_epik_Ionization_Penalty_Neutral>
2.6859e-08

> <r_epik_State_Penalty>
-0

> <r_epik_Charging_Adjusted_Penalty>
8.38654e-11

> <i_epik_Tot_Q>
0

> <i_epik_Tot_abs_Q>
0

> <r_epik_Metal_State_Penalty>
-0

> <b_epik_Metal_Only>
0

> <s_lp_Force_Field>
OPLS_2005

> <r_lp_Energy>
43.5175

> <b_lp_Chiralities_Consistent>
1

> <s_lp_Variant>
AV-unprocessed.smi:2182-1

> <Gold.Version>
5.8.1

> <Gold.Id.Protein>
6NUR|6NUR_protein|mol2

> <Gold.PLP.Fitness>
48.0193

> <Gold.PLP.PLP>
-37.8922

> <Gold.PLP.part.hbond>
-3.0000

> <Gold.PLP.part.metal>
0.0000

> <Gold.PLP.part.buried>
-0.9171

> <Gold.PLP.part.nonpolar>
-34.5211

> <Gold.PLP.part.repulsive>
0.1993

> <Gold.PLP.ligand.clash>
0.0000

> <Gold.PLP.ligand.torsion>
0.3156

> <Gold.PLP.Chemscore.Hbond>
2.7680

> <Gold.PLP.Chemscore.CHOScore>
0.7424

> <Gold.PLP.Chemscore.Metal>
0.0000

> <Gold.Chemscore.Hbonds>
donor molecule, donor type, donor heavy atom, donor atom, acceptor molecule, acceptor atom, score
      P1  H  6896  6908       L1    14  0.66
      P1  H  7997  8009       L1     1  1.00
      P1  H 10752 10765       L1    23  1.00
      L1  C     4    24       P1  7957  0.73

> <Gold.PLP.Chemscore.Internal.Correction>
0.2271

> <Gold.Rescore>
     Score         DG    S(hbond)    S(metal)    S(lipo)     H(rot)  DE(clash)    DE(int)     intcor
     14.66     -17.80       2.69        0.00      74.09       2.08       0.05       3.10       ----

> <Gold.Chemscore.Fitness>
14.6559

> <Gold.Chemscore.DG>
-17.8025

> <Gold.Chemscore.ZeroCoef>
-5.4800

> <Gold.Chemscore.Hbond>
2.6865

> <Gold.Chemscore.Metal>
0.0000

> <Gold.Chemscore.Lipo>
74.0910

> <Gold.Chemscore.Internal_Hbond>
0.0000

> <Gold.Chemscore.DEClash>
0.0451

> <Gold.Chemscore.DEInternal>
3.1016

> <Gold.Chemscore.Rot>
2.0778

> <Gold.Chemscore.Internal.Correction>
   9.000000E+99

> <Gold.Chemscore.Hbonds>
donor molecule, donor type, donor heavy atom, donor atom, acceptor molecule, acceptor atom, score
      P1  H  6896  6908       L1    14  0.40
      P1  H  7997  8009       L1     1  0.94
      P1  H 10752 10765       L1    23  0.98

> <Gold.Chemscore.Hbond.Weighted>
-8.9729

> <Gold.Chemscore.Metal.Weighted>
-0.0000

> <Gold.Chemscore.Lipo.Weighted>
-8.6686

> <Gold.Chemscore.Internal_Hbond.Weighted>
0.0000

> <Gold.Chemscore.DEClash.Weighted>
0.0451

> <Gold.Chemscore.DEInternal.Weighted>
3.1016

> <Gold.Chemscore.Rot.Weighted>
5.3191

> <Gold.Chemscore.Internal.Correction.Weighted>
   9.000000E+99

> <Gold.Protein.RotatedTorsions>
[ 6907 6896 6895 6894 ] final -165.57 input  -60.11 | X-H torsion
[ 7974 7965 7964 7962 ] final   75.69 input  175.53 | X-H torsion
[ 8008 7997 7996 7995 ] final -112.86 input   59.86 | X-H torsion
[ 10167 10162 10161 10158 ] final  -21.18 input  -65.29 | X-H torsion
[ 10718 10713 10712 10709 ] final -108.21 input   66.30 | X-H torsion
[ 10763 10752 10751 10750 ] final -145.56 input  -60.55 | X-H torsion
[ 11005 11000 10999 10996 ] final   78.61 input  -57.11 | X-H torsion

> <Gold.Protein.ActiveResidues>
 VAL166  LYS551  ARG553  GLY616  TRP617  ASP618  TYR619  PRO620  LYS621  CYS622 
 ASP623  PHE694  ASN695  SER759  ASP760  ASP761  ALA762  ILE779  LEU786  VAL792 
 PHE793  MET794  SER795  GLU796  ALA797  LYS798  CYS799  TRP800  GLU811  SER814 

> <Gold.Protein.RotatedAtoms>
  151.4298  133.3673  159.2766 H   0  0  0  0  0  0  0  0  0  0  0  0  # atno 6907 bound_to 6896
  150.9233  134.8652  159.7514 H   0  0  0  0  0  0  0  0  0  0  0  0  # atno 6908 bound_to 6896
  152.4992  134.4238  159.9541 H   0  0  0  0  0  0  0  0  0  0  0  0  # atno 6909 bound_to 6896
  145.7123  139.2619  143.1643 H   0  0  0  0  0  0  0  0  0  0  0  0  # atno 7974 bound_to 7965
  155.0117  140.0393  157.2402 H   0  0  0  0  0  0  0  0  0  0  0  0  # atno 8008 bound_to 7997
  154.7455  140.2757  155.6314 H   0  0  0  0  0  0  0  0  0  0  0  0  # atno 8009 bound_to 7997
  156.2874  140.2657  156.2194 H   0  0  0  0  0  0  0  0  0  0  0  0  # atno 8010 bound_to 7997
  140.7280  143.4652  151.0323 H   0  0  0  0  0  0  0  0  0  0  0  0  # atno 10167 bound_to 10162
  156.0474  130.5701  150.7929 H   0  0  0  0  0  0  0  0  0  0  0  0  # atno 10718 bound_to 10713
  154.8377  135.3410  154.6524 H   0  0  0  0  0  0  0  0  0  0  0  0  # atno 10763 bound_to 10752
  153.7137  135.6962  153.5035 H   0  0  0  0  0  0  0  0  0  0  0  0  # atno 10764 bound_to 10752
  153.2432  135.4377  155.0674 H   0  0  0  0  0  0  0  0  0  0  0  0  # atno 10765 bound_to 10752
  139.9205  134.7777  156.1672 H   0  0  0  0  0  0  0  0  0  0  0  0  # atno 11005 bound_to 11000
  146.0701  140.7878  142.9692 LP  0  0  0  0  0  0  0  0  0  0  0  0  # atno 17320 bound_to 7965
  144.6938  140.3329  143.7213 LP  0  0  0  0  0  0  0  0  0  0  0  0  # atno 17321 bound_to 7965
  139.8340  143.7653  152.3180 LP  0  0  0  0  0  0  0  0  0  0  0  0  # atno 17342 bound_to 10162
  139.7778  144.7455  151.0131 LP  0  0  0  0  0  0  0  0  0  0  0  0  # atno 17343 bound_to 10162
  157.5365  131.0939  150.9886 LP  0  0  0  0  0  0  0  0  0  0  0  0  # atno 17370 bound_to 10713
  157.0179  130.5662  149.5328 LP  0  0  0  0  0  0  0  0  0  0  0  0  # atno 17371 bound_to 10713
  141.0722  133.6791  156.2164 LP  0  0  0  0  0  0  0  0  0  0  0  0  # atno 17394 bound_to 11000
  140.6488  134.5089  157.5576 LP  0  0  0  0  0  0  0  0  0  0  0  0  # atno 17395 bound_to 11000

$$$$
