#       Name:                AV-unprocessed.smi:215
#       Creating user name   scv26
#       Creation time:       Thu Mar 26 20:03:11 2020


#       File generated by GOLD software.
#

@<TRIPOS>MOLECULE
AV-unprocessed.smi:215
    69    72     1
SMALL
NO_CHARGES


@<TRIPOS>ATOM
      1 ****        -1.9571  -1.4307   1.4968 C.3            1 S1                 0.0000
      2 ****        -2.1431   0.0645   1.8318 C.3            1 S1                 0.0000
      3 ****        -3.5844   0.6310   1.8139 C.3            1 S1                 0.0000
      4 ****        -4.6046  -0.2425   1.1570 N.4            1 S1                 1.0000
      5 ****        -4.5193  -0.2990  -0.3266 C.3            1 S1                 0.0000
      6 ****        -5.9844   0.0160   1.6488 C.3            1 S1                 0.0000
      7 ****        -6.9684  -1.1168   1.3073 C.3            1 S1                 0.0000
      8 ****        -6.5863  -2.3067   1.9642 O.3            1 S1                 0.0000
      9 ****        -3.4520   2.0519   1.2265 C.3            1 S1                 0.0000
     10 ****        -1.9442   2.2982   1.2211 C.3            1 S1                 0.0000
     11 ****        -1.3568   0.9819   1.0139 N.3            1 S1                 0.0000
     12 ****        -0.0129   0.8849   1.1454 C.ar           1 S1                 0.0000
     13 ****         0.6294   1.5249   2.1579 N.ar           1 S1                 0.0000
     14 ****         1.9541   1.4050   2.2896 C.ar           1 S1                 0.0000
     15 ****         2.8085   0.7100   1.5352 N.ar           1 S1                 0.0000
     16 ****         2.1665   0.0697   0.5158 C.ar           1 S1                 0.0000
     17 ****         0.7682   0.0999   0.2567 C.ar           1 S1                 0.0000
     18 ****         0.4701  -0.6852  -0.8484 N.2            1 S1                 0.0000
     19 ****         1.6278  -1.1620  -1.2172 C.2            1 S1                 0.0000
     20 ****         2.7078  -0.7336  -0.4743 N.pl3          1 S1                 0.0000
     21 ****         4.0855  -1.1182  -0.6319 C.3            1 S1                 0.0000
     22 ****         5.1860  -0.0503  -0.6581 C.3            1 S1                 0.0000
     23 ****         5.2828  -0.1755  -2.1932 C.3            1 S1                 0.0000
     24 ****         4.4251   0.8320  -2.9857 C.3            1 S1                 0.0000
     25 ****         4.2307   0.4087  -4.3203 O.3            1 S1                 0.0000
     26 ****         6.7108  -0.1794  -2.7640 C.3            1 S1                 0.0000
     27 ****         7.3615   1.0532  -2.5289 O.3            1 S1                 0.0000
     28 ****         4.6446  -1.5667  -1.9890 C.3            1 S1                 0.0000
     29 ****        -1.7784   0.1888   2.8536 H              1 S1                 0.0000
     30 ****        -3.8635   0.7254   2.8644 H              1 S1                 0.0000
     31 ****        -2.6178  -2.0514   2.1024 H              1 S1                 0.0000
     32 ****        -0.9375  -1.7539   1.7078 H              1 S1                 0.0000
     33 ****        -2.1527  -1.6522   0.4489 H              1 S1                 0.0000
     34 ****        -5.0665   0.5220  -0.7909 H              1 S1                 0.0000
     35 ****        -4.9428  -1.2324  -0.6966 H              1 S1                 0.0000
     36 ****        -3.4901  -0.2512  -0.6809 H              1 S1                 0.0000
     37 ****        -5.9779   0.1424   2.7322 H              1 S1                 0.0000
     38 ****        -6.3420   0.9593   1.2335 H              1 S1                 0.0000
     39 ****        -7.9693  -0.8479   1.6460 H              1 S1                 0.0000
     40 ****        -7.0398  -1.2907   0.2341 H              1 S1                 0.0000
     41 ****        -7.2310  -2.9738   1.7804 H              1 S1                 0.0000
     42 ****        -3.8201   2.1245   0.2048 H              1 S1                 0.0000
     43 ****        -3.9880   2.7973   1.8146 H              1 S1                 0.0000
     44 ****        -1.6509   2.9948   0.4349 H              1 S1                 0.0000
     45 ****        -1.6356   2.7167   2.1803 H              1 S1                 0.0000
     46 ****         2.3927   1.9428   3.1171 H              1 S1                 0.0000
     47 ****         1.7166  -1.8400  -2.0529 H              1 S1                 0.0000
     48 ****         4.2742  -1.8644   0.1409 H              1 S1                 0.0000
     49 ****         4.8864   0.9384  -0.3098 H              1 S1                 0.0000
     50 ****         6.0924  -0.3803  -0.1471 H              1 S1                 0.0000
     51 ****         3.4425   0.9580  -2.5316 H              1 S1                 0.0000
     52 ****         4.8792   1.8231  -2.9946 H              1 S1                 0.0000
     53 ****         3.7039   1.0546  -4.7658 H              1 S1                 0.0000
     54 ****         7.3105  -0.9640  -2.3017 H              1 S1                 0.0000
     55 ****         6.7148  -0.3842  -3.8348 H              1 S1                 0.0000
     56 ****         8.2326   1.0067  -2.8923 H              1 S1                 0.0000
     57 ****         5.3865  -2.3601  -1.8810 H              1 S1                 0.0000
     58 ****         3.9068  -1.8411  -2.7419 H              1 S1                 0.0000
     59 ****        -4.3837  -1.1734   1.4818 H              1 S1                 0.0000
     60 ****        -6.5389  -2.1467   2.9502 LP             1 S1                 0.0000
     61 ****        -5.6910  -2.6027   1.6311 LP             1 S1                 0.0000
     62 ****        -1.4177   0.7359   0.0466 LP             1 S1                 0.0000
     63 ****         0.1112   2.0852   2.8040 LP             1 S1                 0.0000
     64 ****         3.7943   0.6645   1.6968 LP             1 S1                 0.0000
     65 ****        -0.4241  -0.8478  -1.2653 LP             1 S1                 0.0000
     66 ****         3.7611  -0.4741  -4.3292 LP             1 S1                 0.0000
     67 ****         5.1152   0.3204  -4.7785 LP             1 S1                 0.0000
     68 ****         7.4152   1.2240  -1.5451 LP             1 S1                 0.0000
     69 ****         6.8518   1.7929  -2.9683 LP             1 S1                 0.0000
@<TRIPOS>BOND
    1    1    2 1     
    2    1   31 1     
    3    1   32 1     
    4    1   33 1     
    5    2   29 1     
    6    2   11 1     
    7    2    3 1     
    8    3   30 1     
    9    3    4 1     
   10    3    9 1     
   11    4    5 1     
   12    4    6 1     
   13    4   59 1     
   14    5   34 1     
   15    5   35 1     
   16    5   36 1     
   17    6    7 1     
   18    6   37 1     
   19    6   38 1     
   20    7    8 1     
   21    7   39 1     
   22    7   40 1     
   23    8   41 1     
   24    9   10 1     
   25    9   42 1     
   26    9   43 1     
   27   10   11 1     
   28   10   44 1     
   29   10   45 1     
   30   11   12 1     
   31   12   17 ar    
   32   12   13 ar    
   33   13   14 ar    
   34   14   15 ar    
   35   14   46 1     
   36   15   16 ar    
   37   16   20 1     
   38   16   17 ar    
   39   17   18 1     
   40   18   19 2     
   41   19   20 1     
   42   19   47 1     
   43   20   21 1     
   44   21   28 1     
   45   21   22 1     
   46   21   48 1     
   47   22   23 1     
   48   22   49 1     
   49   22   50 1     
   50   23   24 1     
   51   23   26 1     
   52   23   28 1     
   53   24   25 1     
   54   24   51 1     
   55   24   52 1     
   56   25   53 1     
   57   26   27 1     
   58   26   54 1     
   59   26   55 1     
   60   27   56 1     
   61   28   57 1     
   62   28   58 1     
   63    8   60 1     
   64    8   61 1     
   65   11   62 1     
   66   13   63 1     
   67   15   64 1     
   68   18   65 1     
   69   25   66 1     
   70   25   67 1     
   71   27   68 1     
   72   27   69 1     
@<TRIPOS>SUBSTRUCTURE
      1 S1             1
@<TRIPOS>SET
LONE_PAIRS      STATIC     ATOMS    <user>   **** ""
10 60 61 62 63 64 65 66 67 68 69
DONOR_HYDROGENS      STATIC     ATOMS    <user>   **** ""
4 59 41 53 56
ATOM$BLUE        STATIC     ATOMS    COLORGROUP SYSTEM
10 60 61 62 63 64 65 66 67 68 69
ATOM$RED        STATIC     ATOMS    COLORGROUP SYSTEM
4 59 41 53 56
