#       Name:                AV-unprocessed.smi:155
#       Creating user name   scv26
#       Creation time:       Thu Mar 26 18:53:52 2020


#       File generated by GOLD software.
#

@<TRIPOS>MOLECULE
AV-unprocessed.smi:155
    72    75     1
SMALL
NO_CHARGES


@<TRIPOS>ATOM
      1 ****        -6.0334   1.0724   3.3010 C.3            1 S1                 0.0000
      2 ****        -6.6041   1.5554   2.0230 N.4            1 S1                 1.0000
      3 ****        -7.4293   2.7674   2.2224 C.3            1 S1                 0.0000
      4 ****        -5.5916   1.7424   0.9528 C.3            1 S1                 0.0000
      5 ****        -5.0441   0.4073   0.3965 C.3            1 S1                 0.0000
      6 ****        -3.5799   0.3607   0.3691 N.3            1 S1                 0.0000
      7 ****        -3.0280   0.2401   1.7251 C.3            1 S1                 0.0000
      8 ****        -1.5242  -0.0982   1.8263 C.3            1 S1                 0.0000
      9 ****        -0.6202   0.5305   0.7565 C.3            1 S1                 0.0000
     10 ****        -0.6485  -0.2445  -0.4804 N.3            1 S1                 0.0000
     11 ****         0.4715  -0.1034  -1.2201 C.ar           1 S1                 0.0000
     12 ****         0.7506   1.0909  -1.8053 N.ar           1 S1                 0.0000
     13 ****         1.8643   1.2302  -2.5316 C.ar           1 S1                 0.0000
     14 ****         2.8117   0.3253  -2.7912 N.ar           1 S1                 0.0000
     15 ****         2.5297  -0.8719  -2.2000 C.ar           1 S1                 0.0000
     16 ****         1.3887  -1.1695  -1.4052 C.ar           1 S1                 0.0000
     17 ****         1.4372  -2.4877  -0.9709 N.2            1 S1                 0.0000
     18 ****         2.5520  -2.9436  -1.4747 C.2            1 S1                 0.0000
     19 ****         3.2760  -2.0373  -2.2170 N.pl3          1 S1                 0.0000
     20 ****         4.5500  -2.2707  -2.8760 C.3            1 S1                 0.0000
     21 ****         5.7755  -2.1342  -1.9447 C.3            1 S1                 0.0000
     22 ****         5.7679  -3.1417  -0.9522 O.3            1 S1                 0.0000
     23 ****         5.9548  -0.7436  -1.2945 C.3            1 S1                 0.0000
     24 ****         7.2096  -0.5552  -0.4429 C.3            1 S1                 0.0000
     25 ****         6.8537   0.6420   0.4250 C.3            1 S1                 0.0000
     26 ****         5.3248   0.7319   0.3414 C.3            1 S1                 0.0000
     27 ****         4.9123  -0.4141  -0.3906 O.3            1 S1                 0.0000
     28 ****        -1.8682  -0.2011  -1.2785 C.3            1 S1                 0.0000
     29 ****        -3.1066  -0.7032  -0.5165 C.3            1 S1                 0.0000
     30 ****        -5.2885   1.7695   3.6873 H              1 S1                 0.0000
     31 ****        -5.5644   0.0972   3.1813 H              1 S1                 0.0000
     32 ****        -6.8152   0.9603   4.0531 H              1 S1                 0.0000
     33 ****        -6.8179   3.6054   2.5598 H              1 S1                 0.0000
     34 ****        -8.2056   2.5892   2.9673 H              1 S1                 0.0000
     35 ****        -7.9254   3.0564   1.2952 H              1 S1                 0.0000
     36 ****        -6.0514   2.2794   0.1217 H              1 S1                 0.0000
     37 ****        -4.7997   2.4000   1.3137 H              1 S1                 0.0000
     38 ****        -5.4312  -0.4529   0.9442 H              1 S1                 0.0000
     39 ****        -5.4283   0.3059  -0.6195 H              1 S1                 0.0000
     40 ****        -3.2039   1.1778   2.2510 H              1 S1                 0.0000
     41 ****        -3.5742  -0.5285   2.2723 H              1 S1                 0.0000
     42 ****        -1.1790   0.2256   2.8086 H              1 S1                 0.0000
     43 ****        -1.3860  -1.1804   1.8203 H              1 S1                 0.0000
     44 ****        -0.9070   1.5657   0.5659 H              1 S1                 0.0000
     45 ****         0.4030   0.5540   1.1357 H              1 S1                 0.0000
     46 ****         2.0193   2.2066  -2.9661 H              1 S1                 0.0000
     47 ****         2.8835  -3.9589  -1.3118 H              1 S1                 0.0000
     48 ****         4.5263  -3.2672  -3.3190 H              1 S1                 0.0000
     49 ****         4.6402  -1.5717  -3.7083 H              1 S1                 0.0000
     50 ****         6.6592  -2.3232  -2.5551 H              1 S1                 0.0000
     51 ****         5.0524  -2.9670  -0.3599 H              1 S1                 0.0000
     52 ****         5.9549   0.0100  -2.0848 H              1 S1                 0.0000
     53 ****         7.3828  -1.4231   0.1943 H              1 S1                 0.0000
     54 ****         8.1057  -0.3940  -1.0427 H              1 S1                 0.0000
     55 ****         7.1991   0.5030   1.4500 H              1 S1                 0.0000
     56 ****         7.3082   1.5552   0.0391 H              1 S1                 0.0000
     57 ****         4.8527   0.7521   1.3238 H              1 S1                 0.0000
     58 ****         5.0220   1.6300  -0.1990 H              1 S1                 0.0000
     59 ****        -2.0346   0.8093  -1.6559 H              1 S1                 0.0000
     60 ****        -1.7239  -0.8366  -2.1539 H              1 S1                 0.0000
     61 ****        -2.9268  -1.6399   0.0134 H              1 S1                 0.0000
     62 ****        -3.8646  -0.9245  -1.2684 H              1 S1                 0.0000
     63 ****        -7.2370   0.8388   1.6969 H              1 S1                 0.0000
     64 ****        -3.2460   1.2258  -0.0052 LP             1 S1                 0.0000
     65 ****        -0.6665  -1.1813  -0.1309 LP             1 S1                 0.0000
     66 ****         0.1251   1.8629  -1.6930 LP             1 S1                 0.0000
     67 ****         3.6237   0.5024  -3.3474 LP             1 S1                 0.0000
     68 ****         0.7727  -2.9746  -0.4040 LP             1 S1                 0.0000
     69 ****         6.6331  -3.1297  -0.4508 LP             1 S1                 0.0000
     70 ****         5.6428  -4.0371  -1.3795 LP             1 S1                 0.0000
     71 ****         4.7490  -1.1774   0.2345 LP             1 S1                 0.0000
     72 ****         4.0737  -0.2120  -0.8963 LP             1 S1                 0.0000
@<TRIPOS>BOND
    1    1    2 1     
    2    1   30 1     
    3    1   31 1     
    4    1   32 1     
    5    2    3 1     
    6    2    4 1     
    7    2   63 1     
    8    3   33 1     
    9    3   34 1     
   10    3   35 1     
   11    4    5 1     
   12    4   36 1     
   13    4   37 1     
   14    5    6 1     
   15    5   38 1     
   16    5   39 1     
   17    6   29 1     
   18    6    7 1     
   19    7    8 1     
   20    7   40 1     
   21    7   41 1     
   22    8    9 1     
   23    8   42 1     
   24    8   43 1     
   25    9   10 1     
   26    9   44 1     
   27    9   45 1     
   28   10   11 1     
   29   10   28 1     
   30   11   16 ar    
   31   11   12 ar    
   32   12   13 ar    
   33   13   14 ar    
   34   13   46 1     
   35   14   15 ar    
   36   15   19 1     
   37   15   16 ar    
   38   16   17 1     
   39   17   18 2     
   40   18   19 1     
   41   18   47 1     
   42   19   20 1     
   43   20   21 1     
   44   20   48 1     
   45   20   49 1     
   46   21   22 1     
   47   21   23 1     
   48   21   50 1     
   49   22   51 1     
   50   23   27 1     
   51   23   24 1     
   52   23   52 1     
   53   24   25 1     
   54   24   53 1     
   55   24   54 1     
   56   25   26 1     
   57   25   55 1     
   58   25   56 1     
   59   26   27 1     
   60   26   57 1     
   61   26   58 1     
   62   28   29 1     
   63   28   59 1     
   64   28   60 1     
   65   29   61 1     
   66   29   62 1     
   67    6   64 1     
   68   10   65 1     
   69   12   66 1     
   70   14   67 1     
   71   17   68 1     
   72   22   69 1     
   73   22   70 1     
   74   27   71 1     
   75   27   72 1     
@<TRIPOS>SUBSTRUCTURE
      1 S1             1
@<TRIPOS>SET
LONE_PAIRS      STATIC     ATOMS    <user>   **** ""
9 64 65 66 67 68 69 70 71 72
DONOR_HYDROGENS      STATIC     ATOMS    <user>   **** ""
2 63 51
ATOM$BLUE        STATIC     ATOMS    COLORGROUP SYSTEM
9 64 65 66 67 68 69 70 71 72
ATOM$RED        STATIC     ATOMS    COLORGROUP SYSTEM
2 63 51
