AV-unprocessed.smi:2225|AV-procd|sdf|8999|dock6
  -GOLD-   2272012203D 1   1.00000     0.00000
 Structure written by MMmdl.
 33 34  0  0  0  0  0  0  0  0  1 V2000
  150.5663  140.6352  157.0500 O   0  0  0  0  0  0  0  0  0  0  0  0
  150.3818  141.8362  156.8564 C   0  0  0  0  0  0  0  0  0  0  0  0
  151.4852  142.8333  157.2518 C   0  0  0  0  0  0  0  0  0  0  0  0
  152.0507  142.6397  158.6002 N   0  0  0  0  0  0  0  0  0  0  0  0
  151.7962  143.6493  159.5455 C   0  0  0  0  0  0  0  0  0  0  0  0
  152.2661  143.5780  160.7981 C   0  0  0  0  0  0  0  0  0  0  0  0
  153.0552  142.4278  161.1659 C   0  0  0  0  0  0  0  0  0  0  0  0
  153.3113  141.4370  160.2806 C   0  0  0  0  0  0  0  0  0  0  0  0
  154.1495  140.2157  160.6518 C   0  0  0  0  0  0  0  0  0  0  0  0
  153.4883  139.0928  160.3685 F   0  0  0  0  0  0  0  0  0  0  0  0
  155.2962  140.2073  159.9712 F   0  0  0  0  0  0  0  0  0  0  0  0
  154.4478  140.1966  161.9517 F   0  0  0  0  0  0  0  0  0  0  0  0
  152.7806  141.5218  158.9045 C   0  0  0  0  0  0  0  0  0  0  0  0
  152.9725  140.6378  158.0682 O   0  0  0  0  0  0  0  0  0  0  0  0
  149.2524  142.3167  156.3097 N   0  0  0  0  0  0  0  0  0  0  0  0
  148.1123  141.5091  155.8882 C   0  0  2  0  0  0  0  0  0  0  0  0
  147.8004  141.6845  154.4020 C   0  0  0  0  0  0  0  0  0  0  0  0
  146.2995  141.9503  154.3748 C   0  0  0  0  0  0  0  0  0  0  0  0
  146.0748  142.6395  155.5918 O   0  0  0  0  0  0  0  0  0  0  0  0
  146.8287  141.9715  156.5926 C   0  0  0  0  0  0  0  0  0  0  0  0
  152.2752  142.7898  156.4998 H   0  0  0  0  0  0  0  0  0  0  0  0
  151.0731  143.8394  157.1615 H   0  0  0  0  0  0  0  0  0  0  0  0
  151.1942  144.4734  159.1905 H   0  0  0  0  0  0  0  0  0  0  0  0
  152.0586  144.3602  161.5136 H   0  0  0  0  0  0  0  0  0  0  0  0
  153.4428  142.3730  162.1722 H   0  0  0  0  0  0  0  0  0  0  0  0
  149.1755  143.3149  156.1779 H   0  0  0  0  0  0  0  0  0  0  0  0
  148.2950  140.4597  156.1269 H   0  0  0  0  0  0  0  0  0  0  0  0
  148.3260  142.5486  153.9922 H   0  0  0  0  0  0  0  0  0  0  0  0
  148.0795  140.8143  153.8071 H   0  0  0  0  0  0  0  0  0  0  0  0
  145.9909  142.5407  153.5119 H   0  0  0  0  0  0  0  0  0  0  0  0
  145.7372  141.0152  154.3738 H   0  0  0  0  0  0  0  0  0  0  0  0
  146.2594  141.1100  156.9448 H   0  0  0  0  0  0  0  0  0  0  0  0
  147.0098  142.6220  157.4493 H   0  0  0  0  0  0  0  0  0  0  0  0
  1  2  2  0  0  0  0
  2  3  1  0  0  0  0
  2 15  1  0  0  0  0
  3  4  1  0  0  0  0
  3 21  1  0  0  0  0
  3 22  1  0  0  0  0
  4 13  1  0  0  0  0
  4  5  1  0  0  0  0
  5  6  2  0  0  0  0
  5 23  1  0  0  0  0
  6  7  1  0  0  0  0
  6 24  1  0  0  0  0
  7  8  2  0  0  0  0
  7 25  1  0  0  0  0
  8  9  1  0  0  0  0
  8 13  1  0  0  0  0
  9 10  1  0  0  0  0
  9 11  1  0  0  0  0
  9 12  1  0  0  0  0
 13 14  2  0  0  0  0
 15 16  1  0  0  0  0
 15 26  1  0  0  0  0
 16 20  1  0  0  0  0
 16 17  1  0  0  0  0
 16 27  1  0  0  0  0
 17 18  1  0  0  0  0
 17 28  1  0  0  0  0
 17 29  1  0  0  0  0
 18 19  1  0  0  0  0
 18 30  1  0  0  0  0
 18 31  1  0  0  0  0
 19 20  1  0  0  0  0
 20 32  1  0  0  0  0
 20 33  1  0  0  0  0
M  END
> <s_m_source_file>
AV-unprocessed.smi

> <i_m_source_file_index>
2225

> <i_lp_mmshare_version>
43012

> <i_f3d_flags>
0

> <s_epik_input>
W0NIMl0xT1tDSDJdW0NIMl1bQ0BIXTFbTkhdQyg9TylbQ0gyXW4yW2NIXVtjSF1bY0hdYyhDKEYpKEYpRiljMj1P

> <s_epik_cmdline>
J2VwaWtfcHl0aG9uJywgJy1waCcsICc3LjAnLCAnLXRuJywgJzgnLCAnLW1hJywgJzIwMCcsICctbWV0YWxfYmluZGluZycsICctaW1hZScsICc8aW5maWxlLm1hZT4nLCAnLW9tYWUnLCAnPG91dGZpbGUubWFlPic=

> <r_lp_tautomer_probability>
1

> <r_epik_Ionization_Penalty>
3.32109e-08

> <r_epik_Ionization_Penalty_Charging>
1.91399e-09

> <r_epik_Ionization_Penalty_Neutral>
3.1297e-08

> <r_epik_State_Penalty>
-0

> <r_epik_Charging_Adjusted_Penalty>
1.91399e-09

> <i_epik_Tot_Q>
0

> <i_epik_Tot_abs_Q>
0

> <r_epik_Metal_State_Penalty>
-0

> <b_epik_Metal_Only>
0

> <s_lp_Force_Field>
OPLS_2005

> <r_lp_Energy>
26.4099

> <b_lp_Chiralities_Consistent>
1

> <s_lp_Variant>
AV-unprocessed.smi:2225-1

> <Gold.Version>
5.8.1

> <Gold.Id.Protein>
6NUR|6NUR_protein|mol2

> <Gold.PLP.Fitness>
44.0653

> <Gold.PLP.PLP>
-39.3438

> <Gold.PLP.part.hbond>
-1.9738

> <Gold.PLP.part.metal>
0.0000

> <Gold.PLP.part.buried>
-3.3663

> <Gold.PLP.part.nonpolar>
-34.5871

> <Gold.PLP.part.repulsive>
0.2343

> <Gold.PLP.ligand.clash>
0.1833

> <Gold.PLP.ligand.torsion>
0.3178

> <Gold.PLP.Chemscore.Hbond>
1.7360

> <Gold.PLP.Chemscore.CHOScore>
0.0000

> <Gold.PLP.Chemscore.Metal>
0.0000

> <Gold.Chemscore.Hbonds>
donor molecule, donor type, donor heavy atom, donor atom, acceptor molecule, acceptor atom, score
      L1  H    15    26       P1  8028  0.99
      P1  H  7997  8010       L1    14  0.72

> <Gold.PLP.Chemscore.Internal.Correction>
0.3324

> <Gold.Rescore>
     Score         DG    S(hbond)    S(metal)    S(lipo)     H(rot)  DE(clash)    DE(int)     intcor
     13.09     -16.79       1.88        0.00      78.94       1.64       0.29       3.42       ----

> <Gold.Chemscore.Fitness>
13.0877

> <Gold.Chemscore.DG>
-16.7912

> <Gold.Chemscore.ZeroCoef>
-5.4800

> <Gold.Chemscore.Hbond>
1.8775

> <Gold.Chemscore.Metal>
0.0000

> <Gold.Chemscore.Lipo>
78.9400

> <Gold.Chemscore.Internal_Hbond>
0.0000

> <Gold.Chemscore.DEClash>
0.2857

> <Gold.Chemscore.DEInternal>
3.4178

> <Gold.Chemscore.Rot>
1.6389

> <Gold.Chemscore.Internal.Correction>
   9.000000E+99

> <Gold.Chemscore.Hbonds>
donor molecule, donor type, donor heavy atom, donor atom, acceptor molecule, acceptor atom, score
      L1  H    15    26       P1  8028  0.92
      P1  H  7997  8010       L1    14  0.69

> <Gold.Chemscore.Hbond.Weighted>
-6.2708

> <Gold.Chemscore.Metal.Weighted>
-0.0000

> <Gold.Chemscore.Lipo.Weighted>
-9.2360

> <Gold.Chemscore.Internal_Hbond.Weighted>
0.0000

> <Gold.Chemscore.DEClash.Weighted>
0.2857

> <Gold.Chemscore.DEInternal.Weighted>
3.4178

> <Gold.Chemscore.Rot.Weighted>
4.1956

> <Gold.Chemscore.Internal.Correction.Weighted>
   9.000000E+99

> <Gold.Protein.RotatedTorsions>
[ 6907 6896 6895 6894 ] final  142.57 input  -60.11 | X-H torsion
[ 7974 7965 7964 7962 ] final  -74.75 input  175.53 | X-H torsion
[ 8008 7997 7996 7995 ] final   46.67 input   59.86 | X-H torsion
[ 10167 10162 10161 10158 ] final  -66.26 input  -65.29 | X-H torsion
[ 10718 10713 10712 10709 ] final  -56.99 input   66.30 | X-H torsion
[ 10763 10752 10751 10750 ] final   29.68 input  -60.55 | X-H torsion
[ 11005 11000 10999 10996 ] final -167.80 input  -57.11 | X-H torsion

> <Gold.Protein.ActiveResidues>
 VAL166  LYS551  ARG553  GLY616  TRP617  ASP618  TYR619  PRO620  LYS621  CYS622 
 ASP623  PHE694  ASN695  SER759  ASP760  ASP761  ALA762  ILE779  LEU786  VAL792 
 PHE793  MET794  SER795  GLU796  ALA797  LYS798  CYS799  TRP800  GLU811  SER814 

> <Gold.Protein.RotatedAtoms>
  152.2171  133.4955  159.5141 H   0  0  0  0  0  0  0  0  0  0  0  0  # atno 6907 bound_to 6896
  150.7003  134.1392  159.4107 H   0  0  0  0  0  0  0  0  0  0  0  0  # atno 6908 bound_to 6896
  151.9312  135.0255  160.0580 H   0  0  0  0  0  0  0  0  0  0  0  0  # atno 6909 bound_to 6896
  145.6350  140.9327  143.1066 H   0  0  0  0  0  0  0  0  0  0  0  0  # atno 7974 bound_to 7965
  155.3563  140.3416  155.4240 H   0  0  0  0  0  0  0  0  0  0  0  0  # atno 8008 bound_to 7997
  156.1737  140.1640  156.8436 H   0  0  0  0  0  0  0  0  0  0  0  0  # atno 8009 bound_to 7997
  154.5260  140.0756  156.8241 H   0  0  0  0  0  0  0  0  0  0  0  0  # atno 8010 bound_to 7997
  140.5670  143.2315  151.6615 H   0  0  0  0  0  0  0  0  0  0  0  0  # atno 10167 bound_to 10162
  156.1246  130.4163  150.0379 H   0  0  0  0  0  0  0  0  0  0  0  0  # atno 10718 bound_to 10713
  153.0416  135.6483  154.0928 H   0  0  0  0  0  0  0  0  0  0  0  0  # atno 10763 bound_to 10752
  154.0633  135.2886  155.3322 H   0  0  0  0  0  0  0  0  0  0  0  0  # atno 10764 bound_to 10752
  154.6643  135.5380  153.8122 H   0  0  0  0  0  0  0  0  0  0  0  0  # atno 10765 bound_to 10752
  140.5492  134.5445  157.5118 H   0  0  0  0  0  0  0  0  0  0  0  0  # atno 11005 bound_to 11000
  144.7179  139.8132  143.7392 LP  0  0  0  0  0  0  0  0  0  0  0  0  # atno 17320 bound_to 7965
  146.1326  139.4365  143.0159 LP  0  0  0  0  0  0  0  0  0  0  0  0  # atno 17321 bound_to 7965
  139.5098  144.3565  152.0603 LP  0  0  0  0  0  0  0  0  0  0  0  0  # atno 17342 bound_to 10162
  140.2698  144.3977  150.6155 LP  0  0  0  0  0  0  0  0  0  0  0  0  # atno 17343 bound_to 10162
  156.8308  130.9392  151.3637 LP  0  0  0  0  0  0  0  0  0  0  0  0  # atno 17370 bound_to 10713
  157.6428  130.8819  149.9480 LP  0  0  0  0  0  0  0  0  0  0  0  0  # atno 17371 bound_to 10713
  139.9464  134.7695  156.0552 LP  0  0  0  0  0  0  0  0  0  0  0  0  # atno 17394 bound_to 11000
  141.1181  133.6621  156.3146 LP  0  0  0  0  0  0  0  0  0  0  0  0  # atno 17395 bound_to 11000

$$$$
