#       Name:                AV-unprocessed.smi:2721
#       Creating user name   scv26
#       Creation time:       Fri Mar 27 14:54:45 2020


#       File generated by GOLD software.
#

@<TRIPOS>MOLECULE
AV-unprocessed.smi:2721
    32    33     1
SMALL
NO_CHARGES


@<TRIPOS>ATOM
      1 ****        -4.4124   0.7623   0.5523 C.3            1 S1                 0.0000
      2 ****        -3.1537   0.0617   0.4132 N.pl3          1 S1                 0.0000
      3 ****        -1.8758   0.5424   0.6005 C.2            1 S1                 0.0000
      4 ****        -1.0099  -0.4873   0.3573 C.2            1 S1                 0.0000
      5 ****         0.4959  -0.4864   0.4003 C.3            1 S1                 0.0000
      6 ****         0.9490   0.2983   1.5021 O.3            1 S1                 0.0000
      7 ****         2.3606   0.2814   1.6857 C.3            1 S1                 0.0000
      8 ****         3.0486   0.8943   0.4581 C.3            1 S1                 0.0000
      9 ****         2.6324   0.1433  -0.8099 C.3            1 S1                 0.0000
     10 ****         1.1003   0.0837  -0.9069 C.3            1 S1                 0.0000
     11 ****         0.6943  -0.7090  -2.0832 N.4            1 S1                 1.0000
     12 ****        -1.8726  -1.5702   0.0226 C.2            1 S1                 0.0000
     13 ****        -3.1522  -1.2388   0.0561 N.2            1 S1                 0.0000
     14 ****         0.8559  -1.5069   0.5451 H              1 S1                 0.0000
     15 ****         0.7235   1.0970  -1.0552 H              1 S1                 0.0000
     16 ****        -4.2355   1.8345   0.6411 H              1 S1                 0.0000
     17 ****        -4.9308   0.4123   1.4454 H              1 S1                 0.0000
     18 ****        -5.0392   0.5790  -0.3211 H              1 S1                 0.0000
     19 ****        -1.6885   1.5671   0.8871 H              1 S1                 0.0000
     20 ****         2.6059   0.8565   2.5786 H              1 S1                 0.0000
     21 ****         2.7055  -0.7390   1.8597 H              1 S1                 0.0000
     22 ****         2.7718   1.9459   0.3716 H              1 S1                 0.0000
     23 ****         4.1320   0.8643   0.5773 H              1 S1                 0.0000
     24 ****         3.0544   0.6320  -1.6889 H              1 S1                 0.0000
     25 ****         3.0446  -0.8667  -0.7838 H              1 S1                 0.0000
     26 ****         1.0354  -1.6551  -1.9892 H              1 S1                 0.0000
     27 ****         1.0795  -0.2940  -2.9195 H              1 S1                 0.0000
     28 ****        -1.6065  -2.5814  -0.2472 H              1 S1                 0.0000
     29 ****        -0.3138  -0.7201  -2.1483 H              1 S1                 0.0000
     30 ****         0.5198  -0.0518   2.3346 LP             1 S1                 0.0000
     31 ****         0.6631   1.2447   1.3523 LP             1 S1                 0.0000
     32 ****        -3.9411  -1.8213  -0.1394 LP             1 S1                 0.0000
@<TRIPOS>BOND
    1    1    2 1     
    2    1   16 1     
    3    1   17 1     
    4    1   18 1     
    5    2   13 1     
    6    2    3 1     
    7    3    4 2     
    8    3   19 1     
    9    4    5 1     
   10    4   12 1     
   11    5   14 1     
   12    5   10 1     
   13    5    6 1     
   14    6    7 1     
   15    7    8 1     
   16    7   20 1     
   17    7   21 1     
   18    8    9 1     
   19    8   22 1     
   20    8   23 1     
   21    9   10 1     
   22    9   24 1     
   23    9   25 1     
   24   10   15 1     
   25   10   11 1     
   26   11   26 1     
   27   11   27 1     
   28   11   29 1     
   29   12   13 2     
   30   12   28 1     
   31    6   30 1     
   32    6   31 1     
   33   13   32 1     
@<TRIPOS>SUBSTRUCTURE
      1 S1             1
@<TRIPOS>SET
LONE_PAIRS      STATIC     ATOMS    <user>   **** ""
3 30 31 32
DONOR_HYDROGENS      STATIC     ATOMS    <user>   **** ""
3 26 27 29
ATOM$BLUE        STATIC     ATOMS    COLORGROUP SYSTEM
3 30 31 32
ATOM$RED        STATIC     ATOMS    COLORGROUP SYSTEM
3 26 27 29
