AV-unprocessed.smi:2021|AV-procd|sdf|8182|dock2
  -GOLD-   2272010433D 1   1.00000     0.00000
 Structure written by MMmdl.
 41 42  0  0  0  0  0  0  0  0  3 V2000
  145.5932  132.2263  149.7887 C   0  0  0  0  0  0  0  0  0  0  0  0
  145.2908  132.8339  151.1668 C   0  0  0  0  0  0  0  0  0  0  0  0
  144.2752  133.9813  151.0348 C   0  0  0  0  0  0  0  0  0  0  0  0
  146.5956  133.2915  151.8546 C   0  0  0  0  0  0  0  0  0  0  0  0
  147.4871  132.1603  152.2307 N   0  3  2  0  0  0  0  0  0  0  0  0
  146.7776  131.0451  152.9038 C   0  0  0  0  0  0  0  0  0  0  0  0
  146.5033  131.3735  154.3816 C   0  0  0  0  0  0  0  0  0  0  0  0
  147.7333  131.6709  155.0269 O   0  0  0  0  0  0  0  0  0  0  0  0
  148.3736  132.8220  154.4848 C   0  0  1  0  0  0  0  0  0  0  0  0
  149.6454  133.1167  155.2988 C   0  0  0  0  0  0  0  0  0  0  0  0
  150.3853  134.2465  154.7467 N   0  0  0  0  0  0  0  0  0  0  0  0
  150.6667  135.3910  155.3851 C   0  0  0  0  0  0  0  0  0  0  0  0
  150.3096  135.5488  156.5548 O   0  0  0  0  0  0  0  0  0  0  0  0
  151.3422  136.2831  154.6265 N   0  5  0  0  0  0  0  0  0  0  0  0
  151.0646  137.5938  154.7258 C   0  0  0  0  0  0  0  0  0  0  0  0
  152.0144  138.5379  154.6305 N   0  0  0  0  0  0  0  0  0  0  0  0
  151.5172  139.8278  154.7598 N   0  0  0  0  0  0  0  0  0  0  0  0
  150.1993  139.8228  154.9586 C   0  0  0  0  0  0  0  0  0  0  0  0
  149.4473  138.2424  155.0134 S   0  0  0  0  0  0  0  0  0  0  0  0
  148.6991  132.5448  153.0003 C   0  0  0  0  0  0  0  0  0  0  0  0
  146.0498  132.9593  149.1225 H   0  0  0  0  0  0  0  0  0  0  0  0
  144.6830  131.8643  149.3095 H   0  0  0  0  0  0  0  0  0  0  0  0
  146.2769  131.3811  149.8723 H   0  0  0  0  0  0  0  0  0  0  0  0
  144.8293  132.0453  151.7599 H   0  0  0  0  0  0  0  0  0  0  0  0
  144.6796  134.8041  150.4442 H   0  0  0  0  0  0  0  0  0  0  0  0
  143.9901  134.3786  152.0091 H   0  0  0  0  0  0  0  0  0  0  0  0
  143.3618  133.6405  150.5460 H   0  0  0  0  0  0  0  0  0  0  0  0
  147.1332  133.9948  151.2188 H   0  0  0  0  0  0  0  0  0  0  0  0
  146.3248  133.8491  152.7525 H   0  0  0  0  0  0  0  0  0  0  0  0
  145.8528  130.8004  152.3803 H   0  0  0  0  0  0  0  0  0  0  0  0
  147.4054  130.1549  152.8454 H   0  0  0  0  0  0  0  0  0  0  0  0
  145.8081  132.2080  154.4835 H   0  0  0  0  0  0  0  0  0  0  0  0
  146.0454  130.5173  154.8773 H   0  0  0  0  0  0  0  0  0  0  0  0
  147.7063  133.6811  154.5676 H   0  0  0  0  0  0  0  0  0  0  0  0
  149.4056  133.2808  156.3507 H   0  0  0  0  0  0  0  0  0  0  0  0
  150.3085  132.2519  155.2678 H   0  0  0  0  0  0  0  0  0  0  0  0
  150.7025  134.1624  153.7920 H   0  0  0  0  0  0  0  0  0  0  0  0
  149.6675  140.7547  155.0784 H   0  0  0  0  0  0  0  0  0  0  0  0
  149.4096  131.7195  152.9373 H   0  0  0  0  0  0  0  0  0  0  0  0
  149.1957  133.4027  152.5492 H   0  0  0  0  0  0  0  0  0  0  0  0
  147.8128  131.7846  151.3513 H   0  0  0  0  0  0  0  0  0  0  0  0
  1  2  1  0  0  0  0
  1 21  1  0  0  0  0
  1 22  1  0  0  0  0
  1 23  1  0  0  0  0
  2  3  1  0  0  0  0
  2  4  1  0  0  0  0
  2 24  1  0  0  0  0
  3 25  1  0  0  0  0
  3 26  1  0  0  0  0
  3 27  1  0  0  0  0
  4  5  1  0  0  0  0
  4 28  1  0  0  0  0
  4 29  1  0  0  0  0
  5 20  1  0  0  0  0
  5  6  1  0  0  0  0
  5 41  1  0  0  0  0
  6  7  1  0  0  0  0
  6 30  1  0  0  0  0
  6 31  1  0  0  0  0
  7  8  1  0  0  0  0
  7 32  1  0  0  0  0
  7 33  1  0  0  0  0
  8  9  1  0  0  0  0
  9 10  1  0  0  0  0
  9 20  1  0  0  0  0
  9 34  1  0  0  0  0
 10 11  1  0  0  0  0
 10 35  1  0  0  0  0
 10 36  1  0  0  0  0
 11 12  1  0  0  0  0
 11 37  1  0  0  0  0
 12 13  2  0  0  0  0
 12 14  1  0  0  0  0
 14 15  1  0  0  0  0
 15 19  1  0  0  0  0
 15 16  2  0  0  0  0
 16 17  1  0  0  0  0
 17 18  2  0  0  0  0
 18 19  1  0  0  0  0
 18 38  1  0  0  0  0
 20 39  1  0  0  0  0
 20 40  1  0  0  0  0
M  CHG  1   5   1
M  CHG  1  14  -1
M  END
> <s_m_source_file>
AV-unprocessed.smi

> <i_m_source_file_index>
2021

> <i_lp_mmshare_version>
43012

> <i_f3d_flags>
0

> <s_epik_input>
W0NIM11bQ0hdKFtDSDNdKVtDSDJdTjFbQ0gyXVtDSDJdT1tDQEhdKFtDSDJdMSlbQ0gyXVtOSF1DKD1PKVtOSF1jMm5uW2NIXXMy

> <s_epik_cmdline>
J2VwaWtfcHl0aG9uJywgJy1waCcsICc3LjAnLCAnLXRuJywgJzgnLCAnLW1hJywgJzIwMCcsICctbWV0YWxfYmluZGluZycsICctaW1hZScsICc8aW5maWxlLm1hZT4nLCAnLW9tYWUnLCAnPG91dGZpbGUubWFlPic=

> <r_lp_tautomer_probability>
1

> <r_epik_Ionization_Penalty>
3.15762

> <r_epik_Ionization_Penalty_Charging>
3.12229

> <r_epik_Ionization_Penalty_Neutral>
0.0353298

> <r_epik_State_Penalty>
3.11266

> <r_epik_Charging_Adjusted_Penalty>
6.23495

> <i_epik_Tot_Q>
0

> <i_epik_Tot_abs_Q>
2

> <r_epik_Metal_State_Penalty>
0.541462

> <b_epik_Metal_Only>
1

> <s_lp_Force_Field>
OPLS_2005

> <r_lp_Energy>
12.8808

> <b_lp_Chiralities_Consistent>
1

> <s_lp_Variant>
AV-unprocessed.smi:2021-8

> <Gold.Version>
5.8.1

> <Gold.Id.Protein>
6NUR|6NUR_protein|mol2

> <Gold.PLP.Fitness>
43.7603

> <Gold.PLP.PLP>
-32.8412

> <Gold.PLP.part.hbond>
-3.0000

> <Gold.PLP.part.metal>
0.0000

> <Gold.PLP.part.buried>
-5.8234

> <Gold.PLP.part.nonpolar>
-24.8724

> <Gold.PLP.part.repulsive>
0.4180

> <Gold.PLP.ligand.clash>
0.0000

> <Gold.PLP.ligand.torsion>
0.6446

> <Gold.PLP.Chemscore.Hbond>
4.0000

> <Gold.PLP.Chemscore.CHOScore>
0.0000

> <Gold.PLP.Chemscore.Metal>
0.0000

> <Gold.Chemscore.Hbonds>
donor molecule, donor type, donor heavy atom, donor atom, acceptor molecule, acceptor atom, score
      L1  H     5    41       P1 10747  1.00
      P1  H  7989  7998       L1    17  1.00
      P1  H 10752 10765       L1    14  2.00

> <Gold.PLP.Chemscore.Internal.Correction>
0.2083

> <Gold.Rescore>
     Score         DG    S(hbond)    S(metal)    S(lipo)     H(rot)  DE(clash)    DE(int)     intcor
     16.99     -18.32       2.90        0.00      67.39       1.85       0.05       1.27       ----

> <Gold.Chemscore.Fitness>
16.9934

> <Gold.Chemscore.DG>
-18.3166

> <Gold.Chemscore.ZeroCoef>
-5.4800

> <Gold.Chemscore.Hbond>
2.8979

> <Gold.Chemscore.Metal>
0.0000

> <Gold.Chemscore.Lipo>
67.3913

> <Gold.Chemscore.Internal_Hbond>
0.0000

> <Gold.Chemscore.DEClash>
0.0485

> <Gold.Chemscore.DEInternal>
1.2746

> <Gold.Chemscore.Rot>
1.8466

> <Gold.Chemscore.Internal.Correction>
   9.000000E+99

> <Gold.Chemscore.Hbonds>
donor molecule, donor type, donor heavy atom, donor atom, acceptor molecule, acceptor atom, score
      L1  H     5    41       P1 10747  0.98
      P1  H  7989  7998       L1    17  0.33
      P1  H 10752 10765       L1    14  0.50

> <Gold.Chemscore.Hbond.Weighted>
-9.6790

> <Gold.Chemscore.Metal.Weighted>
-0.0000

> <Gold.Chemscore.Lipo.Weighted>
-7.8848

> <Gold.Chemscore.Internal_Hbond.Weighted>
0.0000

> <Gold.Chemscore.DEClash.Weighted>
0.0485

> <Gold.Chemscore.DEInternal.Weighted>
1.2746

> <Gold.Chemscore.Rot.Weighted>
4.7272

> <Gold.Chemscore.Internal.Correction.Weighted>
   9.000000E+99

> <Gold.Protein.RotatedTorsions>
[ 6907 6896 6895 6894 ] final -154.65 input  -60.11 | X-H torsion
[ 7974 7965 7964 7962 ] final  -54.01 input  175.53 | X-H torsion
[ 8008 7997 7996 7995 ] final  -55.58 input   59.86 | X-H torsion
[ 10167 10162 10161 10158 ] final   14.35 input  -65.29 | X-H torsion
[ 10718 10713 10712 10709 ] final   40.39 input   66.30 | X-H torsion
[ 10763 10752 10751 10750 ] final  171.10 input  -60.55 | X-H torsion
[ 11005 11000 10999 10996 ] final  -29.47 input  -57.11 | X-H torsion

> <Gold.Protein.ActiveResidues>
 VAL166  LYS551  ARG553  GLY616  TRP617  ASP618  TYR619  PRO620  LYS621  CYS622 
 ASP623  PHE694  ASN695  SER759  ASP760  ASP761  ALA762  ILE779  LEU786  VAL792 
 PHE793  MET794  SER795  GLU796  ALA797  LYS798  CYS799  TRP800  GLU811  SER814 

> <Gold.Protein.RotatedAtoms>
  151.2606  133.4304  159.2615 H   0  0  0  0  0  0  0  0  0  0  0  0  # atno 6907 bound_to 6896
  151.0534  134.9688  159.8233 H   0  0  0  0  0  0  0  0  0  0  0  0  # atno 6908 bound_to 6896
  152.5386  134.2560  159.8969 H   0  0  0  0  0  0  0  0  0  0  0  0  # atno 6909 bound_to 6896
  145.8904  140.8075  142.9794 H   0  0  0  0  0  0  0  0  0  0  0  0  # atno 7974 bound_to 7965
  154.4200  140.1149  156.5499 H   0  0  0  0  0  0  0  0  0  0  0  0  # atno 8008 bound_to 7997
  155.6421  140.3496  155.4699 H   0  0  0  0  0  0  0  0  0  0  0  0  # atno 8009 bound_to 7997
  155.9862  140.1170  157.0670 H   0  0  0  0  0  0  0  0  0  0  0  0  # atno 8010 bound_to 7997
  140.5941  143.8736  150.6901 H   0  0  0  0  0  0  0  0  0  0  0  0  # atno 10167 bound_to 10162
  157.3816  130.7756  149.7197 H   0  0  0  0  0  0  0  0  0  0  0  0  # atno 10718 bound_to 10713
  154.4071  135.2755  155.2060 H   0  0  0  0  0  0  0  0  0  0  0  0  # atno 10763 bound_to 10752
  154.4062  135.6033  153.5929 H   0  0  0  0  0  0  0  0  0  0  0  0  # atno 10764 bound_to 10752
  152.9831  135.5938  154.4347 H   0  0  0  0  0  0  0  0  0  0  0  0  # atno 10765 bound_to 10752
  140.9299  133.7345  156.0921 H   0  0  0  0  0  0  0  0  0  0  0  0  # atno 11005 bound_to 11000
  144.6730  140.1521  143.7429 LP  0  0  0  0  0  0  0  0  0  0  0  0  # atno 17320 bound_to 7965
  145.8915  139.2378  143.1546 LP  0  0  0  0  0  0  0  0  0  0  0  0  # atno 17321 bound_to 7965
  140.2266  143.3767  152.1599 LP  0  0  0  0  0  0  0  0  0  0  0  0  # atno 17342 bound_to 10162
  139.5247  144.7086  151.5276 LP  0  0  0  0  0  0  0  0  0  0  0  0  # atno 17343 bound_to 10162
  155.9777  130.4060  150.3695 LP  0  0  0  0  0  0  0  0  0  0  0  0  # atno 17370 bound_to 10713
  157.1800  131.0390  151.2753 LP  0  0  0  0  0  0  0  0  0  0  0  0  # atno 17371 bound_to 10713
  140.7877  134.3653  157.5472 LP  0  0  0  0  0  0  0  0  0  0  0  0  # atno 17394 bound_to 11000
  139.8794  134.9121  156.3051 LP  0  0  0  0  0  0  0  0  0  0  0  0  # atno 17395 bound_to 11000

$$$$
