AV-unprocessed.smi:1512|AV-procd|sdf|6106|dock7
  -GOLD-   22720 6243D 1   1.00000     0.00000
 Structure written by MMmdl.
 44 46  0  0  0  0  0  0  0  0  3 V2000
  149.7662  141.4996  157.4259 C   0  0  0  0  0  0  0  0  0  0  0  0
  151.2916  141.4078  157.6015 C   0  0  2  0  0  0  0  0  0  0  0  0
  151.7393  140.1411  157.0230 N   0  0  0  0  0  0  0  0  0  0  0  0
  151.5718  139.7489  155.7506 C   0  0  0  0  0  0  0  0  0  0  0  0
  151.0282  140.4438  154.8913 O   0  0  0  0  0  0  0  0  0  0  0  0
  152.1266  138.3604  155.4013 C   0  0  0  0  0  0  0  0  0  0  0  0
  151.2037  137.2620  155.7360 N   0  0  0  0  0  0  0  0  0  0  0  0
  150.8625  136.3776  154.6957 C   0  0  0  0  0  0  0  0  0  0  0  0
  150.0290  135.3454  154.8878 C   0  0  0  0  0  0  0  0  0  0  0  0
  149.4693  135.1555  156.2037 C   0  0  0  0  0  0  0  0  0  0  0  0
  149.7790  135.9950  157.2186 C   0  0  0  0  0  0  0  0  0  0  0  0
  149.1727  135.7554  158.5081 N   0  3  0  0  0  0  0  0  0  0  0  0
  148.7966  136.7150  159.1739 O   0  0  0  0  0  0  0  0  0  0  0  0
  149.0421  134.5953  158.8876 O   0  5  0  0  0  0  0  0  0  0  0  0
  150.7102  137.1227  157.0060 C   0  0  0  0  0  0  0  0  0  0  0  0
  151.0406  137.8963  157.9070 O   0  0  0  0  0  0  0  0  0  0  0  0
  151.7364  141.4929  159.0835 C   0  0  1  0  0  0  0  0  0  0  0  0
  153.0956  140.8036  159.3672 C   0  0  0  0  0  0  0  0  0  0  0  0
  153.9153  141.9029  160.0643 C   0  0  2  0  0  0  0  0  0  0  0  0
  153.3330  142.1730  161.4633 C   0  0  0  0  0  0  0  0  0  0  0  0
  152.0187  142.9094  161.1443 C   0  0  0  0  0  0  0  0  0  0  0  0
  152.0039  142.9287  159.6034 C   0  0  1  0  0  0  0  0  0  0  0  0
  153.4818  143.1408  159.2914 C   0  0  0  0  0  0  0  0  0  0  0  0
  149.3765  142.4642  157.7482 H   0  0  0  0  0  0  0  0  0  0  0  0
  149.2532  140.7241  157.9960 H   0  0  0  0  0  0  0  0  0  0  0  0
  149.4871  141.3791  156.3784 H   0  0  0  0  0  0  0  0  0  0  0  0
  151.7372  142.2429  157.0591 H   0  0  0  0  0  0  0  0  0  0  0  0
  152.2058  139.5026  157.6508 H   0  0  0  0  0  0  0  0  0  0  0  0
  152.3669  138.3515  154.3373 H   0  0  0  0  0  0  0  0  0  0  0  0
  153.0818  138.2131  155.9090 H   0  0  0  0  0  0  0  0  0  0  0  0
  151.3150  136.5930  153.7385 H   0  0  0  0  0  0  0  0  0  0  0  0
  149.7773  134.6779  154.0768 H   0  0  0  0  0  0  0  0  0  0  0  0
  148.7843  134.3354  156.3636 H   0  0  0  0  0  0  0  0  0  0  0  0
  150.9605  141.0259  159.6926 H   0  0  0  0  0  0  0  0  0  0  0  0
  152.9873  139.9109  159.9843 H   0  0  0  0  0  0  0  0  0  0  0  0
  153.5958  140.5063  158.4446 H   0  0  0  0  0  0  0  0  0  0  0  0
  154.9889  141.7125  160.0651 H   0  0  0  0  0  0  0  0  0  0  0  0
  153.1698  141.2535  162.0264 H   0  0  0  0  0  0  0  0  0  0  0  0
  153.9984  142.8107  162.0465 H   0  0  0  0  0  0  0  0  0  0  0  0
  151.1462  142.4095  161.5659 H   0  0  0  0  0  0  0  0  0  0  0  0
  152.0441  143.9245  161.5428 H   0  0  0  0  0  0  0  0  0  0  0  0
  151.3409  143.6934  159.2008 H   0  0  0  0  0  0  0  0  0  0  0  0
  153.8820  144.0694  159.7023 H   0  0  0  0  0  0  0  0  0  0  0  0
  153.7165  143.0925  158.2271 H   0  0  0  0  0  0  0  0  0  0  0  0
  1  2  1  0  0  0  0
  1 24  1  0  0  0  0
  1 25  1  0  0  0  0
  1 26  1  0  0  0  0
  2  3  1  0  0  0  0
  2 17  1  0  0  0  0
  2 27  1  0  0  0  0
  3  4  1  0  0  0  0
  3 28  1  0  0  0  0
  4  5  2  0  0  0  0
  4  6  1  0  0  0  0
  6  7  1  0  0  0  0
  6 29  1  0  0  0  0
  6 30  1  0  0  0  0
  7 15  1  0  0  0  0
  7  8  1  0  0  0  0
  8  9  2  0  0  0  0
  8 31  1  0  0  0  0
  9 10  1  0  0  0  0
  9 32  1  0  0  0  0
 10 11  2  0  0  0  0
 10 33  1  0  0  0  0
 11 12  1  0  0  0  0
 11 15  1  0  0  0  0
 12 13  2  0  0  0  0
 12 14  1  0  0  0  0
 15 16  2  0  0  0  0
 17 22  1  0  0  0  0
 17 18  1  0  0  0  0
 17 34  1  0  0  0  0
 18 19  1  0  0  0  0
 18 35  1  0  0  0  0
 18 36  1  0  0  0  0
 19 23  1  0  0  0  0
 19 20  1  0  0  0  0
 19 37  1  0  0  0  0
 20 21  1  0  0  0  0
 20 38  1  0  0  0  0
 20 39  1  0  0  0  0
 21 22  1  0  0  0  0
 21 40  1  0  0  0  0
 21 41  1  0  0  0  0
 22 23  1  0  0  0  0
 22 42  1  0  0  0  0
 23 43  1  0  0  0  0
 23 44  1  0  0  0  0
M  CHG  1  12   1
M  CHG  1  14  -1
M  END
> <s_m_source_file>
AV-unprocessed.smi

> <i_m_source_file_index>
1512

> <i_lp_mmshare_version>
43012

> <i_f3d_flags>
0

> <s_epik_input>
W0NIMl0xW0NIMl1bQ0BIXShbQ0gyXTIpW0NAQEhdKFtDSDJdW0NAQEhdMTIpW0NASF0oW0NIM10pW05IXUMoPU8pW0NIMl1uM1tjSF1bY0hdW2NIXWMoW04rXSg9TylbTy1dKWMzPU8=

> <s_epik_cmdline>
J2VwaWtfcHl0aG9uJywgJy1waCcsICc3LjAnLCAnLXRuJywgJzgnLCAnLW1hJywgJzIwMCcsICctbWV0YWxfYmluZGluZycsICctaW1hZScsICc8aW5maWxlLm1hZT4nLCAnLW9tYWUnLCAnPG91dGZpbGUubWFlPic=

> <r_lp_tautomer_probability>
1

> <r_epik_Ionization_Penalty>
2.17697e-08

> <r_epik_Ionization_Penalty_Charging>
1.42735e-10

> <r_epik_Ionization_Penalty_Neutral>
2.16269e-08

> <r_epik_State_Penalty>
-0

> <r_epik_Charging_Adjusted_Penalty>
1.42735e-10

> <i_epik_Tot_Q>
0

> <i_epik_Tot_abs_Q>
2

> <r_epik_Metal_State_Penalty>
-0

> <b_epik_Metal_Only>
0

> <s_lp_Force_Field>
OPLS_2005

> <r_lp_Energy>
64.581

> <b_lp_Chiralities_Consistent>
1

> <s_lp_Variant>
AV-unprocessed.smi:1512-7

> <Gold.Version>
5.8.1

> <Gold.Id.Protein>
6NUR|6NUR_protein|mol2

> <Gold.PLP.Fitness>
44.9559

> <Gold.PLP.PLP>
-39.1692

> <Gold.PLP.part.hbond>
-1.9725

> <Gold.PLP.part.metal>
0.0000

> <Gold.PLP.part.buried>
-5.4403

> <Gold.PLP.part.nonpolar>
-31.3585

> <Gold.PLP.part.repulsive>
0.1689

> <Gold.PLP.ligand.clash>
0.0000

> <Gold.PLP.ligand.torsion>
1.6218

> <Gold.PLP.Chemscore.Hbond>
2.0000

> <Gold.PLP.Chemscore.CHOScore>
1.0000

> <Gold.PLP.Chemscore.Metal>
0.0000

> <Gold.Chemscore.Hbonds>
donor molecule, donor type, donor heavy atom, donor atom, acceptor molecule, acceptor atom, score
      P1  H  6896  6909       L1    14  1.00
      P1  H  7989  7998       L1     5  1.00
      L1  C     8    31       P1  7949  1.00

> <Gold.PLP.Chemscore.Internal.Correction>
0.0302

> <Gold.Rescore>
     Score         DG    S(hbond)    S(metal)    S(lipo)     H(rot)  DE(clash)    DE(int)     intcor
     15.49     -20.61       1.95        0.00     111.95       1.75       0.13       4.99       ----

> <Gold.Chemscore.Fitness>
15.4905

> <Gold.Chemscore.DG>
-20.6109

> <Gold.Chemscore.ZeroCoef>
-5.4800

> <Gold.Chemscore.Hbond>
1.9478

> <Gold.Chemscore.Metal>
0.0000

> <Gold.Chemscore.Lipo>
111.9526

> <Gold.Chemscore.Internal_Hbond>
0.0000

> <Gold.Chemscore.DEClash>
0.1333

> <Gold.Chemscore.DEInternal>
4.9871

> <Gold.Chemscore.Rot>
1.7474

> <Gold.Chemscore.Internal.Correction>
   9.000000E+99

> <Gold.Chemscore.Hbonds>
donor molecule, donor type, donor heavy atom, donor atom, acceptor molecule, acceptor atom, score
      P1  H  6896  6909       L1    14  0.35
      P1  H  7989  7998       L1     5  0.95

> <Gold.Chemscore.Hbond.Weighted>
-6.5058

> <Gold.Chemscore.Metal.Weighted>
-0.0000

> <Gold.Chemscore.Lipo.Weighted>
-13.0985

> <Gold.Chemscore.Internal_Hbond.Weighted>
0.0000

> <Gold.Chemscore.DEClash.Weighted>
0.1333

> <Gold.Chemscore.DEInternal.Weighted>
4.9871

> <Gold.Chemscore.Rot.Weighted>
4.4733

> <Gold.Chemscore.Internal.Correction.Weighted>
   9.000000E+99

> <Gold.Protein.RotatedTorsions>
[ 6907 6896 6895 6894 ] final   25.61 input  -60.11 | X-H torsion
[ 7974 7965 7964 7962 ] final  -93.51 input  175.53 | X-H torsion
[ 8008 7997 7996 7995 ] final -103.84 input   59.86 | X-H torsion
[ 10167 10162 10161 10158 ] final  139.23 input  -65.29 | X-H torsion
[ 10718 10713 10712 10709 ] final  -80.13 input   66.30 | X-H torsion
[ 10763 10752 10751 10750 ] final  148.35 input  -60.55 | X-H torsion
[ 11005 11000 10999 10996 ] final  -46.17 input  -57.11 | X-H torsion

> <Gold.Protein.ActiveResidues>
 VAL166  LYS551  ARG553  GLY616  TRP617  ASP618  TYR619  PRO620  LYS621  CYS622 
 ASP623  PHE694  ASN695  SER759  ASP760  ASP761  ALA762  ILE779  LEU786  VAL792 
 PHE793  MET794  SER795  GLU796  ALA797  LYS798  CYS799  TRP800  GLU811  SER814 

> <Gold.Protein.RotatedAtoms>
  151.9750  135.0057  160.0554 H   0  0  0  0  0  0  0  0  0  0  0  0  # atno 6907 bound_to 6896
  152.1748  133.4663  159.4936 H   0  0  0  0  0  0  0  0  0  0  0  0  # atno 6908 bound_to 6896
  150.6907  134.1825  159.4297 H   0  0  0  0  0  0  0  0  0  0  0  0  # atno 6909 bound_to 6896
  145.3856  140.9522  143.2369 H   0  0  0  0  0  0  0  0  0  0  0  0  # atno 7974 bound_to 7965
  154.8766  140.0421  157.1757 H   0  0  0  0  0  0  0  0  0  0  0  0  # atno 8008 bound_to 7997
  154.8682  140.2954  155.5476 H   0  0  0  0  0  0  0  0  0  0  0  0  # atno 8009 bound_to 7997
  156.2999  140.2434  156.3667 H   0  0  0  0  0  0  0  0  0  0  0  0  # atno 8010 bound_to 7997
  139.5085  144.6307  151.5825 H   0  0  0  0  0  0  0  0  0  0  0  0  # atno 10167 bound_to 10162
  156.0077  130.4565  150.3754 H   0  0  0  0  0  0  0  0  0  0  0  0  # atno 10718 bound_to 10713
  154.0534  135.2880  155.3337 H   0  0  0  0  0  0  0  0  0  0  0  0  # atno 10763 bound_to 10752
  154.6855  135.5247  153.8323 H   0  0  0  0  0  0  0  0  0  0  0  0  # atno 10764 bound_to 10752
  153.0552  135.6592  154.0728 H   0  0  0  0  0  0  0  0  0  0  0  0  # atno 10765 bound_to 10752
  141.0562  133.6725  156.3117 H   0  0  0  0  0  0  0  0  0  0  0  0  # atno 11005 bound_to 11000
  144.8477  139.5371  143.6871 LP  0  0  0  0  0  0  0  0  0  0  0  0  # atno 17320 bound_to 7965
  146.2822  139.6907  142.9221 LP  0  0  0  0  0  0  0  0  0  0  0  0  # atno 17321 bound_to 7965
  140.6038  143.9561  150.6405 LP  0  0  0  0  0  0  0  0  0  0  0  0  # atno 17342 bound_to 10162
  140.2781  143.3408  152.1176 LP  0  0  0  0  0  0  0  0  0  0  0  0  # atno 17343 bound_to 10162
  157.1836  131.0398  151.2736 LP  0  0  0  0  0  0  0  0  0  0  0  0  # atno 17370 bound_to 10713
  157.4124  130.7392  149.6849 LP  0  0  0  0  0  0  0  0  0  0  0  0  # atno 17371 bound_to 10713
  140.5959  134.5604  157.5508 LP  0  0  0  0  0  0  0  0  0  0  0  0  # atno 17394 bound_to 11000
  139.9392  134.7818  156.0722 LP  0  0  0  0  0  0  0  0  0  0  0  0  # atno 17395 bound_to 11000

$$$$
