#       Name:                AV-unprocessed.smi:2093
#       Creating user name   scv26
#       Creation time:       Fri Mar 27 11:27:06 2020


#       File generated by GOLD software.
#

@<TRIPOS>MOLECULE
AV-unprocessed.smi:2093
    36    37     1
SMALL
NO_CHARGES


@<TRIPOS>ATOM
      1 ****        -1.6597  -1.1049   2.0535 C.3            1 S1                 0.0000
      2 ****        -1.1803  -0.3930   0.7791 C.3            1 S1                 0.0000
      3 ****         0.2806  -0.3522   0.7841 N.am           1 S1                 0.0000
      4 ****         1.0365   0.7557   0.7773 C.2            1 S1                 0.0000
      5 ****         0.5764   1.8978   0.7861 O.2            1 S1                 0.0000
      6 ****         2.3450   0.4471   0.7586 N.am           1 S1                 0.0000
      7 ****         3.4560   1.3305   0.7466 C.2            1 S1                 0.0000
      8 ****         3.3605   2.6653   0.7670 N.2            1 S1                 0.0000
      9 ****         4.6145   3.2812   0.7486 C.2            1 S1                 0.0000
     10 ****         5.6613   2.3941   0.7146 C.2            1 S1                 0.0000
     11 ****         5.1109   0.7398   0.7046 S.3            1 S1                 0.0000
     12 ****        -1.6645  -1.0944  -0.5048 C.3            1 S1                 0.0000
     13 ****        -3.1840  -1.1356  -0.6803 C.3            1 S1                 0.0000
     14 ****        -3.3744  -1.2165  -2.1877 C.3            1 S1                 0.0000
     15 ****        -1.9958  -0.8749  -2.7584 C.3            1 S1                 0.0000
     16 ****        -1.2574  -0.3700  -1.6558 O.3            1 S1                 0.0000
     17 ****        -2.7480  -1.1200   2.1148 H              1 S1                 0.0000
     18 ****        -1.2917  -0.5982   2.9464 H              1 S1                 0.0000
     19 ****        -1.3095  -2.1371   2.0880 H              1 S1                 0.0000
     20 ****        -1.5876   0.6195   0.7898 H              1 S1                 0.0000
     21 ****         0.7534  -1.2438   0.7734 H              1 S1                 0.0000
     22 ****         2.5735  -0.5358   0.7488 H              1 S1                 0.0000
     23 ****         4.6697   4.3597   0.7617 H              1 S1                 0.0000
     24 ****         6.7185   2.6130   0.6948 H              1 S1                 0.0000
     25 ****        -1.2571  -2.1058  -0.5645 H              1 S1                 0.0000
     26 ****        -3.6445  -1.9708  -0.1519 H              1 S1                 0.0000
     27 ****        -3.6327  -0.2139  -0.3070 H              1 S1                 0.0000
     28 ****        -3.6866  -2.2131  -2.5017 H              1 S1                 0.0000
     29 ****        -4.1328  -0.5065  -2.5199 H              1 S1                 0.0000
     30 ****        -1.5046  -1.7721  -3.1380 H              1 S1                 0.0000
     31 ****        -2.0448  -0.1454  -3.5672 H              1 S1                 0.0000
     32 ****        -0.4137   2.0379   0.7991 LP             1 S1                 0.0000
     33 ****         1.1928   2.6852   0.7802 LP             1 S1                 0.0000
     34 ****         2.4936   3.1632   0.7924 LP             1 S1                 0.0000
     35 ****        -0.2782  -0.4991  -1.8123 LP             1 S1                 0.0000
     36 ****        -1.4498   0.6036  -1.5327 LP             1 S1                 0.0000
@<TRIPOS>BOND
    1    1    2 1     
    2    1   17 1     
    3    1   18 1     
    4    1   19 1     
    5    2    3 1     
    6    2   12 1     
    7    2   20 1     
    8    3    4 am    
    9    3   21 1     
   10    4    5 2     
   11    4    6 am    
   12    6    7 1     
   13    6   22 1     
   14    7   11 1     
   15    7    8 2     
   16    8    9 1     
   17    9   10 2     
   18    9   23 1     
   19   10   11 1     
   20   10   24 1     
   21   12   16 1     
   22   12   13 1     
   23   12   25 1     
   24   13   14 1     
   25   13   26 1     
   26   13   27 1     
   27   14   15 1     
   28   14   28 1     
   29   14   29 1     
   30   15   16 1     
   31   15   30 1     
   32   15   31 1     
   33    5   32 1     
   34    5   33 1     
   35    8   34 1     
   36   16   35 1     
   37   16   36 1     
@<TRIPOS>SUBSTRUCTURE
      1 S1             1
@<TRIPOS>SET
LONE_PAIRS      STATIC     ATOMS    <user>   **** ""
5 32 33 34 35 36
DONOR_HYDROGENS      STATIC     ATOMS    <user>   **** ""
2 21 22
ATOM$BLUE        STATIC     ATOMS    COLORGROUP SYSTEM
5 32 33 34 35 36
ATOM$RED        STATIC     ATOMS    COLORGROUP SYSTEM
2 21 22
