AV-unprocessed.smi:306|AV-procd|sdf|2282|dock4
  -GOLD-   2262022183D 1   1.00000     0.00000
 Structure written by MMmdl.
 47 49  0  0  0  0  0  0  0  0  1 V2000
  154.3229  138.8277  161.1734 C   0  0  0  0  0  0  0  0  0  0  0  0
  154.3665  140.3599  161.1989 C   0  0  0  0  0  0  0  0  0  0  0  0
  153.5534  140.9656  160.0901 C   0  0  0  0  0  0  0  0  0  0  0  0
  153.2658  142.3403  159.8615 C   0  0  0  0  0  0  0  0  0  0  0  0
  152.4949  142.3422  158.7333 C   0  0  0  0  0  0  0  0  0  0  0  0
  151.8823  143.4868  157.9882 C   0  0  0  0  0  0  0  0  0  0  0  0
  152.2468  144.8544  158.5757 C   0  0  0  0  0  0  0  0  0  0  0  0
  152.3507  141.0215  158.3477 N   0  0  0  0  0  0  0  0  0  0  0  0
  151.6433  140.5075  157.2434 C   0  0  0  0  0  0  0  0  0  0  0  0
  150.5554  141.0825  156.7257 N   0  0  0  0  0  0  0  0  0  0  0  0
  150.2059  140.2074  155.7072 C   0  0  0  0  0  0  0  0  0  0  0  0
  151.0679  139.1590  155.6486 C   0  0  0  0  0  0  0  0  0  0  0  0
  150.9143  138.0650  154.6805 C   0  0  0  0  0  0  0  0  0  0  0  0
  151.6739  137.1007  154.6180 O   0  0  0  0  0  0  0  0  0  0  0  0
  149.8423  138.2235  153.8666 N   0  0  0  0  0  0  0  0  0  0  0  0
  148.9403  139.2521  153.8694 C   0  0  0  0  0  0  0  0  0  0  0  0
  148.0073  139.2539  153.0666 O   0  0  0  0  0  0  0  0  0  0  0  0
  149.1193  140.2548  154.7881 N   0  0  0  0  0  0  0  0  0  0  0  0
  148.1830  141.3794  154.8381 C   0  0  0  0  0  0  0  0  0  0  0  0
  152.0245  139.3513  156.6458 N   0  0  0  0  0  0  0  0  0  0  0  0
  153.1620  138.5040  156.9914 C   0  0  0  0  0  0  0  0  0  0  0  0
  152.7370  137.0657  157.3189 C   0  0  0  0  0  0  0  0  0  0  0  0
  153.8720  136.2152  157.3285 O   0  0  0  0  0  0  0  0  0  0  0  0
  154.7762  136.5271  158.3726 C   0  0  0  0  0  0  0  0  0  0  0  0
  153.0035  140.1808  159.1775 N   0  0  0  0  0  0  0  0  0  0  0  0
  149.6894  137.4971  153.1825 H   0  0  0  0  0  0  0  0  0  0  0  0
  154.9136  138.4097  161.9886 H   0  0  0  0  0  0  0  0  0  0  0  0
  154.7239  138.4370  160.2376 H   0  0  0  0  0  0  0  0  0  0  0  0
  153.3014  138.4617  161.2800 H   0  0  0  0  0  0  0  0  0  0  0  0
  153.9995  140.7150  162.1625 H   0  0  0  0  0  0  0  0  0  0  0  0
  155.4020  140.6950  161.1291 H   0  0  0  0  0  0  0  0  0  0  0  0
  153.5802  143.1972  160.4386 H   0  0  0  0  0  0  0  0  0  0  0  0
  152.1826  143.4531  156.9404 H   0  0  0  0  0  0  0  0  0  0  0  0
  150.7978  143.3752  157.9892 H   0  0  0  0  0  0  0  0  0  0  0  0
  151.7748  145.6578  158.0103 H   0  0  0  0  0  0  0  0  0  0  0  0
  153.3235  145.0219  158.5543 H   0  0  0  0  0  0  0  0  0  0  0  0
  151.9164  144.9367  159.6114 H   0  0  0  0  0  0  0  0  0  0  0  0
  148.0827  141.8447  153.8565 H   0  0  0  0  0  0  0  0  0  0  0  0
  148.5011  142.1583  155.5307 H   0  0  0  0  0  0  0  0  0  0  0  0
  147.1973  141.0383  155.1562 H   0  0  0  0  0  0  0  0  0  0  0  0
  153.8806  138.5104  156.1740 H   0  0  0  0  0  0  0  0  0  0  0  0
  153.6875  138.9394  157.8412 H   0  0  0  0  0  0  0  0  0  0  0  0
  152.2411  137.0397  158.2901 H   0  0  0  0  0  0  0  0  0  0  0  0
  152.0158  136.7145  156.5801 H   0  0  0  0  0  0  0  0  0  0  0  0
  155.6330  135.8550  158.3270 H   0  0  0  0  0  0  0  0  0  0  0  0
  154.3059  136.4077  159.3493 H   0  0  0  0  0  0  0  0  0  0  0  0
  155.1450  137.5497  158.2830 H   0  0  0  0  0  0  0  0  0  0  0  0
  1  2  1  0  0  0  0
  1 27  1  0  0  0  0
  1 28  1  0  0  0  0
  1 29  1  0  0  0  0
  2  3  1  0  0  0  0
  2 30  1  0  0  0  0
  2 31  1  0  0  0  0
  3 25  2  0  0  0  0
  3  4  1  0  0  0  0
  4  5  2  0  0  0  0
  4 32  1  0  0  0  0
  5  6  1  0  0  0  0
  5  8  1  0  0  0  0
  6  7  1  0  0  0  0
  6 33  1  0  0  0  0
  6 34  1  0  0  0  0
  7 35  1  0  0  0  0
  7 36  1  0  0  0  0
  7 37  1  0  0  0  0
  8  9  1  0  0  0  0
  8 25  1  0  0  0  0
  9 20  1  0  0  0  0
  9 10  2  0  0  0  0
 10 11  1  0  0  0  0
 11 18  1  0  0  0  0
 11 12  2  0  0  0  0
 12 13  1  0  0  0  0
 12 20  1  0  0  0  0
 13 14  2  0  0  0  0
 13 15  1  0  0  0  0
 15 26  1  0  0  0  0
 15 16  1  0  0  0  0
 16 17  2  0  0  0  0
 16 18  1  0  0  0  0
 18 19  1  0  0  0  0
 19 38  1  0  0  0  0
 19 39  1  0  0  0  0
 19 40  1  0  0  0  0
 20 21  1  0  0  0  0
 21 22  1  0  0  0  0
 21 41  1  0  0  0  0
 21 42  1  0  0  0  0
 22 23  1  0  0  0  0
 22 43  1  0  0  0  0
 22 44  1  0  0  0  0
 23 24  1  0  0  0  0
 24 45  1  0  0  0  0
 24 46  1  0  0  0  0
 24 47  1  0  0  0  0
M  END
> <s_m_source_file>
AV-unprocessed.smi

> <i_m_source_file_index>
306

> <i_lp_mmshare_version>
43012

> <i_f3d_flags>
0

> <s_epik_input>
W0NIM11bQ0gyXWMxW2NIXWMoW0NIMl1bQ0gzXSluKG4xKS1jKG4yKW4oW0NIMl1bQ0gyXU9bQ0gzXSljKGMyMyljKD1PKVtuSF1jKD1PKW4zW0NIM10=

> <s_epik_cmdline>
J2VwaWtfcHl0aG9uJywgJy1waCcsICc3LjAnLCAnLXRuJywgJzgnLCAnLW1hJywgJzIwMCcsICctbWV0YWxfYmluZGluZycsICctaW1hZScsICc8aW5maWxlLm1hZT4nLCAnLW9tYWUnLCAnPG91dGZpbGUubWFlPic=

> <r_lp_tautomer_probability>
1

> <r_epik_Ionization_Penalty>
0.00167575

> <r_epik_Ionization_Penalty_Charging>
0.000731299

> <r_epik_Ionization_Penalty_Neutral>
0.000944451

> <r_epik_State_Penalty>
-0

> <r_epik_Charging_Adjusted_Penalty>
0.000731299

> <i_epik_Tot_Q>
0

> <i_epik_Tot_abs_Q>
0

> <r_epik_Metal_State_Penalty>
0.260571

> <b_epik_Metal_Only>
0

> <s_lp_Force_Field>
OPLS_2005

> <r_lp_Energy>
22.9752

> <b_lp_Chiralities_Consistent>
1

> <s_lp_Variant>
AV-unprocessed.smi:306-1

> <Gold.Version>
5.8.1

> <Gold.Id.Protein>
6NUR|6NUR_protein|mol2

> <Gold.PLP.Fitness>
50.7991

> <Gold.PLP.PLP>
-42.0804

> <Gold.PLP.part.hbond>
-3.8200

> <Gold.PLP.part.metal>
0.0000

> <Gold.PLP.part.buried>
-3.5121

> <Gold.PLP.part.nonpolar>
-39.4611

> <Gold.PLP.part.repulsive>
4.2992

> <Gold.PLP.ligand.clash>
0.0000

> <Gold.PLP.ligand.torsion>
0.4725

> <Gold.PLP.Chemscore.Hbond>
2.9750

> <Gold.PLP.Chemscore.CHOScore>
0.0000

> <Gold.PLP.Chemscore.Metal>
0.0000

> <Gold.Chemscore.Hbonds>
donor molecule, donor type, donor heavy atom, donor atom, acceptor molecule, acceptor atom, score
      L1  H    15    26       P1  7948  1.00
      P1  H 10752 10763       L1    14  0.96
      P1  H 10752 10764       L1    23  0.70

> <Gold.PLP.Chemscore.Internal.Correction>
0.7388

> <Gold.Rescore>
     Score         DG    S(hbond)    S(metal)    S(lipo)     H(rot)  DE(clash)    DE(int)     intcor
     18.77     -21.22       2.85        0.00      93.67       1.85       0.22       2.23       ----

> <Gold.Chemscore.Fitness>
18.7706

> <Gold.Chemscore.DG>
-21.2163

> <Gold.Chemscore.ZeroCoef>
-5.4800

> <Gold.Chemscore.Hbond>
2.8465

> <Gold.Chemscore.Metal>
0.0000

> <Gold.Chemscore.Lipo>
93.6741

> <Gold.Chemscore.Internal_Hbond>
0.0000

> <Gold.Chemscore.DEClash>
0.2197

> <Gold.Chemscore.DEInternal>
2.2260

> <Gold.Chemscore.Rot>
1.8480

> <Gold.Chemscore.Internal.Correction>
   9.000000E+99

> <Gold.Chemscore.Hbonds>
donor molecule, donor type, donor heavy atom, donor atom, acceptor molecule, acceptor atom, score
      L1  H    15    26       P1  7948  0.70
      P1  H 10752 10763       L1    14  0.90
      P1  H 10752 10764       L1    23  0.49

> <Gold.Chemscore.Hbond.Weighted>
-9.5072

> <Gold.Chemscore.Metal.Weighted>
-0.0000

> <Gold.Chemscore.Lipo.Weighted>
-10.9599

> <Gold.Chemscore.Internal_Hbond.Weighted>
0.0000

> <Gold.Chemscore.DEClash.Weighted>
0.2197

> <Gold.Chemscore.DEInternal.Weighted>
2.2260

> <Gold.Chemscore.Rot.Weighted>
4.7308

> <Gold.Chemscore.Internal.Correction.Weighted>
   9.000000E+99

> <Gold.Protein.RotatedTorsions>
[ 6907 6896 6895 6894 ] final   72.61 input  -60.11 | X-H torsion
[ 7974 7965 7964 7962 ] final  112.98 input  175.53 | X-H torsion
[ 8008 7997 7996 7995 ] final -145.25 input   59.86 | X-H torsion
[ 10167 10162 10161 10158 ] final  -32.14 input  -65.29 | X-H torsion
[ 10718 10713 10712 10709 ] final  137.85 input   66.30 | X-H torsion
[ 10763 10752 10751 10750 ] final   31.64 input  -60.55 | X-H torsion
[ 11005 11000 10999 10996 ] final  179.02 input  -57.11 | X-H torsion

> <Gold.Protein.ActiveResidues>
 VAL166  LYS551  ARG553  GLY616  TRP617  ASP618  TYR619  PRO620  LYS621  CYS622 
 ASP623  PHE694  ASN695  SER759  ASP760  ASP761  ALA762  ILE779  LEU786  VAL792 
 PHE793  MET794  SER795  GLU796  ALA797  LYS798  CYS799  TRP800  GLU811  SER814 

> <Gold.Protein.RotatedAtoms>
  152.4877  134.4546  159.9585 H   0  0  0  0  0  0  0  0  0  0  0  0  # atno 6907 bound_to 6896
  151.4539  133.3604  159.2807 H   0  0  0  0  0  0  0  0  0  0  0  0  # atno 6908 bound_to 6896
  150.9003  134.8439  159.7415 H   0  0  0  0  0  0  0  0  0  0  0  0  # atno 6909 bound_to 6896
  145.2227  139.2855  143.4210 H   0  0  0  0  0  0  0  0  0  0  0  0  # atno 7974 bound_to 7965
  155.5401  140.0607  157.2871 H   0  0  0  0  0  0  0  0  0  0  0  0  # atno 8008 bound_to 7997
  154.4455  140.1920  156.0626 H   0  0  0  0  0  0  0  0  0  0  0  0  # atno 8009 bound_to 7997
  156.0590  140.3275  155.7443 H   0  0  0  0  0  0  0  0  0  0  0  0  # atno 8010 bound_to 7997
  140.7226  143.3717  151.1766 H   0  0  0  0  0  0  0  0  0  0  0  0  # atno 10167 bound_to 10162
  157.4316  131.1049  151.0244 H   0  0  0  0  0  0  0  0  0  0  0  0  # atno 10718 bound_to 10713
  153.0305  135.6434  154.1230 H   0  0  0  0  0  0  0  0  0  0  0  0  # atno 10763 bound_to 10752
  154.0953  135.2863  155.3264 H   0  0  0  0  0  0  0  0  0  0  0  0  # atno 10764 bound_to 10752
  154.6436  135.5451  153.7882 H   0  0  0  0  0  0  0  0  0  0  0  0  # atno 10765 bound_to 10752
  140.4016  134.6772  157.4565 H   0  0  0  0  0  0  0  0  0  0  0  0  # atno 11005 bound_to 11000
  146.3372  140.2537  142.8599 LP  0  0  0  0  0  0  0  0  0  0  0  0  # atno 17320 bound_to 7965
  144.9750  140.8405  143.5432 LP  0  0  0  0  0  0  0  0  0  0  0  0  # atno 17321 bound_to 7965
  139.7289  143.9104  152.3012 LP  0  0  0  0  0  0  0  0  0  0  0  0  # atno 17342 bound_to 10162
  139.8886  144.6978  150.8796 LP  0  0  0  0  0  0  0  0  0  0  0  0  # atno 17343 bound_to 10162
  157.1138  130.6033  149.5488 LP  0  0  0  0  0  0  0  0  0  0  0  0  # atno 17370 bound_to 10713
  155.9915  130.4970  150.7303 LP  0  0  0  0  0  0  0  0  0  0  0  0  # atno 17371 bound_to 10713
  140.0332  134.6375  155.9078 LP  0  0  0  0  0  0  0  0  0  0  0  0  # atno 17394 bound_to 11000
  141.1854  133.6555  156.5199 LP  0  0  0  0  0  0  0  0  0  0  0  0  # atno 17395 bound_to 11000

$$$$
