#       Name:                AV-unprocessed.smi:1251
#       Creating user name   scv26
#       Creation time:       Fri Mar 27 04:37:20 2020


#       File generated by GOLD software.
#

@<TRIPOS>MOLECULE
AV-unprocessed.smi:1251
    45    46     1
SMALL
NO_CHARGES


@<TRIPOS>ATOM
      1 ****        -7.3606   1.3244   0.7808 C.3            1 S1                 0.0000
      2 ****        -5.9646   0.9848   0.2471 C.3            1 S1                 0.0000
      3 ****        -5.1958   2.2270  -0.2245 C.3            1 S1                 0.0000
      4 ****        -3.8327   1.8975  -0.7345 C.2            1 S1                 0.0000
      5 ****        -3.5953   1.5626  -2.0053 N.2            1 S1                 0.0000
      6 ****        -2.2562   1.2775  -2.2289 N.2            1 S1                 0.0000
      7 ****        -1.5057   1.3767  -1.1226 C.2            1 S1                 0.0000
      8 ****        -0.1826   1.1454  -1.1254 N.pl3          1 S1                -1.0000
      9 ****         0.2946  -0.0581  -0.7339 C.2            1 S1                 0.0000
     10 ****        -0.3763  -1.0252  -0.3657 O.2            1 S1                 0.0000
     11 ****         1.6320  -0.1445  -0.7727 N.am           1 S1                 0.0000
     12 ****         2.4363  -1.3073  -0.4032 C.3            1 S1                 0.0000
     13 ****         2.5622  -2.2509  -1.6122 C.3            1 S1                 0.0000
     14 ****         3.8072  -0.8248   0.1078 C.3            1 S1                 0.0000
     15 ****         4.7382  -1.9329   0.5993 C.3            1 S1                 0.0000
     16 ****         5.6829  -1.2037   1.5397 C.3            1 S1                 0.0000
     17 ****         4.9305   0.0810   1.8986 C.3            1 S1                 0.0000
     18 ****         3.6562  -0.0389   1.2807 O.3            1 S1                 0.0000
     19 ****        -2.4197   1.8571   0.3063 S.3            1 S1                 0.0000
     20 ****        -7.8841   0.4227   1.0993 H              1 S1                 0.0000
     21 ****        -7.9671   1.8094   0.0155 H              1 S1                 0.0000
     22 ****        -7.3016   1.9956   1.6380 H              1 S1                 0.0000
     23 ****        -5.3956   0.4772   1.0268 H              1 S1                 0.0000
     24 ****        -6.0575   0.2774  -0.5780 H              1 S1                 0.0000
     25 ****        -5.7514   2.7363  -1.0130 H              1 S1                 0.0000
     26 ****        -5.0956   2.9388   0.5953 H              1 S1                 0.0000
     27 ****         2.1362   0.6753  -1.0769 H              1 S1                 0.0000
     28 ****         1.9412  -1.8443   0.4078 H              1 S1                 0.0000
     29 ****         3.1151  -3.1543  -1.3558 H              1 S1                 0.0000
     30 ****         3.0793  -1.7663  -2.4410 H              1 S1                 0.0000
     31 ****         1.5815  -2.5644  -1.9713 H              1 S1                 0.0000
     32 ****         4.3118  -0.2283  -0.6551 H              1 S1                 0.0000
     33 ****         4.1718  -2.6802   1.1569 H              1 S1                 0.0000
     34 ****         5.2598  -2.4400  -0.2128 H              1 S1                 0.0000
     35 ****         5.9126  -1.8057   2.4193 H              1 S1                 0.0000
     36 ****         6.6226  -0.9644   1.0406 H              1 S1                 0.0000
     37 ****         4.8244   0.2151   2.9752 H              1 S1                 0.0000
     38 ****         5.4467   0.9534   1.4961 H              1 S1                 0.0000
     39 ****        -4.3006   1.5220  -2.7131 LP             1 S1                 0.0000
     40 ****        -1.8885   1.0240  -3.1236 LP             1 S1                 0.0000
     41 ****         0.4497   1.8631  -1.4169 LP             1 S1                 0.0000
     42 ****        -1.3738  -0.9601  -0.3374 LP             1 S1                 0.0000
     43 ****         0.0772  -1.8745  -0.0953 LP             1 S1                 0.0000
     44 ****         3.0163  -0.4841   1.9071 LP             1 S1                 0.0000
     45 ****         3.3099   0.8676   1.0392 LP             1 S1                 0.0000
@<TRIPOS>BOND
    1    1    2 1     
    2    1   20 1     
    3    1   21 1     
    4    1   22 1     
    5    2    3 1     
    6    2   23 1     
    7    2   24 1     
    8    3    4 1     
    9    3   25 1     
   10    3   26 1     
   11    4   19 1     
   12    4    5 2     
   13    5    6 1     
   14    6    7 2     
   15    7    8 1     
   16    7   19 1     
   17    8    9 1     
   18    9   10 2     
   19    9   11 am    
   20   11   12 1     
   21   11   27 1     
   22   12   13 1     
   23   12   14 1     
   24   12   28 1     
   25   13   29 1     
   26   13   30 1     
   27   13   31 1     
   28   14   18 1     
   29   14   15 1     
   30   14   32 1     
   31   15   16 1     
   32   15   33 1     
   33   15   34 1     
   34   16   17 1     
   35   16   35 1     
   36   16   36 1     
   37   17   18 1     
   38   17   37 1     
   39   17   38 1     
   40    5   39 1     
   41    6   40 1     
   42    8   41 1     
   43   10   42 1     
   44   10   43 1     
   45   18   44 1     
   46   18   45 1     
@<TRIPOS>SUBSTRUCTURE
      1 S1             1
@<TRIPOS>SET
LONE_PAIRS      STATIC     ATOMS    <user>   **** ""
7 39 40 41 42 43 44 45
DONOR_HYDROGENS      STATIC     ATOMS    <user>   **** ""
1 27
ATOM$BLUE        STATIC     ATOMS    COLORGROUP SYSTEM
7 39 40 41 42 43 44 45
ATOM$RED        STATIC     ATOMS    COLORGROUP SYSTEM
1 27
