AV-unprocessed.smi:37|AV-procd|sdf|304|dock7
  -GOLD-   2262016113D 1   1.00000     0.00000
 Structure written by MMmdl.
 44 45  0  0  0  0  0  0  0  0  1 V2000
  147.4459  134.8767  162.8130 C   0  0  0  0  0  0  0  0  0  0  0  0
  147.4504  134.8878  161.2782 C   0  0  0  0  0  0  0  0  0  0  0  0
  147.8900  136.2356  160.7107 C   0  0  0  0  0  0  0  0  0  0  0  0
  147.6444  137.2907  161.2953 O   0  0  0  0  0  0  0  0  0  0  0  0
  148.5357  136.1152  159.5423 O   0  0  0  0  0  0  0  0  0  0  0  0
  149.1563  137.2465  158.9549 C   0  0  0  0  0  0  0  0  0  0  0  0
  150.3403  136.8168  158.0715 C   0  0  1  0  0  0  0  0  0  0  0  0
  150.1744  135.4626  157.6590 O   0  0  0  0  0  0  0  0  0  0  0  0
  150.8482  135.3048  156.4500 C   0  0  1  0  0  0  0  0  0  0  0  0
  150.4573  133.9863  155.8044 N   0  0  0  0  0  0  0  0  0  0  0  0
  149.8275  133.9343  154.5649 C   0  0  0  0  0  0  0  0  0  0  0  0
  149.5172  132.7756  153.9367 C   0  0  0  0  0  0  0  0  0  0  0  0
  148.9056  132.8126  152.7407 F   0  0  0  0  0  0  0  0  0  0  0  0
  149.8658  131.4902  154.5315 C   0  0  0  0  0  0  0  0  0  0  0  0
  149.6138  130.3882  154.0484 O   0  0  0  0  0  0  0  0  0  0  0  0
  150.5583  131.5868  155.7408 N   0  0  0  0  0  0  0  0  0  0  0  0
  150.8960  132.7752  156.3914 C   0  0  0  0  0  0  0  0  0  0  0  0
  151.5580  132.7304  157.4273 O   0  0  0  0  0  0  0  0  0  0  0  0
  150.4196  136.5633  155.6804 C   0  0  1  0  0  0  0  0  0  0  0  0
  148.4965  136.4675  155.1218 Br  0  0  0  0  0  0  0  0  0  0  0  0
  150.5900  137.6169  156.7743 C   0  0  1  0  0  0  0  0  0  0  0  0
  149.7422  138.7497  156.6103 O   0  0  0  0  0  0  0  0  0  0  0  0
  149.8977  139.5703  155.5577 C   0  0  0  0  0  0  0  0  0  0  0  0
  150.7563  139.4582  154.6806 O   0  0  0  0  0  0  0  0  0  0  0  0
  148.8574  140.6921  155.5513 C   0  0  0  0  0  0  0  0  0  0  0  0
  148.0813  140.8019  154.2304 C   0  0  0  0  0  0  0  0  0  0  0  0
  150.8528  130.7235  156.1739 H   0  0  0  0  0  0  0  0  0  0  0  0
  147.0941  133.9156  163.1879 H   0  0  0  0  0  0  0  0  0  0  0  0
  146.7873  135.6486  163.2124 H   0  0  0  0  0  0  0  0  0  0  0  0
  148.4446  135.0425  163.2190 H   0  0  0  0  0  0  0  0  0  0  0  0
  148.1187  134.1130  160.9014 H   0  0  0  0  0  0  0  0  0  0  0  0
  146.4532  134.6560  160.9039 H   0  0  0  0  0  0  0  0  0  0  0  0
  148.4310  137.7984  158.3551 H   0  0  0  0  0  0  0  0  0  0  0  0
  149.5029  137.9175  159.7417 H   0  0  0  0  0  0  0  0  0  0  0  0
  151.2475  136.8651  158.6753 H   0  0  0  0  0  0  0  0  0  0  0  0
  151.9274  135.2371  156.6042 H   0  0  0  0  0  0  0  0  0  0  0  0
  149.5739  134.8486  154.0510 H   0  0  0  0  0  0  0  0  0  0  0  0
  151.0419  136.7450  154.8042 H   0  0  0  0  0  0  0  0  0  0  0  0
  151.6327  137.9389  156.7938 H   0  0  0  0  0  0  0  0  0  0  0  0
  148.1613  140.5204  156.3725 H   0  0  0  0  0  0  0  0  0  0  0  0
  149.3633  141.6351  155.7600 H   0  0  0  0  0  0  0  0  0  0  0  0
  147.3498  141.6084  154.2819 H   0  0  0  0  0  0  0  0  0  0  0  0
  147.5412  139.8807  154.0082 H   0  0  0  0  0  0  0  0  0  0  0  0
  148.7475  141.0146  153.3936 H   0  0  0  0  0  0  0  0  0  0  0  0
  1  2  1  0  0  0  0
  1 28  1  0  0  0  0
  1 29  1  0  0  0  0
  1 30  1  0  0  0  0
  2  3  1  0  0  0  0
  2 31  1  0  0  0  0
  2 32  1  0  0  0  0
  3  4  2  0  0  0  0
  3  5  1  0  0  0  0
  5  6  1  0  0  0  0
  6  7  1  0  0  0  0
  6 33  1  0  0  0  0
  6 34  1  0  0  0  0
  7 21  1  0  0  0  0
  7  8  1  0  0  0  0
  7 35  1  0  0  0  0
  8  9  1  0  0  0  0
  9 10  1  0  0  0  0
  9 19  1  0  0  0  0
  9 36  1  0  0  0  0
 10 17  1  0  0  0  0
 10 11  1  0  0  0  0
 11 12  2  0  0  0  0
 11 37  1  0  0  0  0
 12 13  1  0  0  0  0
 12 14  1  0  0  0  0
 14 15  2  0  0  0  0
 14 16  1  0  0  0  0
 16 27  1  0  0  0  0
 16 17  1  0  0  0  0
 17 18  2  0  0  0  0
 19 20  1  0  0  0  0
 19 21  1  0  0  0  0
 19 38  1  0  0  0  0
 21 22  1  0  0  0  0
 21 39  1  0  0  0  0
 22 23  1  0  0  0  0
 23 24  2  0  0  0  0
 23 25  1  0  0  0  0
 25 26  1  0  0  0  0
 25 40  1  0  0  0  0
 25 41  1  0  0  0  0
 26 42  1  0  0  0  0
 26 43  1  0  0  0  0
 26 44  1  0  0  0  0
M  END
> <s_m_source_file>
AV-unprocessed.smi

> <i_m_source_file_index>
37

> <i_lp_mmshare_version>
43012

> <i_f3d_flags>
0

> <s_epik_input>
W0NIM11bQ0gyXUMoPU8pT1tDSDJdW0NAQEhdMU9bQ0BASF0objJbY0hdYyhGKWMoPU8pW25IXWMyPU8pW0NAQEhdKEJyKVtDQEhdMU9DKD1PKVtDSDJdW0NIM10=

> <s_epik_cmdline>
J2VwaWtfcHl0aG9uJywgJy1waCcsICc3LjAnLCAnLXRuJywgJzgnLCAnLW1hJywgJzIwMCcsICctbWV0YWxfYmluZGluZycsICctaW1hZScsICc8aW5maWxlLm1hZT4nLCAnLW9tYWUnLCAnPG91dGZpbGUubWFlPic=

> <r_lp_tautomer_probability>
0.999537

> <r_epik_Ionization_Penalty>
0.104106

> <r_epik_Ionization_Penalty_Charging>
0.104106

> <r_epik_Ionization_Penalty_Neutral>
3.94675e-16

> <r_epik_State_Penalty>
0.0940182

> <r_epik_Charging_Adjusted_Penalty>
0.198124

> <i_epik_Tot_Q>
0

> <i_epik_Tot_abs_Q>
0

> <r_epik_Metal_State_Penalty>
3.05314

> <b_epik_Metal_Only>
0

> <s_epik_Chemistry_Notes>
This compound has an ester and may undergo hydrolysis at high or low pH. This compound contains an acetal/aminal-like group ( X-CH(R)-Y where X, Y are N, S, or O) that may be acid/base labile, releasing an aldehyde.

> <s_lp_Force_Field>
OPLS_2005

> <r_lp_Energy>
30.4871

> <b_lp_Chiralities_Consistent>
1

> <s_lp_Variant>
AV-unprocessed.smi:37-2

> <Gold.Version>
5.8.1

> <Gold.Id.Protein>
6NUR|6NUR_protein|mol2

> <Gold.PLP.Fitness>
48.9981

> <Gold.PLP.PLP>
-39.8787

> <Gold.PLP.part.hbond>
-4.9979

> <Gold.PLP.part.metal>
0.0000

> <Gold.PLP.part.buried>
-5.6173

> <Gold.PLP.part.nonpolar>
-30.3826

> <Gold.PLP.part.repulsive>
0.1795

> <Gold.PLP.ligand.clash>
2.7823

> <Gold.PLP.ligand.torsion>
1.2254

> <Gold.PLP.Chemscore.Hbond>
3.7803

> <Gold.PLP.Chemscore.CHOScore>
0.9308

> <Gold.PLP.Chemscore.Metal>
0.0000

> <Gold.Chemscore.Hbonds>
donor molecule, donor type, donor heavy atom, donor atom, acceptor molecule, acceptor atom, score
      P1  H  6896  6908       L1    18  1.00
      P1  H  6896  6909       L1     8  0.15
      P1  H  6931  6943       L1     4  0.90
      P1  H  6934  6947       L1     4  0.83
      P1  H  7989  7998       L1    24  0.99
      L1  C    11    37       P1  7948  0.57

> <Gold.PLP.Chemscore.Internal.Correction>
0.2190

> <Gold.Rescore>
     Score         DG    S(hbond)    S(metal)    S(lipo)     H(rot)  DE(clash)    DE(int)     intcor
     13.33     -15.80       3.67        0.00      56.41       3.33       0.05       2.41       ----

> <Gold.Chemscore.Fitness>
13.3298

> <Gold.Chemscore.DG>
-15.7955

> <Gold.Chemscore.ZeroCoef>
-5.4800

> <Gold.Chemscore.Hbond>
3.6652

> <Gold.Chemscore.Metal>
0.0000

> <Gold.Chemscore.Lipo>
56.4053

> <Gold.Chemscore.Internal_Hbond>
0.0000

> <Gold.Chemscore.DEClash>
0.0513

> <Gold.Chemscore.DEInternal>
2.4143

> <Gold.Chemscore.Rot>
3.3303

> <Gold.Chemscore.Internal.Correction>
   9.000000E+99

> <Gold.Chemscore.Hbonds>
donor molecule, donor type, donor heavy atom, donor atom, acceptor molecule, acceptor atom, score
      P1  H  6896  6908       L1    18  0.94
      P1  H  6896  6909       L1     8  0.01
      P1  H  6931  6943       L1     4  0.84
      P1  H  6934  6947       L1     4  0.83
      P1  H  7989  7998       L1    24  0.92

> <Gold.Chemscore.Hbond.Weighted>
-12.2417

> <Gold.Chemscore.Metal.Weighted>
-0.0000

> <Gold.Chemscore.Lipo.Weighted>
-6.5994

> <Gold.Chemscore.Internal_Hbond.Weighted>
0.0000

> <Gold.Chemscore.DEClash.Weighted>
0.0513

> <Gold.Chemscore.DEInternal.Weighted>
2.4143

> <Gold.Chemscore.Rot.Weighted>
8.5256

> <Gold.Chemscore.Internal.Correction.Weighted>
   9.000000E+99

> <Gold.Protein.RotatedTorsions>
[ 6907 6896 6895 6894 ] final   69.22 input  -60.11 | X-H torsion
[ 7974 7965 7964 7962 ] final   88.34 input  175.53 | X-H torsion
[ 8008 7997 7996 7995 ] final   92.25 input   59.86 | X-H torsion
[ 10167 10162 10161 10158 ] final  115.12 input  -65.29 | X-H torsion
[ 10718 10713 10712 10709 ] final -118.92 input   66.30 | X-H torsion
[ 10763 10752 10751 10750 ] final  154.96 input  -60.55 | X-H torsion
[ 11005 11000 10999 10996 ] final -112.39 input  -57.11 | X-H torsion

> <Gold.Protein.ActiveResidues>
 VAL166  LYS551  ARG553  GLY616  TRP617  ASP618  TYR619  PRO620  LYS621  CYS622 
 ASP623  PHE694  ASN695  SER759  ASP760  ASP761  ALA762  ILE779  LEU786  VAL792 
 PHE793  MET794  SER795  GLU796  ALA797  LYS798  CYS799  TRP800  GLU811  SER814 

> <Gold.Protein.RotatedAtoms>
  152.4672  134.5048  159.9735 H   0  0  0  0  0  0  0  0  0  0  0  0  # atno 6907 bound_to 6896
  151.5083  133.3484  159.2888 H   0  0  0  0  0  0  0  0  0  0  0  0  # atno 6908 bound_to 6896
  150.8662  134.8054  159.7182 H   0  0  0  0  0  0  0  0  0  0  0  0  # atno 6909 bound_to 6896
  145.5470  139.2292  143.2534 H   0  0  0  0  0  0  0  0  0  0  0  0  # atno 7974 bound_to 7965
  156.0332  140.3327  155.7163 H   0  0  0  0  0  0  0  0  0  0  0  0  # atno 8008 bound_to 7997
  155.5854  140.0641  157.2790 H   0  0  0  0  0  0  0  0  0  0  0  0  # atno 8009 bound_to 7997
  154.4362  140.1836  156.1007 H   0  0  0  0  0  0  0  0  0  0  0  0  # atno 8010 bound_to 7997
  139.6340  144.7118  151.2373 H   0  0  0  0  0  0  0  0  0  0  0  0  # atno 10167 bound_to 10162
  156.1142  130.6273  150.9351 H   0  0  0  0  0  0  0  0  0  0  0  0  # atno 10718 bound_to 10713
  154.1606  135.2810  155.3109 H   0  0  0  0  0  0  0  0  0  0  0  0  # atno 10763 bound_to 10752
  154.6149  135.5486  153.7516 H   0  0  0  0  0  0  0  0  0  0  0  0  # atno 10764 bound_to 10752
  153.0193  135.6424  154.1748 H   0  0  0  0  0  0  0  0  0  0  0  0  # atno 10765 bound_to 10752
  141.0678  133.9430  157.2545 H   0  0  0  0  0  0  0  0  0  0  0  0  # atno 11005 bound_to 11000
  146.1942  140.6292  142.9131 LP  0  0  0  0  0  0  0  0  0  0  0  0  # atno 17320 bound_to 7965
  144.7548  140.5280  143.6776 LP  0  0  0  0  0  0  0  0  0  0  0  0  # atno 17321 bound_to 7965
  140.7455  143.6429  150.8318 LP  0  0  0  0  0  0  0  0  0  0  0  0  # atno 17342 bound_to 10162
  140.0058  143.5695  152.2858 LP  0  0  0  0  0  0  0  0  0  0  0  0  # atno 17343 bound_to 10162
  157.6325  131.0919  150.8414 LP  0  0  0  0  0  0  0  0  0  0  0  0  # atno 17370 bound_to 10713
  156.8520  130.5083  149.5311 LP  0  0  0  0  0  0  0  0  0  0  0  0  # atno 17371 bound_to 10713
  139.9493  135.0178  156.8947 LP  0  0  0  0  0  0  0  0  0  0  0  0  # atno 17394 bound_to 11000
  140.5737  134.0418  155.7439 LP  0  0  0  0  0  0  0  0  0  0  0  0  # atno 17395 bound_to 11000

$$$$
