AV-unprocessed.smi:678|AV-procd|sdf|3315|dock3
  -GOLD-   22720 0283D 1   1.00000     0.00000
 Structure written by MMmdl.
 51 52  0  0  0  0  0  0  0  0  2 V2000
  153.3623  141.4142  160.8676 C   0  0  0  0  0  0  0  0  0  0  0  0
  152.7776  142.2536  159.7452 C   0  0  0  0  0  0  0  0  0  0  0  0
  153.0704  143.5663  159.6196 C   0  0  0  0  0  0  0  0  0  0  0  0
  152.5068  144.3575  158.5528 C   0  0  0  0  0  0  0  0  0  0  0  0
  151.6816  143.7550  157.6848 C   0  0  0  0  0  0  0  0  0  0  0  0
  151.3619  142.3886  157.7915 N   0  0  0  0  0  0  0  0  0  0  0  0
  150.4419  141.8350  156.7827 C   0  0  0  0  0  0  0  0  0  0  0  0
  149.0854  141.4262  157.3730 C   0  0  0  0  0  0  0  0  0  0  0  0
  148.9540  140.3481  157.9538 O   0  0  0  0  0  0  0  0  0  0  0  0
  148.0834  142.3040  157.2154 N   0  0  0  0  0  0  0  0  0  0  0  0
  146.7002  142.0798  157.6207 C   0  0  0  0  0  0  0  0  0  0  0  0
  146.1042  140.8497  156.9122 C   0  0  2  0  0  0  0  0  0  0  0  0
  145.7235  141.1570  155.4466 C   0  0  0  0  0  0  0  0  0  0  0  0
  145.0554  139.9997  154.7953 N   0  3  1  0  0  0  0  0  0  0  0  0
  145.9717  138.9095  154.3622 C   0  0  0  0  0  0  0  0  0  0  0  0
  147.0521  139.3880  153.3681 C   0  0  0  0  0  0  0  0  0  0  0  0
  146.8095  138.8408  151.9512 C   0  0  0  0  0  0  0  0  0  0  0  0
  148.4520  138.9937  153.8616 C   0  0  0  0  0  0  0  0  0  0  0  0
  143.9180  139.5257  155.6208 C   0  0  0  0  0  0  0  0  0  0  0  0
  144.3578  139.2573  157.0704 C   0  0  0  0  0  0  0  0  0  0  0  0
  144.9307  140.4409  157.6088 O   0  0  0  0  0  0  0  0  0  0  0  0
  151.8712  141.5953  158.7858 C   0  0  0  0  0  0  0  0  0  0  0  0
  151.5801  140.3998  158.8673 O   0  0  0  0  0  0  0  0  0  0  0  0
  154.0127  142.0075  161.5111 H   0  0  0  0  0  0  0  0  0  0  0  0
  153.9507  140.5907  160.4617 H   0  0  0  0  0  0  0  0  0  0  0  0
  152.5670  140.9971  161.4863 H   0  0  0  0  0  0  0  0  0  0  0  0
  153.7350  144.0400  160.3274 H   0  0  0  0  0  0  0  0  0  0  0  0
  152.7398  145.4081  158.4588 H   0  0  0  0  0  0  0  0  0  0  0  0
  151.2131  144.2780  156.8638 H   0  0  0  0  0  0  0  0  0  0  0  0
  150.2594  142.5536  155.9827 H   0  0  0  0  0  0  0  0  0  0  0  0
  150.9076  140.9756  156.2959 H   0  0  0  0  0  0  0  0  0  0  0  0
  148.2852  143.1720  156.7400 H   0  0  0  0  0  0  0  0  0  0  0  0
  146.6200  141.9814  158.7047 H   0  0  0  0  0  0  0  0  0  0  0  0
  146.1324  142.9704  157.3500 H   0  0  0  0  0  0  0  0  0  0  0  0
  146.8414  140.0461  156.9457 H   0  0  0  0  0  0  0  0  0  0  0  0
  145.0305  141.9992  155.4245 H   0  0  0  0  0  0  0  0  0  0  0  0
  146.5988  141.4730  154.8807 H   0  0  0  0  0  0  0  0  0  0  0  0
  146.4349  138.4438  155.2319 H   0  0  0  0  0  0  0  0  0  0  0  0
  145.3935  138.1217  153.8771 H   0  0  0  0  0  0  0  0  0  0  0  0
  147.0350  140.4762  153.3138 H   0  0  0  0  0  0  0  0  0  0  0  0
  146.8176  137.7503  151.9401 H   0  0  0  0  0  0  0  0  0  0  0  0
  147.5813  139.1842  151.2615 H   0  0  0  0  0  0  0  0  0  0  0  0
  145.8500  139.1712  151.5530 H   0  0  0  0  0  0  0  0  0  0  0  0
  148.5564  137.9107  153.9371 H   0  0  0  0  0  0  0  0  0  0  0  0
  148.6569  139.4173  154.8453 H   0  0  0  0  0  0  0  0  0  0  0  0
  149.2252  139.3553  153.1831 H   0  0  0  0  0  0  0  0  0  0  0  0
  143.1474  140.2976  155.6172 H   0  0  0  0  0  0  0  0  0  0  0  0
  143.4622  138.6381  155.1806 H   0  0  0  0  0  0  0  0  0  0  0  0
  143.4968  138.9772  157.6776 H   0  0  0  0  0  0  0  0  0  0  0  0
  145.0678  138.4308  157.1267 H   0  0  0  0  0  0  0  0  0  0  0  0
  144.6445  140.3474  153.9404 H   0  0  0  0  0  0  0  0  0  0  0  0
  1  2  1  0  0  0  0
  1 24  1  0  0  0  0
  1 25  1  0  0  0  0
  1 26  1  0  0  0  0
  2 22  1  0  0  0  0
  2  3  2  0  0  0  0
  3  4  1  0  0  0  0
  3 27  1  0  0  0  0
  4  5  2  0  0  0  0
  4 28  1  0  0  0  0
  5  6  1  0  0  0  0
  5 29  1  0  0  0  0
  6  7  1  0  0  0  0
  6 22  1  0  0  0  0
  7  8  1  0  0  0  0
  7 30  1  0  0  0  0
  7 31  1  0  0  0  0
  8  9  2  0  0  0  0
  8 10  1  0  0  0  0
 10 11  1  0  0  0  0
 10 32  1  0  0  0  0
 11 12  1  0  0  0  0
 11 33  1  0  0  0  0
 11 34  1  0  0  0  0
 12 21  1  0  0  0  0
 12 13  1  0  0  0  0
 12 35  1  0  0  0  0
 13 14  1  0  0  0  0
 13 36  1  0  0  0  0
 13 37  1  0  0  0  0
 14 15  1  0  0  0  0
 14 19  1  0  0  0  0
 14 51  1  0  0  0  0
 15 16  1  0  0  0  0
 15 38  1  0  0  0  0
 15 39  1  0  0  0  0
 16 17  1  0  0  0  0
 16 18  1  0  0  0  0
 16 40  1  0  0  0  0
 17 41  1  0  0  0  0
 17 42  1  0  0  0  0
 17 43  1  0  0  0  0
 18 44  1  0  0  0  0
 18 45  1  0  0  0  0
 18 46  1  0  0  0  0
 19 20  1  0  0  0  0
 19 47  1  0  0  0  0
 19 48  1  0  0  0  0
 20 21  1  0  0  0  0
 20 49  1  0  0  0  0
 20 50  1  0  0  0  0
 22 23  2  0  0  0  0
M  CHG  1  14   1
M  END
> <s_m_source_file>
AV-unprocessed.smi

> <i_m_source_file_index>
678

> <i_lp_mmshare_version>
43012

> <i_f3d_flags>
0

> <s_epik_input>
W0NIM11jMVtjSF1bY0hdW2NIXW4oYzE9TylbQ0gyXUMoPU8pW05IXVtDSDJdW0NAQEhdMltDSDJdTihbQ0gyXVtDSDJdTzIpW0NIMl1bQ0hdKFtDSDNdKVtDSDNd

> <s_epik_cmdline>
J2VwaWtfcHl0aG9uJywgJy1waCcsICc3LjAnLCAnLXRuJywgJzgnLCAnLW1hJywgJzIwMCcsICctbWV0YWxfYmluZGluZycsICctaW1hZScsICc8aW5maWxlLm1hZT4nLCAnLW9tYWUnLCAnPG91dGZpbGUubWFlPic=

> <r_lp_tautomer_probability>
1

> <r_epik_Ionization_Penalty>
0.0975937

> <r_epik_Ionization_Penalty_Charging>
0.0975937

> <r_epik_Ionization_Penalty_Neutral>
6.27044e-08

> <r_epik_State_Penalty>
0.0877056

> <r_epik_Charging_Adjusted_Penalty>
0.185299

> <i_epik_Tot_Q>
1

> <i_epik_Tot_abs_Q>
1

> <r_epik_Metal_State_Penalty>
0.0877109

> <b_epik_Metal_Only>
0

> <s_lp_Force_Field>
OPLS_2005

> <r_lp_Energy>
29.877

> <b_lp_Chiralities_Consistent>
1

> <s_lp_Variant>
AV-unprocessed.smi:678-3

> <Gold.Version>
5.8.1

> <Gold.Id.Protein>
6NUR|6NUR_protein|mol2

> <Gold.PLP.Fitness>
51.4151

> <Gold.PLP.PLP>
-41.6990

> <Gold.PLP.part.hbond>
-2.0000

> <Gold.PLP.part.metal>
0.0000

> <Gold.PLP.part.buried>
-3.1021

> <Gold.PLP.part.nonpolar>
-36.7627

> <Gold.PLP.part.repulsive>
0.0336

> <Gold.PLP.ligand.clash>
0.0000

> <Gold.PLP.ligand.torsion>
1.2122

> <Gold.PLP.Chemscore.Hbond>
3.0000

> <Gold.PLP.Chemscore.CHOScore>
1.0000

> <Gold.PLP.Chemscore.Metal>
0.0000

> <Gold.Chemscore.Hbonds>
donor molecule, donor type, donor heavy atom, donor atom, acceptor molecule, acceptor atom, score
      L1  H    10    32       P1  8028  1.00
      L1  H    14    51       P1 10175  2.00
      L1  C     5    29       P1  8028  0.76

> <Gold.PLP.Chemscore.Internal.Correction>
0.1405

> <Gold.Rescore>
     Score         DG    S(hbond)    S(metal)    S(lipo)     H(rot)  DE(clash)    DE(int)     intcor
     16.01     -18.92       1.90        0.00     101.85       1.89       0.42       2.49       ----

> <Gold.Chemscore.Fitness>
16.0101

> <Gold.Chemscore.DG>
-18.9163

> <Gold.Chemscore.ZeroCoef>
-5.4800

> <Gold.Chemscore.Hbond>
1.9014

> <Gold.Chemscore.Metal>
0.0000

> <Gold.Chemscore.Lipo>
101.8518

> <Gold.Chemscore.Internal_Hbond>
0.0000

> <Gold.Chemscore.DEClash>
0.4171

> <Gold.Chemscore.DEInternal>
2.4891

> <Gold.Chemscore.Rot>
1.8871

> <Gold.Chemscore.Internal.Correction>
   9.000000E+99

> <Gold.Chemscore.Hbonds>
donor molecule, donor type, donor heavy atom, donor atom, acceptor molecule, acceptor atom, score
      L1  H    10    32       P1  8028  0.34
      L1  H    14    51       P1 10175  1.00

> <Gold.Chemscore.Hbond.Weighted>
-6.3506

> <Gold.Chemscore.Metal.Weighted>
-0.0000

> <Gold.Chemscore.Lipo.Weighted>
-11.9167

> <Gold.Chemscore.Internal_Hbond.Weighted>
0.0000

> <Gold.Chemscore.DEClash.Weighted>
0.4171

> <Gold.Chemscore.DEInternal.Weighted>
2.4891

> <Gold.Chemscore.Rot.Weighted>
4.8309

> <Gold.Chemscore.Internal.Correction.Weighted>
   9.000000E+99

> <Gold.Protein.RotatedTorsions>
[ 6907 6896 6895 6894 ] final  178.51 input  -60.11 | X-H torsion
[ 7974 7965 7964 7962 ] final -171.82 input  175.53 | X-H torsion
[ 8008 7997 7996 7995 ] final   -8.99 input   59.86 | X-H torsion
[ 10167 10162 10161 10158 ] final  143.50 input  -65.29 | X-H torsion
[ 10718 10713 10712 10709 ] final  -95.71 input   66.30 | X-H torsion
[ 10763 10752 10751 10750 ] final -172.65 input  -60.55 | X-H torsion
[ 11005 11000 10999 10996 ] final  126.23 input  -57.11 | X-H torsion

> <Gold.Protein.ActiveResidues>
 VAL166  LYS551  ARG553  GLY616  TRP617  ASP618  TYR619  PRO620  LYS621  CYS622 
 ASP623  PHE694  ASN695  SER759  ASP760  ASP761  ALA762  ILE779  LEU786  VAL792 
 PHE793  MET794  SER795  GLU796  ALA797  LYS798  CYS799  TRP800  GLU811  SER814 

> <Gold.Protein.RotatedAtoms>
  151.6867  133.3311  159.3232 H   0  0  0  0  0  0  0  0  0  0  0  0  # atno 6907 bound_to 6896
  150.7798  134.6734  159.6413 H   0  0  0  0  0  0  0  0  0  0  0  0  # atno 6908 bound_to 6896
  152.3852  134.6532  160.0180 H   0  0  0  0  0  0  0  0  0  0  0  0  # atno 6909 bound_to 6896
  144.7153  140.1865  143.6353 H   0  0  0  0  0  0  0  0  0  0  0  0  # atno 7974 bound_to 7965
  154.5689  140.2367  155.8221 H   0  0  0  0  0  0  0  0  0  0  0  0  # atno 8008 bound_to 7997
  156.2091  140.3031  155.9650 H   0  0  0  0  0  0  0  0  0  0  0  0  # atno 8009 bound_to 7997
  155.2749  140.0420  157.3001 H   0  0  0  0  0  0  0  0  0  0  0  0  # atno 8010 bound_to 7997
  139.4968  144.6036  151.6427 H   0  0  0  0  0  0  0  0  0  0  0  0  # atno 10167 bound_to 10162
  156.0048  130.5120  150.6117 H   0  0  0  0  0  0  0  0  0  0  0  0  # atno 10718 bound_to 10713
  154.6168  135.2870  155.0370 H   0  0  0  0  0  0  0  0  0  0  0  0  # atno 10763 bound_to 10752
  154.1580  135.6493  153.4983 H   0  0  0  0  0  0  0  0  0  0  0  0  # atno 10764 bound_to 10752
  153.0218  135.5371  154.6943 H   0  0  0  0  0  0  0  0  0  0  0  0  # atno 10765 bound_to 10752
  139.9446  134.9631  156.8676 H   0  0  0  0  0  0  0  0  0  0  0  0  # atno 11005 bound_to 11000
  145.8808  139.2322  143.1606 LP  0  0  0  0  0  0  0  0  0  0  0  0  # atno 17320 bound_to 7965
  145.9996  140.8531  143.0025 LP  0  0  0  0  0  0  0  0  0  0  0  0  # atno 17321 bound_to 7965
  140.5692  144.0137  150.6208 LP  0  0  0  0  0  0  0  0  0  0  0  0  # atno 17342 bound_to 10162
  140.3249  143.3113  152.0746 LP  0  0  0  0  0  0  0  0  0  0  0  0  # atno 17343 bound_to 10162
  157.3948  131.0801  151.1361 LP  0  0  0  0  0  0  0  0  0  0  0  0  # atno 17370 bound_to 10713
  157.2041  130.6408  149.5749 LP  0  0  0  0  0  0  0  0  0  0  0  0  # atno 17371 bound_to 10713
  140.5867  134.0300  155.7484 LP  0  0  0  0  0  0  0  0  0  0  0  0  # atno 17394 bound_to 11000
  141.1092  133.9644  157.2941 LP  0  0  0  0  0  0  0  0  0  0  0  0  # atno 17395 bound_to 11000

$$$$
