AV-unprocessed.smi:525|AV-procd|sdf|2810|dock1
  -GOLD-   2262023283D 1   1.00000     0.00000
 Structure written by MMmdl.
 44 46  0  0  0  0  0  0  0  0  2 V2000
  153.1341  138.7364  154.3562 C   0  0  0  0  0  0  0  0  0  0  0  0
  152.6753  139.6911  155.2964 O   0  0  0  0  0  0  0  0  0  0  0  0
  151.4466  139.3144  155.8968 C   0  0  0  0  0  0  0  0  0  0  0  0
  151.3926  139.8337  157.3402 C   0  0  0  0  0  0  0  0  0  0  0  0
  151.1820  141.2875  157.3926 N   0  0  0  0  0  0  0  0  0  0  0  0
  150.5311  142.1083  156.5239 C   0  0  0  0  0  0  0  0  0  0  0  0
  149.7253  141.6162  155.0349 S   0  0  0  0  0  0  0  0  0  0  0  0
  148.3064  140.6009  155.5597 C   0  0  1  0  0  0  0  0  0  0  0  0
  147.3060  141.3351  156.4702 C   0  0  0  0  0  0  0  0  0  0  0  0
  147.4115  142.6652  156.5354 N   0  0  0  0  0  0  0  0  0  0  0  0
  146.4410  140.7236  157.0950 O   0  0  0  0  0  0  0  0  0  0  0  0
  147.6049  140.0425  154.3265 C   0  0  0  0  0  0  0  0  0  0  0  0
  147.3777  138.6539  154.1892 C   0  0  0  0  0  0  0  0  0  0  0  0
  146.7257  138.1493  153.0475 C   0  0  0  0  0  0  0  0  0  0  0  0
  146.2958  139.0283  152.0354 C   0  0  0  0  0  0  0  0  0  0  0  0
  146.5176  140.4125  152.1661 C   0  0  0  0  0  0  0  0  0  0  0  0
  147.1684  140.9180  153.3081 C   0  0  0  0  0  0  0  0  0  0  0  0
  150.6326  143.3803  156.9983 N   0  3  0  0  0  0  0  0  0  0  0  0
  151.3670  143.3758  158.1851 C   0  0  0  0  0  0  0  0  0  0  0  0
  151.7369  144.4180  159.0295 C   0  0  0  0  0  0  0  0  0  0  0  0
  152.5029  144.0731  160.1623 C   0  0  0  0  0  0  0  0  0  0  0  0
  152.8740  142.7373  160.4186 C   0  0  0  0  0  0  0  0  0  0  0  0
  152.4914  141.6884  159.5569 C   0  0  0  0  0  0  0  0  0  0  0  0
  151.7295  142.0359  158.4415 C   0  0  0  0  0  0  0  0  0  0  0  0
  154.0818  139.0671  153.9314 H   0  0  0  0  0  0  0  0  0  0  0  0
  152.4228  138.6169  153.5379 H   0  0  0  0  0  0  0  0  0  0  0  0
  153.2955  137.7658  154.8265 H   0  0  0  0  0  0  0  0  0  0  0  0
  150.6116  139.7247  155.3268 H   0  0  0  0  0  0  0  0  0  0  0  0
  151.3429  138.2286  155.8883 H   0  0  0  0  0  0  0  0  0  0  0  0
  150.5711  139.3596  157.8781 H   0  0  0  0  0  0  0  0  0  0  0  0
  152.3018  139.5774  157.8834 H   0  0  0  0  0  0  0  0  0  0  0  0
  148.7152  139.7686  156.1341 H   0  0  0  0  0  0  0  0  0  0  0  0
  146.7659  143.1969  157.1013 H   0  0  0  0  0  0  0  0  0  0  0  0
  148.1255  143.1377  155.9997 H   0  0  0  0  0  0  0  0  0  0  0  0
  147.7033  137.9709  154.9605 H   0  0  0  0  0  0  0  0  0  0  0  0
  146.5553  137.0875  152.9486 H   0  0  0  0  0  0  0  0  0  0  0  0
  145.7959  138.6414  151.1595 H   0  0  0  0  0  0  0  0  0  0  0  0
  146.1873  141.0872  151.3900 H   0  0  0  0  0  0  0  0  0  0  0  0
  147.3312  141.9820  153.3968 H   0  0  0  0  0  0  0  0  0  0  0  0
  151.4582  145.4429  158.8327 H   0  0  0  0  0  0  0  0  0  0  0  0
  152.8153  144.8489  160.8463 H   0  0  0  0  0  0  0  0  0  0  0  0
  153.4662  142.5115  161.2936 H   0  0  0  0  0  0  0  0  0  0  0  0
  152.7880  140.6704  159.7610 H   0  0  0  0  0  0  0  0  0  0  0  0
  150.2327  144.1891  156.5412 H   0  0  0  0  0  0  0  0  0  0  0  0
  1  2  1  0  0  0  0
  1 25  1  0  0  0  0
  1 26  1  0  0  0  0
  1 27  1  0  0  0  0
  2  3  1  0  0  0  0
  3  4  1  0  0  0  0
  3 28  1  0  0  0  0
  3 29  1  0  0  0  0
  4  5  1  0  0  0  0
  4 30  1  0  0  0  0
  4 31  1  0  0  0  0
  5 24  1  0  0  0  0
  5  6  1  0  0  0  0
  6  7  1  0  0  0  0
  6 18  2  0  0  0  0
  7  8  1  0  0  0  0
  8  9  1  0  0  0  0
  8 12  1  0  0  0  0
  8 32  1  0  0  0  0
  9 10  1  0  0  0  0
  9 11  2  0  0  0  0
 10 33  1  0  0  0  0
 10 34  1  0  0  0  0
 12 17  1  0  0  0  0
 12 13  2  0  0  0  0
 13 14  1  0  0  0  0
 13 35  1  0  0  0  0
 14 15  2  0  0  0  0
 14 36  1  0  0  0  0
 15 16  1  0  0  0  0
 15 37  1  0  0  0  0
 16 17  2  0  0  0  0
 16 38  1  0  0  0  0
 17 39  1  0  0  0  0
 18 19  1  0  0  0  0
 18 44  1  0  0  0  0
 19 24  2  0  0  0  0
 19 20  1  0  0  0  0
 20 21  2  0  0  0  0
 20 40  1  0  0  0  0
 21 22  1  0  0  0  0
 21 41  1  0  0  0  0
 22 23  2  0  0  0  0
 22 42  1  0  0  0  0
 23 24  1  0  0  0  0
 23 43  1  0  0  0  0
M  CHG  1  18   1
M  END
> <s_m_source_file>
AV-unprocessed.smi

> <i_m_source_file_index>
525

> <i_lp_mmshare_version>
43012

> <i_f3d_flags>
0

> <s_epik_input>
W2NIXTFbY0hdW2NIXVtjSF1jKGMxMiluKFtDSDJdW0NIMl1PW0NIM10pYyhuMilTW0NASF0oQyg9TylbTkgyXSljM1tjSF1bY0hdW2NIXVtjSF1bY0hdMw==

> <s_epik_cmdline>
J2VwaWtfcHl0aG9uJywgJy1waCcsICc3LjAnLCAnLXRuJywgJzgnLCAnLW1hJywgJzIwMCcsICctbWV0YWxfYmluZGluZycsICctaW1hZScsICc8aW5maWxlLm1hZT4nLCAnLW9tYWUnLCAnPG91dGZpbGUubWFlPic=

> <r_epik_Ionization_Penalty>
1.29485

> <r_epik_Ionization_Penalty_Charging>
1.29485

> <r_epik_Ionization_Penalty_Neutral>
1.02965e-06

> <r_epik_State_Penalty>
1.36828

> <r_epik_Charging_Adjusted_Penalty>
2.66313

> <i_epik_Tot_Q>
1

> <i_epik_Tot_abs_Q>
1

> <r_epik_Metal_State_Penalty>
1.43316

> <b_epik_Metal_Only>
0

> <s_lp_Force_Field>
OPLS_2005

> <r_lp_Energy>
11.9794

> <b_lp_Chiralities_Consistent>
1

> <s_lp_Variant>
AV-unprocessed.smi:525-4

> <Gold.Version>
5.8.1

> <Gold.Id.Protein>
6NUR|6NUR_protein|mol2

> <Gold.PLP.Fitness>
55.5931

> <Gold.PLP.PLP>
-46.0434

> <Gold.PLP.part.hbond>
-3.4586

> <Gold.PLP.part.metal>
0.0000

> <Gold.PLP.part.buried>
1.1245

> <Gold.PLP.part.nonpolar>
-43.6869

> <Gold.PLP.part.repulsive>
0.0309

> <Gold.PLP.ligand.clash>
0.0000

> <Gold.PLP.ligand.torsion>
1.0980

> <Gold.PLP.Chemscore.Hbond>
3.8160

> <Gold.PLP.Chemscore.CHOScore>
0.0000

> <Gold.PLP.Chemscore.Metal>
0.0000

> <Gold.Chemscore.Hbonds>
donor molecule, donor type, donor heavy atom, donor atom, acceptor molecule, acceptor atom, score
      L1  H    10    34       P1  8028  0.88
      L1  H    18    44       P1  8028  1.79
      P1  H  7989  7998       L1     2  0.03
      P1  H  7997  8010       L1     2  1.00

> <Gold.PLP.Chemscore.Internal.Correction>
0.2978

> <Gold.Rescore>
     Score         DG    S(hbond)    S(metal)    S(lipo)     H(rot)  DE(clash)    DE(int)     intcor
     18.70     -22.73       2.27        0.00     137.78       2.51       1.49       2.54       ----

> <Gold.Chemscore.Fitness>
18.7036

> <Gold.Chemscore.DG>
-22.7301

> <Gold.Chemscore.ZeroCoef>
-5.4800

> <Gold.Chemscore.Hbond>
2.2657

> <Gold.Chemscore.Metal>
0.0000

> <Gold.Chemscore.Lipo>
137.7767

> <Gold.Chemscore.Internal_Hbond>
0.0000

> <Gold.Chemscore.DEClash>
1.4859

> <Gold.Chemscore.DEInternal>
2.5406

> <Gold.Chemscore.Rot>
2.5145

> <Gold.Chemscore.Internal.Correction>
   9.000000E+99

> <Gold.Chemscore.Hbonds>
donor molecule, donor type, donor heavy atom, donor atom, acceptor molecule, acceptor atom, score
      L1  H    10    34       P1  8028  0.56
      L1  H    18    44       P1  8028  0.88
      P1  H  7997  8010       L1     2  0.36

> <Gold.Chemscore.Hbond.Weighted>
-7.5674

> <Gold.Chemscore.Metal.Weighted>
-0.0000

> <Gold.Chemscore.Lipo.Weighted>
-16.1199

> <Gold.Chemscore.Internal_Hbond.Weighted>
0.0000

> <Gold.Chemscore.DEClash.Weighted>
1.4859

> <Gold.Chemscore.DEInternal.Weighted>
2.5406

> <Gold.Chemscore.Rot.Weighted>
6.4372

> <Gold.Chemscore.Internal.Correction.Weighted>
   9.000000E+99

> <Gold.Protein.RotatedTorsions>
[ 6907 6896 6895 6894 ] final  -54.04 input  -60.11 | X-H torsion
[ 7974 7965 7964 7962 ] final -159.91 input  175.53 | X-H torsion
[ 8008 7997 7996 7995 ] final   76.39 input   59.86 | X-H torsion
[ 10167 10162 10161 10158 ] final   15.77 input  -65.29 | X-H torsion
[ 10718 10713 10712 10709 ] final   94.77 input   66.30 | X-H torsion
[ 10763 10752 10751 10750 ] final   60.32 input  -60.55 | X-H torsion
[ 11005 11000 10999 10996 ] final   25.01 input  -57.11 | X-H torsion

> <Gold.Protein.ActiveResidues>
 VAL166  LYS551  ARG553  GLY616  TRP617  ASP618  TYR619  PRO620  LYS621  CYS622 
 ASP623  PHE694  ASN695  SER759  ASP760  ASP761  ALA762  ILE779  LEU786  VAL792 
 PHE793  MET794  SER795  GLU796  ALA797  LYS798  CYS799  TRP800  GLU811  SER814 

> <Gold.Protein.RotatedAtoms>
  150.8373  134.7651  159.6903 H   0  0  0  0  0  0  0  0  0  0  0  0  # atno 6907 bound_to 6896
  152.4467  134.5476  159.9867 H   0  0  0  0  0  0  0  0  0  0  0  0  # atno 6908 bound_to 6896
  151.5623  133.3363  159.3009 H   0  0  0  0  0  0  0  0  0  0  0  0  # atno 6909 bound_to 6896
  144.7447  140.3617  143.6094 H   0  0  0  0  0  0  0  0  0  0  0  0  # atno 7974 bound_to 7965
  155.8266  140.3468  155.5546 H   0  0  0  0  0  0  0  0  0  0  0  0  # atno 8008 bound_to 7997
  155.8286  140.0923  157.1826 H   0  0  0  0  0  0  0  0  0  0  0  0  # atno 8009 bound_to 7997
  154.4004  140.1416  156.3574 H   0  0  0  0  0  0  0  0  0  0  0  0  # atno 8010 bound_to 7997
  140.5844  143.8919  150.6817 H   0  0  0  0  0  0  0  0  0  0  0  0  # atno 10167 bound_to 10162
  157.6945  131.0523  150.4237 H   0  0  0  0  0  0  0  0  0  0  0  0  # atno 10718 bound_to 10713
  152.9918  135.5540  154.5854 H   0  0  0  0  0  0  0  0  0  0  0  0  # atno 10763 bound_to 10752
  154.5227  135.2808  155.1251 H   0  0  0  0  0  0  0  0  0  0  0  0  # atno 10764 bound_to 10752
  154.2597  135.6383  153.5323 H   0  0  0  0  0  0  0  0  0  0  0  0  # atno 10765 bound_to 10752
  140.3525  134.2213  155.7679 H   0  0  0  0  0  0  0  0  0  0  0  0  # atno 11005 bound_to 11000
  145.7170  139.1699  143.2506 LP  0  0  0  0  0  0  0  0  0  0  0  0  # atno 17320 bound_to 7965
  146.1305  140.7191  142.9414 LP  0  0  0  0  0  0  0  0  0  0  0  0  # atno 17321 bound_to 7965
  140.2426  143.3652  152.1474 LP  0  0  0  0  0  0  0  0  0  0  0  0  # atno 17342 bound_to 10162
  139.5188  144.7011  151.5489 LP  0  0  0  0  0  0  0  0  0  0  0  0  # atno 17343 bound_to 10162
  156.4610  130.4032  149.6576 LP  0  0  0  0  0  0  0  0  0  0  0  0  # atno 17370 bound_to 10713
  156.3691  130.7521  151.2502 LP  0  0  0  0  0  0  0  0  0  0  0  0  # atno 17371 bound_to 10713
  141.2008  133.7979  157.0472 LP  0  0  0  0  0  0  0  0  0  0  0  0  # atno 17394 bound_to 11000
  140.0691  134.9712  157.1437 LP  0  0  0  0  0  0  0  0  0  0  0  0  # atno 17395 bound_to 11000

$$$$
