AV-unprocessed.smi:2457|AV-procd|sdf|9704|dock8
  -GOLD-   2272013343D 1   1.00000     0.00000
 Structure written by MMmdl.
 40 41  0  0  0  0  0  0  0  0  1 V2000
  152.7578  139.0078  154.9595 C   0  0  0  0  0  0  0  0  0  0  0  0
  151.2973  138.7208  154.8108 C   0  0  0  0  0  0  0  0  0  0  0  0
  150.6101  137.6469  155.3186 C   0  0  0  0  0  0  0  0  0  0  0  0
  148.9159  137.7139  154.9202 S   0  0  0  0  0  0  0  0  0  0  0  0
  149.2062  139.2260  154.0656 C   0  0  0  0  0  0  0  0  0  0  0  0
  148.1139  140.0292  153.4251 C   0  0  2  0  0  0  0  0  0  0  0  0
  147.9444  141.4037  154.0881 C   0  0  0  0  0  0  0  0  0  0  0  0
  146.7823  139.2560  153.2947 C   0  0  0  0  0  0  0  0  0  0  0  0
  146.9414  138.0072  152.5510 N   0  0  0  0  0  0  0  0  0  0  0  0
  146.0197  137.0375  152.4590 C   0  0  0  0  0  0  0  0  0  0  0  0
  144.8774  137.1222  152.9100 O   0  0  0  0  0  0  0  0  0  0  0  0
  146.5078  135.9446  151.8568 N   0  0  0  0  0  0  0  0  0  0  0  0
  145.7930  134.6797  151.7158 C   0  0  2  0  0  0  0  0  0  0  0  0
  146.7907  133.5369  151.4291 C   0  0  0  0  0  0  0  0  0  0  0  0
  146.1031  132.1658  151.3309 C   0  0  0  0  0  0  0  0  0  0  0  0
  145.0700  132.1088  150.1965 C   0  0  0  0  0  0  0  0  0  0  0  0
  143.7343  133.3065  150.4615 S   0  0  0  0  0  0  0  0  0  0  0  0
  144.7405  134.8097  150.6016 C   0  0  0  0  0  0  0  0  0  0  0  0
  150.4873  139.6060  154.0947 N   0  0  0  0  0  0  0  0  0  0  0  0
  153.2892  138.1583  155.3892 H   0  0  0  0  0  0  0  0  0  0  0  0
  152.9236  139.8655  155.6119 H   0  0  0  0  0  0  0  0  0  0  0  0
  153.2166  139.2304  153.9959 H   0  0  0  0  0  0  0  0  0  0  0  0
  150.9950  136.8254  155.9046 H   0  0  0  0  0  0  0  0  0  0  0  0
  148.4498  140.2287  152.4066 H   0  0  0  0  0  0  0  0  0  0  0  0
  148.8802  141.9634  154.0757 H   0  0  0  0  0  0  0  0  0  0  0  0
  147.6282  141.3059  155.1272 H   0  0  0  0  0  0  0  0  0  0  0  0
  147.1947  142.0006  153.5685 H   0  0  0  0  0  0  0  0  0  0  0  0
  146.3659  139.0611  154.2846 H   0  0  0  0  0  0  0  0  0  0  0  0
  146.0472  139.8700  152.7738 H   0  0  0  0  0  0  0  0  0  0  0  0
  147.8483  137.8372  152.1416 H   0  0  0  0  0  0  0  0  0  0  0  0
  147.4590  135.9703  151.5202 H   0  0  0  0  0  0  0  0  0  0  0  0
  145.2703  134.4680  152.6506 H   0  0  0  0  0  0  0  0  0  0  0  0
  147.3349  133.7404  150.5058 H   0  0  0  0  0  0  0  0  0  0  0  0
  147.5417  133.4948  152.2193 H   0  0  0  0  0  0  0  0  0  0  0  0
  146.8586  131.3967  151.1673 H   0  0  0  0  0  0  0  0  0  0  0  0
  145.6224  131.9253  152.2802 H   0  0  0  0  0  0  0  0  0  0  0  0
  145.5465  132.3136  149.2372 H   0  0  0  0  0  0  0  0  0  0  0  0
  144.6355  131.1111  150.1311 H   0  0  0  0  0  0  0  0  0  0  0  0
  144.0733  135.6484  150.8033 H   0  0  0  0  0  0  0  0  0  0  0  0
  145.2191  135.0047  149.6412 H   0  0  0  0  0  0  0  0  0  0  0  0
  1  2  1  0  0  0  0
  1 20  1  0  0  0  0
  1 21  1  0  0  0  0
  1 22  1  0  0  0  0
  2 19  1  0  0  0  0
  2  3  2  0  0  0  0
  3  4  1  0  0  0  0
  3 23  1  0  0  0  0
  4  5  1  0  0  0  0
  5  6  1  0  0  0  0
  5 19  2  0  0  0  0
  6  7  1  0  0  0  0
  6  8  1  0  0  0  0
  6 24  1  0  0  0  0
  7 25  1  0  0  0  0
  7 26  1  0  0  0  0
  7 27  1  0  0  0  0
  8  9  1  0  0  0  0
  8 28  1  0  0  0  0
  8 29  1  0  0  0  0
  9 10  1  0  0  0  0
  9 30  1  0  0  0  0
 10 11  2  0  0  0  0
 10 12  1  0  0  0  0
 12 13  1  0  0  0  0
 12 31  1  0  0  0  0
 13 18  1  0  0  0  0
 13 14  1  0  0  0  0
 13 32  1  0  0  0  0
 14 15  1  0  0  0  0
 14 33  1  0  0  0  0
 14 34  1  0  0  0  0
 15 16  1  0  0  0  0
 15 35  1  0  0  0  0
 15 36  1  0  0  0  0
 16 17  1  0  0  0  0
 16 37  1  0  0  0  0
 16 38  1  0  0  0  0
 17 18  1  0  0  0  0
 18 39  1  0  0  0  0
 18 40  1  0  0  0  0
M  END
> <s_m_source_file>
AV-unprocessed.smi

> <i_m_source_file_index>
2457

> <i_lp_mmshare_version>
43012

> <i_f3d_flags>
0

> <s_epik_input>
W0NIM11jMVtjSF1zYyhuMSlbQ0BIXShbQ0gzXSlbQ0gyXVtOSF1DKD1PKVtOSF1bQ0BASF0yW0NIMl1bQ0gyXVtDSDJdU1tDSDJdMg==

> <s_epik_cmdline>
J2VwaWtfcHl0aG9uJywgJy1waCcsICc3LjAnLCAnLXRuJywgJzgnLCAnLW1hJywgJzIwMCcsICctbWV0YWxfYmluZGluZycsICctaW1hZScsICc8aW5maWxlLm1hZT4nLCAnLW9tYWUnLCAnPG91dGZpbGUubWFlPic=

> <r_epik_Ionization_Penalty>
0.00154805

> <r_epik_Ionization_Penalty_Charging>
0

> <r_epik_Ionization_Penalty_Neutral>
0.00154805

> <r_epik_State_Penalty>
0.00100357

> <r_epik_Charging_Adjusted_Penalty>
0.00100357

> <i_epik_Tot_Q>
0

> <i_epik_Tot_abs_Q>
0

> <r_epik_Metal_State_Penalty>
-0

> <b_epik_Metal_Only>
0

> <s_lp_Force_Field>
OPLS_2005

> <r_lp_Energy>
-7.34104

> <b_lp_Chiralities_Consistent>
1

> <s_lp_Variant>
AV-unprocessed.smi:2457-1

> <Gold.Version>
5.8.1

> <Gold.Id.Protein>
6NUR|6NUR_protein|mol2

> <Gold.PLP.Fitness>
41.9244

> <Gold.PLP.PLP>
-34.5688

> <Gold.PLP.part.hbond>
-2.7409

> <Gold.PLP.part.metal>
0.0000

> <Gold.PLP.part.buried>
0.7263

> <Gold.PLP.part.nonpolar>
-32.8079

> <Gold.PLP.part.repulsive>
0.6700

> <Gold.PLP.ligand.clash>
0.0000

> <Gold.PLP.ligand.torsion>
0.4503

> <Gold.PLP.Chemscore.Hbond>
2.7120

> <Gold.PLP.Chemscore.CHOScore>
0.0000

> <Gold.PLP.Chemscore.Metal>
0.0000

> <Gold.Chemscore.Hbonds>
donor molecule, donor type, donor heavy atom, donor atom, acceptor molecule, acceptor atom, score
      L1  H     9    30       P1  7948  0.72
      L1  H    12    31       P1  7948  0.94
      P1  H  7989  7998       L1    19  1.00

> <Gold.PLP.Chemscore.Internal.Correction>
0.1201

> <Gold.Rescore>
     Score         DG    S(hbond)    S(metal)    S(lipo)     H(rot)  DE(clash)    DE(int)     intcor
     18.89     -20.96       2.48        0.00      93.39       1.46       1.56       0.51       ----

> <Gold.Chemscore.Fitness>
18.8890

> <Gold.Chemscore.DG>
-20.9597

> <Gold.Chemscore.ZeroCoef>
-5.4800

> <Gold.Chemscore.Hbond>
2.4834

> <Gold.Chemscore.Metal>
0.0000

> <Gold.Chemscore.Lipo>
93.3918

> <Gold.Chemscore.Internal_Hbond>
0.0000

> <Gold.Chemscore.DEClash>
1.5572

> <Gold.Chemscore.DEInternal>
0.5134

> <Gold.Chemscore.Rot>
1.4616

> <Gold.Chemscore.Internal.Correction>
   9.000000E+99

> <Gold.Chemscore.Hbonds>
donor molecule, donor type, donor heavy atom, donor atom, acceptor molecule, acceptor atom, score
      L1  H     9    30       P1  7948  0.71
      L1  H    12    31       P1  7948  0.85
      P1  H  7989  7998       L1    19  0.50

> <Gold.Chemscore.Hbond.Weighted>
-8.2944

> <Gold.Chemscore.Metal.Weighted>
-0.0000

> <Gold.Chemscore.Lipo.Weighted>
-10.9268

> <Gold.Chemscore.Internal_Hbond.Weighted>
0.0000

> <Gold.Chemscore.DEClash.Weighted>
1.5572

> <Gold.Chemscore.DEInternal.Weighted>
0.5134

> <Gold.Chemscore.Rot.Weighted>
3.7416

> <Gold.Chemscore.Internal.Correction.Weighted>
   9.000000E+99

> <Gold.Protein.RotatedTorsions>
[ 6907 6896 6895 6894 ] final -151.90 input  -60.11 | X-H torsion
[ 7974 7965 7964 7962 ] final  -75.14 input  175.53 | X-H torsion
[ 8008 7997 7996 7995 ] final  134.49 input   59.86 | X-H torsion
[ 10167 10162 10161 10158 ] final  166.28 input  -65.29 | X-H torsion
[ 10718 10713 10712 10709 ] final  -87.72 input   66.30 | X-H torsion
[ 10763 10752 10751 10750 ] final   -2.81 input  -60.55 | X-H torsion
[ 11005 11000 10999 10996 ] final   -5.32 input  -57.11 | X-H torsion

> <Gold.Protein.ActiveResidues>
 VAL166  LYS551  ARG553  GLY616  TRP617  ASP618  TYR619  PRO620  LYS621  CYS622 
 ASP623  PHE694  ASN695  SER759  ASP760  ASP761  ALA762  ILE779  LEU786  VAL792 
 PHE793  MET794  SER795  GLU796  ALA797  LYS798  CYS799  TRP800  GLU811  SER814 

> <Gold.Protein.RotatedAtoms>
  151.2199  133.4508  159.2600 H   0  0  0  0  0  0  0  0  0  0  0  0  # atno 6907 bound_to 6896
  151.0895  134.9908  159.8406 H   0  0  0  0  0  0  0  0  0  0  0  0  # atno 6908 bound_to 6896
  152.5433  134.2133  159.8811 H   0  0  0  0  0  0  0  0  0  0  0  0  # atno 6909 bound_to 6896
  145.6300  140.9340  143.1092 H   0  0  0  0  0  0  0  0  0  0  0  0  # atno 7974 bound_to 7965
  156.2999  140.2495  156.3426 H   0  0  0  0  0  0  0  0  0  0  0  0  # atno 8008 bound_to 7997
  154.9041  140.0405  157.1929 H   0  0  0  0  0  0  0  0  0  0  0  0  # atno 8009 bound_to 7997
  154.8471  140.2900  155.5626 H   0  0  0  0  0  0  0  0  0  0  0  0  # atno 8010 bound_to 7997
  139.4922  144.4043  151.9373 H   0  0  0  0  0  0  0  0  0  0  0  0  # atno 10167 bound_to 10162
  155.9985  130.4810  150.4910 H   0  0  0  0  0  0  0  0  0  0  0  0  # atno 10718 bound_to 10713
  153.3630  135.6991  153.6697 H   0  0  0  0  0  0  0  0  0  0  0  0  # atno 10763 bound_to 10752
  153.5378  135.3579  155.2705 H   0  0  0  0  0  0  0  0  0  0  0  0  # atno 10764 bound_to 10752
  154.8671  135.4196  154.2891 H   0  0  0  0  0  0  0  0  0  0  0  0  # atno 10765 bound_to 10752
  140.6899  133.9080  155.8611 H   0  0  0  0  0  0  0  0  0  0  0  0  # atno 11005 bound_to 11000
  144.7197  139.8071  143.7386 LP  0  0  0  0  0  0  0  0  0  0  0  0  # atno 17320 bound_to 7965
  146.1364  139.4411  143.0136 LP  0  0  0  0  0  0  0  0  0  0  0  0  # atno 17321 bound_to 7965
  140.3483  144.3120  150.5954 LP  0  0  0  0  0  0  0  0  0  0  0  0  # atno 17342 bound_to 10162
  140.5507  143.2207  151.7932 LP  0  0  0  0  0  0  0  0  0  0  0  0  # atno 17343 bound_to 10162
  157.2905  131.0625  151.2137 LP  0  0  0  0  0  0  0  0  0  0  0  0  # atno 17370 bound_to 10713
  157.3151  130.6909  149.6237 LP  0  0  0  0  0  0  0  0  0  0  0  0  # atno 17371 bound_to 10713
  141.0250  134.0836  157.4079 LP  0  0  0  0  0  0  0  0  0  0  0  0  # atno 17394 bound_to 11000
  139.8926  135.0126  156.6857 LP  0  0  0  0  0  0  0  0  0  0  0  0  # atno 17395 bound_to 11000

$$$$
