AV-unprocessed.smi:1327|AV-procd|sdf|5477|dock1
  -GOLD-   22720 5 53D 1   1.00000     0.00000
 Structure written by MMmdl.
 40 41  0  0  0  0  0  0  0  0  1 V2000
  152.8836  139.6876  154.8035 O   0  0  0  0  0  0  0  0  0  0  0  0
  152.0103  138.7480  155.5230 S   0  0  0  0  0  0  0  0  0  0  0  0
  152.2905  137.3039  155.5267 O   0  0  0  0  0  0  0  0  0  0  0  0
  151.8809  139.2627  157.1614 N   0  0  0  0  0  0  0  0  0  0  0  0
  151.5921  140.6694  157.4355 C   0  0  0  0  0  0  0  0  0  0  0  0
  151.6234  140.9582  158.9456 C   0  0  0  0  0  0  0  0  0  0  0  0
  151.7285  142.4388  159.2738 C   0  0  0  0  0  0  0  0  0  0  0  0
  151.8633  143.3930  158.2425 C   0  0  0  0  0  0  0  0  0  0  0  0
  151.9690  144.7525  158.5944 C   0  0  0  0  0  0  0  0  0  0  0  0
  151.9380  145.1047  159.9574 C   0  0  0  0  0  0  0  0  0  0  0  0
  151.8009  144.0773  160.9118 C   0  0  0  0  0  0  0  0  0  0  0  0
  151.6973  142.7710  160.5850 N   0  0  0  0  0  0  0  0  0  0  0  0
  150.3726  139.0136  155.0171 N   0  0  0  0  0  0  0  0  0  0  0  0
  149.5735  137.8413  154.6181 C   0  0  0  0  0  0  0  0  0  0  0  0
  148.0616  138.0271  154.8532 C   0  0  0  0  0  0  0  0  0  0  0  0
  147.3944  138.9820  153.8514 C   0  0  0  0  0  0  0  0  0  0  0  0
  147.4825  140.4730  154.2222 C   0  0  0  0  0  0  0  0  0  0  0  0
  148.7951  140.9240  154.8862 C   0  0  0  0  0  0  0  0  0  0  0  0
  150.0615  140.2720  154.3120 C   0  0  0  0  0  0  0  0  0  0  0  0
  152.6380  138.8967  157.7391 H   0  0  0  0  0  0  0  0  0  0  0  0
  152.3166  141.2969  156.9154 H   0  0  0  0  0  0  0  0  0  0  0  0
  150.6094  140.9080  157.0282 H   0  0  0  0  0  0  0  0  0  0  0  0
  150.7176  140.5622  159.4062 H   0  0  0  0  0  0  0  0  0  0  0  0
  152.4534  140.4252  159.4118 H   0  0  0  0  0  0  0  0  0  0  0  0
  151.8880  143.0919  157.2055 H   0  0  0  0  0  0  0  0  0  0  0  0
  152.0729  145.5111  157.8328 H   0  0  0  0  0  0  0  0  0  0  0  0
  152.0177  146.1370  160.2643 H   0  0  0  0  0  0  0  0  0  0  0  0
  151.7745  144.3115  161.9657 H   0  0  0  0  0  0  0  0  0  0  0  0
  149.7815  137.5985  153.5755 H   0  0  0  0  0  0  0  0  0  0  0  0
  149.8978  136.9782  155.1989 H   0  0  0  0  0  0  0  0  0  0  0  0
  147.5930  137.0488  154.7400 H   0  0  0  0  0  0  0  0  0  0  0  0
  147.8589  138.3325  155.8804 H   0  0  0  0  0  0  0  0  0  0  0  0
  147.8229  138.8219  152.8612 H   0  0  0  0  0  0  0  0  0  0  0  0
  146.3403  138.7199  153.7548 H   0  0  0  0  0  0  0  0  0  0  0  0
  147.3177  141.0586  153.3170 H   0  0  0  0  0  0  0  0  0  0  0  0
  146.6587  140.7276  154.8900 H   0  0  0  0  0  0  0  0  0  0  0  0
  148.8717  142.0065  154.7789 H   0  0  0  0  0  0  0  0  0  0  0  0
  148.7496  140.7450  155.9616 H   0  0  0  0  0  0  0  0  0  0  0  0
  150.8921  140.9662  154.4387 H   0  0  0  0  0  0  0  0  0  0  0  0
  149.9833  140.0993  153.2380 H   0  0  0  0  0  0  0  0  0  0  0  0
  1  2  2  0  0  0  0
  2  3  2  0  0  0  0
  2  4  1  0  0  0  0
  2 13  1  0  0  0  0
  4  5  1  0  0  0  0
  4 20  1  0  0  0  0
  5  6  1  0  0  0  0
  5 21  1  0  0  0  0
  5 22  1  0  0  0  0
  6  7  1  0  0  0  0
  6 23  1  0  0  0  0
  6 24  1  0  0  0  0
  7 12  1  0  0  0  0
  7  8  2  0  0  0  0
  8  9  1  0  0  0  0
  8 25  1  0  0  0  0
  9 10  2  0  0  0  0
  9 26  1  0  0  0  0
 10 11  1  0  0  0  0
 10 27  1  0  0  0  0
 11 12  2  0  0  0  0
 11 28  1  0  0  0  0
 13 19  1  0  0  0  0
 13 14  1  0  0  0  0
 14 15  1  0  0  0  0
 14 29  1  0  0  0  0
 14 30  1  0  0  0  0
 15 16  1  0  0  0  0
 15 31  1  0  0  0  0
 15 32  1  0  0  0  0
 16 17  1  0  0  0  0
 16 33  1  0  0  0  0
 16 34  1  0  0  0  0
 17 18  1  0  0  0  0
 17 35  1  0  0  0  0
 17 36  1  0  0  0  0
 18 19  1  0  0  0  0
 18 37  1  0  0  0  0
 18 38  1  0  0  0  0
 19 39  1  0  0  0  0
 19 40  1  0  0  0  0
M  END
> <s_m_source_file>
AV-unprocessed.smi

> <i_m_source_file_index>
1327

> <i_lp_mmshare_version>
43012

> <i_f3d_flags>
0

> <s_epik_input>
W0NIMl0xW0NIMl1bQ0gyXVtDSDJdW0NIMl1bQ0gyXU4xUyg9TykoPU8pW05IXVtDSDJdW0NIMl1jMltjSF1bY0hdW2NIXVtjSF1uMg==

> <s_epik_cmdline>
J2VwaWtfcHl0aG9uJywgJy1waCcsICc3LjAnLCAnLXRuJywgJzgnLCAnLW1hJywgJzIwMCcsICctbWV0YWxfYmluZGluZycsICctaW1hZScsICc8aW5maWxlLm1hZT4nLCAnLW9tYWUnLCAnPG91dGZpbGUubWFlPic=

> <r_lp_tautomer_probability>
1

> <r_epik_Ionization_Penalty>
0.00665037

> <r_epik_Ionization_Penalty_Charging>
0

> <r_epik_Ionization_Penalty_Neutral>
0.00665037

> <r_epik_State_Penalty>
-0

> <r_epik_Charging_Adjusted_Penalty>
0

> <i_epik_Tot_Q>
0

> <i_epik_Tot_abs_Q>
0

> <r_epik_Metal_State_Penalty>
0.361784

> <b_epik_Metal_Only>
0

> <s_lp_Force_Field>
OPLS_2005

> <r_lp_Energy>
15.8899

> <b_lp_Chiralities_Consistent>
1

> <s_lp_Variant>
AV-unprocessed.smi:1327-1

> <Gold.Version>
5.8.1

> <Gold.Id.Protein>
6NUR|6NUR_protein|mol2

> <Gold.PLP.Fitness>
44.6786

> <Gold.PLP.PLP>
-38.3777

> <Gold.PLP.part.hbond>
-3.7121

> <Gold.PLP.part.metal>
0.0000

> <Gold.PLP.part.buried>
-3.7198

> <Gold.PLP.part.nonpolar>
-32.7488

> <Gold.PLP.part.repulsive>
0.1120

> <Gold.PLP.ligand.clash>
0.0000

> <Gold.PLP.ligand.torsion>
1.1776

> <Gold.PLP.Chemscore.Hbond>
2.1684

> <Gold.PLP.Chemscore.CHOScore>
0.0000

> <Gold.PLP.Chemscore.Metal>
0.0000

> <Gold.Chemscore.Hbonds>
donor molecule, donor type, donor heavy atom, donor atom, acceptor molecule, acceptor atom, score
      P1  H  7989  7998       L1     1  0.33
      P1  H  7997  8008       L1     1  1.00
      P1  H 10752 10764       L1     3  0.77

> <Gold.PLP.Chemscore.Internal.Correction>
2.1508

> <Gold.Rescore>
     Score         DG    S(hbond)    S(metal)    S(lipo)     H(rot)  DE(clash)    DE(int)     intcor
     18.01     -20.01       1.94        0.00     101.18       1.47       0.81       1.19       ----

> <Gold.Chemscore.Fitness>
18.0105

> <Gold.Chemscore.DG>
-20.0125

> <Gold.Chemscore.ZeroCoef>
-5.4800

> <Gold.Chemscore.Hbond>
1.9355

> <Gold.Chemscore.Metal>
0.0000

> <Gold.Chemscore.Lipo>
101.1756

> <Gold.Chemscore.Internal_Hbond>
0.0000

> <Gold.Chemscore.DEClash>
0.8110

> <Gold.Chemscore.DEInternal>
1.1910

> <Gold.Chemscore.Rot>
1.4725

> <Gold.Chemscore.Internal.Correction>
   9.000000E+99

> <Gold.Chemscore.Hbonds>
donor molecule, donor type, donor heavy atom, donor atom, acceptor molecule, acceptor atom, score
      P1  H  7989  7998       L1     1  0.24
      P1  H  7997  8008       L1     1  0.86
      P1  H 10752 10764       L1     3  0.73

> <Gold.Chemscore.Hbond.Weighted>
-6.4647

> <Gold.Chemscore.Metal.Weighted>
-0.0000

> <Gold.Chemscore.Lipo.Weighted>
-11.8375

> <Gold.Chemscore.Internal_Hbond.Weighted>
0.0000

> <Gold.Chemscore.DEClash.Weighted>
0.8110

> <Gold.Chemscore.DEInternal.Weighted>
1.1910

> <Gold.Chemscore.Rot.Weighted>
3.7697

> <Gold.Chemscore.Internal.Correction.Weighted>
   9.000000E+99

> <Gold.Protein.RotatedTorsions>
[ 6907 6896 6895 6894 ] final  132.28 input  -60.11 | X-H torsion
[ 7974 7965 7964 7962 ] final  -50.92 input  175.53 | X-H torsion
[ 8008 7997 7996 7995 ] final  -10.39 input   59.86 | X-H torsion
[ 10167 10162 10161 10158 ] final    3.52 input  -65.29 | X-H torsion
[ 10718 10713 10712 10709 ] final  104.05 input   66.30 | X-H torsion
[ 10763 10752 10751 10750 ] final  -50.70 input  -60.55 | X-H torsion
[ 11005 11000 10999 10996 ] final  138.47 input  -57.11 | X-H torsion

> <Gold.Protein.ActiveResidues>
 VAL166  LYS551  ARG553  GLY616  TRP617  ASP618  TYR619  PRO620  LYS621  CYS622 
 ASP623  PHE694  ASN695  SER759  ASP760  ASP761  ALA762  ILE779  LEU786  VAL792 
 PHE793  MET794  SER795  GLU796  ALA797  LYS798  CYS799  TRP800  GLU811  SER814 

> <Gold.Protein.RotatedAtoms>
  152.3340  133.5991  159.5829 H   0  0  0  0  0  0  0  0  0  0  0  0  # atno 6907 bound_to 6896
  150.7440  133.9824  159.3589 H   0  0  0  0  0  0  0  0  0  0  0  0  # atno 6908 bound_to 6896
  151.7695  135.0790  160.0409 H   0  0  0  0  0  0  0  0  0  0  0  0  # atno 6909 bound_to 6896
  145.9246  140.7803  142.9630 H   0  0  0  0  0  0  0  0  0  0  0  0  # atno 7974 bound_to 7965
  154.5559  140.2330  155.8412 H   0  0  0  0  0  0  0  0  0  0  0  0  # atno 8008 bound_to 7997
  156.1987  140.3058  155.9442 H   0  0  0  0  0  0  0  0  0  0  0  0  # atno 8009 bound_to 7997
  155.2982  140.0430  157.3018 H   0  0  0  0  0  0  0  0  0  0  0  0  # atno 8010 bound_to 7997
  140.6581  143.7374  150.7690 H   0  0  0  0  0  0  0  0  0  0  0  0  # atno 10167 bound_to 10162
  157.6753  131.0794  150.5647 H   0  0  0  0  0  0  0  0  0  0  0  0  # atno 10718 bound_to 10713
  154.1147  135.6544  153.4891 H   0  0  0  0  0  0  0  0  0  0  0  0  # atno 10763 bound_to 10752
  153.0245  135.5256  154.7157 H   0  0  0  0  0  0  0  0  0  0  0  0  # atno 10764 bound_to 10752
  154.6347  135.2980  155.0145 H   0  0  0  0  0  0  0  0  0  0  0  0  # atno 10765 bound_to 10752
  140.0186  134.9407  157.0427 H   0  0  0  0  0  0  0  0  0  0  0  0  # atno 11005 bound_to 11000
  144.6757  140.2031  143.7385 LP  0  0  0  0  0  0  0  0  0  0  0  0  # atno 17320 bound_to 7965
  145.8505  139.2173  143.1775 LP  0  0  0  0  0  0  0  0  0  0  0  0  # atno 17321 bound_to 7965
  140.1038  143.4763  152.2410 LP  0  0  0  0  0  0  0  0  0  0  0  0  # atno 17342 bound_to 10162
  139.5809  144.7510  151.3644 LP  0  0  0  0  0  0  0  0  0  0  0  0  # atno 17343 bound_to 10162
  156.5950  130.4339  149.5921 LP  0  0  0  0  0  0  0  0  0  0  0  0  # atno 17370 bound_to 10713
  156.2553  130.6931  151.1682 LP  0  0  0  0  0  0  0  0  0  0  0  0  # atno 17371 bound_to 10713
  140.4427  134.1664  155.7175 LP  0  0  0  0  0  0  0  0  0  0  0  0  # atno 17394 bound_to 11000
  141.1759  133.8515  157.1422 LP  0  0  0  0  0  0  0  0  0  0  0  0  # atno 17395 bound_to 11000

$$$$
