AV-unprocessed.smi:596|AV-procd|sdf|3019|dock4
  -GOLD-   2262023523D 1   1.00000     0.00000
 Structure written by MMmdl.
 41 42  0  0  0  0  0  0  0  0  3 V2000
  150.0822  140.2512  154.8548 O   0  0  0  0  0  0  0  0  0  0  0  0
  149.4267  141.2901  154.7839 C   0  0  0  0  0  0  0  0  0  0  0  0
  148.5117  141.5109  153.5666 C   0  0  0  0  0  0  0  0  0  0  0  0
  147.2880  142.2867  153.8396 N   0  0  0  0  0  0  0  0  0  0  0  0
  146.9505  143.2911  152.9109 C   0  0  0  0  0  0  0  0  0  0  0  0
  145.8513  144.0572  153.0525 C   0  0  0  0  0  0  0  0  0  0  0  0
  145.5137  145.0752  152.0820 N   0  3  0  0  0  0  0  0  0  0  0  0
  144.6178  145.8692  152.3499 O   0  0  0  0  0  0  0  0  0  0  0  0
  146.1299  145.1140  151.0212 O   0  5  0  0  0  0  0  0  0  0  0  0
  145.0098  143.8214  154.2096 C   0  0  0  0  0  0  0  0  0  0  0  0
  145.3248  142.8594  155.0992 C   0  0  0  0  0  0  0  0  0  0  0  0
  146.5167  142.0205  154.9380 C   0  0  0  0  0  0  0  0  0  0  0  0
  146.8007  141.1294  155.7381 O   0  0  0  0  0  0  0  0  0  0  0  0
  149.4710  142.2418  155.7321 N   0  0  0  0  0  0  0  0  0  0  0  0
  150.2694  142.1820  156.9499 C   0  0  0  0  0  0  0  0  0  0  0  0
  151.5135  143.0815  156.8501 C   0  0  0  0  0  0  0  0  0  0  0  0
  151.8692  143.7398  158.1725 C   0  0  0  0  0  0  0  0  0  0  0  0
  151.8474  145.0776  158.3312 C   0  0  0  0  0  0  0  0  0  0  0  0
  152.1755  145.7883  159.6328 C   0  0  0  0  0  0  0  0  0  0  0  0
  152.2031  144.8288  160.8343 C   0  0  0  0  0  0  0  0  0  0  0  0
  152.9311  143.5249  160.4851 C   0  0  0  0  0  0  0  0  0  0  0  0
  152.2496  142.7993  159.3108 C   0  0  0  0  0  0  0  0  0  0  0  0
  149.0976  141.9843  152.7770 H   0  0  0  0  0  0  0  0  0  0  0  0
  148.2465  140.5318  153.1651 H   0  0  0  0  0  0  0  0  0  0  0  0
  147.6372  143.3815  152.0814 H   0  0  0  0  0  0  0  0  0  0  0  0
  144.1217  144.4144  154.3717 H   0  0  0  0  0  0  0  0  0  0  0  0
  144.6839  142.7004  155.9540 H   0  0  0  0  0  0  0  0  0  0  0  0
  148.9046  143.0674  155.6015 H   0  0  0  0  0  0  0  0  0  0  0  0
  149.6620  142.4618  157.8125 H   0  0  0  0  0  0  0  0  0  0  0  0
  150.5631  141.1430  157.1001 H   0  0  0  0  0  0  0  0  0  0  0  0
  152.3713  142.5021  156.5066 H   0  0  0  0  0  0  0  0  0  0  0  0
  151.3470  143.8552  156.0993 H   0  0  0  0  0  0  0  0  0  0  0  0
  151.5906  145.7138  157.4967 H   0  0  0  0  0  0  0  0  0  0  0  0
  153.1448  146.2739  159.5161 H   0  0  0  0  0  0  0  0  0  0  0  0
  151.4438  146.5777  159.8062 H   0  0  0  0  0  0  0  0  0  0  0  0
  152.6776  145.3138  161.6878 H   0  0  0  0  0  0  0  0  0  0  0  0
  151.1817  144.5966  161.1394 H   0  0  0  0  0  0  0  0  0  0  0  0
  153.9649  143.7525  160.2214 H   0  0  0  0  0  0  0  0  0  0  0  0
  152.9721  142.8685  161.3546 H   0  0  0  0  0  0  0  0  0  0  0  0
  151.3436  142.3042  159.6617 H   0  0  0  0  0  0  0  0  0  0  0  0
  152.9108  142.0183  158.9340 H   0  0  0  0  0  0  0  0  0  0  0  0
  1  2  2  0  0  0  0
  2  3  1  0  0  0  0
  2 14  1  0  0  0  0
  3  4  1  0  0  0  0
  3 23  1  0  0  0  0
  3 24  1  0  0  0  0
  4 12  1  0  0  0  0
  4  5  1  0  0  0  0
  5  6  2  0  0  0  0
  5 25  1  0  0  0  0
  6  7  1  0  0  0  0
  6 10  1  0  0  0  0
  7  8  2  0  0  0  0
  7  9  1  0  0  0  0
 10 11  2  0  0  0  0
 10 26  1  0  0  0  0
 11 12  1  0  0  0  0
 11 27  1  0  0  0  0
 12 13  2  0  0  0  0
 14 15  1  0  0  0  0
 14 28  1  0  0  0  0
 15 16  1  0  0  0  0
 15 29  1  0  0  0  0
 15 30  1  0  0  0  0
 16 17  1  0  0  0  0
 16 31  1  0  0  0  0
 16 32  1  0  0  0  0
 17 22  1  0  0  0  0
 17 18  2  0  0  0  0
 18 19  1  0  0  0  0
 18 33  1  0  0  0  0
 19 20  1  0  0  0  0
 19 34  1  0  0  0  0
 19 35  1  0  0  0  0
 20 21  1  0  0  0  0
 20 36  1  0  0  0  0
 20 37  1  0  0  0  0
 21 22  1  0  0  0  0
 21 38  1  0  0  0  0
 21 39  1  0  0  0  0
 22 40  1  0  0  0  0
 22 41  1  0  0  0  0
M  CHG  1   7   1
M  CHG  1   9  -1
M  END
> <s_m_source_file>
AV-unprocessed.smi

> <i_m_source_file_index>
596

> <i_lp_mmshare_version>
43012

> <i_f3d_flags>
0

> <s_epik_input>
Tz1jMVtjSF1bY0hdYyhbTitdKD1PKVtPLV0pW2NIXW4xW0NIMl1DKD1PKVtOSF1bQ0gyXVtDSDJdQzI9W0NIXVtDSDJdW0NIMl1bQ0gyXVtDSDJdMg==

> <s_epik_cmdline>
J2VwaWtfcHl0aG9uJywgJy1waCcsICc3LjAnLCAnLXRuJywgJzgnLCAnLW1hJywgJzIwMCcsICctbWV0YWxfYmluZGluZycsICctaW1hZScsICc8aW5maWxlLm1hZT4nLCAnLW9tYWUnLCAnPG91dGZpbGUubWFlPic=

> <r_lp_tautomer_probability>
1

> <r_epik_Ionization_Penalty>
1.81809e-08

> <r_epik_Ionization_Penalty_Charging>
7.7346e-11

> <r_epik_Ionization_Penalty_Neutral>
1.81035e-08

> <r_epik_State_Penalty>
-0

> <r_epik_Charging_Adjusted_Penalty>
7.7346e-11

> <i_epik_Tot_Q>
0

> <i_epik_Tot_abs_Q>
2

> <r_epik_Metal_State_Penalty>
-0

> <b_epik_Metal_Only>
0

> <s_lp_Force_Field>
OPLS_2005

> <r_lp_Energy>
18.9868

> <b_lp_Chiralities_Consistent>
1

> <s_lp_Variant>
AV-unprocessed.smi:596-1

> <Gold.Version>
5.8.1

> <Gold.Id.Protein>
6NUR|6NUR_protein|mol2

> <Gold.PLP.Fitness>
57.8245

> <Gold.PLP.PLP>
-54.9329

> <Gold.PLP.part.hbond>
-3.5411

> <Gold.PLP.part.metal>
0.0000

> <Gold.PLP.part.buried>
-7.4715

> <Gold.PLP.part.nonpolar>
-44.5190

> <Gold.PLP.part.repulsive>
0.4907

> <Gold.PLP.ligand.clash>
0.0000

> <Gold.PLP.ligand.torsion>
0.9618

> <Gold.PLP.Chemscore.Hbond>
1.5753

> <Gold.PLP.Chemscore.CHOScore>
0.0000

> <Gold.PLP.Chemscore.Metal>
0.0000

> <Gold.Chemscore.Hbonds>
donor molecule, donor type, donor heavy atom, donor atom, acceptor molecule, acceptor atom, score
      L1  H    14    28       P1  8028  0.91
      P1  H  7989  7998       L1     1  0.54

> <Gold.PLP.Chemscore.Internal.Correction>
0.0892

> <Gold.Rescore>
     Score         DG    S(hbond)    S(metal)    S(lipo)     H(rot)  DE(clash)    DE(int)     intcor
     15.50     -18.09       1.32        0.00     113.54       1.98       0.26       2.33       ----

> <Gold.Chemscore.Fitness>
15.4977

> <Gold.Chemscore.DG>
-18.0857

> <Gold.Chemscore.ZeroCoef>
-5.4800

> <Gold.Chemscore.Hbond>
1.3171

> <Gold.Chemscore.Metal>
0.0000

> <Gold.Chemscore.Lipo>
113.5410

> <Gold.Chemscore.Internal_Hbond>
0.0000

> <Gold.Chemscore.DEClash>
0.2573

> <Gold.Chemscore.DEInternal>
2.3307

> <Gold.Chemscore.Rot>
1.9835

> <Gold.Chemscore.Internal.Correction>
   9.000000E+99

> <Gold.Chemscore.Hbonds>
donor molecule, donor type, donor heavy atom, donor atom, acceptor molecule, acceptor atom, score
      L1  H    14    28       P1  8028  0.89
      P1  H  7989  7998       L1     1  0.06

> <Gold.Chemscore.Hbond.Weighted>
-4.3992

> <Gold.Chemscore.Metal.Weighted>
-0.0000

> <Gold.Chemscore.Lipo.Weighted>
-13.2843

> <Gold.Chemscore.Internal_Hbond.Weighted>
0.0000

> <Gold.Chemscore.DEClash.Weighted>
0.2573

> <Gold.Chemscore.DEInternal.Weighted>
2.3307

> <Gold.Chemscore.Rot.Weighted>
5.0778

> <Gold.Chemscore.Internal.Correction.Weighted>
   9.000000E+99

> <Gold.Protein.RotatedTorsions>
[ 6907 6896 6895 6894 ] final  123.42 input  -60.11 | X-H torsion
[ 7974 7965 7964 7962 ] final  -40.52 input  175.53 | X-H torsion
[ 8008 7997 7996 7995 ] final -159.30 input   59.86 | X-H torsion
[ 10167 10162 10161 10158 ] final   71.24 input  -65.29 | X-H torsion
[ 10718 10713 10712 10709 ] final   97.73 input   66.30 | X-H torsion
[ 10763 10752 10751 10750 ] final -106.45 input  -60.55 | X-H torsion
[ 11005 11000 10999 10996 ] final  176.66 input  -57.11 | X-H torsion

> <Gold.Protein.ActiveResidues>
 VAL166  LYS551  ARG553  GLY616  TRP617  ASP618  TYR619  PRO620  LYS621  CYS622 
 ASP623  PHE694  ASN695  SER759  ASP760  ASP761  ALA762  ILE779  LEU786  VAL792 
 PHE793  MET794  SER795  GLU796  ALA797  LYS798  CYS799  TRP800  GLU811  SER814 

> <Gold.Protein.RotatedAtoms>
  152.4163  133.7043  159.6441 H   0  0  0  0  0  0  0  0  0  0  0  0  # atno 6907 bound_to 6896
  150.8040  133.8535  159.3220 H   0  0  0  0  0  0  0  0  0  0  0  0  # atno 6908 bound_to 6896
  151.6264  135.1029  160.0164 H   0  0  0  0  0  0  0  0  0  0  0  0  # atno 6909 bound_to 6896
  146.0297  140.6747  142.9138 H   0  0  0  0  0  0  0  0  0  0  0  0  # atno 7974 bound_to 7965
  155.7604  140.0838  157.2158 H   0  0  0  0  0  0  0  0  0  0  0  0  # atno 8008 bound_to 7997
  154.4004  140.1544  156.2883 H   0  0  0  0  0  0  0  0  0  0  0  0  # atno 8009 bound_to 7997
  155.8844  140.3419  155.5914 H   0  0  0  0  0  0  0  0  0  0  0  0  # atno 8010 bound_to 7997
  140.0482  144.5333  150.7383 H   0  0  0  0  0  0  0  0  0  0  0  0  # atno 10167 bound_to 10162
  157.6907  131.0618  150.4689 H   0  0  0  0  0  0  0  0  0  0  0  0  # atno 10718 bound_to 10713
  154.8013  135.4711  154.0283 H   0  0  0  0  0  0  0  0  0  0  0  0  # atno 10763 bound_to 10752
  153.1786  135.6837  153.8516 H   0  0  0  0  0  0  0  0  0  0  0  0  # atno 10764 bound_to 10752
  153.8074  135.3221  155.3374 H   0  0  0  0  0  0  0  0  0  0  0  0  # atno 10765 bound_to 10752
  140.3755  134.6992  157.4419 H   0  0  0  0  0  0  0  0  0  0  0  0  # atno 11005 bound_to 11000
  144.7025  140.3713  143.7145 LP  0  0  0  0  0  0  0  0  0  0  0  0  # atno 17320 bound_to 7965
  145.7061  139.1673  143.2565 LP  0  0  0  0  0  0  0  0  0  0  0  0  # atno 17321 bound_to 7965
  140.7229  143.2606  151.4219 LP  0  0  0  0  0  0  0  0  0  0  0  0  # atno 17342 bound_to 10162
  139.5970  144.1377  152.2155 LP  0  0  0  0  0  0  0  0  0  0  0  0  # atno 17343 bound_to 10162
  156.5028  130.4121  149.6343 LP  0  0  0  0  0  0  0  0  0  0  0  0  # atno 17370 bound_to 10713
  156.3312  130.7332  151.2262 LP  0  0  0  0  0  0  0  0  0  0  0  0  # atno 17371 bound_to 10713
  140.0519  134.6119  155.8852 LP  0  0  0  0  0  0  0  0  0  0  0  0  # atno 17394 bound_to 11000
  141.1941  133.6581  156.5577 LP  0  0  0  0  0  0  0  0  0  0  0  0  # atno 17395 bound_to 11000

$$$$
