AV-unprocessed.smi:2078|AV-procd|sdf|8465|dock10
  -GOLD-   2272011163D 1   1.00000     0.00000
 Structure written by MMmdl.
 42 43  0  0  0  0  0  0  0  0  2 V2000
  152.6670  138.5696  158.1713 C   0  0  0  0  0  0  0  0  0  0  0  0
  152.0852  138.9309  156.8479 C   0  0  0  0  0  0  0  0  0  0  0  0
  150.8418  138.7738  156.3028 C   0  0  0  0  0  0  0  0  0  0  0  0
  150.9841  139.3495  155.0123 C   0  0  0  0  0  0  0  0  0  0  0  0
  149.8910  139.3967  154.1095 N   0  0  0  0  0  0  0  0  0  0  0  0
  148.7169  138.7515  154.2166 C   0  0  0  0  0  0  0  0  0  0  0  0
  148.3847  138.0325  155.1596 O   0  0  0  0  0  0  0  0  0  0  0  0
  147.9304  138.9807  153.1549 N   0  0  0  0  0  0  0  0  0  0  0  0
  146.5961  138.4190  152.9780 C   0  0  0  0  0  0  0  0  0  0  0  0
  146.3925  137.8786  151.5487 C   0  0  0  0  0  0  0  0  0  0  0  0
  145.5431  136.6618  151.5223 N   0  3  1  0  0  0  0  0  0  0  0  0
  145.7686  135.8435  150.3031 C   0  0  0  0  0  0  0  0  0  0  0  0
  144.7706  134.6771  150.2262 C   0  0  0  0  0  0  0  0  0  0  0  0
  144.8333  133.8113  151.4928 C   0  0  0  0  0  0  0  0  0  0  0  0
  144.6653  134.6649  152.7634 C   0  0  2  0  0  0  0  0  0  0  0  0
  143.2158  135.1327  152.9827 C   0  0  0  0  0  0  0  0  0  0  0  0
  145.6626  135.8416  152.7589 C   0  0  0  0  0  0  0  0  0  0  0  0
  152.2041  139.8132  154.7890 N   0  0  0  0  0  0  0  0  0  0  0  0
  152.9163  139.5468  155.9641 O   0  0  0  0  0  0  0  0  0  0  0  0
  151.9263  138.0783  158.8024 H   0  0  0  0  0  0  0  0  0  0  0  0
  153.0190  139.4594  158.6936 H   0  0  0  0  0  0  0  0  0  0  0  0
  153.5119  137.8915  158.0503 H   0  0  0  0  0  0  0  0  0  0  0  0
  149.9728  138.3225  156.7580 H   0  0  0  0  0  0  0  0  0  0  0  0
  150.0269  139.9650  153.2865 H   0  0  0  0  0  0  0  0  0  0  0  0
  148.2747  139.5879  152.4250 H   0  0  0  0  0  0  0  0  0  0  0  0
  146.4364  137.6443  153.7285 H   0  0  0  0  0  0  0  0  0  0  0  0
  145.8676  139.2035  153.1844 H   0  0  0  0  0  0  0  0  0  0  0  0
  145.9191  138.6647  150.9586 H   0  0  0  0  0  0  0  0  0  0  0  0
  147.3460  137.6648  151.0632 H   0  0  0  0  0  0  0  0  0  0  0  0
  145.6574  136.4644  149.4133 H   0  0  0  0  0  0  0  0  0  0  0  0
  146.7926  135.4662  150.3007 H   0  0  0  0  0  0  0  0  0  0  0  0
  143.7610  135.0655  150.0894 H   0  0  0  0  0  0  0  0  0  0  0  0
  144.9835  134.0651  149.3493 H   0  0  0  0  0  0  0  0  0  0  0  0
  144.0770  133.0265  151.4549 H   0  0  0  0  0  0  0  0  0  0  0  0
  145.7980  133.3032  151.5280 H   0  0  0  0  0  0  0  0  0  0  0  0
  144.9137  134.0301  153.6151 H   0  0  0  0  0  0  0  0  0  0  0  0
  142.8764  135.7960  152.1872 H   0  0  0  0  0  0  0  0  0  0  0  0
  143.1187  135.6731  153.9247 H   0  0  0  0  0  0  0  0  0  0  0  0
  142.5321  134.2840  153.0215 H   0  0  0  0  0  0  0  0  0  0  0  0
  146.6819  135.4590  152.8335 H   0  0  0  0  0  0  0  0  0  0  0  0
  145.5007  136.4533  153.6458 H   0  0  0  0  0  0  0  0  0  0  0  0
  144.5867  136.9823  151.4718 H   0  0  0  0  0  0  0  0  0  0  0  0
  1  2  1  0  0  0  0
  1 20  1  0  0  0  0
  1 21  1  0  0  0  0
  1 22  1  0  0  0  0
  2 19  1  0  0  0  0
  2  3  2  0  0  0  0
  3  4  1  0  0  0  0
  3 23  1  0  0  0  0
  4  5  1  0  0  0  0
  4 18  2  0  0  0  0
  5  6  1  0  0  0  0
  5 24  1  0  0  0  0
  6  7  2  0  0  0  0
  6  8  1  0  0  0  0
  8  9  1  0  0  0  0
  8 25  1  0  0  0  0
  9 10  1  0  0  0  0
  9 26  1  0  0  0  0
  9 27  1  0  0  0  0
 10 11  1  0  0  0  0
 10 28  1  0  0  0  0
 10 29  1  0  0  0  0
 11 17  1  0  0  0  0
 11 12  1  0  0  0  0
 11 42  1  0  0  0  0
 12 13  1  0  0  0  0
 12 30  1  0  0  0  0
 12 31  1  0  0  0  0
 13 14  1  0  0  0  0
 13 32  1  0  0  0  0
 13 33  1  0  0  0  0
 14 15  1  0  0  0  0
 14 34  1  0  0  0  0
 14 35  1  0  0  0  0
 15 16  1  0  0  0  0
 15 17  1  0  0  0  0
 15 36  1  0  0  0  0
 16 37  1  0  0  0  0
 16 38  1  0  0  0  0
 16 39  1  0  0  0  0
 17 40  1  0  0  0  0
 17 41  1  0  0  0  0
 18 19  1  0  0  0  0
M  CHG  1  11   1
M  END
> <s_m_source_file>
AV-unprocessed.smi

> <i_m_source_file_index>
2078

> <i_lp_mmshare_version>
43012

> <i_f3d_flags>
0

> <s_epik_input>
W0NIM11jMVtjSF1jKG5vMSlbTkhdQyg9TylbTkhdW0NIMl1bQ0gyXU4yW0NIMl1bQ0gyXVtDSDJdW0NAQEhdKFtDSDNdKVtDSDJdMg==

> <s_epik_cmdline>
J2VwaWtfcHl0aG9uJywgJy1waCcsICc3LjAnLCAnLXRuJywgJzgnLCAnLW1hJywgJzIwMCcsICctbWV0YWxfYmluZGluZycsICctaW1hZScsICc8aW5maWxlLm1hZT4nLCAnLW9tYWUnLCAnPG91dGZpbGUubWFlPic=

> <r_epik_Ionization_Penalty>
0.00216453

> <r_epik_Ionization_Penalty_Charging>
0.00212879

> <r_epik_Ionization_Penalty_Neutral>
3.57418e-05

> <r_epik_State_Penalty>
0.00146033

> <r_epik_Charging_Adjusted_Penalty>
0.00358912

> <i_epik_Tot_Q>
1

> <i_epik_Tot_abs_Q>
1

> <r_epik_Metal_State_Penalty>
0.0215827

> <b_epik_Metal_Only>
0

> <s_lp_Force_Field>
OPLS_2005

> <r_lp_Energy>
15.3695

> <b_lp_Chiralities_Consistent>
1

> <s_lp_Variant>
AV-unprocessed.smi:2078-3

> <Gold.Version>
5.8.1

> <Gold.Id.Protein>
6NUR|6NUR_protein|mol2

> <Gold.PLP.Fitness>
39.4863

> <Gold.PLP.PLP>
-29.0927

> <Gold.PLP.part.hbond>
-5.3437

> <Gold.PLP.part.metal>
0.0000

> <Gold.PLP.part.buried>
-1.0692

> <Gold.PLP.part.nonpolar>
-23.8001

> <Gold.PLP.part.repulsive>
0.3528

> <Gold.PLP.ligand.clash>
0.0009

> <Gold.PLP.ligand.torsion>
0.6668

> <Gold.PLP.Chemscore.Hbond>
3.9040

> <Gold.PLP.Chemscore.CHOScore>
0.0000

> <Gold.PLP.Chemscore.Metal>
0.0000

> <Gold.Chemscore.Hbonds>
donor molecule, donor type, donor heavy atom, donor atom, acceptor molecule, acceptor atom, score
      L1  H     5    24       P1  7957  0.56
      L1  H     8    25       P1  7957  1.00
      L1  H    11    42       P1 10171  0.01
      P1  H  7989  7998       L1    18  0.54
      P1  H  7997  8009       L1    19  1.00

> <Gold.PLP.Chemscore.Internal.Correction>
0.0162

> <Gold.Rescore>
     Score         DG    S(hbond)    S(metal)    S(lipo)     H(rot)  DE(clash)    DE(int)     intcor
     16.26     -20.21       3.50        0.00      60.20       1.57       1.93       2.02       ----

> <Gold.Chemscore.Fitness>
16.2613

> <Gold.Chemscore.DG>
-20.2108

> <Gold.Chemscore.ZeroCoef>
-5.4800

> <Gold.Chemscore.Hbond>
3.5046

> <Gold.Chemscore.Metal>
0.0000

> <Gold.Chemscore.Lipo>
60.2035

> <Gold.Chemscore.Internal_Hbond>
0.0000

> <Gold.Chemscore.DEClash>
1.9308

> <Gold.Chemscore.DEInternal>
2.0186

> <Gold.Chemscore.Rot>
1.5697

> <Gold.Chemscore.Internal.Correction>
   9.000000E+99

> <Gold.Chemscore.Hbonds>
donor molecule, donor type, donor heavy atom, donor atom, acceptor molecule, acceptor atom, score
      L1  H     5    24       P1  7957  0.57
      L1  H     8    25       P1  7957  0.94
      L1  H    11    42       P1 10171  0.04
      P1  H  7989  7998       L1    18  0.06
      P1  H  7997  8009       L1    19  0.96

> <Gold.Chemscore.Hbond.Weighted>
-11.7055

> <Gold.Chemscore.Metal.Weighted>
-0.0000

> <Gold.Chemscore.Lipo.Weighted>
-7.0438

> <Gold.Chemscore.Internal_Hbond.Weighted>
0.0000

> <Gold.Chemscore.DEClash.Weighted>
1.9308

> <Gold.Chemscore.DEInternal.Weighted>
2.0186

> <Gold.Chemscore.Rot.Weighted>
4.0185

> <Gold.Chemscore.Internal.Correction.Weighted>
   9.000000E+99

> <Gold.Protein.RotatedTorsions>
[ 6907 6896 6895 6894 ] final   96.60 input  -60.11 | X-H torsion
[ 7974 7965 7964 7962 ] final  -58.09 input  175.53 | X-H torsion
[ 8008 7997 7996 7995 ] final -159.62 input   59.86 | X-H torsion
[ 10167 10162 10161 10158 ] final  115.26 input  -65.29 | X-H torsion
[ 10718 10713 10712 10709 ] final  -33.44 input   66.30 | X-H torsion
[ 10763 10752 10751 10750 ] final   86.49 input  -60.55 | X-H torsion
[ 11005 11000 10999 10996 ] final   -0.38 input  -57.11 | X-H torsion

> <Gold.Protein.ActiveResidues>
 VAL166  LYS551  ARG553  GLY616  TRP617  ASP618  TYR619  PRO620  LYS621  CYS622 
 ASP623  PHE694  ASN695  SER759  ASP760  ASP761  ALA762  ILE779  LEU786  VAL792 
 PHE793  MET794  SER795  GLU796  ALA797  LYS798  CYS799  TRP800  GLU811  SER814 

> <Gold.Protein.RotatedAtoms>
  152.5433  134.0861  159.8256 H   0  0  0  0  0  0  0  0  0  0  0  0  # atno 6907 bound_to 6896
  151.0956  133.5275  159.2620 H   0  0  0  0  0  0  0  0  0  0  0  0  # atno 6908 bound_to 6896
  151.2049  135.0467  159.8942 H   0  0  0  0  0  0  0  0  0  0  0  0  # atno 6909 bound_to 6896
  145.8434  140.8402  143.0023 H   0  0  0  0  0  0  0  0  0  0  0  0  # atno 7974 bound_to 7965
  155.7653  140.0844  157.2135 H   0  0  0  0  0  0  0  0  0  0  0  0  # atno 8008 bound_to 7997
  154.4000  140.1535  156.2936 H   0  0  0  0  0  0  0  0  0  0  0  0  # atno 8009 bound_to 7997
  155.8800  140.3421  155.5884 H   0  0  0  0  0  0  0  0  0  0  0  0  # atno 8010 bound_to 7997
  139.6330  144.7117  151.2393 H   0  0  0  0  0  0  0  0  0  0  0  0  # atno 10167 bound_to 10162
  156.3626  130.4326  149.7611 H   0  0  0  0  0  0  0  0  0  0  0  0  # atno 10718 bound_to 10713
  153.1576  135.4578  154.9726 H   0  0  0  0  0  0  0  0  0  0  0  0  # atno 10763 bound_to 10752
  154.7873  135.3208  154.7860 H   0  0  0  0  0  0  0  0  0  0  0  0  # atno 10764 bound_to 10752
  153.8355  135.6935  153.4863 H   0  0  0  0  0  0  0  0  0  0  0  0  # atno 10765 bound_to 10752
  140.6356  133.9535  155.8298 H   0  0  0  0  0  0  0  0  0  0  0  0  # atno 11005 bound_to 11000
  144.6732  140.0846  143.7468 LP  0  0  0  0  0  0  0  0  0  0  0  0  # atno 17320 bound_to 7965
  145.9439  139.2688  143.1252 LP  0  0  0  0  0  0  0  0  0  0  0  0  # atno 17321 bound_to 7965
  140.7450  143.6446  150.8303 LP  0  0  0  0  0  0  0  0  0  0  0  0  # atno 17342 bound_to 10162
  140.0074  143.5679  152.2852 LP  0  0  0  0  0  0  0  0  0  0  0  0  # atno 17343 bound_to 10162
  156.4769  130.8023  151.3039 LP  0  0  0  0  0  0  0  0  0  0  0  0  # atno 17370 bound_to 10713
  157.7475  131.0018  150.2976 LP  0  0  0  0  0  0  0  0  0  0  0  0  # atno 17371 bound_to 10713
  141.0644  134.0299  157.3614 LP  0  0  0  0  0  0  0  0  0  0  0  0  # atno 17394 bound_to 11000
  139.9099  135.0188  156.7648 LP  0  0  0  0  0  0  0  0  0  0  0  0  # atno 17395 bound_to 11000

$$$$
