#       Name:                AV-unprocessed.smi:1578
#       Creating user name   scv26
#       Creation time:       Fri Mar 27 06:57:07 2020


#       File generated by GOLD software.
#

@<TRIPOS>MOLECULE
AV-unprocessed.smi:1578
    51    52     1
SMALL
NO_CHARGES


@<TRIPOS>ATOM
      1 ****        -2.7367  -1.5918  -3.2057 C.3            1 S1                 0.0000
      2 ****        -2.1210  -0.9314  -1.9654 C.3            1 S1                 0.0000
      3 ****        -2.3921  -1.7605  -0.6894 C.3            1 S1                 0.0000
      4 ****        -1.7648  -1.2520   0.5321 N.3            1 S1                 0.0000
      5 ****        -2.3527   0.0009   0.9973 C.3            1 S1                 0.0000
      6 ****        -1.6448   0.5208   2.2600 C.3            1 S1                 0.0000
      7 ****        -1.7003  -0.4719   3.2797 O.3            1 S1                 0.0000
      8 ****        -1.1115  -1.7058   2.8802 C.3            1 S1                 0.0000
      9 ****        -1.8123  -2.2283   1.6133 C.3            1 S1                 0.0000
     10 ****        -0.6792  -0.7869  -2.1583 N.am           1 S1                 0.0000
     11 ****         0.0360   0.3184  -1.8970 C.2            1 S1                 0.0000
     12 ****        -0.4656   1.4044  -1.6058 O.2            1 S1                 0.0000
     13 ****         1.5601   0.1704  -1.9553 C.3            1 S1                 0.0000
     14 ****         2.1899   0.6361  -0.7085 N.am           1 S1                 0.0000
     15 ****         2.7599   1.9243  -0.7143 C.2            1 S1                 0.0000
     16 ****         3.3285   2.4790   0.3735 C.2            1 S1                 0.0000
     17 ****         3.9799   3.8523   0.3223 C.3            1 S1                 0.0000
     18 ****         3.0714   4.7943   0.5719 F              1 S1                 0.0000
     19 ****         4.9499   3.9590   1.2308 F              1 S1                 0.0000
     20 ****         4.5048   4.0909  -0.8802 F              1 S1                 0.0000
     21 ****         3.3592   1.6642   1.5723 C.2            1 S1                 0.0000
     22 ****         2.8271   0.4267   1.5928 C.2            1 S1                 0.0000
     23 ****         2.1957  -0.1556   0.4069 C.2            1 S1                 0.0000
     24 ****         1.7019  -1.2837   0.4159 O.2            1 S1                 0.0000
     25 ****        -3.8162  -1.6986  -3.0959 H              1 S1                 0.0000
     26 ****        -2.3196  -2.5848  -3.3770 H              1 S1                 0.0000
     27 ****        -2.5544  -0.9945  -4.0997 H              1 S1                 0.0000
     28 ****        -2.5900   0.0480  -1.8631 H              1 S1                 0.0000
     29 ****        -3.4678  -1.8574  -0.5360 H              1 S1                 0.0000
     30 ****        -2.0271  -2.7723  -0.8718 H              1 S1                 0.0000
     31 ****        -2.2907   0.7639   0.2231 H              1 S1                 0.0000
     32 ****        -3.4135  -0.1428   1.2080 H              1 S1                 0.0000
     33 ****        -0.6053   0.7726   2.0423 H              1 S1                 0.0000
     34 ****        -2.1273   1.4297   2.6190 H              1 S1                 0.0000
     35 ****        -0.0445  -1.5637   2.7015 H              1 S1                 0.0000
     36 ****        -1.2073  -2.4269   3.6918 H              1 S1                 0.0000
     37 ****        -2.8497  -2.4738   1.8460 H              1 S1                 0.0000
     38 ****        -1.3345  -3.1560   1.2963 H              1 S1                 0.0000
     39 ****        -0.1722  -1.6254  -2.4019 H              1 S1                 0.0000
     40 ****         1.8357  -0.8677  -2.1518 H              1 S1                 0.0000
     41 ****         1.9263   0.7336  -2.8145 H              1 S1                 0.0000
     42 ****         2.7000   2.4387  -1.6625 H              1 S1                 0.0000
     43 ****         3.8111   2.0546   2.4722 H              1 S1                 0.0000
     44 ****         2.8637  -0.1510   2.5048 H              1 S1                 0.0000
     45 ****        -0.8124  -1.0767   0.2826 LP             1 S1                 0.0000
     46 ****        -2.6585  -0.6360   3.5142 LP             1 S1                 0.0000
     47 ****        -1.2139  -0.1313   4.0843 LP             1 S1                 0.0000
     48 ****        -1.4598   1.4980  -1.5535 LP             1 S1                 0.0000
     49 ****         0.1212   2.1929  -1.4216 LP             1 S1                 0.0000
     50 ****         1.2775  -1.6503  -0.4120 LP             1 S1                 0.0000
     51 ****         1.7254  -1.8331   1.2511 LP             1 S1                 0.0000
@<TRIPOS>BOND
    1    1    2 1     
    2    1   25 1     
    3    1   26 1     
    4    1   27 1     
    5    2    3 1     
    6    2   10 1     
    7    2   28 1     
    8    3    4 1     
    9    3   29 1     
   10    3   30 1     
   11    4    9 1     
   12    4    5 1     
   13    5    6 1     
   14    5   31 1     
   15    5   32 1     
   16    6    7 1     
   17    6   33 1     
   18    6   34 1     
   19    7    8 1     
   20    8    9 1     
   21    8   35 1     
   22    8   36 1     
   23    9   37 1     
   24    9   38 1     
   25   10   11 am    
   26   10   39 1     
   27   11   12 2     
   28   11   13 1     
   29   13   14 1     
   30   13   40 1     
   31   13   41 1     
   32   14   23 am    
   33   14   15 1     
   34   15   16 2     
   35   15   42 1     
   36   16   17 1     
   37   16   21 1     
   38   17   18 1     
   39   17   19 1     
   40   17   20 1     
   41   21   22 2     
   42   21   43 1     
   43   22   23 1     
   44   22   44 1     
   45   23   24 2     
   46    4   45 1     
   47    7   46 1     
   48    7   47 1     
   49   12   48 1     
   50   12   49 1     
   51   24   50 1     
   52   24   51 1     
@<TRIPOS>SUBSTRUCTURE
      1 S1             1
@<TRIPOS>SET
LONE_PAIRS      STATIC     ATOMS    <user>   **** ""
7 45 46 47 48 49 50 51
DONOR_HYDROGENS      STATIC     ATOMS    <user>   **** ""
1 39
ATOM$BLUE        STATIC     ATOMS    COLORGROUP SYSTEM
7 45 46 47 48 49 50 51
ATOM$RED        STATIC     ATOMS    COLORGROUP SYSTEM
1 39
