AV-unprocessed.smi:1856|AV-procd|sdf|7534|dock6
  -GOLD-   22720 9243D 1   1.00000     0.00000
 Structure written by MMmdl.
 44 45  0  0  0  0  0  0  0  0  1 V2000
  144.6227  144.3290  154.2716 C   0  0  0  0  0  0  0  0  0  0  0  0
  145.3779  143.0643  154.6949 C   0  0  0  0  0  0  0  0  0  0  0  0
  146.7642  142.9590  154.0344 C   0  0  0  0  0  0  0  0  0  0  0  0
  147.5295  141.6991  154.4493 C   0  0  0  0  0  0  0  0  0  0  0  0
  147.1836  140.5931  154.0337 O   0  0  0  0  0  0  0  0  0  0  0  0
  148.5640  141.8815  155.2853 N   0  0  0  0  0  0  0  0  0  0  0  0
  149.4138  140.8228  155.8289 C   0  0  1  0  0  0  0  0  0  0  0  0
  150.2207  140.1667  154.7013 C   0  0  0  0  0  0  0  0  0  0  0  0
  150.3104  141.4079  156.8927 C   0  0  0  0  0  0  0  0  0  0  0  0
  150.4606  142.7265  157.0487 N   0  0  0  0  0  0  0  0  0  0  0  0
  151.3547  142.8140  158.0958 C   0  0  0  0  0  0  0  0  0  0  0  0
  151.9083  143.9450  158.7371 C   0  0  0  0  0  0  0  0  0  0  0  0
  152.8186  143.7871  159.8021 C   0  0  0  0  0  0  0  0  0  0  0  0
  153.1879  142.4988  160.2395 C   0  0  0  0  0  0  0  0  0  0  0  0
  152.6489  141.3588  159.6126 C   0  0  0  0  0  0  0  0  0  0  0  0
  151.7398  141.5216  158.5497 C   0  0  0  0  0  0  0  0  0  0  0  0
  151.0410  140.6331  157.7364 N   0  0  0  0  0  0  0  0  0  0  0  0
  151.1128  139.1786  157.7997 C   0  0  0  0  0  0  0  0  0  0  0  0
  151.8790  138.5520  156.6159 C   0  0  2  0  0  0  0  0  0  0  0  0
  151.8018  137.0187  156.5536 C   0  0  0  0  0  0  0  0  0  0  0  0
  153.2351  138.9309  156.7139 O   0  0  0  0  0  0  0  0  0  0  0  0
  143.6444  144.3750  154.7503 H   0  0  0  0  0  0  0  0  0  0  0  0
  144.4663  144.3529  153.1928 H   0  0  0  0  0  0  0  0  0  0  0  0
  145.1724  145.2281  154.5518 H   0  0  0  0  0  0  0  0  0  0  0  0
  145.4794  143.0617  155.7812 H   0  0  0  0  0  0  0  0  0  0  0  0
  144.7796  142.1892  154.4380 H   0  0  0  0  0  0  0  0  0  0  0  0
  146.6530  142.9750  152.9490 H   0  0  0  0  0  0  0  0  0  0  0  0
  147.3693  143.8271  154.2986 H   0  0  0  0  0  0  0  0  0  0  0  0
  148.7680  142.8236  155.5858 H   0  0  0  0  0  0  0  0  0  0  0  0
  148.7651  140.0617  156.2605 H   0  0  0  0  0  0  0  0  0  0  0  0
  150.8465  139.3622  155.0887 H   0  0  0  0  0  0  0  0  0  0  0  0
  150.8739  140.8872  154.2075 H   0  0  0  0  0  0  0  0  0  0  0  0
  149.5628  139.7386  153.9447 H   0  0  0  0  0  0  0  0  0  0  0  0
  151.6313  144.9358  158.4087 H   0  0  0  0  0  0  0  0  0  0  0  0
  153.2350  144.6586  160.2858 H   0  0  0  0  0  0  0  0  0  0  0  0
  153.8850  142.3860  161.0570 H   0  0  0  0  0  0  0  0  0  0  0  0
  152.9294  140.3716  159.9476 H   0  0  0  0  0  0  0  0  0  0  0  0
  151.5638  138.8869  158.7488 H   0  0  0  0  0  0  0  0  0  0  0  0
  150.0941  138.7900  157.8265 H   0  0  0  0  0  0  0  0  0  0  0  0
  151.4985  138.9567  155.6791 H   0  0  0  0  0  0  0  0  0  0  0  0
  150.7782  136.6780  156.3959 H   0  0  0  0  0  0  0  0  0  0  0  0
  152.1677  136.5657  157.4756 H   0  0  0  0  0  0  0  0  0  0  0  0
  152.4010  136.6293  155.7302 H   0  0  0  0  0  0  0  0  0  0  0  0
  153.7686  138.1531  156.6515 H   0  0  0  0  0  0  0  0  0  0  0  0
  1  2  1  0  0  0  0
  1 22  1  0  0  0  0
  1 23  1  0  0  0  0
  1 24  1  0  0  0  0
  2  3  1  0  0  0  0
  2 25  1  0  0  0  0
  2 26  1  0  0  0  0
  3  4  1  0  0  0  0
  3 27  1  0  0  0  0
  3 28  1  0  0  0  0
  4  5  2  0  0  0  0
  4  6  1  0  0  0  0
  6  7  1  0  0  0  0
  6 29  1  0  0  0  0
  7  8  1  0  0  0  0
  7  9  1  0  0  0  0
  7 30  1  0  0  0  0
  8 31  1  0  0  0  0
  8 32  1  0  0  0  0
  8 33  1  0  0  0  0
  9 17  1  0  0  0  0
  9 10  2  0  0  0  0
 10 11  1  0  0  0  0
 11 16  2  0  0  0  0
 11 12  1  0  0  0  0
 12 13  2  0  0  0  0
 12 34  1  0  0  0  0
 13 14  1  0  0  0  0
 13 35  1  0  0  0  0
 14 15  2  0  0  0  0
 14 36  1  0  0  0  0
 15 16  1  0  0  0  0
 15 37  1  0  0  0  0
 16 17  1  0  0  0  0
 17 18  1  0  0  0  0
 18 19  1  0  0  0  0
 18 38  1  0  0  0  0
 18 39  1  0  0  0  0
 19 20  1  0  0  0  0
 19 21  1  0  0  0  0
 19 40  1  0  0  0  0
 20 41  1  0  0  0  0
 20 42  1  0  0  0  0
 20 43  1  0  0  0  0
 21 44  1  0  0  0  0
M  END
> <s_m_source_file>
AV-unprocessed.smi

> <i_m_source_file_index>
1856

> <i_lp_mmshare_version>
43012

> <i_f3d_flags>
0

> <s_epik_input>
W0NIM11bQ0gyXVtDSDJdQyg9TylbTkhdW0NASF0oW0NIM10pYyhuMSluKFtDSDJdW0NASF0oW0NIM10pW09IXSljKGMxMilbY0hdW2NIXVtjSF1bY0hdMg==

> <s_epik_cmdline>
J2VwaWtfcHl0aG9uJywgJy1waCcsICc3LjAnLCAnLXRuJywgJzgnLCAnLW1hJywgJzIwMCcsICctbWV0YWxfYmluZGluZycsICctaW1hZScsICc8aW5maWxlLm1hZT4nLCAnLW9tYWUnLCAnPG91dGZpbGUubWFlPic=

> <r_epik_Ionization_Penalty>
0.134222

> <r_epik_Ionization_Penalty_Charging>
0

> <r_epik_Ionization_Penalty_Neutral>
0.134222

> <r_epik_State_Penalty>
0.123585

> <r_epik_Charging_Adjusted_Penalty>
0.123585

> <i_epik_Tot_Q>
0

> <i_epik_Tot_abs_Q>
0

> <r_epik_Metal_State_Penalty>
0.100548

> <b_epik_Metal_Only>
0

> <s_lp_Force_Field>
OPLS_2005

> <r_lp_Energy>
2.96492

> <b_lp_Chiralities_Consistent>
1

> <s_lp_Variant>
AV-unprocessed.smi:1856-2

> <Gold.Version>
5.8.1

> <Gold.Id.Protein>
6NUR|6NUR_protein|mol2

> <Gold.PLP.Fitness>
45.9693

> <Gold.PLP.PLP>
-41.0313

> <Gold.PLP.part.hbond>
-1.9859

> <Gold.PLP.part.metal>
0.0000

> <Gold.PLP.part.buried>
-4.4351

> <Gold.PLP.part.nonpolar>
-36.7380

> <Gold.PLP.part.repulsive>
1.7138

> <Gold.PLP.ligand.clash>
0.0000

> <Gold.PLP.ligand.torsion>
0.5975

> <Gold.PLP.Chemscore.Hbond>
2.0000

> <Gold.PLP.Chemscore.CHOScore>
0.0000

> <Gold.PLP.Chemscore.Metal>
0.0000

> <Gold.Chemscore.Hbonds>
donor molecule, donor type, donor heavy atom, donor atom, acceptor molecule, acceptor atom, score
      L1  H     6    29       P1  8028  1.00
      P1  H  7997  8010       L1    21  1.00

> <Gold.PLP.Chemscore.Internal.Correction>
0.1329

> <Gold.Rescore>
     Score         DG    S(hbond)    S(metal)    S(lipo)     H(rot)  DE(clash)    DE(int)     intcor
     15.70     -16.87       1.79        0.00      99.64       2.45       0.10       1.06       ----

> <Gold.Chemscore.Fitness>
15.7015

> <Gold.Chemscore.DG>
-16.8655

> <Gold.Chemscore.ZeroCoef>
-5.4800

> <Gold.Chemscore.Hbond>
1.7932

> <Gold.Chemscore.Metal>
0.0000

> <Gold.Chemscore.Lipo>
99.6387

> <Gold.Chemscore.Internal_Hbond>
0.0000

> <Gold.Chemscore.DEClash>
0.1044

> <Gold.Chemscore.DEInternal>
1.0595

> <Gold.Chemscore.Rot>
2.4459

> <Gold.Chemscore.Internal.Correction>
   9.000000E+99

> <Gold.Chemscore.Hbonds>
donor molecule, donor type, donor heavy atom, donor atom, acceptor molecule, acceptor atom, score
      L1  H     6    29       P1  8028  1.00
      P1  H  7997  8010       L1    21  0.29

> <Gold.Chemscore.Hbond.Weighted>
-5.9892

> <Gold.Chemscore.Metal.Weighted>
-0.0000

> <Gold.Chemscore.Lipo.Weighted>
-11.6577

> <Gold.Chemscore.Internal_Hbond.Weighted>
0.0000

> <Gold.Chemscore.DEClash.Weighted>
0.1044

> <Gold.Chemscore.DEInternal.Weighted>
1.0595

> <Gold.Chemscore.Rot.Weighted>
6.2614

> <Gold.Chemscore.Internal.Correction.Weighted>
   9.000000E+99

> <Gold.Protein.RotatedTorsions>
[ 6907 6896 6895 6894 ] final   39.11 input  -60.11 | X-H torsion
[ 7974 7965 7964 7962 ] final   85.26 input  175.53 | X-H torsion
[ 8008 7997 7996 7995 ] final   74.63 input   59.86 | X-H torsion
[ 10167 10162 10161 10158 ] final   89.46 input  -65.29 | X-H torsion
[ 10718 10713 10712 10709 ] final  -73.34 input   66.30 | X-H torsion
[ 10763 10752 10751 10750 ] final  -18.16 input  -60.55 | X-H torsion
[ 11005 11000 10999 10996 ] final    8.45 input  -57.11 | X-H torsion

> <Gold.Protein.ActiveResidues>
 VAL166  LYS551  ARG553  GLY616  TRP617  ASP618  TYR619  PRO620  LYS621  CYS622 
 ASP623  PHE694  ASN695  SER759  ASP760  ASP761  ALA762  ILE779  LEU786  VAL792 
 PHE793  MET794  SER795  GLU796  ALA797  LYS798  CYS799  TRP800  GLU811  SER814 

> <Gold.Protein.RotatedAtoms>
  152.1652  134.8879  160.0538 H   0  0  0  0  0  0  0  0  0  0  0  0  # atno 6907 bound_to 6896
  151.9860  133.3769  159.4134 H   0  0  0  0  0  0  0  0  0  0  0  0  # atno 6908 bound_to 6896
  150.6893  134.3910  159.5120 H   0  0  0  0  0  0  0  0  0  0  0  0  # atno 6909 bound_to 6896
  145.5879  139.2334  143.2316 H   0  0  0  0  0  0  0  0  0  0  0  0  # atno 7974 bound_to 7965
  155.8012  140.3476  155.5403 H   0  0  0  0  0  0  0  0  0  0  0  0  # atno 8008 bound_to 7997
  155.8536  140.0960  157.1679 H   0  0  0  0  0  0  0  0  0  0  0  0  # atno 8009 bound_to 7997
  154.4009  140.1372  156.3862 H   0  0  0  0  0  0  0  0  0  0  0  0  # atno 8010 bound_to 7997
  139.8570  144.6564  150.9103 H   0  0  0  0  0  0  0  0  0  0  0  0  # atno 10167 bound_to 10162
  156.0284  130.4392  150.2728 H   0  0  0  0  0  0  0  0  0  0  0  0  # atno 10718 bound_to 10713
  153.5850  135.7004  153.5447 H   0  0  0  0  0  0  0  0  0  0  0  0  # atno 10763 bound_to 10752
  153.3227  135.4069  155.1430 H   0  0  0  0  0  0  0  0  0  0  0  0  # atno 10764 bound_to 10752
  154.8610  135.3699  154.5380 H   0  0  0  0  0  0  0  0  0  0  0  0  # atno 10765 bound_to 10752
  140.5368  134.0413  155.7891 H   0  0  0  0  0  0  0  0  0  0  0  0  # atno 11005 bound_to 11000
  146.1669  140.6705  142.9251 LP  0  0  0  0  0  0  0  0  0  0  0  0  # atno 17320 bound_to 7965
  144.7364  140.4821  143.6900 LP  0  0  0  0  0  0  0  0  0  0  0  0  # atno 17321 bound_to 7965
  140.7780  143.3777  151.1533 LP  0  0  0  0  0  0  0  0  0  0  0  0  # atno 17342 bound_to 10162
  139.7410  143.8924  152.3050 LP  0  0  0  0  0  0  0  0  0  0  0  0  # atno 17343 bound_to 10162
  157.0831  131.0149  151.3149 LP  0  0  0  0  0  0  0  0  0  0  0  0  # atno 17370 bound_to 10713
  157.4912  130.7823  149.7509 LP  0  0  0  0  0  0  0  0  0  0  0  0  # atno 17371 bound_to 10713
  141.1250  133.9398  157.2654 LP  0  0  0  0  0  0  0  0  0  0  0  0  # atno 17394 bound_to 11000
  139.9525  135.0172  156.9034 LP  0  0  0  0  0  0  0  0  0  0  0  0  # atno 17395 bound_to 11000

$$$$
