AV-unprocessed.smi:682|AV-procd|sdf|3326|dock2
  -GOLD-   22720 0293D 1   1.00000     0.00000
 Structure written by MMmdl.
 41 42  0  0  0  0  0  0  0  0  1 V2000
  145.9630  142.8127  155.2198 C   0  0  0  0  0  0  0  0  0  0  0  0
  145.8416  141.4526  155.6179 O   0  0  0  0  0  0  0  0  0  0  0  0
  147.0528  140.7132  155.8241 C   0  0  1  0  0  0  0  0  0  0  0  0
  148.0407  141.5346  156.6627 C   0  0  0  0  0  0  0  0  0  0  0  0
  146.7290  139.2670  156.2444 C   0  0  0  0  0  0  0  0  0  0  0  0
  146.6661  138.8820  154.7647 C   0  0  1  0  0  0  0  0  0  0  0  0
  145.2946  138.9461  154.2591 N   0  0  0  0  0  0  0  0  0  0  0  0
  144.3225  138.0802  154.5735 C   0  0  0  0  0  0  0  0  0  0  0  0
  144.4724  137.1426  155.3568 O   0  0  0  0  0  0  0  0  0  0  0  0
  143.1876  138.3649  153.9151 N   0  0  0  0  0  0  0  0  0  0  0  0
  141.9609  137.6582  153.9762 C   0  0  0  0  0  0  0  0  0  0  0  0
  141.6726  136.4034  154.5837 C   0  0  0  0  0  0  0  0  0  0  0  0
  140.3981  136.0794  154.4224 N   0  0  0  0  0  0  0  0  0  0  0  0
  139.8595  137.1063  153.7212 N   0  0  0  0  0  0  0  0  0  0  0  0
  138.4564  137.0640  153.3685 C   0  0  0  0  0  0  0  0  0  0  0  0
  140.7866  138.0888  153.4360 C   0  0  0  0  0  0  0  0  0  0  0  0
  147.5218  140.1387  154.4473 C   0  0  0  0  0  0  0  0  0  0  0  0
  147.1784  140.9611  153.1940 C   0  0  0  0  0  0  0  0  0  0  0  0
  149.0222  139.8322  154.3288 C   0  0  0  0  0  0  0  0  0  0  0  0
  144.9808  143.2831  155.2635 H   0  0  0  0  0  0  0  0  0  0  0  0
  146.3155  142.9006  154.1924 H   0  0  0  0  0  0  0  0  0  0  0  0
  146.6297  143.3793  155.8687 H   0  0  0  0  0  0  0  0  0  0  0  0
  149.0065  141.0386  156.7540 H   0  0  0  0  0  0  0  0  0  0  0  0
  147.6839  141.6865  157.6810 H   0  0  0  0  0  0  0  0  0  0  0  0
  148.2175  142.5145  156.2191 H   0  0  0  0  0  0  0  0  0  0  0  0
  147.5616  138.7867  156.7608 H   0  0  0  0  0  0  0  0  0  0  0  0
  145.8005  139.1205  156.7960 H   0  0  0  0  0  0  0  0  0  0  0  0
  147.1728  137.9378  154.5563 H   0  0  0  0  0  0  0  0  0  0  0  0
  145.0871  139.6812  153.5989 H   0  0  0  0  0  0  0  0  0  0  0  0
  143.2111  139.1567  153.2895 H   0  0  0  0  0  0  0  0  0  0  0  0
  142.3198  135.7285  155.1238 H   0  0  0  0  0  0  0  0  0  0  0  0
  138.1939  137.9371  152.7703 H   0  0  0  0  0  0  0  0  0  0  0  0
  137.8484  137.0575  154.2735 H   0  0  0  0  0  0  0  0  0  0  0  0
  138.2479  136.1631  152.7905 H   0  0  0  0  0  0  0  0  0  0  0  0
  140.5359  138.9832  152.8847 H   0  0  0  0  0  0  0  0  0  0  0  0
  147.3946  140.4047  152.2814 H   0  0  0  0  0  0  0  0  0  0  0  0
  147.7517  141.8878  153.1574 H   0  0  0  0  0  0  0  0  0  0  0  0
  146.1263  141.2414  153.1478 H   0  0  0  0  0  0  0  0  0  0  0  0
  149.2407  139.2581  153.4277 H   0  0  0  0  0  0  0  0  0  0  0  0
  149.3871  139.2450  155.1716 H   0  0  0  0  0  0  0  0  0  0  0  0
  149.6187  140.7441  154.2870 H   0  0  0  0  0  0  0  0  0  0  0  0
  1  2  1  0  0  0  0
  1 20  1  0  0  0  0
  1 21  1  0  0  0  0
  1 22  1  0  0  0  0
  2  3  1  0  0  0  0
  3 17  1  0  0  0  0
  3  4  1  0  0  0  0
  3  5  1  0  0  0  0
  4 23  1  0  0  0  0
  4 24  1  0  0  0  0
  4 25  1  0  0  0  0
  5  6  1  0  0  0  0
  5 26  1  0  0  0  0
  5 27  1  0  0  0  0
  6  7  1  0  0  0  0
  6 17  1  0  0  0  0
  6 28  1  0  0  0  0
  7  8  1  0  0  0  0
  7 29  1  0  0  0  0
  8  9  2  0  0  0  0
  8 10  1  0  0  0  0
 10 11  1  0  0  0  0
 10 30  1  0  0  0  0
 11 16  2  0  0  0  0
 11 12  1  0  0  0  0
 12 13  2  0  0  0  0
 12 31  1  0  0  0  0
 13 14  1  0  0  0  0
 14 15  1  0  0  0  0
 14 16  1  0  0  0  0
 15 32  1  0  0  0  0
 15 33  1  0  0  0  0
 15 34  1  0  0  0  0
 16 35  1  0  0  0  0
 17 18  1  0  0  0  0
 17 19  1  0  0  0  0
 18 36  1  0  0  0  0
 18 37  1  0  0  0  0
 18 38  1  0  0  0  0
 19 39  1  0  0  0  0
 19 40  1  0  0  0  0
 19 41  1  0  0  0  0
M  END
> <s_m_source_file>
AV-unprocessed.smi

> <i_m_source_file_index>
682

> <i_lp_mmshare_version>
43012

> <i_f3d_flags>
0

> <s_epik_input>
W0NIM11PW0NAQF0xKFtDSDNdKVtDSDJdW0NASF0oQzEoW0NIM10pW0NIM10pW05IXUMoPU8pW05IXWMyW2NIXW5uKFtDSDNdKVtjSF0y

> <s_epik_cmdline>
J2VwaWtfcHl0aG9uJywgJy1waCcsICc3LjAnLCAnLXRuJywgJzgnLCAnLW1hJywgJzIwMCcsICctbWV0YWxfYmluZGluZycsICctaW1hZScsICc8aW5maWxlLm1hZT4nLCAnLW9tYWUnLCAnPG91dGZpbGUubWFlPic=

> <r_lp_tautomer_probability>
1

> <r_epik_Ionization_Penalty>
0.000192302

> <r_epik_Ionization_Penalty_Charging>
0

> <r_epik_Ionization_Penalty_Neutral>
0.000192302

> <r_epik_State_Penalty>
-0

> <r_epik_Charging_Adjusted_Penalty>
0

> <i_epik_Tot_Q>
0

> <i_epik_Tot_abs_Q>
0

> <r_epik_Metal_State_Penalty>
-0

> <b_epik_Metal_Only>
0

> <s_lp_Force_Field>
OPLS_2005

> <r_lp_Energy>
26.143

> <b_lp_Chiralities_Consistent>
1

> <s_lp_Variant>
AV-unprocessed.smi:682-1

> <Gold.Version>
5.8.1

> <Gold.Id.Protein>
6NUR|6NUR_protein|mol2

> <Gold.PLP.Fitness>
35.1329

> <Gold.PLP.PLP>
-23.7200

> <Gold.PLP.part.hbond>
-3.0000

> <Gold.PLP.part.metal>
0.0000

> <Gold.PLP.part.buried>
-4.1614

> <Gold.PLP.part.nonpolar>
-17.9293

> <Gold.PLP.part.repulsive>
0.1865

> <Gold.PLP.ligand.clash>
0.0000

> <Gold.PLP.ligand.torsion>
0.3186

> <Gold.PLP.Chemscore.Hbond>
2.8873

> <Gold.PLP.Chemscore.CHOScore>
1.0000

> <Gold.PLP.Chemscore.Metal>
0.0000

> <Gold.Chemscore.Hbonds>
donor molecule, donor type, donor heavy atom, donor atom, acceptor molecule, acceptor atom, score
      L1  H     7    29       P1 10175  0.88
      L1  H    10    30       P1 10175  1.00
      P1  H 11000 11005       L1    13  0.84
      L1  C    16    35       P1 10160  1.00

> <Gold.PLP.Chemscore.Internal.Correction>
0.3884

> <Gold.Rescore>
     Score         DG    S(hbond)    S(metal)    S(lipo)     H(rot)  DE(clash)    DE(int)     intcor
     15.94     -17.56       2.67        0.00      54.10       1.23       0.13       1.50       ----

> <Gold.Chemscore.Fitness>
15.9358

> <Gold.Chemscore.DG>
-17.5603

> <Gold.Chemscore.ZeroCoef>
-5.4800

> <Gold.Chemscore.Hbond>
2.6674

> <Gold.Chemscore.Metal>
0.0000

> <Gold.Chemscore.Lipo>
54.0967

> <Gold.Chemscore.Internal_Hbond>
0.0000

> <Gold.Chemscore.DEClash>
0.1256

> <Gold.Chemscore.DEInternal>
1.4988

> <Gold.Chemscore.Rot>
1.2336

> <Gold.Chemscore.Internal.Correction>
   9.000000E+99

> <Gold.Chemscore.Hbonds>
donor molecule, donor type, donor heavy atom, donor atom, acceptor molecule, acceptor atom, score
      L1  H     7    29       P1 10175  0.85
      L1  H    10    30       P1 10175  0.97
      P1  H 11000 11005       L1    13  0.39

> <Gold.Chemscore.Hbond.Weighted>
-8.9091

> <Gold.Chemscore.Metal.Weighted>
-0.0000

> <Gold.Chemscore.Lipo.Weighted>
-6.3293

> <Gold.Chemscore.Internal_Hbond.Weighted>
0.0000

> <Gold.Chemscore.DEClash.Weighted>
0.1256

> <Gold.Chemscore.DEInternal.Weighted>
1.4988

> <Gold.Chemscore.Rot.Weighted>
3.1581

> <Gold.Chemscore.Internal.Correction.Weighted>
   9.000000E+99

> <Gold.Protein.RotatedTorsions>
[ 6907 6896 6895 6894 ] final  -16.64 input  -60.11 | X-H torsion
[ 7974 7965 7964 7962 ] final   11.54 input  175.53 | X-H torsion
[ 8008 7997 7996 7995 ] final   40.19 input   59.86 | X-H torsion
[ 10167 10162 10161 10158 ] final -142.68 input  -65.29 | X-H torsion
[ 10718 10713 10712 10709 ] final -136.17 input   66.30 | X-H torsion
[ 10763 10752 10751 10750 ] final  -24.91 input  -60.55 | X-H torsion
[ 11005 11000 10999 10996 ] final   63.78 input  -57.11 | X-H torsion

> <Gold.Protein.ActiveResidues>
 VAL166  LYS551  ARG553  GLY616  TRP617  ASP618  TYR619  PRO620  LYS621  CYS622 
 ASP623  PHE694  ASN695  SER759  ASP760  ASP761  ALA762  ILE779  LEU786  VAL792 
 PHE793  MET794  SER795  GLU796  ALA797  LYS798  CYS799  TRP800  GLU811  SER814 

> <Gold.Protein.RotatedAtoms>
  151.3055  135.0780  159.9253 H   0  0  0  0  0  0  0  0  0  0  0  0  # atno 6907 bound_to 6896
  152.5289  133.9790  159.7808 H   0  0  0  0  0  0  0  0  0  0  0  0  # atno 6908 bound_to 6896
  151.0084  133.5937  159.2716 H   0  0  0  0  0  0  0  0  0  0  0  0  # atno 6909 bound_to 6896
  146.2369  139.9471  142.8475 H   0  0  0  0  0  0  0  0  0  0  0  0  # atno 7974 bound_to 7965
  155.2490  140.3351  155.4284 H   0  0  0  0  0  0  0  0  0  0  0  0  # atno 8008 bound_to 7997
  156.2224  140.1814  156.7489 H   0  0  0  0  0  0  0  0  0  0  0  0  # atno 8009 bound_to 7997
  154.5845  140.0648  156.9137 H   0  0  0  0  0  0  0  0  0  0  0  0  # atno 8010 bound_to 7997
  139.8066  143.7760  152.2661 H   0  0  0  0  0  0  0  0  0  0  0  0  # atno 10167 bound_to 10162
  156.2742  130.7283  151.1260 H   0  0  0  0  0  0  0  0  0  0  0  0  # atno 10718 bound_to 10713
  153.6914  135.6961  153.5089 H   0  0  0  0  0  0  0  0  0  0  0  0  # atno 10763 bound_to 10752
  153.2410  135.4306  155.0697 H   0  0  0  0  0  0  0  0  0  0  0  0  # atno 10764 bound_to 10752
  154.8371  135.3508  154.6455 H   0  0  0  0  0  0  0  0  0  0  0  0  # atno 10765 bound_to 10752
  140.0002  134.6454  155.9944 H   0  0  0  0  0  0  0  0  0  0  0  0  # atno 11005 bound_to 11000
  145.1897  140.9806  143.4218 LP  0  0  0  0  0  0  0  0  0  0  0  0  # atno 17320 bound_to 7965
  144.9868  139.3729  143.6235 LP  0  0  0  0  0  0  0  0  0  0  0  0  # atno 17321 bound_to 7965
  139.7896  144.7415  150.9973 LP  0  0  0  0  0  0  0  0  0  0  0  0  # atno 17342 bound_to 10162
  140.7819  143.4455  151.0488 LP  0  0  0  0  0  0  0  0  0  0  0  0  # atno 17343 bound_to 10162
  157.7294  131.0625  150.5777 LP  0  0  0  0  0  0  0  0  0  0  0  0  # atno 17370 bound_to 10713
  156.5876  130.4321  149.5950 LP  0  0  0  0  0  0  0  0  0  0  0  0  # atno 17371 bound_to 10713
  141.1636  133.6537  156.4401 LP  0  0  0  0  0  0  0  0  0  0  0  0  # atno 17394 bound_to 11000
  140.4743  134.6724  157.5143 LP  0  0  0  0  0  0  0  0  0  0  0  0  # atno 17395 bound_to 11000

$$$$
