AV-unprocessed.smi:313|AV-procd|sdf|2312|dock2
  -GOLD-   2262022213D 1   1.00000     0.00000
 Structure written by MMmdl.
 50 51  0  0  0  0  0  0  0  0  1 V2000
  150.2532  130.0770  154.4068 C   0  0  0  0  0  0  0  0  0  0  0  0
  151.2666  130.0955  155.5604 C   0  0  0  0  0  0  0  0  0  0  0  0
  151.1274  131.3168  156.4886 C   0  0  1  0  0  0  0  0  0  0  0  0
  152.3859  131.5200  157.3472 C   0  0  0  0  0  0  0  0  0  0  0  0
  150.8584  132.5186  155.7025 N   0  0  0  0  0  0  0  0  0  0  0  0
  150.3837  133.6773  156.1849 C   0  0  0  0  0  0  0  0  0  0  0  0
  150.1169  133.8564  157.3745 O   0  0  0  0  0  0  0  0  0  0  0  0
  150.1621  134.7957  155.1536 C   0  0  1  0  0  0  0  0  0  0  0  0
  148.6745  134.7950  154.7643 C   0  0  0  0  0  0  0  0  0  0  0  0
  150.4787  136.1034  155.7256 N   0  0  0  0  0  0  0  0  0  0  0  0
  151.6127  136.4121  156.3770 C   0  0  0  0  0  0  0  0  0  0  0  0
  152.5222  135.6068  156.5780 O   0  0  0  0  0  0  0  0  0  0  0  0
  151.6870  137.8095  156.9200 C   0  0  0  0  0  0  0  0  0  0  0  0
  150.5680  138.6696  156.9152 C   0  0  0  0  0  0  0  0  0  0  0  0
  150.7033  139.9777  157.4184 C   0  0  0  0  0  0  0  0  0  0  0  0
  151.9619  140.4041  157.9141 C   0  0  0  0  0  0  0  0  0  0  0  0
  152.1678  141.7055  158.4288 N   0  0  0  0  0  0  0  0  0  0  0  0
  152.8016  141.7963  159.7447 C   0  0  0  0  0  0  0  0  0  0  0  0
  153.2674  143.2347  160.0268 C   0  0  0  0  0  0  0  0  0  0  0  0
  152.1769  144.1344  159.8681 O   0  0  0  0  0  0  0  0  0  0  0  0
  151.6802  144.1230  158.5351 C   0  0  0  0  0  0  0  0  0  0  0  0
  151.1464  142.7228  158.1895 C   0  0  0  0  0  0  0  0  0  0  0  0
  153.0354  139.5771  157.9036 N   0  0  0  0  0  0  0  0  0  0  0  0
  152.9018  138.3246  157.4185 C   0  0  0  0  0  0  0  0  0  0  0  0
  150.3652  129.1721  153.8094 H   0  0  0  0  0  0  0  0  0  0  0  0
  150.3866  130.9291  153.7401 H   0  0  0  0  0  0  0  0  0  0  0  0
  149.2299  130.1019  154.7824 H   0  0  0  0  0  0  0  0  0  0  0  0
  151.1405  129.1844  156.1465 H   0  0  0  0  0  0  0  0  0  0  0  0
  152.2774  130.0541  155.1524 H   0  0  0  0  0  0  0  0  0  0  0  0
  150.2847  131.1322  157.1575 H   0  0  0  0  0  0  0  0  0  0  0  0
  152.5926  130.6378  157.9535 H   0  0  0  0  0  0  0  0  0  0  0  0
  152.2693  132.3640  158.0278 H   0  0  0  0  0  0  0  0  0  0  0  0
  153.2630  131.7107  156.7278 H   0  0  0  0  0  0  0  0  0  0  0  0
  151.0448  132.4624  154.7118 H   0  0  0  0  0  0  0  0  0  0  0  0
  150.7742  134.6190  154.2669 H   0  0  0  0  0  0  0  0  0  0  0  0
  148.3800  133.8411  154.3244 H   0  0  0  0  0  0  0  0  0  0  0  0
  148.4655  135.5695  154.0259 H   0  0  0  0  0  0  0  0  0  0  0  0
  148.0287  134.9781  155.6247 H   0  0  0  0  0  0  0  0  0  0  0  0
  149.7725  136.8195  155.6384 H   0  0  0  0  0  0  0  0  0  0  0  0
  149.6124  138.3428  156.5317 H   0  0  0  0  0  0  0  0  0  0  0  0
  149.8359  140.6195  157.4182 H   0  0  0  0  0  0  0  0  0  0  0  0
  152.0835  141.4799  160.5021 H   0  0  0  0  0  0  0  0  0  0  0  0
  153.6628  141.1332  159.8245 H   0  0  0  0  0  0  0  0  0  0  0  0
  153.6456  143.3125  161.0461 H   0  0  0  0  0  0  0  0  0  0  0  0
  154.0863  143.5149  159.3621 H   0  0  0  0  0  0  0  0  0  0  0  0
  150.8826  144.8606  158.4463 H   0  0  0  0  0  0  0  0  0  0  0  0
  152.4673  144.4213  157.8399 H   0  0  0  0  0  0  0  0  0  0  0  0
  150.8439  142.7178  157.1420 H   0  0  0  0  0  0  0  0  0  0  0  0
  150.2649  142.4968  158.7911 H   0  0  0  0  0  0  0  0  0  0  0  0
  153.7958  137.7184  157.4377 H   0  0  0  0  0  0  0  0  0  0  0  0
  1  2  1  0  0  0  0
  1 25  1  0  0  0  0
  1 26  1  0  0  0  0
  1 27  1  0  0  0  0
  2  3  1  0  0  0  0
  2 28  1  0  0  0  0
  2 29  1  0  0  0  0
  3  4  1  0  0  0  0
  3  5  1  0  0  0  0
  3 30  1  0  0  0  0
  4 31  1  0  0  0  0
  4 32  1  0  0  0  0
  4 33  1  0  0  0  0
  5  6  1  0  0  0  0
  5 34  1  0  0  0  0
  6  7  2  0  0  0  0
  6  8  1  0  0  0  0
  8  9  1  0  0  0  0
  8 10  1  0  0  0  0
  8 35  1  0  0  0  0
  9 36  1  0  0  0  0
  9 37  1  0  0  0  0
  9 38  1  0  0  0  0
 10 11  1  0  0  0  0
 10 39  1  0  0  0  0
 11 12  2  0  0  0  0
 11 13  1  0  0  0  0
 13 24  1  0  0  0  0
 13 14  2  0  0  0  0
 14 15  1  0  0  0  0
 14 40  1  0  0  0  0
 15 16  2  0  0  0  0
 15 41  1  0  0  0  0
 16 17  1  0  0  0  0
 16 23  1  0  0  0  0
 17 22  1  0  0  0  0
 17 18  1  0  0  0  0
 18 19  1  0  0  0  0
 18 42  1  0  0  0  0
 18 43  1  0  0  0  0
 19 20  1  0  0  0  0
 19 44  1  0  0  0  0
 19 45  1  0  0  0  0
 20 21  1  0  0  0  0
 21 22  1  0  0  0  0
 21 46  1  0  0  0  0
 21 47  1  0  0  0  0
 22 48  1  0  0  0  0
 22 49  1  0  0  0  0
 23 24  2  0  0  0  0
 24 50  1  0  0  0  0
M  END
> <s_m_source_file>
AV-unprocessed.smi

> <i_m_source_file_index>
313

> <i_lp_mmshare_version>
43012

> <i_f3d_flags>
0

> <s_epik_input>
W0NIM11bQ0gyXVtDQEhdKFtDSDNdKVtOSF1DKD1PKVtDQEhdKFtDSDNdKVtOSF1DKD1PKWMxW2NIXVtjSF1jKG5bY0hdMSlOMltDSDJdW0NIMl1PW0NIMl1bQ0gyXTI=

> <s_epik_cmdline>
J2VwaWtfcHl0aG9uJywgJy1waCcsICc3LjAnLCAnLXRuJywgJzgnLCAnLW1hJywgJzIwMCcsICctbWV0YWxfYmluZGluZycsICctaW1hZScsICc8aW5maWxlLm1hZT4nLCAnLW9tYWUnLCAnPG91dGZpbGUubWFlPic=

> <r_lp_tautomer_probability>
1

> <r_epik_Ionization_Penalty>
9.96442e-06

> <r_epik_Ionization_Penalty_Charging>
0

> <r_epik_Ionization_Penalty_Neutral>
9.96442e-06

> <r_epik_State_Penalty>
-0

> <r_epik_Charging_Adjusted_Penalty>
0

> <i_epik_Tot_Q>
0

> <i_epik_Tot_abs_Q>
0

> <r_epik_Metal_State_Penalty>
-0

> <b_epik_Metal_Only>
0

> <s_lp_Force_Field>
OPLS_2005

> <r_lp_Energy>
19.952

> <b_lp_Chiralities_Consistent>
1

> <s_lp_Variant>
AV-unprocessed.smi:313-4

> <Gold.Version>
5.8.1

> <Gold.Id.Protein>
6NUR|6NUR_protein|mol2

> <Gold.PLP.Fitness>
41.0744

> <Gold.PLP.PLP>
-34.5822

> <Gold.PLP.part.hbond>
-3.0000

> <Gold.PLP.part.metal>
0.0000

> <Gold.PLP.part.buried>
-4.9239

> <Gold.PLP.part.nonpolar>
-27.3092

> <Gold.PLP.part.repulsive>
0.1670

> <Gold.PLP.ligand.clash>
0.0000

> <Gold.PLP.ligand.torsion>
1.3756

> <Gold.PLP.Chemscore.Hbond>
2.9120

> <Gold.PLP.Chemscore.CHOScore>
0.0000

> <Gold.PLP.Chemscore.Metal>
0.0000

> <Gold.Chemscore.Hbonds>
donor molecule, donor type, donor heavy atom, donor atom, acceptor molecule, acceptor atom, score
      P1  H  6896  6909       L1     7  0.91
      P1  H  7997  8009       L1    23  0.95
      P1  H 10752 10763       L1    12  1.00

> <Gold.PLP.Chemscore.Internal.Correction>
0.5073

> <Gold.Rescore>
     Score         DG    S(hbond)    S(metal)    S(lipo)     H(rot)  DE(clash)    DE(int)     intcor
     16.99     -19.63       2.57        0.00      86.67       1.79       0.06       2.58       ----

> <Gold.Chemscore.Fitness>
16.9921

> <Gold.Chemscore.DG>
-19.6303

> <Gold.Chemscore.ZeroCoef>
-5.4800

> <Gold.Chemscore.Hbond>
2.5716

> <Gold.Chemscore.Metal>
0.0000

> <Gold.Chemscore.Lipo>
86.6716

> <Gold.Chemscore.Internal_Hbond>
0.0000

> <Gold.Chemscore.DEClash>
0.0563

> <Gold.Chemscore.DEInternal>
2.5819

> <Gold.Chemscore.Rot>
1.7888

> <Gold.Chemscore.Internal.Correction>
   9.000000E+99

> <Gold.Chemscore.Hbonds>
donor molecule, donor type, donor heavy atom, donor atom, acceptor molecule, acceptor atom, score
      P1  H  6896  6909       L1     7  0.85
      P1  H  7997  8009       L1    23  0.20
      P1  H 10752 10763       L1    12  0.92

> <Gold.Chemscore.Hbond.Weighted>
-8.5890

> <Gold.Chemscore.Metal.Weighted>
-0.0000

> <Gold.Chemscore.Lipo.Weighted>
-10.1406

> <Gold.Chemscore.Internal_Hbond.Weighted>
0.0000

> <Gold.Chemscore.DEClash.Weighted>
0.0563

> <Gold.Chemscore.DEInternal.Weighted>
2.5819

> <Gold.Chemscore.Rot.Weighted>
4.5793

> <Gold.Chemscore.Internal.Correction.Weighted>
   9.000000E+99

> <Gold.Protein.RotatedTorsions>
[ 6907 6896 6895 6894 ] final   10.04 input  -60.11 | X-H torsion
[ 7974 7965 7964 7962 ] final   32.08 input  175.53 | X-H torsion
[ 8008 7997 7996 7995 ] final  143.46 input   59.86 | X-H torsion
[ 10167 10162 10161 10158 ] final   64.16 input  -65.29 | X-H torsion
[ 10718 10713 10712 10709 ] final  -32.69 input   66.30 | X-H torsion
[ 10763 10752 10751 10750 ] final  122.22 input  -60.55 | X-H torsion
[ 11005 11000 10999 10996 ] final -147.72 input  -57.11 | X-H torsion

> <Gold.Protein.ActiveResidues>
 VAL166  LYS551  ARG553  GLY616  TRP617  ASP618  TYR619  PRO620  LYS621  CYS622 
 ASP623  PHE694  ASN695  SER759  ASP760  ASP761  ALA762  ILE779  LEU786  VAL792 
 PHE793  MET794  SER795  GLU796  ALA797  LYS798  CYS799  TRP800  GLU811  SER814 

> <Gold.Protein.RotatedAtoms>
  151.7318  135.0873  160.0301 H   0  0  0  0  0  0  0  0  0  0  0  0  # atno 6907 bound_to 6896
  152.3536  133.6205  159.5971 H   0  0  0  0  0  0  0  0  0  0  0  0  # atno 6908 bound_to 6896
  150.7556  133.9451  159.3510 H   0  0  0  0  0  0  0  0  0  0  0  0  # atno 6909 bound_to 6896
  146.1509  139.6572  142.9099 H   0  0  0  0  0  0  0  0  0  0  0  0  # atno 7974 bound_to 7965
  156.2929  140.2262  156.4894 H   0  0  0  0  0  0  0  0  0  0  0  0  # atno 8008 bound_to 7997
  154.7784  140.0462  157.1129 H   0  0  0  0  0  0  0  0  0  0  0  0  # atno 8009 bound_to 7997
  154.9789  140.3076  155.4958 H   0  0  0  0  0  0  0  0  0  0  0  0  # atno 8010 bound_to 7997
  140.1252  144.4694  150.6897 H   0  0  0  0  0  0  0  0  0  0  0  0  # atno 10167 bound_to 10162
  156.3718  130.4341  149.7539 H   0  0  0  0  0  0  0  0  0  0  0  0  # atno 10718 bound_to 10713
  153.6264  135.3404  155.3027 H   0  0  0  0  0  0  0  0  0  0  0  0  # atno 10763 bound_to 10752
  154.8589  135.4285  154.2152 H   0  0  0  0  0  0  0  0  0  0  0  0  # atno 10764 bound_to 10752
  153.3038  135.7026  153.7252 H   0  0  0  0  0  0  0  0  0  0  0  0  # atno 10765 bound_to 10752
  140.7687  134.3214  157.5081 H   0  0  0  0  0  0  0  0  0  0  0  0  # atno 11005 bound_to 11000
  145.4825  141.0438  143.2638 LP  0  0  0  0  0  0  0  0  0  0  0  0  # atno 17320 bound_to 7965
  144.7903  139.6342  143.7116 LP  0  0  0  0  0  0  0  0  0  0  0  0  # atno 17321 bound_to 7965
  140.6849  143.2345  151.5287 LP  0  0  0  0  0  0  0  0  0  0  0  0  # atno 17342 bound_to 10162
  139.5548  144.2304  152.1593 LP  0  0  0  0  0  0  0  0  0  0  0  0  # atno 17343 bound_to 10162
  156.4663  130.7976  151.2995 LP  0  0  0  0  0  0  0  0  0  0  0  0  # atno 17370 bound_to 10713
  157.7484  131.0050  150.3096 LP  0  0  0  0  0  0  0  0  0  0  0  0  # atno 17371 bound_to 10713
  139.8759  134.9247  156.3357 LP  0  0  0  0  0  0  0  0  0  0  0  0  # atno 17394 bound_to 11000
  140.9594  133.7398  156.0381 LP  0  0  0  0  0  0  0  0  0  0  0  0  # atno 17395 bound_to 11000

$$$$
