AV-unprocessed.smi:2751|AV-procd|sdf|10604|dock4
  -GOLD-   2272015 53D 1   1.00000     0.00000
 Structure written by MMmdl.
 33 34  0  0  0  0  0  0  0  0  2 V2000
  153.8237  138.8091  157.7563 O   0  0  0  0  0  0  0  0  0  0  0  0
  152.7192  139.1718  158.1681 C   0  0  0  0  0  0  0  0  0  0  0  0
  152.6371  140.0103  159.2116 N   0  0  0  0  0  0  0  0  0  0  0  0
  153.7650  140.5699  159.9493 C   0  0  0  0  0  0  0  0  0  0  0  0
  153.3153  141.6796  160.9155 C   0  0  0  0  0  0  0  0  0  0  0  0
  152.4103  142.7253  160.2450 C   0  0  1  0  0  0  0  0  0  0  0  0
  152.1218  143.9191  161.1763 C   0  0  0  0  0  0  0  0  0  0  0  0
  151.2791  144.9762  160.4536 C   0  0  0  0  0  0  0  0  0  0  0  0
  151.9537  145.3597  159.1322 C   0  0  0  0  0  0  0  0  0  0  0  0
  152.2603  144.1015  158.3044 C   0  0  0  0  0  0  0  0  0  0  0  0
  153.0590  143.2017  159.0669 O   0  0  0  0  0  0  0  0  0  0  0  0
  151.5177  138.8076  157.6654 N   0  5  0  0  0  0  0  0  0  0  0  0
  151.3998  138.5173  156.3596 C   0  0  0  0  0  0  0  0  0  0  0  0
  152.1390  137.6438  155.6737 N   0  0  0  0  0  0  0  0  0  0  0  0
  151.6560  137.6758  154.3746 C   0  0  0  0  0  0  0  0  0  0  0  0
  150.6247  138.5738  154.3325 C   0  0  0  0  0  0  0  0  0  0  0  0
  150.4515  139.1088  155.5790 O   0  0  0  0  0  0  0  0  0  0  0  0
  151.7138  140.2809  159.5167 H   0  0  0  0  0  0  0  0  0  0  0  0
  154.2358  139.7592  160.5054 H   0  0  0  0  0  0  0  0  0  0  0  0
  154.5178  140.9464  159.2549 H   0  0  0  0  0  0  0  0  0  0  0  0
  152.7763  141.2292  161.7500 H   0  0  0  0  0  0  0  0  0  0  0  0
  154.1891  142.1713  161.3451 H   0  0  0  0  0  0  0  0  0  0  0  0
  151.4683  142.2478  159.9690 H   0  0  0  0  0  0  0  0  0  0  0  0
  151.6046  143.5820  162.0752 H   0  0  0  0  0  0  0  0  0  0  0  0
  153.0616  144.3648  161.5051 H   0  0  0  0  0  0  0  0  0  0  0  0
  150.2826  144.5791  160.2559 H   0  0  0  0  0  0  0  0  0  0  0  0
  151.1480  145.8557  161.0843 H   0  0  0  0  0  0  0  0  0  0  0  0
  151.3168  146.0396  158.5658 H   0  0  0  0  0  0  0  0  0  0  0  0
  152.8815  145.8956  159.3364 H   0  0  0  0  0  0  0  0  0  0  0  0
  151.3395  143.6087  157.9886 H   0  0  0  0  0  0  0  0  0  0  0  0
  152.8028  144.3717  157.3985 H   0  0  0  0  0  0  0  0  0  0  0  0
  152.0784  137.0626  153.5926 H   0  0  0  0  0  0  0  0  0  0  0  0
  149.9606  138.9221  153.5559 H   0  0  0  0  0  0  0  0  0  0  0  0
  1  2  2  0  0  0  0
  2 12  1  0  0  0  0
  2  3  1  0  0  0  0
  3  4  1  0  0  0  0
  3 18  1  0  0  0  0
  4  5  1  0  0  0  0
  4 19  1  0  0  0  0
  4 20  1  0  0  0  0
  5  6  1  0  0  0  0
  5 21  1  0  0  0  0
  5 22  1  0  0  0  0
  6 11  1  0  0  0  0
  6  7  1  0  0  0  0
  6 23  1  0  0  0  0
  7  8  1  0  0  0  0
  7 24  1  0  0  0  0
  7 25  1  0  0  0  0
  8  9  1  0  0  0  0
  8 26  1  0  0  0  0
  8 27  1  0  0  0  0
  9 10  1  0  0  0  0
  9 28  1  0  0  0  0
  9 29  1  0  0  0  0
 10 11  1  0  0  0  0
 10 30  1  0  0  0  0
 10 31  1  0  0  0  0
 12 13  1  0  0  0  0
 13 17  1  0  0  0  0
 13 14  2  0  0  0  0
 14 15  1  0  0  0  0
 15 32  1  0  0  0  0
 15 16  2  0  0  0  0
 16 33  1  0  0  0  0
 16 17  1  0  0  0  0
M  CHG  1  12  -1
M  END
> <s_m_source_file>
AV-unprocessed.smi

> <i_m_source_file_index>
2751

> <i_lp_mmshare_version>
43012

> <i_f3d_flags>
0

> <s_epik_input>
bzFbY0hdW2NIXW5jMVtOSF1DKD1PKVtOSF1bQ0gyXVtDSDJdW0NAQEhdMltDSDJdW0NIMl1bQ0gyXVtDSDJdTzI=

> <s_epik_cmdline>
J2VwaWtfcHl0aG9uJywgJy1waCcsICc3LjAnLCAnLXRuJywgJzgnLCAnLW1hJywgJzIwMCcsICctbWV0YWxfYmluZGluZycsICctaW1hZScsICc8aW5maWxlLm1hZT4nLCAnLW9tYWUnLCAnPG91dGZpbGUubWFlPic=

> <r_lp_tautomer_probability>
0.107061

> <r_epik_Ionization_Penalty>
11.077

> <r_epik_Ionization_Penalty_Charging>
7.79122

> <r_epik_Ionization_Penalty_Neutral>
3.28583

> <r_epik_State_Penalty>
5.8984

> <r_epik_Charging_Adjusted_Penalty>
13.6896

> <i_epik_Tot_Q>
-1

> <i_epik_Tot_abs_Q>
1

> <r_epik_Metal_State_Penalty>
1.82322

> <b_epik_Metal_Only>
1

> <s_lp_Force_Field>
OPLS_2005

> <r_lp_Energy>
3.95886

> <b_lp_Chiralities_Consistent>
1

> <s_lp_Variant>
AV-unprocessed.smi:2751-10

> <Gold.Version>
5.8.1

> <Gold.Id.Protein>
6NUR|6NUR_protein|mol2

> <Gold.PLP.Fitness>
45.9740

> <Gold.PLP.PLP>
-38.4575

> <Gold.PLP.part.hbond>
-0.9562

> <Gold.PLP.part.metal>
0.0000

> <Gold.PLP.part.buried>
-5.7020

> <Gold.PLP.part.nonpolar>
-32.8786

> <Gold.PLP.part.repulsive>
0.1620

> <Gold.PLP.ligand.clash>
0.0000

> <Gold.PLP.ligand.torsion>
0.7674

> <Gold.PLP.Chemscore.Hbond>
1.0000

> <Gold.PLP.Chemscore.CHOScore>
2.0000

> <Gold.PLP.Chemscore.Metal>
0.0000

> <Gold.Chemscore.Hbonds>
donor molecule, donor type, donor heavy atom, donor atom, acceptor molecule, acceptor atom, score
      P1  H  7997  8010       L1     1  1.00
      L1  C    15    32       P1  7949  1.00
      L1  C    16    33       P1  7957  0.68

> <Gold.PLP.Chemscore.Internal.Correction>
0.0513

> <Gold.Rescore>
     Score         DG    S(hbond)    S(metal)    S(lipo)     H(rot)  DE(clash)    DE(int)     intcor
     15.23     -16.09       0.95        0.00      98.70       1.60       0.00       0.85       ----

> <Gold.Chemscore.Fitness>
15.2339

> <Gold.Chemscore.DG>
-16.0866

> <Gold.Chemscore.ZeroCoef>
-5.4800

> <Gold.Chemscore.Hbond>
0.9482

> <Gold.Chemscore.Metal>
0.0000

> <Gold.Chemscore.Lipo>
98.6987

> <Gold.Chemscore.Internal_Hbond>
0.0000

> <Gold.Chemscore.DEClash>
0.0019

> <Gold.Chemscore.DEInternal>
0.8508

> <Gold.Chemscore.Rot>
1.6048

> <Gold.Chemscore.Internal.Correction>
   9.000000E+99

> <Gold.Chemscore.Hbonds>
donor molecule, donor type, donor heavy atom, donor atom, acceptor molecule, acceptor atom, score
      P1  H  7997  8010       L1     1  0.89

> <Gold.Chemscore.Hbond.Weighted>
-3.1671

> <Gold.Chemscore.Metal.Weighted>
-0.0000

> <Gold.Chemscore.Lipo.Weighted>
-11.5478

> <Gold.Chemscore.Internal_Hbond.Weighted>
0.0000

> <Gold.Chemscore.DEClash.Weighted>
0.0019

> <Gold.Chemscore.DEInternal.Weighted>
0.8508

> <Gold.Chemscore.Rot.Weighted>
4.1082

> <Gold.Chemscore.Internal.Correction.Weighted>
   9.000000E+99

> <Gold.Protein.RotatedTorsions>
[ 6907 6896 6895 6894 ] final  143.80 input  -60.11 | X-H torsion
[ 7974 7965 7964 7962 ] final   -6.39 input  175.53 | X-H torsion
[ 8008 7997 7996 7995 ] final   23.36 input   59.86 | X-H torsion
[ 10167 10162 10161 10158 ] final  174.38 input  -65.29 | X-H torsion
[ 10718 10713 10712 10709 ] final  -63.03 input   66.30 | X-H torsion
[ 10763 10752 10751 10750 ] final  168.88 input  -60.55 | X-H torsion
[ 11005 11000 10999 10996 ] final  100.88 input  -57.11 | X-H torsion

> <Gold.Protein.ActiveResidues>
 VAL166  LYS551  ARG553  GLY616  TRP617  ASP618  TYR619  PRO620  LYS621  CYS622 
 ASP623  PHE694  ASN695  SER759  ASP760  ASP761  ALA762  ILE779  LEU786  VAL792 
 PHE793  MET794  SER795  GLU796  ALA797  LYS798  CYS799  TRP800  GLU811  SER814 

> <Gold.Protein.RotatedAtoms>
  152.2018  133.4846  159.5062 H   0  0  0  0  0  0  0  0  0  0  0  0  # atno 6907 bound_to 6896
  150.6971  134.1581  159.4175 H   0  0  0  0  0  0  0  0  0  0  0  0  # atno 6908 bound_to 6896
  151.9499  135.0174  160.0592 H   0  0  0  0  0  0  0  0  0  0  0  0  # atno 6909 bound_to 6896
  146.2332  140.2163  142.8336 H   0  0  0  0  0  0  0  0  0  0  0  0  # atno 7974 bound_to 7965
  154.9798  140.3100  155.4951 H   0  0  0  0  0  0  0  0  0  0  0  0  # atno 8008 bound_to 7997
  156.2955  140.2268  156.4835 H   0  0  0  0  0  0  0  0  0  0  0  0  # atno 8009 bound_to 7997
  154.7800  140.0446  157.1108 H   0  0  0  0  0  0  0  0  0  0  0  0  # atno 8010 bound_to 7997
  139.5140  144.3153  152.0254 H   0  0  0  0  0  0  0  0  0  0  0  0  # atno 10167 bound_to 10162
  156.0817  130.4216  150.1219 H   0  0  0  0  0  0  0  0  0  0  0  0  # atno 10718 bound_to 10713
  154.3750  135.2753  155.2244 H   0  0  0  0  0  0  0  0  0  0  0  0  # atno 10763 bound_to 10752
  154.4375  135.5962  153.6111 H   0  0  0  0  0  0  0  0  0  0  0  0  # atno 10764 bound_to 10752
  152.9836  135.6010  154.3986 H   0  0  0  0  0  0  0  0  0  0  0  0  # atno 10765 bound_to 10752
  139.8772  134.9159  156.4822 H   0  0  0  0  0  0  0  0  0  0  0  0  # atno 11005 bound_to 11000
  144.9667  140.8328  143.5480 LP  0  0  0  0  0  0  0  0  0  0  0  0  # atno 17320 bound_to 7965
  145.2140  139.2191  143.5128 LP  0  0  0  0  0  0  0  0  0  0  0  0  # atno 17321 bound_to 7965
  140.2596  144.4082  150.6190 LP  0  0  0  0  0  0  0  0  0  0  0  0  # atno 17342 bound_to 10162
  140.6167  143.2173  151.6778 LP  0  0  0  0  0  0  0  0  0  0  0  0  # atno 17343 bound_to 10162
  156.9249  130.9695  151.3542 LP  0  0  0  0  0  0  0  0  0  0  0  0  # atno 17370 bound_to 10713
  157.5936  130.8461  149.8696 LP  0  0  0  0  0  0  0  0  0  0  0  0  # atno 17371 bound_to 10713
  140.8719  133.7982  155.9373 LP  0  0  0  0  0  0  0  0  0  0  0  0  # atno 17394 bound_to 11000
  140.8944  134.2456  157.5077 LP  0  0  0  0  0  0  0  0  0  0  0  0  # atno 17395 bound_to 11000

$$$$
