AV-unprocessed.smi:920|AV-procd|sdf|4168|dock10
  -GOLD-   22720 2 73D 1   1.00000     0.00000
 Structure written by MMmdl.
 37 38  0  0  0  0  0  0  0  0  1 V2000
  155.0925  132.3205  159.0528 C   0  0  0  0  0  0  0  0  0  0  0  0
  155.5614  133.4894  158.3893 O   0  0  0  0  0  0  0  0  0  0  0  0
  155.2709  134.7186  158.9450 C   0  0  0  0  0  0  0  0  0  0  0  0
  155.6805  135.8813  158.2624 C   0  0  0  0  0  0  0  0  0  0  0  0
  155.3896  137.1395  158.8237 C   0  0  0  0  0  0  0  0  0  0  0  0
  154.7033  137.1939  160.0600 C   0  0  0  0  0  0  0  0  0  0  0  0
  154.3344  138.3992  160.7159 N   0  0  0  0  0  0  0  0  0  0  0  0
  154.2042  139.6292  160.1904 C   0  0  0  0  0  0  0  0  0  0  0  0
  154.4325  139.9274  159.0181 O   0  0  0  0  0  0  0  0  0  0  0  0
  153.8091  140.5103  161.1208 N   0  0  0  0  0  0  0  0  0  0  0  0
  153.5802  141.9372  160.9083 C   0  0  0  0  0  0  0  0  0  0  0  0
  152.7743  142.5175  162.0864 C   0  0  0  0  0  0  0  0  0  0  0  0
  152.4303  143.9986  161.8588 C   0  0  0  0  0  0  0  0  0  0  0  0
  151.6880  144.2016  160.5285 C   0  0  0  0  0  0  0  0  0  0  0  0
  152.4963  143.6330  159.3517 C   0  0  0  0  0  0  0  0  0  0  0  0
  152.8385  142.1508  159.5748 C   0  0  0  0  0  0  0  0  0  0  0  0
  154.3244  135.9731  160.6550 C   0  0  0  0  0  0  0  0  0  0  0  0
  154.5997  134.7642  160.1222 N   0  0  0  0  0  0  0  0  0  0  0  0
  155.4057  131.4386  158.4944 H   0  0  0  0  0  0  0  0  0  0  0  0
  154.0032  132.3060  159.1109 H   0  0  0  0  0  0  0  0  0  0  0  0
  155.5059  132.2385  160.0589 H   0  0  0  0  0  0  0  0  0  0  0  0
  156.2049  135.8100  157.3208 H   0  0  0  0  0  0  0  0  0  0  0  0
  155.6836  138.0305  158.2910 H   0  0  0  0  0  0  0  0  0  0  0  0
  154.2032  138.3260  161.7141 H   0  0  0  0  0  0  0  0  0  0  0  0
  153.6541  140.1665  162.0572 H   0  0  0  0  0  0  0  0  0  0  0  0
  154.5312  142.4701  160.8522 H   0  0  0  0  0  0  0  0  0  0  0  0
  151.8516  141.9505  162.2189 H   0  0  0  0  0  0  0  0  0  0  0  0
  153.3388  142.4104  163.0134 H   0  0  0  0  0  0  0  0  0  0  0  0
  151.8223  144.3703  162.6842 H   0  0  0  0  0  0  0  0  0  0  0  0
  153.3467  144.5901  161.8592 H   0  0  0  0  0  0  0  0  0  0  0  0
  150.7140  143.7126  160.5740 H   0  0  0  0  0  0  0  0  0  0  0  0
  151.4944  145.2626  160.3685 H   0  0  0  0  0  0  0  0  0  0  0  0
  151.9355  143.7497  158.4242 H   0  0  0  0  0  0  0  0  0  0  0  0
  153.4167  144.2057  159.2304 H   0  0  0  0  0  0  0  0  0  0  0  0
  153.4476  141.7865  158.7465 H   0  0  0  0  0  0  0  0  0  0  0  0
  151.9189  141.5637  159.5639 H   0  0  0  0  0  0  0  0  0  0  0  0
  153.7866  135.9635  161.5919 H   0  0  0  0  0  0  0  0  0  0  0  0
  1  2  1  0  0  0  0
  1 19  1  0  0  0  0
  1 20  1  0  0  0  0
  1 21  1  0  0  0  0
  2  3  1  0  0  0  0
  3 18  1  0  0  0  0
  3  4  2  0  0  0  0
  4  5  1  0  0  0  0
  4 22  1  0  0  0  0
  5  6  2  0  0  0  0
  5 23  1  0  0  0  0
  6  7  1  0  0  0  0
  6 17  1  0  0  0  0
  7  8  1  0  0  0  0
  7 24  1  0  0  0  0
  8  9  2  0  0  0  0
  8 10  1  0  0  0  0
 10 11  1  0  0  0  0
 10 25  1  0  0  0  0
 11 16  1  0  0  0  0
 11 12  1  0  0  0  0
 11 26  1  0  0  0  0
 12 13  1  0  0  0  0
 12 27  1  0  0  0  0
 12 28  1  0  0  0  0
 13 14  1  0  0  0  0
 13 29  1  0  0  0  0
 13 30  1  0  0  0  0
 14 15  1  0  0  0  0
 14 31  1  0  0  0  0
 14 32  1  0  0  0  0
 15 16  1  0  0  0  0
 15 33  1  0  0  0  0
 15 34  1  0  0  0  0
 16 35  1  0  0  0  0
 16 36  1  0  0  0  0
 17 18  2  0  0  0  0
 17 37  1  0  0  0  0
M  END
> <s_m_source_file>
AV-unprocessed.smi

> <i_m_source_file_index>
920

> <i_lp_mmshare_version>
43012

> <i_f3d_flags>
0

> <s_epik_input>
W0NIM11PYzFbY0hdW2NIXWMoW2NIXW4xKVtOSF1DKD1PKVtOSF1bQ0hdMltDSDJdW0NIMl1bQ0gyXVtDSDJdW0NIMl0y

> <s_epik_cmdline>
J2VwaWtfcHl0aG9uJywgJy1waCcsICc3LjAnLCAnLXRuJywgJzgnLCAnLW1hJywgJzIwMCcsICctbWV0YWxfYmluZGluZycsICctaW1hZScsICc8aW5maWxlLm1hZT4nLCAnLW9tYWUnLCAnPG91dGZpbGUubWFlPic=

> <r_lp_tautomer_probability>
1

> <r_epik_Ionization_Penalty>
9.99378e-05

> <r_epik_Ionization_Penalty_Charging>
0

> <r_epik_Ionization_Penalty_Neutral>
9.99378e-05

> <r_epik_State_Penalty>
-0

> <r_epik_Charging_Adjusted_Penalty>
0

> <i_epik_Tot_Q>
0

> <i_epik_Tot_abs_Q>
0

> <r_epik_Metal_State_Penalty>
-0

> <b_epik_Metal_Only>
0

> <s_lp_Force_Field>
OPLS_2005

> <r_lp_Energy>
12.0005

> <b_lp_Chiralities_Consistent>
1

> <s_lp_Variant>
AV-unprocessed.smi:920-1

> <Gold.Version>
5.8.1

> <Gold.Id.Protein>
6NUR|6NUR_protein|mol2

> <Gold.PLP.Fitness>
36.4330

> <Gold.PLP.PLP>
-31.0920

> <Gold.PLP.part.hbond>
-2.0000

> <Gold.PLP.part.metal>
0.0000

> <Gold.PLP.part.buried>
-3.9536

> <Gold.PLP.part.nonpolar>
-24.9547

> <Gold.PLP.part.repulsive>
0.0371

> <Gold.PLP.ligand.clash>
0.0000

> <Gold.PLP.ligand.torsion>
0.3310

> <Gold.PLP.Chemscore.Hbond>
2.0000

> <Gold.PLP.Chemscore.CHOScore>
0.0000

> <Gold.PLP.Chemscore.Metal>
0.0000

> <Gold.Chemscore.Hbonds>
donor molecule, donor type, donor heavy atom, donor atom, acceptor molecule, acceptor atom, score
      P1  H  6896  6909       L1    18  0.71
      P1  H  7997  8009       L1     9  1.00

> <Gold.PLP.Chemscore.Internal.Correction>
0.0031

> <Gold.Rescore>
     Score         DG    S(hbond)    S(metal)    S(lipo)     H(rot)  DE(clash)    DE(int)     intcor
     14.67     -17.76       1.49        0.00      89.38       1.23       0.27       2.83       ----

> <Gold.Chemscore.Fitness>
14.6670

> <Gold.Chemscore.DG>
-17.7640

> <Gold.Chemscore.ZeroCoef>
-5.4800

> <Gold.Chemscore.Hbond>
1.4857

> <Gold.Chemscore.Metal>
0.0000

> <Gold.Chemscore.Lipo>
89.3818

> <Gold.Chemscore.Internal_Hbond>
0.0000

> <Gold.Chemscore.DEClash>
0.2710

> <Gold.Chemscore.DEInternal>
2.8259

> <Gold.Chemscore.Rot>
1.2250

> <Gold.Chemscore.Internal.Correction>
   9.000000E+99

> <Gold.Chemscore.Hbonds>
donor molecule, donor type, donor heavy atom, donor atom, acceptor molecule, acceptor atom, score
      P1  H  6896  6909       L1    18  0.11
      P1  H  7997  8009       L1     9  0.98

> <Gold.Chemscore.Hbond.Weighted>
-4.9623

> <Gold.Chemscore.Metal.Weighted>
-0.0000

> <Gold.Chemscore.Lipo.Weighted>
-10.4577

> <Gold.Chemscore.Internal_Hbond.Weighted>
0.0000

> <Gold.Chemscore.DEClash.Weighted>
0.2710

> <Gold.Chemscore.DEInternal.Weighted>
2.8259

> <Gold.Chemscore.Rot.Weighted>
3.1360

> <Gold.Chemscore.Internal.Correction.Weighted>
   9.000000E+99

> <Gold.Protein.RotatedTorsions>
[ 6907 6896 6895 6894 ] final -141.60 input  -60.11 | X-H torsion
[ 7974 7965 7964 7962 ] final  151.26 input  175.53 | X-H torsion
[ 8008 7997 7996 7995 ] final  122.34 input   59.86 | X-H torsion
[ 10167 10162 10161 10158 ] final -124.61 input  -65.29 | X-H torsion
[ 10718 10713 10712 10709 ] final   79.95 input   66.30 | X-H torsion
[ 10763 10752 10751 10750 ] final   69.81 input  -60.55 | X-H torsion
[ 11005 11000 10999 10996 ] final   76.04 input  -57.11 | X-H torsion

> <Gold.Protein.ActiveResidues>
 VAL166  LYS551  ARG553  GLY616  TRP617  ASP618  TYR619  PRO620  LYS621  CYS622 
 ASP623  PHE694  ASN695  SER759  ASP760  ASP761  ALA762  ILE779  LEU786  VAL792 
 PHE793  MET794  SER795  GLU796  ALA797  LYS798  CYS799  TRP800  GLU811  SER814 

> <Gold.Protein.RotatedAtoms>
  151.0759  133.5428  159.2623 H   0  0  0  0  0  0  0  0  0  0  0  0  # atno 6907 bound_to 6896
  151.2350  135.0567  159.9012 H   0  0  0  0  0  0  0  0  0  0  0  0  # atno 6908 bound_to 6896
  152.5417  134.0543  159.8177 H   0  0  0  0  0  0  0  0  0  0  0  0  # atno 6909 bound_to 6896
  144.8305  139.6514  143.6061 H   0  0  0  0  0  0  0  0  0  0  0  0  # atno 7974 bound_to 7965
  156.2724  140.2788  156.1453 H   0  0  0  0  0  0  0  0  0  0  0  0  # atno 8008 bound_to 7997
  155.0911  140.0388  157.2686 H   0  0  0  0  0  0  0  0  0  0  0  0  # atno 8009 bound_to 7997
  154.6889  140.2625  155.6839 H   0  0  0  0  0  0  0  0  0  0  0  0  # atno 8010 bound_to 7997
  139.9909  143.5642  152.2342 H   0  0  0  0  0  0  0  0  0  0  0  0  # atno 10167 bound_to 10162
  157.6792  130.9937  150.2007 H   0  0  0  0  0  0  0  0  0  0  0  0  # atno 10718 bound_to 10713
  153.0307  135.5197  154.7345 H   0  0  0  0  0  0  0  0  0  0  0  0  # atno 10763 bound_to 10752
  154.6363  135.2906  155.0159 H   0  0  0  0  0  0  0  0  0  0  0  0  # atno 10764 bound_to 10752
  154.1093  135.6624  153.4935 H   0  0  0  0  0  0  0  0  0  0  0  0  # atno 10765 bound_to 10752
  139.9316  134.7568  156.1346 H   0  0  0  0  0  0  0  0  0  0  0  0  # atno 11005 bound_to 11000
  146.2608  139.6407  142.9363 LP  0  0  0  0  0  0  0  0  0  0  0  0  # atno 17320 bound_to 7965
  145.4906  141.0438  143.2595 LP  0  0  0  0  0  0  0  0  0  0  0  0  # atno 17321 bound_to 7965
  139.6341  144.7648  151.2475 LP  0  0  0  0  0  0  0  0  0  0  0  0  # atno 17342 bound_to 10162
  140.7455  143.6429  150.8318 LP  0  0  0  0  0  0  0  0  0  0  0  0  # atno 17343 bound_to 10162
  156.2699  130.3720  149.8043 LP  0  0  0  0  0  0  0  0  0  0  0  0  # atno 17370 bound_to 10713
  156.5763  130.8446  151.3370 LP  0  0  0  0  0  0  0  0  0  0  0  0  # atno 17371 bound_to 10713
  141.0908  133.6715  156.2536 LP  0  0  0  0  0  0  0  0  0  0  0  0  # atno 17394 bound_to 11000
  140.6186  134.5384  157.5544 LP  0  0  0  0  0  0  0  0  0  0  0  0  # atno 17395 bound_to 11000

$$$$
