AV-unprocessed.smi:2145|AV-procd|sdf|8734|dock5
  -GOLD-   2272011503D 1   1.00000     0.00000
 Structure written by MMmdl.
 44 46  0  0  0  0  0  0  0  0  1 V2000
  142.3334  146.2379  155.0752 C   0  0  0  0  0  0  0  0  0  0  0  0
  143.4483  145.9685  154.0661 C   0  0  0  0  0  0  0  0  0  0  0  0
  143.5927  146.7463  153.1235 O   0  0  0  0  0  0  0  0  0  0  0  0
  144.3078  144.7699  154.2822 C   0  0  0  0  0  0  0  0  0  0  0  0
  144.0848  143.9495  155.4104 C   0  0  0  0  0  0  0  0  0  0  0  0
  144.8852  142.8145  155.6402 C   0  0  0  0  0  0  0  0  0  0  0  0
  145.9272  142.4737  154.7558 C   0  0  0  0  0  0  0  0  0  0  0  0
  146.6648  141.3499  155.0603 O   0  0  0  0  0  0  0  0  0  0  0  0
  148.0268  141.3076  154.6549 C   0  0  0  0  0  0  0  0  0  0  0  0
  148.9151  141.3937  155.9053 C   0  0  2  0  0  0  0  0  0  0  0  0
  148.4194  142.4284  156.7323 O   0  0  0  0  0  0  0  0  0  0  0  0
  150.3846  141.6954  155.5474 C   0  0  0  0  0  0  0  0  0  0  0  0
  151.3060  141.3734  156.6292 N   0  0  0  0  0  0  0  0  0  0  0  0
  152.0034  140.2259  156.8142 C   0  0  0  0  0  0  0  0  0  0  0  0
  151.9059  139.0801  155.8575 C   0  0  0  0  0  0  0  0  0  0  0  0
  152.7821  140.1852  157.8953 N   0  0  0  0  0  0  0  0  0  0  0  0
  152.5722  141.4260  158.4658 C   0  0  0  0  0  0  0  0  0  0  0  0
  153.1128  142.0004  159.6386 C   0  0  0  0  0  0  0  0  0  0  0  0
  152.7466  143.3054  160.0285 C   0  0  0  0  0  0  0  0  0  0  0  0
  151.8362  144.0528  159.2537 C   0  0  0  0  0  0  0  0  0  0  0  0
  151.2855  143.4992  158.0819 C   0  0  0  0  0  0  0  0  0  0  0  0
  151.6543  142.1963  157.6964 C   0  0  0  0  0  0  0  0  0  0  0  0
  146.1516  143.2933  153.6224 C   0  0  0  0  0  0  0  0  0  0  0  0
  145.3499  144.4278  153.3894 C   0  0  0  0  0  0  0  0  0  0  0  0
  142.7484  146.3797  156.0731 H   0  0  0  0  0  0  0  0  0  0  0  0
  141.6308  145.4051  155.1014 H   0  0  0  0  0  0  0  0  0  0  0  0
  141.7835  147.1393  154.8035 H   0  0  0  0  0  0  0  0  0  0  0  0
  143.2973  144.1813  156.1133 H   0  0  0  0  0  0  0  0  0  0  0  0
  144.6988  142.2000  156.5088 H   0  0  0  0  0  0  0  0  0  0  0  0
  148.2056  140.3569  154.1501 H   0  0  0  0  0  0  0  0  0  0  0  0
  148.2661  142.1092  153.9535 H   0  0  0  0  0  0  0  0  0  0  0  0
  148.8645  140.4519  156.4522 H   0  0  0  0  0  0  0  0  0  0  0  0
  148.5354  143.2517  156.2827 H   0  0  0  0  0  0  0  0  0  0  0  0
  150.6811  141.1355  154.6602 H   0  0  0  0  0  0  0  0  0  0  0  0
  150.5033  142.7489  155.2907 H   0  0  0  0  0  0  0  0  0  0  0  0
  152.4802  138.2278  156.2222 H   0  0  0  0  0  0  0  0  0  0  0  0
  152.3015  139.3691  154.8836 H   0  0  0  0  0  0  0  0  0  0  0  0
  150.8684  138.7678  155.7400 H   0  0  0  0  0  0  0  0  0  0  0  0
  153.8105  141.4358  160.2390 H   0  0  0  0  0  0  0  0  0  0  0  0
  153.1659  143.7345  160.9267 H   0  0  0  0  0  0  0  0  0  0  0  0
  151.5596  145.0510  159.5601 H   0  0  0  0  0  0  0  0  0  0  0  0
  150.5846  144.0672  157.4885 H   0  0  0  0  0  0  0  0  0  0  0  0
  146.9348  143.0731  152.9131 H   0  0  0  0  0  0  0  0  0  0  0  0
  145.5561  145.0249  152.5139 H   0  0  0  0  0  0  0  0  0  0  0  0
  1  2  1  0  0  0  0
  1 25  1  0  0  0  0
  1 26  1  0  0  0  0
  1 27  1  0  0  0  0
  2  3  2  0  0  0  0
  2  4  1  0  0  0  0
  4 24  1  0  0  0  0
  4  5  2  0  0  0  0
  5  6  1  0  0  0  0
  5 28  1  0  0  0  0
  6  7  2  0  0  0  0
  6 29  1  0  0  0  0
  7  8  1  0  0  0  0
  7 23  1  0  0  0  0
  8  9  1  0  0  0  0
  9 10  1  0  0  0  0
  9 30  1  0  0  0  0
  9 31  1  0  0  0  0
 10 11  1  0  0  0  0
 10 12  1  0  0  0  0
 10 32  1  0  0  0  0
 11 33  1  0  0  0  0
 12 13  1  0  0  0  0
 12 34  1  0  0  0  0
 12 35  1  0  0  0  0
 13 22  1  0  0  0  0
 13 14  1  0  0  0  0
 14 15  1  0  0  0  0
 14 16  2  0  0  0  0
 15 36  1  0  0  0  0
 15 37  1  0  0  0  0
 15 38  1  0  0  0  0
 16 17  1  0  0  0  0
 17 22  2  0  0  0  0
 17 18  1  0  0  0  0
 18 19  2  0  0  0  0
 18 39  1  0  0  0  0
 19 20  1  0  0  0  0
 19 40  1  0  0  0  0
 20 21  2  0  0  0  0
 20 41  1  0  0  0  0
 21 22  1  0  0  0  0
 21 42  1  0  0  0  0
 23 24  2  0  0  0  0
 23 43  1  0  0  0  0
 24 44  1  0  0  0  0
M  END
> <s_m_source_file>
AV-unprocessed.smi

> <i_m_source_file_index>
2145

> <i_lp_mmshare_version>
43012

> <i_f3d_flags>
0

> <s_epik_input>
W0NIM11DKD1PKWMxW2NIXVtjSF1jKFtjSF1bY0hdMSlPW0NIMl1bQ0BIXShbT0hdKVtDSDJdbihjKG4yKVtDSDNdKWMoYzIzKVtjSF1bY0hdW2NIXVtjSF0z

> <s_epik_cmdline>
J2VwaWtfcHl0aG9uJywgJy1waCcsICc3LjAnLCAnLXRuJywgJzgnLCAnLW1hJywgJzIwMCcsICctbWV0YWxfYmluZGluZycsICctaW1hZScsICc8aW5maWxlLm1hZT4nLCAnLW9tYWUnLCAnPG91dGZpbGUubWFlPic=

> <r_lp_tautomer_probability>
0.99995

> <r_epik_Ionization_Penalty>
0.109398

> <r_epik_Ionization_Penalty_Charging>
0

> <r_epik_Ionization_Penalty_Neutral>
0.109398

> <r_epik_State_Penalty>
0.0991698

> <r_epik_Charging_Adjusted_Penalty>
0.0991698

> <i_epik_Tot_Q>
0

> <i_epik_Tot_abs_Q>
0

> <r_epik_Metal_State_Penalty>
0.000107943

> <b_epik_Metal_Only>
0

> <s_lp_Force_Field>
OPLS_2005

> <r_lp_Energy>
22.0083

> <b_lp_Chiralities_Consistent>
1

> <s_lp_Variant>
AV-unprocessed.smi:2145-1

> <Gold.Version>
5.8.1

> <Gold.Id.Protein>
6NUR|6NUR_protein|mol2

> <Gold.PLP.Fitness>
55.9919

> <Gold.PLP.PLP>
-52.6119

> <Gold.PLP.part.hbond>
-4.0000

> <Gold.PLP.part.metal>
0.0000

> <Gold.PLP.part.buried>
-6.9193

> <Gold.PLP.part.nonpolar>
-40.4804

> <Gold.PLP.part.repulsive>
0.1847

> <Gold.PLP.ligand.clash>
0.0000

> <Gold.PLP.ligand.torsion>
1.3375

> <Gold.PLP.Chemscore.Hbond>
1.9920

> <Gold.PLP.Chemscore.CHOScore>
0.0000

> <Gold.PLP.Chemscore.Metal>
0.0000

> <Gold.Chemscore.Hbonds>
donor molecule, donor type, donor heavy atom, donor atom, acceptor molecule, acceptor atom, score
      L1  H    11    33       P1  8028  1.00
      P1  H  7997  8009       L1    16  0.91

> <Gold.PLP.Chemscore.Internal.Correction>
0.0791

> <Gold.Rescore>
     Score         DG    S(hbond)    S(metal)    S(lipo)     H(rot)  DE(clash)    DE(int)     intcor
     16.15     -17.58       1.08        0.00     121.04       2.22       0.25       1.18       ----

> <Gold.Chemscore.Fitness>
16.1529

> <Gold.Chemscore.DG>
-17.5832

> <Gold.Chemscore.ZeroCoef>
-5.4800

> <Gold.Chemscore.Hbond>
1.0834

> <Gold.Chemscore.Metal>
0.0000

> <Gold.Chemscore.Lipo>
121.0386

> <Gold.Chemscore.Internal_Hbond>
0.0000

> <Gold.Chemscore.DEClash>
0.2496

> <Gold.Chemscore.DEInternal>
1.1807

> <Gold.Chemscore.Rot>
2.2176

> <Gold.Chemscore.Internal.Correction>
   9.000000E+99

> <Gold.Chemscore.Hbonds>
donor molecule, donor type, donor heavy atom, donor atom, acceptor molecule, acceptor atom, score
      L1  H    11    33       P1  8028  0.85
      P1  H  7997  8009       L1    16  0.16

> <Gold.Chemscore.Hbond.Weighted>
-3.6186

> <Gold.Chemscore.Metal.Weighted>
-0.0000

> <Gold.Chemscore.Lipo.Weighted>
-14.1615

> <Gold.Chemscore.Internal_Hbond.Weighted>
0.0000

> <Gold.Chemscore.DEClash.Weighted>
0.2496

> <Gold.Chemscore.DEInternal.Weighted>
1.1807

> <Gold.Chemscore.Rot.Weighted>
5.6769

> <Gold.Chemscore.Internal.Correction.Weighted>
   9.000000E+99

> <Gold.Protein.RotatedTorsions>
[ 6907 6896 6895 6894 ] final  -22.39 input  -60.11 | X-H torsion
[ 7974 7965 7964 7962 ] final  113.29 input  175.53 | X-H torsion
[ 8008 7997 7996 7995 ] final  157.46 input   59.86 | X-H torsion
[ 10167 10162 10161 10158 ] final  139.01 input  -65.29 | X-H torsion
[ 10718 10713 10712 10709 ] final  171.62 input   66.30 | X-H torsion
[ 10763 10752 10751 10750 ] final   14.08 input  -60.55 | X-H torsion
[ 11005 11000 10999 10996 ] final   83.20 input  -57.11 | X-H torsion

> <Gold.Protein.ActiveResidues>
 VAL166  LYS551  ARG553  GLY616  TRP617  ASP618  TYR619  PRO620  LYS621  CYS622 
 ASP623  PHE694  ASN695  SER759  ASP760  ASP761  ALA762  ILE779  LEU786  VAL792 
 PHE793  MET794  SER795  GLU796  ALA797  LYS798  CYS799  TRP800  GLU811  SER814 

> <Gold.Protein.RotatedAtoms>
  151.2192  135.0512  159.8942 H   0  0  0  0  0  0  0  0  0  0  0  0  # atno 6907 bound_to 6896
  152.5417  134.0659  159.8183 H   0  0  0  0  0  0  0  0  0  0  0  0  # atno 6908 bound_to 6896
  151.0823  133.5332  159.2651 H   0  0  0  0  0  0  0  0  0  0  0  0  # atno 6909 bound_to 6896
  145.2188  139.2871  143.4229 H   0  0  0  0  0  0  0  0  0  0  0  0  # atno 7974 bound_to 7965
  156.2362  140.1885  156.7112 H   0  0  0  0  0  0  0  0  0  0  0  0  # atno 8008 bound_to 7997
  154.6112  140.0622  156.9523 H   0  0  0  0  0  0  0  0  0  0  0  0  # atno 8009 bound_to 7997
  155.2014  140.3292  155.4345 H   0  0  0  0  0  0  0  0  0  0  0  0  # atno 8010 bound_to 7997
  139.5092  144.6320  151.5794 H   0  0  0  0  0  0  0  0  0  0  0  0  # atno 10167 bound_to 10162
  156.9909  131.0147  151.2857 H   0  0  0  0  0  0  0  0  0  0  0  0  # atno 10718 bound_to 10713
  153.1657  135.6804  153.8678 H   0  0  0  0  0  0  0  0  0  0  0  0  # atno 10763 bound_to 10752
  153.8059  135.3149  155.3396 H   0  0  0  0  0  0  0  0  0  0  0  0  # atno 10764 bound_to 10752
  154.7964  135.4804  154.0261 H   0  0  0  0  0  0  0  0  0  0  0  0  # atno 10765 bound_to 10752
  139.9038  134.8127  156.2277 H   0  0  0  0  0  0  0  0  0  0  0  0  # atno 11005 bound_to 11000
  146.3381  140.2488  142.8598 LP  0  0  0  0  0  0  0  0  0  0  0  0  # atno 17320 bound_to 7965
  144.9785  140.8437  143.5412 LP  0  0  0  0  0  0  0  0  0  0  0  0  # atno 17321 bound_to 7965
  140.6055  143.9531  150.6416 LP  0  0  0  0  0  0  0  0  0  0  0  0  # atno 17342 bound_to 10162
  140.2757  143.3424  152.1197 LP  0  0  0  0  0  0  0  0  0  0  0  0  # atno 17343 bound_to 10162
  157.5459  130.8150  149.8085 LP  0  0  0  0  0  0  0  0  0  0  0  0  # atno 17370 bound_to 10713
  156.0207  130.3796  150.1970 LP  0  0  0  0  0  0  0  0  0  0  0  0  # atno 17371 bound_to 10713
  141.0365  133.6960  156.1521 LP  0  0  0  0  0  0  0  0  0  0  0  0  # atno 17394 bound_to 11000
  140.7019  134.4555  157.5586 LP  0  0  0  0  0  0  0  0  0  0  0  0  # atno 17395 bound_to 11000

$$$$
