AV-unprocessed.smi:99|AV-procd|sdf|891|dock2
  -GOLD-   2262017383D 1   1.00000     0.00000
 Structure written by MMmdl.
 52 55  0  0  0  0  0  0  0  0  2 V2000
  144.0046  134.4492  153.9534 O   0  0  0  0  0  0  0  0  0  0  0  0
  145.0715  134.0424  153.4887 C   0  0  0  0  0  0  0  0  0  0  0  0
  146.2464  134.1161  154.1435 O   0  0  0  0  0  0  0  0  0  0  0  0
  146.2930  134.6498  155.4563 C   0  0  0  0  0  0  0  0  0  0  0  0
  146.1914  136.1797  155.3859 C   0  0  2  0  0  0  0  0  0  0  0  0
  147.3433  136.7382  154.7754 O   0  0  0  0  0  0  0  0  0  0  0  0
  147.3913  138.0925  155.0937 C   0  0  2  0  0  0  0  0  0  0  0  0
  148.8401  138.5315  155.0876 N   0  0  0  0  0  0  0  0  0  0  0  0
  149.8244  137.5791  155.2822 C   0  0  0  0  0  0  0  0  0  0  0  0
  151.1311  137.9111  155.3182 C   0  0  0  0  0  0  0  0  0  0  0  0
  151.5192  139.3091  155.1576 C   0  0  0  0  0  0  0  0  0  0  0  0
  152.7132  139.6016  155.1748 O   0  0  0  0  0  0  0  0  0  0  0  0
  150.5306  140.2347  154.9973 N   0  5  0  0  0  0  0  0  0  0  0  0
  149.2067  139.9026  154.9721 C   0  0  0  0  0  0  0  0  0  0  0  0
  148.3139  140.7397  154.8596 O   0  0  0  0  0  0  0  0  0  0  0  0
  146.6904  138.2793  156.4552 C   0  0  1  0  0  0  0  0  0  0  0  0
  145.6271  139.2071  156.3792 O   0  0  0  0  0  0  0  0  0  0  0  0
  146.1145  136.8903  156.7445 C   0  0  2  0  0  0  0  0  0  0  0  0
  146.8960  136.2041  157.7156 O   0  0  0  0  0  0  0  0  0  0  0  0
  147.0020  136.6604  158.9798 C   0  0  0  0  0  0  0  0  0  0  0  0
  146.9374  137.8528  159.2851 O   0  0  0  0  0  0  0  0  0  0  0  0
  147.2078  135.5647  159.9701 C   0  0  0  0  0  0  0  0  0  0  0  0
  147.5246  134.2646  159.5121 C   0  0  0  0  0  0  0  0  0  0  0  0
  147.7198  133.2104  160.4258 C   0  0  0  0  0  0  0  0  0  0  0  0
  147.5986  133.4432  161.8081 C   0  0  0  0  0  0  0  0  0  0  0  0
  147.2825  134.7318  162.2761 C   0  0  0  0  0  0  0  0  0  0  0  0
  147.0888  135.7874  161.3643 C   0  0  0  0  0  0  0  0  0  0  0  0
  145.1953  133.4125  152.1422 C   0  0  0  0  0  0  0  0  0  0  0  0
  146.4770  133.2616  151.5631 C   0  0  0  0  0  0  0  0  0  0  0  0
  146.6246  132.6801  150.2888 C   0  0  0  0  0  0  0  0  0  0  0  0
  145.4923  132.2415  149.5782 C   0  0  0  0  0  0  0  0  0  0  0  0
  144.2119  132.3839  150.1440 C   0  0  0  0  0  0  0  0  0  0  0  0
  144.0621  132.9658  151.4180 C   0  0  0  0  0  0  0  0  0  0  0  0
  145.4593  134.2496  156.0348 H   0  0  0  0  0  0  0  0  0  0  0  0
  147.2166  134.3492  155.9535 H   0  0  0  0  0  0  0  0  0  0  0  0
  145.3201  136.4660  154.7941 H   0  0  0  0  0  0  0  0  0  0  0  0
  146.9026  138.6544  154.2961 H   0  0  0  0  0  0  0  0  0  0  0  0
  149.5502  136.5421  155.4065 H   0  0  0  0  0  0  0  0  0  0  0  0
  151.8841  137.1515  155.4683 H   0  0  0  0  0  0  0  0  0  0  0  0
  147.3883  138.6124  157.2239 H   0  0  0  0  0  0  0  0  0  0  0  0
  145.7853  139.7841  155.6481 H   0  0  0  0  0  0  0  0  0  0  0  0
  145.0775  136.9335  157.0823 H   0  0  0  0  0  0  0  0  0  0  0  0
  147.6207  134.0618  158.4554 H   0  0  0  0  0  0  0  0  0  0  0  0
  147.9608  132.2216  160.0646 H   0  0  0  0  0  0  0  0  0  0  0  0
  147.7461  132.6345  162.5085 H   0  0  0  0  0  0  0  0  0  0  0  0
  147.1853  134.9124  163.3365 H   0  0  0  0  0  0  0  0  0  0  0  0
  146.8433  136.7631  161.7580 H   0  0  0  0  0  0  0  0  0  0  0  0
  147.3612  133.5927  152.0886 H   0  0  0  0  0  0  0  0  0  0  0  0
  147.6084  132.5727  149.8560 H   0  0  0  0  0  0  0  0  0  0  0  0
  145.6055  131.7972  148.6003 H   0  0  0  0  0  0  0  0  0  0  0  0
  143.3416  132.0483  149.5994 H   0  0  0  0  0  0  0  0  0  0  0  0
  143.0650  133.0635  151.8216 H   0  0  0  0  0  0  0  0  0  0  0  0
  1  2  2  0  0  0  0
  2  3  1  0  0  0  0
  2 28  1  0  0  0  0
  3  4  1  0  0  0  0
  4  5  1  0  0  0  0
  4 34  1  0  0  0  0
  4 35  1  0  0  0  0
  5 18  1  0  0  0  0
  5  6  1  0  0  0  0
  5 36  1  0  0  0  0
  6  7  1  0  0  0  0
  7  8  1  0  0  0  0
  7 16  1  0  0  0  0
  7 37  1  0  0  0  0
  8 14  1  0  0  0  0
  8  9  1  0  0  0  0
  9 10  2  0  0  0  0
  9 38  1  0  0  0  0
 10 11  1  0  0  0  0
 10 39  1  0  0  0  0
 11 12  2  0  0  0  0
 11 13  1  0  0  0  0
 13 14  1  0  0  0  0
 14 15  2  0  0  0  0
 16 17  1  0  0  0  0
 16 18  1  0  0  0  0
 16 40  1  0  0  0  0
 17 41  1  0  0  0  0
 18 19  1  0  0  0  0
 18 42  1  0  0  0  0
 19 20  1  0  0  0  0
 20 21  2  0  0  0  0
 20 22  1  0  0  0  0
 22 27  1  0  0  0  0
 22 23  2  0  0  0  0
 23 24  1  0  0  0  0
 23 43  1  0  0  0  0
 24 25  2  0  0  0  0
 24 44  1  0  0  0  0
 25 26  1  0  0  0  0
 25 45  1  0  0  0  0
 26 27  2  0  0  0  0
 26 46  1  0  0  0  0
 27 47  1  0  0  0  0
 28 33  1  0  0  0  0
 28 29  2  0  0  0  0
 29 30  1  0  0  0  0
 29 48  1  0  0  0  0
 30 31  2  0  0  0  0
 30 49  1  0  0  0  0
 31 32  1  0  0  0  0
 31 50  1  0  0  0  0
 32 33  2  0  0  0  0
 32 51  1  0  0  0  0
 33 52  1  0  0  0  0
M  CHG  1  13  -1
M  END
> <s_m_source_file>
AV-unprocessed.smi

> <i_m_source_file_index>
99

> <i_lp_mmshare_version>
43012

> <i_f3d_flags>
0

> <s_epik_input>
W2NIXTFbY0hdW2NIXVtjSF1bY0hdYzFDKD1PKU9bQ0gyXVtDQEBIXTJPW0NAQEhdKG4zW2NIXVtjSF1jKD1PKVtuSF1jMz1PKVtDQEBIXShbT0hdKVtDQEhdMk9DKD1PKWM0W2NIXVtjSF1bY0hdW2NIXVtjSF00

> <s_epik_cmdline>
J2VwaWtfcHl0aG9uJywgJy1waCcsICc3LjAnLCAnLXRuJywgJzgnLCAnLW1hJywgJzIwMCcsICctbWV0YWxfYmluZGluZycsICctaW1hZScsICc8aW5maWxlLm1hZT4nLCAnLW9tYWUnLCAnPG91dGZpbGUubWFlPic=

> <r_lp_tautomer_probability>
1

> <r_epik_Ionization_Penalty>
2.89159

> <r_epik_Ionization_Penalty_Charging>
2.1077e-08

> <r_epik_Ionization_Penalty_Neutral>
2.89159

> <r_epik_State_Penalty>
2.88671

> <r_epik_Charging_Adjusted_Penalty>
2.88671

> <i_epik_Tot_Q>
-1

> <i_epik_Tot_abs_Q>
1

> <r_epik_Metal_State_Penalty>
0.0727308

> <b_epik_Metal_Only>
1

> <s_epik_Chemistry_Notes>
This compound has an ester and may undergo hydrolysis at high or low pH. This compound contains an acetal/aminal-like group ( X-CH(R)-Y where X, Y are N, S, or O) that may be acid/base labile, releasing an aldehyde.

> <s_lp_Force_Field>
OPLS_2005

> <r_lp_Energy>
34.2079

> <b_lp_Chiralities_Consistent>
1

> <s_lp_Variant>
AV-unprocessed.smi:99-27

> <Gold.Version>
5.8.1

> <Gold.Id.Protein>
6NUR|6NUR_protein|mol2

> <Gold.PLP.Fitness>
51.7942

> <Gold.PLP.PLP>
-46.4475

> <Gold.PLP.part.hbond>
-3.0000

> <Gold.PLP.part.metal>
0.0000

> <Gold.PLP.part.buried>
-9.9255

> <Gold.PLP.part.nonpolar>
-35.5058

> <Gold.PLP.part.repulsive>
0.4414

> <Gold.PLP.ligand.clash>
0.0000

> <Gold.PLP.ligand.torsion>
1.2354

> <Gold.PLP.Chemscore.Hbond>
2.4960

> <Gold.PLP.Chemscore.CHOScore>
0.0000

> <Gold.PLP.Chemscore.Metal>
0.0000

> <Gold.Chemscore.Hbonds>
donor molecule, donor type, donor heavy atom, donor atom, acceptor molecule, acceptor atom, score
      P1  H  6934  6947       L1    21  0.69
      P1  H  7989  7998       L1    13  0.25
      P1  H  7997  8009       L1    12  1.00

> <Gold.PLP.Chemscore.Internal.Correction>
0.3295

> <Gold.Rescore>
     Score         DG    S(hbond)    S(metal)    S(lipo)     H(rot)  DE(clash)    DE(int)     intcor
     15.46     -17.14       2.80        0.00      88.42       3.13       0.10       1.59       ----

> <Gold.Chemscore.Fitness>
15.4585

> <Gold.Chemscore.DG>
-17.1413

> <Gold.Chemscore.ZeroCoef>
-5.4800

> <Gold.Chemscore.Hbond>
2.7967

> <Gold.Chemscore.Metal>
0.0000

> <Gold.Chemscore.Lipo>
88.4185

> <Gold.Chemscore.Internal_Hbond>
0.0000

> <Gold.Chemscore.DEClash>
0.0958

> <Gold.Chemscore.DEInternal>
1.5870

> <Gold.Chemscore.Rot>
3.1346

> <Gold.Chemscore.Internal.Correction>
   9.000000E+99

> <Gold.Chemscore.Hbonds>
donor molecule, donor type, donor heavy atom, donor atom, acceptor molecule, acceptor atom, score
      P1  H  6934  6947       L1    21  0.67
      P1  H  7997  8009       L1    12  0.98

> <Gold.Chemscore.Hbond.Weighted>
-9.3409

> <Gold.Chemscore.Metal.Weighted>
-0.0000

> <Gold.Chemscore.Lipo.Weighted>
-10.3450

> <Gold.Chemscore.Internal_Hbond.Weighted>
0.0000

> <Gold.Chemscore.DEClash.Weighted>
0.0958

> <Gold.Chemscore.DEInternal.Weighted>
1.5870

> <Gold.Chemscore.Rot.Weighted>
8.0246

> <Gold.Chemscore.Internal.Correction.Weighted>
   9.000000E+99

> <Gold.Protein.RotatedTorsions>
[ 6907 6896 6895 6894 ] final   81.41 input  -60.11 | X-H torsion
[ 7974 7965 7964 7962 ] final -142.69 input  175.53 | X-H torsion
[ 8008 7997 7996 7995 ] final -149.36 input   59.86 | X-H torsion
[ 10167 10162 10161 10158 ] final -179.58 input  -65.29 | X-H torsion
[ 10718 10713 10712 10709 ] final  -83.58 input   66.30 | X-H torsion
[ 10763 10752 10751 10750 ] final  -19.99 input  -60.55 | X-H torsion
[ 11005 11000 10999 10996 ] final -150.83 input  -57.11 | X-H torsion

> <Gold.Protein.ActiveResidues>
 VAL166  LYS551  ARG553  GLY616  TRP617  ASP618  TYR619  PRO620  LYS621  CYS622 
 ASP623  PHE694  ASN695  SER759  ASP760  ASP761  ALA762  ILE779  LEU786  VAL792 
 PHE793  MET794  SER795  GLU796  ALA797  LYS798  CYS799  TRP800  GLU811  SER814 

> <Gold.Protein.RotatedAtoms>
  152.5267  134.3208  159.9147 H   0  0  0  0  0  0  0  0  0  0  0  0  # atno 6907 bound_to 6896
  151.3157  133.4055  159.2658 H   0  0  0  0  0  0  0  0  0  0  0  0  # atno 6908 bound_to 6896
  151.0001  134.9332  159.8006 H   0  0  0  0  0  0  0  0  0  0  0  0  # atno 6909 bound_to 6896
  144.8425  140.5927  143.5443 H   0  0  0  0  0  0  0  0  0  0  0  0  # atno 7974 bound_to 7965
  155.6063  140.0667  157.2719 H   0  0  0  0  0  0  0  0  0  0  0  0  # atno 8008 bound_to 7997
  154.4265  140.1809  156.1273 H   0  0  0  0  0  0  0  0  0  0  0  0  # atno 8009 bound_to 7997
  156.0120  140.3325  155.6954 H   0  0  0  0  0  0  0  0  0  0  0  0  # atno 8010 bound_to 7997
  139.5380  144.2443  152.0835 H   0  0  0  0  0  0  0  0  0  0  0  0  # atno 10167 bound_to 10162
  156.0016  130.4670  150.4278 H   0  0  0  0  0  0  0  0  0  0  0  0  # atno 10718 bound_to 10713
  153.6133  135.6995  153.5338 H   0  0  0  0  0  0  0  0  0  0  0  0  # atno 10763 bound_to 10752
  153.2998  135.4132  155.1242 H   0  0  0  0  0  0  0  0  0  0  0  0  # atno 10764 bound_to 10752
  154.8559  135.3646  154.5672 H   0  0  0  0  0  0  0  0  0  0  0  0  # atno 10765 bound_to 10752
  140.7360  134.3568  157.5157 H   0  0  0  0  0  0  0  0  0  0  0  0  # atno 11005 bound_to 11000
  145.4665  139.1507  143.3837 LP  0  0  0  0  0  0  0  0  0  0  0  0  # atno 17320 bound_to 7965
  146.2715  140.4797  142.8812 LP  0  0  0  0  0  0  0  0  0  0  0  0  # atno 17321 bound_to 7965
  140.1916  144.4746  150.6476 LP  0  0  0  0  0  0  0  0  0  0  0  0  # atno 17342 bound_to 10162
  140.6596  143.2248  151.5887 LP  0  0  0  0  0  0  0  0  0  0  0  0  # atno 17343 bound_to 10162
  157.2330  131.0508  151.2481 LP  0  0  0  0  0  0  0  0  0  0  0  0  # atno 17370 bound_to 10713
  157.3693  130.7173  149.6554 LP  0  0  0  0  0  0  0  0  0  0  0  0  # atno 17371 bound_to 10713
  139.8816  134.9050  156.2889 LP  0  0  0  0  0  0  0  0  0  0  0  0  # atno 17394 bound_to 11000
  140.9879  133.7227  156.0769 LP  0  0  0  0  0  0  0  0  0  0  0  0  # atno 17395 bound_to 11000

$$$$
