AV-unprocessed.smi:2751|AV-procd|sdf|10600|dock8
  -GOLD-   2272015 53D 1   1.00000     0.00000
 Structure written by MMmdl.
 34 35  0  0  0  0  0  0  0  0  1 V2000
  150.3605  140.0913  154.8343 O   0  0  0  0  0  0  0  0  0  0  0  0
  149.8033  141.1891  154.7336 C   0  0  0  0  0  0  0  0  0  0  0  0
  150.1213  142.2119  155.5415 N   0  0  0  0  0  0  0  0  0  0  0  0
  151.1220  142.1743  156.6025 C   0  0  0  0  0  0  0  0  0  0  0  0
  150.5350  142.6277  157.9502 C   0  0  0  0  0  0  0  0  0  0  0  0
  151.6125  142.8786  159.0170 C   0  0  1  0  0  0  0  0  0  0  0  0
  151.2275  144.0328  159.9633 C   0  0  0  0  0  0  0  0  0  0  0  0
  152.2820  144.2058  161.0624 C   0  0  0  0  0  0  0  0  0  0  0  0
  152.5188  142.8662  161.7677 C   0  0  0  0  0  0  0  0  0  0  0  0
  152.8334  141.7697  160.7378 C   0  0  0  0  0  0  0  0  0  0  0  0
  151.7804  141.6863  159.7823 O   0  0  0  0  0  0  0  0  0  0  0  0
  148.8102  141.5778  153.8458 N   0  0  0  0  0  0  0  0  0  0  0  0
  148.0765  140.6785  153.2664 C   0  0  0  0  0  0  0  0  0  0  0  0
  147.0466  140.8829  152.3619 N   0  0  0  0  0  0  0  0  0  0  0  0
  146.5437  139.6621  152.0060 C   0  0  0  0  0  0  0  0  0  0  0  0
  147.2283  138.7265  152.6576 C   0  0  0  0  0  0  0  0  0  0  0  0
  148.1754  139.3167  153.4385 O   0  0  0  0  0  0  0  0  0  0  0  0
  149.6297  143.0843  155.4108 H   0  0  0  0  0  0  0  0  0  0  0  0
  151.5456  141.1718  156.6826 H   0  0  0  0  0  0  0  0  0  0  0  0
  151.9413  142.8334  156.3149 H   0  0  0  0  0  0  0  0  0  0  0  0
  149.9646  143.5447  157.7955 H   0  0  0  0  0  0  0  0  0  0  0  0
  149.8265  141.8845  158.3177 H   0  0  0  0  0  0  0  0  0  0  0  0
  152.5524  143.1200  158.5171 H   0  0  0  0  0  0  0  0  0  0  0  0
  151.1194  144.9618  159.4030 H   0  0  0  0  0  0  0  0  0  0  0  0
  150.2578  143.8278  160.4191 H   0  0  0  0  0  0  0  0  0  0  0  0
  153.2155  144.5595  160.6232 H   0  0  0  0  0  0  0  0  0  0  0  0
  151.9646  144.9632  161.7796 H   0  0  0  0  0  0  0  0  0  0  0  0
  153.3337  142.9559  162.4865 H   0  0  0  0  0  0  0  0  0  0  0  0
  151.6298  142.5881  162.3351 H   0  0  0  0  0  0  0  0  0  0  0  0
  153.7809  141.9679  160.2345 H   0  0  0  0  0  0  0  0  0  0  0  0
  152.9339  140.8053  161.2359 H   0  0  0  0  0  0  0  0  0  0  0  0
  146.6937  141.7583  152.0027 H   0  0  0  0  0  0  0  0  0  0  0  0
  145.7254  139.5919  151.3048 H   0  0  0  0  0  0  0  0  0  0  0  0
  147.1655  137.6483  152.6741 H   0  0  0  0  0  0  0  0  0  0  0  0
  1  2  2  0  0  0  0
  2 12  1  0  0  0  0
  2  3  1  0  0  0  0
  3  4  1  0  0  0  0
  3 18  1  0  0  0  0
  4  5  1  0  0  0  0
  4 19  1  0  0  0  0
  4 20  1  0  0  0  0
  5  6  1  0  0  0  0
  5 21  1  0  0  0  0
  5 22  1  0  0  0  0
  6 11  1  0  0  0  0
  6  7  1  0  0  0  0
  6 23  1  0  0  0  0
  7  8  1  0  0  0  0
  7 24  1  0  0  0  0
  7 25  1  0  0  0  0
  8  9  1  0  0  0  0
  8 26  1  0  0  0  0
  8 27  1  0  0  0  0
  9 10  1  0  0  0  0
  9 28  1  0  0  0  0
  9 29  1  0  0  0  0
 10 11  1  0  0  0  0
 10 30  1  0  0  0  0
 10 31  1  0  0  0  0
 12 13  2  0  0  0  0
 13 17  1  0  0  0  0
 13 14  1  0  0  0  0
 14 32  1  0  0  0  0
 14 15  1  0  0  0  0
 15 33  1  0  0  0  0
 15 16  2  0  0  0  0
 16 34  1  0  0  0  0
 16 17  1  0  0  0  0
M  END
> <s_m_source_file>
AV-unprocessed.smi

> <i_m_source_file_index>
2751

> <i_lp_mmshare_version>
43012

> <i_f3d_flags>
0

> <s_epik_input>
bzFbY0hdW2NIXW5jMVtOSF1DKD1PKVtOSF1bQ0gyXVtDSDJdW0NAQEhdMltDSDJdW0NIMl1bQ0gyXVtDSDJdTzI=

> <s_epik_cmdline>
J2VwaWtfcHl0aG9uJywgJy1waCcsICc3LjAnLCAnLXRuJywgJzgnLCAnLW1hJywgJzIwMCcsICctbWV0YWxfYmluZGluZycsICctaW1hZScsICc8aW5maWxlLm1hZT4nLCAnLW9tYWUnLCAnPG91dGZpbGUubWFlPic=

> <r_lp_tautomer_probability>
0.107061

> <r_epik_Ionization_Penalty>
1.421

> <r_epik_Ionization_Penalty_Charging>
1.42064

> <r_epik_Ionization_Penalty_Neutral>
0.0003614

> <r_epik_State_Penalty>
2.61489

> <r_epik_Charging_Adjusted_Penalty>
4.03553

> <i_epik_Tot_Q>
0

> <i_epik_Tot_abs_Q>
0

> <r_epik_Metal_State_Penalty>
3.57288

> <b_epik_Metal_Only>
0

> <s_lp_Force_Field>
OPLS_2005

> <r_lp_Energy>
32.4841

> <b_lp_Chiralities_Consistent>
1

> <s_lp_Variant>
AV-unprocessed.smi:2751-6

> <Gold.Version>
5.8.1

> <Gold.Id.Protein>
6NUR|6NUR_protein|mol2

> <Gold.PLP.Fitness>
45.4955

> <Gold.PLP.PLP>
-32.6280

> <Gold.PLP.part.hbond>
-3.7364

> <Gold.PLP.part.metal>
0.0000

> <Gold.PLP.part.buried>
0.3756

> <Gold.PLP.part.nonpolar>
-30.3938

> <Gold.PLP.part.repulsive>
1.9246

> <Gold.PLP.ligand.clash>
0.0000

> <Gold.PLP.ligand.torsion>
0.5996

> <Gold.PLP.Chemscore.Hbond>
2.0477

> <Gold.PLP.Chemscore.CHOScore>
2.6408

> <Gold.PLP.Chemscore.Metal>
0.0000

> <Gold.Chemscore.Hbonds>
donor molecule, donor type, donor heavy atom, donor atom, acceptor molecule, acceptor atom, score
      L1  H     3    18       P1  8028  1.00
      P1  H  7989  7998       L1     1  0.15
      P1  H  8011  8017       L1    12  0.67
      L1  C    15    33       P1 10171  0.94
      L1  C    15    33       P1 10175  0.56
      L1  C    16    34       P1  7948  0.84

> <Gold.PLP.Chemscore.Internal.Correction>
0.0009

> <Gold.Rescore>
     Score         DG    S(hbond)    S(metal)    S(lipo)     H(rot)  DE(clash)    DE(int)     intcor
     12.83     -15.63       1.31        0.00      85.02       1.63       0.60       2.20       ----

> <Gold.Chemscore.Fitness>
12.8257

> <Gold.Chemscore.DG>
-15.6259

> <Gold.Chemscore.ZeroCoef>
-5.4800

> <Gold.Chemscore.Hbond>
1.3110

> <Gold.Chemscore.Metal>
0.0000

> <Gold.Chemscore.Lipo>
85.0171

> <Gold.Chemscore.Internal_Hbond>
0.0000

> <Gold.Chemscore.DEClash>
0.5993

> <Gold.Chemscore.DEInternal>
2.2008

> <Gold.Chemscore.Rot>
1.6328

> <Gold.Chemscore.Internal.Correction>
   9.000000E+99

> <Gold.Chemscore.Hbonds>
donor molecule, donor type, donor heavy atom, donor atom, acceptor molecule, acceptor atom, score
      L1  H     3    18       P1  8028  1.00
      P1  H  8011  8017       L1    12  0.15

> <Gold.Chemscore.Hbond.Weighted>
-4.3788

> <Gold.Chemscore.Metal.Weighted>
-0.0000

> <Gold.Chemscore.Lipo.Weighted>
-9.9470

> <Gold.Chemscore.Internal_Hbond.Weighted>
0.0000

> <Gold.Chemscore.DEClash.Weighted>
0.5993

> <Gold.Chemscore.DEInternal.Weighted>
2.2008

> <Gold.Chemscore.Rot.Weighted>
4.1799

> <Gold.Chemscore.Internal.Correction.Weighted>
   9.000000E+99

> <Gold.Protein.RotatedTorsions>
[ 6907 6896 6895 6894 ] final   44.49 input  -60.11 | X-H torsion
[ 7974 7965 7964 7962 ] final -148.92 input  175.53 | X-H torsion
[ 8008 7997 7996 7995 ] final  -33.33 input   59.86 | X-H torsion
[ 10167 10162 10161 10158 ] final  134.38 input  -65.29 | X-H torsion
[ 10718 10713 10712 10709 ] final  -97.68 input   66.30 | X-H torsion
[ 10763 10752 10751 10750 ] final  105.59 input  -60.55 | X-H torsion
[ 11005 11000 10999 10996 ] final  130.03 input  -57.11 | X-H torsion

> <Gold.Protein.ActiveResidues>
 VAL166  LYS551  ARG553  GLY616  TRP617  ASP618  TYR619  PRO620  LYS621  CYS622 
 ASP623  PHE694  ASN695  SER759  ASP760  ASP761  ALA762  ILE779  LEU786  VAL792 
 PHE793  MET794  SER795  GLU796  ALA797  LYS798  CYS799  TRP800  GLU811  SER814 

> <Gold.Protein.RotatedAtoms>
  152.2332  134.8302  160.0470 H   0  0  0  0  0  0  0  0  0  0  0  0  # atno 6907 bound_to 6896
  151.9043  133.3540  159.3850 H   0  0  0  0  0  0  0  0  0  0  0  0  # atno 6908 bound_to 6896
  150.7031  134.4722  159.5475 H   0  0  0  0  0  0  0  0  0  0  0  0  # atno 6909 bound_to 6896
  144.7999  140.5133  143.5714 H   0  0  0  0  0  0  0  0  0  0  0  0  # atno 7974 bound_to 7965
  154.4152  140.1713  156.1871 H   0  0  0  0  0  0  0  0  0  0  0  0  # atno 8008 bound_to 7997
  155.9634  140.3391  155.6487 H   0  0  0  0  0  0  0  0  0  0  0  0  # atno 8009 bound_to 7997
  155.6719  140.0712  157.2507 H   0  0  0  0  0  0  0  0  0  0  0  0  # atno 8010 bound_to 7997
  139.5258  144.6570  151.5131 H   0  0  0  0  0  0  0  0  0  0  0  0  # atno 10167 bound_to 10162
  156.0089  130.5205  150.6411 H   0  0  0  0  0  0  0  0  0  0  0  0  # atno 10718 bound_to 10713
  153.3815  135.3905  155.1860 H   0  0  0  0  0  0  0  0  0  0  0  0  # atno 10763 bound_to 10752
  154.8708  135.3726  154.4851 H   0  0  0  0  0  0  0  0  0  0  0  0  # atno 10764 bound_to 10752
  153.5329  135.7085  153.5735 H   0  0  0  0  0  0  0  0  0  0  0  0  # atno 10765 bound_to 10752
  139.9649  134.9593  156.9234 H   0  0  0  0  0  0  0  0  0  0  0  0  # atno 11005 bound_to 11000
  145.5579  139.1478  143.3358 LP  0  0  0  0  0  0  0  0  0  0  0  0  # atno 17320 bound_to 7965
  146.2278  140.5716  142.8989 LP  0  0  0  0  0  0  0  0  0  0  0  0  # atno 17321 bound_to 7965
  140.6400  143.8908  150.6683 LP  0  0  0  0  0  0  0  0  0  0  0  0  # atno 17342 bound_to 10162
  140.2239  143.3787  152.1620 LP  0  0  0  0  0  0  0  0  0  0  0  0  # atno 17343 bound_to 10162
  157.4191  131.0834  151.1148 LP  0  0  0  0  0  0  0  0  0  0  0  0  # atno 17370 bound_to 10713
  157.1756  130.6287  149.5655 LP  0  0  0  0  0  0  0  0  0  0  0  0  # atno 17371 bound_to 10713
  140.5419  134.0712  155.7344 LP  0  0  0  0  0  0  0  0  0  0  0  0  # atno 17394 bound_to 11000
  141.1328  133.9273  157.2499 LP  0  0  0  0  0  0  0  0  0  0  0  0  # atno 17395 bound_to 11000

$$$$
