AV-unprocessed.smi:2926|AV-procd|sdf|11228|dock10
  -GOLD-   2272016123D 1   1.00000     0.00000
 Structure written by MMmdl.
 31 31  0  0  0  0  0  0  0  0  2 V2000
  151.2433  144.0209  157.7090 C   0  0  0  0  0  0  0  0  0  0  0  0
  151.4907  143.8056  159.2219 C   0  0  0  0  0  0  0  0  0  0  0  0
  152.1053  145.0967  159.8091 C   0  0  0  0  0  0  0  0  0  0  0  0
  152.3286  142.5221  159.5243 C   0  0  1  0  0  0  0  0  0  0  0  0
  153.1652  142.5849  160.8234 C   0  0  0  0  0  0  0  0  0  0  0  0
  154.0745  141.5058  160.9298 O   0  0  0  0  0  0  0  0  0  0  0  0
  151.4499  141.3589  159.5810 N   0  5  0  0  0  0  0  0  0  0  0  0
  151.7763  140.0593  158.6674 S   0  0  0  0  0  0  0  0  0  0  0  0
  153.2215  139.8477  158.4811 O   0  0  0  0  0  0  0  0  0  0  0  0
  150.9716  138.8905  159.0594 O   0  0  0  0  0  0  0  0  0  0  0  0
  151.1056  140.6041  157.0349 C   0  0  0  0  0  0  0  0  0  0  0  0
  151.3063  139.5367  155.9933 C   0  0  0  0  0  0  0  0  0  0  0  0
  150.3215  138.8432  155.2360 C   0  0  0  0  0  0  0  0  0  0  0  0
  151.0547  137.9980  154.4549 C   0  0  0  0  0  0  0  0  0  0  0  0
  152.3791  138.1424  154.7120 O   0  0  0  0  0  0  0  0  0  0  0  0
  152.5299  139.1236  155.6986 N   0  0  0  0  0  0  0  0  0  0  0  0
  153.0432  142.4232  158.7058 H   0  0  0  0  0  0  0  0  0  0  0  0
  152.1747  144.1518  157.1547 H   0  0  0  0  0  0  0  0  0  0  0  0
  150.6438  144.9159  157.5416 H   0  0  0  0  0  0  0  0  0  0  0  0
  150.6962  143.1963  157.2490 H   0  0  0  0  0  0  0  0  0  0  0  0
  150.5125  143.6842  159.6900 H   0  0  0  0  0  0  0  0  0  0  0  0
  153.1072  145.2916  159.4214 H   0  0  0  0  0  0  0  0  0  0  0  0
  152.1616  145.0759  160.8983 H   0  0  0  0  0  0  0  0  0  0  0  0
  151.4920  145.9619  159.5553 H   0  0  0  0  0  0  0  0  0  0  0  0
  153.7301  143.5169  160.8648 H   0  0  0  0  0  0  0  0  0  0  0  0
  152.5188  142.5877  161.7005 H   0  0  0  0  0  0  0  0  0  0  0  0
  153.6912  140.8464  161.4869 H   0  0  0  0  0  0  0  0  0  0  0  0
  150.0445  140.8140  157.1714 H   0  0  0  0  0  0  0  0  0  0  0  0
  151.5884  141.5393  156.7524 H   0  0  0  0  0  0  0  0  0  0  0  0
  149.2476  138.9583  155.2578 H   0  0  0  0  0  0  0  0  0  0  0  0
  150.7931  137.2659  153.7053 H   0  0  0  0  0  0  0  0  0  0  0  0
  1  2  1  0  0  0  0
  1 18  1  0  0  0  0
  1 19  1  0  0  0  0
  1 20  1  0  0  0  0
  2  3  1  0  0  0  0
  2  4  1  0  0  0  0
  2 21  1  0  0  0  0
  3 22  1  0  0  0  0
  3 23  1  0  0  0  0
  3 24  1  0  0  0  0
  4 17  1  0  0  0  0
  4  5  1  0  0  0  0
  4  7  1  0  0  0  0
  5  6  1  0  0  0  0
  5 25  1  0  0  0  0
  5 26  1  0  0  0  0
  6 27  1  0  0  0  0
  7  8  1  0  0  0  0
  8  9  2  0  0  0  0
  8 10  2  0  0  0  0
  8 11  1  0  0  0  0
 11 12  1  0  0  0  0
 11 28  1  0  0  0  0
 11 29  1  0  0  0  0
 12 16  2  0  0  0  0
 12 13  1  0  0  0  0
 13 14  2  0  0  0  0
 13 30  1  0  0  0  0
 14 15  1  0  0  0  0
 14 31  1  0  0  0  0
 15 16  1  0  0  0  0
M  CHG  1   7  -1
M  END
> <s_m_source_file>
AV-unprocessed.smi

> <i_m_source_file_index>
2926

> <i_lp_mmshare_version>
43012

> <i_f3d_flags>
0

> <s_epik_input>
W0NIM11bQ0hdKFtDSDNdKVtDQEBIXShbQ0gyXVtPSF0pW05IXVMoPU8pKD1PKVtDSDJdYzFbY0hdW2NIXW9uMQ==

> <s_epik_cmdline>
J2VwaWtfcHl0aG9uJywgJy1waCcsICc3LjAnLCAnLXRuJywgJzgnLCAnLW1hJywgJzIwMCcsICctbWV0YWxfYmluZGluZycsICctaW1hZScsICc8aW5maWxlLm1hZT4nLCAnLW9tYWUnLCAnPG91dGZpbGUubWFlPic=

> <r_lp_tautomer_probability>
1

> <r_epik_Ionization_Penalty>
4.75719

> <r_epik_Ionization_Penalty_Charging>
4.75718

> <r_epik_Ionization_Penalty_Neutral>
1.48962e-06

> <r_epik_State_Penalty>
4.75699

> <r_epik_Charging_Adjusted_Penalty>
9.51417

> <i_epik_Tot_Q>
-1

> <i_epik_Tot_abs_Q>
1

> <r_epik_Metal_State_Penalty>
0.961449

> <b_epik_Metal_Only>
1

> <s_lp_Force_Field>
OPLS_2005

> <r_lp_Energy>
4.17098

> <b_lp_Chiralities_Consistent>
1

> <s_lp_Variant>
AV-unprocessed.smi:2926-3

> <Gold.Version>
5.8.1

> <Gold.Id.Protein>
6NUR|6NUR_protein|mol2

> <Gold.PLP.Fitness>
43.6192

> <Gold.PLP.PLP>
-38.0650

> <Gold.PLP.part.hbond>
-2.6854

> <Gold.PLP.part.metal>
0.0000

> <Gold.PLP.part.buried>
-6.7082

> <Gold.PLP.part.nonpolar>
-28.9240

> <Gold.PLP.part.repulsive>
0.0312

> <Gold.PLP.ligand.clash>
0.0000

> <Gold.PLP.ligand.torsion>
1.3224

> <Gold.PLP.Chemscore.Hbond>
1.3760

> <Gold.PLP.Chemscore.CHOScore>
1.0000

> <Gold.PLP.Chemscore.Metal>
0.0000

> <Gold.Chemscore.Hbonds>
donor molecule, donor type, donor heavy atom, donor atom, acceptor molecule, acceptor atom, score
      P1  H  7997  8008       L1    16  0.02
      P1  H  7997  8010       L1     9  0.57
      L1  C    14    31       P1  7948  0.22
      L1  C    14    31       P1  7949  0.74

> <Gold.PLP.Chemscore.Internal.Correction>
1.0710

> <Gold.Rescore>
     Score         DG    S(hbond)    S(metal)    S(lipo)     H(rot)  DE(clash)    DE(int)     intcor
     13.18     -14.63       1.86        0.00      81.42       2.58       0.05       1.40       ----

> <Gold.Chemscore.Fitness>
13.1801

> <Gold.Chemscore.DG>
-14.6325

> <Gold.Chemscore.ZeroCoef>
-5.4800

> <Gold.Chemscore.Hbond>
1.8639

> <Gold.Chemscore.Metal>
0.0000

> <Gold.Chemscore.Lipo>
81.4167

> <Gold.Chemscore.Internal_Hbond>
0.0000

> <Gold.Chemscore.DEClash>
0.0502

> <Gold.Chemscore.DEInternal>
1.4022

> <Gold.Chemscore.Rot>
2.5776

> <Gold.Chemscore.Internal.Correction>
   9.000000E+99

> <Gold.Chemscore.Hbonds>
donor molecule, donor type, donor heavy atom, donor atom, acceptor molecule, acceptor atom, score
      P1  H  7997  8008       L1    16  0.04
      P1  H  7997  8010       L1     9  0.57

> <Gold.Chemscore.Hbond.Weighted>
-6.2254

> <Gold.Chemscore.Metal.Weighted>
-0.0000

> <Gold.Chemscore.Lipo.Weighted>
-9.5258

> <Gold.Chemscore.Internal_Hbond.Weighted>
0.0000

> <Gold.Chemscore.DEClash.Weighted>
0.0502

> <Gold.Chemscore.DEInternal.Weighted>
1.4022

> <Gold.Chemscore.Rot.Weighted>
6.5987

> <Gold.Chemscore.Internal.Correction.Weighted>
   9.000000E+99

> <Gold.Protein.RotatedTorsions>
[ 6907 6896 6895 6894 ] final  -40.54 input  -60.11 | X-H torsion
[ 7974 7965 7964 7962 ] final  -75.78 input  175.53 | X-H torsion
[ 8008 7997 7996 7995 ] final    6.06 input   59.86 | X-H torsion
[ 10167 10162 10161 10158 ] final   46.41 input  -65.29 | X-H torsion
[ 10718 10713 10712 10709 ] final -154.57 input   66.30 | X-H torsion
[ 10763 10752 10751 10750 ] final   98.69 input  -60.55 | X-H torsion
[ 11005 11000 10999 10996 ] final -143.45 input  -57.11 | X-H torsion

> <Gold.Protein.ActiveResidues>
 VAL166  LYS551  ARG553  GLY616  TRP617  ASP618  TYR619  PRO620  LYS621  CYS622 
 ASP623  PHE694  ASN695  SER759  ASP760  ASP761  ALA762  ILE779  LEU786  VAL792 
 PHE793  MET794  SER795  GLU796  ALA797  LYS798  CYS799  TRP800  GLU811  SER814 

> <Gold.Protein.RotatedAtoms>
  150.9772  134.9134  159.7822 H   0  0  0  0  0  0  0  0  0  0  0  0  # atno 6907 bound_to 6896
  152.5210  134.3460  159.9244 H   0  0  0  0  0  0  0  0  0  0  0  0  # atno 6908 bound_to 6896
  151.3468  133.3900  159.2711 H   0  0  0  0  0  0  0  0  0  0  0  0  # atno 6909 bound_to 6896
  145.6215  140.9361  143.1135 H   0  0  0  0  0  0  0  0  0  0  0  0  # atno 7974 bound_to 7965
  154.7362  140.2740  155.6412 H   0  0  0  0  0  0  0  0  0  0  0  0  # atno 8008 bound_to 7997
  156.2862  140.2706  156.2002 H   0  0  0  0  0  0  0  0  0  0  0  0  # atno 8009 bound_to 7997
  155.0317  140.0371  157.2466 H   0  0  0  0  0  0  0  0  0  0  0  0  # atno 8010 bound_to 7997
  140.3142  144.2784  150.6194 H   0  0  0  0  0  0  0  0  0  0  0  0  # atno 10167 bound_to 10162
  156.5010  130.8391  151.2609 H   0  0  0  0  0  0  0  0  0  0  0  0  # atno 10718 bound_to 10713
  153.2922  135.4139  155.1177 H   0  0  0  0  0  0  0  0  0  0  0  0  # atno 10763 bound_to 10752
  154.8524  135.3521  154.5966 H   0  0  0  0  0  0  0  0  0  0  0  0  # atno 10764 bound_to 10752
  153.6389  135.7057  153.5307 H   0  0  0  0  0  0  0  0  0  0  0  0  # atno 10765 bound_to 10752
  140.8124  134.2729  157.4935 H   0  0  0  0  0  0  0  0  0  0  0  0  # atno 11005 bound_to 11000
  144.7229  139.7970  143.7375 LP  0  0  0  0  0  0  0  0  0  0  0  0  # atno 17320 bound_to 7965
  146.1427  139.4488  143.0098 LP  0  0  0  0  0  0  0  0  0  0  0  0  # atno 17321 bound_to 7965
  140.5541  143.2201  151.7876 LP  0  0  0  0  0  0  0  0  0  0  0  0  # atno 17342 bound_to 10162
  139.4887  144.4437  151.9735 LP  0  0  0  0  0  0  0  0  0  0  0  0  # atno 17343 bound_to 10162
  157.7463  130.9981  150.2842 LP  0  0  0  0  0  0  0  0  0  0  0  0  # atno 17370 bound_to 10713
  156.3333  130.3803  149.7472 LP  0  0  0  0  0  0  0  0  0  0  0  0  # atno 17371 bound_to 10713
  139.8713  134.9490  156.4013 LP  0  0  0  0  0  0  0  0  0  0  0  0  # atno 17394 bound_to 11000
  140.9184  133.7662  155.9876 LP  0  0  0  0  0  0  0  0  0  0  0  0  # atno 17395 bound_to 11000

$$$$
