AV-unprocessed.smi:3039|AV-procd|sdf|11594|dock4
  -GOLD-   2272016573D 1   1.00000     0.00000
 Structure written by MMmdl.
 38 39  0  0  0  0  0  0  0  0  1 V2000
  147.5306  141.9633  159.0900 O   0  0  0  0  0  0  0  0  0  0  0  0
  147.8327  142.4076  157.9825 C   0  0  0  0  0  0  0  0  0  0  0  0
  146.7566  142.5853  156.9113 C   0  0  0  0  0  0  0  0  0  0  0  0
  147.1426  141.8386  155.6633 C   0  0  0  0  0  0  0  0  0  0  0  0
  147.0954  142.2895  154.3146 C   0  0  0  0  0  0  0  0  0  0  0  0
  147.5496  141.2168  153.6031 C   0  0  0  0  0  0  0  0  0  0  0  0
  147.8574  140.1905  154.4354 O   0  0  0  0  0  0  0  0  0  0  0  0
  147.5963  140.5971  155.7489 N   0  0  0  0  0  0  0  0  0  0  0  0
  149.0831  142.7557  157.6379 N   0  0  0  0  0  0  0  0  0  0  0  0
  150.2605  142.6823  158.5037 C   0  0  1  0  0  0  0  0  0  0  0  0
  151.2049  141.5712  157.9855 C   0  0  0  0  0  0  0  0  0  0  0  0
  152.0512  140.9237  159.0971 C   0  0  0  0  0  0  0  0  0  0  0  0
  153.2201  141.7761  159.6083 C   0  0  0  0  0  0  0  0  0  0  0  0
  152.8163  143.1653  160.1237 C   0  0  0  0  0  0  0  0  0  0  0  0
  152.3968  144.1126  158.9880 C   0  0  0  0  0  0  0  0  0  0  0  0
  150.8943  144.1014  158.6214 C   0  0  2  0  0  0  0  0  0  0  0  0
  150.1057  145.0115  159.5962 C   0  0  0  0  0  0  0  0  0  0  0  0
  148.7083  144.8993  159.4215 O   0  0  0  0  0  0  0  0  0  0  0  0
  145.8046  142.2155  157.2938 H   0  0  0  0  0  0  0  0  0  0  0  0
  146.6152  143.6477  156.7069 H   0  0  0  0  0  0  0  0  0  0  0  0
  146.7742  143.2468  153.9318 H   0  0  0  0  0  0  0  0  0  0  0  0
  147.7047  141.0369  152.5495 H   0  0  0  0  0  0  0  0  0  0  0  0
  149.2316  143.1103  156.7040 H   0  0  0  0  0  0  0  0  0  0  0  0
  149.9242  142.3889  159.4998 H   0  0  0  0  0  0  0  0  0  0  0  0
  150.6056  140.7703  157.5497 H   0  0  0  0  0  0  0  0  0  0  0  0
  151.8332  141.9358  157.1721 H   0  0  0  0  0  0  0  0  0  0  0  0
  151.4079  140.6444  159.9324 H   0  0  0  0  0  0  0  0  0  0  0  0
  152.4599  139.9862  158.7188 H   0  0  0  0  0  0  0  0  0  0  0  0
  153.7126  141.2327  160.4155 H   0  0  0  0  0  0  0  0  0  0  0  0
  153.9701  141.8785  158.8231 H   0  0  0  0  0  0  0  0  0  0  0  0
  152.0407  143.0924  160.8868 H   0  0  0  0  0  0  0  0  0  0  0  0
  153.6848  143.5973  160.6220 H   0  0  0  0  0  0  0  0  0  0  0  0
  152.6889  145.1289  159.2547 H   0  0  0  0  0  0  0  0  0  0  0  0
  152.9879  143.8908  158.0986 H   0  0  0  0  0  0  0  0  0  0  0  0
  150.8459  144.5732  157.6381 H   0  0  0  0  0  0  0  0  0  0  0  0
  150.3584  144.7829  160.6318 H   0  0  0  0  0  0  0  0  0  0  0  0
  150.3596  146.0596  159.4353 H   0  0  0  0  0  0  0  0  0  0  0  0
  148.4410  145.5028  158.7449 H   0  0  0  0  0  0  0  0  0  0  0  0
  1  2  2  0  0  0  0
  2  3  1  0  0  0  0
  2  9  1  0  0  0  0
  3  4  1  0  0  0  0
  3 19  1  0  0  0  0
  3 20  1  0  0  0  0
  4  8  2  0  0  0  0
  4  5  1  0  0  0  0
  5  6  2  0  0  0  0
  5 21  1  0  0  0  0
  6  7  1  0  0  0  0
  6 22  1  0  0  0  0
  7  8  1  0  0  0  0
  9 10  1  0  0  0  0
  9 23  1  0  0  0  0
 10 16  1  0  0  0  0
 10 11  1  0  0  0  0
 10 24  1  0  0  0  0
 11 12  1  0  0  0  0
 11 25  1  0  0  0  0
 11 26  1  0  0  0  0
 12 13  1  0  0  0  0
 12 27  1  0  0  0  0
 12 28  1  0  0  0  0
 13 14  1  0  0  0  0
 13 29  1  0  0  0  0
 13 30  1  0  0  0  0
 14 15  1  0  0  0  0
 14 31  1  0  0  0  0
 14 32  1  0  0  0  0
 15 16  1  0  0  0  0
 15 33  1  0  0  0  0
 15 34  1  0  0  0  0
 16 17  1  0  0  0  0
 16 35  1  0  0  0  0
 17 18  1  0  0  0  0
 17 36  1  0  0  0  0
 17 37  1  0  0  0  0
 18 38  1  0  0  0  0
M  END
> <s_m_source_file>
AV-unprocessed.smi

> <i_m_source_file_index>
3039

> <i_lp_mmshare_version>
43012

> <i_f3d_flags>
0

> <s_epik_input>
bjFvW2NIXVtjSF1jMVtDSDJdQyg9TylbTkhdW0NAQEhdMltDSDJdW0NIMl1bQ0gyXVtDSDJdW0NIMl1bQ0BIXTJbQ0gyXVtPSF0=

> <s_epik_cmdline>
J2VwaWtfcHl0aG9uJywgJy1waCcsICc3LjAnLCAnLXRuJywgJzgnLCAnLW1hJywgJzIwMCcsICctbWV0YWxfYmluZGluZycsICctaW1hZScsICc8aW5maWxlLm1hZT4nLCAnLW9tYWUnLCAnPG91dGZpbGUubWFlPic=

> <r_lp_tautomer_probability>
1

> <r_epik_Ionization_Penalty>
3.05817e-07

> <r_epik_Ionization_Penalty_Charging>
0

> <r_epik_Ionization_Penalty_Neutral>
3.05817e-07

> <r_epik_State_Penalty>
-0

> <r_epik_Charging_Adjusted_Penalty>
0

> <i_epik_Tot_Q>
0

> <i_epik_Tot_abs_Q>
0

> <r_epik_Metal_State_Penalty>
-0

> <b_epik_Metal_Only>
0

> <s_lp_Force_Field>
OPLS_2005

> <r_lp_Energy>
18.8226

> <b_lp_Chiralities_Consistent>
1

> <s_lp_Variant>
AV-unprocessed.smi:3039-4

> <Gold.Version>
5.8.1

> <Gold.Id.Protein>
6NUR|6NUR_protein|mol2

> <Gold.PLP.Fitness>
44.1989

> <Gold.PLP.PLP>
-35.2064

> <Gold.PLP.part.hbond>
-3.7750

> <Gold.PLP.part.metal>
0.0000

> <Gold.PLP.part.buried>
-4.1794

> <Gold.PLP.part.nonpolar>
-28.3604

> <Gold.PLP.part.repulsive>
0.2418

> <Gold.PLP.ligand.clash>
0.0000

> <Gold.PLP.ligand.torsion>
0.3126

> <Gold.PLP.Chemscore.Hbond>
2.1896

> <Gold.PLP.Chemscore.CHOScore>
1.0000

> <Gold.PLP.Chemscore.Metal>
0.0000

> <Gold.Chemscore.Hbonds>
donor molecule, donor type, donor heavy atom, donor atom, acceptor molecule, acceptor atom, score
      L1  H     9    23       P1  8028  0.77
      L1  H    18    38       P1  8029  1.00
      P1  H  6934  6946       L1     1  0.41
      L1  C     6    22       P1  7957  0.98

> <Gold.PLP.Chemscore.Internal.Correction>
0.0488

> <Gold.Rescore>
     Score         DG    S(hbond)    S(metal)    S(lipo)     H(rot)  DE(clash)    DE(int)     intcor
     16.16     -17.75       2.09        0.00      94.82       2.26       0.02       1.57       ----

> <Gold.Chemscore.Fitness>
16.1570

> <Gold.Chemscore.DG>
-17.7507

> <Gold.Chemscore.ZeroCoef>
-5.4800

> <Gold.Chemscore.Hbond>
2.0858

> <Gold.Chemscore.Metal>
0.0000

> <Gold.Chemscore.Lipo>
94.8197

> <Gold.Chemscore.Internal_Hbond>
0.0000

> <Gold.Chemscore.DEClash>
0.0234

> <Gold.Chemscore.DEInternal>
1.5703

> <Gold.Chemscore.Rot>
2.2616

> <Gold.Chemscore.Internal.Correction>
   9.000000E+99

> <Gold.Chemscore.Hbonds>
donor molecule, donor type, donor heavy atom, donor atom, acceptor molecule, acceptor atom, score
      L1  H     9    23       P1  8028  0.76
      L1  H    18    38       P1  8029  0.98
      P1  H  6934  6946       L1     1  0.39

> <Gold.Chemscore.Hbond.Weighted>
-6.9664

> <Gold.Chemscore.Metal.Weighted>
-0.0000

> <Gold.Chemscore.Lipo.Weighted>
-11.0939

> <Gold.Chemscore.Internal_Hbond.Weighted>
0.0000

> <Gold.Chemscore.DEClash.Weighted>
0.0234

> <Gold.Chemscore.DEInternal.Weighted>
1.5703

> <Gold.Chemscore.Rot.Weighted>
5.7896

> <Gold.Chemscore.Internal.Correction.Weighted>
   9.000000E+99

> <Gold.Protein.RotatedTorsions>
[ 6907 6896 6895 6894 ] final  -18.10 input  -60.11 | X-H torsion
[ 7974 7965 7964 7962 ] final   71.12 input  175.53 | X-H torsion
[ 8008 7997 7996 7995 ] final  143.33 input   59.86 | X-H torsion
[ 10167 10162 10161 10158 ] final  -89.88 input  -65.29 | X-H torsion
[ 10718 10713 10712 10709 ] final -166.07 input   66.30 | X-H torsion
[ 10763 10752 10751 10750 ] final    9.75 input  -60.55 | X-H torsion
[ 11005 11000 10999 10996 ] final   -5.65 input  -57.11 | X-H torsion

> <Gold.Protein.ActiveResidues>
 VAL166  LYS551  ARG553  GLY616  TRP617  ASP618  TYR619  PRO620  LYS621  CYS622 
 ASP623  PHE694  ASN695  SER759  ASP760  ASP761  ALA762  ILE779  LEU786  VAL792 
 PHE793  MET794  SER795  GLU796  ALA797  LYS798  CYS799  TRP800  GLU811  SER814 

> <Gold.Protein.RotatedAtoms>
  151.2833  135.0720  159.9177 H   0  0  0  0  0  0  0  0  0  0  0  0  # atno 6907 bound_to 6896
  152.5330  134.0008  159.7904 H   0  0  0  0  0  0  0  0  0  0  0  0  # atno 6908 bound_to 6896
  151.0266  133.5778  159.2696 H   0  0  0  0  0  0  0  0  0  0  0  0  # atno 6909 bound_to 6896
  145.7697  139.2837  143.1328 H   0  0  0  0  0  0  0  0  0  0  0  0  # atno 7974 bound_to 7965
  156.2932  140.2265  156.4873 H   0  0  0  0  0  0  0  0  0  0  0  0  # atno 8008 bound_to 7997
  154.7801  140.0461  157.1141 H   0  0  0  0  0  0  0  0  0  0  0  0  # atno 8009 bound_to 7997
  154.9769  140.3073  155.4966 H   0  0  0  0  0  0  0  0  0  0  0  0  # atno 8010 bound_to 7997
  140.3605  143.2844  151.9620 H   0  0  0  0  0  0  0  0  0  0  0  0  # atno 10167 bound_to 10162
  156.6625  130.9052  151.3031 H   0  0  0  0  0  0  0  0  0  0  0  0  # atno 10718 bound_to 10713
  153.2106  135.6868  153.8118 H   0  0  0  0  0  0  0  0  0  0  0  0  # atno 10763 bound_to 10752
  153.7352  135.3246  155.3294 H   0  0  0  0  0  0  0  0  0  0  0  0  # atno 10764 bound_to 10752
  154.8220  135.4645  154.0912 H   0  0  0  0  0  0  0  0  0  0  0  0  # atno 10765 bound_to 10752
  140.6935  133.9051  155.8634 H   0  0  0  0  0  0  0  0  0  0  0  0  # atno 11005 bound_to 11000
  146.0182  140.8372  142.9936 LP  0  0  0  0  0  0  0  0  0  0  0  0  # atno 17320 bound_to 7965
  144.6815  140.2590  143.7321 LP  0  0  0  0  0  0  0  0  0  0  0  0  # atno 17321 bound_to 7965
  139.4815  144.5997  151.7628 LP  0  0  0  0  0  0  0  0  0  0  0  0  # atno 17342 bound_to 10162
  140.5132  144.0993  150.6001 LP  0  0  0  0  0  0  0  0  0  0  0  0  # atno 17343 bound_to 10162
  157.7104  130.9434  150.1072 LP  0  0  0  0  0  0  0  0  0  0  0  0  # atno 17370 bound_to 10713
  156.2000  130.3659  149.8801 LP  0  0  0  0  0  0  0  0  0  0  0  0  # atno 17371 bound_to 10713
  141.0222  134.0873  157.4108 LP  0  0  0  0  0  0  0  0  0  0  0  0  # atno 17394 bound_to 11000
  139.8917  135.0120  156.6804 LP  0  0  0  0  0  0  0  0  0  0  0  0  # atno 17395 bound_to 11000

$$$$
