#       Name:                AV-unprocessed.smi:1419
#       Creating user name   scv26
#       Creation time:       Fri Mar 27 05:42:42 2020


#       File generated by GOLD software.
#

@<TRIPOS>MOLECULE
AV-unprocessed.smi:1419
    46    47     1
SMALL
NO_CHARGES


@<TRIPOS>ATOM
      1 ****        -3.7255  -1.1274  -1.3492 C.3            1 S1                 0.0000
      2 ****        -2.8419  -0.4288  -0.3072 C.3            1 S1                 0.0000
      3 ****        -2.6705  -1.2971   0.9583 C.3            1 S1                 0.0000
      4 ****        -1.9111  -0.6269   1.9991 N.pl3          1 S1                 0.0000
      5 ****        -2.3440   0.4051   2.8211 C.2            1 S1                 0.0000
      6 ****        -1.2811   0.7333   3.6319 C.2            1 S1                 0.0000
      7 ****        -0.1929  -0.0837   3.3337 N.2            1 S1                 0.0000
      8 ****        -0.6428  -0.8660   2.3616 C.2            1 S1                 0.0000
      9 ****        -1.5410  -0.1331  -0.9058 N.am           1 S1                 0.0000
     10 ****        -0.8217   0.9867  -0.7130 C.2            1 S1                 0.0000
     11 ****        -1.2581   1.9493  -0.0804 O.2            1 S1                 0.0000
     12 ****         0.4361   0.9406  -1.2159 N.am           1 S1                 0.0000
     13 ****         1.0591  -0.1830  -1.9270 C.3            1 S1                 0.0000
     14 ****         2.0632  -0.8513  -0.9672 C.3            1 S1                 0.0000
     15 ****         2.8094  -2.0150  -1.6276 C.3            1 S1                 0.0000
     16 ****         3.0248   0.1197  -0.5526 O.3            1 S1                 0.0000
     17 ****         2.4571   1.2624   0.0895 C.3            1 S1                 0.0000
     18 ****         3.5975   2.2028   0.4921 C.3            1 S1                 0.0000
     19 ****         1.4538   1.9346  -0.8706 C.3            1 S1                 0.0000
     20 ****        -4.7148  -1.3407  -0.9436 H              1 S1                 0.0000
     21 ****        -3.2879  -2.0725  -1.6729 H              1 S1                 0.0000
     22 ****        -3.8607  -0.5023  -2.2326 H              1 S1                 0.0000
     23 ****        -3.3438   0.4998  -0.0292 H              1 S1                 0.0000
     24 ****        -3.6461  -1.5568   1.3708 H              1 S1                 0.0000
     25 ****        -2.1749  -2.2375   0.7127 H              1 S1                 0.0000
     26 ****        -3.3405   0.8160   2.7549 H              1 S1                 0.0000
     27 ****        -1.2161   1.4895   4.4002 H              1 S1                 0.0000
     28 ****        -0.0303  -1.6222   1.8930 H              1 S1                 0.0000
     29 ****        -1.1127  -0.8743  -1.4409 H              1 S1                 0.0000
     30 ****         0.3444  -0.9154  -2.3027 H              1 S1                 0.0000
     31 ****         1.5780   0.1944  -2.8095 H              1 S1                 0.0000
     32 ****         1.5373  -1.2277  -0.0881 H              1 S1                 0.0000
     33 ****         2.1166  -2.7927  -1.9496 H              1 S1                 0.0000
     34 ****         3.5178  -2.4677  -0.9336 H              1 S1                 0.0000
     35 ****         3.3678  -1.6799  -2.5021 H              1 S1                 0.0000
     36 ****         1.9386   0.9380   0.9941 H              1 S1                 0.0000
     37 ****         3.2141   3.0899   0.9969 H              1 S1                 0.0000
     38 ****         4.1650   2.5309  -0.3793 H              1 S1                 0.0000
     39 ****         4.2889   1.7060   1.1730 H              1 S1                 0.0000
     40 ****         1.9582   2.2749  -1.7764 H              1 S1                 0.0000
     41 ****         1.0315   2.8277  -0.4077 H              1 S1                 0.0000
     42 ****         0.7145  -0.0810   3.7540 LP             1 S1                 0.0000
     43 ****        -2.1777   1.9150   0.3110 LP             1 S1                 0.0000
     44 ****        -0.6928   2.7651   0.0418 LP             1 S1                 0.0000
     45 ****         3.5268   0.4297  -1.3599 LP             1 S1                 0.0000
     46 ****         3.6580  -0.3176   0.0860 LP             1 S1                 0.0000
@<TRIPOS>BOND
    1    1    2 1     
    2    1   20 1     
    3    1   21 1     
    4    1   22 1     
    5    2    3 1     
    6    2    9 1     
    7    2   23 1     
    8    3    4 1     
    9    3   24 1     
   10    3   25 1     
   11    4    8 1     
   12    4    5 1     
   13    5    6 2     
   14    5   26 1     
   15    6    7 1     
   16    6   27 1     
   17    7    8 2     
   18    8   28 1     
   19    9   10 am    
   20    9   29 1     
   21   10   11 2     
   22   10   12 am    
   23   12   19 1     
   24   12   13 1     
   25   13   14 1     
   26   13   30 1     
   27   13   31 1     
   28   14   15 1     
   29   14   16 1     
   30   14   32 1     
   31   15   33 1     
   32   15   34 1     
   33   15   35 1     
   34   16   17 1     
   35   17   18 1     
   36   17   19 1     
   37   17   36 1     
   38   18   37 1     
   39   18   38 1     
   40   18   39 1     
   41   19   40 1     
   42   19   41 1     
   43    7   42 1     
   44   11   43 1     
   45   11   44 1     
   46   16   45 1     
   47   16   46 1     
@<TRIPOS>SUBSTRUCTURE
      1 S1             1
@<TRIPOS>SET
LONE_PAIRS      STATIC     ATOMS    <user>   **** ""
5 42 43 44 45 46
DONOR_HYDROGENS      STATIC     ATOMS    <user>   **** ""
1 29
ATOM$BLUE        STATIC     ATOMS    COLORGROUP SYSTEM
5 42 43 44 45 46
ATOM$RED        STATIC     ATOMS    COLORGROUP SYSTEM
1 29
