AV-unprocessed.smi:3161|AV-procd|sdf|12055|dock8
  -GOLD-   2272017483D 1   1.00000     0.00000
 Structure written by MMmdl.
 41 42  0  0  0  0  0  0  0  0  2 V2000
  150.8134  136.2822  154.9201 C   0  0  0  0  0  0  0  0  0  0  0  0
  150.6968  137.7703  154.7574 C   0  0  0  0  0  0  0  0  0  0  0  0
  151.7482  138.7301  154.7335 C   0  0  0  0  0  0  0  0  0  0  0  0
  151.3099  139.9685  154.5752 N   0  0  0  0  0  0  0  0  0  0  0  0
  149.9681  139.8435  154.4895 N   0  0  0  0  0  0  0  0  0  0  0  0
  149.1409  141.0242  154.3113 C   0  0  0  0  0  0  0  0  0  0  0  0
  148.3225  141.3648  155.5721 C   0  0  2  0  0  0  0  0  0  0  0  0
  146.9473  141.9371  155.1899 C   0  0  0  0  0  0  0  0  0  0  0  0
  149.0707  142.3154  156.4264 N   0  3  0  0  0  0  0  0  0  0  0  0
  150.5361  142.1282  156.4510 C   0  0  0  0  0  0  0  0  0  0  0  0
  151.1416  142.7219  157.7304 C   0  0  2  0  0  0  0  0  0  0  0  0
  151.6419  144.1635  157.5134 C   0  0  0  0  0  0  0  0  0  0  0  0
  152.3251  144.6944  158.7788 C   0  0  0  0  0  0  0  0  0  0  0  0
  153.4135  143.7141  159.2287 C   0  0  0  0  0  0  0  0  0  0  0  0
  152.8358  142.2953  159.3523 C   0  0  0  0  0  0  0  0  0  0  0  0
  152.2436  141.9029  158.1173 O   0  0  0  0  0  0  0  0  0  0  0  0
  149.5709  138.5276  154.5979 C   0  0  0  0  0  0  0  0  0  0  0  0
  151.7472  135.9029  154.5045 H   0  0  0  0  0  0  0  0  0  0  0  0
  150.0026  135.7548  154.4171 H   0  0  0  0  0  0  0  0  0  0  0  0
  150.7856  135.9897  155.9697 H   0  0  0  0  0  0  0  0  0  0  0  0
  152.8113  138.5637  154.8274 H   0  0  0  0  0  0  0  0  0  0  0  0
  149.7757  141.8636  154.0216 H   0  0  0  0  0  0  0  0  0  0  0  0
  148.4719  140.8375  153.4701 H   0  0  0  0  0  0  0  0  0  0  0  0
  148.1698  140.4405  156.1318 H   0  0  0  0  0  0  0  0  0  0  0  0
  146.4026  141.2458  154.5463 H   0  0  0  0  0  0  0  0  0  0  0  0
  147.0461  142.8805  154.6517 H   0  0  0  0  0  0  0  0  0  0  0  0
  146.3245  142.1163  156.0661 H   0  0  0  0  0  0  0  0  0  0  0  0
  148.8919  143.2441  156.0699 H   0  0  0  0  0  0  0  0  0  0  0  0
  150.7847  141.0696  156.3759 H   0  0  0  0  0  0  0  0  0  0  0  0
  150.9661  142.6236  155.5797 H   0  0  0  0  0  0  0  0  0  0  0  0
  150.3869  142.7152  158.5193 H   0  0  0  0  0  0  0  0  0  0  0  0
  152.3481  144.1871  156.6821 H   0  0  0  0  0  0  0  0  0  0  0  0
  150.8127  144.8159  157.2378 H   0  0  0  0  0  0  0  0  0  0  0  0
  152.7528  145.6805  158.5961 H   0  0  0  0  0  0  0  0  0  0  0  0
  151.5867  144.8140  159.5728 H   0  0  0  0  0  0  0  0  0  0  0  0
  154.2295  143.7136  158.5049 H   0  0  0  0  0  0  0  0  0  0  0  0
  153.8392  144.0333  160.1804 H   0  0  0  0  0  0  0  0  0  0  0  0
  153.6279  141.5895  159.6029 H   0  0  0  0  0  0  0  0  0  0  0  0
  152.0982  142.2436  160.1546 H   0  0  0  0  0  0  0  0  0  0  0  0
  148.5302  138.2408  154.5529 H   0  0  0  0  0  0  0  0  0  0  0  0
  148.7121  142.2646  157.3695 H   0  0  0  0  0  0  0  0  0  0  0  0
  1  2  1  0  0  0  0
  1 18  1  0  0  0  0
  1 19  1  0  0  0  0
  1 20  1  0  0  0  0
  2 17  2  0  0  0  0
  2  3  1  0  0  0  0
  3  4  2  0  0  0  0
  3 21  1  0  0  0  0
  4  5  1  0  0  0  0
  5  6  1  0  0  0  0
  5 17  1  0  0  0  0
  6  7  1  0  0  0  0
  6 22  1  0  0  0  0
  6 23  1  0  0  0  0
  7  8  1  0  0  0  0
  7  9  1  0  0  0  0
  7 24  1  0  0  0  0
  8 25  1  0  0  0  0
  8 26  1  0  0  0  0
  8 27  1  0  0  0  0
  9 10  1  0  0  0  0
  9 28  1  0  0  0  0
  9 41  1  0  0  0  0
 10 11  1  0  0  0  0
 10 29  1  0  0  0  0
 10 30  1  0  0  0  0
 11 16  1  0  0  0  0
 11 12  1  0  0  0  0
 11 31  1  0  0  0  0
 12 13  1  0  0  0  0
 12 32  1  0  0  0  0
 12 33  1  0  0  0  0
 13 14  1  0  0  0  0
 13 34  1  0  0  0  0
 13 35  1  0  0  0  0
 14 15  1  0  0  0  0
 14 36  1  0  0  0  0
 14 37  1  0  0  0  0
 15 16  1  0  0  0  0
 15 38  1  0  0  0  0
 15 39  1  0  0  0  0
 17 40  1  0  0  0  0
M  CHG  1   9   1
M  END
> <s_m_source_file>
AV-unprocessed.smi

> <i_m_source_file_index>
3161

> <i_lp_mmshare_version>
43012

> <i_f3d_flags>
0

> <s_epik_input>
W0NIM11jMVtjSF1ubihbY0hdMSlbQ0gyXVtDQEhdKFtDSDNdKVtOSF1bQ0gyXVtDQEBIXTJbQ0gyXVtDSDJdW0NIMl1bQ0gyXU8y

> <s_epik_cmdline>
J2VwaWtfcHl0aG9uJywgJy1waCcsICc3LjAnLCAnLXRuJywgJzgnLCAnLW1hJywgJzIwMCcsICctbWV0YWxfYmluZGluZycsICctaW1hZScsICc8aW5maWxlLm1hZT4nLCAnLW9tYWUnLCAnPG91dGZpbGUubWFlPic=

> <r_lp_tautomer_probability>
1

> <r_epik_Ionization_Penalty>
0.00849661

> <r_epik_Ionization_Penalty_Charging>
0.00848754

> <r_epik_Ionization_Penalty_Neutral>
9.06711e-06

> <r_epik_State_Penalty>
0.00639836

> <r_epik_Charging_Adjusted_Penalty>
0.0148859

> <i_epik_Tot_Q>
1

> <i_epik_Tot_abs_Q>
1

> <r_epik_Metal_State_Penalty>
0.00639921

> <b_epik_Metal_Only>
0

> <s_lp_Force_Field>
OPLS_2005

> <r_lp_Energy>
12.4461

> <b_lp_Chiralities_Consistent>
1

> <s_lp_Variant>
AV-unprocessed.smi:3161-1

> <Gold.Version>
5.8.1

> <Gold.Id.Protein>
6NUR|6NUR_protein|mol2

> <Gold.PLP.Fitness>
48.3447

> <Gold.PLP.PLP>
-42.0382

> <Gold.PLP.part.hbond>
-1.9871

> <Gold.PLP.part.metal>
0.0000

> <Gold.PLP.part.buried>
-3.9548

> <Gold.PLP.part.nonpolar>
-37.0127

> <Gold.PLP.part.repulsive>
0.1106

> <Gold.PLP.ligand.clash>
0.0000

> <Gold.PLP.ligand.torsion>
1.3749

> <Gold.PLP.Chemscore.Hbond>
3.0000

> <Gold.PLP.Chemscore.CHOScore>
0.0000

> <Gold.PLP.Chemscore.Metal>
0.0000

> <Gold.Chemscore.Hbonds>
donor molecule, donor type, donor heavy atom, donor atom, acceptor molecule, acceptor atom, score
      L1  H     9    28       P1  8028  1.98
      P1  H  7989  7998       L1     4  0.76

> <Gold.PLP.Chemscore.Internal.Correction>
0.0564

> <Gold.Rescore>
     Score         DG    S(hbond)    S(metal)    S(lipo)     H(rot)  DE(clash)    DE(int)     intcor
     18.30     -19.94       1.90        0.00     103.77       1.57       0.36       1.29       ----

> <Gold.Chemscore.Fitness>
18.2967

> <Gold.Chemscore.DG>
-19.9421

> <Gold.Chemscore.ZeroCoef>
-5.4800

> <Gold.Chemscore.Hbond>
1.8994

> <Gold.Chemscore.Metal>
0.0000

> <Gold.Chemscore.Lipo>
103.7703

> <Gold.Chemscore.Internal_Hbond>
0.0000

> <Gold.Chemscore.DEClash>
0.3601

> <Gold.Chemscore.DEInternal>
1.2853

> <Gold.Chemscore.Rot>
1.5714

> <Gold.Chemscore.Internal.Correction>
   9.000000E+99

> <Gold.Chemscore.Hbonds>
donor molecule, donor type, donor heavy atom, donor atom, acceptor molecule, acceptor atom, score
      L1  H     9    28       P1  8028  0.92
      P1  H  7989  7998       L1     4  0.34

> <Gold.Chemscore.Hbond.Weighted>
-6.3438

> <Gold.Chemscore.Metal.Weighted>
-0.0000

> <Gold.Chemscore.Lipo.Weighted>
-12.1411

> <Gold.Chemscore.Internal_Hbond.Weighted>
0.0000

> <Gold.Chemscore.DEClash.Weighted>
0.3601

> <Gold.Chemscore.DEInternal.Weighted>
1.2853

> <Gold.Chemscore.Rot.Weighted>
4.0228

> <Gold.Chemscore.Internal.Correction.Weighted>
   9.000000E+99

> <Gold.Protein.RotatedTorsions>
[ 6907 6896 6895 6894 ] final  150.99 input  -60.11 | X-H torsion
[ 7974 7965 7964 7962 ] final   69.85 input  175.53 | X-H torsion
[ 8008 7997 7996 7995 ] final  112.55 input   59.86 | X-H torsion
[ 10167 10162 10161 10158 ] final   83.72 input  -65.29 | X-H torsion
[ 10718 10713 10712 10709 ] final -104.69 input   66.30 | X-H torsion
[ 10763 10752 10751 10750 ] final -124.94 input  -60.55 | X-H torsion
[ 11005 11000 10999 10996 ] final  -60.65 input  -57.11 | X-H torsion

> <Gold.Protein.ActiveResidues>
 VAL166  LYS551  ARG553  GLY616  TRP617  ASP618  TYR619  PRO620  LYS621  CYS622 
 ASP623  PHE694  ASN695  SER759  ASP760  ASP761  ALA762  ILE779  LEU786  VAL792 
 PHE793  MET794  SER795  GLU796  ALA797  LYS798  CYS799  TRP800  GLU811  SER814 

> <Gold.Protein.RotatedAtoms>
  152.1068  133.4279  159.4612 H   0  0  0  0  0  0  0  0  0  0  0  0  # atno 6907 bound_to 6896
  150.6866  134.2695  159.4591 H   0  0  0  0  0  0  0  0  0  0  0  0  # atno 6908 bound_to 6896
  152.0561  134.9623  160.0625 H   0  0  0  0  0  0  0  0  0  0  0  0  # atno 6909 bound_to 6896
  145.7853  139.2907  143.1242 H   0  0  0  0  0  0  0  0  0  0  0  0  # atno 7974 bound_to 7965
  156.2200  140.2997  155.9929 H   0  0  0  0  0  0  0  0  0  0  0  0  # atno 8008 bound_to 7997
  155.2507  140.0426  157.3003 H   0  0  0  0  0  0  0  0  0  0  0  0  # atno 8009 bound_to 7997
  154.5826  140.2379  155.8041 H   0  0  0  0  0  0  0  0  0  0  0  0  # atno 8010 bound_to 7997
  139.9155  144.6245  150.8494 H   0  0  0  0  0  0  0  0  0  0  0  0  # atno 10167 bound_to 10162
  156.0315  130.5527  150.7433 H   0  0  0  0  0  0  0  0  0  0  0  0  # atno 10718 bound_to 10713
  154.8730  135.4046  154.3187 H   0  0  0  0  0  0  0  0  0  0  0  0  # atno 10763 bound_to 10752
  153.4019  135.7018  153.6426 H   0  0  0  0  0  0  0  0  0  0  0  0  # atno 10764 bound_to 10752
  153.5165  135.3696  155.2582 H   0  0  0  0  0  0  0  0  0  0  0  0  # atno 10765 bound_to 10752
  141.1295  133.6624  156.5255 H   0  0  0  0  0  0  0  0  0  0  0  0  # atno 11005 bound_to 11000
  146.0032  140.8502  143.0008 LP  0  0  0  0  0  0  0  0  0  0  0  0  # atno 17320 bound_to 7965
  144.6790  140.2382  143.7347 LP  0  0  0  0  0  0  0  0  0  0  0  0  # atno 17321 bound_to 7965
  140.7675  143.3335  151.2359 LP  0  0  0  0  0  0  0  0  0  0  0  0  # atno 17342 bound_to 10162
  139.6906  143.9698  152.2857 LP  0  0  0  0  0  0  0  0  0  0  0  0  # atno 17343 bound_to 10162
  157.4996  131.0917  151.0330 LP  0  0  0  0  0  0  0  0  0  0  0  0  # atno 17370 bound_to 10713
  157.0714  130.5866  149.5403 LP  0  0  0  0  0  0  0  0  0  0  0  0  # atno 17371 bound_to 10713
  140.4258  134.7147  157.4915 LP  0  0  0  0  0  0  0  0  0  0  0  0  # atno 17394 bound_to 11000
  140.0328  134.6381  155.9083 LP  0  0  0  0  0  0  0  0  0  0  0  0  # atno 17395 bound_to 11000

$$$$
