AV-unprocessed.smi:2738|AV-procd|sdf|10549|dock3
  -GOLD-   2272015 03D 1   1.00000     0.00000
 Structure written by MMmdl.
 32 33  0  0  0  0  0  0  0  0  1 V2000
  154.2762  140.2193  161.3438 C   0  0  0  0  0  0  0  0  0  0  0  0
  154.4314  141.4027  160.3805 C   0  0  0  0  0  0  0  0  0  0  0  0
  153.2309  141.5849  159.5683 N   0  0  0  0  0  0  0  0  0  0  0  0
  152.7310  140.7122  158.6621 C   0  0  0  0  0  0  0  0  0  0  0  0
  153.2045  139.6115  158.3803 O   0  0  0  0  0  0  0  0  0  0  0  0
  151.6214  141.2625  158.1152 N   0  0  0  0  0  0  0  0  0  0  0  0
  150.7711  140.6573  157.0905 C   0  0  0  0  0  0  0  0  0  0  0  0
  151.5512  140.3404  155.7994 C   0  0  1  0  0  0  0  0  0  0  0  0
  152.2831  138.9904  155.8399 C   0  0  0  0  0  0  0  0  0  0  0  0
  150.6408  140.3232  154.7207 O   0  0  0  0  0  0  0  0  0  0  0  0
  151.4100  142.5289  158.6818 C   0  0  0  0  0  0  0  0  0  0  0  0
  150.4089  143.4909  158.4574 C   0  0  0  0  0  0  0  0  0  0  0  0
  150.4822  144.6885  159.2064 C   0  0  0  0  0  0  0  0  0  0  0  0
  151.5282  144.8980  160.1422 C   0  0  0  0  0  0  0  0  0  0  0  0
  152.5218  143.9132  160.3503 C   0  0  0  0  0  0  0  0  0  0  0  0
  152.4241  142.7314  159.5950 C   0  0  0  0  0  0  0  0  0  0  0  0
  155.1772  140.0870  161.9425 H   0  0  0  0  0  0  0  0  0  0  0  0
  154.0975  139.2901  160.8019 H   0  0  0  0  0  0  0  0  0  0  0  0
  153.4419  140.3744  162.0288 H   0  0  0  0  0  0  0  0  0  0  0  0
  154.6388  142.3135  160.9442 H   0  0  0  0  0  0  0  0  0  0  0  0
  155.2942  141.2467  159.7323 H   0  0  0  0  0  0  0  0  0  0  0  0
  150.2975  139.7551  157.4785 H   0  0  0  0  0  0  0  0  0  0  0  0
  149.9545  141.3466  156.8688 H   0  0  0  0  0  0  0  0  0  0  0  0
  152.2740  141.1332  155.6031 H   0  0  0  0  0  0  0  0  0  0  0  0
  153.0470  138.9767  156.6173 H   0  0  0  0  0  0  0  0  0  0  0  0
  152.7814  138.7854  154.8919 H   0  0  0  0  0  0  0  0  0  0  0  0
  151.5918  138.1707  156.0374 H   0  0  0  0  0  0  0  0  0  0  0  0
  149.7624  140.3446  155.0691 H   0  0  0  0  0  0  0  0  0  0  0  0
  149.6127  143.3285  157.7463 H   0  0  0  0  0  0  0  0  0  0  0  0
  149.7324  145.4529  159.0640 H   0  0  0  0  0  0  0  0  0  0  0  0
  151.5657  145.8200  160.7035 H   0  0  0  0  0  0  0  0  0  0  0  0
  153.3198  144.0679  161.0612 H   0  0  0  0  0  0  0  0  0  0  0  0
  1  2  1  0  0  0  0
  1 17  1  0  0  0  0
  1 18  1  0  0  0  0
  1 19  1  0  0  0  0
  2  3  1  0  0  0  0
  2 20  1  0  0  0  0
  2 21  1  0  0  0  0
  3 16  1  0  0  0  0
  3  4  1  0  0  0  0
  4  5  2  0  0  0  0
  4  6  1  0  0  0  0
  6  7  1  0  0  0  0
  6 11  1  0  0  0  0
  7  8  1  0  0  0  0
  7 22  1  0  0  0  0
  7 23  1  0  0  0  0
  8  9  1  0  0  0  0
  8 10  1  0  0  0  0
  8 24  1  0  0  0  0
  9 25  1  0  0  0  0
  9 26  1  0  0  0  0
  9 27  1  0  0  0  0
 10 28  1  0  0  0  0
 11 16  2  0  0  0  0
 11 12  1  0  0  0  0
 12 13  2  0  0  0  0
 12 29  1  0  0  0  0
 13 14  1  0  0  0  0
 13 30  1  0  0  0  0
 14 15  2  0  0  0  0
 14 31  1  0  0  0  0
 15 16  1  0  0  0  0
 15 32  1  0  0  0  0
M  END
> <s_m_source_file>
AV-unprocessed.smi

> <i_m_source_file_index>
2738

> <i_lp_mmshare_version>
43012

> <i_f3d_flags>
0

> <s_epik_input>
W2NIXTFbY0hdW2NIXVtjSF1jKGMxMiluKFtDSDJdW0NIM10pYyg9TyluMltDSDJdW0NASF0oW0NIM10pW09IXQ==

> <s_epik_cmdline>
J2VwaWtfcHl0aG9uJywgJy1waCcsICc3LjAnLCAnLXRuJywgJzgnLCAnLW1hJywgJzIwMCcsICctbWV0YWxfYmluZGluZycsICctaW1hZScsICc8aW5maWxlLm1hZT4nLCAnLW9tYWUnLCAnPG91dGZpbGUubWFlPic=

> <r_lp_tautomer_probability>
1

> <r_epik_Ionization_Penalty>
5.28302e-08

> <r_epik_Ionization_Penalty_Charging>
2.52071e-09

> <r_epik_Ionization_Penalty_Neutral>
5.03095e-08

> <r_epik_State_Penalty>
-0

> <r_epik_Charging_Adjusted_Penalty>
2.52071e-09

> <i_epik_Tot_Q>
0

> <i_epik_Tot_abs_Q>
0

> <r_epik_Metal_State_Penalty>
-0

> <b_epik_Metal_Only>
0

> <s_lp_Force_Field>
OPLS_2005

> <r_lp_Energy>
36.2216

> <b_lp_Chiralities_Consistent>
1

> <s_lp_Variant>
AV-unprocessed.smi:2738-2

> <Gold.Version>
5.8.1

> <Gold.Id.Protein>
6NUR|6NUR_protein|mol2

> <Gold.PLP.Fitness>
44.7539

> <Gold.PLP.PLP>
-39.3139

> <Gold.PLP.part.hbond>
-2.0000

> <Gold.PLP.part.metal>
0.0000

> <Gold.PLP.part.buried>
-4.6608

> <Gold.PLP.part.nonpolar>
-33.1143

> <Gold.PLP.part.repulsive>
0.0000

> <Gold.PLP.ligand.clash>
0.0000

> <Gold.PLP.ligand.torsion>
0.2822

> <Gold.PLP.Chemscore.Hbond>
2.0000

> <Gold.PLP.Chemscore.CHOScore>
0.0000

> <Gold.PLP.Chemscore.Metal>
0.0000

> <Gold.Chemscore.Hbonds>
donor molecule, donor type, donor heavy atom, donor atom, acceptor molecule, acceptor atom, score
      P1  H  7989  7998       L1    10  1.00
      P1  H  7997  8009       L1     5  1.00

> <Gold.PLP.Chemscore.Internal.Correction>
0.0045

> <Gold.Rescore>
     Score         DG    S(hbond)    S(metal)    S(lipo)     H(rot)  DE(clash)    DE(int)     intcor
     15.16     -16.92       1.42        0.00      96.83       1.81       0.03       1.74       ----

> <Gold.Chemscore.Fitness>
15.1615

> <Gold.Chemscore.DG>
-16.9242

> <Gold.Chemscore.ZeroCoef>
-5.4800

> <Gold.Chemscore.Hbond>
1.4224

> <Gold.Chemscore.Metal>
0.0000

> <Gold.Chemscore.Lipo>
96.8301

> <Gold.Chemscore.Internal_Hbond>
0.0000

> <Gold.Chemscore.DEClash>
0.0274

> <Gold.Chemscore.DEInternal>
1.7352

> <Gold.Chemscore.Rot>
1.8109

> <Gold.Chemscore.Internal.Correction>
   9.000000E+99

> <Gold.Chemscore.Hbonds>
donor molecule, donor type, donor heavy atom, donor atom, acceptor molecule, acceptor atom, score
      P1  H  7989  7998       L1    10  0.25
      P1  H  7997  8009       L1     5  0.44

> <Gold.Chemscore.Hbond.Weighted>
-4.7508

> <Gold.Chemscore.Metal.Weighted>
-0.0000

> <Gold.Chemscore.Lipo.Weighted>
-11.3291

> <Gold.Chemscore.Internal_Hbond.Weighted>
0.0000

> <Gold.Chemscore.DEClash.Weighted>
0.0274

> <Gold.Chemscore.DEInternal.Weighted>
1.7352

> <Gold.Chemscore.Rot.Weighted>
4.6358

> <Gold.Chemscore.Internal.Correction.Weighted>
   9.000000E+99

> <Gold.Protein.RotatedTorsions>
[ 6907 6896 6895 6894 ] final -118.51 input  -60.11 | X-H torsion
[ 7974 7965 7964 7962 ] final  -18.27 input  175.53 | X-H torsion
[ 8008 7997 7996 7995 ] final  149.78 input   59.86 | X-H torsion
[ 10167 10162 10161 10158 ] final -173.68 input  -65.29 | X-H torsion
[ 10718 10713 10712 10709 ] final  136.24 input   66.30 | X-H torsion
[ 10763 10752 10751 10750 ] final  129.97 input  -60.55 | X-H torsion
[ 11005 11000 10999 10996 ] final  124.21 input  -57.11 | X-H torsion

> <Gold.Protein.ActiveResidues>
 VAL166  LYS551  ARG553  GLY616  TRP617  ASP618  TYR619  PRO620  LYS621  CYS622 
 ASP623  PHE694  ASN695  SER759  ASP760  ASP761  ALA762  ILE779  LEU786  VAL792 
 PHE793  MET794  SER795  GLU796  ALA797  LYS798  CYS799  TRP800  GLU811  SER814 

> <Gold.Protein.RotatedAtoms>
  150.8226  133.8227  159.3132 H   0  0  0  0  0  0  0  0  0  0  0  0  # atno 6907 bound_to 6896
  151.5981  135.1047  160.0063 H   0  0  0  0  0  0  0  0  0  0  0  0  # atno 6908 bound_to 6896
  152.4313  133.7242  159.6607 H   0  0  0  0  0  0  0  0  0  0  0  0  # atno 6909 bound_to 6896
  146.1900  140.3898  142.8461 H   0  0  0  0  0  0  0  0  0  0  0  0  # atno 7974 bound_to 7965
  156.2742  140.2092  156.5912 H   0  0  0  0  0  0  0  0  0  0  0  0  # atno 8008 bound_to 7997
  154.6980  140.0523  157.0454 H   0  0  0  0  0  0  0  0  0  0  0  0  # atno 8009 bound_to 7997
  155.0773  140.3183  155.4615 H   0  0  0  0  0  0  0  0  0  0  0  0  # atno 8010 bound_to 7997
  139.5675  144.1721  152.1334 H   0  0  0  0  0  0  0  0  0  0  0  0  # atno 10167 bound_to 10162
  157.4487  131.1064  151.0059 H   0  0  0  0  0  0  0  0  0  0  0  0  # atno 10718 bound_to 10713
  153.7504  135.3211  155.3320 H   0  0  0  0  0  0  0  0  0  0  0  0  # atno 10763 bound_to 10752
  154.8265  135.4566  154.0937 H   0  0  0  0  0  0  0  0  0  0  0  0  # atno 10764 bound_to 10752
  153.2138  135.6939  153.8164 H   0  0  0  0  0  0  0  0  0  0  0  0  # atno 10765 bound_to 10752
  139.9348  134.9640  156.8374 H   0  0  0  0  0  0  0  0  0  0  0  0  # atno 11005 bound_to 11000
  144.8469  140.6942  143.6193 LP  0  0  0  0  0  0  0  0  0  0  0  0  # atno 17320 bound_to 7965
  145.3821  139.1634  143.4275 LP  0  0  0  0  0  0  0  0  0  0  0  0  # atno 17321 bound_to 7965
  140.1247  144.5342  150.6840 LP  0  0  0  0  0  0  0  0  0  0  0  0  # atno 17342 bound_to 10162
  140.6959  143.2403  151.5002 LP  0  0  0  0  0  0  0  0  0  0  0  0  # atno 17343 bound_to 10162
  157.0896  130.5937  149.5437 LP  0  0  0  0  0  0  0  0  0  0  0  0  # atno 17370 bound_to 10713
  155.9978  130.5050  150.7547 LP  0  0  0  0  0  0  0  0  0  0  0  0  # atno 17371 bound_to 10713
  140.6105  134.0086  155.7575 LP  0  0  0  0  0  0  0  0  0  0  0  0  # atno 17394 bound_to 11000
  141.0956  133.9849  157.3166 LP  0  0  0  0  0  0  0  0  0  0  0  0  # atno 17395 bound_to 11000

$$$$
