AV-unprocessed.smi:995|AV-procd|sdf|4346|dock9
  -GOLD-   22720 2243D 1   1.00000     0.00000
 Structure written by MMmdl.
 37 38  0  0  0  0  0  0  0  0  1 V2000
  150.4594  135.2734  156.5316 O   0  0  0  0  0  0  0  0  0  0  0  0
  150.1722  135.4044  155.3416 C   0  0  0  0  0  0  0  0  0  0  0  0
  150.1838  136.5798  154.6846 N   0  0  0  0  0  0  0  0  0  0  0  0
  150.4558  137.8802  155.1894 C   0  0  0  0  0  0  0  0  0  0  0  0
  150.6417  138.0233  156.5792 C   0  0  0  0  0  0  0  0  0  0  0  0
  150.9311  139.2959  157.1064 C   0  0  0  0  0  0  0  0  0  0  0  0
  151.0351  140.3887  156.2233 C   0  0  0  0  0  0  0  0  0  0  0  0
  151.3161  141.6343  156.7458 O   0  0  0  0  0  0  0  0  0  0  0  0
  151.2291  141.8167  158.1568 C   0  0  0  0  0  0  0  0  0  0  0  0
  151.8631  143.1642  158.5328 C   0  0  0  0  0  0  0  0  0  0  0  0
  153.1916  143.0521  158.4973 F   0  0  0  0  0  0  0  0  0  0  0  0
  151.4689  144.0733  157.6400 F   0  0  0  0  0  0  0  0  0  0  0  0
  151.4346  143.6445  159.9286 C   0  0  0  0  0  0  0  0  0  0  0  0
  152.0921  142.9904  160.8864 F   0  0  0  0  0  0  0  0  0  0  0  0
  151.6440  144.9543  160.0620 F   0  0  0  0  0  0  0  0  0  0  0  0
  150.8739  140.2597  154.8834 N   0  0  0  0  0  0  0  0  0  0  0  0
  150.5954  139.0368  154.3838 C   0  0  0  0  0  0  0  0  0  0  0  0
  149.8234  134.1687  154.4974 C   0  0  1  0  0  0  0  0  0  0  0  0
  149.9604  132.8448  155.2850 C   0  0  0  0  0  0  0  0  0  0  0  0
  149.5845  131.7579  154.4488 O   0  0  0  0  0  0  0  0  0  0  0  0
  148.2418  131.8872  154.0034 C   0  0  0  0  0  0  0  0  0  0  0  0
  148.1053  133.1948  153.2076 C   0  0  0  0  0  0  0  0  0  0  0  0
  148.4771  134.2844  154.0411 O   0  0  0  0  0  0  0  0  0  0  0  0
  150.0179  136.5260  153.6898 H   0  0  0  0  0  0  0  0  0  0  0  0
  150.5605  137.1705  157.2373 H   0  0  0  0  0  0  0  0  0  0  0  0
  151.0712  139.4314  158.1687 H   0  0  0  0  0  0  0  0  0  0  0  0
  150.1853  141.8016  158.4750 H   0  0  0  0  0  0  0  0  0  0  0  0
  151.7482  141.0063  158.6716 H   0  0  0  0  0  0  0  0  0  0  0  0
  150.3715  143.4704  160.0969 H   0  0  0  0  0  0  0  0  0  0  0  0
  150.5072  139.0005  153.3094 H   0  0  0  0  0  0  0  0  0  0  0  0
  150.4948  134.1573  153.6369 H   0  0  0  0  0  0  0  0  0  0  0  0
  150.9913  132.6884  155.6044 H   0  0  0  0  0  0  0  0  0  0  0  0
  149.3427  132.8538  156.1848 H   0  0  0  0  0  0  0  0  0  0  0  0
  147.9901  131.0326  153.3754 H   0  0  0  0  0  0  0  0  0  0  0  0
  147.5583  131.8753  154.8539 H   0  0  0  0  0  0  0  0  0  0  0  0
  148.7285  133.1744  152.3121 H   0  0  0  0  0  0  0  0  0  0  0  0
  147.0749  133.3330  152.8800 H   0  0  0  0  0  0  0  0  0  0  0  0
  1  2  2  0  0  0  0
  2  3  1  0  0  0  0
  2 18  1  0  0  0  0
  3  4  1  0  0  0  0
  3 24  1  0  0  0  0
  4 17  1  0  0  0  0
  4  5  2  0  0  0  0
  5  6  1  0  0  0  0
  5 25  1  0  0  0  0
  6  7  2  0  0  0  0
  6 26  1  0  0  0  0
  7  8  1  0  0  0  0
  7 16  1  0  0  0  0
  8  9  1  0  0  0  0
  9 10  1  0  0  0  0
  9 27  1  0  0  0  0
  9 28  1  0  0  0  0
 10 11  1  0  0  0  0
 10 12  1  0  0  0  0
 10 13  1  0  0  0  0
 13 14  1  0  0  0  0
 13 15  1  0  0  0  0
 13 29  1  0  0  0  0
 16 17  2  0  0  0  0
 17 30  1  0  0  0  0
 18 23  1  0  0  0  0
 18 19  1  0  0  0  0
 18 31  1  0  0  0  0
 19 20  1  0  0  0  0
 19 32  1  0  0  0  0
 19 33  1  0  0  0  0
 20 21  1  0  0  0  0
 21 22  1  0  0  0  0
 21 34  1  0  0  0  0
 21 35  1  0  0  0  0
 22 23  1  0  0  0  0
 22 36  1  0  0  0  0
 22 37  1  0  0  0  0
M  END
> <s_m_source_file>
AV-unprocessed.smi

> <i_m_source_file_index>
995

> <i_lp_mmshare_version>
43012

> <i_f3d_flags>
0

> <s_epik_input>
TzFbQ0gyXVtDSDJdT1tDSDJdW0NASF0xQyg9TylbTkhdYzJbY0hdW2NIXWMobltjSF0yKU9bQ0gyXUMoRikoRilbQ0hdKEYpRg==

> <s_epik_cmdline>
J2VwaWtfcHl0aG9uJywgJy1waCcsICc3LjAnLCAnLXRuJywgJzgnLCAnLW1hJywgJzIwMCcsICctbWV0YWxfYmluZGluZycsICctaW1hZScsICc8aW5maWxlLm1hZT4nLCAnLW9tYWUnLCAnPG91dGZpbGUubWFlPic=

> <r_lp_tautomer_probability>
1

> <r_epik_Ionization_Penalty>
2.54436e-06

> <r_epik_Ionization_Penalty_Charging>
0

> <r_epik_Ionization_Penalty_Neutral>
2.54436e-06

> <r_epik_State_Penalty>
-0

> <r_epik_Charging_Adjusted_Penalty>
0

> <i_epik_Tot_Q>
0

> <i_epik_Tot_abs_Q>
0

> <r_epik_Metal_State_Penalty>
-0

> <b_epik_Metal_Only>
0

> <s_lp_Force_Field>
OPLS_2005

> <r_lp_Energy>
9.88959

> <b_lp_Chiralities_Consistent>
1

> <s_lp_Variant>
AV-unprocessed.smi:995-2

> <Gold.Version>
5.8.1

> <Gold.Id.Protein>
6NUR|6NUR_protein|mol2

> <Gold.PLP.Fitness>
46.1197

> <Gold.PLP.PLP>
-39.3215

> <Gold.PLP.part.hbond>
-2.0000

> <Gold.PLP.part.metal>
0.0000

> <Gold.PLP.part.buried>
-6.7057

> <Gold.PLP.part.nonpolar>
-32.8585

> <Gold.PLP.part.repulsive>
1.4464

> <Gold.PLP.ligand.clash>
0.1058

> <Gold.PLP.ligand.torsion>
0.8731

> <Gold.PLP.Chemscore.Hbond>
1.8413

> <Gold.PLP.Chemscore.CHOScore>
1.0000

> <Gold.PLP.Chemscore.Metal>
0.0000

> <Gold.Chemscore.Hbonds>
donor molecule, donor type, donor heavy atom, donor atom, acceptor molecule, acceptor atom, score
      L1  H     3    24       P1  7948  0.76
      P1  H  7989  7998       L1    16  0.85
      L1  C    17    30       P1  7957  0.99

> <Gold.PLP.Chemscore.Internal.Correction>
0.1266

> <Gold.Rescore>
     Score         DG    S(hbond)    S(metal)    S(lipo)     H(rot)  DE(clash)    DE(int)     intcor
      9.55     -13.46       1.80        0.00      63.05       2.12       1.56       2.35       ----

> <Gold.Chemscore.Fitness>
9.5490

> <Gold.Chemscore.DG>
-13.4567

> <Gold.Chemscore.ZeroCoef>
-5.4800

> <Gold.Chemscore.Hbond>
1.8022

> <Gold.Chemscore.Metal>
0.0000

> <Gold.Chemscore.Lipo>
63.0549

> <Gold.Chemscore.Internal_Hbond>
0.0000

> <Gold.Chemscore.DEClash>
1.5580

> <Gold.Chemscore.DEInternal>
2.3497

> <Gold.Chemscore.Rot>
2.1172

> <Gold.Chemscore.Internal.Correction>
   9.000000E+99

> <Gold.Chemscore.Hbonds>
donor molecule, donor type, donor heavy atom, donor atom, acceptor molecule, acceptor atom, score
      L1  H     3    24       P1  7948  0.15
      P1  H  7989  7998       L1    16  0.15

> <Gold.Chemscore.Hbond.Weighted>
-6.0193

> <Gold.Chemscore.Metal.Weighted>
-0.0000

> <Gold.Chemscore.Lipo.Weighted>
-7.3774

> <Gold.Chemscore.Internal_Hbond.Weighted>
0.0000

> <Gold.Chemscore.DEClash.Weighted>
1.5580

> <Gold.Chemscore.DEInternal.Weighted>
2.3497

> <Gold.Chemscore.Rot.Weighted>
5.4200

> <Gold.Chemscore.Internal.Correction.Weighted>
   9.000000E+99

> <Gold.Protein.RotatedTorsions>
[ 6907 6896 6895 6894 ] final   10.98 input  -60.11 | X-H torsion
[ 7974 7965 7964 7962 ] final   43.83 input  175.53 | X-H torsion
[ 8008 7997 7996 7995 ] final   60.70 input   59.86 | X-H torsion
[ 10167 10162 10161 10158 ] final -125.11 input  -65.29 | X-H torsion
[ 10718 10713 10712 10709 ] final  141.26 input   66.30 | X-H torsion
[ 10763 10752 10751 10750 ] final  158.82 input  -60.55 | X-H torsion
[ 11005 11000 10999 10996 ] final  -70.37 input  -57.11 | X-H torsion

> <Gold.Protein.ActiveResidues>
 VAL166  LYS551  ARG553  GLY616  TRP617  ASP618  TYR619  PRO620  LYS621  CYS622 
 ASP623  PHE694  ASN695  SER759  ASP760  ASP761  ALA762  ILE779  LEU786  VAL792 
 PHE793  MET794  SER795  GLU796  ALA797  LYS798  CYS799  TRP800  GLU811  SER814 

> <Gold.Protein.RotatedAtoms>
  151.7470  135.0841  160.0324 H   0  0  0  0  0  0  0  0  0  0  0  0  # atno 6907 bound_to 6896
  152.3442  133.6098  159.5906 H   0  0  0  0  0  0  0  0  0  0  0  0  # atno 6908 bound_to 6896
  150.7498  133.9592  159.3552 H   0  0  0  0  0  0  0  0  0  0  0  0  # atno 6909 bound_to 6896
  146.0621  139.5142  142.9651 H   0  0  0  0  0  0  0  0  0  0  0  0  # atno 7974 bound_to 7965
  155.5865  140.3492  155.4554 H   0  0  0  0  0  0  0  0  0  0  0  0  # atno 8008 bound_to 7997
  156.0334  140.1279  157.0259 H   0  0  0  0  0  0  0  0  0  0  0  0  # atno 8009 bound_to 7997
  154.4361  140.1039  156.6117 H   0  0  0  0  0  0  0  0  0  0  0  0  # atno 8010 bound_to 7997
  139.9856  143.5696  152.2362 H   0  0  0  0  0  0  0  0  0  0  0  0  # atno 10167 bound_to 10162
  157.3940  131.1008  151.0618 H   0  0  0  0  0  0  0  0  0  0  0  0  # atno 10718 bound_to 10713
  154.2221  135.2781  155.2921 H   0  0  0  0  0  0  0  0  0  0  0  0  # atno 10763 bound_to 10752
  154.5693  135.5623  153.7084 H   0  0  0  0  0  0  0  0  0  0  0  0  # atno 10764 bound_to 10752
  153.0039  135.6317  154.2361 H   0  0  0  0  0  0  0  0  0  0  0  0  # atno 10765 bound_to 10752
  141.1573  133.6788  156.6742 H   0  0  0  0  0  0  0  0  0  0  0  0  # atno 11005 bound_to 11000
  145.6541  141.0256  143.1744 LP  0  0  0  0  0  0  0  0  0  0  0  0  # atno 17320 bound_to 7965
  144.7181  139.8125  143.7391 LP  0  0  0  0  0  0  0  0  0  0  0  0  # atno 17321 bound_to 7965
  139.6378  144.7652  151.2402 LP  0  0  0  0  0  0  0  0  0  0  0  0  # atno 17342 bound_to 10162
  140.7473  143.6369  150.8371 LP  0  0  0  0  0  0  0  0  0  0  0  0  # atno 17343 bound_to 10162
  157.1641  130.6238  149.5620 LP  0  0  0  0  0  0  0  0  0  0  0  0  # atno 17370 bound_to 10713
  155.9805  130.4807  150.6779 LP  0  0  0  0  0  0  0  0  0  0  0  0  # atno 17371 bound_to 10713
  140.3151  134.8054  157.4208 LP  0  0  0  0  0  0  0  0  0  0  0  0  # atno 17394 bound_to 11000
  140.1145  134.5302  155.8237 LP  0  0  0  0  0  0  0  0  0  0  0  0  # atno 17395 bound_to 11000

$$$$
