AV-unprocessed.smi:1863|AV-procd|sdf|7551|dock9
  -GOLD-   22720 9263D 1   1.00000     0.00000
 Structure written by MMmdl.
 37 38  0  0  0  0  0  0  0  0  1 V2000
  149.8300  134.4990  154.4028 C   0  0  0  0  0  0  0  0  0  0  0  0
  149.9623  132.9733  154.2993 C   0  0  1  0  0  0  0  0  0  0  0  0
  149.5074  132.2869  155.6080 C   0  0  0  0  0  0  0  0  0  0  0  0
  150.2929  131.0940  155.9206 N   0  0  0  0  0  0  0  0  0  0  0  0
  150.2012  129.9054  155.0886 C   0  0  0  0  0  0  0  0  0  0  0  0
  151.3642  129.0151  155.5468 C   0  0  0  0  0  0  0  0  0  0  0  0
  151.7941  129.5702  156.9087 C   0  0  0  0  0  0  0  0  0  0  0  0
  151.1321  130.9372  156.9516 C   0  0  0  0  0  0  0  0  0  0  0  0
  151.3682  131.7667  157.8288 O   0  0  0  0  0  0  0  0  0  0  0  0
  149.1528  132.5163  153.1707 N   0  0  0  0  0  0  0  0  0  0  0  0
  147.8355  132.7201  153.0218 C   0  0  0  0  0  0  0  0  0  0  0  0
  147.1424  133.3198  153.8433 O   0  0  0  0  0  0  0  0  0  0  0  0
  147.3963  132.2146  151.8568 N   0  0  0  0  0  0  0  0  0  0  0  0
  146.0853  132.2621  151.3108 C   0  0  0  0  0  0  0  0  0  0  0  0
  145.7374  131.7774  150.0266 C   0  0  0  0  0  0  0  0  0  0  0  0
  144.4028  131.8977  149.5935 C   0  0  0  0  0  0  0  0  0  0  0  0
  143.4678  132.5038  150.4550 C   0  0  0  0  0  0  0  0  0  0  0  0
  143.7883  132.9823  151.6756 N   0  0  0  0  0  0  0  0  0  0  0  0
  145.0697  132.8641  152.0835 C   0  0  0  0  0  0  0  0  0  0  0  0
  150.4426  134.8909  155.2154 H   0  0  0  0  0  0  0  0  0  0  0  0
  148.7980  134.7980  154.5906 H   0  0  0  0  0  0  0  0  0  0  0  0
  150.1570  134.9856  153.4833 H   0  0  0  0  0  0  0  0  0  0  0  0
  151.0159  132.7567  154.1148 H   0  0  0  0  0  0  0  0  0  0  0  0
  149.6085  132.9816  156.4435 H   0  0  0  0  0  0  0  0  0  0  0  0
  148.4475  132.0327  155.5572 H   0  0  0  0  0  0  0  0  0  0  0  0
  149.2416  129.4182  155.2669 H   0  0  0  0  0  0  0  0  0  0  0  0
  150.2701  130.1473  154.0274 H   0  0  0  0  0  0  0  0  0  0  0  0
  151.0755  127.9652  155.6019 H   0  0  0  0  0  0  0  0  0  0  0  0
  152.1923  129.0928  154.8407 H   0  0  0  0  0  0  0  0  0  0  0  0
  151.4144  128.9582  157.7274 H   0  0  0  0  0  0  0  0  0  0  0  0
  152.8778  129.6476  156.9987 H   0  0  0  0  0  0  0  0  0  0  0  0
  149.6387  132.0170  152.4402 H   0  0  0  0  0  0  0  0  0  0  0  0
  148.1006  131.8138  151.2547 H   0  0  0  0  0  0  0  0  0  0  0  0
  146.4627  131.3327  149.3635 H   0  0  0  0  0  0  0  0  0  0  0  0
  144.1039  131.5376  148.6202 H   0  0  0  0  0  0  0  0  0  0  0  0
  142.4367  132.6129  150.1530 H   0  0  0  0  0  0  0  0  0  0  0  0
  145.2900  133.2608  153.0640 H   0  0  0  0  0  0  0  0  0  0  0  0
  1  2  1  0  0  0  0
  1 20  1  0  0  0  0
  1 21  1  0  0  0  0
  1 22  1  0  0  0  0
  2  3  1  0  0  0  0
  2 10  1  0  0  0  0
  2 23  1  0  0  0  0
  3  4  1  0  0  0  0
  3 24  1  0  0  0  0
  3 25  1  0  0  0  0
  4  8  1  0  0  0  0
  4  5  1  0  0  0  0
  5  6  1  0  0  0  0
  5 26  1  0  0  0  0
  5 27  1  0  0  0  0
  6  7  1  0  0  0  0
  6 28  1  0  0  0  0
  6 29  1  0  0  0  0
  7  8  1  0  0  0  0
  7 30  1  0  0  0  0
  7 31  1  0  0  0  0
  8  9  2  0  0  0  0
 10 11  1  0  0  0  0
 10 32  1  0  0  0  0
 11 12  2  0  0  0  0
 11 13  1  0  0  0  0
 13 14  1  0  0  0  0
 13 33  1  0  0  0  0
 14 19  1  0  0  0  0
 14 15  2  0  0  0  0
 15 16  1  0  0  0  0
 15 34  1  0  0  0  0
 16 17  2  0  0  0  0
 16 35  1  0  0  0  0
 17 18  1  0  0  0  0
 17 36  1  0  0  0  0
 18 19  2  0  0  0  0
 19 37  1  0  0  0  0
M  END
> <s_m_source_file>
AV-unprocessed.smi

> <i_m_source_file_index>
1863

> <i_lp_mmshare_version>
43012

> <i_f3d_flags>
0

> <s_epik_input>
Tz1DMVtDSDJdW0NIMl1bQ0gyXU4xW0NIMl1bQ0BASF0oW0NIM10pW05IXUMoPU8pW05IXWMyW2NIXVtjSF1bY0hdbltjSF0y

> <s_epik_cmdline>
J2VwaWtfcHl0aG9uJywgJy1waCcsICc3LjAnLCAnLXRuJywgJzgnLCAnLW1hJywgJzIwMCcsICctbWV0YWxfYmluZGluZycsICctaW1hZScsICc8aW5maWxlLm1hZT4nLCAnLW9tYWUnLCAnPG91dGZpbGUubWFlPic=

> <r_epik_Ionization_Penalty>
0.0047799

> <r_epik_Ionization_Penalty_Charging>
0

> <r_epik_Ionization_Penalty_Neutral>
0.0047799

> <r_epik_State_Penalty>
0.0034394

> <r_epik_Charging_Adjusted_Penalty>
0.0034394

> <i_epik_Tot_Q>
0

> <i_epik_Tot_abs_Q>
0

> <r_epik_Metal_State_Penalty>
-0

> <b_epik_Metal_Only>
0

> <s_lp_Force_Field>
OPLS_2005

> <r_lp_Energy>
21.1293

> <b_lp_Chiralities_Consistent>
1

> <s_lp_Variant>
AV-unprocessed.smi:1863-2

> <Gold.Version>
5.8.1

> <Gold.Id.Protein>
6NUR|6NUR_protein|mol2

> <Gold.PLP.Fitness>
42.4055

> <Gold.PLP.PLP>
-33.0724

> <Gold.PLP.part.hbond>
-2.0000

> <Gold.PLP.part.metal>
0.0000

> <Gold.PLP.part.buried>
-2.9714

> <Gold.PLP.part.nonpolar>
-29.2337

> <Gold.PLP.part.repulsive>
0.3027

> <Gold.PLP.ligand.clash>
0.0000

> <Gold.PLP.ligand.torsion>
0.5391

> <Gold.PLP.Chemscore.Hbond>
1.8640

> <Gold.PLP.Chemscore.CHOScore>
1.6043

> <Gold.PLP.Chemscore.Metal>
0.0000

> <Gold.Chemscore.Hbonds>
donor molecule, donor type, donor heavy atom, donor atom, acceptor molecule, acceptor atom, score
      L1  H    13    33       P1 10747  1.00
      P1  H  6896  6907       L1     9  0.86
      L1  C    17    36       P1 10186  1.00
      L1  C    17    36       P1 10952  0.21

> <Gold.PLP.Chemscore.Internal.Correction>
0.0065

> <Gold.Rescore>
     Score         DG    S(hbond)    S(metal)    S(lipo)     H(rot)  DE(clash)    DE(int)     intcor
     13.55     -16.57       1.95        0.00      72.83       1.54       0.01       3.01       ----

> <Gold.Chemscore.Fitness>
13.5486

> <Gold.Chemscore.DG>
-16.5671

> <Gold.Chemscore.ZeroCoef>
-5.4800

> <Gold.Chemscore.Hbond>
1.9509

> <Gold.Chemscore.Metal>
0.0000

> <Gold.Chemscore.Lipo>
72.8269

> <Gold.Chemscore.Internal_Hbond>
0.0000

> <Gold.Chemscore.DEClash>
0.0060

> <Gold.Chemscore.DEInternal>
3.0125

> <Gold.Chemscore.Rot>
1.5428

> <Gold.Chemscore.Internal.Correction>
   9.000000E+99

> <Gold.Chemscore.Hbonds>
donor molecule, donor type, donor heavy atom, donor atom, acceptor molecule, acceptor atom, score
      L1  H    13    33       P1 10747  0.99
      P1  H  6896  6907       L1     9  0.84

> <Gold.Chemscore.Hbond.Weighted>
-6.5160

> <Gold.Chemscore.Metal.Weighted>
-0.0000

> <Gold.Chemscore.Lipo.Weighted>
-8.5207

> <Gold.Chemscore.Internal_Hbond.Weighted>
0.0000

> <Gold.Chemscore.DEClash.Weighted>
0.0060

> <Gold.Chemscore.DEInternal.Weighted>
3.0125

> <Gold.Chemscore.Rot.Weighted>
3.9497

> <Gold.Chemscore.Internal.Correction.Weighted>
   9.000000E+99

> <Gold.Protein.RotatedTorsions>
[ 6907 6896 6895 6894 ] final -170.39 input  -60.11 | X-H torsion
[ 7974 7965 7964 7962 ] final -142.93 input  175.53 | X-H torsion
[ 8008 7997 7996 7995 ] final   87.88 input   59.86 | X-H torsion
[ 10167 10162 10161 10158 ] final  -86.26 input  -65.29 | X-H torsion
[ 10718 10713 10712 10709 ] final  -35.43 input   66.30 | X-H torsion
[ 10763 10752 10751 10750 ] final    5.88 input  -60.55 | X-H torsion
[ 11005 11000 10999 10996 ] final  147.61 input  -57.11 | X-H torsion

> <Gold.Protein.ActiveResidues>
 VAL166  LYS551  ARG553  GLY616  TRP617  ASP618  TYR619  PRO620  LYS621  CYS622 
 ASP623  PHE694  ASN695  SER759  ASP760  ASP761  ALA762  ILE779  LEU786  VAL792 
 PHE793  MET794  SER795  GLU796  ALA797  LYS798  CYS799  TRP800  GLU811  SER814 

> <Gold.Protein.RotatedAtoms>
  151.5070  133.3492  159.2878 H   0  0  0  0  0  0  0  0  0  0  0  0  # atno 6907 bound_to 6896
  150.8736  134.8117  159.7184 H   0  0  0  0  0  0  0  0  0  0  0  0  # atno 6908 bound_to 6896
  152.4715  134.4958  159.9761 H   0  0  0  0  0  0  0  0  0  0  0  0  # atno 6909 bound_to 6896
  144.8407  140.5898  143.5454 H   0  0  0  0  0  0  0  0  0  0  0  0  # atno 7974 bound_to 7965
  155.9808  140.3377  155.6661 H   0  0  0  0  0  0  0  0  0  0  0  0  # atno 8008 bound_to 7997
  155.6551  140.0710  157.2591 H   0  0  0  0  0  0  0  0  0  0  0  0  # atno 8009 bound_to 7997
  154.4191  140.1718  156.1703 H   0  0  0  0  0  0  0  0  0  0  0  0  # atno 8010 bound_to 7997
  140.3958  143.2684  151.9205 H   0  0  0  0  0  0  0  0  0  0  0  0  # atno 10167 bound_to 10162
  156.3387  130.4290  149.7806 H   0  0  0  0  0  0  0  0  0  0  0  0  # atno 10718 bound_to 10713
  153.2543  135.6917  153.7646 H   0  0  0  0  0  0  0  0  0  0  0  0  # atno 10763 bound_to 10752
  153.6729  135.3341  155.3159 H   0  0  0  0  0  0  0  0  0  0  0  0  # atno 10764 bound_to 10752
  154.8406  135.4504  154.1510 H   0  0  0  0  0  0  0  0  0  0  0  0  # atno 10765 bound_to 10752
  140.0890  134.9052  157.1621 H   0  0  0  0  0  0  0  0  0  0  0  0  # atno 11005 bound_to 11000
  145.4700  139.1504  143.3819 LP  0  0  0  0  0  0  0  0  0  0  0  0  # atno 17320 bound_to 7965
  146.2700  140.4833  142.8818 LP  0  0  0  0  0  0  0  0  0  0  0  0  # atno 17321 bound_to 7965
  139.4787  144.5682  151.8131 LP  0  0  0  0  0  0  0  0  0  0  0  0  # atno 17342 bound_to 10162
  140.4791  144.1475  150.5929 LP  0  0  0  0  0  0  0  0  0  0  0  0  # atno 17343 bound_to 10162
  156.5051  130.8146  151.3147 LP  0  0  0  0  0  0  0  0  0  0  0  0  # atno 17370 bound_to 10713
  157.7443  130.9932  150.2663 LP  0  0  0  0  0  0  0  0  0  0  0  0  # atno 17371 bound_to 10713
  140.3379  134.2737  155.7217 LP  0  0  0  0  0  0  0  0  0  0  0  0  # atno 17394 bound_to 11000
  141.2072  133.7813  157.0134 LP  0  0  0  0  0  0  0  0  0  0  0  0  # atno 17395 bound_to 11000

$$$$
