AV-unprocessed.smi:1190|AV-procd|sdf|4980|dock1
  -GOLD-   22720 3573D 1   1.00000     0.00000
 Structure written by MMmdl.
 43 44  0  0  0  0  0  0  0  0  1 V2000
  146.7538  128.4693  152.9875 C   0  0  0  0  0  0  0  0  0  0  0  0
  147.6898  128.8997  153.9698 O   0  0  0  0  0  0  0  0  0  0  0  0
  148.0716  130.2257  153.9739 C   0  0  0  0  0  0  0  0  0  0  0  0
  147.2705  131.1594  153.2876 C   0  0  0  0  0  0  0  0  0  0  0  0
  147.6556  132.5131  153.2894 C   0  0  0  0  0  0  0  0  0  0  0  0
  148.8288  132.8957  153.9703 C   0  0  0  0  0  0  0  0  0  0  0  0
  149.1752  134.2745  153.9640 N   0  0  0  0  0  0  0  0  0  0  0  0
  149.8110  134.9923  154.9057 C   0  0  0  0  0  0  0  0  0  0  0  0
  150.2443  134.5513  155.9698 O   0  0  0  0  0  0  0  0  0  0  0  0
  149.9258  136.2746  154.5336 N   0  0  0  0  0  0  0  0  0  0  0  0
  150.5265  137.3444  155.3282 C   0  0  0  0  0  0  0  0  0  0  0  0
  151.3338  138.3420  154.4562 C   0  0  2  0  0  0  0  0  0  0  0  0
  152.8369  138.1536  154.7633 C   0  0  0  0  0  0  0  0  0  0  0  0
  150.8791  139.7454  154.5707 N   0  0  0  0  0  0  0  0  0  0  0  0
  149.4392  139.8924  154.3383 C   0  0  0  0  0  0  0  0  0  0  0  0
  148.9657  141.3503  154.4710 C   0  0  0  0  0  0  0  0  0  0  0  0
  149.3080  141.8490  155.7576 O   0  0  0  0  0  0  0  0  0  0  0  0
  150.7070  141.7881  156.0023 C   0  0  0  0  0  0  0  0  0  0  0  0
  151.1923  140.3334  155.8767 C   0  0  0  0  0  0  0  0  0  0  0  0
  149.5604  131.8833  154.6394 C   0  0  0  0  0  0  0  0  0  0  0  0
  149.1971  130.5829  154.6402 N   0  0  0  0  0  0  0  0  0  0  0  0
  146.5679  127.4023  153.1089 H   0  0  0  0  0  0  0  0  0  0  0  0
  147.1338  128.6247  151.9767 H   0  0  0  0  0  0  0  0  0  0  0  0
  145.7991  128.9861  153.0949 H   0  0  0  0  0  0  0  0  0  0  0  0
  146.3762  130.8433  152.7708 H   0  0  0  0  0  0  0  0  0  0  0  0
  147.0553  133.2470  152.7714 H   0  0  0  0  0  0  0  0  0  0  0  0
  148.9356  134.7727  153.1194 H   0  0  0  0  0  0  0  0  0  0  0  0
  149.5380  136.5435  153.6412 H   0  0  0  0  0  0  0  0  0  0  0  0
  149.7656  137.8786  155.8995 H   0  0  0  0  0  0  0  0  0  0  0  0
  151.1614  136.8891  156.0873 H   0  0  0  0  0  0  0  0  0  0  0  0
  151.1914  138.0279  153.4210 H   0  0  0  0  0  0  0  0  0  0  0  0
  153.1060  137.0971  154.7879 H   0  0  0  0  0  0  0  0  0  0  0  0
  153.1057  138.5835  155.7286 H   0  0  0  0  0  0  0  0  0  0  0  0
  153.4704  138.6102  154.0036 H   0  0  0  0  0  0  0  0  0  0  0  0
  149.1768  139.5532  153.3372 H   0  0  0  0  0  0  0  0  0  0  0  0
  148.8851  139.2668  155.0397 H   0  0  0  0  0  0  0  0  0  0  0  0
  149.4166  141.9744  153.6979 H   0  0  0  0  0  0  0  0  0  0  0  0
  147.8851  141.4110  154.3416 H   0  0  0  0  0  0  0  0  0  0  0  0
  151.2358  142.4336  155.2993 H   0  0  0  0  0  0  0  0  0  0  0  0
  150.9103  142.1698  157.0030 H   0  0  0  0  0  0  0  0  0  0  0  0
  150.7437  139.7330  156.6697 H   0  0  0  0  0  0  0  0  0  0  0  0
  152.2670  140.3323  156.0501 H   0  0  0  0  0  0  0  0  0  0  0  0
  150.4500  132.0963  155.2099 H   0  0  0  0  0  0  0  0  0  0  0  0
  1  2  1  0  0  0  0
  1 22  1  0  0  0  0
  1 23  1  0  0  0  0
  1 24  1  0  0  0  0
  2  3  1  0  0  0  0
  3 21  1  0  0  0  0
  3  4  2  0  0  0  0
  4  5  1  0  0  0  0
  4 25  1  0  0  0  0
  5  6  2  0  0  0  0
  5 26  1  0  0  0  0
  6  7  1  0  0  0  0
  6 20  1  0  0  0  0
  7  8  1  0  0  0  0
  7 27  1  0  0  0  0
  8  9  2  0  0  0  0
  8 10  1  0  0  0  0
 10 11  1  0  0  0  0
 10 28  1  0  0  0  0
 11 12  1  0  0  0  0
 11 29  1  0  0  0  0
 11 30  1  0  0  0  0
 12 13  1  0  0  0  0
 12 14  1  0  0  0  0
 12 31  1  0  0  0  0
 13 32  1  0  0  0  0
 13 33  1  0  0  0  0
 13 34  1  0  0  0  0
 14 19  1  0  0  0  0
 14 15  1  0  0  0  0
 15 16  1  0  0  0  0
 15 35  1  0  0  0  0
 15 36  1  0  0  0  0
 16 17  1  0  0  0  0
 16 37  1  0  0  0  0
 16 38  1  0  0  0  0
 17 18  1  0  0  0  0
 18 19  1  0  0  0  0
 18 39  1  0  0  0  0
 18 40  1  0  0  0  0
 19 41  1  0  0  0  0
 19 42  1  0  0  0  0
 20 21  2  0  0  0  0
 20 43  1  0  0  0  0
M  END
> <s_m_source_file>
AV-unprocessed.smi

> <i_m_source_file_index>
1190

> <i_lp_mmshare_version>
43012

> <i_f3d_flags>
0

> <s_epik_input>
W0NIM11PYzFbY0hdW2NIXWMoW2NIXW4xKVtOSF1DKD1PKVtOSF1bQ0gyXVtDQEhdKFtDSDNdKU4yW0NIMl1bQ0gyXU9bQ0gyXVtDSDJdMg==

> <s_epik_cmdline>
J2VwaWtfcHl0aG9uJywgJy1waCcsICc3LjAnLCAnLXRuJywgJzgnLCAnLW1hJywgJzIwMCcsICctbWV0YWxfYmluZGluZycsICctaW1hZScsICc8aW5maWxlLm1hZT4nLCAnLW9tYWUnLCAnPG91dGZpbGUubWFlPic=

> <r_lp_tautomer_probability>
1

> <r_epik_Ionization_Penalty>
0.266084

> <r_epik_Ionization_Penalty_Charging>
0

> <r_epik_Ionization_Penalty_Neutral>
0.266084

> <r_epik_State_Penalty>
0.257924

> <r_epik_Charging_Adjusted_Penalty>
0.257924

> <i_epik_Tot_Q>
0

> <i_epik_Tot_abs_Q>
0

> <r_epik_Metal_State_Penalty>
0.257922

> <b_epik_Metal_Only>
0

> <s_lp_Force_Field>
OPLS_2005

> <r_lp_Energy>
36.3321

> <b_lp_Chiralities_Consistent>
1

> <s_lp_Variant>
AV-unprocessed.smi:1190-1

> <Gold.Version>
5.8.1

> <Gold.Id.Protein>
6NUR|6NUR_protein|mol2

> <Gold.PLP.Fitness>
43.5452

> <Gold.PLP.PLP>
-38.0705

> <Gold.PLP.part.hbond>
-3.4923

> <Gold.PLP.part.metal>
0.0000

> <Gold.PLP.part.buried>
-4.4090

> <Gold.PLP.part.nonpolar>
-31.5407

> <Gold.PLP.part.repulsive>
1.1961

> <Gold.PLP.ligand.clash>
0.0000

> <Gold.PLP.ligand.torsion>
1.3653

> <Gold.PLP.Chemscore.Hbond>
2.7000

> <Gold.PLP.Chemscore.CHOScore>
0.0000

> <Gold.PLP.Chemscore.Metal>
0.0000

> <Gold.Chemscore.Hbonds>
donor molecule, donor type, donor heavy atom, donor atom, acceptor molecule, acceptor atom, score
      L1  H     7    27       P1  7948  0.80
      L1  H    10    28       P1  7948  1.00
      P1  H  7989  7998       L1    14  1.00

> <Gold.PLP.Chemscore.Internal.Correction>
0.1053

> <Gold.Rescore>
     Score         DG    S(hbond)    S(metal)    S(lipo)     H(rot)  DE(clash)    DE(int)     intcor
     14.26     -15.73       1.74        0.00      75.77       1.73       0.15       1.33       ----

> <Gold.Chemscore.Fitness>
14.2552

> <Gold.Chemscore.DG>
-15.7317

> <Gold.Chemscore.ZeroCoef>
-5.4800

> <Gold.Chemscore.Hbond>
1.7406

> <Gold.Chemscore.Metal>
0.0000

> <Gold.Chemscore.Lipo>
75.7684

> <Gold.Chemscore.Internal_Hbond>
0.0000

> <Gold.Chemscore.DEClash>
0.1501

> <Gold.Chemscore.DEInternal>
1.3264

> <Gold.Chemscore.Rot>
1.7292

> <Gold.Chemscore.Internal.Correction>
   9.000000E+99

> <Gold.Chemscore.Hbonds>
donor molecule, donor type, donor heavy atom, donor atom, acceptor molecule, acceptor atom, score
      L1  H     7    27       P1  7948  0.12
      L1  H    10    28       P1  7948  0.73
      P1  H  7989  7998       L1    14  0.16

> <Gold.Chemscore.Hbond.Weighted>
-5.8136

> <Gold.Chemscore.Metal.Weighted>
-0.0000

> <Gold.Chemscore.Lipo.Weighted>
-8.8649

> <Gold.Chemscore.Internal_Hbond.Weighted>
0.0000

> <Gold.Chemscore.DEClash.Weighted>
0.1501

> <Gold.Chemscore.DEInternal.Weighted>
1.3264

> <Gold.Chemscore.Rot.Weighted>
4.4268

> <Gold.Chemscore.Internal.Correction.Weighted>
   9.000000E+99

> <Gold.Protein.RotatedTorsions>
[ 6907 6896 6895 6894 ] final   44.70 input  -60.11 | X-H torsion
[ 7974 7965 7964 7962 ] final   13.54 input  175.53 | X-H torsion
[ 8008 7997 7996 7995 ] final   43.63 input   59.86 | X-H torsion
[ 10167 10162 10161 10158 ] final  103.07 input  -65.29 | X-H torsion
[ 10718 10713 10712 10709 ] final  -33.20 input   66.30 | X-H torsion
[ 10763 10752 10751 10750 ] final   44.86 input  -60.55 | X-H torsion
[ 11005 11000 10999 10996 ] final   60.32 input  -57.11 | X-H torsion

> <Gold.Protein.ActiveResidues>
 VAL166  LYS551  ARG553  GLY616  TRP617  ASP618  TYR619  PRO620  LYS621  CYS622 
 ASP623  PHE694  ASN695  SER759  ASP760  ASP761  ALA762  ILE779  LEU786  VAL792 
 PHE793  MET794  SER795  GLU796  ALA797  LYS798  CYS799  TRP800  GLU811  SER814 

> <Gold.Protein.RotatedAtoms>
  152.2357  134.8278  160.0467 H   0  0  0  0  0  0  0  0  0  0  0  0  # atno 6907 bound_to 6896
  151.9011  133.3533  159.3839 H   0  0  0  0  0  0  0  0  0  0  0  0  # atno 6908 bound_to 6896
  150.7038  134.4753  159.5489 H   0  0  0  0  0  0  0  0  0  0  0  0  # atno 6909 bound_to 6896
  146.2327  139.9173  142.8515 H   0  0  0  0  0  0  0  0  0  0  0  0  # atno 7974 bound_to 7965
  155.3059  140.3388  155.4246 H   0  0  0  0  0  0  0  0  0  0  0  0  # atno 8008 bound_to 7997
  156.1979  140.1722  156.7998 H   0  0  0  0  0  0  0  0  0  0  0  0  # atno 8009 bound_to 7997
  154.5522  140.0703  156.8670 H   0  0  0  0  0  0  0  0  0  0  0  0  # atno 8010 bound_to 7997
  139.7295  144.7039  151.0745 H   0  0  0  0  0  0  0  0  0  0  0  0  # atno 10167 bound_to 10162
  156.3655  130.4331  149.7588 H   0  0  0  0  0  0  0  0  0  0  0  0  # atno 10718 bound_to 10713
  152.9834  135.6057  154.3343 H   0  0  0  0  0  0  0  0  0  0  0  0  # atno 10763 bound_to 10752
  154.3044  135.2772  155.2597 H   0  0  0  0  0  0  0  0  0  0  0  0  # atno 10764 bound_to 10752
  154.4835  135.5911  153.6463 H   0  0  0  0  0  0  0  0  0  0  0  0  # atno 10765 bound_to 10752
  140.0240  134.6110  155.9599 H   0  0  0  0  0  0  0  0  0  0  0  0  # atno 11005 bound_to 11000
  145.2171  140.9920  143.4067 LP  0  0  0  0  0  0  0  0  0  0  0  0  # atno 17320 bound_to 7965
  144.9642  139.3948  143.6341 LP  0  0  0  0  0  0  0  0  0  0  0  0  # atno 17321 bound_to 7965
  140.7768  143.5062  150.9709 LP  0  0  0  0  0  0  0  0  0  0  0  0  # atno 17342 bound_to 10162
  139.8750  143.7144  152.3163 LP  0  0  0  0  0  0  0  0  0  0  0  0  # atno 17343 bound_to 10162
  156.4735  130.8008  151.3025 LP  0  0  0  0  0  0  0  0  0  0  0  0  # atno 17370 bound_to 10713
  157.7478  131.0028  150.3015 LP  0  0  0  0  0  0  0  0  0  0  0  0  # atno 17371 bound_to 10713
  141.1791  133.6544  156.4948 LP  0  0  0  0  0  0  0  0  0  0  0  0  # atno 17394 bound_to 11000
  140.4338  134.7077  157.4956 LP  0  0  0  0  0  0  0  0  0  0  0  0  # atno 17395 bound_to 11000

$$$$
