AV-unprocessed.smi:907|AV-procd|sdf|4111|dock7
  -GOLD-   22720 2 03D 1   1.00000     0.00000
 Structure written by MMmdl.
 54 57  0  0  0  0  0  0  0  0  3 V2000
  150.9122  139.3542  154.4248 O   0  0  0  0  0  0  0  0  0  0  0  0
  149.8378  139.6386  154.9545 C   0  0  0  0  0  0  0  0  0  0  0  0
  148.8784  138.7204  155.1552 N   0  0  0  0  0  0  0  0  0  0  0  0
  148.9900  137.3159  154.7856 C   0  0  0  0  0  0  0  0  0  0  0  0
  149.6297  136.5051  155.9210 C   0  0  0  0  0  0  0  0  0  0  0  0
  149.7719  135.0363  155.5701 C   0  0  0  0  0  0  0  0  0  0  0  0
  150.2721  134.0897  156.4905 C   0  0  0  0  0  0  0  0  0  0  0  0
  150.3756  132.7378  156.1013 C   0  0  0  0  0  0  0  0  0  0  0  0
  149.9752  132.3609  154.8026 C   0  0  0  0  0  0  0  0  0  0  0  0
  149.4812  133.3469  153.9244 C   0  0  0  0  0  0  0  0  0  0  0  0
  149.3986  134.6320  154.3341 N   0  3  0  0  0  0  0  0  0  0  0  0
  149.5097  140.8983  155.3376 N   0  0  0  0  0  0  0  0  0  0  0  0
  148.3494  141.2903  156.1465 C   0  0  0  0  0  0  0  0  0  0  0  0
  148.8205  141.6783  157.5615 C   0  0  0  0  0  0  0  0  0  0  0  0
  149.8750  142.7354  157.5376 N   0  3  0  0  0  0  0  0  0  0  0  0
  150.4096  143.1043  158.8852 C   0  0  1  0  0  0  0  0  0  0  0  0
  151.4976  142.1087  159.3698 C   0  0  0  0  0  0  0  0  0  0  0  0
  152.6915  143.0133  159.7164 C   0  0  2  0  0  0  0  0  0  0  0  0
  152.3660  143.8398  160.9715 C   0  0  0  0  0  0  0  0  0  0  0  0
  151.3343  144.8517  160.4439 C   0  0  0  0  0  0  0  0  0  0  0  0
  151.1818  144.4526  158.9625 C   0  0  1  0  0  0  0  0  0  0  0  0
  152.6110  144.0559  158.6096 C   0  0  0  0  0  0  0  0  0  0  0  0
  150.9737  142.4056  156.5807 C   0  0  0  0  0  0  0  0  0  0  0  0
  150.4342  142.0233  155.1923 C   0  0  0  0  0  0  0  0  0  0  0  0
  148.0108  139.0195  155.5757 H   0  0  0  0  0  0  0  0  0  0  0  0
  147.9955  136.9271  154.5603 H   0  0  0  0  0  0  0  0  0  0  0  0
  149.5873  137.2228  153.8770 H   0  0  0  0  0  0  0  0  0  0  0  0
  150.6150  136.9080  156.1602 H   0  0  0  0  0  0  0  0  0  0  0  0
  149.0307  136.5967  156.8282 H   0  0  0  0  0  0  0  0  0  0  0  0
  150.5729  134.3929  157.4829 H   0  0  0  0  0  0  0  0  0  0  0  0
  150.7572  131.9990  156.7908 H   0  0  0  0  0  0  0  0  0  0  0  0
  150.0458  131.3306  154.4853 H   0  0  0  0  0  0  0  0  0  0  0  0
  149.1525  133.1485  152.9147 H   0  0  0  0  0  0  0  0  0  0  0  0
  147.8610  142.1432  155.6725 H   0  0  0  0  0  0  0  0  0  0  0  0
  147.5795  140.5221  156.2176 H   0  0  0  0  0  0  0  0  0  0  0  0
  147.9429  142.0211  158.1056 H   0  0  0  0  0  0  0  0  0  0  0  0
  149.2020  140.7979  158.0810 H   0  0  0  0  0  0  0  0  0  0  0  0
  149.5701  143.1264  159.5823 H   0  0  0  0  0  0  0  0  0  0  0  0
  151.1658  141.5132  160.2213 H   0  0  0  0  0  0  0  0  0  0  0  0
  151.7993  141.4179  158.5813 H   0  0  0  0  0  0  0  0  0  0  0  0
  153.6405  142.4796  159.7787 H   0  0  0  0  0  0  0  0  0  0  0  0
  151.9719  143.2245  161.7812 H   0  0  0  0  0  0  0  0  0  0  0  0
  153.2537  144.3544  161.3421 H   0  0  0  0  0  0  0  0  0  0  0  0
  150.3904  144.8084  160.9885 H   0  0  0  0  0  0  0  0  0  0  0  0
  151.7206  145.8682  160.5319 H   0  0  0  0  0  0  0  0  0  0  0  0
  150.7779  145.2768  158.3795 H   0  0  0  0  0  0  0  0  0  0  0  0
  153.3290  144.8694  158.7296 H   0  0  0  0  0  0  0  0  0  0  0  0
  152.7095  143.6359  157.6071 H   0  0  0  0  0  0  0  0  0  0  0  0
  151.6566  143.2469  156.4700 H   0  0  0  0  0  0  0  0  0  0  0  0
  151.5624  141.5784  156.9807 H   0  0  0  0  0  0  0  0  0  0  0  0
  151.2630  141.8029  154.5179 H   0  0  0  0  0  0  0  0  0  0  0  0
  149.9099  142.8698  154.7463 H   0  0  0  0  0  0  0  0  0  0  0  0
  149.4238  143.5631  157.1746 H   0  0  0  0  0  0  0  0  0  0  0  0
  149.0376  135.3278  153.6811 H   0  0  0  0  0  0  0  0  0  0  0  0
  1  2  2  0  0  0  0
  2  3  1  0  0  0  0
  2 12  1  0  0  0  0
  3  4  1  0  0  0  0
  3 25  1  0  0  0  0
  4  5  1  0  0  0  0
  4 26  1  0  0  0  0
  4 27  1  0  0  0  0
  5  6  1  0  0  0  0
  5 28  1  0  0  0  0
  5 29  1  0  0  0  0
  6 11  1  0  0  0  0
  6  7  2  0  0  0  0
  7  8  1  0  0  0  0
  7 30  1  0  0  0  0
  8  9  2  0  0  0  0
  8 31  1  0  0  0  0
  9 10  1  0  0  0  0
  9 32  1  0  0  0  0
 10 11  2  0  0  0  0
 10 33  1  0  0  0  0
 11 54  1  0  0  0  0
 12 24  1  0  0  0  0
 12 13  1  0  0  0  0
 13 14  1  0  0  0  0
 13 34  1  0  0  0  0
 13 35  1  0  0  0  0
 14 15  1  0  0  0  0
 14 36  1  0  0  0  0
 14 37  1  0  0  0  0
 15 16  1  0  0  0  0
 15 23  1  0  0  0  0
 15 53  1  0  0  0  0
 16 21  1  0  0  0  0
 16 17  1  0  0  0  0
 16 38  1  0  0  0  0
 17 18  1  0  0  0  0
 17 39  1  0  0  0  0
 17 40  1  0  0  0  0
 18 22  1  0  0  0  0
 18 19  1  0  0  0  0
 18 41  1  0  0  0  0
 19 20  1  0  0  0  0
 19 42  1  0  0  0  0
 19 43  1  0  0  0  0
 20 21  1  0  0  0  0
 20 44  1  0  0  0  0
 20 45  1  0  0  0  0
 21 22  1  0  0  0  0
 21 46  1  0  0  0  0
 22 47  1  0  0  0  0
 22 48  1  0  0  0  0
 23 24  1  0  0  0  0
 23 49  1  0  0  0  0
 23 50  1  0  0  0  0
 24 51  1  0  0  0  0
 24 52  1  0  0  0  0
M  CHG  1  11   1
M  CHG  1  15   1
M  END
> <s_m_source_file>
AV-unprocessed.smi

> <i_m_source_file_index>
907

> <i_lp_mmshare_version>
43012

> <i_f3d_flags>
0

> <s_epik_input>
W0NIMl0xW0NIMl1bQ0BASF0oW0NIMl0yKVtDQEBIXShbQ0gyXVtDQEhdMTIpTihbQ0gyXVtDSDJdMylbQ0gyXVtDSDJdTjNDKD1PKVtOSF1bQ0gyXVtDSDJdYzRbY0hdW2NIXVtjSF1bY0hdbjQ=

> <s_epik_cmdline>
J2VwaWtfcHl0aG9uJywgJy1waCcsICc3LjAnLCAnLXRuJywgJzgnLCAnLW1hJywgJzIwMCcsICctbWV0YWxfYmluZGluZycsICctaW1hZScsICc8aW5maWxlLm1hZT4nLCAnLW9tYWUnLCAnPG91dGZpbGUubWFlPic=

> <r_epik_Ionization_Penalty>
1.63018

> <r_epik_Ionization_Penalty_Charging>
1.63015

> <r_epik_Ionization_Penalty_Neutral>
2.64641e-05

> <r_epik_State_Penalty>
1.72761

> <r_epik_Charging_Adjusted_Penalty>
3.35777

> <i_epik_Tot_Q>
2

> <i_epik_Tot_abs_Q>
2

> <r_epik_Metal_State_Penalty>
1.76501

> <b_epik_Metal_Only>
0

> <s_lp_Force_Field>
OPLS_2005

> <r_lp_Energy>
104.704

> <b_lp_Chiralities_Consistent>
1

> <s_lp_Variant>
AV-unprocessed.smi:907-6

> <Gold.Version>
5.8.1

> <Gold.Id.Protein>
6NUR|6NUR_protein|mol2

> <Gold.PLP.Fitness>
56.5888

> <Gold.PLP.PLP>
-42.4230

> <Gold.PLP.part.hbond>
-3.0000

> <Gold.PLP.part.metal>
0.0000

> <Gold.PLP.part.buried>
-2.8558

> <Gold.PLP.part.nonpolar>
-36.0296

> <Gold.PLP.part.repulsive>
0.2000

> <Gold.PLP.ligand.clash>
0.0000

> <Gold.PLP.ligand.torsion>
0.4682

> <Gold.PLP.Chemscore.Hbond>
5.0000

> <Gold.PLP.Chemscore.CHOScore>
0.0000

> <Gold.PLP.Chemscore.Metal>
0.0000

> <Gold.Chemscore.Hbonds>
donor molecule, donor type, donor heavy atom, donor atom, acceptor molecule, acceptor atom, score
      L1  H    11    54       P1  7948  2.00
      L1  H    15    53       P1  8028  2.00
      P1  H  7989  7998       L1     1  1.00

> <Gold.PLP.Chemscore.Internal.Correction>
0.1022

> <Gold.Rescore>
     Score         DG    S(hbond)    S(metal)    S(lipo)     H(rot)  DE(clash)    DE(int)     intcor
     22.28     -25.73       2.42        0.00     135.91       1.46       2.76       0.69       ----

> <Gold.Chemscore.Fitness>
22.2797

> <Gold.Chemscore.DG>
-25.7292

> <Gold.Chemscore.ZeroCoef>
-5.4800

> <Gold.Chemscore.Hbond>
2.4187

> <Gold.Chemscore.Metal>
0.0000

> <Gold.Chemscore.Lipo>
135.9088

> <Gold.Chemscore.Internal_Hbond>
0.0000

> <Gold.Chemscore.DEClash>
2.7585

> <Gold.Chemscore.DEInternal>
0.6909

> <Gold.Chemscore.Rot>
1.4572

> <Gold.Chemscore.Internal.Correction>
   9.000000E+99

> <Gold.Chemscore.Hbonds>
donor molecule, donor type, donor heavy atom, donor atom, acceptor molecule, acceptor atom, score
      L1  H    11    54       P1  7948  0.55
      L1  H    15    53       P1  8028  0.74
      P1  H  7989  7998       L1     1  0.78

> <Gold.Chemscore.Hbond.Weighted>
-8.0784

> <Gold.Chemscore.Metal.Weighted>
-0.0000

> <Gold.Chemscore.Lipo.Weighted>
-15.9013

> <Gold.Chemscore.Internal_Hbond.Weighted>
0.0000

> <Gold.Chemscore.DEClash.Weighted>
2.7585

> <Gold.Chemscore.DEInternal.Weighted>
0.6909

> <Gold.Chemscore.Rot.Weighted>
3.7305

> <Gold.Chemscore.Internal.Correction.Weighted>
   9.000000E+99

> <Gold.Protein.RotatedTorsions>
[ 6907 6896 6895 6894 ] final   13.36 input  -60.11 | X-H torsion
[ 7974 7965 7964 7962 ] final   89.31 input  175.53 | X-H torsion
[ 8008 7997 7996 7995 ] final  135.34 input   59.86 | X-H torsion
[ 10167 10162 10161 10158 ] final  110.71 input  -65.29 | X-H torsion
[ 10718 10713 10712 10709 ] final  -13.08 input   66.30 | X-H torsion
[ 10763 10752 10751 10750 ] final  -87.96 input  -60.55 | X-H torsion
[ 11005 11000 10999 10996 ] final -149.14 input  -57.11 | X-H torsion

> <Gold.Protein.ActiveResidues>
 VAL166  LYS551  ARG553  GLY616  TRP617  ASP618  TYR619  PRO620  LYS621  CYS622 
 ASP623  PHE694  ASN695  SER759  ASP760  ASP761  ALA762  ILE779  LEU786  VAL792 
 PHE793  MET794  SER795  GLU796  ALA797  LYS798  CYS799  TRP800  GLU811  SER814 

> <Gold.Protein.RotatedAtoms>
  151.7851  135.0751  160.0379 H   0  0  0  0  0  0  0  0  0  0  0  0  # atno 6907 bound_to 6896
  152.3196  133.5835  159.5744 H   0  0  0  0  0  0  0  0  0  0  0  0  # atno 6908 bound_to 6896
  150.7362  133.9947  159.3660 H   0  0  0  0  0  0  0  0  0  0  0  0  # atno 6909 bound_to 6896
  145.5340  139.2285  143.2603 H   0  0  0  0  0  0  0  0  0  0  0  0  # atno 7974 bound_to 7965
  156.3002  140.2473  156.3565 H   0  0  0  0  0  0  0  0  0  0  0  0  # atno 8008 bound_to 7997
  154.8917  140.0409  157.1861 H   0  0  0  0  0  0  0  0  0  0  0  0  # atno 8009 bound_to 7997
  154.8591  140.2918  155.5554 H   0  0  0  0  0  0  0  0  0  0  0  0  # atno 8010 bound_to 7997
  139.6667  144.7127  151.1763 H   0  0  0  0  0  0  0  0  0  0  0  0  # atno 10167 bound_to 10162
  156.6354  130.4913  149.6114 H   0  0  0  0  0  0  0  0  0  0  0  0  # atno 10718 bound_to 10713
  154.6393  135.5394  153.7771 H   0  0  0  0  0  0  0  0  0  0  0  0  # atno 10763 bound_to 10752
  153.0325  135.6455  154.1184 H   0  0  0  0  0  0  0  0  0  0  0  0  # atno 10764 bound_to 10752
  154.1109  135.2927  155.3210 H   0  0  0  0  0  0  0  0  0  0  0  0  # atno 10765 bound_to 10752
  140.7539  134.3375  157.5119 H   0  0  0  0  0  0  0  0  0  0  0  0  # atno 11005 bound_to 11000
  146.2025  140.6158  142.9096 LP  0  0  0  0  0  0  0  0  0  0  0  0  # atno 17320 bound_to 7965
  144.7611  140.5424  143.6735 LP  0  0  0  0  0  0  0  0  0  0  0  0  # atno 17321 bound_to 7965
  140.7602  143.5908  150.8799 LP  0  0  0  0  0  0  0  0  0  0  0  0  # atno 17342 bound_to 10162
  139.9570  143.6207  152.3013 LP  0  0  0  0  0  0  0  0  0  0  0  0  # atno 17343 bound_to 10162
  156.2201  130.6732  151.1359 LP  0  0  0  0  0  0  0  0  0  0  0  0  # atno 17370 bound_to 10713
  157.7187  131.0694  150.6223 LP  0  0  0  0  0  0  0  0  0  0  0  0  # atno 17371 bound_to 10713
  139.8782  134.9159  156.3142 LP  0  0  0  0  0  0  0  0  0  0  0  0  # atno 17394 bound_to 11000
  140.9726  133.7318  156.0556 LP  0  0  0  0  0  0  0  0  0  0  0  0  # atno 17395 bound_to 11000

$$$$
