#       Name:                AV-unprocessed.smi:1131
#       Creating user name   scv26
#       Creation time:       Fri Mar 27 03:42:22 2020


#       File generated by GOLD software.
#

@<TRIPOS>MOLECULE
AV-unprocessed.smi:1131
    41    42     1
SMALL
NO_CHARGES


@<TRIPOS>ATOM
      1 ****        -0.2574   0.9748  -0.4992 O.2            1 S1                 0.0000
      2 ****         0.5373   0.0342  -0.4639 C.2            1 S1                 0.0000
      3 ****         2.0319   0.2793  -0.2158 C.3            1 S1                 0.0000
      4 ****         2.4940   1.5820  -0.7214 N.am           1 S1                 0.0000
      5 ****         2.5853   2.6444   0.1951 C.2            1 S1                 0.0000
      6 ****         2.9949   3.8717  -0.1784 C.2            1 S1                 0.0000
      7 ****         3.3499   4.0851  -1.5759 C.2            1 S1                 0.0000
      8 ****         3.7322   5.1976  -1.9337 O.2            1 S1                 0.0000
      9 ****         3.2393   3.0242  -2.4280 N.pl3          1 S1                -1.0000
     10 ****         2.8186   1.7820  -2.0344 C.2            1 S1                 0.0000
     11 ****         2.7240   0.8384  -2.8204 O.2            1 S1                 0.0000
     12 ****         0.1669  -1.2481  -0.6019 N.am           1 S1                 0.0000
     13 ****        -1.1960  -1.7175  -0.8301 C.3            1 S1                 0.0000
     14 ****        -1.8854  -2.1390   0.4813 C.3            1 S1                 0.0000
     15 ****        -2.1466  -1.0159   1.4669 C.3            1 S1                 0.0000
     16 ****        -3.2192  -1.6239   2.3659 C.3            1 S1                 0.0000
     17 ****        -3.9475  -2.5343   1.5464 O.3            1 S1                 0.0000
     18 ****        -3.2999  -2.6832   0.2866 C.3            1 S1                 0.0000
     19 ****         2.2131   0.2020   0.8568 H              1 S1                 0.0000
     20 ****         2.6178  -0.5256  -0.6635 H              1 S1                 0.0000
     21 ****         2.2983   2.4042   1.2082 H              1 S1                 0.0000
     22 ****         3.0567   4.6782   0.5371 H              1 S1                 0.0000
     23 ****         0.8885  -1.9530  -0.5551 H              1 S1                 0.0000
     24 ****        -1.7859  -0.9616  -1.3517 H              1 S1                 0.0000
     25 ****        -1.1407  -2.5747  -1.5015 H              1 S1                 0.0000
     26 ****        -1.2857  -2.9050   0.9761 H              1 S1                 0.0000
     27 ****        -1.2570  -0.7101   2.0183 H              1 S1                 0.0000
     28 ****        -2.5446  -0.1414   0.9502 H              1 S1                 0.0000
     29 ****        -2.7598  -2.1849   3.1807 H              1 S1                 0.0000
     30 ****        -3.8732  -0.8680   2.8014 H              1 S1                 0.0000
     31 ****        -3.8440  -2.0913  -0.4508 H              1 S1                 0.0000
     32 ****        -3.3067  -3.7220  -0.0439 H              1 S1                 0.0000
     33 ****         0.0691   1.9105  -0.3655 LP             1 S1                 0.0000
     34 ****        -1.2290   0.8027  -0.6617 LP             1 S1                 0.0000
     35 ****         3.7964   5.9420  -1.2690 LP             1 S1                 0.0000
     36 ****         3.9790   5.3581  -2.8894 LP             1 S1                 0.0000
     37 ****         3.4779   3.1614  -3.3894 LP             1 S1                 0.0000
     38 ****         2.4142  -0.0547  -2.4944 LP             1 S1                 0.0000
     39 ****         2.9570   0.9655  -3.7846 LP             1 S1                 0.0000
     40 ****        -4.8728  -2.1832   1.4033 LP             1 S1                 0.0000
     41 ****        -3.9950  -3.4236   2.0011 LP             1 S1                 0.0000
@<TRIPOS>BOND
    1    1    2 2     
    2    2    3 1     
    3    2   12 am    
    4    3    4 1     
    5    3   19 1     
    6    3   20 1     
    7    4   10 am    
    8    4    5 1     
    9    5    6 2     
   10    5   21 1     
   11    6    7 1     
   12    6   22 1     
   13    7    8 2     
   14    7    9 1     
   15    9   10 1     
   16   10   11 2     
   17   12   13 1     
   18   12   23 1     
   19   13   14 1     
   20   13   24 1     
   21   13   25 1     
   22   14   18 1     
   23   14   15 1     
   24   14   26 1     
   25   15   16 1     
   26   15   27 1     
   27   15   28 1     
   28   16   17 1     
   29   16   29 1     
   30   16   30 1     
   31   17   18 1     
   32   18   31 1     
   33   18   32 1     
   34    1   33 1     
   35    1   34 1     
   36    8   35 1     
   37    8   36 1     
   38    9   37 1     
   39   11   38 1     
   40   11   39 1     
   41   17   40 1     
   42   17   41 1     
@<TRIPOS>SUBSTRUCTURE
      1 S1             1
@<TRIPOS>SET
LONE_PAIRS      STATIC     ATOMS    <user>   **** ""
9 33 34 35 36 37 38 39 40 41
DONOR_HYDROGENS      STATIC     ATOMS    <user>   **** ""
1 23
ATOM$BLUE        STATIC     ATOMS    COLORGROUP SYSTEM
9 33 34 35 36 37 38 39 40 41
ATOM$RED        STATIC     ATOMS    COLORGROUP SYSTEM
1 23
