#       Name:                AV-unprocessed.smi:1248
#       Creating user name   scv26
#       Creation time:       Fri Mar 27 04:36:11 2020


#       File generated by GOLD software.
#

@<TRIPOS>MOLECULE
AV-unprocessed.smi:1248
    47    49     1
SMALL
NO_CHARGES


@<TRIPOS>ATOM
      1 ****        -7.3611  -2.2484  -2.3032 C.3            1 S1                 0.0000
      2 ****        -6.6960  -2.5208  -0.9490 C.3            1 S1                 0.0000
      3 ****        -5.5004  -1.7215  -0.7669 N.pl3          1 S1                 0.0000
      4 ****        -4.1830  -2.1143  -0.8943 C.2            1 S1                 0.0000
      5 ****        -3.4374  -1.0070  -0.6227 C.2            1 S1                 0.0000
      6 ****        -2.0212  -0.9623  -0.6372 N.am           1 S1                 0.0000
      7 ****        -1.2400   0.0937  -0.3598 C.2            1 S1                 0.0000
      8 ****        -1.6456   1.2157  -0.0571 O.2            1 S1                 0.0000
      9 ****         0.0595  -0.2240  -0.4492 N.am           1 S1                 0.0000
     10 ****         1.1673   0.6945  -0.2034 C.3            1 S1                 0.0000
     11 ****         2.4395   0.1719  -0.8917 C.3            1 S1                 0.0000
     12 ****         3.6512   1.0634  -0.5724 C.3            1 S1                 0.0000
     13 ****         3.8567   1.1766   0.8928 N.4            1 S1                 1.0000
     14 ****         5.0865   1.9268   1.2276 C.3            1 S1                 0.0000
     15 ****         6.3360   1.0774   1.2187 C.3            1 S1                 0.0000
     16 ****         5.7200   1.5041   2.5326 C.3            1 S1                 0.0000
     17 ****         2.6597   1.7290   1.5734 C.3            1 S1                 0.0000
     18 ****         1.4231   0.8546   1.3077 C.3            1 S1                 0.0000
     19 ****        -4.3706   0.0300  -0.3384 C.2            1 S1                 0.0000
     20 ****        -5.6153  -0.4138  -0.4277 N.2            1 S1                 0.0000
     21 ****        -8.2559  -2.8588  -2.4247 H              1 S1                 0.0000
     22 ****        -6.6850  -2.4796  -3.1266 H              1 S1                 0.0000
     23 ****        -7.6574  -1.2030  -2.3952 H              1 S1                 0.0000
     24 ****        -7.3891  -2.3059  -0.1347 H              1 S1                 0.0000
     25 ****        -6.4275  -3.5745  -0.8669 H              1 S1                 0.0000
     26 ****        -3.9002  -3.1222  -1.1601 H              1 S1                 0.0000
     27 ****        -1.5559  -1.8264  -0.8732 H              1 S1                 0.0000
     28 ****         0.2993  -1.1708  -0.7054 H              1 S1                 0.0000
     29 ****         0.9231   1.6700  -0.6293 H              1 S1                 0.0000
     30 ****         2.6470  -0.8488  -0.5663 H              1 S1                 0.0000
     31 ****         2.2896   0.1279  -1.9711 H              1 S1                 0.0000
     32 ****         4.5442   0.6426  -1.0360 H              1 S1                 0.0000
     33 ****         3.5111   2.0576  -1.0001 H              1 S1                 0.0000
     34 ****         5.1213   2.9670   0.9082 H              1 S1                 0.0000
     35 ****         6.2458   0.0289   0.9399 H              1 S1                 0.0000
     36 ****         7.2681   1.5570   0.9270 H              1 S1                 0.0000
     37 ****         6.2453   2.2657   3.1053 H              1 S1                 0.0000
     38 ****         5.2203   0.7395   3.1248 H              1 S1                 0.0000
     39 ****         2.8415   1.7849   2.6473 H              1 S1                 0.0000
     40 ****         2.4807   2.7489   1.2294 H              1 S1                 0.0000
     41 ****         0.5527   1.2963   1.7946 H              1 S1                 0.0000
     42 ****         1.5681  -0.1254   1.7649 H              1 S1                 0.0000
     43 ****        -4.2026   1.0638  -0.0765 H              1 S1                 0.0000
     44 ****         3.9856   0.2386   1.2445 H              1 S1                 0.0000
     45 ****        -2.6280   1.3945  -0.0029 LP             1 S1                 0.0000
     46 ****        -0.9927   1.9485   0.1347 LP             1 S1                 0.0000
     47 ****        -6.4577   0.1037  -0.2774 LP             1 S1                 0.0000
@<TRIPOS>BOND
    1    1    2 1     
    2    1   21 1     
    3    1   22 1     
    4    1   23 1     
    5    2    3 1     
    6    2   24 1     
    7    2   25 1     
    8    3   20 1     
    9    3    4 1     
   10    4    5 2     
   11    4   26 1     
   12    5    6 1     
   13    5   19 1     
   14    6    7 am    
   15    6   27 1     
   16    7    8 2     
   17    7    9 am    
   18    9   10 1     
   19    9   28 1     
   20   10   18 1     
   21   10   11 1     
   22   10   29 1     
   23   11   12 1     
   24   11   30 1     
   25   11   31 1     
   26   12   13 1     
   27   12   32 1     
   28   12   33 1     
   29   13   14 1     
   30   13   17 1     
   31   13   44 1     
   32   14   16 1     
   33   14   15 1     
   34   14   34 1     
   35   15   16 1     
   36   15   35 1     
   37   15   36 1     
   38   16   37 1     
   39   16   38 1     
   40   17   18 1     
   41   17   39 1     
   42   17   40 1     
   43   18   41 1     
   44   18   42 1     
   45   19   20 2     
   46   19   43 1     
   47    8   45 1     
   48    8   46 1     
   49   20   47 1     
@<TRIPOS>SUBSTRUCTURE
      1 S1             1
@<TRIPOS>SET
LONE_PAIRS      STATIC     ATOMS    <user>   **** ""
3 45 46 47
DONOR_HYDROGENS      STATIC     ATOMS    <user>   **** ""
3 27 28 44
ATOM$BLUE        STATIC     ATOMS    COLORGROUP SYSTEM
3 45 46 47
ATOM$RED        STATIC     ATOMS    COLORGROUP SYSTEM
3 27 28 44
