AV-unprocessed.smi:1005|AV-procd|sdf|4362|dock1
  -GOLD-   22720 2263D 1   1.00000     0.00000
 Structure written by MMmdl.
 56 58  0  0  0  0  0  0  0  0  2 V2000
  153.3646  142.5656  161.0239 C   0  0  0  0  0  0  0  0  0  0  0  0
  152.5721  142.2709  159.7625 C   0  0  0  0  0  0  0  0  0  0  0  0
  152.4587  140.9338  159.3188 C   0  0  0  0  0  0  0  0  0  0  0  0
  151.7325  140.6178  158.1496 C   0  0  0  0  0  0  0  0  0  0  0  0
  151.4954  139.3975  157.5401 N   0  0  0  0  0  0  0  0  0  0  0  0
  150.7614  139.7593  156.4919 C   0  0  0  0  0  0  0  0  0  0  0  0
  150.4892  141.0713  156.3536 N   0  0  0  0  0  0  0  0  0  0  0  0
  149.7128  141.7016  155.3005 C   0  0  0  0  0  0  0  0  0  0  0  0
  148.9132  140.6822  154.4656 C   0  0  2  0  0  0  0  0  0  0  0  0
  149.8064  140.0243  153.5867 O   0  0  0  0  0  0  0  0  0  0  0  0
  147.7997  141.3637  153.6423 C   0  0  0  0  0  0  0  0  0  0  0  0
  146.8252  142.1305  154.4200 N   0  0  0  0  0  0  0  0  0  0  0  0
  146.0384  143.0018  153.5543 C   0  0  0  0  0  0  0  0  0  0  0  0
  145.0030  143.8157  154.3475 C   0  0  0  0  0  0  0  0  0  0  0  0
  144.1623  142.9280  155.0772 O   0  0  0  0  0  0  0  0  0  0  0  0
  144.8833  142.0949  155.9819 C   0  0  1  0  0  0  0  0  0  0  0  0
  143.8743  141.1851  156.7051 C   0  0  0  0  0  0  0  0  0  0  0  0
  144.4845  140.4340  157.8316 N   0  3  0  0  0  0  0  0  0  0  0  0
  143.6007  139.3830  158.3871 C   0  0  0  0  0  0  0  0  0  0  0  0
  144.9889  141.3346  158.8917 C   0  0  0  0  0  0  0  0  0  0  0  0
  145.9182  141.2768  155.1835 C   0  0  0  0  0  0  0  0  0  0  0  0
  151.1175  141.6848  157.4315 C   0  0  0  0  0  0  0  0  0  0  0  0
  151.2223  143.0187  157.8630 C   0  0  0  0  0  0  0  0  0  0  0  0
  151.9513  143.3169  159.0332 C   0  0  0  0  0  0  0  0  0  0  0  0
  152.0593  144.7608  159.4907 C   0  0  0  0  0  0  0  0  0  0  0  0
  153.8045  141.6583  161.4393 H   0  0  0  0  0  0  0  0  0  0  0  0
  152.7198  143.0045  161.7859 H   0  0  0  0  0  0  0  0  0  0  0  0
  154.1758  143.2630  160.8123 H   0  0  0  0  0  0  0  0  0  0  0  0
  152.9307  140.1368  159.8741 H   0  0  0  0  0  0  0  0  0  0  0  0
  150.3959  139.0282  155.7854 H   0  0  0  0  0  0  0  0  0  0  0  0
  149.0379  142.4212  155.7657 H   0  0  0  0  0  0  0  0  0  0  0  0
  150.3873  142.2743  154.6617 H   0  0  0  0  0  0  0  0  0  0  0  0
  148.4748  139.9437  155.1385 H   0  0  0  0  0  0  0  0  0  0  0  0
  149.4882  140.1308  152.7030 H   0  0  0  0  0  0  0  0  0  0  0  0
  148.2857  142.0581  152.9557 H   0  0  0  0  0  0  0  0  0  0  0  0
  147.2954  140.6353  153.0050 H   0  0  0  0  0  0  0  0  0  0  0  0
  146.6978  143.6852  153.0177 H   0  0  0  0  0  0  0  0  0  0  0  0
  145.5247  142.4062  152.7978 H   0  0  0  0  0  0  0  0  0  0  0  0
  145.4959  144.5083  155.0316 H   0  0  0  0  0  0  0  0  0  0  0  0
  144.3909  144.4128  153.6713 H   0  0  0  0  0  0  0  0  0  0  0  0
  145.4140  142.7189  156.7018 H   0  0  0  0  0  0  0  0  0  0  0  0
  143.0630  141.8097  157.0826 H   0  0  0  0  0  0  0  0  0  0  0  0
  143.4198  140.4827  156.0047 H   0  0  0  0  0  0  0  0  0  0  0  0
  142.6830  139.8154  158.7880 H   0  0  0  0  0  0  0  0  0  0  0  0
  144.1029  138.8483  159.1940 H   0  0  0  0  0  0  0  0  0  0  0  0
  143.3303  138.6448  157.6331 H   0  0  0  0  0  0  0  0  0  0  0  0
  144.1735  141.9009  159.3441 H   0  0  0  0  0  0  0  0  0  0  0  0
  145.7149  142.0413  158.4881 H   0  0  0  0  0  0  0  0  0  0  0  0
  145.4874  140.7656  159.6772 H   0  0  0  0  0  0  0  0  0  0  0  0
  145.4021  140.5917  154.5087 H   0  0  0  0  0  0  0  0  0  0  0  0
  146.4844  140.6609  155.8817 H   0  0  0  0  0  0  0  0  0  0  0  0
  150.7452  143.8053  157.2969 H   0  0  0  0  0  0  0  0  0  0  0  0
  151.4814  145.4260  158.8483 H   0  0  0  0  0  0  0  0  0  0  0  0
  153.0981  145.0908  159.4669 H   0  0  0  0  0  0  0  0  0  0  0  0
  151.6835  144.8702  160.5081 H   0  0  0  0  0  0  0  0  0  0  0  0
  145.2969  139.9661  157.4544 H   0  0  0  0  0  0  0  0  0  0  0  0
  1  2  1  0  0  0  0
  1 26  1  0  0  0  0
  1 27  1  0  0  0  0
  1 28  1  0  0  0  0
  2 24  1  0  0  0  0
  2  3  2  0  0  0  0
  3  4  1  0  0  0  0
  3 29  1  0  0  0  0
  4 22  2  0  0  0  0
  4  5  1  0  0  0  0
  5  6  2  0  0  0  0
  6  7  1  0  0  0  0
  6 30  1  0  0  0  0
  7  8  1  0  0  0  0
  7 22  1  0  0  0  0
  8  9  1  0  0  0  0
  8 31  1  0  0  0  0
  8 32  1  0  0  0  0
  9 10  1  0  0  0  0
  9 11  1  0  0  0  0
  9 33  1  0  0  0  0
 10 34  1  0  0  0  0
 11 12  1  0  0  0  0
 11 35  1  0  0  0  0
 11 36  1  0  0  0  0
 12 21  1  0  0  0  0
 12 13  1  0  0  0  0
 13 14  1  0  0  0  0
 13 37  1  0  0  0  0
 13 38  1  0  0  0  0
 14 15  1  0  0  0  0
 14 39  1  0  0  0  0
 14 40  1  0  0  0  0
 15 16  1  0  0  0  0
 16 17  1  0  0  0  0
 16 21  1  0  0  0  0
 16 41  1  0  0  0  0
 17 18  1  0  0  0  0
 17 42  1  0  0  0  0
 17 43  1  0  0  0  0
 18 19  1  0  0  0  0
 18 20  1  0  0  0  0
 18 56  1  0  0  0  0
 19 44  1  0  0  0  0
 19 45  1  0  0  0  0
 19 46  1  0  0  0  0
 20 47  1  0  0  0  0
 20 48  1  0  0  0  0
 20 49  1  0  0  0  0
 21 50  1  0  0  0  0
 21 51  1  0  0  0  0
 22 23  1  0  0  0  0
 23 24  2  0  0  0  0
 23 52  1  0  0  0  0
 24 25  1  0  0  0  0
 25 53  1  0  0  0  0
 25 54  1  0  0  0  0
 25 55  1  0  0  0  0
M  CHG  1  18   1
M  END
> <s_m_source_file>
AV-unprocessed.smi

> <i_m_source_file_index>
1005

> <i_lp_mmshare_version>
43012

> <i_f3d_flags>
0

> <s_epik_input>
W0NIM11jKFtjSF0xKWMoW0NIM10pW2NIXWMoYzEyKW4oW2NIXW4yKVtDSDJdW0NASF0oW09IXSlbQ0gyXU4zW0NIMl1bQ0gyXU9bQ0BIXShbQ0gyXTMpW0NIMl1OKFtDSDNdKVtDSDNd

> <s_epik_cmdline>
J2VwaWtfcHl0aG9uJywgJy1waCcsICc3LjAnLCAnLXRuJywgJzgnLCAnLW1hJywgJzIwMCcsICctbWV0YWxfYmluZGluZycsICctaW1hZScsICc8aW5maWxlLm1hZT4nLCAnLW9tYWUnLCAnPG91dGZpbGUubWFlPic=

> <r_epik_Ionization_Penalty>
0.226781

> <r_epik_Ionization_Penalty_Charging>
0.00915946

> <r_epik_Ionization_Penalty_Neutral>
0.217622

> <r_epik_State_Penalty>
0.173018

> <r_epik_Charging_Adjusted_Penalty>
0.182178

> <i_epik_Tot_Q>
1

> <i_epik_Tot_abs_Q>
1

> <r_epik_Metal_State_Penalty>
0.0905268

> <b_epik_Metal_Only>
0

> <s_lp_Force_Field>
OPLS_2005

> <r_lp_Energy>
36.5786

> <b_lp_Chiralities_Consistent>
1

> <s_lp_Variant>
AV-unprocessed.smi:1005-1

> <Gold.Version>
5.8.1

> <Gold.Id.Protein>
6NUR|6NUR_protein|mol2

> <Gold.PLP.Fitness>
51.7920

> <Gold.PLP.PLP>
-47.4219

> <Gold.PLP.part.hbond>
-1.6868

> <Gold.PLP.part.metal>
0.0000

> <Gold.PLP.part.buried>
-7.7560

> <Gold.PLP.part.nonpolar>
-38.9781

> <Gold.PLP.part.repulsive>
0.3530

> <Gold.PLP.ligand.clash>
0.0000

> <Gold.PLP.ligand.torsion>
0.4494

> <Gold.PLP.Chemscore.Hbond>
1.6880

> <Gold.PLP.Chemscore.CHOScore>
0.0000

> <Gold.PLP.Chemscore.Metal>
0.0000

> <Gold.Chemscore.Hbonds>
donor molecule, donor type, donor heavy atom, donor atom, acceptor molecule, acceptor atom, score
      L1  H    10    34       P1  7957  1.00
      P1  H  7989  7998       L1    10  0.67

> <Gold.PLP.Chemscore.Internal.Correction>
0.2050

> <Gold.Rescore>
     Score         DG    S(hbond)    S(metal)    S(lipo)     H(rot)  DE(clash)    DE(int)     intcor
     17.95     -18.37       1.37        0.00     123.93       2.41       0.01       0.42       ----

> <Gold.Chemscore.Fitness>
17.9462

> <Gold.Chemscore.DG>
-18.3748

> <Gold.Chemscore.ZeroCoef>
-5.4800

> <Gold.Chemscore.Hbond>
1.3694

> <Gold.Chemscore.Metal>
0.0000

> <Gold.Chemscore.Lipo>
123.9284

> <Gold.Chemscore.Internal_Hbond>
0.0000

> <Gold.Chemscore.DEClash>
0.0128

> <Gold.Chemscore.DEInternal>
0.4158

> <Gold.Chemscore.Rot>
2.4136

> <Gold.Chemscore.Internal.Correction>
   9.000000E+99

> <Gold.Chemscore.Hbonds>
donor molecule, donor type, donor heavy atom, donor atom, acceptor molecule, acceptor atom, score
      L1  H    10    34       P1  7957  0.93
      P1  H  7989  7998       L1    10  0.17

> <Gold.Chemscore.Hbond.Weighted>
-4.5740

> <Gold.Chemscore.Metal.Weighted>
-0.0000

> <Gold.Chemscore.Lipo.Weighted>
-14.4996

> <Gold.Chemscore.Internal_Hbond.Weighted>
0.0000

> <Gold.Chemscore.DEClash.Weighted>
0.0128

> <Gold.Chemscore.DEInternal.Weighted>
0.4158

> <Gold.Chemscore.Rot.Weighted>
6.1788

> <Gold.Chemscore.Internal.Correction.Weighted>
   9.000000E+99

> <Gold.Protein.RotatedTorsions>
[ 6907 6896 6895 6894 ] final  -99.64 input  -60.11 | X-H torsion
[ 7974 7965 7964 7962 ] final  171.38 input  175.53 | X-H torsion
[ 8008 7997 7996 7995 ] final  110.49 input   59.86 | X-H torsion
[ 10167 10162 10161 10158 ] final   67.30 input  -65.29 | X-H torsion
[ 10718 10713 10712 10709 ] final   -7.07 input   66.30 | X-H torsion
[ 10763 10752 10751 10750 ] final   84.65 input  -60.55 | X-H torsion
[ 11005 11000 10999 10996 ] final  124.60 input  -57.11 | X-H torsion

> <Gold.Protein.ActiveResidues>
 VAL166  LYS551  ARG553  GLY616  TRP617  ASP618  TYR619  PRO620  LYS621  CYS622 
 ASP623  PHE694  ASN695  SER759  ASP760  ASP761  ALA762  ILE779  LEU786  VAL792 
 PHE793  MET794  SER795  GLU796  ALA797  LYS798  CYS799  TRP800  GLU811  SER814 

> <Gold.Protein.RotatedAtoms>
  150.7087  134.1009  159.3965 H   0  0  0  0  0  0  0  0  0  0  0  0  # atno 6907 bound_to 6896
  151.8995  135.0382  160.0514 H   0  0  0  0  0  0  0  0  0  0  0  0  # atno 6908 bound_to 6896
  152.2426  133.5112  159.5315 H   0  0  0  0  0  0  0  0  0  0  0  0  # atno 6909 bound_to 6896
  144.7296  139.9342  143.6426 H   0  0  0  0  0  0  0  0  0  0  0  0  # atno 7974 bound_to 7965
  156.2056  140.3038  155.9620 H   0  0  0  0  0  0  0  0  0  0  0  0  # atno 8008 bound_to 7997
  155.2849  140.0439  157.3035 H   0  0  0  0  0  0  0  0  0  0  0  0  # atno 8009 bound_to 7997
  154.5629  140.2325  155.8317 H   0  0  0  0  0  0  0  0  0  0  0  0  # atno 8010 bound_to 7997
  140.0910  144.4988  150.7099 H   0  0  0  0  0  0  0  0  0  0  0  0  # atno 10167 bound_to 10162
  156.7226  130.5155  149.5864 H   0  0  0  0  0  0  0  0  0  0  0  0  # atno 10718 bound_to 10713
  153.1402  135.4646  154.9483 H   0  0  0  0  0  0  0  0  0  0  0  0  # atno 10763 bound_to 10752
  154.7740  135.3167  154.8133 H   0  0  0  0  0  0  0  0  0  0  0  0  # atno 10764 bound_to 10752
  153.8657  135.6908  153.4833 H   0  0  0  0  0  0  0  0  0  0  0  0  # atno 10765 bound_to 10752
  139.9366  134.9639  156.8433 H   0  0  0  0  0  0  0  0  0  0  0  0  # atno 11005 bound_to 11000
  146.0834  139.3822  143.0450 LP  0  0  0  0  0  0  0  0  0  0  0  0  # atno 17320 bound_to 7965
  145.7809  140.9856  143.1099 LP  0  0  0  0  0  0  0  0  0  0  0  0  # atno 17321 bound_to 7965
  140.7028  143.2447  151.4814 LP  0  0  0  0  0  0  0  0  0  0  0  0  # atno 17342 bound_to 10162
  139.5724  144.1896  152.1856 LP  0  0  0  0  0  0  0  0  0  0  0  0  # atno 17343 bound_to 10162
  156.1584  130.6357  151.0687 LP  0  0  0  0  0  0  0  0  0  0  0  0  # atno 17370 bound_to 10713
  157.6892  131.0815  150.7157 LP  0  0  0  0  0  0  0  0  0  0  0  0  # atno 17371 bound_to 10713
  140.6059  134.0127  155.7556 LP  0  0  0  0  0  0  0  0  0  0  0  0  # atno 17394 bound_to 11000
  141.0982  133.9809  157.3123 LP  0  0  0  0  0  0  0  0  0  0  0  0  # atno 17395 bound_to 11000

$$$$
