AV-unprocessed.smi:594|AV-procd|sdf|3014|dock1
  -GOLD-   2262023523D 1   1.00000     0.00000
 Structure written by MMmdl.
 40 41  0  0  0  0  0  0  0  0  3 V2000
  151.1514  144.9768  160.0131 C   0  0  0  0  0  0  0  0  0  0  0  0
  151.6044  143.7240  160.7845 C   0  0  2  0  0  0  0  0  0  0  0  0
  152.5178  144.1159  161.9639 C   0  0  0  0  0  0  0  0  0  0  0  0
  152.9831  142.8879  162.7608 C   0  0  0  0  0  0  0  0  0  0  0  0
  153.6903  141.8757  161.8499 C   0  0  0  0  0  0  0  0  0  0  0  0
  152.7863  141.4631  160.6795 C   0  0  0  0  0  0  0  0  0  0  0  0
  152.3056  142.6871  159.8716 C   0  0  1  0  0  0  0  0  0  0  0  0
  151.4025  142.2528  158.8080 N   0  0  0  0  0  0  0  0  0  0  0  0
  151.6814  141.3250  157.8801 C   0  0  0  0  0  0  0  0  0  0  0  0
  152.7462  140.7071  157.8406 O   0  0  0  0  0  0  0  0  0  0  0  0
  150.5716  141.0458  156.8568 C   0  0  0  0  0  0  0  0  0  0  0  0
  150.7019  139.7323  156.2038 N   0  0  0  0  0  0  0  0  0  0  0  0
  151.1104  138.6525  157.0114 C   0  0  0  0  0  0  0  0  0  0  0  0
  151.2687  137.4090  156.5175 C   0  0  0  0  0  0  0  0  0  0  0  0
  151.6937  136.3129  157.3605 N   0  3  0  0  0  0  0  0  0  0  0  0
  151.4828  136.3824  158.5671 O   0  0  0  0  0  0  0  0  0  0  0  0
  152.2521  135.3481  156.8469 O   0  5  0  0  0  0  0  0  0  0  0  0
  151.0018  137.2046  155.1068 C   0  0  0  0  0  0  0  0  0  0  0  0
  150.6141  138.2339  154.3284 C   0  0  0  0  0  0  0  0  0  0  0  0
  150.4462  139.5874  154.8673 C   0  0  0  0  0  0  0  0  0  0  0  0
  150.0969  140.5331  154.1606 O   0  0  0  0  0  0  0  0  0  0  0  0
  151.9973  145.4759  159.5394 H   0  0  0  0  0  0  0  0  0  0  0  0
  150.6739  145.6953  160.6797 H   0  0  0  0  0  0  0  0  0  0  0  0
  150.4300  144.7328  159.2330 H   0  0  0  0  0  0  0  0  0  0  0  0
  150.7110  143.2570  161.2024 H   0  0  0  0  0  0  0  0  0  0  0  0
  153.3890  144.6567  161.5911 H   0  0  0  0  0  0  0  0  0  0  0  0
  151.9929  144.8014  162.6301 H   0  0  0  0  0  0  0  0  0  0  0  0
  153.6538  143.1976  163.5628 H   0  0  0  0  0  0  0  0  0  0  0  0
  152.1253  142.4141  163.2395 H   0  0  0  0  0  0  0  0  0  0  0  0
  154.6132  142.3106  161.4641 H   0  0  0  0  0  0  0  0  0  0  0  0
  153.9789  140.9955  162.4250 H   0  0  0  0  0  0  0  0  0  0  0  0
  153.3265  140.7722  160.0309 H   0  0  0  0  0  0  0  0  0  0  0  0
  151.9261  140.9140  161.0650 H   0  0  0  0  0  0  0  0  0  0  0  0
  153.1765  143.1700  159.4236 H   0  0  0  0  0  0  0  0  0  0  0  0
  150.5000  142.7041  158.7685 H   0  0  0  0  0  0  0  0  0  0  0  0
  149.6112  141.1266  157.3678 H   0  0  0  0  0  0  0  0  0  0  0  0
  150.5616  141.8385  156.1061 H   0  0  0  0  0  0  0  0  0  0  0  0
  151.2907  138.9095  158.0453 H   0  0  0  0  0  0  0  0  0  0  0  0
  151.1120  136.2254  154.6642 H   0  0  0  0  0  0  0  0  0  0  0  0
  150.4214  138.0598  153.2800 H   0  0  0  0  0  0  0  0  0  0  0  0
  1  2  1  0  0  0  0
  1 22  1  0  0  0  0
  1 23  1  0  0  0  0
  1 24  1  0  0  0  0
  2  7  1  0  0  0  0
  2  3  1  0  0  0  0
  2 25  1  0  0  0  0
  3  4  1  0  0  0  0
  3 26  1  0  0  0  0
  3 27  1  0  0  0  0
  4  5  1  0  0  0  0
  4 28  1  0  0  0  0
  4 29  1  0  0  0  0
  5  6  1  0  0  0  0
  5 30  1  0  0  0  0
  5 31  1  0  0  0  0
  6  7  1  0  0  0  0
  6 32  1  0  0  0  0
  6 33  1  0  0  0  0
  7  8  1  0  0  0  0
  7 34  1  0  0  0  0
  8  9  1  0  0  0  0
  8 35  1  0  0  0  0
  9 10  2  0  0  0  0
  9 11  1  0  0  0  0
 11 12  1  0  0  0  0
 11 36  1  0  0  0  0
 11 37  1  0  0  0  0
 12 20  1  0  0  0  0
 12 13  1  0  0  0  0
 13 14  2  0  0  0  0
 13 38  1  0  0  0  0
 14 15  1  0  0  0  0
 14 18  1  0  0  0  0
 15 16  2  0  0  0  0
 15 17  1  0  0  0  0
 18 19  2  0  0  0  0
 18 39  1  0  0  0  0
 19 20  1  0  0  0  0
 19 40  1  0  0  0  0
 20 21  2  0  0  0  0
M  CHG  1  15   1
M  CHG  1  17  -1
M  END
> <s_m_source_file>
AV-unprocessed.smi

> <i_m_source_file_index>
594

> <i_lp_mmshare_version>
43012

> <i_f3d_flags>
0

> <s_epik_input>
W0NIM11bQ0BASF0xW0NIMl1bQ0gyXVtDSDJdW0NIMl1bQ0BIXTFbTkhdQyg9TylbQ0gyXW4yW2NIXWMoW04rXSg9TylbTy1dKVtjSF1bY0hdYzI9Tw==

> <s_epik_cmdline>
J2VwaWtfcHl0aG9uJywgJy1waCcsICc3LjAnLCAnLXRuJywgJzgnLCAnLW1hJywgJzIwMCcsICctbWV0YWxfYmluZGluZycsICctaW1hZScsICc8aW5maWxlLm1hZT4nLCAnLW9tYWUnLCAnPG91dGZpbGUubWFlPic=

> <r_lp_tautomer_probability>
1

> <r_epik_Ionization_Penalty>
1.91305e-08

> <r_epik_Ionization_Penalty_Charging>
8.35811e-11

> <r_epik_Ionization_Penalty_Neutral>
1.90469e-08

> <r_epik_State_Penalty>
-0

> <r_epik_Charging_Adjusted_Penalty>
8.35811e-11

> <i_epik_Tot_Q>
0

> <i_epik_Tot_abs_Q>
2

> <r_epik_Metal_State_Penalty>
-0

> <b_epik_Metal_Only>
0

> <s_lp_Force_Field>
OPLS_2005

> <r_lp_Energy>
21.501

> <b_lp_Chiralities_Consistent>
1

> <s_lp_Variant>
AV-unprocessed.smi:594-1

> <Gold.Version>
5.8.1

> <Gold.Id.Protein>
6NUR|6NUR_protein|mol2

> <Gold.PLP.Fitness>
48.2571

> <Gold.PLP.PLP>
-40.4595

> <Gold.PLP.part.hbond>
-3.8330

> <Gold.PLP.part.metal>
0.0000

> <Gold.PLP.part.buried>
-1.7381

> <Gold.PLP.part.nonpolar>
-35.8199

> <Gold.PLP.part.repulsive>
0.5657

> <Gold.PLP.ligand.clash>
0.0000

> <Gold.PLP.ligand.torsion>
0.8542

> <Gold.PLP.Chemscore.Hbond>
3.1600

> <Gold.PLP.Chemscore.CHOScore>
0.0000

> <Gold.PLP.Chemscore.Metal>
0.0000

> <Gold.Chemscore.Hbonds>
donor molecule, donor type, donor heavy atom, donor atom, acceptor molecule, acceptor atom, score
      P1  H  6896  6907       L1    16  0.61
      P1  H  7989  7998       L1    21  0.71
      P1  H  7997  8009       L1    10  0.64
      P1  H 10752 10765       L1    17  1.00

> <Gold.PLP.Chemscore.Internal.Correction>
0.0260

> <Gold.Rescore>
     Score         DG    S(hbond)    S(metal)    S(lipo)     H(rot)  DE(clash)    DE(int)     intcor
     17.09     -22.54       2.61        0.00     105.12       1.55       3.07       2.39       ----

> <Gold.Chemscore.Fitness>
17.0851

> <Gold.Chemscore.DG>
-22.5431

> <Gold.Chemscore.ZeroCoef>
-5.4800

> <Gold.Chemscore.Hbond>
2.6146

> <Gold.Chemscore.Metal>
0.0000

> <Gold.Chemscore.Lipo>
105.1229

> <Gold.Chemscore.Internal_Hbond>
0.0000

> <Gold.Chemscore.DEClash>
3.0687

> <Gold.Chemscore.DEInternal>
2.3892

> <Gold.Chemscore.Rot>
1.5505

> <Gold.Chemscore.Internal.Correction>
   9.000000E+99

> <Gold.Chemscore.Hbonds>
donor molecule, donor type, donor heavy atom, donor atom, acceptor molecule, acceptor atom, score
      P1  H  6896  6907       L1    16  0.62
      P1  H  7989  7998       L1    21  0.14
      P1  H  7997  8009       L1    10  0.63
      P1  H 10752 10765       L1    17  0.99

> <Gold.Chemscore.Hbond.Weighted>
-8.7328

> <Gold.Chemscore.Metal.Weighted>
-0.0000

> <Gold.Chemscore.Lipo.Weighted>
-12.2994

> <Gold.Chemscore.Internal_Hbond.Weighted>
0.0000

> <Gold.Chemscore.DEClash.Weighted>
3.0687

> <Gold.Chemscore.DEInternal.Weighted>
2.3892

> <Gold.Chemscore.Rot.Weighted>
3.9692

> <Gold.Chemscore.Internal.Correction.Weighted>
   9.000000E+99

> <Gold.Protein.RotatedTorsions>
[ 6907 6896 6895 6894 ] final   -2.65 input  -60.11 | X-H torsion
[ 7974 7965 7964 7962 ] final  -48.77 input  175.53 | X-H torsion
[ 8008 7997 7996 7995 ] final  165.52 input   59.86 | X-H torsion
[ 10167 10162 10161 10158 ] final  -15.47 input  -65.29 | X-H torsion
[ 10718 10713 10712 10709 ] final -164.50 input   66.30 | X-H torsion
[ 10763 10752 10751 10750 ] final -128.50 input  -60.55 | X-H torsion
[ 11005 11000 10999 10996 ] final  -92.77 input  -57.11 | X-H torsion

> <Gold.Protein.ActiveResidues>
 VAL166  LYS551  ARG553  GLY616  TRP617  ASP618  TYR619  PRO620  LYS621  CYS622 
 ASP623  PHE694  ASN695  SER759  ASP760  ASP761  ALA762  ILE779  LEU786  VAL792 
 PHE793  MET794  SER795  GLU796  ALA797  LYS798  CYS799  TRP800  GLU811  SER814 

> <Gold.Protein.RotatedAtoms>
  151.5264  135.1068  159.9891 H   0  0  0  0  0  0  0  0  0  0  0  0  # atno 6907 bound_to 6896
  152.4598  133.7794  159.6853 H   0  0  0  0  0  0  0  0  0  0  0  0  # atno 6908 bound_to 6896
  150.8555  133.7657  159.3035 H   0  0  0  0  0  0  0  0  0  0  0  0  # atno 6909 bound_to 6896
  145.9476  140.7603  142.9520 H   0  0  0  0  0  0  0  0  0  0  0  0  # atno 7974 bound_to 7965
  156.1794  140.1668  156.8303 H   0  0  0  0  0  0  0  0  0  0  0  0  # atno 8008 bound_to 7997
  154.5343  140.0750  156.8433 H   0  0  0  0  0  0  0  0  0  0  0  0  # atno 8009 bound_to 7997
  155.3343  140.3381  155.4241 H   0  0  0  0  0  0  0  0  0  0  0  0  # atno 8010 bound_to 7997
  140.7219  143.5215  150.9628 H   0  0  0  0  0  0  0  0  0  0  0  0  # atno 10167 bound_to 10162
  156.6399  130.8964  151.2994 H   0  0  0  0  0  0  0  0  0  0  0  0  # atno 10718 bound_to 10713
  154.8756  135.3926  154.3767 H   0  0  0  0  0  0  0  0  0  0  0  0  # atno 10763 bound_to 10752
  153.4519  135.7028  153.6108 H   0  0  0  0  0  0  0  0  0  0  0  0  # atno 10764 bound_to 10752
  153.4644  135.3804  155.2325 H   0  0  0  0  0  0  0  0  0  0  0  0  # atno 10765 bound_to 10752
  141.1514  133.7843  157.0066 H   0  0  0  0  0  0  0  0  0  0  0  0  # atno 11005 bound_to 11000
  144.6790  140.2383  143.7347 LP  0  0  0  0  0  0  0  0  0  0  0  0  # atno 17320 bound_to 7965
  145.8214  139.2045  143.1935 LP  0  0  0  0  0  0  0  0  0  0  0  0  # atno 17321 bound_to 7965
  139.8932  143.6927  152.3142 LP  0  0  0  0  0  0  0  0  0  0  0  0  # atno 17342 bound_to 10162
  139.7250  144.7594  151.0893 LP  0  0  0  0  0  0  0  0  0  0  0  0  # atno 17343 bound_to 10162
  157.7174  130.9515  150.1307 LP  0  0  0  0  0  0  0  0  0  0  0  0  # atno 17370 bound_to 10713
  156.2167  130.3671  149.8604 LP  0  0  0  0  0  0  0  0  0  0  0  0  # atno 17371 bound_to 10713
  140.0905  134.9595  157.1768 LP  0  0  0  0  0  0  0  0  0  0  0  0  # atno 17394 bound_to 11000
  140.3453  134.2659  155.7206 LP  0  0  0  0  0  0  0  0  0  0  0  0  # atno 17395 bound_to 11000

$$$$
