AV-unprocessed.smi:484|AV-procd|sdf|2687|dock8
  -GOLD-   2262023113D 1   1.00000     0.00000
 Structure written by MMmdl.
 46 48  0  0  0  0  0  0  0  0  1 V2000
  141.9543  146.7014  155.3065 C   0  0  0  0  0  0  0  0  0  0  0  0
  142.8076  146.2779  154.1060 C   0  0  0  0  0  0  0  0  0  0  0  0
  143.7668  145.1548  154.4521 C   0  0  0  0  0  0  0  0  0  0  0  0
  143.7738  144.6027  155.7483 C   0  0  0  0  0  0  0  0  0  0  0  0
  144.6693  143.5648  156.0694 C   0  0  0  0  0  0  0  0  0  0  0  0
  145.5679  143.0618  155.1066 C   0  0  0  0  0  0  0  0  0  0  0  0
  146.4076  142.0453  155.5073 O   0  0  0  0  0  0  0  0  0  0  0  0
  147.5234  141.7283  154.6843 C   0  0  0  0  0  0  0  0  0  0  0  0
  148.5975  141.0066  155.5134 C   0  0  2  0  0  0  0  0  0  0  0  0
  148.3114  141.1722  156.8877 O   0  0  0  0  0  0  0  0  0  0  0  0
  150.0376  141.4428  155.1737 C   0  0  0  0  0  0  0  0  0  0  0  0
  151.0021  141.0242  156.1816 N   0  0  0  0  0  0  0  0  0  0  0  0
  151.7833  139.9149  156.1842 C   0  0  0  0  0  0  0  0  0  0  0  0
  151.7582  138.9167  155.0673 C   0  0  0  0  0  0  0  0  0  0  0  0
  152.6518  137.8442  155.2757 O   0  0  0  0  0  0  0  0  0  0  0  0
  152.5827  139.7700  157.2416 N   0  0  0  0  0  0  0  0  0  0  0  0
  152.2974  140.8928  157.9938 C   0  0  0  0  0  0  0  0  0  0  0  0
  152.8190  141.3231  159.2350 C   0  0  0  0  0  0  0  0  0  0  0  0
  152.3695  142.5251  159.8200 C   0  0  0  0  0  0  0  0  0  0  0  0
  151.3944  143.3124  159.1739 C   0  0  0  0  0  0  0  0  0  0  0  0
  150.8615  142.9017  157.9369 C   0  0  0  0  0  0  0  0  0  0  0  0
  151.3131  141.7008  157.3571 C   0  0  0  0  0  0  0  0  0  0  0  0
  145.5565  143.6216  153.8040 C   0  0  0  0  0  0  0  0  0  0  0  0
  144.6617  144.6607  153.4822 C   0  0  0  0  0  0  0  0  0  0  0  0
  141.2745  147.5090  155.0345 H   0  0  0  0  0  0  0  0  0  0  0  0
  142.5787  147.0541  156.1281 H   0  0  0  0  0  0  0  0  0  0  0  0
  141.3529  145.8698  155.6752 H   0  0  0  0  0  0  0  0  0  0  0  0
  142.1624  145.9581  153.2870 H   0  0  0  0  0  0  0  0  0  0  0  0
  143.3728  147.1335  153.7344 H   0  0  0  0  0  0  0  0  0  0  0  0
  143.0940  144.9747  156.5010 H   0  0  0  0  0  0  0  0  0  0  0  0
  144.6664  143.1499  157.0666 H   0  0  0  0  0  0  0  0  0  0  0  0
  147.2228  141.1119  153.8351 H   0  0  0  0  0  0  0  0  0  0  0  0
  147.9490  142.6524  154.2898 H   0  0  0  0  0  0  0  0  0  0  0  0
  148.4992  139.9389  155.3166 H   0  0  0  0  0  0  0  0  0  0  0  0
  148.8806  140.6022  157.3820 H   0  0  0  0  0  0  0  0  0  0  0  0
  150.3367  141.0380  154.2069 H   0  0  0  0  0  0  0  0  0  0  0  0
  150.0957  142.5272  155.0745 H   0  0  0  0  0  0  0  0  0  0  0  0
  150.7497  138.5141  154.9661 H   0  0  0  0  0  0  0  0  0  0  0  0
  151.9949  139.4078  154.1239 H   0  0  0  0  0  0  0  0  0  0  0  0
  153.3332  138.1318  155.8635 H   0  0  0  0  0  0  0  0  0  0  0  0
  153.5661  140.7268  159.7374 H   0  0  0  0  0  0  0  0  0  0  0  0
  152.7750  142.8444  160.7690 H   0  0  0  0  0  0  0  0  0  0  0  0
  151.0556  144.2316  159.6286 H   0  0  0  0  0  0  0  0  0  0  0  0
  150.1133  143.5015  157.4407 H   0  0  0  0  0  0  0  0  0  0  0  0
  146.2257  143.2726  153.0324 H   0  0  0  0  0  0  0  0  0  0  0  0
  144.6660  145.0785  152.4860 H   0  0  0  0  0  0  0  0  0  0  0  0
  1  2  1  0  0  0  0
  1 25  1  0  0  0  0
  1 26  1  0  0  0  0
  1 27  1  0  0  0  0
  2  3  1  0  0  0  0
  2 28  1  0  0  0  0
  2 29  1  0  0  0  0
  3 24  1  0  0  0  0
  3  4  2  0  0  0  0
  4  5  1  0  0  0  0
  4 30  1  0  0  0  0
  5  6  2  0  0  0  0
  5 31  1  0  0  0  0
  6  7  1  0  0  0  0
  6 23  1  0  0  0  0
  7  8  1  0  0  0  0
  8  9  1  0  0  0  0
  8 32  1  0  0  0  0
  8 33  1  0  0  0  0
  9 10  1  0  0  0  0
  9 11  1  0  0  0  0
  9 34  1  0  0  0  0
 10 35  1  0  0  0  0
 11 12  1  0  0  0  0
 11 36  1  0  0  0  0
 11 37  1  0  0  0  0
 12 22  1  0  0  0  0
 12 13  1  0  0  0  0
 13 14  1  0  0  0  0
 13 16  2  0  0  0  0
 14 15  1  0  0  0  0
 14 38  1  0  0  0  0
 14 39  1  0  0  0  0
 15 40  1  0  0  0  0
 16 17  1  0  0  0  0
 17 22  2  0  0  0  0
 17 18  1  0  0  0  0
 18 19  2  0  0  0  0
 18 41  1  0  0  0  0
 19 20  1  0  0  0  0
 19 42  1  0  0  0  0
 20 21  2  0  0  0  0
 20 43  1  0  0  0  0
 21 22  1  0  0  0  0
 21 44  1  0  0  0  0
 23 24  2  0  0  0  0
 23 45  1  0  0  0  0
 24 46  1  0  0  0  0
M  END
> <s_m_source_file>
AV-unprocessed.smi

> <i_m_source_file_index>
484

> <i_lp_mmshare_version>
43012

> <i_f3d_flags>
0

> <s_epik_input>
W0NIM11bQ0gyXWMxW2NIXVtjSF1jKFtjSF1bY0hdMSlPW0NIMl1bQ0BIXShbT0hdKVtDSDJdbihjKG4yKVtDSDJdW09IXSljKGMyMylbY0hdW2NIXVtjSF1bY0hdMw==

> <s_epik_cmdline>
J2VwaWtfcHl0aG9uJywgJy1waCcsICc3LjAnLCAnLXRuJywgJzgnLCAnLW1hJywgJzIwMCcsICctbWV0YWxfYmluZGluZycsICctaW1hZScsICc8aW5maWxlLm1hZT4nLCAnLW9tYWUnLCAnPG91dGZpbGUubWFlPic=

> <r_lp_tautomer_probability>
1

> <r_epik_Ionization_Penalty>
0.0555463

> <r_epik_Ionization_Penalty_Charging>
0

> <r_epik_Ionization_Penalty_Neutral>
0.0555463

> <r_epik_State_Penalty>
0.0477854

> <r_epik_Charging_Adjusted_Penalty>
0.0477854

> <i_epik_Tot_Q>
0

> <i_epik_Tot_abs_Q>
0

> <r_epik_Metal_State_Penalty>
4.97632e-05

> <b_epik_Metal_Only>
0

> <s_lp_Force_Field>
OPLS_2005

> <r_lp_Energy>
15.7427

> <b_lp_Chiralities_Consistent>
1

> <s_lp_Variant>
AV-unprocessed.smi:484-1

> <Gold.Version>
5.8.1

> <Gold.Id.Protein>
6NUR|6NUR_protein|mol2

> <Gold.PLP.Fitness>
51.2410

> <Gold.PLP.PLP>
-50.3457

> <Gold.PLP.part.hbond>
-2.0000

> <Gold.PLP.part.metal>
0.0000

> <Gold.PLP.part.buried>
-6.4443

> <Gold.PLP.part.nonpolar>
-43.4557

> <Gold.PLP.part.repulsive>
0.1355

> <Gold.PLP.ligand.clash>
0.0000

> <Gold.PLP.ligand.torsion>
1.3827

> <Gold.PLP.Chemscore.Hbond>
1.2033

> <Gold.PLP.Chemscore.CHOScore>
0.0000

> <Gold.PLP.Chemscore.Metal>
0.0000

> <Gold.Chemscore.Hbonds>
donor molecule, donor type, donor heavy atom, donor atom, acceptor molecule, acceptor atom, score
      P1  H  7997  8008       L1    16  1.00
      P1  H 10752 10765       L1    15  0.11

> <Gold.PLP.Chemscore.Internal.Correction>
0.0507

> <Gold.Rescore>
     Score         DG    S(hbond)    S(metal)    S(lipo)     H(rot)  DE(clash)    DE(int)     intcor
     13.10     -14.92       0.32        0.00     138.81       3.08       0.35       1.47       ----

> <Gold.Chemscore.Fitness>
13.0976

> <Gold.Chemscore.DG>
-14.9242

> <Gold.Chemscore.ZeroCoef>
-5.4800

> <Gold.Chemscore.Hbond>
0.3247

> <Gold.Chemscore.Metal>
0.0000

> <Gold.Chemscore.Lipo>
138.8055

> <Gold.Chemscore.Internal_Hbond>
0.0000

> <Gold.Chemscore.DEClash>
0.3529

> <Gold.Chemscore.DEInternal>
1.4737

> <Gold.Chemscore.Rot>
3.0783

> <Gold.Chemscore.Internal.Correction>
   9.000000E+99

> <Gold.Chemscore.Hbonds>
donor molecule, donor type, donor heavy atom, donor atom, acceptor molecule, acceptor atom, score
      P1  H  7997  8008       L1    16  0.24
      P1  H 10752 10765       L1    15  0.09

> <Gold.Chemscore.Hbond.Weighted>
-1.0845

> <Gold.Chemscore.Metal.Weighted>
-0.0000

> <Gold.Chemscore.Lipo.Weighted>
-16.2402

> <Gold.Chemscore.Internal_Hbond.Weighted>
0.0000

> <Gold.Chemscore.DEClash.Weighted>
0.3529

> <Gold.Chemscore.DEInternal.Weighted>
1.4737

> <Gold.Chemscore.Rot.Weighted>
7.8805

> <Gold.Chemscore.Internal.Correction.Weighted>
   9.000000E+99

> <Gold.Protein.RotatedTorsions>
[ 6907 6896 6895 6894 ] final  135.83 input  -60.11 | X-H torsion
[ 7974 7965 7964 7962 ] final    3.80 input  175.53 | X-H torsion
[ 8008 7997 7996 7995 ] final  -63.79 input   59.86 | X-H torsion
[ 10167 10162 10161 10158 ] final  -37.81 input  -65.29 | X-H torsion
[ 10718 10713 10712 10709 ] final   91.01 input   66.30 | X-H torsion
[ 10763 10752 10751 10750 ] final -176.39 input  -60.55 | X-H torsion
[ 11005 11000 10999 10996 ] final  -96.25 input  -57.11 | X-H torsion

> <Gold.Protein.ActiveResidues>
 VAL166  LYS551  ARG553  GLY616  TRP617  ASP618  TYR619  PRO620  LYS621  CYS622 
 ASP623  PHE694  ASN695  SER759  ASP760  ASP761  ALA762  ILE779  LEU786  VAL792 
 PHE793  MET794  SER795  GLU796  ALA797  LYS798  CYS799  TRP800  GLU811  SER814 

> <Gold.Protein.RotatedAtoms>
  152.2961  133.5609  159.5588 H   0  0  0  0  0  0  0  0  0  0  0  0  # atno 6907 bound_to 6896
  150.7257  134.0358  159.3758 H   0  0  0  0  0  0  0  0  0  0  0  0  # atno 6908 bound_to 6896
  151.8261  135.0636  160.0482 H   0  0  0  0  0  0  0  0  0  0  0  0  # atno 6909 bound_to 6896
  146.2445  140.0630  142.8367 H   0  0  0  0  0  0  0  0  0  0  0  0  # atno 7974 bound_to 7965
  154.4574  140.0967  156.6796 H   0  0  0  0  0  0  0  0  0  0  0  0  # atno 8008 bound_to 7997
  155.5096  140.3476  155.4367 H   0  0  0  0  0  0  0  0  0  0  0  0  # atno 8009 bound_to 7997
  156.0804  140.1372  156.9708 H   0  0  0  0  0  0  0  0  0  0  0  0  # atno 8010 bound_to 7997
  140.7108  143.3317  151.2553 H   0  0  0  0  0  0  0  0  0  0  0  0  # atno 10167 bound_to 10162
  157.6960  131.0391  150.3664 H   0  0  0  0  0  0  0  0  0  0  0  0  # atno 10718 bound_to 10713
  154.5730  135.2829  155.0809 H   0  0  0  0  0  0  0  0  0  0  0  0  # atno 10763 bound_to 10752
  154.2174  135.6397  153.5138 H   0  0  0  0  0  0  0  0  0  0  0  0  # atno 10764 bound_to 10752
  153.0063  135.5506  154.6359 H   0  0  0  0  0  0  0  0  0  0  0  0  # atno 10765 bound_to 10752
  141.1417  133.8084  157.0546 H   0  0  0  0  0  0  0  0  0  0  0  0  # atno 11005 bound_to 11000
  145.0883  140.9267  143.4784 LP  0  0  0  0  0  0  0  0  0  0  0  0  # atno 17320 bound_to 7965
  145.0798  139.2969  143.5789 LP  0  0  0  0  0  0  0  0  0  0  0  0  # atno 17321 bound_to 7965
  139.6801  143.9869  152.2804 LP  0  0  0  0  0  0  0  0  0  0  0  0  # atno 17342 bound_to 10162
  139.9496  144.6629  150.8185 LP  0  0  0  0  0  0  0  0  0  0  0  0  # atno 17343 bound_to 10162
  156.4094  130.3931  149.6902 LP  0  0  0  0  0  0  0  0  0  0  0  0  # atno 17370 bound_to 10713
  156.4192  130.7760  151.2776 LP  0  0  0  0  0  0  0  0  0  0  0  0  # atno 17371 bound_to 10713
  140.0610  134.9755  157.1304 LP  0  0  0  0  0  0  0  0  0  0  0  0  # atno 17394 bound_to 11000
  140.3848  134.2247  155.7169 LP  0  0  0  0  0  0  0  0  0  0  0  0  # atno 17395 bound_to 11000

$$$$
