#       Name:                AV-unprocessed.smi:39
#       Creating user name   scv26
#       Creation time:       Thu Mar 26 16:19:45 2020


#       File generated by GOLD software.
#

@<TRIPOS>MOLECULE
AV-unprocessed.smi:39
    42    43     1
SMALL
NO_CHARGES


@<TRIPOS>ATOM
      1 ****        -3.6095   1.7348   0.3226 C.3            1 S1                 0.0000
      2 ****        -2.9472   0.3670   0.3308 C.2            1 S1                 0.0000
      3 ****        -1.5986   0.2110   0.3097 C.2            1 S1                 0.0000
      4 ****        -0.9646  -1.0238   0.3175 N.am           1 S1                 0.0000
      5 ****         0.5434  -1.1333   0.2888 C.3            1 S1                 0.0000
      6 ****         1.0776  -0.9480  -1.1326 C.3            1 S1                 0.0000
      7 ****         2.3343  -0.1381  -0.8755 C.3            1 S1                 0.0000
      8 ****         2.7633   0.6325  -2.0448 N.2            1 S1                 0.0000
      9 ****         3.3831   0.0112  -2.9182 N.1            1 S1                 1.0000
     10 ****         3.8727  -0.6542  -3.7008 N.1            1 S1                -1.0000
     11 ****         1.8845   0.7555   0.2835 C.3            1 S1                 0.0000
     12 ****         3.0498   1.3082   1.1187 C.3            1 S1                 0.0000
     13 ****         2.6132   2.4063   1.8903 O.3            1 S1                 0.0000
     14 ****         1.0943  -0.1235   1.0831 O.3            1 S1                 0.0000
     15 ****        -1.7440  -2.1995   0.3291 C.2            1 S1                 0.0000
     16 ****        -1.2568  -3.3292   0.3097 O.2            1 S1                 0.0000
     17 ****        -3.1282  -2.0403   0.3545 N.am           1 S1                 0.0000
     18 ****        -3.8071  -0.8195   0.3589 C.2            1 S1                 0.0000
     19 ****        -5.0368  -0.8083   0.3816 O.2            1 S1                 0.0000
     20 ****         0.8230  -2.0876   0.7375 H              1 S1                 0.0000
     21 ****         3.1270  -0.8038  -0.5258 H              1 S1                 0.0000
     22 ****         1.2616   1.5648  -0.1017 H              1 S1                 0.0000
     23 ****        -3.6891  -2.8796   0.3669 H              1 S1                 0.0000
     24 ****        -2.8746   2.5403   0.3092 H              1 S1                 0.0000
     25 ****        -4.2293   1.8632   1.2106 H              1 S1                 0.0000
     26 ****        -4.2439   1.8458  -0.5575 H              1 S1                 0.0000
     27 ****        -0.9900   1.1017   0.2816 H              1 S1                 0.0000
     28 ****         1.2610  -1.9087  -1.6146 H              1 S1                 0.0000
     29 ****         0.3620  -0.3790  -1.7291 H              1 S1                 0.0000
     30 ****         3.4787   0.5381   1.7606 H              1 S1                 0.0000
     31 ****         3.8459   1.6647   0.4645 H              1 S1                 0.0000
     32 ****         3.3453   2.7325   2.3909 H              1 S1                 0.0000
     33 ****         2.5660   1.6088  -2.1331 LP             1 S1                 0.0000
     34 ****         4.3029  -1.2390  -4.3885 LP             1 S1                 0.0000
     35 ****         1.8846   2.1143   2.5099 LP             1 S1                 0.0000
     36 ****         2.2695   3.1263   1.2875 LP             1 S1                 0.0000
     37 ****         1.6703  -0.5356   1.7891 LP             1 S1                 0.0000
     38 ****         0.3572   0.3959   1.5155 LP             1 S1                 0.0000
     39 ****        -0.2639  -3.4452   0.2844 LP             1 S1                 0.0000
     40 ****        -1.8538  -4.1314   0.3192 LP             1 S1                 0.0000
     41 ****        -5.5290   0.0622   0.3818 LP             1 S1                 0.0000
     42 ****        -5.5444  -1.6697   0.3998 LP             1 S1                 0.0000
@<TRIPOS>BOND
    1    1    2 1     
    2    1   24 1     
    3    1   25 1     
    4    1   26 1     
    5    2   18 1     
    6    2    3 2     
    7    3    4 1     
    8    3   27 1     
    9    4    5 1     
   10    4   15 1     
   11    5   20 1     
   12    5   14 1     
   13    5    6 1     
   14    6    7 1     
   15    6   28 1     
   16    6   29 1     
   17    7   21 1     
   18    7    8 1     
   19    7   11 1     
   20    8    9 2     
   21    9   10 2     
   22   11   22 1     
   23   11   12 1     
   24   11   14 1     
   25   12   13 1     
   26   12   30 1     
   27   12   31 1     
   28   13   32 1     
   29   15   16 2     
   30   15   17 1     
   31   17   23 1     
   32   17   18 1     
   33   18   19 2     
   34    8   33 1     
   35   10   34 1     
   36   13   35 1     
   37   13   36 1     
   38   14   37 1     
   39   14   38 1     
   40   16   39 1     
   41   16   40 1     
   42   19   41 1     
   43   19   42 1     
@<TRIPOS>SUBSTRUCTURE
      1 S1             1
@<TRIPOS>SET
LONE_PAIRS      STATIC     ATOMS    <user>   **** ""
10 33 34 35 36 37 38 39 40 41 42
DONOR_HYDROGENS      STATIC     ATOMS    <user>   **** ""
2 32 23
ATOM$BLUE        STATIC     ATOMS    COLORGROUP SYSTEM
10 33 34 35 36 37 38 39 40 41 42
ATOM$RED        STATIC     ATOMS    COLORGROUP SYSTEM
2 32 23
