AV-unprocessed.smi:174|AV-procd|sdf|1425|dock6
  -GOLD-   2262019193D 1   1.00000     0.00000
 Structure written by MMmdl.
 51 54  0  0  0  0  0  0  0  0  1 V2000
  150.2417  145.3123  158.7311 N   0  0  0  0  0  0  0  0  0  0  0  0
  150.5539  144.7266  159.8922 C   0  0  0  0  0  0  0  0  0  0  0  0
  149.7127  144.5577  160.7716 O   0  0  0  0  0  0  0  0  0  0  0  0
  151.9991  144.2526  160.1272 C   0  0  0  0  0  0  0  0  0  0  0  0
  152.3207  142.9237  159.5774 N   0  0  0  0  0  0  0  0  0  0  0  0
  151.8488  142.6437  158.2168 C   0  0  0  0  0  0  0  0  0  0  0  0
  151.5106  141.1633  158.0162 C   0  0  0  0  0  0  0  0  0  0  0  0
  152.6387  140.3299  158.4131 N   0  0  0  0  0  0  0  0  0  0  0  0
  152.7460  139.0562  157.9406 C   0  0  0  0  0  0  0  0  0  0  0  0
  153.9574  138.4467  158.0444 N   0  0  0  0  0  0  0  0  0  0  0  0
  154.1394  137.2022  157.5957 C   0  0  0  0  0  0  0  0  0  0  0  0
  153.2572  136.3887  157.0156 N   0  0  0  0  0  0  0  0  0  0  0  0
  152.0352  136.9832  156.9124 C   0  0  0  0  0  0  0  0  0  0  0  0
  151.6907  138.2982  157.3436 C   0  0  0  0  0  0  0  0  0  0  0  0
  150.3438  138.5296  157.0770 N   0  0  0  0  0  0  0  0  0  0  0  0
  149.9262  137.4308  156.5115 C   0  0  0  0  0  0  0  0  0  0  0  0
  150.8789  136.4497  156.3732 N   0  0  0  0  0  0  0  0  0  0  0  0
  150.6969  135.1351  155.7841 C   0  0  0  0  0  0  0  0  0  0  0  0
  149.6210  134.3102  156.5159 C   0  0  2  0  0  0  0  0  0  0  0  0
  150.1887  133.6050  157.6040 O   0  0  0  0  0  0  0  0  0  0  0  0
  148.8639  133.3493  155.5768 C   0  0  2  0  0  0  0  0  0  0  0  0
  149.6970  132.2568  154.9015 C   0  0  0  0  0  0  0  0  0  0  0  0
  148.8327  131.9266  153.7051 C   0  0  0  0  0  0  0  0  0  0  0  0
  148.3046  133.3044  153.3126 C   0  0  0  0  0  0  0  0  0  0  0  0
  148.1924  134.0419  154.5272 O   0  0  0  0  0  0  0  0  0  0  0  0
  153.3559  140.6452  159.6594 C   0  0  0  0  0  0  0  0  0  0  0  0
  153.0654  142.0285  160.2715 C   0  0  0  0  0  0  0  0  0  0  0  0
  153.5213  142.2713  161.3890 O   0  0  0  0  0  0  0  0  0  0  0  0
  149.2980  145.6333  158.5704 H   0  0  0  0  0  0  0  0  0  0  0  0
  150.9501  145.4383  158.0228 H   0  0  0  0  0  0  0  0  0  0  0  0
  152.6776  145.0042  159.7196 H   0  0  0  0  0  0  0  0  0  0  0  0
  152.1838  144.2649  161.2017 H   0  0  0  0  0  0  0  0  0  0  0  0
  150.9725  143.2451  157.9734 H   0  0  0  0  0  0  0  0  0  0  0  0
  152.6307  142.9414  157.5168 H   0  0  0  0  0  0  0  0  0  0  0  0
  150.6334  140.8917  158.6055 H   0  0  0  0  0  0  0  0  0  0  0  0
  151.2672  141.0082  156.9645 H   0  0  0  0  0  0  0  0  0  0  0  0
  155.1348  136.8019  157.7192 H   0  0  0  0  0  0  0  0  0  0  0  0
  148.9070  137.3057  156.1757 H   0  0  0  0  0  0  0  0  0  0  0  0
  150.4250  135.2658  154.7360 H   0  0  0  0  0  0  0  0  0  0  0  0
  151.6549  134.6135  155.7956 H   0  0  0  0  0  0  0  0  0  0  0  0
  148.8901  134.9982  156.9427 H   0  0  0  0  0  0  0  0  0  0  0  0
  150.9095  133.0863  157.2812 H   0  0  0  0  0  0  0  0  0  0  0  0
  148.0800  132.8566  156.1546 H   0  0  0  0  0  0  0  0  0  0  0  0
  150.6607  132.6362  154.5604 H   0  0  0  0  0  0  0  0  0  0  0  0
  149.8779  131.3990  155.5497 H   0  0  0  0  0  0  0  0  0  0  0  0
  149.3800  131.4347  152.9005 H   0  0  0  0  0  0  0  0  0  0  0  0
  148.0079  131.2787  154.0049 H   0  0  0  0  0  0  0  0  0  0  0  0
  149.0199  133.8134  152.6651 H   0  0  0  0  0  0  0  0  0  0  0  0
  147.3504  133.2514  152.7875 H   0  0  0  0  0  0  0  0  0  0  0  0
  153.1238  139.8855  160.4077 H   0  0  0  0  0  0  0  0  0  0  0  0
  154.4307  140.5983  159.4789 H   0  0  0  0  0  0  0  0  0  0  0  0
  1  2  1  0  0  0  0
  1 29  1  0  0  0  0
  1 30  1  0  0  0  0
  2  3  2  0  0  0  0
  2  4  1  0  0  0  0
  4  5  1  0  0  0  0
  4 31  1  0  0  0  0
  4 32  1  0  0  0  0
  5 27  1  0  0  0  0
  5  6  1  0  0  0  0
  6  7  1  0  0  0  0
  6 33  1  0  0  0  0
  6 34  1  0  0  0  0
  7  8  1  0  0  0  0
  7 35  1  0  0  0  0
  7 36  1  0  0  0  0
  8  9  1  0  0  0  0
  8 26  1  0  0  0  0
  9 14  1  0  0  0  0
  9 10  2  0  0  0  0
 10 11  1  0  0  0  0
 11 12  2  0  0  0  0
 11 37  1  0  0  0  0
 12 13  1  0  0  0  0
 13 17  1  0  0  0  0
 13 14  2  0  0  0  0
 14 15  1  0  0  0  0
 15 16  2  0  0  0  0
 16 17  1  0  0  0  0
 16 38  1  0  0  0  0
 17 18  1  0  0  0  0
 18 19  1  0  0  0  0
 18 39  1  0  0  0  0
 18 40  1  0  0  0  0
 19 20  1  0  0  0  0
 19 21  1  0  0  0  0
 19 41  1  0  0  0  0
 20 42  1  0  0  0  0
 21 25  1  0  0  0  0
 21 22  1  0  0  0  0
 21 43  1  0  0  0  0
 22 23  1  0  0  0  0
 22 44  1  0  0  0  0
 22 45  1  0  0  0  0
 23 24  1  0  0  0  0
 23 46  1  0  0  0  0
 23 47  1  0  0  0  0
 24 25  1  0  0  0  0
 24 48  1  0  0  0  0
 24 49  1  0  0  0  0
 26 27  1  0  0  0  0
 26 50  1  0  0  0  0
 26 51  1  0  0  0  0
 27 28  2  0  0  0  0
M  END
> <s_m_source_file>
AV-unprocessed.smi

> <i_m_source_file_index>
174

> <i_lp_mmshare_version>
43012

> <i_f3d_flags>
0

> <s_epik_input>
W05IMl1DKD1PKVtDSDJdTjFbQ0gyXVtDSDJdTihbQ0gyXUMxPU8pYyhuW2NIXW4yKWMoYzIzKW5bY0hdbjNbQ0gyXVtDQEhdKFtPSF0pW0NAQEhdNFtDSDJdW0NIMl1bQ0gyXU80

> <s_epik_cmdline>
J2VwaWtfcHl0aG9uJywgJy1waCcsICc3LjAnLCAnLXRuJywgJzgnLCAnLW1hJywgJzIwMCcsICctbWV0YWxfYmluZGluZycsICctaW1hZScsICc8aW5maWxlLm1hZT4nLCAnLW9tYWUnLCAnPG91dGZpbGUubWFlPic=

> <r_lp_tautomer_probability>
1

> <r_epik_Ionization_Penalty>
0.000250477

> <r_epik_Ionization_Penalty_Charging>
0

> <r_epik_Ionization_Penalty_Neutral>
0.000250477

> <r_epik_State_Penalty>
-0

> <r_epik_Charging_Adjusted_Penalty>
0

> <i_epik_Tot_Q>
0

> <i_epik_Tot_abs_Q>
0

> <r_epik_Metal_State_Penalty>
-0

> <b_epik_Metal_Only>
0

> <s_lp_Force_Field>
OPLS_2005

> <r_lp_Energy>
38.8972

> <b_lp_Chiralities_Consistent>
1

> <s_lp_Variant>
AV-unprocessed.smi:174-1

> <Gold.Version>
5.8.1

> <Gold.Id.Protein>
6NUR|6NUR_protein|mol2

> <Gold.PLP.Fitness>
52.4130

> <Gold.PLP.PLP>
-43.8324

> <Gold.PLP.part.hbond>
-4.6146

> <Gold.PLP.part.metal>
0.0000

> <Gold.PLP.part.buried>
-5.4398

> <Gold.PLP.part.nonpolar>
-33.5618

> <Gold.PLP.part.repulsive>
0.5743

> <Gold.PLP.ligand.clash>
0.0000

> <Gold.PLP.ligand.torsion>
1.2889

> <Gold.PLP.Chemscore.Hbond>
3.6304

> <Gold.PLP.Chemscore.CHOScore>
0.0000

> <Gold.PLP.Chemscore.Metal>
0.0000

> <Gold.Chemscore.Hbonds>
donor molecule, donor type, donor heavy atom, donor atom, acceptor molecule, acceptor atom, score
      L1  H     1    29       P1  8029  0.93
      P1  H  6896  6907       L1    20  0.85
      P1  H  7997  8009       L1    10  0.68
      P1  H 10752 10763       L1    12  0.98

> <Gold.PLP.Chemscore.Internal.Correction>
0.2672

> <Gold.Rescore>
     Score         DG    S(hbond)    S(metal)    S(lipo)     H(rot)  DE(clash)    DE(int)     intcor
     12.78     -15.12       3.09        0.00      69.82       3.46       0.00       2.34       ----

> <Gold.Chemscore.Fitness>
12.7773

> <Gold.Chemscore.DG>
-15.1230

> <Gold.Chemscore.ZeroCoef>
-5.4800

> <Gold.Chemscore.Hbond>
3.0926

> <Gold.Chemscore.Metal>
0.0000

> <Gold.Chemscore.Lipo>
69.8204

> <Gold.Chemscore.Internal_Hbond>
0.0000

> <Gold.Chemscore.DEClash>
0.0015

> <Gold.Chemscore.DEInternal>
2.3442

> <Gold.Chemscore.Rot>
3.4591

> <Gold.Chemscore.Internal.Correction>
   9.000000E+99

> <Gold.Chemscore.Hbonds>
donor molecule, donor type, donor heavy atom, donor atom, acceptor molecule, acceptor atom, score
      L1  H     1    29       P1  8029  0.87
      P1  H  6896  6907       L1    20  0.14
      P1  H  7997  8009       L1    10  0.10
      P1  H 10752 10763       L1    12  0.76

> <Gold.Chemscore.Hbond.Weighted>
-10.3293

> <Gold.Chemscore.Metal.Weighted>
-0.0000

> <Gold.Chemscore.Lipo.Weighted>
-8.1690

> <Gold.Chemscore.Internal_Hbond.Weighted>
0.0000

> <Gold.Chemscore.DEClash.Weighted>
0.0015

> <Gold.Chemscore.DEInternal.Weighted>
2.3442

> <Gold.Chemscore.Rot.Weighted>
8.8553

> <Gold.Chemscore.Internal.Correction.Weighted>
   9.000000E+99

> <Gold.Protein.RotatedTorsions>
[ 6907 6896 6895 6894 ] final -117.97 input  -60.11 | X-H torsion
[ 7974 7965 7964 7962 ] final   14.86 input  175.53 | X-H torsion
[ 8008 7997 7996 7995 ] final  120.06 input   59.86 | X-H torsion
[ 10167 10162 10161 10158 ] final  148.14 input  -65.29 | X-H torsion
[ 10718 10713 10712 10709 ] final -178.91 input   66.30 | X-H torsion
[ 10763 10752 10751 10750 ] final  139.16 input  -60.55 | X-H torsion
[ 11005 11000 10999 10996 ] final  105.40 input  -57.11 | X-H torsion

> <Gold.Protein.ActiveResidues>
 VAL166  LYS551  ARG553  GLY616  TRP617  ASP618  TYR619  PRO620  LYS621  CYS622 
 ASP623  PHE694  ASN695  SER759  ASP760  ASP761  ALA762  ILE779  LEU786  VAL792 
 PHE793  MET794  SER795  GLU796  ALA797  LYS798  CYS799  TRP800  GLU811  SER814 

> <Gold.Protein.RotatedAtoms>
  150.8180  133.8302  159.3151 H   0  0  0  0  0  0  0  0  0  0  0  0  # atno 6907 bound_to 6896
  151.6069  135.1041  160.0082 H   0  0  0  0  0  0  0  0  0  0  0  0  # atno 6908 bound_to 6896
  152.4271  133.7173  159.6569 H   0  0  0  0  0  0  0  0  0  0  0  0  # atno 6909 bound_to 6896
  146.2294  139.8978  142.8544 H   0  0  0  0  0  0  0  0  0  0  0  0  # atno 7974 bound_to 7965
  156.2625  140.2839  156.1089 H   0  0  0  0  0  0  0  0  0  0  0  0  # atno 8008 bound_to 7997
  155.1278  140.0393  157.2784 H   0  0  0  0  0  0  0  0  0  0  0  0  # atno 8009 bound_to 7997
  154.6622  140.2569  155.7103 H   0  0  0  0  0  0  0  0  0  0  0  0  # atno 8010 bound_to 7997
  139.4879  144.5702  151.7069 H   0  0  0  0  0  0  0  0  0  0  0  0  # atno 10167 bound_to 10162
  156.8513  130.9720  151.3092 H   0  0  0  0  0  0  0  0  0  0  0  0  # atno 10718 bound_to 10713
  153.9016  135.3021  155.3448 H   0  0  0  0  0  0  0  0  0  0  0  0  # atno 10763 bound_to 10752
  154.7667  135.4906  153.9572 H   0  0  0  0  0  0  0  0  0  0  0  0  # atno 10764 bound_to 10752
  153.1242  135.6789  153.9385 H   0  0  0  0  0  0  0  0  0  0  0  0  # atno 10765 bound_to 10752
  139.8802  134.9334  156.5508 H   0  0  0  0  0  0  0  0  0  0  0  0  # atno 11005 bound_to 11000
  145.2353  140.9989  143.3967 LP  0  0  0  0  0  0  0  0  0  0  0  0  # atno 17320 bound_to 7965
  144.9496  139.4097  143.6409 LP  0  0  0  0  0  0  0  0  0  0  0  0  # atno 17321 bound_to 7965
  140.5288  144.0763  150.6046 LP  0  0  0  0  0  0  0  0  0  0  0  0  # atno 17342 bound_to 10162
  140.3746  143.2835  152.0239 LP  0  0  0  0  0  0  0  0  0  0  0  0  # atno 17343 bound_to 10162
  157.6302  130.8723  149.9260 LP  0  0  0  0  0  0  0  0  0  0  0  0  # atno 17370 bound_to 10713
  156.0827  130.3671  150.0549 LP  0  0  0  0  0  0  0  0  0  0  0  0  # atno 17371 bound_to 10713
  140.8241  133.8330  155.8923 LP  0  0  0  0  0  0  0  0  0  0  0  0  # atno 17394 bound_to 11000
  140.9390  134.1924  157.4811 LP  0  0  0  0  0  0  0  0  0  0  0  0  # atno 17395 bound_to 11000

$$$$
