#       Name:                AV-unprocessed.smi:2520
#       Creating user name   scv26
#       Creation time:       Fri Mar 27 13:55:04 2020


#       File generated by GOLD software.
#

@<TRIPOS>MOLECULE
AV-unprocessed.smi:2520
    47    50     1
SMALL
NO_CHARGES


@<TRIPOS>ATOM
      1 ****        -2.6283  -2.1093   0.2579 O.2            1 S1                 0.0000
      2 ****        -1.4048  -2.0094   0.3301 C.2            1 S1                 0.0000
      3 ****        -0.6149  -3.1038   0.3694 N.am           1 S1                 0.0000
      4 ****        -0.9318  -4.4940   0.3413 C.ar           1 S1                 0.0000
      5 ****         0.1858  -5.3561   0.3423 C.ar           1 S1                 0.0000
      6 ****        -0.0382  -6.7433   0.3234 C.ar           1 S1                 0.0000
      7 ****        -1.3737  -7.1796   0.3071 C.ar           1 S1                 0.0000
      8 ****        -2.4157  -6.3208   0.3092 N.ar           1 S1                 0.0000
      9 ****        -2.1930  -5.0027   0.3278 N.ar           1 S1                 0.0000
     10 ****        -0.7770  -0.8249   0.3752 N.am           1 S1                 0.0000
     11 ****        -1.4349   0.4834   0.3154 C.3            1 S1                 0.0000
     12 ****        -1.7031   0.9771  -1.1096 C.3            1 S1                 0.0000
     13 ****        -1.8182   0.3415  -2.4483 C.3            1 S1                 0.0000
     14 ****        -1.0122   1.4040  -3.2409 C.3            1 S1                 0.0000
     15 ****        -0.4073   2.2690  -2.2464 O.3            1 S1                 0.0000
     16 ****        -0.2605   1.4395  -1.1098 C.3            1 S1                 0.0000
     17 ****        -0.4461   1.7094   0.4026 C.3            1 S1                 0.0000
     18 ****        -1.0264   3.0823   0.7997 C.3            1 S1                 0.0000
     19 ****        -0.1985   3.6374   1.9597 C.3            1 S1                 0.0000
     20 ****         1.1504   2.9464   1.8262 C.3            1 S1                 0.0000
     21 ****         0.7945   1.5618   1.2933 C.3            1 S1                 0.0000
     22 ****         0.3691  -2.9035   0.4735 H              1 S1                 0.0000
     23 ****         1.1935  -4.9668   0.3570 H              1 S1                 0.0000
     24 ****         0.7820  -7.4456   0.3222 H              1 S1                 0.0000
     25 ****        -1.6119  -8.2329   0.2924 H              1 S1                 0.0000
     26 ****         0.2313  -0.8267   0.4382 H              1 S1                 0.0000
     27 ****        -2.2941   0.5753   0.9815 H              1 S1                 0.0000
     28 ****        -2.4057   1.8148  -1.0516 H              1 S1                 0.0000
     29 ****        -1.3432  -0.6397  -2.4826 H              1 S1                 0.0000
     30 ****        -2.8498   0.2535  -2.7895 H              1 S1                 0.0000
     31 ****        -0.2425   0.9304  -3.8514 H              1 S1                 0.0000
     32 ****        -1.6512   1.9937  -3.8986 H              1 S1                 0.0000
     33 ****         0.4682   0.6469  -1.3096 H              1 S1                 0.0000
     34 ****        -0.9649   3.7732  -0.0422 H              1 S1                 0.0000
     35 ****        -2.0796   3.0228   1.0761 H              1 S1                 0.0000
     36 ****        -0.1196   4.7247   1.9401 H              1 S1                 0.0000
     37 ****        -0.6601   3.3537   2.9064 H              1 S1                 0.0000
     38 ****         1.7643   3.4757   1.0962 H              1 S1                 0.0000
     39 ****         1.7019   2.9090   2.7661 H              1 S1                 0.0000
     40 ****         0.5717   0.9058   2.1360 H              1 S1                 0.0000
     41 ****         1.6378   1.1167   0.7641 H              1 S1                 0.0000
     42 ****        -3.0552  -3.0131   0.2272 LP             1 S1                 0.0000
     43 ****        -3.1963  -1.2868   0.2299 LP             1 S1                 0.0000
     44 ****        -3.3526  -6.6702   0.2968 LP             1 S1                 0.0000
     45 ****        -2.9723  -4.3760   0.3319 LP             1 S1                 0.0000
     46 ****        -1.0022   3.0468  -2.0436 LP             1 S1                 0.0000
     47 ****         0.4820   2.6023  -2.5597 LP             1 S1                 0.0000
@<TRIPOS>BOND
    1    1    2 2     
    2    2    3 am    
    3    2   10 am    
    4    3    4 1     
    5    3   22 1     
    6    4    9 ar    
    7    4    5 ar    
    8    5    6 ar    
    9    5   23 1     
   10    6    7 ar    
   11    6   24 1     
   12    7    8 ar    
   13    7   25 1     
   14    8    9 ar    
   15   10   11 1     
   16   10   26 1     
   17   11   17 1     
   18   11   12 1     
   19   11   27 1     
   20   12   16 1     
   21   12   13 1     
   22   12   28 1     
   23   13   14 1     
   24   13   29 1     
   25   13   30 1     
   26   14   15 1     
   27   14   31 1     
   28   14   32 1     
   29   15   16 1     
   30   16   17 1     
   31   16   33 1     
   32   17   21 1     
   33   17   18 1     
   34   18   19 1     
   35   18   34 1     
   36   18   35 1     
   37   19   20 1     
   38   19   36 1     
   39   19   37 1     
   40   20   21 1     
   41   20   38 1     
   42   20   39 1     
   43   21   40 1     
   44   21   41 1     
   45    1   42 1     
   46    1   43 1     
   47    8   44 1     
   48    9   45 1     
   49   15   46 1     
   50   15   47 1     
@<TRIPOS>SUBSTRUCTURE
      1 S1             1
@<TRIPOS>SET
LONE_PAIRS      STATIC     ATOMS    <user>   **** ""
6 42 43 44 45 46 47
DONOR_HYDROGENS      STATIC     ATOMS    <user>   **** ""
2 22 26
ATOM$BLUE        STATIC     ATOMS    COLORGROUP SYSTEM
6 42 43 44 45 46 47
ATOM$RED        STATIC     ATOMS    COLORGROUP SYSTEM
2 22 26
