#       Name:                AV-unprocessed.smi:1770
#       Creating user name   scv26
#       Creation time:       Fri Mar 27 08:39:40 2020


#       File generated by GOLD software.
#

@<TRIPOS>MOLECULE
AV-unprocessed.smi:1770
    43    44     1
SMALL
NO_CHARGES


@<TRIPOS>ATOM
      1 ****        -3.8086   0.8833   1.7463 C.3            1 S1                 0.0000
      2 ****        -2.4457   0.4980   1.7608 O.3            1 S1                 0.0000
      3 ****        -2.1722  -0.5017   2.7341 C.3            1 S1                 0.0000
      4 ****        -0.6928  -0.8974   2.6873 C.2            1 S1                 0.0000
      5 ****        -0.2253  -1.5586   3.6130 O.2            1 S1                 0.0000
      6 ****        -0.0051  -0.5076   1.5978 N.am           1 S1                 0.0000
      7 ****         1.3592  -0.7237   1.2459 C.ar           1 S1                 0.0000
      8 ****         2.3520  -1.1169   2.1770 C.ar           1 S1                 0.0000
      9 ****         3.6716  -1.3133   1.7317 C.ar           1 S1                 0.0000
     10 ****         3.9566  -1.1054   0.3710 C.ar           1 S1                 0.0000
     11 ****         3.0281  -0.7164  -0.5256 N.ar           1 S1                 0.0000
     12 ****         1.7548  -0.5207  -0.1045 C.ar           1 S1                 0.0000
     13 ****         0.8176  -0.0882  -1.0639 N.3            1 S1                 0.0000
     14 ****         0.5102   1.3387  -0.9858 C.3            1 S1                 0.0000
     15 ****        -0.7665   1.6634  -1.7796 C.3            1 S1                 0.0000
     16 ****        -0.6559   1.1617  -3.2287 C.3            1 S1                 0.0000
     17 ****        -0.2991  -0.3340  -3.2502 C.3            1 S1                 0.0000
     18 ****         0.9673  -0.6109  -2.4214 C.3            1 S1                 0.0000
     19 ****        -3.9643   1.6493   0.9866 H              1 S1                 0.0000
     20 ****        -4.1118   1.2963   2.7091 H              1 S1                 0.0000
     21 ****        -4.4547   0.0372   1.5089 H              1 S1                 0.0000
     22 ****        -2.4140  -0.1322   3.7318 H              1 S1                 0.0000
     23 ****        -2.7800  -1.3885   2.5484 H              1 S1                 0.0000
     24 ****        -0.5519  -0.0289   0.8962 H              1 S1                 0.0000
     25 ****         2.1368  -1.2629   3.2233 H              1 S1                 0.0000
     26 ****         4.4477  -1.6151   2.4192 H              1 S1                 0.0000
     27 ****         4.9583  -1.2477  -0.0067 H              1 S1                 0.0000
     28 ****         0.3887   1.6550   0.0505 H              1 S1                 0.0000
     29 ****         1.3527   1.9021  -1.3886 H              1 S1                 0.0000
     30 ****        -1.6248   1.1961  -1.2944 H              1 S1                 0.0000
     31 ****        -0.9507   2.7379  -1.7678 H              1 S1                 0.0000
     32 ****        -1.5924   1.3341  -3.7599 H              1 S1                 0.0000
     33 ****         0.1118   1.7295  -3.7557 H              1 S1                 0.0000
     34 ****        -1.1311  -0.9128  -2.8470 H              1 S1                 0.0000
     35 ****        -0.1554  -0.6716  -4.2768 H              1 S1                 0.0000
     36 ****         1.8305  -0.1438  -2.8975 H              1 S1                 0.0000
     37 ****         1.1590  -1.6842  -2.3859 H              1 S1                 0.0000
     38 ****        -1.8872   1.3027   1.9621 LP             1 S1                 0.0000
     39 ****        -2.2037   0.1415   0.8584 LP             1 S1                 0.0000
     40 ****        -0.8087  -1.8287   4.3790 LP             1 S1                 0.0000
     41 ****         0.7382  -1.8261   3.5997 LP             1 S1                 0.0000
     42 ****         3.2744  -0.5748  -1.4843 LP             1 S1                 0.0000
     43 ****        -0.0173  -0.5555  -0.7730 LP             1 S1                 0.0000
@<TRIPOS>BOND
    1    1    2 1     
    2    1   19 1     
    3    1   20 1     
    4    1   21 1     
    5    2    3 1     
    6    3    4 1     
    7    3   22 1     
    8    3   23 1     
    9    4    5 2     
   10    4    6 am    
   11    6    7 1     
   12    6   24 1     
   13    7   12 ar    
   14    7    8 ar    
   15    8    9 ar    
   16    8   25 1     
   17    9   10 ar    
   18    9   26 1     
   19   10   11 ar    
   20   10   27 1     
   21   11   12 ar    
   22   12   13 1     
   23   13   18 1     
   24   13   14 1     
   25   14   15 1     
   26   14   28 1     
   27   14   29 1     
   28   15   16 1     
   29   15   30 1     
   30   15   31 1     
   31   16   17 1     
   32   16   32 1     
   33   16   33 1     
   34   17   18 1     
   35   17   34 1     
   36   17   35 1     
   37   18   36 1     
   38   18   37 1     
   39    2   38 1     
   40    2   39 1     
   41    5   40 1     
   42    5   41 1     
   43   11   42 1     
   44   13   43 1     
@<TRIPOS>SUBSTRUCTURE
      1 S1             1
@<TRIPOS>SET
LONE_PAIRS      STATIC     ATOMS    <user>   **** ""
6 38 39 40 41 42 43
DONOR_HYDROGENS      STATIC     ATOMS    <user>   **** ""
1 24
ATOM$BLUE        STATIC     ATOMS    COLORGROUP SYSTEM
6 38 39 40 41 42 43
ATOM$RED        STATIC     ATOMS    COLORGROUP SYSTEM
1 24
