AV-unprocessed.smi:488|AV-procd|sdf|2701|dock7
  -GOLD-   2262023133D 1   1.00000     0.00000
 Structure written by MMmdl.
 45 46  0  0  0  0  0  0  0  0  1 V2000
  151.6869  141.8325  158.2372 C   0  0  0  0  0  0  0  0  0  0  0  0
  151.8203  140.4390  157.6847 C   0  0  0  0  0  0  0  0  0  0  0  0
  151.4123  140.2544  156.4721 N   0  0  0  0  0  0  0  0  0  0  0  0
  151.4804  139.0121  155.8707 N   0  0  0  0  0  0  0  0  0  0  0  0
  150.9613  138.9833  154.4962 C   0  0  0  0  0  0  0  0  0  0  0  0
  149.4627  139.3005  154.4491 C   0  0  0  0  0  0  0  0  0  0  0  0
  149.0362  140.2850  155.0552 O   0  0  0  0  0  0  0  0  0  0  0  0
  148.7108  138.4465  153.7244 N   0  0  0  0  0  0  0  0  0  0  0  0
  147.3835  138.5034  153.5055 C   0  0  0  0  0  0  0  0  0  0  0  0
  146.6230  139.3808  153.9204 O   0  0  0  0  0  0  0  0  0  0  0  0
  146.9750  137.4650  152.7613 N   0  0  0  0  0  0  0  0  0  0  0  0
  145.5994  137.2190  152.3390 C   0  0  0  0  0  0  0  0  0  0  0  0
  144.6953  137.0803  153.5782 C   0  0  0  0  0  0  0  0  0  0  0  0
  143.2440  136.7664  153.1811 C   0  0  0  0  0  0  0  0  0  0  0  0
  143.1668  135.5065  152.3047 C   0  0  0  0  0  0  0  0  0  0  0  0
  144.0662  135.6369  151.0653 C   0  0  0  0  0  0  0  0  0  0  0  0
  145.5184  135.9551  151.4583 C   0  0  0  0  0  0  0  0  0  0  0  0
  151.9723  137.8875  156.4664 C   0  0  0  0  0  0  0  0  0  0  0  0
  152.0149  136.7979  155.8937 O   0  0  0  0  0  0  0  0  0  0  0  0
  152.4358  138.1052  157.8386 C   0  0  0  0  0  0  0  0  0  0  0  0
  152.9536  136.9519  158.5017 C   0  0  0  0  0  0  0  0  0  0  0  0
  153.3882  136.0294  159.0496 N   0  0  0  0  0  0  0  0  0  0  0  0
  152.3750  139.3199  158.4391 C   0  0  0  0  0  0  0  0  0  0  0  0
  152.8416  139.5950  159.8621 C   0  0  0  0  0  0  0  0  0  0  0  0
  152.6682  142.2726  158.4149 H   0  0  0  0  0  0  0  0  0  0  0  0
  151.1423  141.8251  159.1816 H   0  0  0  0  0  0  0  0  0  0  0  0
  151.1482  142.4911  157.5543 H   0  0  0  0  0  0  0  0  0  0  0  0
  151.4944  139.7044  153.8733 H   0  0  0  0  0  0  0  0  0  0  0  0
  151.1450  138.0123  154.0323 H   0  0  0  0  0  0  0  0  0  0  0  0
  149.2031  137.6783  153.2931 H   0  0  0  0  0  0  0  0  0  0  0  0
  147.6649  136.7885  152.4691 H   0  0  0  0  0  0  0  0  0  0  0  0
  145.2456  138.0745  151.7599 H   0  0  0  0  0  0  0  0  0  0  0  0
  145.0720  136.2866  154.2253 H   0  0  0  0  0  0  0  0  0  0  0  0
  144.7239  137.9983  154.1666 H   0  0  0  0  0  0  0  0  0  0  0  0
  142.6340  136.6358  154.0753 H   0  0  0  0  0  0  0  0  0  0  0  0
  142.8220  137.6144  152.6401 H   0  0  0  0  0  0  0  0  0  0  0  0
  143.4711  134.6365  152.8878 H   0  0  0  0  0  0  0  0  0  0  0  0
  142.1355  135.3284  151.9989 H   0  0  0  0  0  0  0  0  0  0  0  0
  144.0318  134.7160  150.4828 H   0  0  0  0  0  0  0  0  0  0  0  0
  143.6832  136.4266  150.4177 H   0  0  0  0  0  0  0  0  0  0  0  0
  146.1195  136.0838  150.5574 H   0  0  0  0  0  0  0  0  0  0  0  0
  145.9427  135.1039  151.9931 H   0  0  0  0  0  0  0  0  0  0  0  0
  153.3773  138.7480  160.2898 H   0  0  0  0  0  0  0  0  0  0  0  0
  151.9877  139.8073  160.5060 H   0  0  0  0  0  0  0  0  0  0  0  0
  153.5169  140.4505  159.8921 H   0  0  0  0  0  0  0  0  0  0  0  0
  1  2  1  0  0  0  0
  1 25  1  0  0  0  0
  1 26  1  0  0  0  0
  1 27  1  0  0  0  0
  2 23  1  0  0  0  0
  2  3  2  0  0  0  0
  3  4  1  0  0  0  0
  4  5  1  0  0  0  0
  4 18  1  0  0  0  0
  5  6  1  0  0  0  0
  5 28  1  0  0  0  0
  5 29  1  0  0  0  0
  6  7  2  0  0  0  0
  6  8  1  0  0  0  0
  8  9  1  0  0  0  0
  8 30  1  0  0  0  0
  9 10  2  0  0  0  0
  9 11  1  0  0  0  0
 11 12  1  0  0  0  0
 11 31  1  0  0  0  0
 12 17  1  0  0  0  0
 12 13  1  0  0  0  0
 12 32  1  0  0  0  0
 13 14  1  0  0  0  0
 13 33  1  0  0  0  0
 13 34  1  0  0  0  0
 14 15  1  0  0  0  0
 14 35  1  0  0  0  0
 14 36  1  0  0  0  0
 15 16  1  0  0  0  0
 15 37  1  0  0  0  0
 15 38  1  0  0  0  0
 16 17  1  0  0  0  0
 16 39  1  0  0  0  0
 16 40  1  0  0  0  0
 17 41  1  0  0  0  0
 17 42  1  0  0  0  0
 18 19  2  0  0  0  0
 18 20  1  0  0  0  0
 20 21  1  0  0  0  0
 20 23  2  0  0  0  0
 21 22  3  0  0  0  0
 23 24  1  0  0  0  0
 24 43  1  0  0  0  0
 24 44  1  0  0  0  0
 24 45  1  0  0  0  0
M  END
> <s_m_source_file>
AV-unprocessed.smi

> <i_m_source_file_index>
488

> <i_lp_mmshare_version>
43012

> <i_f3d_flags>
0

> <s_epik_input>
TiNDYyhjMVtDSDNdKWMoPU8pbihuYzFbQ0gzXSlbQ0gyXUMoPU8pW05IXUMoPU8pW05IXVtDSF0yW0NIMl1bQ0gyXVtDSDJdW0NIMl1bQ0gyXTI=

> <s_epik_cmdline>
J2VwaWtfcHl0aG9uJywgJy1waCcsICc3LjAnLCAnLXRuJywgJzgnLCAnLW1hJywgJzIwMCcsICctbWV0YWxfYmluZGluZycsICctaW1hZScsICc8aW5maWxlLm1hZT4nLCAnLW9tYWUnLCAnPG91dGZpbGUubWFlPic=

> <r_lp_tautomer_probability>
1

> <r_epik_Ionization_Penalty>
3.27035e-05

> <r_epik_Ionization_Penalty_Charging>
1.69167e-11

> <r_epik_Ionization_Penalty_Neutral>
3.27035e-05

> <r_epik_State_Penalty>
-0

> <r_epik_Charging_Adjusted_Penalty>
1.69167e-11

> <i_epik_Tot_Q>
0

> <i_epik_Tot_abs_Q>
0

> <r_epik_Metal_State_Penalty>
-0

> <b_epik_Metal_Only>
0

> <s_lp_Force_Field>
OPLS_2005

> <r_lp_Energy>
25.832

> <b_lp_Chiralities_Consistent>
1

> <s_lp_Variant>
AV-unprocessed.smi:488-1

> <Gold.Version>
5.8.1

> <Gold.Id.Protein>
6NUR|6NUR_protein|mol2

> <Gold.PLP.Fitness>
45.8859

> <Gold.PLP.PLP>
-34.7935

> <Gold.PLP.part.hbond>
-4.8211

> <Gold.PLP.part.metal>
0.0000

> <Gold.PLP.part.buried>
-5.4338

> <Gold.PLP.part.nonpolar>
-25.9760

> <Gold.PLP.part.repulsive>
0.3692

> <Gold.PLP.ligand.clash>
0.0000

> <Gold.PLP.ligand.torsion>
0.1347

> <Gold.PLP.Chemscore.Hbond>
3.7833

> <Gold.PLP.Chemscore.CHOScore>
0.0000

> <Gold.PLP.Chemscore.Metal>
0.0000

> <Gold.Chemscore.Hbonds>
donor molecule, donor type, donor heavy atom, donor atom, acceptor molecule, acceptor atom, score
      L1  H     8    30       P1  7948  0.83
      L1  H    11    31       P1  7948  0.98
      P1  H  6896  6909       L1    22  0.88
      P1  H 10752 10763       L1    19  1.00

> <Gold.PLP.Chemscore.Internal.Correction>
0.0120

> <Gold.Rescore>
     Score         DG    S(hbond)    S(metal)    S(lipo)     H(rot)  DE(clash)    DE(int)     intcor
     17.84     -20.79       3.52        0.00      65.19       1.59       0.06       2.89       ----

> <Gold.Chemscore.Fitness>
17.8404

> <Gold.Chemscore.DG>
-20.7934

> <Gold.Chemscore.ZeroCoef>
-5.4800

> <Gold.Chemscore.Hbond>
3.5172

> <Gold.Chemscore.Metal>
0.0000

> <Gold.Chemscore.Lipo>
65.1865

> <Gold.Chemscore.Internal_Hbond>
0.0000

> <Gold.Chemscore.DEClash>
0.0609

> <Gold.Chemscore.DEInternal>
2.8922

> <Gold.Chemscore.Rot>
1.5862

> <Gold.Chemscore.Internal.Correction>
   9.000000E+99

> <Gold.Chemscore.Hbonds>
donor molecule, donor type, donor heavy atom, donor atom, acceptor molecule, acceptor atom, score
      L1  H     8    30       P1  7948  0.77
      L1  H    11    31       P1  7948  0.92
      P1  H  6896  6909       L1    22  0.85
      P1  H 10752 10763       L1    19  0.96

> <Gold.Chemscore.Hbond.Weighted>
-11.7473

> <Gold.Chemscore.Metal.Weighted>
-0.0000

> <Gold.Chemscore.Lipo.Weighted>
-7.6268

> <Gold.Chemscore.Internal_Hbond.Weighted>
0.0000

> <Gold.Chemscore.DEClash.Weighted>
0.0609

> <Gold.Chemscore.DEInternal.Weighted>
2.8922

> <Gold.Chemscore.Rot.Weighted>
4.0607

> <Gold.Chemscore.Internal.Correction.Weighted>
   9.000000E+99

> <Gold.Protein.RotatedTorsions>
[ 6907 6896 6895 6894 ] final  162.70 input  -60.11 | X-H torsion
[ 7974 7965 7964 7962 ] final -118.48 input  175.53 | X-H torsion
[ 8008 7997 7996 7995 ] final -170.26 input   59.86 | X-H torsion
[ 10167 10162 10161 10158 ] final   40.80 input  -65.29 | X-H torsion
[ 10718 10713 10712 10709 ] final   91.48 input   66.30 | X-H torsion
[ 10763 10752 10751 10750 ] final   71.89 input  -60.55 | X-H torsion
[ 11005 11000 10999 10996 ] final -168.98 input  -57.11 | X-H torsion

> <Gold.Protein.ActiveResidues>
 VAL166  LYS551  ARG553  GLY616  TRP617  ASP618  TYR619  PRO620  LYS621  CYS622 
 ASP623  PHE694  ASN695  SER759  ASP760  ASP761  ALA762  ILE779  LEU786  VAL792 
 PHE793  MET794  SER795  GLU796  ALA797  LYS798  CYS799  TRP800  GLU811  SER814 

> <Gold.Protein.RotatedAtoms>
  151.9365  133.3625  159.3949 H   0  0  0  0  0  0  0  0  0  0  0  0  # atno 6907 bound_to 6896
  150.7007  134.4484  159.5334 H   0  0  0  0  0  0  0  0  0  0  0  0  # atno 6908 bound_to 6896
  152.2133  134.8481  160.0545 H   0  0  0  0  0  0  0  0  0  0  0  0  # atno 6909 bound_to 6896
  145.0733  140.8374  143.4082 H   0  0  0  0  0  0  0  0  0  0  0  0  # atno 7974 bound_to 7965
  155.9159  140.1065  157.1244 H   0  0  0  0  0  0  0  0  0  0  0  0  # atno 8008 bound_to 7997
  154.4046  140.1265  156.4682 H   0  0  0  0  0  0  0  0  0  0  0  0  # atno 8009 bound_to 7997
  155.7254  140.3469  155.5037 H   0  0  0  0  0  0  0  0  0  0  0  0  # atno 8010 bound_to 7997
  140.3706  144.2110  150.6133 H   0  0  0  0  0  0  0  0  0  0  0  0  # atno 10167 bound_to 10162
  157.6960  131.0409  150.3735 H   0  0  0  0  0  0  0  0  0  0  0  0  # atno 10718 bound_to 10713
  153.0426  135.5120  154.7662 H   0  0  0  0  0  0  0  0  0  0  0  0  # atno 10763 bound_to 10752
  154.6587  135.2935  154.9897 H   0  0  0  0  0  0  0  0  0  0  0  0  # atno 10764 bound_to 10752
  154.0755  135.6671  153.4883 H   0  0  0  0  0  0  0  0  0  0  0  0  # atno 10765 bound_to 10752
  140.5359  134.5570  157.5087 H   0  0  0  0  0  0  0  0  0  0  0  0  # atno 11005 bound_to 11000
  145.1266  139.2659  143.5561 LP  0  0  0  0  0  0  0  0  0  0  0  0  # atno 17320 bound_to 7965
  146.3529  140.0905  142.8613 LP  0  0  0  0  0  0  0  0  0  0  0  0  # atno 17321 bound_to 7965
  140.5037  143.2310  151.8640 LP  0  0  0  0  0  0  0  0  0  0  0  0  # atno 17342 bound_to 10162
  139.4804  144.5030  151.9035 LP  0  0  0  0  0  0  0  0  0  0  0  0  # atno 17343 bound_to 10162
  156.4157  130.3943  149.6860 LP  0  0  0  0  0  0  0  0  0  0  0  0  # atno 17370 bound_to 10713
  156.4128  130.7730  151.2744 LP  0  0  0  0  0  0  0  0  0  0  0  0  # atno 17371 bound_to 10713
  139.9529  134.7585  156.0406 LP  0  0  0  0  0  0  0  0  0  0  0  0  # atno 17394 bound_to 11000
  141.1255  133.6600  156.3325 LP  0  0  0  0  0  0  0  0  0  0  0  0  # atno 17395 bound_to 11000

$$$$
