AV-unprocessed.smi:2037|AV-procd|sdf|8279|dock7
  -GOLD-   2272010543D 1   1.00000     0.00000
 Structure written by MMmdl.
 38 39  0  0  0  0  0  0  0  0  3 V2000
  144.9639  132.6938  151.3007 C   0  0  0  0  0  0  0  0  0  0  0  0
  146.2130  133.5638  151.0766 C   0  0  2  0  0  0  0  0  0  0  0  0
  147.3360  133.2659  152.0861 C   0  0  0  0  0  0  0  0  0  0  0  0
  147.0276  133.8296  153.4848 C   0  0  0  0  0  0  0  0  0  0  0  0
  146.7494  135.2882  153.4311 N   0  3  2  0  0  0  0  0  0  0  0  0
  146.5812  135.8734  154.7850 C   0  0  0  0  0  0  0  0  0  0  0  0
  147.6613  135.3927  155.7720 C   0  0  0  0  0  0  0  0  0  0  0  0
  147.5597  136.0885  157.0491 N   0  0  0  0  0  0  0  0  0  0  0  0
  148.2091  135.7568  158.1740 C   0  0  0  0  0  0  0  0  0  0  0  0
  148.9658  134.7828  158.1818 O   0  0  0  0  0  0  0  0  0  0  0  0
  147.9388  136.5723  159.2175 N   0  5  0  0  0  0  0  0  0  0  0  0
  147.5502  136.0528  160.3934 C   0  0  0  0  0  0  0  0  0  0  0  0
  147.2095  136.8061  161.4454 N   0  0  0  0  0  0  0  0  0  0  0  0
  146.8320  136.0605  162.5634 C   0  0  0  0  0  0  0  0  0  0  0  0
  146.8775  134.7075  162.3550 C   0  0  0  0  0  0  0  0  0  0  0  0
  147.3990  134.3275  160.7385 S   0  0  0  0  0  0  0  0  0  0  0  0
  145.6216  135.5962  152.5117 C   0  0  0  0  0  0  0  0  0  0  0  0
  145.8995  135.0707  151.0916 C   0  0  0  0  0  0  0  0  0  0  0  0
  144.5043  132.8741  152.2722 H   0  0  0  0  0  0  0  0  0  0  0  0
  145.2117  131.6334  151.2458 H   0  0  0  0  0  0  0  0  0  0  0  0
  144.2101  132.8912  150.5382 H   0  0  0  0  0  0  0  0  0  0  0  0
  146.5878  133.3141  150.0831 H   0  0  0  0  0  0  0  0  0  0  0  0
  147.5158  132.1919  152.1463 H   0  0  0  0  0  0  0  0  0  0  0  0
  148.2663  133.7069  151.7254 H   0  0  0  0  0  0  0  0  0  0  0  0
  146.1778  133.3101  153.9297 H   0  0  0  0  0  0  0  0  0  0  0  0
  147.8831  133.6434  154.1352 H   0  0  0  0  0  0  0  0  0  0  0  0
  146.5712  136.9625  154.7204 H   0  0  0  0  0  0  0  0  0  0  0  0
  145.6057  135.5805  155.1759 H   0  0  0  0  0  0  0  0  0  0  0  0
  147.5896  134.3147  155.9260 H   0  0  0  0  0  0  0  0  0  0  0  0
  148.6600  135.5852  155.3827 H   0  0  0  0  0  0  0  0  0  0  0  0
  146.9536  136.8952  157.0861 H   0  0  0  0  0  0  0  0  0  0  0  0
  146.5438  136.5767  163.4671 H   0  0  0  0  0  0  0  0  0  0  0  0
  146.6365  133.9158  163.0482 H   0  0  0  0  0  0  0  0  0  0  0  0
  144.6995  135.1660  152.9047 H   0  0  0  0  0  0  0  0  0  0  0  0
  145.4619  136.6719  152.4553 H   0  0  0  0  0  0  0  0  0  0  0  0
  146.7472  135.6161  150.6744 H   0  0  0  0  0  0  0  0  0  0  0  0
  145.0523  135.2869  150.4397 H   0  0  0  0  0  0  0  0  0  0  0  0
  147.5757  135.7168  153.0394 H   0  0  0  0  0  0  0  0  0  0  0  0
  1  2  1  0  0  0  0
  1 19  1  0  0  0  0
  1 20  1  0  0  0  0
  1 21  1  0  0  0  0
  2 18  1  0  0  0  0
  2  3  1  0  0  0  0
  2 22  1  0  0  0  0
  3  4  1  0  0  0  0
  3 23  1  0  0  0  0
  3 24  1  0  0  0  0
  4  5  1  0  0  0  0
  4 25  1  0  0  0  0
  4 26  1  0  0  0  0
  5  6  1  0  0  0  0
  5 17  1  0  0  0  0
  5 38  1  0  0  0  0
  6  7  1  0  0  0  0
  6 27  1  0  0  0  0
  6 28  1  0  0  0  0
  7  8  1  0  0  0  0
  7 29  1  0  0  0  0
  7 30  1  0  0  0  0
  8  9  1  0  0  0  0
  8 31  1  0  0  0  0
  9 10  2  0  0  0  0
  9 11  1  0  0  0  0
 11 12  1  0  0  0  0
 12 16  1  0  0  0  0
 12 13  2  0  0  0  0
 13 14  1  0  0  0  0
 14 15  2  0  0  0  0
 14 32  1  0  0  0  0
 15 16  1  0  0  0  0
 15 33  1  0  0  0  0
 17 18  1  0  0  0  0
 17 34  1  0  0  0  0
 17 35  1  0  0  0  0
 18 36  1  0  0  0  0
 18 37  1  0  0  0  0
M  CHG  1   5   1
M  CHG  1  11  -1
M  END
> <s_m_source_file>
AV-unprocessed.smi

> <i_m_source_file_index>
2037

> <i_lp_mmshare_version>
43012

> <i_f3d_flags>
0

> <s_epik_input>
W0NIM11bQ0hdMVtDSDJdW0NIMl1OKFtDSDJdW0NIMl0xKVtDSDJdW0NIMl1bTkhdQyg9TylbTkhdYzJuW2NIXVtjSF1zMg==

> <s_epik_cmdline>
J2VwaWtfcHl0aG9uJywgJy1waCcsICc3LjAnLCAnLXRuJywgJzgnLCAnLW1hJywgJzIwMCcsICctbWV0YWxfYmluZGluZycsICctaW1hZScsICc8aW5maWxlLm1hZT4nLCAnLW9tYWUnLCAnPG91dGZpbGUubWFlPic=

> <r_lp_tautomer_probability>
0.999

> <r_epik_Ionization_Penalty>
6.22113

> <r_epik_Ionization_Penalty_Charging>
5.39005

> <r_epik_Ionization_Penalty_Neutral>
0.831074

> <r_epik_State_Penalty>
5.38997

> <r_epik_Charging_Adjusted_Penalty>
10.78

> <i_epik_Tot_Q>
0

> <i_epik_Tot_abs_Q>
2

> <r_epik_Metal_State_Penalty>
1.41601

> <b_epik_Metal_Only>
1

> <s_lp_Force_Field>
OPLS_2005

> <r_lp_Energy>
7.28937

> <b_lp_Chiralities_Consistent>
1

> <s_lp_Variant>
AV-unprocessed.smi:2037-4

> <Gold.Version>
5.8.1

> <Gold.Id.Protein>
6NUR|6NUR_protein|mol2

> <Gold.PLP.Fitness>
43.0764

> <Gold.PLP.PLP>
-29.6914

> <Gold.PLP.part.hbond>
-4.0000

> <Gold.PLP.part.metal>
0.0000

> <Gold.PLP.part.buried>
-4.3038

> <Gold.PLP.part.nonpolar>
-21.3506

> <Gold.PLP.part.repulsive>
0.0000

> <Gold.PLP.ligand.clash>
0.0000

> <Gold.PLP.ligand.torsion>
0.6005

> <Gold.PLP.Chemscore.Hbond>
4.8480

> <Gold.PLP.Chemscore.CHOScore>
0.0000

> <Gold.PLP.Chemscore.Metal>
0.0000

> <Gold.Chemscore.Hbonds>
donor molecule, donor type, donor heavy atom, donor atom, acceptor molecule, acceptor atom, score
      L1  H     5    38       P1  7948  2.00
      P1  H  6896  6909       L1    10  0.73
      P1  H  6931  6943       L1    13  0.16
      P1  H  6934  6947       L1    13  0.39

> <Gold.PLP.Chemscore.Internal.Correction>
0.0419

> <Gold.Rescore>
     Score         DG    S(hbond)    S(metal)    S(lipo)     H(rot)  DE(clash)    DE(int)     intcor
     18.97     -19.65       3.43        0.00      57.39       1.57       0.00       0.68       ----

> <Gold.Chemscore.Fitness>
18.9729

> <Gold.Chemscore.DG>
-19.6532

> <Gold.Chemscore.ZeroCoef>
-5.4800

> <Gold.Chemscore.Hbond>
3.4347

> <Gold.Chemscore.Metal>
0.0000

> <Gold.Chemscore.Lipo>
57.3884

> <Gold.Chemscore.Internal_Hbond>
0.0000

> <Gold.Chemscore.DEClash>
0.0009

> <Gold.Chemscore.DEInternal>
0.6794

> <Gold.Chemscore.Rot>
1.5676

> <Gold.Chemscore.Internal.Correction>
   9.000000E+99

> <Gold.Chemscore.Hbonds>
donor molecule, donor type, donor heavy atom, donor atom, acceptor molecule, acceptor atom, score
      L1  H     5    38       P1  7948  1.00
      P1  H  6896  6909       L1    10  0.73
      P1  H  6931  6943       L1    13  0.09
      P1  H  6934  6947       L1    13  0.31

> <Gold.Chemscore.Hbond.Weighted>
-11.4718

> <Gold.Chemscore.Metal.Weighted>
-0.0000

> <Gold.Chemscore.Lipo.Weighted>
-6.7144

> <Gold.Chemscore.Internal_Hbond.Weighted>
0.0000

> <Gold.Chemscore.DEClash.Weighted>
0.0009

> <Gold.Chemscore.DEInternal.Weighted>
0.6794

> <Gold.Chemscore.Rot.Weighted>
4.0130

> <Gold.Chemscore.Internal.Correction.Weighted>
   9.000000E+99

> <Gold.Protein.RotatedTorsions>
[ 6907 6896 6895 6894 ] final   28.94 input  -60.11 | X-H torsion
[ 7974 7965 7964 7962 ] final  -41.06 input  175.53 | X-H torsion
[ 8008 7997 7996 7995 ] final -113.99 input   59.86 | X-H torsion
[ 10167 10162 10161 10158 ] final  -23.41 input  -65.29 | X-H torsion
[ 10718 10713 10712 10709 ] final  -73.27 input   66.30 | X-H torsion
[ 10763 10752 10751 10750 ] final  156.22 input  -60.55 | X-H torsion
[ 11005 11000 10999 10996 ] final   44.86 input  -57.11 | X-H torsion

> <Gold.Protein.ActiveResidues>
 VAL166  LYS551  ARG553  GLY616  TRP617  ASP618  TYR619  PRO620  LYS621  CYS622 
 ASP623  PHE694  ASN695  SER759  ASP760  ASP761  ALA762  ILE779  LEU786  VAL792 
 PHE793  MET794  SER795  GLU796  ALA797  LYS798  CYS799  TRP800  GLU811  SER814 

> <Gold.Protein.RotatedAtoms>
  152.0243  134.9805  160.0571 H   0  0  0  0  0  0  0  0  0  0  0  0  # atno 6907 bound_to 6896
  152.1307  133.4401  159.4727 H   0  0  0  0  0  0  0  0  0  0  0  0  # atno 6908 bound_to 6896
  150.6856  134.2343  159.4490 H   0  0  0  0  0  0  0  0  0  0  0  0  # atno 6909 bound_to 6896
  146.0246  140.6807  142.9162 H   0  0  0  0  0  0  0  0  0  0  0  0  # atno 7974 bound_to 7965
  155.0293  140.0393  157.2468 H   0  0  0  0  0  0  0  0  0  0  0  0  # atno 8008 bound_to 7997
  154.7310  140.2730  155.6432 H   0  0  0  0  0  0  0  0  0  0  0  0  # atno 8009 bound_to 7997
  156.2841  140.2684  156.2011 H   0  0  0  0  0  0  0  0  0  0  0  0  # atno 8010 bound_to 7997
  140.7288  143.4445  151.0607 H   0  0  0  0  0  0  0  0  0  0  0  0  # atno 10167 bound_to 10162
  156.0287  130.4390  150.2717 H   0  0  0  0  0  0  0  0  0  0  0  0  # atno 10718 bound_to 10713
  154.1808  135.2799  155.3052 H   0  0  0  0  0  0  0  0  0  0  0  0  # atno 10763 bound_to 10752
  154.6004  135.5531  153.7372 H   0  0  0  0  0  0  0  0  0  0  0  0  # atno 10764 bound_to 10752
  153.0138  135.6390  154.1947 H   0  0  0  0  0  0  0  0  0  0  0  0  # atno 10765 bound_to 10752
  140.1512  134.4459  155.8380 H   0  0  0  0  0  0  0  0  0  0  0  0  # atno 11005 bound_to 11000
  144.7004  140.3627  143.7160 LP  0  0  0  0  0  0  0  0  0  0  0  0  # atno 17320 bound_to 7965
  145.7138  139.1691  143.2523 LP  0  0  0  0  0  0  0  0  0  0  0  0  # atno 17321 bound_to 7965
  139.8116  143.7943  152.3171 LP  0  0  0  0  0  0  0  0  0  0  0  0  # atno 17342 bound_to 10162
  139.7995  144.7379  150.9844 LP  0  0  0  0  0  0  0  0  0  0  0  0  # atno 17343 bound_to 10162
  157.0820  131.0146  151.3153 LP  0  0  0  0  0  0  0  0  0  0  0  0  # atno 17370 bound_to 10713
  157.4920  130.7827  149.7517 LP  0  0  0  0  0  0  0  0  0  0  0  0  # atno 17371 bound_to 10713
  141.2199  133.6873  156.7426 LP  0  0  0  0  0  0  0  0  0  0  0  0  # atno 17394 bound_to 11000
  140.2602  134.8473  157.3751 LP  0  0  0  0  0  0  0  0  0  0  0  0  # atno 17395 bound_to 11000

$$$$
