AV-unprocessed.smi:2973|AV-procd|sdf|11349|dock7
  -GOLD-   2272016263D 1   1.00000     0.00000
 Structure written by MMmdl.
 49 51  0  0  0  0  0  0  0  0  3 V2000
  146.6504  133.8377  159.4247 C   0  0  0  0  0  0  0  0  0  0  0  0
  147.0793  134.5251  160.7404 C   0  0  2  0  0  0  0  0  0  0  0  0
  145.9573  134.3882  161.7939 C   0  0  0  0  0  0  0  0  0  0  0  0
  146.3631  134.9897  163.1473 C   0  0  0  0  0  0  0  0  0  0  0  0
  146.7727  136.4604  163.0014 C   0  0  0  0  0  0  0  0  0  0  0  0
  147.8990  136.6191  161.9653 C   0  0  0  0  0  0  0  0  0  0  0  0
  147.5562  136.0081  160.5798 C   0  0  1  0  0  0  0  0  0  0  0  0
  148.7428  136.0679  159.7433 N   0  5  0  0  0  0  0  0  0  0  0  0
  148.4879  136.8446  158.6655 C   0  0  0  0  0  0  0  0  0  0  0  0
  149.2617  137.1007  157.7433 O   0  0  0  0  0  0  0  0  0  0  0  0
  147.2321  137.3275  158.7041 N   0  0  0  0  0  0  0  0  0  0  0  0
  146.6266  138.1726  157.6666 C   0  0  0  0  0  0  0  0  0  0  0  0
  147.2935  139.5506  157.5562 C   0  0  0  0  0  0  0  0  0  0  0  0
  146.6419  140.5851  157.7093 O   0  0  0  0  0  0  0  0  0  0  0  0
  148.6107  139.5476  157.3027 N   0  0  0  0  0  0  0  0  0  0  0  0
  149.4339  140.7408  157.1497 C   0  0  0  0  0  0  0  0  0  0  0  0
  149.1927  141.7454  158.2896 C   0  0  0  0  0  0  0  0  0  0  0  0
  150.4446  142.5244  158.6410 C   0  0  0  0  0  0  0  0  0  0  0  0
  151.3900  142.0430  159.5725 C   0  0  0  0  0  0  0  0  0  0  0  0
  152.5395  142.8127  159.8478 C   0  0  0  0  0  0  0  0  0  0  0  0
  152.7195  144.0453  159.1867 C   0  0  0  0  0  0  0  0  0  0  0  0
  151.7442  144.4775  158.2649 C   0  0  0  0  0  0  0  0  0  0  0  0
  150.6567  143.7114  158.0275 N   0  3  0  0  0  0  0  0  0  0  0  0
  146.5899  136.8924  159.7937 C   0  0  0  0  0  0  0  0  0  0  0  0
  145.4267  137.1362  160.1174 O   0  0  0  0  0  0  0  0  0  0  0  0
  145.7666  134.3055  158.9903 H   0  0  0  0  0  0  0  0  0  0  0  0
  146.4099  132.7884  159.5968 H   0  0  0  0  0  0  0  0  0  0  0  0
  147.4434  133.8659  158.6774 H   0  0  0  0  0  0  0  0  0  0  0  0
  147.9314  133.9566  161.1176 H   0  0  0  0  0  0  0  0  0  0  0  0
  145.0442  134.8671  161.4397 H   0  0  0  0  0  0  0  0  0  0  0  0
  145.7096  133.3354  161.9326 H   0  0  0  0  0  0  0  0  0  0  0  0
  145.5384  134.9024  163.8550 H   0  0  0  0  0  0  0  0  0  0  0  0
  147.1929  134.4193  163.5664 H   0  0  0  0  0  0  0  0  0  0  0  0
  145.9074  137.0583  162.7160 H   0  0  0  0  0  0  0  0  0  0  0  0
  147.1035  136.8480  163.9652 H   0  0  0  0  0  0  0  0  0  0  0  0
  148.1453  137.6776  161.8651 H   0  0  0  0  0  0  0  0  0  0  0  0
  148.7990  136.1429  162.3581 H   0  0  0  0  0  0  0  0  0  0  0  0
  146.6867  137.6819  156.6940 H   0  0  0  0  0  0  0  0  0  0  0  0
  145.5611  138.2952  157.8700 H   0  0  0  0  0  0  0  0  0  0  0  0
  149.0704  138.6544  157.2003 H   0  0  0  0  0  0  0  0  0  0  0  0
  150.4879  140.4610  157.1027 H   0  0  0  0  0  0  0  0  0  0  0  0
  149.1902  141.1974  156.1901 H   0  0  0  0  0  0  0  0  0  0  0  0
  148.4045  142.4464  158.0111 H   0  0  0  0  0  0  0  0  0  0  0  0
  148.8400  141.2281  159.1829 H   0  0  0  0  0  0  0  0  0  0  0  0
  151.2387  141.0949  160.0684 H   0  0  0  0  0  0  0  0  0  0  0  0
  153.2745  142.4613  160.5573 H   0  0  0  0  0  0  0  0  0  0  0  0
  153.5932  144.6497  159.3831 H   0  0  0  0  0  0  0  0  0  0  0  0
  151.8010  145.4050  157.7141 H   0  0  0  0  0  0  0  0  0  0  0  0
  149.9643  144.0441  157.3559 H   0  0  0  0  0  0  0  0  0  0  0  0
  1  2  1  0  0  0  0
  1 26  1  0  0  0  0
  1 27  1  0  0  0  0
  1 28  1  0  0  0  0
  2  7  1  0  0  0  0
  2  3  1  0  0  0  0
  2 29  1  0  0  0  0
  3  4  1  0  0  0  0
  3 30  1  0  0  0  0
  3 31  1  0  0  0  0
  4  5  1  0  0  0  0
  4 32  1  0  0  0  0
  4 33  1  0  0  0  0
  5  6  1  0  0  0  0
  5 34  1  0  0  0  0
  5 35  1  0  0  0  0
  6  7  1  0  0  0  0
  6 36  1  0  0  0  0
  6 37  1  0  0  0  0
  7 24  1  0  0  0  0
  7  8  1  0  0  0  0
  8  9  1  0  0  0  0
  9 10  2  0  0  0  0
  9 11  1  0  0  0  0
 11 12  1  0  0  0  0
 11 24  1  0  0  0  0
 12 13  1  0  0  0  0
 12 38  1  0  0  0  0
 12 39  1  0  0  0  0
 13 14  2  0  0  0  0
 13 15  1  0  0  0  0
 15 16  1  0  0  0  0
 15 40  1  0  0  0  0
 16 17  1  0  0  0  0
 16 41  1  0  0  0  0
 16 42  1  0  0  0  0
 17 18  1  0  0  0  0
 17 43  1  0  0  0  0
 17 44  1  0  0  0  0
 18 23  1  0  0  0  0
 18 19  2  0  0  0  0
 19 20  1  0  0  0  0
 19 45  1  0  0  0  0
 20 21  2  0  0  0  0
 20 46  1  0  0  0  0
 21 22  1  0  0  0  0
 21 47  1  0  0  0  0
 22 23  2  0  0  0  0
 22 48  1  0  0  0  0
 23 49  1  0  0  0  0
 24 25  2  0  0  0  0
M  CHG  1   8  -1
M  CHG  1  23   1
M  END
> <s_m_source_file>
AV-unprocessed.smi

> <i_m_source_file_index>
2973

> <i_lp_mmshare_version>
43012

> <i_f3d_flags>
0

> <s_epik_input>
W0NIMl0xW0NIMl1bQ0gyXVtDSDJdW0NAQEhdKFtDSDNdKVtDQF0xMltOSF1DKD1PKU4oQzI9TylbQ0gyXUMoPU8pW05IXVtDSDJdW0NIMl1jM1tjSF1bY0hdW2NIXVtjSF1uMw==

> <s_epik_cmdline>
J2VwaWtfcHl0aG9uJywgJy1waCcsICc3LjAnLCAnLXRuJywgJzgnLCAnLW1hJywgJzIwMCcsICctbWV0YWxfYmluZGluZycsICctaW1hZScsICc8aW5maWxlLm1hZT4nLCAnLW9tYWUnLCAnPG91dGZpbGUubWFlPic=

> <r_lp_tautomer_probability>
1

> <r_epik_Ionization_Penalty>
7.89073

> <r_epik_Ionization_Penalty_Charging>
7.89073

> <r_epik_Ionization_Penalty_Neutral>
1.56557e-07

> <r_epik_State_Penalty>
8.01193

> <r_epik_Charging_Adjusted_Penalty>
15.9027

> <i_epik_Tot_Q>
0

> <i_epik_Tot_abs_Q>
2

> <r_epik_Metal_State_Penalty>
3.98737

> <b_epik_Metal_Only>
1

> <s_lp_Force_Field>
OPLS_2005

> <r_lp_Energy>
17.4929

> <b_lp_Chiralities_Consistent>
1

> <s_lp_Variant>
AV-unprocessed.smi:2973-13

> <Gold.Version>
5.8.1

> <Gold.Id.Protein>
6NUR|6NUR_protein|mol2

> <Gold.PLP.Fitness>
50.9293

> <Gold.PLP.PLP>
-40.2441

> <Gold.PLP.part.hbond>
-2.0000

> <Gold.PLP.part.metal>
0.0000

> <Gold.PLP.part.buried>
-3.5500

> <Gold.PLP.part.nonpolar>
-34.3817

> <Gold.PLP.part.repulsive>
0.0213

> <Gold.PLP.ligand.clash>
0.0000

> <Gold.PLP.ligand.torsion>
0.6733

> <Gold.PLP.Chemscore.Hbond>
4.0000

> <Gold.PLP.Chemscore.CHOScore>
0.0000

> <Gold.PLP.Chemscore.Metal>
0.0000

> <Gold.Chemscore.Hbonds>
donor molecule, donor type, donor heavy atom, donor atom, acceptor molecule, acceptor atom, score
      L1  H    23    49       P1  8028  1.66
      P1  H  6896  6907       L1     8  0.16

> <Gold.PLP.Chemscore.Internal.Correction>
0.0317

> <Gold.Rescore>
     Score         DG    S(hbond)    S(metal)    S(lipo)     H(rot)  DE(clash)    DE(int)     intcor
     17.57     -20.63       1.96        0.00     115.47       1.92       1.51       1.55       ----

> <Gold.Chemscore.Fitness>
17.5731

> <Gold.Chemscore.DG>
-20.6295

> <Gold.Chemscore.ZeroCoef>
-5.4800

> <Gold.Chemscore.Hbond>
1.9605

> <Gold.Chemscore.Metal>
0.0000

> <Gold.Chemscore.Lipo>
115.4707

> <Gold.Chemscore.Internal_Hbond>
0.0000

> <Gold.Chemscore.DEClash>
1.5073

> <Gold.Chemscore.DEInternal>
1.5491

> <Gold.Chemscore.Rot>
1.9175

> <Gold.Chemscore.Internal.Correction>
   9.000000E+99

> <Gold.Chemscore.Hbonds>
donor molecule, donor type, donor heavy atom, donor atom, acceptor molecule, acceptor atom, score
      L1  H    23    49       P1  8028  0.58
      P1  H  6896  6907       L1     8  0.10

> <Gold.Chemscore.Hbond.Weighted>
-6.5482

> <Gold.Chemscore.Metal.Weighted>
-0.0000

> <Gold.Chemscore.Lipo.Weighted>
-13.5101

> <Gold.Chemscore.Internal_Hbond.Weighted>
0.0000

> <Gold.Chemscore.DEClash.Weighted>
1.5073

> <Gold.Chemscore.DEInternal.Weighted>
1.5491

> <Gold.Chemscore.Rot.Weighted>
4.9087

> <Gold.Chemscore.Internal.Correction.Weighted>
   9.000000E+99

> <Gold.Protein.RotatedTorsions>
[ 6907 6896 6895 6894 ] final  -53.90 input  -60.11 | X-H torsion
[ 7974 7965 7964 7962 ] final  -75.05 input  175.53 | X-H torsion
[ 8008 7997 7996 7995 ] final  -57.72 input   59.86 | X-H torsion
[ 10167 10162 10161 10158 ] final  124.39 input  -65.29 | X-H torsion
[ 10718 10713 10712 10709 ] final -176.17 input   66.30 | X-H torsion
[ 10763 10752 10751 10750 ] final -157.26 input  -60.55 | X-H torsion
[ 11005 11000 10999 10996 ] final  128.96 input  -57.11 | X-H torsion

> <Gold.Protein.ActiveResidues>
 VAL166  LYS551  ARG553  GLY616  TRP617  ASP618  TYR619  PRO620  LYS621  CYS622 
 ASP623  PHE694  ASN695  SER759  ASP760  ASP761  ALA762  ILE779  LEU786  VAL792 
 PHE793  MET794  SER795  GLU796  ALA797  LYS798  CYS799  TRP800  GLU811  SER814 

> <Gold.Protein.RotatedAtoms>
  150.8386  134.7669  159.6913 H   0  0  0  0  0  0  0  0  0  0  0  0  # atno 6907 bound_to 6896
  152.4478  134.5455  159.9861 H   0  0  0  0  0  0  0  0  0  0  0  0  # atno 6908 bound_to 6896
  151.5600  133.3367  159.3005 H   0  0  0  0  0  0  0  0  0  0  0  0  # atno 6909 bound_to 6896
  145.6310  140.9337  143.1087 H   0  0  0  0  0  0  0  0  0  0  0  0  # atno 7974 bound_to 7965
  154.4279  140.1100  156.5843 H   0  0  0  0  0  0  0  0  0  0  0  0  # atno 8008 bound_to 7997
  155.6079  140.3494  155.4594 H   0  0  0  0  0  0  0  0  0  0  0  0  # atno 8009 bound_to 7997
  156.0122  140.1221  157.0432 H   0  0  0  0  0  0  0  0  0  0  0  0  # atno 8010 bound_to 7997
  139.5744  144.6956  151.3692 H   0  0  0  0  0  0  0  0  0  0  0  0  # atno 10167 bound_to 10162
  156.8106  130.9585  151.3116 H   0  0  0  0  0  0  0  0  0  0  0  0  # atno 10718 bound_to 10713
  154.7650  135.3128  154.8304 H   0  0  0  0  0  0  0  0  0  0  0  0  # atno 10763 bound_to 10752
  153.9055  135.6811  153.4757 H   0  0  0  0  0  0  0  0  0  0  0  0  # atno 10764 bound_to 10752
  153.1255  135.4803  154.9197 H   0  0  0  0  0  0  0  0  0  0  0  0  # atno 10765 bound_to 10752
  139.9589  134.9607  156.9078 H   0  0  0  0  0  0  0  0  0  0  0  0  # atno 11005 bound_to 11000
  144.7193  139.8084  143.7387 LP  0  0  0  0  0  0  0  0  0  0  0  0  # atno 17320 bound_to 7965
  146.1356  139.4401  143.0141 LP  0  0  0  0  0  0  0  0  0  0  0  0  # atno 17321 bound_to 7965
  140.7027  143.7590  150.7430 LP  0  0  0  0  0  0  0  0  0  0  0  0  # atno 17342 bound_to 10162
  140.1106  143.4703  152.2372 LP  0  0  0  0  0  0  0  0  0  0  0  0  # atno 17343 bound_to 10162
  157.6507  130.8882  149.9628 LP  0  0  0  0  0  0  0  0  0  0  0  0  # atno 17370 bound_to 10713
  156.1046  130.3653  150.0156 LP  0  0  0  0  0  0  0  0  0  0  0  0  # atno 17371 bound_to 10713
  140.5546  134.0594  155.7379 LP  0  0  0  0  0  0  0  0  0  0  0  0  # atno 17394 bound_to 11000
  141.1264  133.9376  157.2627 LP  0  0  0  0  0  0  0  0  0  0  0  0  # atno 17395 bound_to 11000

$$$$
