AV-unprocessed.smi:1055|AV-procd|sdf|4628|dock8
  -GOLD-   22720 3133D 1   1.00000     0.00000
 Structure written by MMmdl.
 51 52  0  0  0  0  0  0  0  0  2 V2000
  145.7038  132.1098  149.5883 C   0  0  0  0  0  0  0  0  0  0  0  0
  145.0791  131.7526  150.7224 C   0  0  0  0  0  0  0  0  0  0  0  0
  145.4724  130.5106  151.5001 C   0  0  0  0  0  0  0  0  0  0  0  0
  143.9503  132.5842  151.3147 C   0  0  0  0  0  0  0  0  0  0  0  0
  144.3734  133.9129  151.7581 N   0  0  0  0  0  0  0  0  0  0  0  0
  143.3602  134.5432  152.6122 C   0  0  0  0  0  0  0  0  0  0  0  0
  143.8558  135.9102  153.1148 C   0  0  0  0  0  0  0  0  0  0  0  0
  144.2005  136.8412  151.9400 C   0  0  0  0  0  0  0  0  0  0  0  0
  144.7964  138.0856  152.4175 N   0  0  0  0  0  0  0  0  0  0  0  0
  145.9616  138.1796  153.0738 C   0  0  0  0  0  0  0  0  0  0  0  0
  146.6607  137.2073  153.3579 O   0  0  0  0  0  0  0  0  0  0  0  0
  146.2446  139.4565  153.3847 N   0  0  0  0  0  0  0  0  0  0  0  0
  147.3950  139.9728  154.0407 C   0  0  0  0  0  0  0  0  0  0  0  0
  148.4327  139.0721  154.3590 C   0  0  0  0  0  0  0  0  0  0  0  0
  149.5867  139.5362  155.0236 C   0  0  0  0  0  0  0  0  0  0  0  0
  149.6944  140.9040  155.3768 C   0  0  0  0  0  0  0  0  0  0  0  0
  150.8151  141.4449  156.0434 N   0  0  0  0  0  0  0  0  0  0  0  0
  150.8491  142.8644  156.3710 C   0  0  0  0  0  0  0  0  0  0  0  0
  151.9416  140.5830  156.3840 C   0  0  0  0  0  0  0  0  0  0  0  0
  148.6656  141.7280  155.0609 N   0  3  0  0  0  0  0  0  0  0  0  0
  147.5445  141.3267  154.4244 C   0  0  0  0  0  0  0  0  0  0  0  0
  145.1754  136.1192  150.9990 C   0  0  0  0  0  0  0  0  0  0  0  0
  144.6216  134.7463  150.5801 C   0  0  0  0  0  0  0  0  0  0  0  0
  146.5094  131.5167  149.1810 H   0  0  0  0  0  0  0  0  0  0  0  0
  145.4185  133.0012  149.0490 H   0  0  0  0  0  0  0  0  0  0  0  0
  145.7706  130.7790  152.5137 H   0  0  0  0  0  0  0  0  0  0  0  0
  146.3071  129.9923  151.0267 H   0  0  0  0  0  0  0  0  0  0  0  0
  144.6354  129.8146  151.5614 H   0  0  0  0  0  0  0  0  0  0  0  0
  143.1791  132.6884  150.5502 H   0  0  0  0  0  0  0  0  0  0  0  0
  143.4974  132.0454  152.1488 H   0  0  0  0  0  0  0  0  0  0  0  0
  142.4256  134.6582  152.0611 H   0  0  0  0  0  0  0  0  0  0  0  0
  143.1451  133.9139  153.4759 H   0  0  0  0  0  0  0  0  0  0  0  0
  143.0912  136.3653  153.7451 H   0  0  0  0  0  0  0  0  0  0  0  0
  144.7327  135.7659  153.7480 H   0  0  0  0  0  0  0  0  0  0  0  0
  143.2892  137.0663  151.3825 H   0  0  0  0  0  0  0  0  0  0  0  0
  144.2847  138.9348  152.2271 H   0  0  0  0  0  0  0  0  0  0  0  0
  145.5344  140.1361  153.1541 H   0  0  0  0  0  0  0  0  0  0  0  0
  148.3515  138.0283  154.0928 H   0  0  0  0  0  0  0  0  0  0  0  0
  150.3713  138.8310  155.2532 H   0  0  0  0  0  0  0  0  0  0  0  0
  150.8008  143.4667  155.4634 H   0  0  0  0  0  0  0  0  0  0  0  0
  151.7665  143.1282  156.8976 H   0  0  0  0  0  0  0  0  0  0  0  0
  150.0093  143.1304  157.0135 H   0  0  0  0  0  0  0  0  0  0  0  0
  152.3629  140.1293  155.4863 H   0  0  0  0  0  0  0  0  0  0  0  0
  151.6246  139.7875  157.0591 H   0  0  0  0  0  0  0  0  0  0  0  0
  152.7358  141.1429  156.8780 H   0  0  0  0  0  0  0  0  0  0  0  0
  146.8139  142.1050  154.2634 H   0  0  0  0  0  0  0  0  0  0  0  0
  145.3595  136.7274  150.1127 H   0  0  0  0  0  0  0  0  0  0  0  0
  146.1412  135.9850  151.4891 H   0  0  0  0  0  0  0  0  0  0  0  0
  145.3439  134.2526  149.9287 H   0  0  0  0  0  0  0  0  0  0  0  0
  143.7025  134.8680  150.0045 H   0  0  0  0  0  0  0  0  0  0  0  0
  148.7398  142.7115  155.3218 H   0  0  0  0  0  0  0  0  0  0  0  0
  1  2  2  0  0  0  0
  1 24  1  0  0  0  0
  1 25  1  0  0  0  0
  2  3  1  0  0  0  0
  2  4  1  0  0  0  0
  3 26  1  0  0  0  0
  3 27  1  0  0  0  0
  3 28  1  0  0  0  0
  4  5  1  0  0  0  0
  4 29  1  0  0  0  0
  4 30  1  0  0  0  0
  5 23  1  0  0  0  0
  5  6  1  0  0  0  0
  6  7  1  0  0  0  0
  6 31  1  0  0  0  0
  6 32  1  0  0  0  0
  7  8  1  0  0  0  0
  7 33  1  0  0  0  0
  7 34  1  0  0  0  0
  8  9  1  0  0  0  0
  8 22  1  0  0  0  0
  8 35  1  0  0  0  0
  9 10  1  0  0  0  0
  9 36  1  0  0  0  0
 10 11  2  0  0  0  0
 10 12  1  0  0  0  0
 12 13  1  0  0  0  0
 12 37  1  0  0  0  0
 13 21  1  0  0  0  0
 13 14  2  0  0  0  0
 14 15  1  0  0  0  0
 14 38  1  0  0  0  0
 15 16  2  0  0  0  0
 15 39  1  0  0  0  0
 16 17  1  0  0  0  0
 16 20  1  0  0  0  0
 17 18  1  0  0  0  0
 17 19  1  0  0  0  0
 18 40  1  0  0  0  0
 18 41  1  0  0  0  0
 18 42  1  0  0  0  0
 19 43  1  0  0  0  0
 19 44  1  0  0  0  0
 19 45  1  0  0  0  0
 20 21  2  0  0  0  0
 20 51  1  0  0  0  0
 21 46  1  0  0  0  0
 22 23  1  0  0  0  0
 22 47  1  0  0  0  0
 22 48  1  0  0  0  0
 23 49  1  0  0  0  0
 23 50  1  0  0  0  0
M  CHG  1  20   1
M  END
> <s_m_source_file>
AV-unprocessed.smi

> <i_m_source_file_index>
1055

> <i_lp_mmshare_version>
43012

> <i_f3d_flags>
0

> <s_epik_input>
W0NIMl09QyhbQ0gzXSlbQ0gyXU4xW0NIMl1bQ0gyXVtDSF0oW0NIMl1bQ0gyXTEpW05IXUMoPU8pW05IXWMyW2NIXVtjSF1jKE4oW0NIM10pW0NIM10pbltjSF0y

> <s_epik_cmdline>
J2VwaWtfcHl0aG9uJywgJy1waCcsICc3LjAnLCAnLXRuJywgJzgnLCAnLW1hJywgJzIwMCcsICctbWV0YWxfYmluZGluZycsICctaW1hZScsICc8aW5maWxlLm1hZT4nLCAnLW9tYWUnLCAnPG91dGZpbGUubWFlPic=

> <r_epik_Ionization_Penalty>
2.2313

> <r_epik_Ionization_Penalty_Charging>
0.252156

> <r_epik_Ionization_Penalty_Neutral>
1.97915

> <r_epik_State_Penalty>
2.37644

> <r_epik_Charging_Adjusted_Penalty>
2.62859

> <i_epik_Tot_Q>
1

> <i_epik_Tot_abs_Q>
1

> <r_epik_Metal_State_Penalty>
2.63815

> <b_epik_Metal_Only>
0

> <s_lp_Force_Field>
OPLS_2005

> <r_lp_Energy>
24.1414

> <b_lp_Chiralities_Consistent>
1

> <s_lp_Variant>
AV-unprocessed.smi:1055-5

> <Gold.Version>
5.8.1

> <Gold.Id.Protein>
6NUR|6NUR_protein|mol2

> <Gold.PLP.Fitness>
50.5026

> <Gold.PLP.PLP>
-38.9090

> <Gold.PLP.part.hbond>
-3.9337

> <Gold.PLP.part.metal>
0.0000

> <Gold.PLP.part.buried>
-1.2453

> <Gold.PLP.part.nonpolar>
-35.4708

> <Gold.PLP.part.repulsive>
1.6795

> <Gold.PLP.ligand.clash>
0.0000

> <Gold.PLP.ligand.torsion>
0.1332

> <Gold.PLP.Chemscore.Hbond>
3.9425

> <Gold.PLP.Chemscore.CHOScore>
0.0000

> <Gold.PLP.Chemscore.Metal>
0.0000

> <Gold.Chemscore.Hbonds>
donor molecule, donor type, donor heavy atom, donor atom, acceptor molecule, acceptor atom, score
      L1  H     9    36       P1 10175  1.00
      L1  H    12    37       P1 10175  0.96
      L1  H    20    51       P1  8028  1.98

> <Gold.PLP.Chemscore.Internal.Correction>
0.0324

> <Gold.Rescore>
     Score         DG    S(hbond)    S(metal)    S(lipo)     H(rot)  DE(clash)    DE(int)     intcor
     17.03     -23.50       2.92        0.00      99.64       1.32       3.74       2.73       ----

> <Gold.Chemscore.Fitness>
17.0306

> <Gold.Chemscore.DG>
-23.5049

> <Gold.Chemscore.ZeroCoef>
-5.4800

> <Gold.Chemscore.Hbond>
2.9204

> <Gold.Chemscore.Metal>
0.0000

> <Gold.Chemscore.Lipo>
99.6405

> <Gold.Chemscore.Internal_Hbond>
0.0000

> <Gold.Chemscore.DEClash>
3.7436

> <Gold.Chemscore.DEInternal>
2.7306

> <Gold.Chemscore.Rot>
1.3231

> <Gold.Chemscore.Internal.Correction>
   9.000000E+99

> <Gold.Chemscore.Hbonds>
donor molecule, donor type, donor heavy atom, donor atom, acceptor molecule, acceptor atom, score
      L1  H     9    36       P1 10175  0.99
      L1  H    12    37       P1 10175  0.88
      L1  H    20    51       P1  8028  0.92

> <Gold.Chemscore.Hbond.Weighted>
-9.7540

> <Gold.Chemscore.Metal.Weighted>
-0.0000

> <Gold.Chemscore.Lipo.Weighted>
-11.6579

> <Gold.Chemscore.Internal_Hbond.Weighted>
0.0000

> <Gold.Chemscore.DEClash.Weighted>
3.7436

> <Gold.Chemscore.DEInternal.Weighted>
2.7306

> <Gold.Chemscore.Rot.Weighted>
3.3871

> <Gold.Chemscore.Internal.Correction.Weighted>
   9.000000E+99

> <Gold.Protein.RotatedTorsions>
[ 6907 6896 6895 6894 ] final  -31.36 input  -60.11 | X-H torsion
[ 7974 7965 7964 7962 ] final -168.12 input  175.53 | X-H torsion
[ 8008 7997 7996 7995 ] final  -97.72 input   59.86 | X-H torsion
[ 10167 10162 10161 10158 ] final -141.23 input  -65.29 | X-H torsion
[ 10718 10713 10712 10709 ] final   34.82 input   66.30 | X-H torsion
[ 10763 10752 10751 10750 ] final  -27.48 input  -60.55 | X-H torsion
[ 11005 11000 10999 10996 ] final -145.41 input  -57.11 | X-H torsion

> <Gold.Protein.ActiveResidues>
 VAL166  LYS551  ARG553  GLY616  TRP617  ASP618  TYR619  PRO620  LYS621  CYS622 
 ASP623  PHE694  ASN695  SER759  ASP760  ASP761  ALA762  ILE779  LEU786  VAL792 
 PHE793  MET794  SER795  GLU796  ALA797  LYS798  CYS799  TRP800  GLU811  SER814 

> <Gold.Protein.RotatedAtoms>
  151.0932  134.9928  159.8412 H   0  0  0  0  0  0  0  0  0  0  0  0  # atno 6907 bound_to 6896
  152.5431  134.2040  159.8733 H   0  0  0  0  0  0  0  0  0  0  0  0  # atno 6908 bound_to 6896
  151.2078  133.4529  159.2631 H   0  0  0  0  0  0  0  0  0  0  0  0  # atno 6909 bound_to 6896
  144.7209  140.2417  143.6290 H   0  0  0  0  0  0  0  0  0  0  0  0  # atno 7974 bound_to 7965
  154.7916  140.0461  157.1205 H   0  0  0  0  0  0  0  0  0  0  0  0  # atno 8008 bound_to 7997
  154.9585  140.3074  155.5022 H   0  0  0  0  0  0  0  0  0  0  0  0  # atno 8009 bound_to 7997
  156.2950  140.2275  156.4668 H   0  0  0  0  0  0  0  0  0  0  0  0  # atno 8010 bound_to 7997
  139.8205  143.7580  152.2666 H   0  0  0  0  0  0  0  0  0  0  0  0  # atno 10167 bound_to 10162
  157.3151  130.7419  149.6749 H   0  0  0  0  0  0  0  0  0  0  0  0  # atno 10718 bound_to 10713
  153.7329  135.6937  153.4985 H   0  0  0  0  0  0  0  0  0  0  0  0  # atno 10763 bound_to 10752
  153.2123  135.4398  155.0393 H   0  0  0  0  0  0  0  0  0  0  0  0  # atno 10764 bound_to 10752
  154.8247  135.3440  154.6857 H   0  0  0  0  0  0  0  0  0  0  0  0  # atno 10765 bound_to 10752
  140.7925  134.2952  157.5008 H   0  0  0  0  0  0  0  0  0  0  0  0  # atno 11005 bound_to 11000
  145.8313  139.2087  143.1881 LP  0  0  0  0  0  0  0  0  0  0  0  0  # atno 17320 bound_to 7965
  146.0428  140.8148  142.9820 LP  0  0  0  0  0  0  0  0  0  0  0  0  # atno 17321 bound_to 7965
  139.7757  144.7461  151.0160 LP  0  0  0  0  0  0  0  0  0  0  0  0  # atno 17342 bound_to 10162
  140.7813  143.4596  151.0296 LP  0  0  0  0  0  0  0  0  0  0  0  0  # atno 17343 bound_to 10162
  155.9681  130.4239  150.4586 LP  0  0  0  0  0  0  0  0  0  0  0  0  # atno 17370 bound_to 10713
  157.2592  131.0563  151.2331 LP  0  0  0  0  0  0  0  0  0  0  0  0  # atno 17371 bound_to 10713
  139.8729  134.9383  156.3710 LP  0  0  0  0  0  0  0  0  0  0  0  0  # atno 17394 bound_to 11000
  140.9375  133.7537  156.0104 LP  0  0  0  0  0  0  0  0  0  0  0  0  # atno 17395 bound_to 11000

$$$$
