AV-unprocessed.smi:2294|AV-procd|sdf|9217|dock6
  -GOLD-   2272012433D 1   1.00000     0.00000
 Structure written by MMmdl.
 34 35  0  0  0  0  0  0  0  0  1 V2000
  152.4662  143.6714  161.1210 C   0  0  0  0  0  0  0  0  0  0  0  0
  152.1303  142.6713  160.0292 C   0  0  0  0  0  0  0  0  0  0  0  0
  150.8801  142.8339  159.4251 N   0  0  0  0  0  0  0  0  0  0  0  0
  150.5059  142.0238  158.4894 C   0  0  0  0  0  0  0  0  0  0  0  0
  151.3286  140.9738  158.0502 N   0  0  0  0  0  0  0  0  0  0  0  0
  150.7802  140.1163  156.9856 C   0  0  0  0  0  0  0  0  0  0  0  0
  150.8441  140.7938  155.5986 C   0  0  1  0  0  0  0  0  0  0  0  0
  151.9607  140.2811  154.8970 O   0  0  0  0  0  0  0  0  0  0  0  0
  149.5493  140.5749  154.8261 C   0  0  0  0  0  0  0  0  0  0  0  0
  148.7038  141.6658  154.5212 C   0  0  0  0  0  0  0  0  0  0  0  0
  147.5102  141.4634  153.8020 C   0  0  0  0  0  0  0  0  0  0  0  0
  147.1549  140.1694  153.3774 C   0  0  0  0  0  0  0  0  0  0  0  0
  147.9961  139.0791  153.6695 C   0  0  0  0  0  0  0  0  0  0  0  0
  149.1905  139.2791  154.3890 C   0  0  0  0  0  0  0  0  0  0  0  0
  149.9901  138.2181  154.6542 F   0  0  0  0  0  0  0  0  0  0  0  0
  152.5627  140.7444  158.5854 C   0  0  0  0  0  0  0  0  0  0  0  0
  153.2738  139.8157  158.1967 O   0  0  0  0  0  0  0  0  0  0  0  0
  152.9738  141.6723  159.6512 C   0  0  0  0  0  0  0  0  0  0  0  0
  154.3448  141.4437  160.2757 C   0  0  0  0  0  0  0  0  0  0  0  0
  153.3730  144.2224  160.8698 H   0  0  0  0  0  0  0  0  0  0  0  0
  152.6196  143.1601  162.0718 H   0  0  0  0  0  0  0  0  0  0  0  0
  151.6624  144.3961  161.2574 H   0  0  0  0  0  0  0  0  0  0  0  0
  149.5376  142.1020  157.9922 H   0  0  0  0  0  0  0  0  0  0  0  0
  151.2543  139.1330  156.9549 H   0  0  0  0  0  0  0  0  0  0  0  0
  149.7381  139.9027  157.2321 H   0  0  0  0  0  0  0  0  0  0  0  0
  151.0027  141.8667  155.7100 H   0  0  0  0  0  0  0  0  0  0  0  0
  152.4079  139.6648  155.4569 H   0  0  0  0  0  0  0  0  0  0  0  0
  148.9681  142.6646  154.8364 H   0  0  0  0  0  0  0  0  0  0  0  0
  146.8678  142.3015  153.5751 H   0  0  0  0  0  0  0  0  0  0  0  0
  146.2396  140.0134  152.8254 H   0  0  0  0  0  0  0  0  0  0  0  0
  147.7258  138.0867  153.3396 H   0  0  0  0  0  0  0  0  0  0  0  0
  154.3951  140.4470  160.7155 H   0  0  0  0  0  0  0  0  0  0  0  0
  154.5847  142.1596  161.0603 H   0  0  0  0  0  0  0  0  0  0  0  0
  155.1220  141.5180  159.5143 H   0  0  0  0  0  0  0  0  0  0  0  0
  1  2  1  0  0  0  0
  1 20  1  0  0  0  0
  1 21  1  0  0  0  0
  1 22  1  0  0  0  0
  2 18  2  0  0  0  0
  2  3  1  0  0  0  0
  3  4  2  0  0  0  0
  4  5  1  0  0  0  0
  4 23  1  0  0  0  0
  5  6  1  0  0  0  0
  5 16  1  0  0  0  0
  6  7  1  0  0  0  0
  6 24  1  0  0  0  0
  6 25  1  0  0  0  0
  7  8  1  0  0  0  0
  7  9  1  0  0  0  0
  7 26  1  0  0  0  0
  8 27  1  0  0  0  0
  9 14  1  0  0  0  0
  9 10  2  0  0  0  0
 10 11  1  0  0  0  0
 10 28  1  0  0  0  0
 11 12  2  0  0  0  0
 11 29  1  0  0  0  0
 12 13  1  0  0  0  0
 12 30  1  0  0  0  0
 13 14  2  0  0  0  0
 13 31  1  0  0  0  0
 14 15  1  0  0  0  0
 16 17  2  0  0  0  0
 16 18  1  0  0  0  0
 18 19  1  0  0  0  0
 19 32  1  0  0  0  0
 19 33  1  0  0  0  0
 19 34  1  0  0  0  0
M  END
> <s_m_source_file>
AV-unprocessed.smi

> <i_m_source_file_index>
2294

> <i_lp_mmshare_version>
43012

> <i_f3d_flags>
0

> <s_epik_input>
W0NIM11jMW5bY0hdbihjKD1PKWMxW0NIM10pW0NIMl1bQ0BIXShbT0hdKWMyW2NIXVtjSF1bY0hdW2NIXWMyRg==

> <s_epik_cmdline>
J2VwaWtfcHl0aG9uJywgJy1waCcsICc3LjAnLCAnLXRuJywgJzgnLCAnLW1hJywgJzIwMCcsICctbWV0YWxfYmluZGluZycsICctaW1hZScsICc8aW5maWxlLm1hZT4nLCAnLW9tYWUnLCAnPG91dGZpbGUubWFlPic=

> <r_lp_tautomer_probability>
1

> <r_epik_Ionization_Penalty>
5.07259e-05

> <r_epik_Ionization_Penalty_Charging>
7.56727e-08

> <r_epik_Ionization_Penalty_Neutral>
5.06502e-05

> <r_epik_State_Penalty>
-0

> <r_epik_Charging_Adjusted_Penalty>
7.56727e-08

> <i_epik_Tot_Q>
0

> <i_epik_Tot_abs_Q>
0

> <r_epik_Metal_State_Penalty>
-0

> <b_epik_Metal_Only>
0

> <s_lp_Force_Field>
OPLS_2005

> <r_lp_Energy>
19.7062

> <b_lp_Chiralities_Consistent>
1

> <s_lp_Variant>
AV-unprocessed.smi:2294-2

> <Gold.Version>
5.8.1

> <Gold.Id.Protein>
6NUR|6NUR_protein|mol2

> <Gold.PLP.Fitness>
46.4154

> <Gold.PLP.PLP>
-42.7871

> <Gold.PLP.part.hbond>
-2.3140

> <Gold.PLP.part.metal>
0.0000

> <Gold.PLP.part.buried>
-2.9449

> <Gold.PLP.part.nonpolar>
-36.3300

> <Gold.PLP.part.repulsive>
0.0249

> <Gold.PLP.ligand.clash>
0.0000

> <Gold.PLP.ligand.torsion>
0.8751

> <Gold.PLP.Chemscore.Hbond>
1.7904

> <Gold.PLP.Chemscore.CHOScore>
0.0000

> <Gold.PLP.Chemscore.Metal>
0.0000

> <Gold.Chemscore.Hbonds>
donor molecule, donor type, donor heavy atom, donor atom, acceptor molecule, acceptor atom, score
      P1  H  7989  7998       L1     8  0.73
      P1  H  7997  8010       L1    17  1.00

> <Gold.PLP.Chemscore.Internal.Correction>
0.0074

> <Gold.Rescore>
     Score         DG    S(hbond)    S(metal)    S(lipo)     H(rot)  DE(clash)    DE(int)     intcor
     14.19     -16.33       1.68        0.00      88.95       2.02       0.00       2.14       ----

> <Gold.Chemscore.Fitness>
14.1866

> <Gold.Chemscore.DG>
-16.3273

> <Gold.Chemscore.ZeroCoef>
-5.4800

> <Gold.Chemscore.Hbond>
1.6786

> <Gold.Chemscore.Metal>
0.0000

> <Gold.Chemscore.Lipo>
88.9497

> <Gold.Chemscore.Internal_Hbond>
0.0000

> <Gold.Chemscore.DEClash>
0.0019

> <Gold.Chemscore.DEInternal>
2.1387

> <Gold.Chemscore.Rot>
2.0181

> <Gold.Chemscore.Internal.Correction>
   9.000000E+99

> <Gold.Chemscore.Hbonds>
donor molecule, donor type, donor heavy atom, donor atom, acceptor molecule, acceptor atom, score
      P1  H  7989  7998       L1     8  0.16
      P1  H  7997  8010       L1    17  0.92

> <Gold.Chemscore.Hbond.Weighted>
-5.6065

> <Gold.Chemscore.Metal.Weighted>
-0.0000

> <Gold.Chemscore.Lipo.Weighted>
-10.4071

> <Gold.Chemscore.Internal_Hbond.Weighted>
0.0000

> <Gold.Chemscore.DEClash.Weighted>
0.0019

> <Gold.Chemscore.DEInternal.Weighted>
2.1387

> <Gold.Chemscore.Rot.Weighted>
5.1663

> <Gold.Chemscore.Internal.Correction.Weighted>
   9.000000E+99

> <Gold.Protein.RotatedTorsions>
[ 6907 6896 6895 6894 ] final  -33.34 input  -60.11 | X-H torsion
[ 7974 7965 7964 7962 ] final  -74.02 input  175.53 | X-H torsion
[ 8008 7997 7996 7995 ] final   49.41 input   59.86 | X-H torsion
[ 10167 10162 10161 10158 ] final  146.78 input  -65.29 | X-H torsion
[ 10718 10713 10712 10709 ] final  -16.51 input   66.30 | X-H torsion
[ 10763 10752 10751 10750 ] final -114.21 input  -60.55 | X-H torsion
[ 11005 11000 10999 10996 ] final  133.53 input  -57.11 | X-H torsion

> <Gold.Protein.ActiveResidues>
 VAL166  LYS551  ARG553  GLY616  TRP617  ASP618  TYR619  PRO620  LYS621  CYS622 
 ASP623  PHE694  ASN695  SER759  ASP760  ASP761  ALA762  ILE779  LEU786  VAL792 
 PHE793  MET794  SER795  GLU796  ALA797  LYS798  CYS799  TRP800  GLU811  SER814 

> <Gold.Protein.RotatedAtoms>
  151.0669  134.9773  159.8288 H   0  0  0  0  0  0  0  0  0  0  0  0  # atno 6907 bound_to 6896
  152.5403  134.2347  159.8849 H   0  0  0  0  0  0  0  0  0  0  0  0  # atno 6908 bound_to 6896
  151.2370  133.4376  159.2639 H   0  0  0  0  0  0  0  0  0  0  0  0  # atno 6909 bound_to 6896
  145.6446  140.9301  143.1017 H   0  0  0  0  0  0  0  0  0  0  0  0  # atno 7974 bound_to 7965
  155.4018  140.3438  155.4257 H   0  0  0  0  0  0  0  0  0  0  0  0  # atno 8008 bound_to 7997
  156.1499  140.1568  156.8818 H   0  0  0  0  0  0  0  0  0  0  0  0  # atno 8009 bound_to 7997
  154.5043  140.0806  156.7844 H   0  0  0  0  0  0  0  0  0  0  0  0  # atno 8010 bound_to 7997
  139.4901  144.5804  151.6883 H   0  0  0  0  0  0  0  0  0  0  0  0  # atno 10167 bound_to 10162
  156.5866  130.4788  149.6297 H   0  0  0  0  0  0  0  0  0  0  0  0  # atno 10718 bound_to 10713
  154.8430  135.4426  154.1470 H   0  0  0  0  0  0  0  0  0  0  0  0  # atno 10763 bound_to 10752
  153.2640  135.6939  153.7555 H   0  0  0  0  0  0  0  0  0  0  0  0  # atno 10764 bound_to 10752
  153.6820  135.3401  155.3156 H   0  0  0  0  0  0  0  0  0  0  0  0  # atno 10765 bound_to 10752
  139.9857  134.9533  156.9737 H   0  0  0  0  0  0  0  0  0  0  0  0  # atno 11005 bound_to 11000
  144.7145  139.8248  143.7403 LP  0  0  0  0  0  0  0  0  0  0  0  0  # atno 17320 bound_to 7965
  146.1253  139.4278  143.0202 LP  0  0  0  0  0  0  0  0  0  0  0  0  # atno 17321 bound_to 7965
  140.5409  144.0581  150.6088 LP  0  0  0  0  0  0  0  0  0  0  0  0  # atno 17342 bound_to 10162
  140.3603  143.2912  152.0391 LP  0  0  0  0  0  0  0  0  0  0  0  0  # atno 17343 bound_to 10162
  156.2585  130.6949  151.1710 LP  0  0  0  0  0  0  0  0  0  0  0  0  # atno 17370 bound_to 10713
  157.7314  131.0609  150.5681 LP  0  0  0  0  0  0  0  0  0  0  0  0  # atno 17371 bound_to 10713
  140.5007  134.1100  155.7250 LP  0  0  0  0  0  0  0  0  0  0  0  0  # atno 17394 bound_to 11000
  141.1522  133.8947  157.2068 LP  0  0  0  0  0  0  0  0  0  0  0  0  # atno 17395 bound_to 11000

$$$$
