AV-unprocessed.smi:1447|AV-procd|sdf|5891|dock9
  -GOLD-   22720 5573D 1   1.00000     0.00000
 Structure written by MMmdl.
 48 50  0  0  0  0  0  0  0  0  2 V2000
  153.7092  140.3836  159.7553 C   0  0  0  0  0  0  0  0  0  0  0  0
  153.9565  139.5310  158.6517 O   0  0  0  0  0  0  0  0  0  0  0  0
  152.7739  138.9294  158.1512 C   0  0  0  0  0  0  0  0  0  0  0  0
  153.1325  137.8611  157.1050 C   0  0  0  0  0  0  0  0  0  0  0  0
  152.0260  137.6160  156.1728 N   0  0  0  0  0  0  0  0  0  0  0  0
  151.3803  136.4073  156.3749 N   0  0  0  0  0  0  0  0  0  0  0  0
  150.3789  136.0715  155.6275 C   0  0  0  0  0  0  0  0  0  0  0  0
  149.6601  134.7806  155.8133 C   0  0  0  0  0  0  0  0  0  0  0  0
  149.3748  134.3484  156.9313 O   0  0  0  0  0  0  0  0  0  0  0  0
  149.3453  134.1283  154.6792 N   0  0  0  0  0  0  0  0  0  0  0  0
  148.6483  132.8483  154.6081 C   0  0  2  0  0  0  0  0  0  0  0  0
  149.6438  131.7327  154.2496 C   0  0  0  0  0  0  0  0  0  0  0  0
  148.9276  130.3828  154.0753 C   0  0  0  0  0  0  0  0  0  0  0  0
  147.8538  130.4757  153.0552 N   0  3  1  0  0  0  0  0  0  0  0  0
  147.2254  129.1636  152.7884 C   0  0  0  0  0  0  0  0  0  0  0  0
  147.8543  128.4128  151.6379 C   0  0  0  0  0  0  0  0  0  0  0  0
  146.5129  129.0881  151.4581 C   0  0  0  0  0  0  0  0  0  0  0  0
  146.8540  131.5156  153.4031 C   0  0  0  0  0  0  0  0  0  0  0  0
  147.5208  132.8923  153.5591 C   0  0  0  0  0  0  0  0  0  0  0  0
  149.9138  136.9495  154.5677 C   0  0  0  0  0  0  0  0  0  0  0  0
  150.5529  138.1253  154.3827 C   0  0  0  0  0  0  0  0  0  0  0  0
  151.6881  138.5300  155.2135 C   0  0  0  0  0  0  0  0  0  0  0  0
  152.2837  139.5961  155.0625 O   0  0  0  0  0  0  0  0  0  0  0  0
  154.6483  140.8132  160.1037 H   0  0  0  0  0  0  0  0  0  0  0  0
  153.2617  139.8356  160.5855 H   0  0  0  0  0  0  0  0  0  0  0  0
  153.0459  141.2038  159.4780 H   0  0  0  0  0  0  0  0  0  0  0  0
  152.2332  138.4605  158.9749 H   0  0  0  0  0  0  0  0  0  0  0  0
  152.1134  139.6825  157.7178 H   0  0  0  0  0  0  0  0  0  0  0  0
  154.0474  138.1385  156.5791 H   0  0  0  0  0  0  0  0  0  0  0  0
  153.3725  136.9292  157.6199 H   0  0  0  0  0  0  0  0  0  0  0  0
  149.6165  134.5525  153.8034 H   0  0  0  0  0  0  0  0  0  0  0  0
  148.2187  132.6235  155.5862 H   0  0  0  0  0  0  0  0  0  0  0  0
  150.1689  131.9845  153.3268 H   0  0  0  0  0  0  0  0  0  0  0  0
  150.4054  131.6475  155.0257 H   0  0  0  0  0  0  0  0  0  0  0  0
  149.6510  129.6236  153.7761 H   0  0  0  0  0  0  0  0  0  0  0  0
  148.5017  130.0569  155.0257 H   0  0  0  0  0  0  0  0  0  0  0  0
  146.8389  128.6269  153.6533 H   0  0  0  0  0  0  0  0  0  0  0  0
  148.7111  128.8593  151.1361 H   0  0  0  0  0  0  0  0  0  0  0  0
  147.8625  127.3260  151.6925 H   0  0  0  0  0  0  0  0  0  0  0  0
  145.6366  128.4461  151.3942 H   0  0  0  0  0  0  0  0  0  0  0  0
  146.4811  129.9811  150.8364 H   0  0  0  0  0  0  0  0  0  0  0  0
  146.0925  131.5671  152.6240 H   0  0  0  0  0  0  0  0  0  0  0  0
  146.3435  131.2384  154.3269 H   0  0  0  0  0  0  0  0  0  0  0  0
  146.7692  133.6307  153.8409 H   0  0  0  0  0  0  0  0  0  0  0  0
  147.9211  133.2122  152.5959 H   0  0  0  0  0  0  0  0  0  0  0  0
  149.0792  136.6764  153.9384 H   0  0  0  0  0  0  0  0  0  0  0  0
  150.2175  138.7879  153.5984 H   0  0  0  0  0  0  0  0  0  0  0  0
  148.2920  130.7680  152.1935 H   0  0  0  0  0  0  0  0  0  0  0  0
  1  2  1  0  0  0  0
  1 24  1  0  0  0  0
  1 25  1  0  0  0  0
  1 26  1  0  0  0  0
  2  3  1  0  0  0  0
  3  4  1  0  0  0  0
  3 27  1  0  0  0  0
  3 28  1  0  0  0  0
  4  5  1  0  0  0  0
  4 29  1  0  0  0  0
  4 30  1  0  0  0  0
  5 22  1  0  0  0  0
  5  6  1  0  0  0  0
  6  7  2  0  0  0  0
  7  8  1  0  0  0  0
  7 20  1  0  0  0  0
  8  9  2  0  0  0  0
  8 10  1  0  0  0  0
 10 11  1  0  0  0  0
 10 31  1  0  0  0  0
 11 19  1  0  0  0  0
 11 12  1  0  0  0  0
 11 32  1  0  0  0  0
 12 13  1  0  0  0  0
 12 33  1  0  0  0  0
 12 34  1  0  0  0  0
 13 14  1  0  0  0  0
 13 35  1  0  0  0  0
 13 36  1  0  0  0  0
 14 15  1  0  0  0  0
 14 18  1  0  0  0  0
 14 48  1  0  0  0  0
 15 17  1  0  0  0  0
 15 16  1  0  0  0  0
 15 37  1  0  0  0  0
 16 17  1  0  0  0  0
 16 38  1  0  0  0  0
 16 39  1  0  0  0  0
 17 40  1  0  0  0  0
 17 41  1  0  0  0  0
 18 19  1  0  0  0  0
 18 42  1  0  0  0  0
 18 43  1  0  0  0  0
 19 44  1  0  0  0  0
 19 45  1  0  0  0  0
 20 21  2  0  0  0  0
 20 46  1  0  0  0  0
 21 22  1  0  0  0  0
 21 47  1  0  0  0  0
 22 23  2  0  0  0  0
M  CHG  1  14   1
M  END
> <s_m_source_file>
AV-unprocessed.smi

> <i_m_source_file_index>
1447

> <i_lp_mmshare_version>
43012

> <i_f3d_flags>
0

> <s_epik_input>
W0NIM11PW0NIMl1bQ0gyXW4xbmMoW2NIXVtjSF1jMT1PKUMoPU8pW05IXVtDSF0yW0NIMl1bQ0gyXU4oW0NIMl1bQ0gyXTIpW0NIXTNbQ0gyXVtDSDJdMw==

> <s_epik_cmdline>
J2VwaWtfcHl0aG9uJywgJy1waCcsICc3LjAnLCAnLXRuJywgJzgnLCAnLW1hJywgJzIwMCcsICctbWV0YWxfYmluZGluZycsICctaW1hZScsICc8aW5maWxlLm1hZT4nLCAnLW9tYWUnLCAnPG91dGZpbGUubWFlPic=

> <r_lp_tautomer_probability>
1

> <r_epik_Ionization_Penalty>
0.168623

> <r_epik_Ionization_Penalty_Charging>
0.16862

> <r_epik_Ionization_Penalty_Neutral>
2.93027e-06

> <r_epik_State_Penalty>
0.157986

> <r_epik_Charging_Adjusted_Penalty>
0.326605

> <i_epik_Tot_Q>
1

> <i_epik_Tot_abs_Q>
1

> <r_epik_Metal_State_Penalty>
0.157986

> <b_epik_Metal_Only>
0

> <s_lp_Force_Field>
OPLS_2005

> <r_lp_Energy>
46.6346

> <b_lp_Chiralities_Consistent>
1

> <s_lp_Variant>
AV-unprocessed.smi:1447-1

> <Gold.Version>
5.8.1

> <Gold.Id.Protein>
6NUR|6NUR_protein|mol2

> <Gold.PLP.Fitness>
41.0358

> <Gold.PLP.PLP>
-35.0443

> <Gold.PLP.part.hbond>
-3.0000

> <Gold.PLP.part.metal>
0.0000

> <Gold.PLP.part.buried>
-0.5996

> <Gold.PLP.part.nonpolar>
-30.3905

> <Gold.PLP.part.repulsive>
0.0624

> <Gold.PLP.ligand.clash>
0.0000

> <Gold.PLP.ligand.torsion>
1.7874

> <Gold.PLP.Chemscore.Hbond>
2.7533

> <Gold.PLP.Chemscore.CHOScore>
0.0000

> <Gold.PLP.Chemscore.Metal>
0.0000

> <Gold.Chemscore.Hbonds>
donor molecule, donor type, donor heavy atom, donor atom, acceptor molecule, acceptor atom, score
      L1  H    14    48       P1 10747  1.00
      P1  H  7989  7998       L1    23  0.64
      P1  H  7997  8010       L1     2  1.00
      P1  H 10752 10763       L1     6  0.02

> <Gold.PLP.Chemscore.Internal.Correction>
1.3064

> <Gold.Rescore>
     Score         DG    S(hbond)    S(metal)    S(lipo)     H(rot)  DE(clash)    DE(int)     intcor
     17.33     -21.03       2.84        0.00      90.26       1.76       1.99       1.71       ----

> <Gold.Chemscore.Fitness>
17.3318

> <Gold.Chemscore.DG>
-21.0302

> <Gold.Chemscore.ZeroCoef>
-5.4800

> <Gold.Chemscore.Hbond>
2.8434

> <Gold.Chemscore.Metal>
0.0000

> <Gold.Chemscore.Lipo>
90.2639

> <Gold.Chemscore.Internal_Hbond>
0.0000

> <Gold.Chemscore.DEClash>
1.9850

> <Gold.Chemscore.DEInternal>
1.7134

> <Gold.Chemscore.Rot>
1.7608

> <Gold.Chemscore.Internal.Correction>
   9.000000E+99

> <Gold.Chemscore.Hbonds>
donor molecule, donor type, donor heavy atom, donor atom, acceptor molecule, acceptor atom, score
      L1  H    14    48       P1 10747  0.92
      P1  H  7989  7998       L1    23  0.60
      P1  H  7997  8010       L1     2  0.30

> <Gold.Chemscore.Hbond.Weighted>
-9.4971

> <Gold.Chemscore.Metal.Weighted>
-0.0000

> <Gold.Chemscore.Lipo.Weighted>
-10.5609

> <Gold.Chemscore.Internal_Hbond.Weighted>
0.0000

> <Gold.Chemscore.DEClash.Weighted>
1.9850

> <Gold.Chemscore.DEInternal.Weighted>
1.7134

> <Gold.Chemscore.Rot.Weighted>
4.5077

> <Gold.Chemscore.Internal.Correction.Weighted>
   9.000000E+99

> <Gold.Protein.RotatedTorsions>
[ 6907 6896 6895 6894 ] final  119.44 input  -60.11 | X-H torsion
[ 7974 7965 7964 7962 ] final -150.80 input  175.53 | X-H torsion
[ 8008 7997 7996 7995 ] final   24.86 input   59.86 | X-H torsion
[ 10167 10162 10161 10158 ] final  126.48 input  -65.29 | X-H torsion
[ 10718 10713 10712 10709 ] final   65.38 input   66.30 | X-H torsion
[ 10763 10752 10751 10750 ] final   85.96 input  -60.55 | X-H torsion
[ 11005 11000 10999 10996 ] final   72.57 input  -57.11 | X-H torsion

> <Gold.Protein.ActiveResidues>
 VAL166  LYS551  ARG553  GLY616  TRP617  ASP618  TYR619  PRO620  LYS621  CYS622 
 ASP623  PHE694  ASN695  SER759  ASP760  ASP761  ALA762  ILE779  LEU786  VAL792 
 PHE793  MET794  SER795  GLU796  ALA797  LYS798  CYS799  TRP800  GLU811  SER814 

> <Gold.Protein.RotatedAtoms>
  152.4472  133.7559  159.6719 H   0  0  0  0  0  0  0  0  0  0  0  0  # atno 6907 bound_to 6896
  150.8374  133.7980  159.3080 H   0  0  0  0  0  0  0  0  0  0  0  0  # atno 6908 bound_to 6896
  151.5615  135.1068  160.0025 H   0  0  0  0  0  0  0  0  0  0  0  0  # atno 6909 bound_to 6896
  144.7887  140.4884  143.5788 H   0  0  0  0  0  0  0  0  0  0  0  0  # atno 7974 bound_to 7965
  155.0028  140.3127  155.4860 H   0  0  0  0  0  0  0  0  0  0  0  0  # atno 8008 bound_to 7997
  156.2922  140.2229  156.5080 H   0  0  0  0  0  0  0  0  0  0  0  0  # atno 8009 bound_to 7997
  154.7603  140.0459  157.0956 H   0  0  0  0  0  0  0  0  0  0  0  0  # atno 8010 bound_to 7997
  139.5629  144.6893  151.3992 H   0  0  0  0  0  0  0  0  0  0  0  0  # atno 10167 bound_to 10162
  157.6102  130.9211  149.9969 H   0  0  0  0  0  0  0  0  0  0  0  0  # atno 10718 bound_to 10713
  153.1525  135.4598  154.9657 H   0  0  0  0  0  0  0  0  0  0  0  0  # atno 10763 bound_to 10752
  154.7836  135.3196  154.7939 H   0  0  0  0  0  0  0  0  0  0  0  0  # atno 10764 bound_to 10752
  153.8442  135.6927  153.4854 H   0  0  0  0  0  0  0  0  0  0  0  0  # atno 10765 bound_to 10752
  139.9484  134.7271  156.0922 H   0  0  0  0  0  0  0  0  0  0  0  0  # atno 11005 bound_to 11000
  145.5853  139.1491  143.3212 LP  0  0  0  0  0  0  0  0  0  0  0  0  # atno 17320 bound_to 7965
  146.2130  140.5981  142.9051 LP  0  0  0  0  0  0  0  0  0  0  0  0  # atno 17321 bound_to 7965
  140.6910  143.7860  150.7256 LP  0  0  0  0  0  0  0  0  0  0  0  0  # atno 17342 bound_to 10162
  140.1343  143.4498  152.2234 LP  0  0  0  0  0  0  0  0  0  0  0  0  # atno 17343 bound_to 10162
  156.1202  130.3646  149.9901 LP  0  0  0  0  0  0  0  0  0  0  0  0  # atno 17370 bound_to 10713
  156.7982  130.9281  151.3646 LP  0  0  0  0  0  0  0  0  0  0  0  0  # atno 17371 bound_to 10713
  141.1141  133.6633  156.3050 LP  0  0  0  0  0  0  0  0  0  0  0  0  # atno 17394 bound_to 11000
  140.5778  134.5776  157.5472 LP  0  0  0  0  0  0  0  0  0  0  0  0  # atno 17395 bound_to 11000

$$$$
