AV-unprocessed.smi:35|AV-procd|sdf|250|dock8
  -GOLD-   2262016 13D 1   1.00000     0.00000
 Structure written by MMmdl.
 29 30  0  0  0  0  0  0  0  0  1 V2000
  151.5073  137.1616  159.6762 O   0  0  0  0  0  0  0  0  0  0  0  0
  151.1454  137.6835  158.6240 C   0  0  0  0  0  0  0  0  0  0  0  0
  152.0900  138.1800  157.7209 N   0  0  0  0  0  0  0  0  0  0  0  0
  151.8004  138.7883  156.4979 C   0  0  0  0  0  0  0  0  0  0  0  0
  152.7126  139.2050  155.7851 O   0  0  0  0  0  0  0  0  0  0  0  0
  150.4392  138.9041  156.1392 N   0  0  0  0  0  0  0  0  0  0  0  0
  150.0925  139.5619  154.8175 C   0  0  1  0  0  0  0  0  0  0  0  0
  148.9418  138.9643  154.2889 O   0  0  0  0  0  0  0  0  0  0  0  0
  147.8797  139.9108  154.2590 C   0  0  2  0  0  0  0  0  0  0  0  0
  146.8237  139.5133  153.2123 C   0  0  0  0  0  0  0  0  0  0  0  0
  147.4089  138.9712  152.0464 O   0  0  0  0  0  0  0  0  0  0  0  0
  148.5880  141.2521  154.0652 C   0  0  1  0  0  0  0  0  0  0  0  0
  147.7857  142.3655  154.4128 O   0  0  0  0  0  0  0  0  0  0  0  0
  149.8190  141.0818  154.9498 C   0  0  1  0  0  0  0  0  0  0  0  0
  149.5805  141.4967  156.2873 O   0  0  0  0  0  0  0  0  0  0  0  0
  149.4636  138.4358  157.0112 C   0  0  0  0  0  0  0  0  0  0  0  0
  149.7612  137.8516  158.1956 C   0  0  0  0  0  0  0  0  0  0  0  0
  148.2271  137.2544  159.2975 Br  0  0  0  0  0  0  0  0  0  0  0  0
  153.0630  138.0943  157.9764 H   0  0  0  0  0  0  0  0  0  0  0  0
  150.9129  139.3291  154.1358 H   0  0  0  0  0  0  0  0  0  0  0  0
  147.4109  139.8946  155.2445 H   0  0  0  0  0  0  0  0  0  0  0  0
  146.1166  138.7987  153.6343 H   0  0  0  0  0  0  0  0  0  0  0  0
  146.2507  140.3926  152.9179 H   0  0  0  0  0  0  0  0  0  0  0  0
  148.2322  139.4089  151.8915 H   0  0  0  0  0  0  0  0  0  0  0  0
  148.9170  141.3640  153.0318 H   0  0  0  0  0  0  0  0  0  0  0  0
  148.3503  143.0570  154.7225 H   0  0  0  0  0  0  0  0  0  0  0  0
  150.6716  141.6421  154.5646 H   0  0  0  0  0  0  0  0  0  0  0  0
  148.6823  141.7823  156.3544 H   0  0  0  0  0  0  0  0  0  0  0  0
  148.4204  138.5368  156.7549 H   0  0  0  0  0  0  0  0  0  0  0  0
  1  2  2  0  0  0  0
  2 17  1  0  0  0  0
  2  3  1  0  0  0  0
  3 19  1  0  0  0  0
  3  4  1  0  0  0  0
  4  5  2  0  0  0  0
  4  6  1  0  0  0  0
  6  7  1  0  0  0  0
  6 16  1  0  0  0  0
  7 14  1  0  0  0  0
  7  8  1  0  0  0  0
  7 20  1  0  0  0  0
  8  9  1  0  0  0  0
  9 10  1  0  0  0  0
  9 12  1  0  0  0  0
  9 21  1  0  0  0  0
 10 11  1  0  0  0  0
 10 22  1  0  0  0  0
 10 23  1  0  0  0  0
 11 24  1  0  0  0  0
 12 13  1  0  0  0  0
 12 14  1  0  0  0  0
 12 25  1  0  0  0  0
 13 26  1  0  0  0  0
 14 15  1  0  0  0  0
 14 27  1  0  0  0  0
 15 28  1  0  0  0  0
 16 17  2  0  0  0  0
 16 29  1  0  0  0  0
 17 18  1  0  0  0  0
M  END
> <s_m_source_file>
AV-unprocessed.smi

> <i_m_source_file_index>
35

> <i_lp_mmshare_version>
43012

> <i_f3d_flags>
0

> <s_epik_input>
Tz1jMVtuSF1jKD1PKW4oW2NIXWMxQnIpW0NAQEhdMk9bQ0BASF0oW0NIMl1bT0hdKVtDQEBIXShbT0hdKVtDQEhdMltPSF0=

> <s_epik_cmdline>
J2VwaWtfcHl0aG9uJywgJy1waCcsICc3LjAnLCAnLXRuJywgJzgnLCAnLW1hJywgJzIwMCcsICctbWV0YWxfYmluZGluZycsICctaW1hZScsICc8aW5maWxlLm1hZT4nLCAnLW9tYWUnLCAnPG91dGZpbGUubWFlPic=

> <r_lp_tautomer_probability>
0.999537

> <r_epik_Ionization_Penalty>
0.10812

> <r_epik_Ionization_Penalty_Charging>
0.108119

> <r_epik_Ionization_Penalty_Neutral>
4.93006e-07

> <r_epik_State_Penalty>
0.0979238

> <r_epik_Charging_Adjusted_Penalty>
0.206043

> <i_epik_Tot_Q>
0

> <i_epik_Tot_abs_Q>
0

> <r_epik_Metal_State_Penalty>
3.07911

> <b_epik_Metal_Only>
0

> <s_epik_Chemistry_Notes>
This compound contains an acetal/aminal-like group ( X-CH(R)-Y where X, Y are N, S, or O) that may be acid/base labile, releasing an aldehyde.

> <s_lp_Force_Field>
OPLS_2005

> <r_lp_Energy>
39.8494

> <b_lp_Chiralities_Consistent>
1

> <s_lp_Variant>
AV-unprocessed.smi:35-4

> <Gold.Version>
5.8.1

> <Gold.Id.Protein>
6NUR|6NUR_protein|mol2

> <Gold.PLP.Fitness>
36.1653

> <Gold.PLP.PLP>
-25.9975

> <Gold.PLP.part.hbond>
-4.7486

> <Gold.PLP.part.metal>
0.0000

> <Gold.PLP.part.buried>
-5.2623

> <Gold.PLP.part.nonpolar>
-16.7401

> <Gold.PLP.part.repulsive>
0.2661

> <Gold.PLP.ligand.clash>
0.0000

> <Gold.PLP.ligand.torsion>
0.9326

> <Gold.PLP.Chemscore.Hbond>
4.0000

> <Gold.PLP.Chemscore.CHOScore>
0.0000

> <Gold.PLP.Chemscore.Metal>
0.0000

> <Gold.Chemscore.Hbonds>
donor molecule, donor type, donor heavy atom, donor atom, acceptor molecule, acceptor atom, score
      L1  H    11    24       P1  7957  1.00
      L1  H    13    26       P1  8028  1.00
      P1  H  6896  6909       L1     1  0.99
      P1  H  7997  8010       L1     5  1.00

> <Gold.PLP.Chemscore.Internal.Correction>
0.0331

> <Gold.Rescore>
     Score         DG    S(hbond)    S(metal)    S(lipo)     H(rot)  DE(clash)    DE(int)     intcor
     12.52     -13.44       3.97        0.00      35.14       3.67       0.05       0.88       ----

> <Gold.Chemscore.Fitness>
12.5175

> <Gold.Chemscore.DG>
-13.4416

> <Gold.Chemscore.ZeroCoef>
-5.4800

> <Gold.Chemscore.Hbond>
3.9659

> <Gold.Chemscore.Metal>
0.0000

> <Gold.Chemscore.Lipo>
35.1362

> <Gold.Chemscore.Internal_Hbond>
0.0000

> <Gold.Chemscore.DEClash>
0.0456

> <Gold.Chemscore.DEInternal>
0.8785

> <Gold.Chemscore.Rot>
3.6701

> <Gold.Chemscore.Internal.Correction>
   9.000000E+99

> <Gold.Chemscore.Hbonds>
donor molecule, donor type, donor heavy atom, donor atom, acceptor molecule, acceptor atom, score
      L1  H    11    24       P1  7957  0.99
      L1  H    13    26       P1  8028  0.98
      P1  H  6896  6909       L1     1  0.92
      P1  H  7997  8010       L1     5  0.99

> <Gold.Chemscore.Hbond.Weighted>
-13.2461

> <Gold.Chemscore.Metal.Weighted>
-0.0000

> <Gold.Chemscore.Lipo.Weighted>
-4.1109

> <Gold.Chemscore.Internal_Hbond.Weighted>
0.0000

> <Gold.Chemscore.DEClash.Weighted>
0.0456

> <Gold.Chemscore.DEInternal.Weighted>
0.8785

> <Gold.Chemscore.Rot.Weighted>
9.3955

> <Gold.Chemscore.Internal.Correction.Weighted>
   9.000000E+99

> <Gold.Protein.RotatedTorsions>
[ 6907 6896 6895 6894 ] final  127.03 input  -60.11 | X-H torsion
[ 7974 7965 7964 7962 ] final  -51.02 input  175.53 | X-H torsion
[ 8008 7997 7996 7995 ] final   93.97 input   59.86 | X-H torsion
[ 10167 10162 10161 10158 ] final  125.36 input  -65.29 | X-H torsion
[ 10718 10713 10712 10709 ] final  107.04 input   66.30 | X-H torsion
[ 10763 10752 10751 10750 ] final   60.03 input  -60.55 | X-H torsion
[ 11005 11000 10999 10996 ] final -141.93 input  -57.11 | X-H torsion

> <Gold.Protein.ActiveResidues>
 VAL166  LYS551  ARG553  GLY616  TRP617  ASP618  TYR619  PRO620  LYS621  CYS622 
 ASP623  PHE694  ASN695  SER759  ASP760  ASP761  ALA762  ILE779  LEU786  VAL792 
 PHE793  MET794  SER795  GLU796  ALA797  LYS798  CYS799  TRP800  GLU811  SER814 

> <Gold.Protein.RotatedAtoms>
  152.3850  133.6598  159.6191 H   0  0  0  0  0  0  0  0  0  0  0  0  # atno 6907 bound_to 6896
  150.7771  133.9050  159.3361 H   0  0  0  0  0  0  0  0  0  0  0  0  # atno 6908 bound_to 6896
  151.6849  135.0957  160.0274 H   0  0  0  0  0  0  0  0  0  0  0  0  # atno 6909 bound_to 6896
  145.9235  140.7813  142.9635 H   0  0  0  0  0  0  0  0  0  0  0  0  # atno 7974 bound_to 7965
  156.0527  140.3306  155.7369 H   0  0  0  0  0  0  0  0  0  0  0  0  # atno 8008 bound_to 7997
  155.5577  140.0616  157.2853 H   0  0  0  0  0  0  0  0  0  0  0  0  # atno 8009 bound_to 7997
  154.4443  140.1883  156.0739 H   0  0  0  0  0  0  0  0  0  0  0  0  # atno 8010 bound_to 7997
  139.5690  144.6928  151.3831 H   0  0  0  0  0  0  0  0  0  0  0  0  # atno 10167 bound_to 10162
  157.6644  131.0864  150.6097 H   0  0  0  0  0  0  0  0  0  0  0  0  # atno 10718 bound_to 10713
  152.9910  135.5550  154.5809 H   0  0  0  0  0  0  0  0  0  0  0  0  # atno 10763 bound_to 10752
  154.5190  135.2806  155.1280 H   0  0  0  0  0  0  0  0  0  0  0  0  # atno 10764 bound_to 10752
  154.2641  135.6375  153.5338 H   0  0  0  0  0  0  0  0  0  0  0  0  # atno 10765 bound_to 10752
  140.8275  134.2557  157.4872 H   0  0  0  0  0  0  0  0  0  0  0  0  # atno 11005 bound_to 11000
  144.6755  140.2013  143.7387 LP  0  0  0  0  0  0  0  0  0  0  0  0  # atno 17320 bound_to 7965
  145.8519  139.2180  143.1767 LP  0  0  0  0  0  0  0  0  0  0  0  0  # atno 17321 bound_to 7965
  140.6974  143.7715  150.7348 LP  0  0  0  0  0  0  0  0  0  0  0  0  # atno 17342 bound_to 10162
  140.1216  143.4607  152.2310 LP  0  0  0  0  0  0  0  0  0  0  0  0  # atno 17343 bound_to 10162
  156.6398  130.4455  149.5756 LP  0  0  0  0  0  0  0  0  0  0  0  0  # atno 17370 bound_to 10713
  156.2218  130.6741  151.1375 LP  0  0  0  0  0  0  0  0  0  0  0  0  # atno 17371 bound_to 10713
  139.8706  134.9568  156.4250 LP  0  0  0  0  0  0  0  0  0  0  0  0  # atno 17394 bound_to 11000
  140.9033  133.7763  155.9706 LP  0  0  0  0  0  0  0  0  0  0  0  0  # atno 17395 bound_to 11000

$$$$
