AV-unprocessed.smi:2093|AV-procd|sdf|8546|dock2
  -GOLD-   2272011273D 1   1.00000     0.00000
 Structure written by MMmdl.
 31 32  0  0  0  0  0  0  0  0  1 V2000
  152.8454  144.5005  157.1083 C   0  0  0  0  0  0  0  0  0  0  0  0
  152.0176  143.3076  157.6087 C   0  0  2  0  0  0  0  0  0  0  0  0
  150.8647  143.1229  156.7282 N   0  0  0  0  0  0  0  0  0  0  0  0
  150.4904  141.9723  156.1493 C   0  0  0  0  0  0  0  0  0  0  0  0
  151.0947  140.9086  156.2884 O   0  0  0  0  0  0  0  0  0  0  0  0
  149.3787  142.1424  155.4122 N   0  0  0  0  0  0  0  0  0  0  0  0
  148.6677  141.1732  154.6568 C   0  0  0  0  0  0  0  0  0  0  0  0
  147.5016  141.4016  154.0411 N   0  0  0  0  0  0  0  0  0  0  0  0
  147.0321  140.2691  153.3707 C   0  0  0  0  0  0  0  0  0  0  0  0
  147.8591  139.1796  153.4873 C   0  0  0  0  0  0  0  0  0  0  0  0
  149.2679  139.5340  154.4514 S   0  0  0  0  0  0  0  0  0  0  0  0
  151.5437  143.5029  159.0622 C   0  0  1  0  0  0  0  0  0  0  0  0
  152.5892  143.1605  160.1265 C   0  0  0  0  0  0  0  0  0  0  0  0
  152.1232  143.9985  161.2942 C   0  0  0  0  0  0  0  0  0  0  0  0
  151.6672  145.2736  160.5931 C   0  0  0  0  0  0  0  0  0  0  0  0
  151.2125  144.8694  159.3041 O   0  0  0  0  0  0  0  0  0  0  0  0
  153.7342  144.6484  157.7223 H   0  0  0  0  0  0  0  0  0  0  0  0
  152.2673  145.4248  157.1331 H   0  0  0  0  0  0  0  0  0  0  0  0
  153.1803  144.3431  156.0826 H   0  0  0  0  0  0  0  0  0  0  0  0
  152.6578  142.4241  157.5806 H   0  0  0  0  0  0  0  0  0  0  0  0
  150.3014  143.9419  156.5526 H   0  0  0  0  0  0  0  0  0  0  0  0
  148.9924  143.0745  155.3928 H   0  0  0  0  0  0  0  0  0  0  0  0
  146.0971  140.3273  152.8333 H   0  0  0  0  0  0  0  0  0  0  0  0
  147.7252  138.1941  153.0663 H   0  0  0  0  0  0  0  0  0  0  0  0
  150.6464  142.9097  159.2472 H   0  0  0  0  0  0  0  0  0  0  0  0
  152.6327  142.0953  160.3554 H   0  0  0  0  0  0  0  0  0  0  0  0
  153.5825  143.4828  159.8093 H   0  0  0  0  0  0  0  0  0  0  0  0
  151.2783  143.5163  161.7879 H   0  0  0  0  0  0  0  0  0  0  0  0
  152.9011  144.1744  162.0374 H   0  0  0  0  0  0  0  0  0  0  0  0
  150.8867  145.7965  161.1461 H   0  0  0  0  0  0  0  0  0  0  0  0
  152.5072  145.9571  160.4632 H   0  0  0  0  0  0  0  0  0  0  0  0
  1  2  1  0  0  0  0
  1 17  1  0  0  0  0
  1 18  1  0  0  0  0
  1 19  1  0  0  0  0
  2  3  1  0  0  0  0
  2 12  1  0  0  0  0
  2 20  1  0  0  0  0
  3  4  1  0  0  0  0
  3 21  1  0  0  0  0
  4  5  2  0  0  0  0
  4  6  1  0  0  0  0
  6  7  1  0  0  0  0
  6 22  1  0  0  0  0
  7 11  1  0  0  0  0
  7  8  2  0  0  0  0
  8  9  1  0  0  0  0
  9 10  2  0  0  0  0
  9 23  1  0  0  0  0
 10 11  1  0  0  0  0
 10 24  1  0  0  0  0
 12 16  1  0  0  0  0
 12 13  1  0  0  0  0
 12 25  1  0  0  0  0
 13 14  1  0  0  0  0
 13 26  1  0  0  0  0
 13 27  1  0  0  0  0
 14 15  1  0  0  0  0
 14 28  1  0  0  0  0
 14 29  1  0  0  0  0
 15 16  1  0  0  0  0
 15 30  1  0  0  0  0
 15 31  1  0  0  0  0
M  END
> <s_m_source_file>
AV-unprocessed.smi

> <i_m_source_file_index>
2093

> <i_lp_mmshare_version>
43012

> <i_f3d_flags>
0

> <s_epik_input>
TzFbQ0gyXVtDSDJdW0NIMl1bQ0BIXTFbQ0BIXShbQ0gzXSlbTkhdQyg9TylbTkhdYzJuW2NIXVtjSF1zMg==

> <s_epik_cmdline>
J2VwaWtfcHl0aG9uJywgJy1waCcsICc3LjAnLCAnLXRuJywgJzgnLCAnLW1hJywgJzIwMCcsICctbWV0YWxfYmluZGluZycsICctaW1hZScsICc8aW5maWxlLm1hZT4nLCAnLW9tYWUnLCAnPG91dGZpbGUubWFlPic=

> <r_lp_tautomer_probability>
0.999

> <r_epik_Ionization_Penalty>
0.000334433

> <r_epik_Ionization_Penalty_Charging>
0

> <r_epik_Ionization_Penalty_Neutral>
0.000334433

> <r_epik_State_Penalty>
0.000177984

> <r_epik_Charging_Adjusted_Penalty>
0.000177984

> <i_epik_Tot_Q>
0

> <i_epik_Tot_abs_Q>
0

> <r_epik_Metal_State_Penalty>
0.00767616

> <b_epik_Metal_Only>
0

> <s_lp_Force_Field>
OPLS_2005

> <r_lp_Energy>
15.9736

> <b_lp_Chiralities_Consistent>
1

> <s_lp_Variant>
AV-unprocessed.smi:2093-3

> <Gold.Version>
5.8.1

> <Gold.Id.Protein>
6NUR|6NUR_protein|mol2

> <Gold.PLP.Fitness>
42.0863

> <Gold.PLP.PLP>
-31.2930

> <Gold.PLP.part.hbond>
-2.0000

> <Gold.PLP.part.metal>
0.0000

> <Gold.PLP.part.buried>
-3.7301

> <Gold.PLP.part.nonpolar>
-26.2779

> <Gold.PLP.part.repulsive>
0.5488

> <Gold.PLP.ligand.clash>
0.0000

> <Gold.PLP.ligand.torsion>
0.6075

> <Gold.PLP.Chemscore.Hbond>
2.0000

> <Gold.PLP.Chemscore.CHOScore>
2.0000

> <Gold.PLP.Chemscore.Metal>
0.0000

> <Gold.Chemscore.Hbonds>
donor molecule, donor type, donor heavy atom, donor atom, acceptor molecule, acceptor atom, score
      L1  H     3    21       P1  8028  0.99
      L1  H     6    22       P1  8028  1.00
      L1  C     9    23       P1 10175  1.00
      L1  C    10    24       P1  7948  0.83

> <Gold.PLP.Chemscore.Internal.Correction>
0.0084

> <Gold.Rescore>
     Score         DG    S(hbond)    S(metal)    S(lipo)     H(rot)  DE(clash)    DE(int)     intcor
     15.30     -19.44       1.94        0.00      92.24       1.29       2.49       1.66       ----

> <Gold.Chemscore.Fitness>
15.3027

> <Gold.Chemscore.DG>
-19.4441

> <Gold.Chemscore.ZeroCoef>
-5.4800

> <Gold.Chemscore.Hbond>
1.9415

> <Gold.Chemscore.Metal>
0.0000

> <Gold.Chemscore.Lipo>
92.2355

> <Gold.Chemscore.Internal_Hbond>
0.0000

> <Gold.Chemscore.DEClash>
2.4863

> <Gold.Chemscore.DEInternal>
1.6550

> <Gold.Chemscore.Rot>
1.2938

> <Gold.Chemscore.Internal.Correction>
   9.000000E+99

> <Gold.Chemscore.Hbonds>
donor molecule, donor type, donor heavy atom, donor atom, acceptor molecule, acceptor atom, score
      L1  H     3    21       P1  8028  0.94
      L1  H     6    22       P1  8028  0.99

> <Gold.Chemscore.Hbond.Weighted>
-6.4847

> <Gold.Chemscore.Metal.Weighted>
-0.0000

> <Gold.Chemscore.Lipo.Weighted>
-10.7916

> <Gold.Chemscore.Internal_Hbond.Weighted>
0.0000

> <Gold.Chemscore.DEClash.Weighted>
2.4863

> <Gold.Chemscore.DEInternal.Weighted>
1.6550

> <Gold.Chemscore.Rot.Weighted>
3.3122

> <Gold.Chemscore.Internal.Correction.Weighted>
   9.000000E+99

> <Gold.Protein.RotatedTorsions>
[ 6907 6896 6895 6894 ] final   96.41 input  -60.11 | X-H torsion
[ 7974 7965 7964 7962 ] final   46.38 input  175.53 | X-H torsion
[ 8008 7997 7996 7995 ] final  106.10 input   59.86 | X-H torsion
[ 10167 10162 10161 10158 ] final  179.36 input  -65.29 | X-H torsion
[ 10718 10713 10712 10709 ] final  -24.19 input   66.30 | X-H torsion
[ 10763 10752 10751 10750 ] final  128.52 input  -60.55 | X-H torsion
[ 11005 11000 10999 10996 ] final -124.66 input  -57.11 | X-H torsion

> <Gold.Protein.ActiveResidues>
 VAL166  LYS551  ARG553  GLY616  TRP617  ASP618  TYR619  PRO620  LYS621  CYS622 
 ASP623  PHE694  ASN695  SER759  ASP760  ASP761  ALA762  ILE779  LEU786  VAL792 
 PHE793  MET794  SER795  GLU796  ALA797  LYS798  CYS799  TRP800  GLU811  SER814 

> <Gold.Protein.RotatedAtoms>
  152.5435  134.0891  159.8268 H   0  0  0  0  0  0  0  0  0  0  0  0  # atno 6907 bound_to 6896
  151.0982  133.5256  159.2618 H   0  0  0  0  0  0  0  0  0  0  0  0  # atno 6908 bound_to 6896
  151.2021  135.0456  159.8931 H   0  0  0  0  0  0  0  0  0  0  0  0  # atno 6909 bound_to 6896
  146.0394  139.4862  142.9787 H   0  0  0  0  0  0  0  0  0  0  0  0  # atno 7974 bound_to 7965
  156.1715  140.3119  155.8982 H   0  0  0  0  0  0  0  0  0  0  0  0  # atno 8008 bound_to 7997
  155.3577  140.0474  157.3063 H   0  0  0  0  0  0  0  0  0  0  0  0  # atno 8009 bound_to 7997
  154.5245  140.2210  155.8925 H   0  0  0  0  0  0  0  0  0  0  0  0  # atno 8010 bound_to 7997
  139.5333  144.2570  152.0738 H   0  0  0  0  0  0  0  0  0  0  0  0  # atno 10167 bound_to 10162
  156.4809  130.4545  149.6812 H   0  0  0  0  0  0  0  0  0  0  0  0  # atno 10718 bound_to 10713
  153.7270  135.3244  155.3278 H   0  0  0  0  0  0  0  0  0  0  0  0  # atno 10763 bound_to 10752
  154.8338  135.4513  154.1160 H   0  0  0  0  0  0  0  0  0  0  0  0  # atno 10764 bound_to 10752
  153.2297  135.6958  153.7985 H   0  0  0  0  0  0  0  0  0  0  0  0  # atno 10765 bound_to 10752
  140.9823  134.0655  157.3750 H   0  0  0  0  0  0  0  0  0  0  0  0  # atno 11005 bound_to 11000
  145.6909  141.0164  143.1556 LP  0  0  0  0  0  0  0  0  0  0  0  0  # atno 17320 bound_to 7965
  144.7067  139.8531  143.7427 LP  0  0  0  0  0  0  0  0  0  0  0  0  # atno 17321 bound_to 7965
  140.2036  144.4633  150.6419 LP  0  0  0  0  0  0  0  0  0  0  0  0  # atno 17342 bound_to 10162
  140.6525  143.2228  151.6045 LP  0  0  0  0  0  0  0  0  0  0  0  0  # atno 17343 bound_to 10162
  156.3522  130.7438  151.2399 LP  0  0  0  0  0  0  0  0  0  0  0  0  # atno 17370 bound_to 10713
  157.7483  131.0374  150.4453 LP  0  0  0  0  0  0  0  0  0  0  0  0  # atno 17371 bound_to 10713
  139.8955  135.0141  156.7007 LP  0  0  0  0  0  0  0  0  0  0  0  0  # atno 17394 bound_to 11000
  140.7167  133.9176  155.8120 LP  0  0  0  0  0  0  0  0  0  0  0  0  # atno 17395 bound_to 11000

$$$$
