AV-unprocessed.smi:101|AV-procd|sdf|925|dock7
  -GOLD-   2262017433D 1   1.00000     0.00000
 Structure written by MMmdl.
 44 46  0  0  0  0  0  0  0  0  1 V2000
  145.6406  137.2845  156.8198 C   0  0  0  0  0  0  0  0  0  0  0  0
  146.1222  138.2510  155.7503 C   0  0  0  0  0  0  0  0  0  0  0  0
  147.4172  138.6491  155.6609 C   0  0  0  0  0  0  0  0  0  0  0  0
  147.8884  139.5281  154.6928 N   0  0  0  0  0  0  0  0  0  0  0  0
  149.3451  139.9486  154.6108 C   0  0  2  0  0  0  0  0  0  0  0  0
  150.0683  139.3280  155.6339 O   0  0  0  0  0  0  0  0  0  0  0  0
  150.4207  140.2858  156.6266 C   0  0  1  0  0  0  0  0  0  0  0  0
  151.6240  139.7759  157.4253 C   0  0  0  0  0  0  0  0  0  0  0  0
  152.1000  140.8389  158.2338 O   0  0  0  0  0  0  0  0  0  0  0  0
  152.4945  140.6076  159.4994 C   0  0  0  0  0  0  0  0  0  0  0  0
  152.9057  139.5162  159.8980 O   0  0  0  0  0  0  0  0  0  0  0  0
  152.3774  141.8140  160.3688 C   0  0  0  0  0  0  0  0  0  0  0  0
  152.7770  141.7343  161.7232 C   0  0  0  0  0  0  0  0  0  0  0  0
  152.6744  142.8565  162.5683 C   0  0  0  0  0  0  0  0  0  0  0  0
  152.1721  144.0722  162.0691 C   0  0  0  0  0  0  0  0  0  0  0  0
  151.7722  144.1648  160.7232 C   0  0  0  0  0  0  0  0  0  0  0  0
  151.8733  143.0437  159.8766 C   0  0  0  0  0  0  0  0  0  0  0  0
  150.7003  141.5206  155.7760 C   0  0  2  0  0  0  0  0  0  0  0  0
  150.7531  142.7203  156.5261 O   0  0  0  0  0  0  0  0  0  0  0  0
  149.5539  141.4761  154.7689 C   0  0  2  0  0  0  0  0  0  0  0  0
  148.4027  142.1585  155.2454 O   0  0  0  0  0  0  0  0  0  0  0  0
  146.9892  140.0502  153.7409 C   0  0  0  0  0  0  0  0  0  0  0  0
  147.3354  140.8402  152.8633 O   0  0  0  0  0  0  0  0  0  0  0  0
  145.6603  139.6415  153.8317 N   0  0  0  0  0  0  0  0  0  0  0  0
  145.1444  138.7612  154.7855 C   0  0  0  0  0  0  0  0  0  0  0  0
  143.9483  138.4755  154.7639 O   0  0  0  0  0  0  0  0  0  0  0  0
  145.0144  140.0136  153.1509 H   0  0  0  0  0  0  0  0  0  0  0  0
  146.4516  136.9716  157.4785 H   0  0  0  0  0  0  0  0  0  0  0  0
  145.2192  136.3891  156.3616 H   0  0  0  0  0  0  0  0  0  0  0  0
  144.8707  137.7496  157.4361 H   0  0  0  0  0  0  0  0  0  0  0  0
  148.1053  138.2499  156.3897 H   0  0  0  0  0  0  0  0  0  0  0  0
  149.7172  139.5546  153.6632 H   0  0  0  0  0  0  0  0  0  0  0  0
  149.5715  140.4761  157.2856 H   0  0  0  0  0  0  0  0  0  0  0  0
  151.3450  138.9145  158.0340 H   0  0  0  0  0  0  0  0  0  0  0  0
  152.4194  139.4620  156.7485 H   0  0  0  0  0  0  0  0  0  0  0  0
  153.1652  140.8114  162.1293 H   0  0  0  0  0  0  0  0  0  0  0  0
  152.9811  142.7831  163.6015 H   0  0  0  0  0  0  0  0  0  0  0  0
  152.0930  144.9324  162.7174 H   0  0  0  0  0  0  0  0  0  0  0  0
  151.3863  145.0973  160.3383 H   0  0  0  0  0  0  0  0  0  0  0  0
  151.5570  143.1499  158.8491 H   0  0  0  0  0  0  0  0  0  0  0  0
  151.6472  141.3917  155.2493 H   0  0  0  0  0  0  0  0  0  0  0  0
  150.0255  143.2673  156.2731 H   0  0  0  0  0  0  0  0  0  0  0  0
  149.8429  141.9099  153.8110 H   0  0  0  0  0  0  0  0  0  0  0  0
  148.6761  142.9877  155.6070 H   0  0  0  0  0  0  0  0  0  0  0  0
  1  2  1  0  0  0  0
  1 28  1  0  0  0  0
  1 29  1  0  0  0  0
  1 30  1  0  0  0  0
  2 25  1  0  0  0  0
  2  3  2  0  0  0  0
  3  4  1  0  0  0  0
  3 31  1  0  0  0  0
  4  5  1  0  0  0  0
  4 22  1  0  0  0  0
  5 20  1  0  0  0  0
  5  6  1  0  0  0  0
  5 32  1  0  0  0  0
  6  7  1  0  0  0  0
  7  8  1  0  0  0  0
  7 18  1  0  0  0  0
  7 33  1  0  0  0  0
  8  9  1  0  0  0  0
  8 34  1  0  0  0  0
  8 35  1  0  0  0  0
  9 10  1  0  0  0  0
 10 11  2  0  0  0  0
 10 12  1  0  0  0  0
 12 17  1  0  0  0  0
 12 13  2  0  0  0  0
 13 14  1  0  0  0  0
 13 36  1  0  0  0  0
 14 15  2  0  0  0  0
 14 37  1  0  0  0  0
 15 16  1  0  0  0  0
 15 38  1  0  0  0  0
 16 17  2  0  0  0  0
 16 39  1  0  0  0  0
 17 40  1  0  0  0  0
 18 19  1  0  0  0  0
 18 20  1  0  0  0  0
 18 41  1  0  0  0  0
 19 42  1  0  0  0  0
 20 21  1  0  0  0  0
 20 43  1  0  0  0  0
 21 44  1  0  0  0  0
 22 23  2  0  0  0  0
 22 24  1  0  0  0  0
 24 27  1  0  0  0  0
 24 25  1  0  0  0  0
 25 26  2  0  0  0  0
M  END
> <s_m_source_file>
AV-unprocessed.smi

> <i_m_source_file_index>
101

> <i_lp_mmshare_version>
43012

> <i_f3d_flags>
0

> <s_epik_input>
Tz1jMVtuSF1jKD1PKW4oW2NIXWMxW0NIM10pW0NAQEhdMk9bQ0BIXShbQ0BASF0oW09IXSlbQ0BIXTJbT0hdKVtDSDJdT0MoPU8pYzNbY0hdW2NIXVtjSF1bY0hdW2NIXTM=

> <s_epik_cmdline>
J2VwaWtfcHl0aG9uJywgJy1waCcsICc3LjAnLCAnLXRuJywgJzgnLCAnLW1hJywgJzIwMCcsICctbWV0YWxfYmluZGluZycsICctaW1hZScsICc8aW5maWxlLm1hZT4nLCAnLW9tYWUnLCAnPG91dGZpbGUubWFlPic=

> <r_lp_tautomer_probability>
0.999537

> <r_epik_Ionization_Penalty>
0.00263537

> <r_epik_Ionization_Penalty_Charging>
0.00263428

> <r_epik_Ionization_Penalty_Neutral>
1.09111e-06

> <r_epik_State_Penalty>
0.00183335

> <r_epik_Charging_Adjusted_Penalty>
0.00446763

> <i_epik_Tot_Q>
0

> <i_epik_Tot_abs_Q>
0

> <r_epik_Metal_State_Penalty>
1.00528

> <b_epik_Metal_Only>
0

> <s_epik_Chemistry_Notes>
This compound has an ester and may undergo hydrolysis at high or low pH. This compound contains an acetal/aminal-like group ( X-CH(R)-Y where X, Y are N, S, or O) that may be acid/base labile, releasing an aldehyde.

> <s_lp_Force_Field>
OPLS_2005

> <r_lp_Energy>
40.9352

> <b_lp_Chiralities_Consistent>
1

> <s_lp_Variant>
AV-unprocessed.smi:101-13

> <Gold.Version>
5.8.1

> <Gold.Id.Protein>
6NUR|6NUR_protein|mol2

> <Gold.PLP.Fitness>
47.9780

> <Gold.PLP.PLP>
-41.8196

> <Gold.PLP.part.hbond>
-3.0000

> <Gold.PLP.part.metal>
0.0000

> <Gold.PLP.part.buried>
-6.3440

> <Gold.PLP.part.nonpolar>
-31.7746

> <Gold.PLP.part.repulsive>
0.2799

> <Gold.PLP.ligand.clash>
1.6302

> <Gold.PLP.ligand.torsion>
0.6758

> <Gold.PLP.Chemscore.Hbond>
3.0000

> <Gold.PLP.Chemscore.CHOScore>
0.0000

> <Gold.PLP.Chemscore.Metal>
0.0000

> <Gold.Chemscore.Hbonds>
donor molecule, donor type, donor heavy atom, donor atom, acceptor molecule, acceptor atom, score
      L1  H    19    42       P1  8028  1.00
      L1  H    21    44       P1  8028  1.00
      L1  H    24    27       P1 10175  1.00

> <Gold.PLP.Chemscore.Internal.Correction>
0.1402

> <Gold.Rescore>
     Score         DG    S(hbond)    S(metal)    S(lipo)     H(rot)  DE(clash)    DE(int)     intcor
     12.57     -18.07       2.98        0.00      95.07       3.32       0.02       5.48       ----

> <Gold.Chemscore.Fitness>
12.5695

> <Gold.Chemscore.DG>
-18.0718

> <Gold.Chemscore.ZeroCoef>
-5.4800

> <Gold.Chemscore.Hbond>
2.9821

> <Gold.Chemscore.Metal>
0.0000

> <Gold.Chemscore.Lipo>
95.0730

> <Gold.Chemscore.Internal_Hbond>
0.0000

> <Gold.Chemscore.DEClash>
0.0181

> <Gold.Chemscore.DEInternal>
5.4843

> <Gold.Chemscore.Rot>
3.3172

> <Gold.Chemscore.Internal.Correction>
   9.000000E+99

> <Gold.Chemscore.Hbonds>
donor molecule, donor type, donor heavy atom, donor atom, acceptor molecule, acceptor atom, score
      L1  H    19    42       P1  8028  0.99
      L1  H    21    44       P1  8028  0.99
      L1  H    24    27       P1 10175  0.96

> <Gold.Chemscore.Hbond.Weighted>
-9.9603

> <Gold.Chemscore.Metal.Weighted>
-0.0000

> <Gold.Chemscore.Lipo.Weighted>
-11.1235

> <Gold.Chemscore.Internal_Hbond.Weighted>
0.0000

> <Gold.Chemscore.DEClash.Weighted>
0.0181

> <Gold.Chemscore.DEInternal.Weighted>
5.4843

> <Gold.Chemscore.Rot.Weighted>
8.4920

> <Gold.Chemscore.Internal.Correction.Weighted>
   9.000000E+99

> <Gold.Protein.RotatedTorsions>
[ 6907 6896 6895 6894 ] final -159.80 input  -60.11 | X-H torsion
[ 7974 7965 7964 7962 ] final -147.73 input  175.53 | X-H torsion
[ 8008 7997 7996 7995 ] final -112.50 input   59.86 | X-H torsion
[ 10167 10162 10161 10158 ] final  120.81 input  -65.29 | X-H torsion
[ 10718 10713 10712 10709 ] final   22.98 input   66.30 | X-H torsion
[ 10763 10752 10751 10750 ] final   31.18 input  -60.55 | X-H torsion
[ 11005 11000 10999 10996 ] final   78.74 input  -57.11 | X-H torsion

> <Gold.Protein.ActiveResidues>
 VAL166  LYS551  ARG553  GLY616  TRP617  ASP618  TYR619  PRO620  LYS621  CYS622 
 ASP623  PHE694  ASN695  SER759  ASP760  ASP761  ALA762  ILE779  LEU786  VAL792 
 PHE793  MET794  SER795  GLU796  ALA797  LYS798  CYS799  TRP800  GLU811  SER814 

> <Gold.Protein.RotatedAtoms>
  151.3392  133.3969  159.2669 H   0  0  0  0  0  0  0  0  0  0  0  0  # atno 6907 bound_to 6896
  150.9892  134.9231  159.7900 H   0  0  0  0  0  0  0  0  0  0  0  0  # atno 6908 bound_to 6896
  152.5242  134.3356  159.9251 H   0  0  0  0  0  0  0  0  0  0  0  0  # atno 6909 bound_to 6896
  144.8074  140.5289  143.5665 H   0  0  0  0  0  0  0  0  0  0  0  0  # atno 7974 bound_to 7965
  155.0062  140.0394  157.2380 H   0  0  0  0  0  0  0  0  0  0  0  0  # atno 8008 bound_to 7997
  154.7500  140.2765  155.6277 H   0  0  0  0  0  0  0  0  0  0  0  0  # atno 8009 bound_to 7997
  156.2883  140.2648  156.2251 H   0  0  0  0  0  0  0  0  0  0  0  0  # atno 8010 bound_to 7997
  139.5958  144.7041  151.3179 H   0  0  0  0  0  0  0  0  0  0  0  0  # atno 10167 bound_to 10162
  157.1598  130.6712  149.6040 H   0  0  0  0  0  0  0  0  0  0  0  0  # atno 10718 bound_to 10713
  153.0330  135.6445  154.1159 H   0  0  0  0  0  0  0  0  0  0  0  0  # atno 10763 bound_to 10752
  154.0878  135.2868  155.3279 H   0  0  0  0  0  0  0  0  0  0  0  0  # atno 10764 bound_to 10752
  154.6486  135.5434  153.7938 H   0  0  0  0  0  0  0  0  0  0  0  0  # atno 10765 bound_to 10752
  139.9200  134.7787  156.1689 H   0  0  0  0  0  0  0  0  0  0  0  0  # atno 11005 bound_to 11000
  145.5404  139.1475  143.3450 LP  0  0  0  0  0  0  0  0  0  0  0  0  # atno 17320 bound_to 7965
  146.2368  140.5544  142.8951 LP  0  0  0  0  0  0  0  0  0  0  0  0  # atno 17321 bound_to 7965
  140.7211  143.7133  150.7752 LP  0  0  0  0  0  0  0  0  0  0  0  0  # atno 17342 bound_to 10162
  140.0699  143.5071  152.2585 LP  0  0  0  0  0  0  0  0  0  0  0  0  # atno 17343 bound_to 10162
  155.9756  130.4715  150.6469 LP  0  0  0  0  0  0  0  0  0  0  0  0  # atno 17370 bound_to 10713
  157.4143  131.0828  151.1191 LP  0  0  0  0  0  0  0  0  0  0  0  0  # atno 17371 bound_to 10713
  141.0713  133.6796  156.2145 LP  0  0  0  0  0  0  0  0  0  0  0  0  # atno 17394 bound_to 11000
  140.6503  134.5074  157.5577 LP  0  0  0  0  0  0  0  0  0  0  0  0  # atno 17395 bound_to 11000

$$$$
