AV-unprocessed.smi:49|AV-procd|sdf|490|dock9
  -GOLD-   2262016353D 1   1.00000     0.00000
 Structure written by MMmdl.
 26 27  0  0  0  0  0  0  0  0  2 V2000
  152.9232  141.4038  159.0965 C   0  0  0  0  0  0  0  0  0  0  0  0
  152.1831  140.0924  158.8144 C   0  0  0  0  0  0  0  0  0  0  0  0
  151.7255  139.9942  157.3756 C   0  0  0  0  0  0  0  0  0  0  0  0
  150.4652  140.0347  156.9550 N   0  0  0  0  0  0  0  0  0  0  0  0
  150.5215  139.9412  155.6189 C   0  0  0  0  0  0  0  0  0  0  0  0
  149.3035  139.9781  154.7133 C   0  0  1  0  0  0  0  0  0  0  0  0
  147.9944  140.0633  155.5192 C   0  0  0  0  0  0  0  0  0  0  0  0
  147.4773  141.4707  155.2386 C   0  0  2  0  0  0  0  0  0  0  0  0
  146.0722  141.5711  155.3344 O   0  0  0  0  0  0  0  0  0  0  0  0
  147.9840  141.7246  153.8250 C   0  0  0  0  0  0  0  0  0  0  0  0
  149.3121  141.1287  153.8025 N   0  0  0  0  0  0  0  0  0  0  0  0
  151.7970  139.8730  155.2032 N   0  0  0  0  0  0  0  0  0  0  0  0
  152.5267  139.9067  156.2996 N   0  5  0  0  0  0  0  0  0  0  0  0
  149.2967  139.0556  154.1317 H   0  0  0  0  0  0  0  0  0  0  0  0
  147.9399  142.1785  155.9282 H   0  0  0  0  0  0  0  0  0  0  0  0
  153.2442  141.4533  160.1369 H   0  0  0  0  0  0  0  0  0  0  0  0
  152.2823  142.2643  158.9026 H   0  0  0  0  0  0  0  0  0  0  0  0
  153.8089  141.4969  158.4677 H   0  0  0  0  0  0  0  0  0  0  0  0
  152.8305  139.2437  159.0367 H   0  0  0  0  0  0  0  0  0  0  0  0
  151.3147  140.0056  159.4677 H   0  0  0  0  0  0  0  0  0  0  0  0
  147.2915  139.3260  155.1282 H   0  0  0  0  0  0  0  0  0  0  0  0
  148.1205  139.8622  156.5840 H   0  0  0  0  0  0  0  0  0  0  0  0
  145.7037  140.7087  155.2196 H   0  0  0  0  0  0  0  0  0  0  0  0
  147.3428  141.2175  153.1026 H   0  0  0  0  0  0  0  0  0  0  0  0
  148.0069  142.7839  153.5683 H   0  0  0  0  0  0  0  0  0  0  0  0
  149.5225  140.8206  152.8591 H   0  0  0  0  0  0  0  0  0  0  0  0
  1  2  1  0  0  0  0
  1 16  1  0  0  0  0
  1 17  1  0  0  0  0
  1 18  1  0  0  0  0
  2  3  1  0  0  0  0
  2 19  1  0  0  0  0
  2 20  1  0  0  0  0
  3 13  1  0  0  0  0
  3  4  2  0  0  0  0
  4  5  1  0  0  0  0
  5  6  1  0  0  0  0
  5 12  2  0  0  0  0
  6 14  1  0  0  0  0
  6 11  1  0  0  0  0
  6  7  1  0  0  0  0
  7  8  1  0  0  0  0
  7 21  1  0  0  0  0
  7 22  1  0  0  0  0
  8 15  1  0  0  0  0
  8  9  1  0  0  0  0
  8 10  1  0  0  0  0
  9 23  1  0  0  0  0
 10 11  1  0  0  0  0
 10 24  1  0  0  0  0
 10 25  1  0  0  0  0
 11 26  1  0  0  0  0
 12 13  1  0  0  0  0
M  CHG  1  13  -1
M  END
> <s_m_source_file>
AV-unprocessed.smi

> <i_m_source_file_index>
49

> <i_lp_mmshare_version>
43012

> <i_f3d_flags>
0

> <s_epik_input>
W0NIM11bQ0gyXWMxbmMobltuSF0xKVtDQEBIXTJbQ0gyXVtDQEBIXShbT0hdKVtDSDJdW05IXTI=

> <s_epik_cmdline>
J2VwaWtfcHl0aG9uJywgJy1waCcsICc3LjAnLCAnLXRuJywgJzgnLCAnLW1hJywgJzIwMCcsICctbWV0YWxfYmluZGluZycsICctaW1hZScsICc8aW5maWxlLm1hZT4nLCAnLW9tYWUnLCAnPG91dGZpbGUubWFlPic=

> <r_lp_tautomer_probability>
0.948284

> <r_epik_Ionization_Penalty>
20.726

> <r_epik_Ionization_Penalty_Charging>
17.6814

> <r_epik_Ionization_Penalty_Neutral>
3.04463

> <r_epik_State_Penalty>
7.95092

> <r_epik_Charging_Adjusted_Penalty>
25.6323

> <i_epik_Tot_Q>
-1

> <i_epik_Tot_abs_Q>
1

> <r_epik_Metal_State_Penalty>
4.146

> <b_epik_Metal_Only>
1

> <s_lp_Force_Field>
OPLS_2005

> <r_lp_Energy>
18.0563

> <b_lp_Chiralities_Consistent>
1

> <s_lp_Variant>
AV-unprocessed.smi:49-28

> <Gold.Version>
5.8.1

> <Gold.Id.Protein>
6NUR|6NUR_protein|mol2

> <Gold.PLP.Fitness>
33.2062

> <Gold.PLP.PLP>
-21.3933

> <Gold.PLP.part.hbond>
-5.0000

> <Gold.PLP.part.metal>
0.0000

> <Gold.PLP.part.buried>
-3.4126

> <Gold.PLP.part.nonpolar>
-12.7023

> <Gold.PLP.part.repulsive>
0.0187

> <Gold.PLP.ligand.clash>
0.0000

> <Gold.PLP.ligand.torsion>
0.0650

> <Gold.PLP.Chemscore.Hbond>
3.9760

> <Gold.PLP.Chemscore.CHOScore>
0.0000

> <Gold.PLP.Chemscore.Metal>
0.0000

> <Gold.Chemscore.Hbonds>
donor molecule, donor type, donor heavy atom, donor atom, acceptor molecule, acceptor atom, score
      L1  H    11    26       P1  7957  1.00
      P1  H  7989  7998       L1    12  0.96
      P1  H  7997  8009       L1    13  2.00

> <Gold.PLP.Chemscore.Internal.Correction>
0.0149

> <Gold.Rescore>
     Score         DG    S(hbond)    S(metal)    S(lipo)     H(rot)  DE(clash)    DE(int)     intcor
     14.02     -14.14       2.78        0.00      34.52       1.82       0.07       0.05       ----

> <Gold.Chemscore.Fitness>
14.0232

> <Gold.Chemscore.DG>
-14.1359

> <Gold.Chemscore.ZeroCoef>
-5.4800

> <Gold.Chemscore.Hbond>
2.7792

> <Gold.Chemscore.Metal>
0.0000

> <Gold.Chemscore.Lipo>
34.5229

> <Gold.Chemscore.Internal_Hbond>
0.0000

> <Gold.Chemscore.DEClash>
0.0659

> <Gold.Chemscore.DEInternal>
0.0467

> <Gold.Chemscore.Rot>
1.8226

> <Gold.Chemscore.Internal.Correction>
   9.000000E+99

> <Gold.Chemscore.Hbonds>
donor molecule, donor type, donor heavy atom, donor atom, acceptor molecule, acceptor atom, score
      L1  H    11    26       P1  7957  1.00
      P1  H  7989  7998       L1    12  0.23
      P1  H  7997  8009       L1    13  0.96

> <Gold.Chemscore.Hbond.Weighted>
-9.2825

> <Gold.Chemscore.Metal.Weighted>
-0.0000

> <Gold.Chemscore.Lipo.Weighted>
-4.0392

> <Gold.Chemscore.Internal_Hbond.Weighted>
0.0000

> <Gold.Chemscore.DEClash.Weighted>
0.0659

> <Gold.Chemscore.DEInternal.Weighted>
0.0467

> <Gold.Chemscore.Rot.Weighted>
4.6658

> <Gold.Chemscore.Internal.Correction.Weighted>
   9.000000E+99

> <Gold.Protein.RotatedTorsions>
[ 6907 6896 6895 6894 ] final -161.04 input  -60.11 | X-H torsion
[ 7974 7965 7964 7962 ] final  -17.13 input  175.53 | X-H torsion
[ 8008 7997 7996 7995 ] final -151.16 input   59.86 | X-H torsion
[ 10167 10162 10161 10158 ] final -146.39 input  -65.29 | X-H torsion
[ 10718 10713 10712 10709 ] final   32.86 input   66.30 | X-H torsion
[ 10763 10752 10751 10750 ] final  157.61 input  -60.55 | X-H torsion
[ 11005 11000 10999 10996 ] final  141.24 input  -57.11 | X-H torsion

> <Gold.Protein.ActiveResidues>
 VAL166  LYS551  ARG553  GLY616  TRP617  ASP618  TYR619  PRO620  LYS621  CYS622 
 ASP623  PHE694  ASN695  SER759  ASP760  ASP761  ALA762  ILE779  LEU786  VAL792 
 PHE793  MET794  SER795  GLU796  ALA797  LYS798  CYS799  TRP800  GLU811  SER814 

> <Gold.Protein.RotatedAtoms>
  151.3585  133.3898  159.2687 H   0  0  0  0  0  0  0  0  0  0  0  0  # atno 6907 bound_to 6896
  150.9744  134.9112  159.7818 H   0  0  0  0  0  0  0  0  0  0  0  0  # atno 6908 bound_to 6896
  152.5196  134.3547  159.9316 H   0  0  0  0  0  0  0  0  0  0  0  0  # atno 6909 bound_to 6896
  146.1955  140.3735  142.8442 H   0  0  0  0  0  0  0  0  0  0  0  0  # atno 7974 bound_to 7965
  155.6350  140.0695  157.2637 H   0  0  0  0  0  0  0  0  0  0  0  0  # atno 8008 bound_to 7997
  154.4197  140.1760  156.1562 H   0  0  0  0  0  0  0  0  0  0  0  0  # atno 8009 bound_to 7997
  155.9902  140.3346  155.6749 H   0  0  0  0  0  0  0  0  0  0  0  0  # atno 8010 bound_to 7997
  139.7717  143.8227  152.2625 H   0  0  0  0  0  0  0  0  0  0  0  0  # atno 10167 bound_to 10162
  157.2905  130.7300  149.6608 H   0  0  0  0  0  0  0  0  0  0  0  0  # atno 10718 bound_to 10713
  154.2030  135.2789  155.2984 H   0  0  0  0  0  0  0  0  0  0  0  0  # atno 10763 bound_to 10752
  154.5839  135.5581  153.7215 H   0  0  0  0  0  0  0  0  0  0  0  0  # atno 10764 bound_to 10752
  153.0083  135.6351  154.2169 H   0  0  0  0  0  0  0  0  0  0  0  0  # atno 10765 bound_to 10752
  140.0387  134.9316  157.0802 H   0  0  0  0  0  0  0  0  0  0  0  0  # atno 11005 bound_to 11000
  144.8573  140.7088  143.6130 LP  0  0  0  0  0  0  0  0  0  0  0  0  # atno 17320 bound_to 7965
  145.3656  139.1671  143.4360 LP  0  0  0  0  0  0  0  0  0  0  0  0  # atno 17321 bound_to 7965
  139.8264  144.7273  150.9506 LP  0  0  0  0  0  0  0  0  0  0  0  0  # atno 17342 bound_to 10162
  140.7814  143.4111  151.0992 LP  0  0  0  0  0  0  0  0  0  0  0  0  # atno 17343 bound_to 10162
  155.9667  130.4310  150.4902 LP  0  0  0  0  0  0  0  0  0  0  0  0  # atno 17370 bound_to 10713
  157.2864  131.0617  151.2164 LP  0  0  0  0  0  0  0  0  0  0  0  0  # atno 17371 bound_to 10713
  140.4105  134.1986  155.7163 LP  0  0  0  0  0  0  0  0  0  0  0  0  # atno 17394 bound_to 11000
  141.1871  133.8288  157.1043 LP  0  0  0  0  0  0  0  0  0  0  0  0  # atno 17395 bound_to 11000

$$$$
