AV-unprocessed.smi:2646|AV-procd|sdf|10281|dock3
  -GOLD-   2272014293D 1   1.00000     0.00000
 Structure written by MMmdl.
 43 44  0  0  0  0  0  0  0  0  1 V2000
  144.4578  135.3219  154.1345 C   0  0  0  0  0  0  0  0  0  0  0  0
  144.9149  135.8995  152.7704 C   0  0  1  0  0  0  0  0  0  0  0  0
  143.8037  136.8532  152.2403 C   0  0  0  0  0  0  0  0  0  0  0  0
  143.3225  137.7284  153.2406 O   0  0  0  0  0  0  0  0  0  0  0  0
  146.1637  136.6583  152.9431 N   0  0  0  0  0  0  0  0  0  0  0  0
  146.3775  137.7879  153.6376 C   0  0  0  0  0  0  0  0  0  0  0  0
  145.5062  138.3885  154.2649 O   0  0  0  0  0  0  0  0  0  0  0  0
  147.6597  138.1764  153.5321 N   0  0  0  0  0  0  0  0  0  0  0  0
  148.2912  139.3050  154.1202 C   0  0  0  0  0  0  0  0  0  0  0  0
  147.5439  140.4950  154.2369 C   0  0  0  0  0  0  0  0  0  0  0  0
  148.1510  141.6339  154.7990 C   0  0  0  0  0  0  0  0  0  0  0  0
  149.4927  141.5405  155.2164 C   0  0  0  0  0  0  0  0  0  0  0  0
  150.2276  140.4148  155.0973 N   0  0  0  0  0  0  0  0  0  0  0  0
  149.6387  139.3253  154.5587 C   0  0  0  0  0  0  0  0  0  0  0  0
  145.2116  134.7359  151.7589 C   0  0  0  0  0  0  0  0  0  0  0  0
  143.9507  133.9178  151.3665 C   0  0  0  0  0  0  0  0  0  0  0  0
  144.2639  132.8216  150.3355 C   0  0  0  0  0  0  0  0  0  0  0  0
  145.3591  131.8753  150.8421 C   0  0  0  0  0  0  0  0  0  0  0  0
  146.6218  132.6617  151.2145 C   0  0  0  0  0  0  0  0  0  0  0  0
  146.3152  133.7582  152.2467 C   0  0  0  0  0  0  0  0  0  0  0  0
  143.6572  134.5926  154.0063 H   0  0  0  0  0  0  0  0  0  0  0  0
  144.0745  136.0978  154.7973 H   0  0  0  0  0  0  0  0  0  0  0  0
  145.2711  134.8300  154.6672 H   0  0  0  0  0  0  0  0  0  0  0  0
  144.1720  137.4690  151.4199 H   0  0  0  0  0  0  0  0  0  0  0  0
  142.9606  136.2929  151.8361 H   0  0  0  0  0  0  0  0  0  0  0  0
  143.2137  138.5865  152.8599 H   0  0  0  0  0  0  0  0  0  0  0  0
  146.9647  136.2681  152.4687 H   0  0  0  0  0  0  0  0  0  0  0  0
  148.2393  137.6305  152.9116 H   0  0  0  0  0  0  0  0  0  0  0  0
  146.5168  140.5365  153.9050 H   0  0  0  0  0  0  0  0  0  0  0  0
  147.6016  142.5574  154.9079 H   0  0  0  0  0  0  0  0  0  0  0  0
  149.9902  142.3944  155.6520 H   0  0  0  0  0  0  0  0  0  0  0  0
  150.2838  138.4659  154.4647 H   0  0  0  0  0  0  0  0  0  0  0  0
  145.5784  135.1905  150.8373 H   0  0  0  0  0  0  0  0  0  0  0  0
  143.5063  133.4570  152.2492 H   0  0  0  0  0  0  0  0  0  0  0  0
  143.1861  134.5660  150.9408 H   0  0  0  0  0  0  0  0  0  0  0  0
  143.3598  132.2549  150.1109 H   0  0  0  0  0  0  0  0  0  0  0  0
  144.5811  133.2810  149.3984 H   0  0  0  0  0  0  0  0  0  0  0  0
  144.9979  131.3246  151.7118 H   0  0  0  0  0  0  0  0  0  0  0  0
  145.5937  131.1330  150.0786 H   0  0  0  0  0  0  0  0  0  0  0  0
  147.3784  131.9828  151.6089 H   0  0  0  0  0  0  0  0  0  0  0  0
  147.0494  133.1138  150.3185 H   0  0  0  0  0  0  0  0  0  0  0  0
  147.2426  134.2917  152.4490 H   0  0  0  0  0  0  0  0  0  0  0  0
  146.0183  133.2910  153.1864 H   0  0  0  0  0  0  0  0  0  0  0  0
  1  2  1  0  0  0  0
  1 21  1  0  0  0  0
  1 22  1  0  0  0  0
  1 23  1  0  0  0  0
  2  3  1  0  0  0  0
  2  5  1  0  0  0  0
  2 15  1  0  0  0  0
  3  4  1  0  0  0  0
  3 24  1  0  0  0  0
  3 25  1  0  0  0  0
  4 26  1  0  0  0  0
  5  6  1  0  0  0  0
  5 27  1  0  0  0  0
  6  7  2  0  0  0  0
  6  8  1  0  0  0  0
  8  9  1  0  0  0  0
  8 28  1  0  0  0  0
  9 14  1  0  0  0  0
  9 10  2  0  0  0  0
 10 11  1  0  0  0  0
 10 29  1  0  0  0  0
 11 12  2  0  0  0  0
 11 30  1  0  0  0  0
 12 13  1  0  0  0  0
 12 31  1  0  0  0  0
 13 14  2  0  0  0  0
 14 32  1  0  0  0  0
 15 20  1  0  0  0  0
 15 16  1  0  0  0  0
 15 33  1  0  0  0  0
 16 17  1  0  0  0  0
 16 34  1  0  0  0  0
 16 35  1  0  0  0  0
 17 18  1  0  0  0  0
 17 36  1  0  0  0  0
 17 37  1  0  0  0  0
 18 19  1  0  0  0  0
 18 38  1  0  0  0  0
 18 39  1  0  0  0  0
 19 20  1  0  0  0  0
 19 40  1  0  0  0  0
 19 41  1  0  0  0  0
 20 42  1  0  0  0  0
 20 43  1  0  0  0  0
M  END
> <s_m_source_file>
AV-unprocessed.smi

> <i_m_source_file_index>
2646

> <i_lp_mmshare_version>
43012

> <i_f3d_flags>
0

> <s_epik_input>
W0NIMl0xW0NIMl1bQ0gyXVtDSDJdW0NIMl1bQ0hdMVtDQF0oW0NIM10pKFtDSDJdW09IXSlbTkhdQyg9TylbTkhdYzJbY0hdW2NIXVtjSF1uW2NIXTI=

> <s_epik_cmdline>
J2VwaWtfcHl0aG9uJywgJy1waCcsICc3LjAnLCAnLXRuJywgJzgnLCAnLW1hJywgJzIwMCcsICctbWV0YWxfYmluZGluZycsICctaW1hZScsICc8aW5maWxlLm1hZT4nLCAnLW9tYWUnLCAnPG91dGZpbGUubWFlPic=

> <r_epik_Ionization_Penalty>
0.00498697

> <r_epik_Ionization_Penalty_Charging>
0

> <r_epik_Ionization_Penalty_Neutral>
0.00498697

> <r_epik_State_Penalty>
0.00359645

> <r_epik_Charging_Adjusted_Penalty>
0.00359645

> <i_epik_Tot_Q>
0

> <i_epik_Tot_abs_Q>
0

> <r_epik_Metal_State_Penalty>
-0

> <b_epik_Metal_Only>
0

> <s_lp_Force_Field>
OPLS_2005

> <r_lp_Energy>
21.3241

> <b_lp_Chiralities_Consistent>
1

> <s_lp_Variant>
AV-unprocessed.smi:2646-1

> <Gold.Version>
5.8.1

> <Gold.Id.Protein>
6NUR|6NUR_protein|mol2

> <Gold.PLP.Fitness>
46.2253

> <Gold.PLP.PLP>
-32.6699

> <Gold.PLP.part.hbond>
-4.0000

> <Gold.PLP.part.metal>
0.0000

> <Gold.PLP.part.buried>
-1.4570

> <Gold.PLP.part.nonpolar>
-27.2864

> <Gold.PLP.part.repulsive>
0.2546

> <Gold.PLP.ligand.clash>
0.0000

> <Gold.PLP.ligand.torsion>
0.4534

> <Gold.PLP.Chemscore.Hbond>
3.9920

> <Gold.PLP.Chemscore.CHOScore>
0.8044

> <Gold.PLP.Chemscore.Metal>
0.0000

> <Gold.Chemscore.Hbonds>
donor molecule, donor type, donor heavy atom, donor atom, acceptor molecule, acceptor atom, score
      L1  H     4    26       P1 10175  1.00
      L1  H     5    27       P1  7948  0.91
      L1  H     8    28       P1  7948  1.00
      P1  H  7989  7998       L1    13  0.62
      L1  C    12    31       P1  8028  0.74

> <Gold.PLP.Chemscore.Internal.Correction>
0.0730

> <Gold.Rescore>
     Score         DG    S(hbond)    S(metal)    S(lipo)     H(rot)  DE(clash)    DE(int)     intcor
     16.30     -21.28       3.25        0.00      85.75       1.98       1.63       3.35       ----

> <Gold.Chemscore.Fitness>
16.3046

> <Gold.Chemscore.DG>
-21.2842

> <Gold.Chemscore.ZeroCoef>
-5.4800

> <Gold.Chemscore.Hbond>
3.2453

> <Gold.Chemscore.Metal>
0.0000

> <Gold.Chemscore.Lipo>
85.7535

> <Gold.Chemscore.Internal_Hbond>
0.0000

> <Gold.Chemscore.DEClash>
1.6334

> <Gold.Chemscore.DEInternal>
3.3462

> <Gold.Chemscore.Rot>
1.9798

> <Gold.Chemscore.Internal.Correction>
   9.000000E+99

> <Gold.Chemscore.Hbonds>
donor molecule, donor type, donor heavy atom, donor atom, acceptor molecule, acceptor atom, score
      L1  H     4    26       P1 10175  0.99
      L1  H     5    27       P1  7948  0.85
      L1  H     8    28       P1  7948  1.00
      P1  H  7989  7998       L1    13  0.05

> <Gold.Chemscore.Hbond.Weighted>
-10.8392

> <Gold.Chemscore.Metal.Weighted>
-0.0000

> <Gold.Chemscore.Lipo.Weighted>
-10.0332

> <Gold.Chemscore.Internal_Hbond.Weighted>
0.0000

> <Gold.Chemscore.DEClash.Weighted>
1.6334

> <Gold.Chemscore.DEInternal.Weighted>
3.3462

> <Gold.Chemscore.Rot.Weighted>
5.0682

> <Gold.Chemscore.Internal.Correction.Weighted>
   9.000000E+99

> <Gold.Protein.RotatedTorsions>
[ 6907 6896 6895 6894 ] final -151.40 input  -60.11 | X-H torsion
[ 7974 7965 7964 7962 ] final   22.76 input  175.53 | X-H torsion
[ 8008 7997 7996 7995 ] final -109.11 input   59.86 | X-H torsion
[ 10167 10162 10161 10158 ] final  -44.81 input  -65.29 | X-H torsion
[ 10718 10713 10712 10709 ] final  106.83 input   66.30 | X-H torsion
[ 10763 10752 10751 10750 ] final  116.75 input  -60.55 | X-H torsion
[ 11005 11000 10999 10996 ] final  -70.41 input  -57.11 | X-H torsion

> <Gold.Protein.ActiveResidues>
 VAL166  LYS551  ARG553  GLY616  TRP617  ASP618  TYR619  PRO620  LYS621  CYS622 
 ASP623  PHE694  ASN695  SER759  ASP760  ASP761  ALA762  ILE779  LEU786  VAL792 
 PHE793  MET794  SER795  GLU796  ALA797  LYS798  CYS799  TRP800  GLU811  SER814 

> <Gold.Protein.RotatedAtoms>
  151.2126  133.4547  159.2598 H   0  0  0  0  0  0  0  0  0  0  0  0  # atno 6907 bound_to 6896
  151.0962  134.9945  159.8437 H   0  0  0  0  0  0  0  0  0  0  0  0  # atno 6908 bound_to 6896
  152.5439  134.2056  159.8782 H   0  0  0  0  0  0  0  0  0  0  0  0  # atno 6909 bound_to 6896
  146.2014  139.7839  142.8758 H   0  0  0  0  0  0  0  0  0  0  0  0  # atno 7974 bound_to 7965
  154.9545  140.0400  157.2160 H   0  0  0  0  0  0  0  0  0  0  0  0  # atno 8008 bound_to 7997
  154.7947  140.2841  155.5943 H   0  0  0  0  0  0  0  0  0  0  0  0  # atno 8009 bound_to 7997
  156.2954  140.2566  156.2803 H   0  0  0  0  0  0  0  0  0  0  0  0  # atno 8010 bound_to 7997
  140.6882  143.2911  151.3549 H   0  0  0  0  0  0  0  0  0  0  0  0  # atno 10167 bound_to 10162
  157.6653  131.0859  150.6065 H   0  0  0  0  0  0  0  0  0  0  0  0  # atno 10718 bound_to 10713
  153.5420  135.3557  155.2722 H   0  0  0  0  0  0  0  0  0  0  0  0  # atno 10763 bound_to 10752
  154.8716  135.4093  154.3033 H   0  0  0  0  0  0  0  0  0  0  0  0  # atno 10764 bound_to 10752
  153.3742  135.7065  153.6683 H   0  0  0  0  0  0  0  0  0  0  0  0  # atno 10765 bound_to 10752
  141.1573  133.6789  156.6749 H   0  0  0  0  0  0  0  0  0  0  0  0  # atno 11005 bound_to 11000
  145.3469  141.0299  143.3360 LP  0  0  0  0  0  0  0  0  0  0  0  0  # atno 17320 bound_to 7965
  144.8693  139.5062  143.6775 LP  0  0  0  0  0  0  0  0  0  0  0  0  # atno 17321 bound_to 7965
  139.6260  144.0814  152.2434 LP  0  0  0  0  0  0  0  0  0  0  0  0  # atno 17342 bound_to 10162
  140.0273  144.6108  150.7517 LP  0  0  0  0  0  0  0  0  0  0  0  0  # atno 17343 bound_to 10162
  156.6366  130.4446  149.5767 LP  0  0  0  0  0  0  0  0  0  0  0  0  # atno 17370 bound_to 10713
  156.2241  130.6755  151.1398 LP  0  0  0  0  0  0  0  0  0  0  0  0  # atno 17371 bound_to 10713
  140.3147  134.8057  157.4204 LP  0  0  0  0  0  0  0  0  0  0  0  0  # atno 17394 bound_to 11000
  140.1149  134.5297  155.8234 LP  0  0  0  0  0  0  0  0  0  0  0  0  # atno 17395 bound_to 11000

$$$$
