AV-unprocessed.smi:978|AV-procd|sdf|4308|dock8
  -GOLD-   22720 2213D 1   1.00000     0.00000
 Structure written by MMmdl.
 39 40  0  0  0  0  0  0  0  0  2 V2000
  149.7146  131.0512  154.6129 C   0  0  0  0  0  0  0  0  0  0  0  0
  150.1691  132.3801  155.1497 C   0  0  0  0  0  0  0  0  0  0  0  0
  151.0476  132.4056  156.1414 N   0  0  0  0  0  0  0  0  0  0  0  0
  151.2337  133.7542  156.4817 O   0  0  0  0  0  0  0  0  0  0  0  0
  150.4545  134.5219  155.6763 C   0  0  0  0  0  0  0  0  0  0  0  0
  150.4984  135.9964  155.8957 C   0  0  0  0  0  0  0  0  0  0  0  0
  149.7892  133.7108  154.8049 C   0  0  0  0  0  0  0  0  0  0  0  0
  148.8628  134.1638  153.8318 N   0  0  0  0  0  0  0  0  0  0  0  0
  147.7946  133.4992  153.3657 C   0  0  0  0  0  0  0  0  0  0  0  0
  147.4641  132.3651  153.7102 O   0  0  0  0  0  0  0  0  0  0  0  0
  147.1310  134.2183  152.4490 N   0  0  0  0  0  0  0  0  0  0  0  0
  145.9393  133.7694  151.7345 C   0  0  2  0  0  0  0  0  0  0  0  0
  146.2690  132.5231  150.8964 C   0  0  0  0  0  0  0  0  0  0  0  0
  145.0535  132.0721  150.0682 C   0  0  0  0  0  0  0  0  0  0  0  0
  144.5579  133.1723  149.2040 N   0  3  1  0  0  0  0  0  0  0  0  0
  143.4633  132.7371  148.3100 C   0  0  0  0  0  0  0  0  0  0  0  0
  144.1982  134.3785  149.9903 C   0  0  0  0  0  0  0  0  0  0  0  0
  145.3955  134.8795  150.8149 C   0  0  0  0  0  0  0  0  0  0  0  0
  148.6695  131.0859  154.3055 H   0  0  0  0  0  0  0  0  0  0  0  0
  149.8050  130.2653  155.3635 H   0  0  0  0  0  0  0  0  0  0  0  0
  150.3105  130.7526  153.7505 H   0  0  0  0  0  0  0  0  0  0  0  0
  149.7173  136.5013  155.3271 H   0  0  0  0  0  0  0  0  0  0  0  0
  151.4603  136.4039  155.5843 H   0  0  0  0  0  0  0  0  0  0  0  0
  150.3548  136.2346  156.9498 H   0  0  0  0  0  0  0  0  0  0  0  0
  149.0909  135.0357  153.3771 H   0  0  0  0  0  0  0  0  0  0  0  0
  147.4796  135.1391  152.2247 H   0  0  0  0  0  0  0  0  0  0  0  0
  145.1703  133.4997  152.4614 H   0  0  0  0  0  0  0  0  0  0  0  0
  147.1039  132.7353  150.2266 H   0  0  0  0  0  0  0  0  0  0  0  0
  146.5931  131.7095  151.5468 H   0  0  0  0  0  0  0  0  0  0  0  0
  145.3331  131.2189  149.4490 H   0  0  0  0  0  0  0  0  0  0  0  0
  144.2525  131.7359  150.7287 H   0  0  0  0  0  0  0  0  0  0  0  0
  142.5840  132.4394  148.8830 H   0  0  0  0  0  0  0  0  0  0  0  0
  143.7774  131.8899  147.6995 H   0  0  0  0  0  0  0  0  0  0  0  0
  143.1747  133.5432  147.6349 H   0  0  0  0  0  0  0  0  0  0  0  0
  143.8654  135.1687  149.3159 H   0  0  0  0  0  0  0  0  0  0  0  0
  143.3589  134.1494  150.6490 H   0  0  0  0  0  0  0  0  0  0  0  0
  145.0944  135.7467  151.4043 H   0  0  0  0  0  0  0  0  0  0  0  0
  146.1825  135.2225  150.1412 H   0  0  0  0  0  0  0  0  0  0  0  0
  145.3270  133.4370  148.6050 H   0  0  0  0  0  0  0  0  0  0  0  0
  1  2  1  0  0  0  0
  1 19  1  0  0  0  0
  1 20  1  0  0  0  0
  1 21  1  0  0  0  0
  2  7  1  0  0  0  0
  2  3  2  0  0  0  0
  3  4  1  0  0  0  0
  4  5  1  0  0  0  0
  5  6  1  0  0  0  0
  5  7  2  0  0  0  0
  6 22  1  0  0  0  0
  6 23  1  0  0  0  0
  6 24  1  0  0  0  0
  7  8  1  0  0  0  0
  8  9  1  0  0  0  0
  8 25  1  0  0  0  0
  9 10  2  0  0  0  0
  9 11  1  0  0  0  0
 11 12  1  0  0  0  0
 11 26  1  0  0  0  0
 12 18  1  0  0  0  0
 12 13  1  0  0  0  0
 12 27  1  0  0  0  0
 13 14  1  0  0  0  0
 13 28  1  0  0  0  0
 13 29  1  0  0  0  0
 14 15  1  0  0  0  0
 14 30  1  0  0  0  0
 14 31  1  0  0  0  0
 15 16  1  0  0  0  0
 15 17  1  0  0  0  0
 15 39  1  0  0  0  0
 16 32  1  0  0  0  0
 16 33  1  0  0  0  0
 16 34  1  0  0  0  0
 17 18  1  0  0  0  0
 17 35  1  0  0  0  0
 17 36  1  0  0  0  0
 18 37  1  0  0  0  0
 18 38  1  0  0  0  0
M  CHG  1  15   1
M  END
> <s_m_source_file>
AV-unprocessed.smi

> <i_m_source_file_index>
978

> <i_lp_mmshare_version>
43012

> <i_f3d_flags>
0

> <s_epik_input>
W0NIM11jMW5vYyhbQ0gzXSljMVtOSF1DKD1PKVtOSF1bQ0hdMltDSDJdW0NIMl1OKFtDSDNdKVtDSDJdW0NIMl0y

> <s_epik_cmdline>
J2VwaWtfcHl0aG9uJywgJy1waCcsICc3LjAnLCAnLXRuJywgJzgnLCAnLW1hJywgJzIwMCcsICctbWV0YWxfYmluZGluZycsICctaW1hZScsICc8aW5maWxlLm1hZT4nLCAnLW9tYWUnLCAnPG91dGZpbGUubWFlPic=

> <r_epik_Ionization_Penalty>
0.00369783

> <r_epik_Ionization_Penalty_Charging>
0.00366825

> <r_epik_Ionization_Penalty_Neutral>
2.95799e-05

> <r_epik_State_Penalty>
0.00261101

> <r_epik_Charging_Adjusted_Penalty>
0.00627926

> <i_epik_Tot_Q>
1

> <i_epik_Tot_abs_Q>
1

> <r_epik_Metal_State_Penalty>
-0

> <b_epik_Metal_Only>
0

> <s_lp_Force_Field>
OPLS_2005

> <r_lp_Energy>
17.6402

> <b_lp_Chiralities_Consistent>
1

> <s_lp_Variant>
AV-unprocessed.smi:978-1

> <Gold.Version>
5.8.1

> <Gold.Id.Protein>
6NUR|6NUR_protein|mol2

> <Gold.PLP.Fitness>
40.9724

> <Gold.PLP.PLP>
-32.4747

> <Gold.PLP.part.hbond>
-3.0000

> <Gold.PLP.part.metal>
0.0000

> <Gold.PLP.part.buried>
-1.9283

> <Gold.PLP.part.nonpolar>
-27.5899

> <Gold.PLP.part.repulsive>
0.2520

> <Gold.PLP.ligand.clash>
0.0000

> <Gold.PLP.ligand.torsion>
0.1836

> <Gold.PLP.Chemscore.Hbond>
2.8700

> <Gold.PLP.Chemscore.CHOScore>
0.0000

> <Gold.PLP.Chemscore.Metal>
0.0000

> <Gold.Chemscore.Hbonds>
donor molecule, donor type, donor heavy atom, donor atom, acceptor molecule, acceptor atom, score
      L1  H     8    25       P1  7948  0.95
      L1  H    11    26       P1  7948  0.94
      L1  H    15    39       P1  7921  0.94

> <Gold.PLP.Chemscore.Internal.Correction>
0.2549

> <Gold.Rescore>
     Score         DG    S(hbond)    S(metal)    S(lipo)     H(rot)  DE(clash)    DE(int)     intcor
     16.31     -19.37       2.21        0.00      77.60       1.00       0.67       2.39       ----

> <Gold.Chemscore.Fitness>
16.3135

> <Gold.Chemscore.DG>
-19.3685

> <Gold.Chemscore.ZeroCoef>
-5.4800

> <Gold.Chemscore.Hbond>
2.2064

> <Gold.Chemscore.Metal>
0.0000

> <Gold.Chemscore.Lipo>
77.5997

> <Gold.Chemscore.Internal_Hbond>
0.0000

> <Gold.Chemscore.DEClash>
0.6691

> <Gold.Chemscore.DEInternal>
2.3859

> <Gold.Chemscore.Rot>
1.0000

> <Gold.Chemscore.Internal.Correction>
   9.000000E+99

> <Gold.Chemscore.Hbonds>
donor molecule, donor type, donor heavy atom, donor atom, acceptor molecule, acceptor atom, score
      L1  H     8    25       P1  7948  0.20
      L1  H    11    26       P1  7948  0.90
      L1  H    15    39       P1  7921  0.32

> <Gold.Chemscore.Hbond.Weighted>
-7.3693

> <Gold.Chemscore.Metal.Weighted>
-0.0000

> <Gold.Chemscore.Lipo.Weighted>
-9.0792

> <Gold.Chemscore.Internal_Hbond.Weighted>
0.0000

> <Gold.Chemscore.DEClash.Weighted>
0.6691

> <Gold.Chemscore.DEInternal.Weighted>
2.3859

> <Gold.Chemscore.Rot.Weighted>
2.5600

> <Gold.Chemscore.Internal.Correction.Weighted>
   9.000000E+99

> <Gold.Protein.RotatedTorsions>
[ 6907 6896 6895 6894 ] final -175.26 input  -60.11 | X-H torsion
[ 7974 7965 7964 7962 ] final  -41.72 input  175.53 | X-H torsion
[ 8008 7997 7996 7995 ] final  103.18 input   59.86 | X-H torsion
[ 10167 10162 10161 10158 ] final  103.28 input  -65.29 | X-H torsion
[ 10718 10713 10712 10709 ] final   83.02 input   66.30 | X-H torsion
[ 10763 10752 10751 10750 ] final -154.60 input  -60.55 | X-H torsion
[ 11005 11000 10999 10996 ] final  172.00 input  -57.11 | X-H torsion

> <Gold.Protein.ActiveResidues>
 VAL166  LYS551  ARG553  GLY616  TRP617  ASP618  TYR619  PRO620  LYS621  CYS622 
 ASP623  PHE694  ASN695  SER759  ASP760  ASP761  ALA762  ILE779  LEU786  VAL792 
 PHE793  MET794  SER795  GLU796  ALA797  LYS798  CYS799  TRP800  GLU811  SER814 

> <Gold.Protein.RotatedAtoms>
  151.5857  133.3372  159.3017 H   0  0  0  0  0  0  0  0  0  0  0  0  # atno 6907 bound_to 6896
  150.8288  134.7535  159.6847 H   0  0  0  0  0  0  0  0  0  0  0  0  # atno 6908 bound_to 6896
  152.4374  134.5665  159.9960 H   0  0  0  0  0  0  0  0  0  0  0  0  # atno 6909 bound_to 6896
  146.0184  140.6880  142.9190 H   0  0  0  0  0  0  0  0  0  0  0  0  # atno 7974 bound_to 7965
  156.1460  140.3169  155.8571 H   0  0  0  0  0  0  0  0  0  0  0  0  # atno 8008 bound_to 7997
  155.4063  140.0503  157.3051 H   0  0  0  0  0  0  0  0  0  0  0  0  # atno 8009 bound_to 7997
  154.5017  140.2131  155.9345 H   0  0  0  0  0  0  0  0  0  0  0  0  # atno 8010 bound_to 7997
  139.7276  144.7043  151.0772 H   0  0  0  0  0  0  0  0  0  0  0  0  # atno 10167 bound_to 10162
  157.6870  131.0073  150.2461 H   0  0  0  0  0  0  0  0  0  0  0  0  # atno 10718 bound_to 10713
  154.7847  135.3186  154.7913 H   0  0  0  0  0  0  0  0  0  0  0  0  # atno 10763 bound_to 10752
  153.8616  135.6853  153.4786 H   0  0  0  0  0  0  0  0  0  0  0  0  # atno 10764 bound_to 10752
  153.1494  135.4705  154.9553 H   0  0  0  0  0  0  0  0  0  0  0  0  # atno 10765 bound_to 10752
  140.3251  134.7405  157.4093 H   0  0  0  0  0  0  0  0  0  0  0  0  # atno 11005 bound_to 11000
  144.6980  140.3522  143.7179 LP  0  0  0  0  0  0  0  0  0  0  0  0  # atno 17320 bound_to 7965
  145.7232  139.1715  143.2473 LP  0  0  0  0  0  0  0  0  0  0  0  0  # atno 17321 bound_to 7965
  140.7765  143.5084  150.9683 LP  0  0  0  0  0  0  0  0  0  0  0  0  # atno 17342 bound_to 10162
  139.8772  143.7118  152.3161 LP  0  0  0  0  0  0  0  0  0  0  0  0  # atno 17343 bound_to 10162
  156.3066  130.3766  149.7700 LP  0  0  0  0  0  0  0  0  0  0  0  0  # atno 17370 bound_to 10713
  156.5313  130.8259  151.3238 LP  0  0  0  0  0  0  0  0  0  0  0  0  # atno 17371 bound_to 10713
  140.0909  134.5603  155.8446 LP  0  0  0  0  0  0  0  0  0  0  0  0  # atno 17394 bound_to 11000
  141.2077  133.6667  156.6324 LP  0  0  0  0  0  0  0  0  0  0  0  0  # atno 17395 bound_to 11000

$$$$
