#       Name:                AV-unprocessed.smi:2245
#       Creating user name   scv26
#       Creation time:       Fri Mar 27 12:28:20 2020


#       File generated by GOLD software.
#

@<TRIPOS>MOLECULE
AV-unprocessed.smi:2245
    48    49     1
SMALL
NO_CHARGES


@<TRIPOS>ATOM
      1 ****        -6.6995   0.8022   1.2792 C.3            1 S1                 0.0000
      2 ****        -5.2952   1.3264   1.0623 C.ar           1 S1                 0.0000
      3 ****        -5.0746   2.6561   0.6555 C.ar           1 S1                 0.0000
      4 ****        -3.7448   3.0824   0.4699 C.ar           1 S1                 0.0000
      5 ****        -3.4359   4.4984   0.0313 C.3            1 S1                 0.0000
      6 ****        -2.6787   2.2762   0.6617 N.ar           1 S1                 0.0000
      7 ****        -2.8790   0.9934   1.0533 C.ar           1 S1                 0.0000
      8 ****        -1.8283   0.0666   1.2856 N.am           1 S1                 0.0000
      9 ****        -0.5037   0.2605   1.1584 C.2            1 S1                 0.0000
     10 ****         0.0313   1.3075   0.7922 O.2            1 S1                 0.0000
     11 ****         0.1787  -0.8481   1.4809 N.am           1 S1                 0.0000
     12 ****         1.6308  -0.9954   1.4469 C.3            1 S1                 0.0000
     13 ****         2.0961  -1.7604   0.1935 C.3            1 S1                 0.0000
     14 ****         1.8304  -1.0440  -1.1289 C.3            1 S1                 0.0000
     15 ****         3.0207  -1.4459  -1.9898 C.3            1 S1                 0.0000
     16 ****         4.1183  -1.3923  -1.0347 N.3            1 S1                 0.0000
     17 ****         5.3471  -2.0313  -1.5023 C.3            1 S1                 0.0000
     18 ****         6.0561  -1.2447  -2.6221 C.3            1 S1                 0.0000
     19 ****         7.2442  -1.8042  -2.8468 F              1 S1                 0.0000
     20 ****         5.3619  -1.2762  -3.7594 F              1 S1                 0.0000
     21 ****         6.2480   0.0227  -2.2551 F              1 S1                 0.0000
     22 ****         3.6075  -2.0412   0.1699 C.3            1 S1                 0.0000
     23 ****        -4.1813   0.4863   1.2631 C.ar           1 S1                 0.0000
     24 ****        -7.4372   1.6017   1.2038 H              1 S1                 0.0000
     25 ****        -6.7878   0.3507   2.2676 H              1 S1                 0.0000
     26 ****        -6.9383   0.0450   0.5321 H              1 S1                 0.0000
     27 ****        -5.9015   3.3313   0.4896 H              1 S1                 0.0000
     28 ****        -4.3143   5.1383   0.1189 H              1 S1                 0.0000
     29 ****        -3.1081   4.5072  -1.0084 H              1 S1                 0.0000
     30 ****        -2.6430   4.9261   0.6459 H              1 S1                 0.0000
     31 ****        -2.1196  -0.8507   1.5886 H              1 S1                 0.0000
     32 ****        -0.3486  -1.6586   1.7709 H              1 S1                 0.0000
     33 ****         2.1302  -0.0269   1.5112 H              1 S1                 0.0000
     34 ****         1.9246  -1.5473   2.3400 H              1 S1                 0.0000
     35 ****         1.5857  -2.7247   0.1696 H              1 S1                 0.0000
     36 ****         0.8750  -1.3222  -1.5749 H              1 S1                 0.0000
     37 ****         1.8326   0.0383  -0.9904 H              1 S1                 0.0000
     38 ****         2.8934  -2.4600  -2.3725 H              1 S1                 0.0000
     39 ****         3.1645  -0.7665  -2.8297 H              1 S1                 0.0000
     40 ****         6.0287  -2.1011  -0.6533 H              1 S1                 0.0000
     41 ****         5.1440  -3.0539  -1.8239 H              1 S1                 0.0000
     42 ****         4.1242  -1.6653   1.0536 H              1 S1                 0.0000
     43 ****         3.7720  -3.1189   0.1205 H              1 S1                 0.0000
     44 ****        -4.3275  -0.5377   1.5756 H              1 S1                 0.0000
     45 ****        -1.7514   2.6214   0.5166 LP             1 S1                 0.0000
     46 ****        -0.5305   2.1019   0.5613 LP             1 S1                 0.0000
     47 ****         1.0276   1.3633   0.7258 LP             1 S1                 0.0000
     48 ****         4.3903  -0.4428  -0.8785 LP             1 S1                 0.0000
@<TRIPOS>BOND
    1    1    2 1     
    2    1   24 1     
    3    1   25 1     
    4    1   26 1     
    5    2   23 ar    
    6    2    3 ar    
    7    3    4 ar    
    8    3   27 1     
    9    4    5 1     
   10    4    6 ar    
   11    5   28 1     
   12    5   29 1     
   13    5   30 1     
   14    6    7 ar    
   15    7    8 1     
   16    7   23 ar    
   17    8    9 am    
   18    8   31 1     
   19    9   10 2     
   20    9   11 am    
   21   11   12 1     
   22   11   32 1     
   23   12   13 1     
   24   12   33 1     
   25   12   34 1     
   26   13   22 1     
   27   13   14 1     
   28   13   35 1     
   29   14   15 1     
   30   14   36 1     
   31   14   37 1     
   32   15   16 1     
   33   15   38 1     
   34   15   39 1     
   35   16   17 1     
   36   16   22 1     
   37   17   18 1     
   38   17   40 1     
   39   17   41 1     
   40   18   19 1     
   41   18   20 1     
   42   18   21 1     
   43   22   42 1     
   44   22   43 1     
   45   23   44 1     
   46    6   45 1     
   47   10   46 1     
   48   10   47 1     
   49   16   48 1     
@<TRIPOS>SUBSTRUCTURE
      1 S1             1
@<TRIPOS>SET
LONE_PAIRS      STATIC     ATOMS    <user>   **** ""
4 45 46 47 48
DONOR_HYDROGENS      STATIC     ATOMS    <user>   **** ""
2 31 32
ATOM$BLUE        STATIC     ATOMS    COLORGROUP SYSTEM
4 45 46 47 48
ATOM$RED        STATIC     ATOMS    COLORGROUP SYSTEM
2 31 32
