AV-unprocessed.smi:1139|AV-procd|sdf|4870|dock5
  -GOLD-   22720 3443D 1   1.00000     0.00000
 Structure written by MMmdl.
 43 44  0  0  0  0  0  0  0  0  2 V2000
  150.0420  138.9981  153.8593 C   0  0  0  0  0  0  0  0  0  0  0  0
  148.6874  139.6131  154.0649 C   0  0  0  0  0  0  0  0  0  0  0  0
  147.6057  138.8868  153.8399 N   0  0  0  0  0  0  0  0  0  0  0  0
  146.5187  139.7258  154.1027 O   0  0  0  0  0  0  0  0  0  0  0  0
  146.9950  140.9406  154.4768 C   0  0  0  0  0  0  0  0  0  0  0  0
  145.9842  141.9893  154.7968 C   0  0  0  0  0  0  0  0  0  0  0  0
  148.3627  140.9388  154.4751 C   0  0  0  0  0  0  0  0  0  0  0  0
  149.2997  142.0682  154.8173 C   0  0  0  0  0  0  0  0  0  0  0  0
  150.1668  141.6684  156.0107 C   0  0  0  0  0  0  0  0  0  0  0  0
  150.6529  140.5392  156.0696 O   0  0  0  0  0  0  0  0  0  0  0  0
  150.3424  142.5961  156.9625 N   0  0  0  0  0  0  0  0  0  0  0  0
  151.0901  142.3784  158.1945 C   0  0  0  0  0  0  0  0  0  0  0  0
  152.1971  143.4413  158.4004 C   0  0  1  0  0  0  0  0  0  0  0  0
  151.5912  144.8617  158.4678 C   0  0  0  0  0  0  0  0  0  0  0  0
  153.0047  143.1570  159.6225 N   0  3  0  0  0  0  0  0  0  0  0  0
  152.2575  143.1282  160.8992 C   0  0  0  0  0  0  0  0  0  0  0  0
  153.1540  142.3624  161.8647 C   0  0  0  0  0  0  0  0  0  0  0  0
  153.7741  141.2885  160.9789 C   0  0  0  0  0  0  0  0  0  0  0  0
  153.8079  141.9082  159.5749 C   0  0  0  0  0  0  0  0  0  0  0  0
  150.3778  139.1380  152.8319 H   0  0  0  0  0  0  0  0  0  0  0  0
  150.0300  137.9266  154.0626 H   0  0  0  0  0  0  0  0  0  0  0  0
  150.7855  139.4486  154.5167 H   0  0  0  0  0  0  0  0  0  0  0  0
  146.2032  142.9118  154.2590 H   0  0  0  0  0  0  0  0  0  0  0  0
  145.9848  142.2116  155.8638 H   0  0  0  0  0  0  0  0  0  0  0  0
  144.9804  141.6674  154.5188 H   0  0  0  0  0  0  0  0  0  0  0  0
  149.9539  142.3093  153.9785 H   0  0  0  0  0  0  0  0  0  0  0  0
  148.7534  142.9843  155.0446 H   0  0  0  0  0  0  0  0  0  0  0  0
  149.9102  143.4997  156.8344 H   0  0  0  0  0  0  0  0  0  0  0  0
  150.3985  142.3912  159.0389 H   0  0  0  0  0  0  0  0  0  0  0  0
  151.5175  141.3761  158.1454 H   0  0  0  0  0  0  0  0  0  0  0  0
  152.8704  143.3977  157.5423 H   0  0  0  0  0  0  0  0  0  0  0  0
  151.0453  145.1105  157.5581 H   0  0  0  0  0  0  0  0  0  0  0  0
  152.3535  145.6316  158.5835 H   0  0  0  0  0  0  0  0  0  0  0  0
  150.8978  144.9549  159.3044 H   0  0  0  0  0  0  0  0  0  0  0  0
  152.0313  144.1305  161.2642 H   0  0  0  0  0  0  0  0  0  0  0  0
  151.3170  142.5908  160.7650 H   0  0  0  0  0  0  0  0  0  0  0  0
  153.9333  143.0218  162.2498 H   0  0  0  0  0  0  0  0  0  0  0  0
  152.6096  141.9507  162.7150 H   0  0  0  0  0  0  0  0  0  0  0  0
  154.7612  140.9820  161.3261 H   0  0  0  0  0  0  0  0  0  0  0  0
  153.1360  140.4038  160.9742 H   0  0  0  0  0  0  0  0  0  0  0  0
  153.4056  141.1963  158.8524 H   0  0  0  0  0  0  0  0  0  0  0  0
  154.8274  142.1490  159.2719 H   0  0  0  0  0  0  0  0  0  0  0  0
  153.6707  143.9107  159.7162 H   0  0  0  0  0  0  0  0  0  0  0  0
  1  2  1  0  0  0  0
  1 20  1  0  0  0  0
  1 21  1  0  0  0  0
  1 22  1  0  0  0  0
  2  7  1  0  0  0  0
  2  3  2  0  0  0  0
  3  4  1  0  0  0  0
  4  5  1  0  0  0  0
  5  6  1  0  0  0  0
  5  7  2  0  0  0  0
  6 23  1  0  0  0  0
  6 24  1  0  0  0  0
  6 25  1  0  0  0  0
  7  8  1  0  0  0  0
  8  9  1  0  0  0  0
  8 26  1  0  0  0  0
  8 27  1  0  0  0  0
  9 10  2  0  0  0  0
  9 11  1  0  0  0  0
 11 12  1  0  0  0  0
 11 28  1  0  0  0  0
 12 13  1  0  0  0  0
 12 29  1  0  0  0  0
 12 30  1  0  0  0  0
 13 14  1  0  0  0  0
 13 15  1  0  0  0  0
 13 31  1  0  0  0  0
 14 32  1  0  0  0  0
 14 33  1  0  0  0  0
 14 34  1  0  0  0  0
 15 19  1  0  0  0  0
 15 16  1  0  0  0  0
 15 43  1  0  0  0  0
 16 17  1  0  0  0  0
 16 35  1  0  0  0  0
 16 36  1  0  0  0  0
 17 18  1  0  0  0  0
 17 37  1  0  0  0  0
 17 38  1  0  0  0  0
 18 19  1  0  0  0  0
 18 39  1  0  0  0  0
 18 40  1  0  0  0  0
 19 41  1  0  0  0  0
 19 42  1  0  0  0  0
M  CHG  1  15   1
M  END
> <s_m_source_file>
AV-unprocessed.smi

> <i_m_source_file_index>
1139

> <i_lp_mmshare_version>
43012

> <i_f3d_flags>
0

> <s_epik_input>
W0NIM11jMW5vYyhbQ0gzXSljMVtDSDJdQyg9TylbTkhdW0NIMl1bQ0BIXShbQ0gzXSlOMltDSDJdW0NIMl1bQ0gyXVtDSDJdMg==

> <s_epik_cmdline>
J2VwaWtfcHl0aG9uJywgJy1waCcsICc3LjAnLCAnLXRuJywgJzgnLCAnLW1hJywgJzIwMCcsICctbWV0YWxfYmluZGluZycsICctaW1hZScsICc8aW5maWxlLm1hZT4nLCAnLW9tYWUnLCAnPG91dGZpbGUubWFlPic=

> <r_epik_Ionization_Penalty>
0.0050436

> <r_epik_Ionization_Penalty_Charging>
0.0050435

> <r_epik_Ionization_Penalty_Neutral>
9.69799e-08

> <r_epik_State_Penalty>
0.00366867

> <r_epik_Charging_Adjusted_Penalty>
0.00871217

> <i_epik_Tot_Q>
1

> <i_epik_Tot_abs_Q>
1

> <r_epik_Metal_State_Penalty>
-0

> <b_epik_Metal_Only>
0

> <s_lp_Force_Field>
OPLS_2005

> <r_lp_Energy>
24.7849

> <b_lp_Chiralities_Consistent>
1

> <s_lp_Variant>
AV-unprocessed.smi:1139-2

> <Gold.Version>
5.8.1

> <Gold.Id.Protein>
6NUR|6NUR_protein|mol2

> <Gold.PLP.Fitness>
45.0824

> <Gold.PLP.PLP>
-42.6019

> <Gold.PLP.part.hbond>
-1.0000

> <Gold.PLP.part.metal>
0.0000

> <Gold.PLP.part.buried>
-4.5386

> <Gold.PLP.part.nonpolar>
-36.8342

> <Gold.PLP.part.repulsive>
0.3666

> <Gold.PLP.ligand.clash>
0.0000

> <Gold.PLP.ligand.torsion>
0.2772

> <Gold.PLP.Chemscore.Hbond>
1.0000

> <Gold.PLP.Chemscore.CHOScore>
0.0000

> <Gold.PLP.Chemscore.Metal>
0.0000

> <Gold.Chemscore.Hbonds>
donor molecule, donor type, donor heavy atom, donor atom, acceptor molecule, acceptor atom, score
      L1  H    11    28       P1  8028  0.98

> <Gold.PLP.Chemscore.Internal.Correction>
0.0349

> <Gold.Rescore>
     Score         DG    S(hbond)    S(metal)    S(lipo)     H(rot)  DE(clash)    DE(int)     intcor
     17.12     -17.54       0.99        0.00     112.46       1.72       0.00       0.41       ----

> <Gold.Chemscore.Fitness>
17.1232

> <Gold.Chemscore.DG>
-17.5373

> <Gold.Chemscore.ZeroCoef>
-5.4800

> <Gold.Chemscore.Hbond>
0.9884

> <Gold.Chemscore.Metal>
0.0000

> <Gold.Chemscore.Lipo>
112.4594

> <Gold.Chemscore.Internal_Hbond>
0.0000

> <Gold.Chemscore.DEClash>
0.0000

> <Gold.Chemscore.DEInternal>
0.4140

> <Gold.Chemscore.Rot>
1.7195

> <Gold.Chemscore.Internal.Correction>
   9.000000E+99

> <Gold.Chemscore.Hbonds>
donor molecule, donor type, donor heavy atom, donor atom, acceptor molecule, acceptor atom, score
      L1  H    11    28       P1  8028  0.92

> <Gold.Chemscore.Hbond.Weighted>
-3.3013

> <Gold.Chemscore.Metal.Weighted>
-0.0000

> <Gold.Chemscore.Lipo.Weighted>
-13.1577

> <Gold.Chemscore.Internal_Hbond.Weighted>
0.0000

> <Gold.Chemscore.DEClash.Weighted>
0.0000

> <Gold.Chemscore.DEInternal.Weighted>
0.4140

> <Gold.Chemscore.Rot.Weighted>
4.4018

> <Gold.Chemscore.Internal.Correction.Weighted>
   9.000000E+99

> <Gold.Protein.RotatedTorsions>
[ 6907 6896 6895 6894 ] final   93.89 input  -60.11 | X-H torsion
[ 7974 7965 7964 7962 ] final  101.41 input  175.53 | X-H torsion
[ 8008 7997 7996 7995 ] final -170.58 input   59.86 | X-H torsion
[ 10167 10162 10161 10158 ] final  114.77 input  -65.29 | X-H torsion
[ 10718 10713 10712 10709 ] final  -28.29 input   66.30 | X-H torsion
[ 10763 10752 10751 10750 ] final  164.00 input  -60.55 | X-H torsion
[ 11005 11000 10999 10996 ] final   -3.54 input  -57.11 | X-H torsion

> <Gold.Protein.ActiveResidues>
 VAL166  LYS551  ARG553  GLY616  TRP617  ASP618  TYR619  PRO620  LYS621  CYS622 
 ASP623  PHE694  ASN695  SER759  ASP760  ASP761  ALA762  ILE779  LEU786  VAL792 
 PHE793  MET794  SER795  GLU796  ALA797  LYS798  CYS799  TRP800  GLU811  SER814 

> <Gold.Protein.RotatedAtoms>
  152.5451  134.1277  159.8425 H   0  0  0  0  0  0  0  0  0  0  0  0  # atno 6907 bound_to 6896
  151.1326  133.5019  159.2606 H   0  0  0  0  0  0  0  0  0  0  0  0  # atno 6908 bound_to 6896
  151.1658  135.0305  159.8785 H   0  0  0  0  0  0  0  0  0  0  0  0  # atno 6909 bound_to 6896
  145.3727  139.2395  143.3446 H   0  0  0  0  0  0  0  0  0  0  0  0  # atno 7974 bound_to 7965
  155.9203  140.1073  157.1212 H   0  0  0  0  0  0  0  0  0  0  0  0  # atno 8008 bound_to 7997
  154.4053  140.1257  156.4736 H   0  0  0  0  0  0  0  0  0  0  0  0  # atno 8009 bound_to 7997
  155.7204  140.3470  155.5016 H   0  0  0  0  0  0  0  0  0  0  0  0  # atno 8010 bound_to 7997
  139.6365  144.7120  151.2325 H   0  0  0  0  0  0  0  0  0  0  0  0  # atno 10167 bound_to 10162
  156.4272  130.4438  149.7143 H   0  0  0  0  0  0  0  0  0  0  0  0  # atno 10718 bound_to 10713
  154.3022  135.2759  155.2605 H   0  0  0  0  0  0  0  0  0  0  0  0  # atno 10763 bound_to 10752
  154.5037  135.5801  153.6554 H   0  0  0  0  0  0  0  0  0  0  0  0  # atno 10764 bound_to 10752
  152.9899  135.6164  154.3193 H   0  0  0  0  0  0  0  0  0  0  0  0  # atno 10765 bound_to 10752
  140.6705  133.9241  155.8491 H   0  0  0  0  0  0  0  0  0  0  0  0  # atno 11005 bound_to 11000
  146.2878  140.4380  142.8751 LP  0  0  0  0  0  0  0  0  0  0  0  0  # atno 17320 bound_to 7965
  144.8565  140.7077  143.6135 LP  0  0  0  0  0  0  0  0  0  0  0  0  # atno 17321 bound_to 7965
  140.7468  143.6388  150.8354 LP  0  0  0  0  0  0  0  0  0  0  0  0  # atno 17342 bound_to 10162
  140.0019  143.5734  152.2872 LP  0  0  0  0  0  0  0  0  0  0  0  0  # atno 17343 bound_to 10162
  156.4060  130.7698  151.2709 LP  0  0  0  0  0  0  0  0  0  0  0  0  # atno 17370 bound_to 10713
  157.7508  131.0225  150.3797 LP  0  0  0  0  0  0  0  0  0  0  0  0  # atno 17371 bound_to 10713
  141.0396  134.0640  157.3918 LP  0  0  0  0  0  0  0  0  0  0  0  0  # atno 17394 bound_to 11000
  139.8983  135.0154  156.7142 LP  0  0  0  0  0  0  0  0  0  0  0  0  # atno 17395 bound_to 11000

$$$$
