AV-unprocessed.smi:107|AV-procd|sdf|1020|dock4
  -GOLD-   2262018 23D 1   1.00000     0.00000
 Structure written by MMmdl.
 31 32  0  0  0  0  0  0  0  0  1 V2000
  140.8148  137.7014  153.5460 C   0  0  0  0  0  0  0  0  0  0  0  0
  141.9304  136.6813  153.3882 C   0  0  0  0  0  0  0  0  0  0  0  0
  143.2136  137.0404  153.1258 C   0  0  0  0  0  0  0  0  0  0  0  0
  144.2535  136.1300  152.9719 N   0  0  0  0  0  0  0  0  0  0  0  0
  145.6837  136.5525  152.6892 C   0  0  1  0  0  0  0  0  0  0  0  0
  145.7865  137.2721  151.3301 C   0  0  0  0  0  0  0  0  0  0  0  0
  146.4303  138.6021  151.6839 C   0  0  2  0  0  0  0  0  0  0  0  0
  147.8345  138.5383  151.5138 O   0  0  0  0  0  0  0  0  0  0  0  0
  146.0375  138.7866  153.1533 C   0  0  2  0  0  0  0  0  0  0  0  0
  146.9224  139.7481  153.9644 C   0  0  0  0  0  0  0  0  0  0  0  0
  147.4993  140.7103  153.1076 O   0  0  0  0  0  0  0  0  0  0  0  0
  146.1180  137.4589  153.6601 O   0  0  0  0  0  0  0  0  0  0  0  0
  143.9869  134.7527  153.1198 C   0  0  0  0  0  0  0  0  0  0  0  0
  144.8608  133.8920  153.0213 O   0  0  0  0  0  0  0  0  0  0  0  0
  142.6701  134.3839  153.3856 N   0  0  0  0  0  0  0  0  0  0  0  0
  141.5940  135.2622  153.5296 C   0  0  0  0  0  0  0  0  0  0  0  0
  140.4719  134.8150  153.7610 O   0  0  0  0  0  0  0  0  0  0  0  0
  142.4775  133.3980  153.4854 H   0  0  0  0  0  0  0  0  0  0  0  0
  141.1849  138.7234  153.4594 H   0  0  0  0  0  0  0  0  0  0  0  0
  140.3400  137.6007  154.5225 H   0  0  0  0  0  0  0  0  0  0  0  0
  140.0546  137.5544  152.7783 H   0  0  0  0  0  0  0  0  0  0  0  0
  143.4169  138.0966  153.0377 H   0  0  0  0  0  0  0  0  0  0  0  0
  146.2772  135.6388  152.7566 H   0  0  0  0  0  0  0  0  0  0  0  0
  146.3612  136.6814  150.6156 H   0  0  0  0  0  0  0  0  0  0  0  0
  144.7897  137.4382  150.9186 H   0  0  0  0  0  0  0  0  0  0  0  0
  146.0480  139.4120  151.0618 H   0  0  0  0  0  0  0  0  0  0  0  0
  148.1934  139.4039  151.6364 H   0  0  0  0  0  0  0  0  0  0  0  0
  144.9983  139.1199  153.1836 H   0  0  0  0  0  0  0  0  0  0  0  0
  146.3567  140.2382  154.7574 H   0  0  0  0  0  0  0  0  0  0  0  0
  147.7389  139.2000  154.4354 H   0  0  0  0  0  0  0  0  0  0  0  0
  148.0980  140.2718  152.5224 H   0  0  0  0  0  0  0  0  0  0  0  0
  1  2  1  0  0  0  0
  1 19  1  0  0  0  0
  1 20  1  0  0  0  0
  1 21  1  0  0  0  0
  2 16  1  0  0  0  0
  2  3  2  0  0  0  0
  3  4  1  0  0  0  0
  3 22  1  0  0  0  0
  4  5  1  0  0  0  0
  4 13  1  0  0  0  0
  5 12  1  0  0  0  0
  5  6  1  0  0  0  0
  5 23  1  0  0  0  0
  6  7  1  0  0  0  0
  6 24  1  0  0  0  0
  6 25  1  0  0  0  0
  7  8  1  0  0  0  0
  7  9  1  0  0  0  0
  7 26  1  0  0  0  0
  8 27  1  0  0  0  0
  9 10  1  0  0  0  0
  9 12  1  0  0  0  0
  9 28  1  0  0  0  0
 10 11  1  0  0  0  0
 10 29  1  0  0  0  0
 10 30  1  0  0  0  0
 11 31  1  0  0  0  0
 13 14  2  0  0  0  0
 13 15  1  0  0  0  0
 15 18  1  0  0  0  0
 15 16  1  0  0  0  0
 16 17  2  0  0  0  0
M  END
> <s_m_source_file>
AV-unprocessed.smi

> <i_m_source_file_index>
107

> <i_lp_mmshare_version>
43012

> <i_f3d_flags>
0

> <s_epik_input>
Tz1jMVtuSF1jKD1PKW4oW2NIXWMxW0NIM10pW0NAQEhdMltDSDJdW0NAQEhdKFtPSF0pW0NASF0oTzIpW0NIMl1bT0hd

> <s_epik_cmdline>
J2VwaWtfcHl0aG9uJywgJy1waCcsICc3LjAnLCAnLXRuJywgJzgnLCAnLW1hJywgJzIwMCcsICctbWV0YWxfYmluZGluZycsICctaW1hZScsICc8aW5maWxlLm1hZT4nLCAnLW9tYWUnLCAnPG91dGZpbGUubWFlPic=

> <r_lp_tautomer_probability>
0.999537

> <r_epik_Ionization_Penalty>
0.00121888

> <r_epik_Ionization_Penalty_Charging>
0.00121876

> <r_epik_Ionization_Penalty_Neutral>
1.19946e-07

> <r_epik_State_Penalty>
0.000805124

> <r_epik_Charging_Adjusted_Penalty>
0.00202389

> <i_epik_Tot_Q>
0

> <i_epik_Tot_abs_Q>
0

> <r_epik_Metal_State_Penalty>
0.662472

> <b_epik_Metal_Only>
0

> <s_epik_Chemistry_Notes>
This compound contains an acetal/aminal-like group ( X-CH(R)-Y where X, Y are N, S, or O) that may be acid/base labile, releasing an aldehyde.

> <s_lp_Force_Field>
OPLS_2005

> <r_lp_Energy>
28.0991

> <b_lp_Chiralities_Consistent>
1

> <s_lp_Variant>
AV-unprocessed.smi:107-8

> <Gold.Version>
5.8.1

> <Gold.Id.Protein>
6NUR|6NUR_protein|mol2

> <Gold.PLP.Fitness>
39.8419

> <Gold.PLP.PLP>
-23.9892

> <Gold.PLP.part.hbond>
-5.8753

> <Gold.PLP.part.metal>
0.0000

> <Gold.PLP.part.buried>
1.3255

> <Gold.PLP.part.nonpolar>
-20.5774

> <Gold.PLP.part.repulsive>
0.4735

> <Gold.PLP.ligand.clash>
0.0000

> <Gold.PLP.ligand.torsion>
0.4903

> <Gold.PLP.Chemscore.Hbond>
4.6074

> <Gold.PLP.Chemscore.CHOScore>
1.0000

> <Gold.PLP.Chemscore.Metal>
0.0000

> <Gold.Chemscore.Hbonds>
donor molecule, donor type, donor heavy atom, donor atom, acceptor molecule, acceptor atom, score
      L1  H     8    27       P1  7957  0.59
      L1  H    11    31       P1  7957  0.99
      L1  H    15    18       P1 10957  0.79
      P1  H  7954  7966       L1     8  0.90
      P1  H 10995 11001       L1    17  0.02
      P1  H 11000 11005       L1    17  0.99
      L1  C     3    22       P1 10175  1.00

> <Gold.PLP.Chemscore.Internal.Correction>
0.0111

> <Gold.Rescore>
     Score         DG    S(hbond)    S(metal)    S(lipo)     H(rot)  DE(clash)    DE(int)     intcor
     15.85     -16.87       4.09        0.00      40.33       2.73       0.61       0.41       ----

> <Gold.Chemscore.Fitness>
15.8502

> <Gold.Chemscore.DG>
-16.8675

> <Gold.Chemscore.ZeroCoef>
-5.4800

> <Gold.Chemscore.Hbond>
4.0857

> <Gold.Chemscore.Metal>
0.0000

> <Gold.Chemscore.Lipo>
40.3254

> <Gold.Chemscore.Internal_Hbond>
0.0000

> <Gold.Chemscore.DEClash>
0.6102

> <Gold.Chemscore.DEInternal>
0.4071

> <Gold.Chemscore.Rot>
2.7253

> <Gold.Chemscore.Internal.Correction>
   9.000000E+99

> <Gold.Chemscore.Hbonds>
donor molecule, donor type, donor heavy atom, donor atom, acceptor molecule, acceptor atom, score
      L1  H     8    27       P1  7957  0.58
      L1  H    11    31       P1  7957  0.92
      L1  H    15    18       P1 10957  0.74
      P1  H  7954  7966       L1     8  0.51
      P1  H 10995 11001       L1    17  0.02
      P1  H 11000 11005       L1    17  0.65

> <Gold.Chemscore.Hbond.Weighted>
-13.6462

> <Gold.Chemscore.Metal.Weighted>
-0.0000

> <Gold.Chemscore.Lipo.Weighted>
-4.7181

> <Gold.Chemscore.Internal_Hbond.Weighted>
0.0000

> <Gold.Chemscore.DEClash.Weighted>
0.6102

> <Gold.Chemscore.DEInternal.Weighted>
0.4071

> <Gold.Chemscore.Rot.Weighted>
6.9769

> <Gold.Chemscore.Internal.Correction.Weighted>
   9.000000E+99

> <Gold.Protein.RotatedTorsions>
[ 6907 6896 6895 6894 ] final -120.59 input  -60.11 | X-H torsion
[ 7974 7965 7964 7962 ] final   55.58 input  175.53 | X-H torsion
[ 8008 7997 7996 7995 ] final -170.72 input   59.86 | X-H torsion
[ 10167 10162 10161 10158 ] final  -57.78 input  -65.29 | X-H torsion
[ 10718 10713 10712 10709 ] final  -82.27 input   66.30 | X-H torsion
[ 10763 10752 10751 10750 ] final   96.37 input  -60.55 | X-H torsion
[ 11005 11000 10999 10996 ] final   22.55 input  -57.11 | X-H torsion

> <Gold.Protein.ActiveResidues>
 VAL166  LYS551  ARG553  GLY616  TRP617  ASP618  TYR619  PRO620  LYS621  CYS622 
 ASP623  PHE694  ASN695  SER759  ASP760  ASP761  ALA762  ILE779  LEU786  VAL792 
 PHE793  MET794  SER795  GLU796  ALA797  LYS798  CYS799  TRP800  GLU811  SER814 

> <Gold.Protein.RotatedAtoms>
  150.8406  133.7942  159.3062 H   0  0  0  0  0  0  0  0  0  0  0  0  # atno 6907 bound_to 6896
  151.5644  135.1063  159.9990 H   0  0  0  0  0  0  0  0  0  0  0  0  # atno 6908 bound_to 6896
  152.4471  133.7514  159.6752 H   0  0  0  0  0  0  0  0  0  0  0  0  # atno 6909 bound_to 6896
  145.9488  139.3954  143.0318 H   0  0  0  0  0  0  0  0  0  0  0  0  # atno 7974 bound_to 7965
  155.9220  140.1076  157.1199 H   0  0  0  0  0  0  0  0  0  0  0  0  # atno 8008 bound_to 7997
  154.4056  140.1254  156.4757 H   0  0  0  0  0  0  0  0  0  0  0  0  # atno 8009 bound_to 7997
  155.7184  140.3470  155.5007 H   0  0  0  0  0  0  0  0  0  0  0  0  # atno 8010 bound_to 7997
  140.6237  143.2429  151.5417 H   0  0  0  0  0  0  0  0  0  0  0  0  # atno 10167 bound_to 10162
  156.0036  130.4629  150.4079 H   0  0  0  0  0  0  0  0  0  0  0  0  # atno 10718 bound_to 10713
  153.2641  135.4221  155.0924 H   0  0  0  0  0  0  0  0  0  0  0  0  # atno 10763 bound_to 10752
  154.8431  135.3456  154.6336 H   0  0  0  0  0  0  0  0  0  0  0  0  # atno 10764 bound_to 10752
  153.6756  135.7041  153.5191 H   0  0  0  0  0  0  0  0  0  0  0  0  # atno 10765 bound_to 10752
  140.3794  134.1937  155.7664 H   0  0  0  0  0  0  0  0  0  0  0  0  # atno 11005 bound_to 11000
  145.8199  140.9684  143.0904 LP  0  0  0  0  0  0  0  0  0  0  0  0  # atno 17320 bound_to 7965
  144.6792  140.0028  143.7484 LP  0  0  0  0  0  0  0  0  0  0  0  0  # atno 17321 bound_to 7965
  139.5461  144.2518  152.1444 LP  0  0  0  0  0  0  0  0  0  0  0  0  # atno 17342 bound_to 10162
  140.1744  144.4905  150.6562 LP  0  0  0  0  0  0  0  0  0  0  0  0  # atno 17343 bound_to 10162
  157.2144  131.0468  151.2581 LP  0  0  0  0  0  0  0  0  0  0  0  0  # atno 17370 bound_to 10713
  157.3859  130.7256  149.6663 LP  0  0  0  0  0  0  0  0  0  0  0  0  # atno 17371 bound_to 10713
  141.1928  133.8164  157.0823 LP  0  0  0  0  0  0  0  0  0  0  0  0  # atno 17394 bound_to 11000
  140.0490  134.9815  157.1102 LP  0  0  0  0  0  0  0  0  0  0  0  0  # atno 17395 bound_to 11000

$$$$
