AV-unprocessed.smi:285|AV-procd|sdf|2168|dock9
  -GOLD-   2262021533D 1   1.00000     0.00000
 Structure written by MMmdl.
 31 33  0  0  0  0  0  0  0  0  1 V2000
  143.0807  144.7793  158.0892 N   0  0  0  0  0  0  0  0  0  0  0  0
  144.0862  143.9705  157.7269 C   0  0  0  0  0  0  0  0  0  0  0  0
  144.6478  143.1801  158.6713 N   0  0  0  0  0  0  0  0  0  0  0  0
  145.6532  142.3645  158.3367 C   0  0  0  0  0  0  0  0  0  0  0  0
  146.2293  142.1935  157.1437 N   0  0  0  0  0  0  0  0  0  0  0  0
  145.6609  142.9905  156.1908 C   0  0  0  0  0  0  0  0  0  0  0  0
  144.5882  143.9054  156.4026 C   0  0  0  0  0  0  0  0  0  0  0  0
  144.2674  144.5523  155.2154 N   0  0  0  0  0  0  0  0  0  0  0  0
  145.1124  144.0339  154.3684 C   0  0  0  0  0  0  0  0  0  0  0  0
  145.1187  144.5937  152.5480 Br  0  0  0  0  0  0  0  0  0  0  0  0
  145.9889  143.0897  154.8533 N   0  0  0  0  0  0  0  0  0  0  0  0
  147.0525  142.3283  154.1317 C   0  0  1  0  0  0  0  0  0  0  0  0
  148.0802  141.7514  155.0996 C   0  0  0  0  0  0  0  0  0  0  0  0
  148.4733  140.4461  154.4161 C   0  0  2  0  0  0  0  0  0  0  0  0
  149.8191  140.4957  153.9854 O   0  0  0  0  0  0  0  0  0  0  0  0
  147.5157  140.3192  153.2134 C   0  0  1  0  0  0  0  0  0  0  0  0
  146.9291  138.9095  153.0442 C   0  0  0  0  0  0  0  0  0  0  0  0
  145.9743  138.9018  152.0043 O   0  0  0  0  0  0  0  0  0  0  0  0
  146.4714  141.2390  153.5040 O   0  0  0  0  0  0  0  0  0  0  0  0
  142.6450  145.3794  157.4035 H   0  0  0  0  0  0  0  0  0  0  0  0
  142.7593  144.7864  159.0465 H   0  0  0  0  0  0  0  0  0  0  0  0
  146.0531  141.7623  159.1391 H   0  0  0  0  0  0  0  0  0  0  0  0
  147.4804  143.0093  153.3957 H   0  0  0  0  0  0  0  0  0  0  0  0
  148.9010  142.4541  155.2502 H   0  0  0  0  0  0  0  0  0  0  0  0
  147.6146  141.5437  156.0638 H   0  0  0  0  0  0  0  0  0  0  0  0
  148.3503  139.6172  155.1145 H   0  0  0  0  0  0  0  0  0  0  0  0
  149.8452  140.3303  153.0554 H   0  0  0  0  0  0  0  0  0  0  0  0
  148.0200  140.6441  152.3004 H   0  0  0  0  0  0  0  0  0  0  0  0
  147.7156  138.2068  152.7675 H   0  0  0  0  0  0  0  0  0  0  0  0
  146.4847  138.5510  153.9735 H   0  0  0  0  0  0  0  0  0  0  0  0
  145.2127  139.3816  152.2919 H   0  0  0  0  0  0  0  0  0  0  0  0
  1  2  1  0  0  0  0
  1 20  1  0  0  0  0
  1 21  1  0  0  0  0
  2  7  1  0  0  0  0
  2  3  2  0  0  0  0
  3  4  1  0  0  0  0
  4  5  2  0  0  0  0
  4 22  1  0  0  0  0
  5  6  1  0  0  0  0
  6 11  1  0  0  0  0
  6  7  2  0  0  0  0
  7  8  1  0  0  0  0
  8  9  2  0  0  0  0
  9 10  1  0  0  0  0
  9 11  1  0  0  0  0
 11 12  1  0  0  0  0
 12 19  1  0  0  0  0
 12 13  1  0  0  0  0
 12 23  1  0  0  0  0
 13 14  1  0  0  0  0
 13 24  1  0  0  0  0
 13 25  1  0  0  0  0
 14 15  1  0  0  0  0
 14 16  1  0  0  0  0
 14 26  1  0  0  0  0
 15 27  1  0  0  0  0
 16 17  1  0  0  0  0
 16 19  1  0  0  0  0
 16 28  1  0  0  0  0
 17 18  1  0  0  0  0
 17 29  1  0  0  0  0
 17 30  1  0  0  0  0
 18 31  1  0  0  0  0
M  END
> <s_m_source_file>
AV-unprocessed.smi

> <i_m_source_file_index>
285

> <i_lp_mmshare_version>
43012

> <i_f3d_flags>
0

> <s_epik_input>
bjFbY0hdbmMoW05IMl0pYyhjMTIpbmMoQnIpbjJbQ0BASF0zW0NIMl1bQ0BASF0oW09IXSlbQ0BIXShPMylbQ0gyXVtPSF0=

> <s_epik_cmdline>
J2VwaWtfcHl0aG9uJywgJy1waCcsICc3LjAnLCAnLXRuJywgJzgnLCAnLW1hJywgJzIwMCcsICctbWV0YWxfYmluZGluZycsICctaW1hZScsICc8aW5maWxlLm1hZT4nLCAnLW9tYWUnLCAnPG91dGZpbGUubWFlPic=

> <r_lp_tautomer_probability>
1

> <r_epik_Ionization_Penalty>
0.000103242

> <r_epik_Ionization_Penalty_Charging>
0

> <r_epik_Ionization_Penalty_Neutral>
0.000103242

> <r_epik_State_Penalty>
-0

> <r_epik_Charging_Adjusted_Penalty>
0

> <i_epik_Tot_Q>
0

> <i_epik_Tot_abs_Q>
0

> <r_epik_Metal_State_Penalty>
-0

> <b_epik_Metal_Only>
0

> <s_epik_Chemistry_Notes>
This compound contains an acetal/aminal-like group ( X-CH(R)-Y where X, Y are N, S, or O) that may be acid/base labile, releasing an aldehyde.

> <s_lp_Force_Field>
OPLS_2005

> <r_lp_Energy>
33.2332

> <b_lp_Chiralities_Consistent>
1

> <s_lp_Variant>
AV-unprocessed.smi:285-4

> <Gold.Version>
5.8.1

> <Gold.Id.Protein>
6NUR|6NUR_protein|mol2

> <Gold.PLP.Fitness>
35.3390

> <Gold.PLP.PLP>
-30.5269

> <Gold.PLP.part.hbond>
-4.0000

> <Gold.PLP.part.metal>
0.0000

> <Gold.PLP.part.buried>
-2.6921

> <Gold.PLP.part.nonpolar>
-24.1374

> <Gold.PLP.part.repulsive>
1.0279

> <Gold.PLP.ligand.clash>
0.0000

> <Gold.PLP.ligand.torsion>
0.6033

> <Gold.PLP.Chemscore.Hbond>
2.0000

> <Gold.PLP.Chemscore.CHOScore>
0.0000

> <Gold.PLP.Chemscore.Metal>
0.0000

> <Gold.Chemscore.Hbonds>
donor molecule, donor type, donor heavy atom, donor atom, acceptor molecule, acceptor atom, score
      L1  H    15    27       P1  7957  1.00
      L1  H    18    31       P1 10175  1.00

> <Gold.PLP.Chemscore.Internal.Correction>
0.0185

> <Gold.Rescore>
     Score         DG    S(hbond)    S(metal)    S(lipo)     H(rot)  DE(clash)    DE(int)     intcor
      5.47      -9.35       1.98        0.00      43.68       3.06       1.93       1.95       ----

> <Gold.Chemscore.Fitness>
5.4699

> <Gold.Chemscore.DG>
-9.3548

> <Gold.Chemscore.ZeroCoef>
-5.4800

> <Gold.Chemscore.Hbond>
1.9759

> <Gold.Chemscore.Metal>
0.0000

> <Gold.Chemscore.Lipo>
43.6801

> <Gold.Chemscore.Internal_Hbond>
0.0000

> <Gold.Chemscore.DEClash>
1.9306

> <Gold.Chemscore.DEInternal>
1.9543

> <Gold.Chemscore.Rot>
3.0607

> <Gold.Chemscore.Internal.Correction>
   9.000000E+99

> <Gold.Chemscore.Hbonds>
donor molecule, donor type, donor heavy atom, donor atom, acceptor molecule, acceptor atom, score
      L1  H    15    27       P1  7957  1.00
      L1  H    18    31       P1 10175  1.00

> <Gold.Chemscore.Hbond.Weighted>
-6.5996

> <Gold.Chemscore.Metal.Weighted>
-0.0000

> <Gold.Chemscore.Lipo.Weighted>
-5.1106

> <Gold.Chemscore.Internal_Hbond.Weighted>
0.0000

> <Gold.Chemscore.DEClash.Weighted>
1.9306

> <Gold.Chemscore.DEInternal.Weighted>
1.9543

> <Gold.Chemscore.Rot.Weighted>
7.8354

> <Gold.Chemscore.Internal.Correction.Weighted>
   9.000000E+99

> <Gold.Protein.RotatedTorsions>
[ 6907 6896 6895 6894 ] final   10.07 input  -60.11 | X-H torsion
[ 7974 7965 7964 7962 ] final  -65.20 input  175.53 | X-H torsion
[ 8008 7997 7996 7995 ] final   65.87 input   59.86 | X-H torsion
[ 10167 10162 10161 10158 ] final  107.08 input  -65.29 | X-H torsion
[ 10718 10713 10712 10709 ] final -142.65 input   66.30 | X-H torsion
[ 10763 10752 10751 10750 ] final   10.59 input  -60.55 | X-H torsion
[ 11005 11000 10999 10996 ] final   80.10 input  -57.11 | X-H torsion

> <Gold.Protein.ActiveResidues>
 VAL166  LYS551  ARG553  GLY616  TRP617  ASP618  TYR619  PRO620  LYS621  CYS622 
 ASP623  PHE694  ASN695  SER759  ASP760  ASP761  ALA762  ILE779  LEU786  VAL792 
 PHE793  MET794  SER795  GLU796  ALA797  LYS798  CYS799  TRP800  GLU811  SER814 

> <Gold.Protein.RotatedAtoms>
  151.7324  135.0872  160.0301 H   0  0  0  0  0  0  0  0  0  0  0  0  # atno 6907 bound_to 6896
  152.3533  133.6201  159.5969 H   0  0  0  0  0  0  0  0  0  0  0  0  # atno 6908 bound_to 6896
  150.7554  133.9457  159.3511 H   0  0  0  0  0  0  0  0  0  0  0  0  # atno 6909 bound_to 6896
  145.7573  140.8879  143.0448 H   0  0  0  0  0  0  0  0  0  0  0  0  # atno 7974 bound_to 7965
  155.6685  140.3497  155.4809 H   0  0  0  0  0  0  0  0  0  0  0  0  # atno 8008 bound_to 7997
  155.9708  140.1155  157.0837 H   0  0  0  0  0  0  0  0  0  0  0  0  # atno 8009 bound_to 7997
  154.4166  140.1157  156.5290 H   0  0  0  0  0  0  0  0  0  0  0  0  # atno 8010 bound_to 7997
  139.6957  144.7102  151.1272 H   0  0  0  0  0  0  0  0  0  0  0  0  # atno 10167 bound_to 10162
  156.3485  130.7675  151.1824 H   0  0  0  0  0  0  0  0  0  0  0  0  # atno 10718 bound_to 10713
  153.2016  135.6857  153.8224 H   0  0  0  0  0  0  0  0  0  0  0  0  # atno 10763 bound_to 10752
  153.7489  135.3227  155.3318 H   0  0  0  0  0  0  0  0  0  0  0  0  # atno 10764 bound_to 10752
  154.8174  135.4676  154.0784 H   0  0  0  0  0  0  0  0  0  0  0  0  # atno 10765 bound_to 10752
  139.9147  134.7894  156.1865 H   0  0  0  0  0  0  0  0  0  0  0  0  # atno 11005 bound_to 11000
  144.6837  139.9674  143.7481 LP  0  0  0  0  0  0  0  0  0  0  0  0  # atno 17320 bound_to 7965
  146.0298  139.3325  143.0762 LP  0  0  0  0  0  0  0  0  0  0  0  0  # atno 17321 bound_to 7965
  140.7695  143.5496  150.9220 LP  0  0  0  0  0  0  0  0  0  0  0  0  # atno 17342 bound_to 10162
  139.9175  143.6646  152.3103 LP  0  0  0  0  0  0  0  0  0  0  0  0  # atno 17343 bound_to 10162
  157.7457  131.0434  150.4743 LP  0  0  0  0  0  0  0  0  0  0  0  0  # atno 17370 bound_to 10713
  156.4934  130.4100  149.6393 LP  0  0  0  0  0  0  0  0  0  0  0  0  # atno 17371 bound_to 10713
  141.0610  133.6841  156.1953 LP  0  0  0  0  0  0  0  0  0  0  0  0  # atno 17394 bound_to 11000
  140.6660  134.4917  157.5585 LP  0  0  0  0  0  0  0  0  0  0  0  0  # atno 17395 bound_to 11000

$$$$
