#       Name:                AV-unprocessed.smi:49
#       Creating user name   scv26
#       Creation time:       Thu Mar 26 16:34:12 2020


#       File generated by GOLD software.
#

@<TRIPOS>MOLECULE
AV-unprocessed.smi:49
    32    33     1
SMALL
NO_CHARGES


@<TRIPOS>ATOM
      1 ****        -3.8691   0.8620  -1.3322 C.3            1 S1                 0.0000
      2 ****        -3.4158  -0.5745  -1.0484 C.3            1 S1                 0.0000
      3 ****        -1.9329  -0.7265  -1.1299 C.2            1 S1                 0.0000
      4 ****        -1.1084  -0.5121  -0.0609 N.2            1 S1                 0.0000
      5 ****         0.0755  -0.7271  -0.6283 C.2            1 S1                 0.0000
      6 ****         1.4044  -0.6300   0.0549 C.3            1 S1                 0.0000
      7 ****         1.8808   0.8194   0.2296 C.3            1 S1                 0.0000
      8 ****         2.7166   0.7483   1.4994 C.3            1 S1                 0.0000
      9 ****         2.8513   1.9976   2.1425 O.3            1 S1                 0.0000
     10 ****         1.9305  -0.2548   2.3375 C.3            1 S1                 0.0000
     11 ****         1.4186  -1.2410   1.3899 N.3            1 S1                 0.0000
     12 ****        -0.0301  -1.0241  -1.9253 N.pl3          1 S1                 0.0000
     13 ****        -1.3320  -1.0236  -2.2811 N.2            1 S1                 0.0000
     14 ****         2.1367  -1.1534  -0.5612 H              1 S1                 0.0000
     15 ****         3.7064   0.3492   1.2726 H              1 S1                 0.0000
     16 ****         0.7189  -1.2180  -2.5743 H              1 S1                 0.0000
     17 ****        -4.9541   0.9461  -1.2714 H              1 S1                 0.0000
     18 ****        -3.5654   1.1805  -2.3298 H              1 S1                 0.0000
     19 ****        -3.4396   1.5589  -0.6119 H              1 S1                 0.0000
     20 ****        -3.7501  -0.8785  -0.0558 H              1 S1                 0.0000
     21 ****        -3.8865  -1.2583  -1.7558 H              1 S1                 0.0000
     22 ****         2.4286   1.1966  -0.6343 H              1 S1                 0.0000
     23 ****         1.0254   1.4772   0.3972 H              1 S1                 0.0000
     24 ****         3.3118   2.5859   1.5640 H              1 S1                 0.0000
     25 ****         2.5342  -0.7145   3.1202 H              1 S1                 0.0000
     26 ****         1.0910   0.2480   2.8197 H              1 S1                 0.0000
     27 ****         2.0534  -2.0325   1.3736 H              1 S1                 0.0000
     28 ****        -1.3320  -0.2638   0.8816 LP             1 S1                 0.0000
     29 ****         3.3686   1.8858   2.9910 LP             1 S1                 0.0000
     30 ****         1.9464   2.3690   2.3502 LP             1 S1                 0.0000
     31 ****         0.5002  -1.5370   1.6526 LP             1 S1                 0.0000
     32 ****        -1.7399  -1.2005  -3.1769 LP             1 S1                 0.0000
@<TRIPOS>BOND
    1    1    2 1     
    2    1   17 1     
    3    1   18 1     
    4    1   19 1     
    5    2   20 1     
    6    2   21 1     
    7    2    3 1     
    8    3    4 1     
    9    3   13 2     
   10    4    5 2     
   11    5    6 1     
   12    5   12 1     
   13    6   14 1     
   14    6   11 1     
   15    6    7 1     
   16    7    8 1     
   17    7   22 1     
   18    7   23 1     
   19    8   15 1     
   20    8    9 1     
   21    8   10 1     
   22    9   24 1     
   23   10   11 1     
   24   10   25 1     
   25   10   26 1     
   26   11   27 1     
   27   12   13 1     
   28   12   16 1     
   29    4   28 1     
   30    9   29 1     
   31    9   30 1     
   32   11   31 1     
   33   13   32 1     
@<TRIPOS>SUBSTRUCTURE
      1 S1             1
@<TRIPOS>SET
LONE_PAIRS      STATIC     ATOMS    <user>   **** ""
5 28 29 30 31 32
DONOR_HYDROGENS      STATIC     ATOMS    <user>   **** ""
3 24 27 16
ATOM$BLUE        STATIC     ATOMS    COLORGROUP SYSTEM
5 28 29 30 31 32
ATOM$RED        STATIC     ATOMS    COLORGROUP SYSTEM
3 24 27 16
