AV-unprocessed.smi:3326|AV-procd|sdf|12785|dock8
  -GOLD-   2272019133D 1   1.00000     0.00000
 Structure written by MMmdl.
 30 31  0  0  0  0  0  0  0  0  1 V2000
  152.1579  144.5612  158.0096 F   0  0  0  0  0  0  0  0  0  0  0  0
  151.6944  144.1470  159.1895 C   0  0  0  0  0  0  0  0  0  0  0  0
  151.8724  145.1312  160.0713 F   0  0  0  0  0  0  0  0  0  0  0  0
  150.3886  143.9113  159.0608 F   0  0  0  0  0  0  0  0  0  0  0  0
  152.4088  142.8844  159.6661 C   0  0  0  0  0  0  0  0  0  0  0  0
  153.1498  142.8938  160.8700 C   0  0  0  0  0  0  0  0  0  0  0  0
  153.7963  141.7180  161.2924 C   0  0  0  0  0  0  0  0  0  0  0  0
  153.6785  140.5688  160.4912 C   0  0  0  0  0  0  0  0  0  0  0  0
  152.9762  140.5423  159.3403 N   0  0  0  0  0  0  0  0  0  0  0  0
  152.3497  141.6720  158.9298 C   0  0  0  0  0  0  0  0  0  0  0  0
  151.6277  141.6213  157.7255 N   0  0  0  0  0  0  0  0  0  0  0  0
  151.4315  140.3640  157.0138 C   0  0  0  0  0  0  0  0  0  0  0  0
  150.8533  140.5782  155.6058 C   0  0  2  0  0  0  0  0  0  0  0  0
  149.5821  141.4218  155.5910 C   0  0  0  0  0  0  0  0  0  0  0  0
  148.9608  141.0068  154.2764 C   0  0  0  0  0  0  0  0  0  0  0  0
  149.3002  139.5187  154.2145 C   0  0  0  0  0  0  0  0  0  0  0  0
  150.4499  139.3354  155.0381 O   0  0  0  0  0  0  0  0  0  0  0  0
  153.2279  143.7867  161.4720 H   0  0  0  0  0  0  0  0  0  0  0  0
  154.3684  141.6985  162.2081 H   0  0  0  0  0  0  0  0  0  0  0  0
  154.1608  139.6471  160.7808 H   0  0  0  0  0  0  0  0  0  0  0  0
  150.9804  142.3703  157.5258 H   0  0  0  0  0  0  0  0  0  0  0  0
  152.3929  139.8544  156.9448 H   0  0  0  0  0  0  0  0  0  0  0  0
  150.7831  139.7078  157.5950 H   0  0  0  0  0  0  0  0  0  0  0  0
  151.5898  141.0378  154.9445 H   0  0  0  0  0  0  0  0  0  0  0  0
  148.9266  141.1464  156.4187 H   0  0  0  0  0  0  0  0  0  0  0  0
  149.7812  142.4920  155.6518 H   0  0  0  0  0  0  0  0  0  0  0  0
  147.8896  141.2030  154.2256 H   0  0  0  0  0  0  0  0  0  0  0  0
  149.4443  141.5356  153.4537 H   0  0  0  0  0  0  0  0  0  0  0  0
  148.4849  138.9195  154.6207 H   0  0  0  0  0  0  0  0  0  0  0  0
  149.4888  139.1852  153.1935 H   0  0  0  0  0  0  0  0  0  0  0  0
  1  2  1  0  0  0  0
  2  3  1  0  0  0  0
  2  4  1  0  0  0  0
  2  5  1  0  0  0  0
  5 10  1  0  0  0  0
  5  6  2  0  0  0  0
  6  7  1  0  0  0  0
  6 18  1  0  0  0  0
  7  8  2  0  0  0  0
  7 19  1  0  0  0  0
  8  9  1  0  0  0  0
  8 20  1  0  0  0  0
  9 10  2  0  0  0  0
 10 11  1  0  0  0  0
 11 12  1  0  0  0  0
 11 21  1  0  0  0  0
 12 13  1  0  0  0  0
 12 22  1  0  0  0  0
 12 23  1  0  0  0  0
 13 17  1  0  0  0  0
 13 14  1  0  0  0  0
 13 24  1  0  0  0  0
 14 15  1  0  0  0  0
 14 25  1  0  0  0  0
 14 26  1  0  0  0  0
 15 16  1  0  0  0  0
 15 27  1  0  0  0  0
 15 28  1  0  0  0  0
 16 17  1  0  0  0  0
 16 29  1  0  0  0  0
 16 30  1  0  0  0  0
M  END
> <s_m_source_file>
AV-unprocessed.smi

> <i_m_source_file_index>
3326

> <i_lp_mmshare_version>
43012

> <i_f3d_flags>
0

> <s_epik_input>
RkMoRikoRiljMVtjSF1bY0hdW2NIXW5jMVtOSF1bQ0gyXVtDQEBIXTJbQ0gyXVtDSDJdW0NIMl1PMg==

> <s_epik_cmdline>
J2VwaWtfcHl0aG9uJywgJy1waCcsICc3LjAnLCAnLXRuJywgJzgnLCAnLW1hJywgJzIwMCcsICctbWV0YWxfYmluZGluZycsICctaW1hZScsICc8aW5maWxlLm1hZT4nLCAnLW9tYWUnLCAnPG91dGZpbGUubWFlPic=

> <r_lp_tautomer_probability>
1

> <r_epik_Ionization_Penalty>
0.000820218

> <r_epik_Ionization_Penalty_Charging>
0

> <r_epik_Ionization_Penalty_Neutral>
0.000820218

> <r_epik_State_Penalty>
0.000527207

> <r_epik_Charging_Adjusted_Penalty>
0.000527207

> <i_epik_Tot_Q>
0

> <i_epik_Tot_abs_Q>
0

> <r_epik_Metal_State_Penalty>
-0

> <b_epik_Metal_Only>
0

> <s_lp_Force_Field>
OPLS_2005

> <r_lp_Energy>
21.819

> <b_lp_Chiralities_Consistent>
1

> <s_lp_Variant>
AV-unprocessed.smi:3326-1

> <Gold.Version>
5.8.1

> <Gold.Id.Protein>
6NUR|6NUR_protein|mol2

> <Gold.PLP.Fitness>
42.7966

> <Gold.PLP.PLP>
-44.3760

> <Gold.PLP.part.hbond>
0.0000

> <Gold.PLP.part.metal>
0.0000

> <Gold.PLP.part.buried>
-3.9831

> <Gold.PLP.part.nonpolar>
-41.3097

> <Gold.PLP.part.repulsive>
0.1314

> <Gold.PLP.ligand.clash>
1.8984

> <Gold.PLP.ligand.torsion>
0.1121

> <Gold.PLP.Chemscore.Hbond>
0.0000

> <Gold.PLP.Chemscore.CHOScore>
0.0000

> <Gold.PLP.Chemscore.Metal>
0.0000

> <Gold.PLP.Chemscore.Internal.Correction>
0.5431

> <Gold.Rescore>
     Score         DG    S(hbond)    S(metal)    S(lipo)     H(rot)  DE(clash)    DE(int)     intcor
     11.06     -12.76       0.00        0.00      89.57       1.25       0.04       1.66       ----

> <Gold.Chemscore.Fitness>
11.0636

> <Gold.Chemscore.DG>
-12.7563

> <Gold.Chemscore.ZeroCoef>
-5.4800

> <Gold.Chemscore.Hbond>
0.0000

> <Gold.Chemscore.Metal>
0.0000

> <Gold.Chemscore.Lipo>
89.5716

> <Gold.Chemscore.Internal_Hbond>
0.0000

> <Gold.Chemscore.DEClash>
0.0368

> <Gold.Chemscore.DEInternal>
1.6559

> <Gold.Chemscore.Rot>
1.2514

> <Gold.Chemscore.Internal.Correction>
   9.000000E+99

> <Gold.Chemscore.Hbond.Weighted>
-0.0000

> <Gold.Chemscore.Metal.Weighted>
-0.0000

> <Gold.Chemscore.Lipo.Weighted>
-10.4799

> <Gold.Chemscore.Internal_Hbond.Weighted>
0.0000

> <Gold.Chemscore.DEClash.Weighted>
0.0368

> <Gold.Chemscore.DEInternal.Weighted>
1.6559

> <Gold.Chemscore.Rot.Weighted>
3.2036

> <Gold.Chemscore.Internal.Correction.Weighted>
   9.000000E+99

> <Gold.Protein.RotatedTorsions>
[ 6907 6896 6895 6894 ] final   81.63 input  -60.11 | X-H torsion
[ 7974 7965 7964 7962 ] final  -34.07 input  175.53 | X-H torsion
[ 8008 7997 7996 7995 ] final  -92.27 input   59.86 | X-H torsion
[ 10167 10162 10161 10158 ] final  173.11 input  -65.29 | X-H torsion
[ 10718 10713 10712 10709 ] final -110.62 input   66.30 | X-H torsion
[ 10763 10752 10751 10750 ] final  -37.21 input  -60.55 | X-H torsion
[ 11005 11000 10999 10996 ] final   19.92 input  -57.11 | X-H torsion

> <Gold.Protein.ActiveResidues>
 VAL166  LYS551  ARG553  GLY616  TRP617  ASP618  TYR619  PRO620  LYS621  CYS622 
 ASP623  PHE694  ASN695  SER759  ASP760  ASP761  ALA762  ILE779  LEU786  VAL792 
 PHE793  MET794  SER795  GLU796  ALA797  LYS798  CYS799  TRP800  GLU811  SER814 

> <Gold.Protein.RotatedAtoms>
  152.5274  134.3173  159.9135 H   0  0  0  0  0  0  0  0  0  0  0  0  # atno 6907 bound_to 6896
  151.3123  133.4069  159.2655 H   0  0  0  0  0  0  0  0  0  0  0  0  # atno 6908 bound_to 6896
  151.0028  134.9352  159.8021 H   0  0  0  0  0  0  0  0  0  0  0  0  # atno 6909 bound_to 6896
  146.0859  140.5994  142.8886 H   0  0  0  0  0  0  0  0  0  0  0  0  # atno 7974 bound_to 7965
  154.7211  140.0510  157.0640 H   0  0  0  0  0  0  0  0  0  0  0  0  # atno 8008 bound_to 7997
  155.0427  140.3170  155.4700 H   0  0  0  0  0  0  0  0  0  0  0  0  # atno 8009 bound_to 7997
  156.2816  140.2130  156.5551 H   0  0  0  0  0  0  0  0  0  0  0  0  # atno 8010 bound_to 7997
  139.5097  144.3298  152.0122 H   0  0  0  0  0  0  0  0  0  0  0  0  # atno 10167 bound_to 10162
  156.0601  130.5825  150.8262 H   0  0  0  0  0  0  0  0  0  0  0  0  # atno 10718 bound_to 10713
  153.8926  135.6810  153.4760 H   0  0  0  0  0  0  0  0  0  0  0  0  # atno 10763 bound_to 10752
  153.1173  135.4756  154.9134 H   0  0  0  0  0  0  0  0  0  0  0  0  # atno 10764 bound_to 10752
  154.7615  135.3212  154.8323 H   0  0  0  0  0  0  0  0  0  0  0  0  # atno 10765 bound_to 10752
  140.4084  134.1645  155.7666 H   0  0  0  0  0  0  0  0  0  0  0  0  # atno 11005 bound_to 11000
  144.7325  140.4715  143.6927 LP  0  0  0  0  0  0  0  0  0  0  0  0  # atno 17320 bound_to 7965
  145.6130  139.1515  143.3065 LP  0  0  0  0  0  0  0  0  0  0  0  0  # atno 17321 bound_to 7965
  140.2738  144.3935  150.6142 LP  0  0  0  0  0  0  0  0  0  0  0  0  # atno 17342 bound_to 10162
  140.6069  143.2168  151.6964 LP  0  0  0  0  0  0  0  0  0  0  0  0  # atno 17343 bound_to 10162
  157.5603  131.0945  150.9569 LP  0  0  0  0  0  0  0  0  0  0  0  0  # atno 17370 bound_to 10713
  156.9808  130.5526  149.5296 LP  0  0  0  0  0  0  0  0  0  0  0  0  # atno 17371 bound_to 10713
  141.1830  133.8372  157.1188 LP  0  0  0  0  0  0  0  0  0  0  0  0  # atno 17394 bound_to 11000
  140.0285  134.9912  157.0734 LP  0  0  0  0  0  0  0  0  0  0  0  0  # atno 17395 bound_to 11000

$$$$
