AV-unprocessed.smi:1366|AV-procd|sdf|5571|dock5
  -GOLD-   22720 5163D 1   1.00000     0.00000
 Structure written by MMmdl.
 31 32  0  0  0  0  0  0  0  0  1 V2000
  150.0899  134.9867  154.7322 N   0  0  0  0  0  0  0  0  0  0  0  0
  150.2521  136.0914  155.0359 C   0  0  0  0  0  0  0  0  0  0  0  0
  150.4563  137.4818  155.4183 C   0  0  0  0  0  0  0  0  0  0  0  0
  150.7409  137.8197  156.7593 C   0  0  0  0  0  0  0  0  0  0  0  0
  150.9334  139.0985  157.1487 N   0  0  0  0  0  0  0  0  0  0  0  0
  150.8369  140.0289  156.1959 C   0  0  0  0  0  0  0  0  0  0  0  0
  151.0841  141.7222  156.6876 S   0  0  0  0  0  0  0  0  0  0  0  0
  151.3770  141.5543  158.4762 C   0  0  0  0  0  0  0  0  0  0  0  0
  152.0370  142.8021  159.0871 C   0  0  1  0  0  0  0  0  0  0  0  0
  151.8002  144.0586  158.2277 C   0  0  0  0  0  0  0  0  0  0  0  0
  152.4104  145.2930  158.9016 C   0  0  0  0  0  0  0  0  0  0  0  0
  151.8927  145.4064  160.3395 C   0  0  0  0  0  0  0  0  0  0  0  0
  152.1113  144.0849  161.0931 C   0  0  0  0  0  0  0  0  0  0  0  0
  151.4894  143.0159  160.3866 O   0  0  0  0  0  0  0  0  0  0  0  0
  150.5820  139.8365  154.9004 N   0  0  0  0  0  0  0  0  0  0  0  0
  150.3871  138.5610  154.5007 C   0  0  0  0  0  0  0  0  0  0  0  0
  150.1158  138.3759  153.1438 N   0  0  0  0  0  0  0  0  0  0  0  0
  150.8144  137.0640  157.5280 H   0  0  0  0  0  0  0  0  0  0  0  0
  150.4319  141.3386  158.9749 H   0  0  0  0  0  0  0  0  0  0  0  0
  152.0151  140.6843  158.6327 H   0  0  0  0  0  0  0  0  0  0  0  0
  153.1112  142.6338  159.1773 H   0  0  0  0  0  0  0  0  0  0  0  0
  152.2315  143.9251  157.2351 H   0  0  0  0  0  0  0  0  0  0  0  0
  150.7295  144.2122  158.0859 H   0  0  0  0  0  0  0  0  0  0  0  0
  153.4978  145.2079  158.9085 H   0  0  0  0  0  0  0  0  0  0  0  0
  152.1689  146.1943  158.3376 H   0  0  0  0  0  0  0  0  0  0  0  0
  152.3929  146.2249  160.8579 H   0  0  0  0  0  0  0  0  0  0  0  0
  150.8287  145.6460  160.3281 H   0  0  0  0  0  0  0  0  0  0  0  0
  153.1754  143.8796  161.2211 H   0  0  0  0  0  0  0  0  0  0  0  0
  151.6775  144.1468  162.0913 H   0  0  0  0  0  0  0  0  0  0  0  0
  149.9560  137.4572  152.7560 H   0  0  0  0  0  0  0  0  0  0  0  0
  150.0861  139.1560  152.5033 H   0  0  0  0  0  0  0  0  0  0  0  0
  1  2  3  0  0  0  0
  2  3  1  0  0  0  0
  3 16  1  0  0  0  0
  3  4  2  0  0  0  0
  4  5  1  0  0  0  0
  4 18  1  0  0  0  0
  5  6  2  0  0  0  0
  6  7  1  0  0  0  0
  6 15  1  0  0  0  0
  7  8  1  0  0  0  0
  8  9  1  0  0  0  0
  8 19  1  0  0  0  0
  8 20  1  0  0  0  0
  9 14  1  0  0  0  0
  9 10  1  0  0  0  0
  9 21  1  0  0  0  0
 10 11  1  0  0  0  0
 10 22  1  0  0  0  0
 10 23  1  0  0  0  0
 11 12  1  0  0  0  0
 11 24  1  0  0  0  0
 11 25  1  0  0  0  0
 12 13  1  0  0  0  0
 12 26  1  0  0  0  0
 12 27  1  0  0  0  0
 13 14  1  0  0  0  0
 13 28  1  0  0  0  0
 13 29  1  0  0  0  0
 15 16  2  0  0  0  0
 16 17  1  0  0  0  0
 17 30  1  0  0  0  0
 17 31  1  0  0  0  0
M  END
> <s_m_source_file>
AV-unprocessed.smi

> <i_m_source_file_index>
1366

> <i_lp_mmshare_version>
43012

> <i_f3d_flags>
0

> <s_epik_input>
TiNDYzFbY0hdbmMobmMxW05IMl0pU1tDSDJdW0NAQEhdMltDSDJdW0NIMl1bQ0gyXVtDSDJdTzI=

> <s_epik_cmdline>
J2VwaWtfcHl0aG9uJywgJy1waCcsICc3LjAnLCAnLXRuJywgJzgnLCAnLW1hJywgJzIwMCcsICctbWV0YWxfYmluZGluZycsICctaW1hZScsICc8aW5maWxlLm1hZT4nLCAnLW9tYWUnLCAnPG91dGZpbGUubWFlPic=

> <r_lp_tautomer_probability>
1

> <r_epik_Ionization_Penalty>
5.69531e-05

> <r_epik_Ionization_Penalty_Charging>
0

> <r_epik_Ionization_Penalty_Neutral>
5.69531e-05

> <r_epik_State_Penalty>
-0

> <r_epik_Charging_Adjusted_Penalty>
0

> <i_epik_Tot_Q>
0

> <i_epik_Tot_abs_Q>
0

> <r_epik_Metal_State_Penalty>
-0

> <b_epik_Metal_Only>
0

> <s_lp_Force_Field>
OPLS_2005

> <r_lp_Energy>
5.10679

> <b_lp_Chiralities_Consistent>
1

> <s_lp_Variant>
AV-unprocessed.smi:1366-2

> <Gold.Version>
5.8.1

> <Gold.Id.Protein>
6NUR|6NUR_protein|mol2

> <Gold.PLP.Fitness>
42.8926

> <Gold.PLP.PLP>
-35.5870

> <Gold.PLP.part.hbond>
-4.1168

> <Gold.PLP.part.metal>
0.0000

> <Gold.PLP.part.buried>
-4.4769

> <Gold.PLP.part.nonpolar>
-26.9295

> <Gold.PLP.part.repulsive>
0.3854

> <Gold.PLP.ligand.clash>
0.0000

> <Gold.PLP.ligand.torsion>
0.5909

> <Gold.PLP.Chemscore.Hbond>
2.8288

> <Gold.PLP.Chemscore.CHOScore>
0.0000

> <Gold.PLP.Chemscore.Metal>
0.0000

> <Gold.Chemscore.Hbonds>
donor molecule, donor type, donor heavy atom, donor atom, acceptor molecule, acceptor atom, score
      L1  H    17    30       P1  7948  0.80
      L1  H    17    31       P1  7957  1.00
      P1  H  7989  7998       L1    15  0.99

> <Gold.PLP.Chemscore.Internal.Correction>
0.0010

> <Gold.Rescore>
     Score         DG    S(hbond)    S(metal)    S(lipo)     H(rot)  DE(clash)    DE(int)     intcor
     18.40     -19.04       2.39        0.00      85.48       1.73       0.18       0.45       ----

> <Gold.Chemscore.Fitness>
18.4038

> <Gold.Chemscore.DG>
-19.0374

> <Gold.Chemscore.ZeroCoef>
-5.4800

> <Gold.Chemscore.Hbond>
2.3879

> <Gold.Chemscore.Metal>
0.0000

> <Gold.Chemscore.Lipo>
85.4845

> <Gold.Chemscore.Internal_Hbond>
0.0000

> <Gold.Chemscore.DEClash>
0.1825

> <Gold.Chemscore.DEInternal>
0.4511

> <Gold.Chemscore.Rot>
1.7266

> <Gold.Chemscore.Internal.Correction>
   9.000000E+99

> <Gold.Chemscore.Hbonds>
donor molecule, donor type, donor heavy atom, donor atom, acceptor molecule, acceptor atom, score
      L1  H    17    30       P1  7948  0.12
      L1  H    17    31       P1  7957  0.60
      P1  H  7989  7998       L1    15  0.67

> <Gold.Chemscore.Hbond.Weighted>
-7.9757

> <Gold.Chemscore.Metal.Weighted>
-0.0000

> <Gold.Chemscore.Lipo.Weighted>
-10.0017

> <Gold.Chemscore.Internal_Hbond.Weighted>
0.0000

> <Gold.Chemscore.DEClash.Weighted>
0.1825

> <Gold.Chemscore.DEInternal.Weighted>
0.4511

> <Gold.Chemscore.Rot.Weighted>
4.4200

> <Gold.Chemscore.Internal.Correction.Weighted>
   9.000000E+99

> <Gold.Protein.RotatedTorsions>
[ 6907 6896 6895 6894 ] final   45.35 input  -60.11 | X-H torsion
[ 7974 7965 7964 7962 ] final   32.15 input  175.53 | X-H torsion
[ 8008 7997 7996 7995 ] final  167.36 input   59.86 | X-H torsion
[ 10167 10162 10161 10158 ] final  116.26 input  -65.29 | X-H torsion
[ 10718 10713 10712 10709 ] final   23.42 input   66.30 | X-H torsion
[ 10763 10752 10751 10750 ] final -115.69 input  -60.55 | X-H torsion
[ 11005 11000 10999 10996 ] final  -11.58 input  -57.11 | X-H torsion

> <Gold.Protein.ActiveResidues>
 VAL166  LYS551  ARG553  GLY616  TRP617  ASP618  TYR619  PRO620  LYS621  CYS622 
 ASP623  PHE694  ASN695  SER759  ASP760  ASP761  ALA762  ILE779  LEU786  VAL792 
 PHE793  MET794  SER795  GLU796  ALA797  LYS798  CYS799  TRP800  GLU811  SER814 

> <Gold.Protein.RotatedAtoms>
  152.2435  134.8205  160.0456 H   0  0  0  0  0  0  0  0  0  0  0  0  # atno 6907 bound_to 6896
  151.8911  133.3511  159.3807 H   0  0  0  0  0  0  0  0  0  0  0  0  # atno 6908 bound_to 6896
  150.7061  134.4849  159.5532 H   0  0  0  0  0  0  0  0  0  0  0  0  # atno 6909 bound_to 6896
  146.1505  139.6563  142.9102 H   0  0  0  0  0  0  0  0  0  0  0  0  # atno 7974 bound_to 7965
  156.1640  140.1619  156.8563 H   0  0  0  0  0  0  0  0  0  0  0  0  # atno 8008 bound_to 7997
  154.5189  140.0783  156.8169 H   0  0  0  0  0  0  0  0  0  0  0  0  # atno 8009 bound_to 7997
  155.3649  140.3397  155.4244 H   0  0  0  0  0  0  0  0  0  0  0  0  # atno 8010 bound_to 7997
  139.6260  144.7108  151.2533 H   0  0  0  0  0  0  0  0  0  0  0  0  # atno 10167 bound_to 10162
  157.1659  130.6737  149.6060 H   0  0  0  0  0  0  0  0  0  0  0  0  # atno 10718 bound_to 10713
  154.8491  135.4372  154.1703 H   0  0  0  0  0  0  0  0  0  0  0  0  # atno 10763 bound_to 10752
  153.2818  135.6954  153.7384 H   0  0  0  0  0  0  0  0  0  0  0  0  # atno 10764 bound_to 10752
  153.6585  135.3439  155.3095 H   0  0  0  0  0  0  0  0  0  0  0  0  # atno 10765 bound_to 10752
  140.7568  133.8547  155.9091 H   0  0  0  0  0  0  0  0  0  0  0  0  # atno 11005 bound_to 11000
  145.4835  141.0438  143.2632 LP  0  0  0  0  0  0  0  0  0  0  0  0  # atno 17320 bound_to 7965
  144.7898  139.6352  143.7118 LP  0  0  0  0  0  0  0  0  0  0  0  0  # atno 17321 bound_to 7965
  140.7411  143.6568  150.8199 LP  0  0  0  0  0  0  0  0  0  0  0  0  # atno 17342 bound_to 10162
  140.0186  143.5567  152.2810 LP  0  0  0  0  0  0  0  0  0  0  0  0  # atno 17343 bound_to 10162
  155.9746  130.4696  150.6399 LP  0  0  0  0  0  0  0  0  0  0  0  0  # atno 17370 bound_to 10713
  157.4089  131.0821  151.1239 LP  0  0  0  0  0  0  0  0  0  0  0  0  # atno 17371 bound_to 10713
  140.9700  134.1543  157.4584 LP  0  0  0  0  0  0  0  0  0  0  0  0  # atno 17394 bound_to 11000
  139.8778  134.9975  156.5851 LP  0  0  0  0  0  0  0  0  0  0  0  0  # atno 17395 bound_to 11000

$$$$
