AV-unprocessed.smi:48|AV-procd|sdf|459|dock6
  -GOLD-   2262016323D 1   1.00000     0.00000
 Structure written by MMmdl.
 30 32  0  0  0  0  0  0  0  0  1 V2000
  145.5121  140.8273  157.0354 O   0  0  0  0  0  0  0  0  0  0  0  0
  145.8123  142.1892  156.8189 C   0  0  0  0  0  0  0  0  0  0  0  0
  146.8090  142.3309  155.6547 C   0  0  1  0  0  0  0  0  0  0  0  0
  148.0392  141.6712  155.9520 O   0  0  0  0  0  0  0  0  0  0  0  0
  148.6292  141.1623  154.7925 C   0  0  1  0  0  0  0  0  0  0  0  0
  148.7951  139.6860  154.9845 N   0  0  0  0  0  0  0  0  0  0  0  0
  147.8813  138.7700  155.3707 C   0  0  0  0  0  0  0  0  0  0  0  0
  148.2848  137.5035  155.4660 N   0  0  0  0  0  0  0  0  0  0  0  0
  149.6183  137.6111  155.1070 C   0  0  0  0  0  0  0  0  0  0  0  0
  150.6622  136.6618  154.9898 C   0  0  0  0  0  0  0  0  0  0  0  0
  150.3864  134.9915  155.3245 Cl  0  0  0  0  0  0  0  0  0  0  0  0
  151.8870  137.0949  154.6061 N   0  0  0  0  0  0  0  0  0  0  0  0
  152.0736  138.3963  154.3519 C   0  0  0  0  0  0  0  0  0  0  0  0
  151.1923  139.4011  154.4196 N   0  0  0  0  0  0  0  0  0  0  0  0
  149.9590  138.9600  154.8064 C   0  0  0  0  0  0  0  0  0  0  0  0
  147.6869  141.4888  153.6190 C   0  0  1  0  0  0  0  0  0  0  0  0
  147.6128  140.5072  152.5995 O   0  0  0  0  0  0  0  0  0  0  0  0
  146.3549  141.7329  154.3150 C   0  0  1  0  0  0  0  0  0  0  0  0
  145.6096  140.5408  154.5014 O   0  0  0  0  0  0  0  0  0  0  0  0
  147.0336  143.3855  155.4837 H   0  0  0  0  0  0  0  0  0  0  0  0
  149.6435  141.5411  154.6606 H   0  0  0  0  0  0  0  0  0  0  0  0
  148.0331  142.4252  153.1792 H   0  0  0  0  0  0  0  0  0  0  0  0
  145.7324  142.4325  153.7565 H   0  0  0  0  0  0  0  0  0  0  0  0
  144.5975  140.7540  157.2613 H   0  0  0  0  0  0  0  0  0  0  0  0
  144.8977  142.7526  156.6315 H   0  0  0  0  0  0  0  0  0  0  0  0
  146.2511  142.5753  157.7394 H   0  0  0  0  0  0  0  0  0  0  0  0
  146.8613  139.0460  155.5943 H   0  0  0  0  0  0  0  0  0  0  0  0
  153.0728  138.6729  154.0493 H   0  0  0  0  0  0  0  0  0  0  0  0
  148.4800  140.3812  152.2458 H   0  0  0  0  0  0  0  0  0  0  0  0
  145.0775  140.3998  153.7329 H   0  0  0  0  0  0  0  0  0  0  0  0
  1  2  1  0  0  0  0
  1 24  1  0  0  0  0
  2  3  1  0  0  0  0
  2 25  1  0  0  0  0
  2 26  1  0  0  0  0
  3 20  1  0  0  0  0
  3 18  1  0  0  0  0
  3  4  1  0  0  0  0
  4  5  1  0  0  0  0
  5 21  1  0  0  0  0
  5  6  1  0  0  0  0
  5 16  1  0  0  0  0
  6 15  1  0  0  0  0
  6  7  1  0  0  0  0
  7  8  2  0  0  0  0
  7 27  1  0  0  0  0
  8  9  1  0  0  0  0
  9 15  2  0  0  0  0
  9 10  1  0  0  0  0
 10 11  1  0  0  0  0
 10 12  2  0  0  0  0
 12 13  1  0  0  0  0
 13 14  2  0  0  0  0
 13 28  1  0  0  0  0
 14 15  1  0  0  0  0
 16 22  1  0  0  0  0
 16 17  1  0  0  0  0
 16 18  1  0  0  0  0
 17 29  1  0  0  0  0
 18 23  1  0  0  0  0
 18 19  1  0  0  0  0
 19 30  1  0  0  0  0
M  END
> <s_m_source_file>
AV-unprocessed.smi

> <i_m_source_file_index>
48

> <i_lp_mmshare_version>
43012

> <i_f3d_flags>
0

> <s_epik_input>
W09IXVtDSDJdW0NASF0xT1tDQEhdKFtDQEhdKFtPSF0pW0NAQEhdMVtPSF0pbihbY0hdbjIpYyhjMjMpbltjSF1uYzNDbA==

> <s_epik_cmdline>
J2VwaWtfcHl0aG9uJywgJy1waCcsICc3LjAnLCAnLXRuJywgJzgnLCAnLW1hJywgJzIwMCcsICctbWV0YWxfYmluZGluZycsICctaW1hZScsICc8aW5maWxlLm1hZT4nLCAnLW9tYWUnLCAnPG91dGZpbGUubWFlPic=

> <r_lp_tautomer_probability>
1

> <r_epik_Ionization_Penalty>
3.45505e-06

> <r_epik_Ionization_Penalty_Charging>
0

> <r_epik_Ionization_Penalty_Neutral>
3.45505e-06

> <r_epik_State_Penalty>
-0

> <r_epik_Charging_Adjusted_Penalty>
0

> <i_epik_Tot_Q>
0

> <i_epik_Tot_abs_Q>
0

> <r_epik_Metal_State_Penalty>
-0

> <b_epik_Metal_Only>
0

> <s_epik_Chemistry_Notes>
This compound contains an acetal/aminal-like group ( X-CH(R)-Y where X, Y are N, S, or O) that may be acid/base labile, releasing an aldehyde.

> <s_lp_Force_Field>
OPLS_2005

> <r_lp_Energy>
40.6027

> <b_lp_Chiralities_Consistent>
1

> <s_lp_Variant>
AV-unprocessed.smi:48-13

> <Gold.Version>
5.8.1

> <Gold.Id.Protein>
6NUR|6NUR_protein|mol2

> <Gold.PLP.Fitness>
38.0956

> <Gold.PLP.PLP>
-26.1862

> <Gold.PLP.part.hbond>
-3.7621

> <Gold.PLP.part.metal>
0.0000

> <Gold.PLP.part.buried>
-4.5352

> <Gold.PLP.part.nonpolar>
-17.5161

> <Gold.PLP.part.repulsive>
0.4314

> <Gold.PLP.ligand.clash>
0.0000

> <Gold.PLP.ligand.torsion>
0.1111

> <Gold.PLP.Chemscore.Hbond>
3.9920

> <Gold.PLP.Chemscore.CHOScore>
0.0000

> <Gold.PLP.Chemscore.Metal>
0.0000

> <Gold.Chemscore.Hbonds>
donor molecule, donor type, donor heavy atom, donor atom, acceptor molecule, acceptor atom, score
      L1  H    17    29       P1  7957  1.00
      L1  H    19    30       P1 10175  1.00
      P1  H  7989  7998       L1    14  1.00
      P1  H 10752 10763       L1    12  1.00

> <Gold.PLP.Chemscore.Internal.Correction>
0.1557

> <Gold.Rescore>
     Score         DG    S(hbond)    S(metal)    S(lipo)     H(rot)  DE(clash)    DE(int)     intcor
     11.26     -12.45       3.86        0.00      32.43       3.80       0.05       1.14       ----

> <Gold.Chemscore.Fitness>
11.2620

> <Gold.Chemscore.DG>
-12.4451

> <Gold.Chemscore.ZeroCoef>
-5.4800

> <Gold.Chemscore.Hbond>
3.8633

> <Gold.Chemscore.Metal>
0.0000

> <Gold.Chemscore.Lipo>
32.4272

> <Gold.Chemscore.Internal_Hbond>
0.0000

> <Gold.Chemscore.DEClash>
0.0460

> <Gold.Chemscore.DEInternal>
1.1372

> <Gold.Chemscore.Rot>
3.8017

> <Gold.Chemscore.Internal.Correction>
   9.000000E+99

> <Gold.Chemscore.Hbonds>
donor molecule, donor type, donor heavy atom, donor atom, acceptor molecule, acceptor atom, score
      L1  H    17    29       P1  7957  0.97
      L1  H    19    30       P1 10175  1.00
      P1  H  7989  7998       L1    14  0.91
      P1  H 10752 10763       L1    12  0.62

> <Gold.Chemscore.Hbond.Weighted>
-12.9035

> <Gold.Chemscore.Metal.Weighted>
-0.0000

> <Gold.Chemscore.Lipo.Weighted>
-3.7940

> <Gold.Chemscore.Internal_Hbond.Weighted>
0.0000

> <Gold.Chemscore.DEClash.Weighted>
0.0460

> <Gold.Chemscore.DEInternal.Weighted>
1.1372

> <Gold.Chemscore.Rot.Weighted>
9.7324

> <Gold.Chemscore.Internal.Correction.Weighted>
   9.000000E+99

> <Gold.Protein.RotatedTorsions>
[ 6907 6896 6895 6894 ] final -179.33 input  -60.11 | X-H torsion
[ 7974 7965 7964 7962 ] final  141.75 input  175.53 | X-H torsion
[ 8008 7997 7996 7995 ] final  -81.97 input   59.86 | X-H torsion
[ 10167 10162 10161 10158 ] final  170.41 input  -65.29 | X-H torsion
[ 10718 10713 10712 10709 ] final -126.63 input   66.30 | X-H torsion
[ 10763 10752 10751 10750 ] final   48.63 input  -60.55 | X-H torsion
[ 11005 11000 10999 10996 ] final -165.60 input  -57.11 | X-H torsion

> <Gold.Protein.ActiveResidues>
 VAL166  LYS551  ARG553  GLY616  TRP617  ASP618  TYR619  PRO620  LYS621  CYS622 
 ASP623  PHE694  ASN695  SER759  ASP760  ASP761  ALA762  ILE779  LEU786  VAL792 
 PHE793  MET794  SER795  GLU796  ALA797  LYS798  CYS799  TRP800  GLU811  SER814 

> <Gold.Protein.RotatedAtoms>
  151.6517  133.3320  159.3153 H   0  0  0  0  0  0  0  0  0  0  0  0  # atno 6907 bound_to 6896
  150.7957  134.7018  159.6564 H   0  0  0  0  0  0  0  0  0  0  0  0  # atno 6908 bound_to 6896
  152.4043  134.6237  160.0109 H   0  0  0  0  0  0  0  0  0  0  0  0  # atno 6909 bound_to 6896
  144.9069  139.5346  143.5727 H   0  0  0  0  0  0  0  0  0  0  0  0  # atno 7974 bound_to 7965
  154.6038  140.0640  156.9403 H   0  0  0  0  0  0  0  0  0  0  0  0  # atno 8008 bound_to 7997
  155.2088  140.3321  155.4313 H   0  0  0  0  0  0  0  0  0  0  0  0  # atno 8009 bound_to 7997
  156.2335  140.1852  156.7165 H   0  0  0  0  0  0  0  0  0  0  0  0  # atno 8010 bound_to 7997
  139.5018  144.3599  151.9835 H   0  0  0  0  0  0  0  0  0  0  0  0  # atno 10167 bound_to 10162
  156.1783  130.6715  151.0271 H   0  0  0  0  0  0  0  0  0  0  0  0  # atno 10718 bound_to 10713
  152.9791  135.5938  154.3957 H   0  0  0  0  0  0  0  0  0  0  0  0  # atno 10763 bound_to 10752
  154.3608  135.2767  155.2323 H   0  0  0  0  0  0  0  0  0  0  0  0  # atno 10764 bound_to 10752
  154.4321  135.6034  153.6130 H   0  0  0  0  0  0  0  0  0  0  0  0  # atno 10765 bound_to 10752
  140.5738  134.5210  157.5166 H   0  0  0  0  0  0  0  0  0  0  0  0  # atno 11005 bound_to 11000
  146.3138  139.7844  142.8999 LP  0  0  0  0  0  0  0  0  0  0  0  0  # atno 17320 bound_to 7965
  145.3521  141.0309  143.3333 LP  0  0  0  0  0  0  0  0  0  0  0  0  # atno 17321 bound_to 7965
  140.3036  144.3619  150.6053 LP  0  0  0  0  0  0  0  0  0  0  0  0  # atno 17342 bound_to 10162
  140.5854  143.2170  151.7351 LP  0  0  0  0  0  0  0  0  0  0  0  0  # atno 17343 bound_to 10162
  157.6851  131.0827  150.7265 LP  0  0  0  0  0  0  0  0  0  0  0  0  # atno 17370 bound_to 10713
  156.7323  130.4713  149.5497 LP  0  0  0  0  0  0  0  0  0  0  0  0  # atno 17371 bound_to 10713
  139.9349  134.7894  156.0830 LP  0  0  0  0  0  0  0  0  0  0  0  0  # atno 17394 bound_to 11000
  141.1039  133.6667  156.2818 LP  0  0  0  0  0  0  0  0  0  0  0  0  # atno 17395 bound_to 11000

$$$$
