#       Name:                AV-unprocessed.smi:44
#       Creating user name   scv26
#       Creation time:       Thu Mar 26 16:25:06 2020


#       File generated by GOLD software.
#

@<TRIPOS>MOLECULE
AV-unprocessed.smi:44
    37    39     1
SMALL
NO_CHARGES


@<TRIPOS>ATOM
      1 ****        -1.9024   4.6597  -1.1616 O.2            1 S1                 0.0000
      2 ****        -1.2216   3.6434  -1.0401 C.2            1 S1                 0.0000
      3 ****         0.0403   3.5218  -1.5194 N.am           1 S1                 0.0000
      4 ****         0.8305   2.3529  -1.3827 C.2            1 S1                 0.0000
      5 ****         0.4472   1.2540  -0.7859 N.2            1 S1                 0.0000
      6 ****        -0.8368   1.3490  -0.2876 C.2            1 S1                 0.0000
      7 ****        -1.6917   2.4170  -0.3539 C.2            1 S1                 0.0000
      8 ****        -2.9019   2.1376   0.2681 N.2            1 S1                 0.0000
      9 ****        -2.7200   0.8884   0.6911 C.2            1 S1                 0.0000
     10 ****        -1.5220   0.3468   0.3969 N.pl3          1 S1                 0.0000
     11 ****        -1.0613  -1.0297   0.7541 C.3            1 S1                 0.0000
     12 ****        -0.9415  -1.9143  -0.4943 C.3            1 S1                 0.0000
     13 ****         0.5497  -2.1816  -0.5728 C.3            1 S1                 0.0000
     14 ****         0.9979  -2.0233   0.8785 C.3            1 S1                 0.0000
     15 ****         2.4919  -1.6984   1.0219 C.3            1 S1                 0.0000
     16 ****         2.9220  -1.9660   2.3394 O.3            1 S1                 0.0000
     17 ****         0.2080  -0.9282   1.3222 O.3            1 S1                 0.0000
     18 ****         0.4343   4.3164  -2.0020 H              1 S1                 0.0000
     19 ****        -1.7886  -1.4012   1.4774 H              1 S1                 0.0000
     20 ****         0.7315  -2.9220   1.4386 H              1 S1                 0.0000
     21 ****         1.8186   2.4529  -1.8340 H              1 S1                 0.0000
     22 ****        -3.4845   0.3485   1.2302 H              1 S1                 0.0000
     23 ****        -1.4941  -2.8383  -0.3202 H              1 S1                 0.0000
     24 ****        -1.3387  -1.4286  -1.3869 H              1 S1                 0.0000
     25 ****         0.7826  -3.1649  -0.9821 H              1 S1                 0.0000
     26 ****         1.0297  -1.4335  -1.2044 H              1 S1                 0.0000
     27 ****         3.0781  -2.3289   0.3528 H              1 S1                 0.0000
     28 ****         2.6993  -0.6613   0.7552 H              1 S1                 0.0000
     29 ****         3.8439  -1.7684   2.4014 H              1 S1                 0.0000
     30 ****        -2.8288   4.6888  -0.7862 LP             1 S1                 0.0000
     31 ****        -1.5298   5.4574  -1.6358 LP             1 S1                 0.0000
     32 ****         1.0190   0.4381  -0.7003 LP             1 S1                 0.0000
     33 ****        -3.7047   2.7248   0.3717 LP             1 S1                 0.0000
     34 ****         2.7689  -2.9305   2.5544 LP             1 S1                 0.0000
     35 ****         2.4112  -1.3959   2.9829 LP             1 S1                 0.0000
     36 ****         0.1327  -0.9504   2.3191 LP             1 S1                 0.0000
     37 ****         0.6351  -0.0694   1.0392 LP             1 S1                 0.0000
@<TRIPOS>BOND
    1    1    2 2     
    2    2    7 1     
    3    2    3 am    
    4    3   18 1     
    5    3    4 1     
    6    4    5 2     
    7    4   21 1     
    8    5    6 1     
    9    6   10 1     
   10    6    7 2     
   11    7    8 1     
   12    8    9 2     
   13    9   10 1     
   14    9   22 1     
   15   10   11 1     
   16   11   19 1     
   17   11   17 1     
   18   11   12 1     
   19   12   13 1     
   20   12   23 1     
   21   12   24 1     
   22   13   14 1     
   23   13   25 1     
   24   13   26 1     
   25   14   20 1     
   26   14   15 1     
   27   14   17 1     
   28   15   16 1     
   29   15   27 1     
   30   15   28 1     
   31   16   29 1     
   32    1   30 1     
   33    1   31 1     
   34    5   32 1     
   35    8   33 1     
   36   16   34 1     
   37   16   35 1     
   38   17   36 1     
   39   17   37 1     
@<TRIPOS>SUBSTRUCTURE
      1 S1             1
@<TRIPOS>SET
LONE_PAIRS      STATIC     ATOMS    <user>   **** ""
8 30 31 32 33 34 35 36 37
DONOR_HYDROGENS      STATIC     ATOMS    <user>   **** ""
2 18 29
ATOM$BLUE        STATIC     ATOMS    COLORGROUP SYSTEM
8 30 31 32 33 34 35 36 37
ATOM$RED        STATIC     ATOMS    COLORGROUP SYSTEM
2 18 29
