AV-unprocessed.smi:1584|AV-procd|sdf|6366|dock2
  -GOLD-   22720 6593D 1   1.00000     0.00000
 Structure written by MMmdl.
 39 40  0  0  0  0  0  0  0  0  1 V2000
  153.8127  139.8871  160.0959 C   0  0  0  0  0  0  0  0  0  0  0  0
  152.8668  141.0378  159.7267 C   0  0  1  0  0  0  0  0  0  0  0  0
  153.4684  142.4066  160.1145 C   0  0  0  0  0  0  0  0  0  0  0  0
  152.6292  143.5247  159.7195 N   0  0  0  0  0  0  0  0  0  0  0  0
  152.1261  144.5388  160.5075 C   0  0  0  0  0  0  0  0  0  0  0  0
  151.4138  145.3711  159.6927 C   0  0  0  0  0  0  0  0  0  0  0  0
  151.5355  144.7712  158.4080 C   0  0  0  0  0  0  0  0  0  0  0  0
  152.2587  143.6633  158.4283 N   0  0  0  0  0  0  0  0  0  0  0  0
  152.5879  140.9828  158.2921 N   0  0  0  0  0  0  0  0  0  0  0  0
  151.3696  140.8918  157.7348 C   0  0  0  0  0  0  0  0  0  0  0  0
  150.3333  140.7837  158.3914 O   0  0  0  0  0  0  0  0  0  0  0  0
  151.3148  140.9480  156.1988 C   0  0  2  0  0  0  0  0  0  0  0  0
  149.8761  140.9078  155.6638 C   0  0  0  0  0  0  0  0  0  0  0  0
  149.2526  139.5134  155.8126 C   0  0  0  0  0  0  0  0  0  0  0  0
  150.1244  138.4372  155.3248 N   0  0  0  0  0  0  0  0  0  0  0  0
  149.4410  137.1790  155.0198 C   0  0  0  0  0  0  0  0  0  0  0  0
  151.4712  138.5313  155.2059 C   0  0  0  0  0  0  0  0  0  0  0  0
  152.1638  137.5882  154.8215 O   0  0  0  0  0  0  0  0  0  0  0  0
  152.1862  139.8558  155.5369 C   0  0  0  0  0  0  0  0  0  0  0  0
  154.0215  139.8800  161.1660 H   0  0  0  0  0  0  0  0  0  0  0  0
  154.7655  139.9707  159.5718 H   0  0  0  0  0  0  0  0  0  0  0  0
  153.3749  138.9215  159.8409 H   0  0  0  0  0  0  0  0  0  0  0  0
  151.9442  140.8874  160.2905 H   0  0  0  0  0  0  0  0  0  0  0  0
  153.6150  142.4604  161.1942 H   0  0  0  0  0  0  0  0  0  0  0  0
  154.4529  142.5329  159.6617 H   0  0  0  0  0  0  0  0  0  0  0  0
  152.3234  144.5885  161.5681 H   0  0  0  0  0  0  0  0  0  0  0  0
  150.8884  146.2724  159.9707 H   0  0  0  0  0  0  0  0  0  0  0  0
  151.1222  145.1053  157.4679 H   0  0  0  0  0  0  0  0  0  0  0  0
  153.3825  141.0585  157.6737 H   0  0  0  0  0  0  0  0  0  0  0  0
  151.7394  141.9108  155.9091 H   0  0  0  0  0  0  0  0  0  0  0  0
  149.2548  141.6488  156.1688 H   0  0  0  0  0  0  0  0  0  0  0  0
  149.8811  141.1875  154.6094 H   0  0  0  0  0  0  0  0  0  0  0  0
  149.0176  139.3151  156.8590 H   0  0  0  0  0  0  0  0  0  0  0  0
  148.3025  139.4975  155.2770 H   0  0  0  0  0  0  0  0  0  0  0  0
  149.8673  136.3567  155.5963 H   0  0  0  0  0  0  0  0  0  0  0  0
  149.5375  136.9393  153.9602 H   0  0  0  0  0  0  0  0  0  0  0  0
  148.3769  137.2186  155.2554 H   0  0  0  0  0  0  0  0  0  0  0  0
  152.5729  140.2455  154.5947 H   0  0  0  0  0  0  0  0  0  0  0  0
  153.0658  139.6384  156.1452 H   0  0  0  0  0  0  0  0  0  0  0  0
  1  2  1  0  0  0  0
  1 20  1  0  0  0  0
  1 21  1  0  0  0  0
  1 22  1  0  0  0  0
  2  3  1  0  0  0  0
  2  9  1  0  0  0  0
  2 23  1  0  0  0  0
  3  4  1  0  0  0  0
  3 24  1  0  0  0  0
  3 25  1  0  0  0  0
  4  8  1  0  0  0  0
  4  5  1  0  0  0  0
  5  6  2  0  0  0  0
  5 26  1  0  0  0  0
  6  7  1  0  0  0  0
  6 27  1  0  0  0  0
  7  8  2  0  0  0  0
  7 28  1  0  0  0  0
  9 10  1  0  0  0  0
  9 29  1  0  0  0  0
 10 11  2  0  0  0  0
 10 12  1  0  0  0  0
 12 19  1  0  0  0  0
 12 13  1  0  0  0  0
 12 30  1  0  0  0  0
 13 14  1  0  0  0  0
 13 31  1  0  0  0  0
 13 32  1  0  0  0  0
 14 15  1  0  0  0  0
 14 33  1  0  0  0  0
 14 34  1  0  0  0  0
 15 16  1  0  0  0  0
 15 17  1  0  0  0  0
 16 35  1  0  0  0  0
 16 36  1  0  0  0  0
 16 37  1  0  0  0  0
 17 18  2  0  0  0  0
 17 19  1  0  0  0  0
 19 38  1  0  0  0  0
 19 39  1  0  0  0  0
M  END
> <s_m_source_file>
AV-unprocessed.smi

> <i_m_source_file_index>
1584

> <i_lp_mmshare_version>
43012

> <i_f3d_flags>
0

> <s_epik_input>
bjFbY0hdW2NIXVtjSF1uMVtDSDJdW0NAQEhdKFtDSDNdKVtOSF1DKD1PKVtDQEBIXTJbQ0gyXVtDSDJdTihbQ0gzXSlDKD1PKVtDSDJdMg==

> <s_epik_cmdline>
J2VwaWtfcHl0aG9uJywgJy1waCcsICc3LjAnLCAnLXRuJywgJzgnLCAnLW1hJywgJzIwMCcsICctbWV0YWxfYmluZGluZycsICctaW1hZScsICc8aW5maWxlLm1hZT4nLCAnLW9tYWUnLCAnPG91dGZpbGUubWFlPic=

> <r_lp_tautomer_probability>
1

> <r_epik_Ionization_Penalty>
0.000299422

> <r_epik_Ionization_Penalty_Charging>
0

> <r_epik_Ionization_Penalty_Neutral>
0.000299422

> <r_epik_State_Penalty>
-0

> <r_epik_Charging_Adjusted_Penalty>
0

> <i_epik_Tot_Q>
0

> <i_epik_Tot_abs_Q>
0

> <r_epik_Metal_State_Penalty>
-0

> <b_epik_Metal_Only>
0

> <s_lp_Force_Field>
OPLS_2005

> <r_lp_Energy>
11.5075

> <b_lp_Chiralities_Consistent>
1

> <s_lp_Variant>
AV-unprocessed.smi:1584-2

> <Gold.Version>
5.8.1

> <Gold.Id.Protein>
6NUR|6NUR_protein|mol2

> <Gold.PLP.Fitness>
45.7565

> <Gold.PLP.PLP>
-40.7125

> <Gold.PLP.part.hbond>
-1.0000

> <Gold.PLP.part.metal>
0.0000

> <Gold.PLP.part.buried>
-5.3224

> <Gold.PLP.part.nonpolar>
-35.0146

> <Gold.PLP.part.repulsive>
0.2175

> <Gold.PLP.ligand.clash>
0.0000

> <Gold.PLP.ligand.torsion>
0.0705

> <Gold.PLP.Chemscore.Hbond>
0.7360

> <Gold.PLP.Chemscore.CHOScore>
0.9749

> <Gold.PLP.Chemscore.Metal>
0.0000

> <Gold.Chemscore.Hbonds>
donor molecule, donor type, donor heavy atom, donor atom, acceptor molecule, acceptor atom, score
      P1  H 10752 10765       L1    18  0.57
      L1  C     7    28       P1  8028  0.20

> <Gold.PLP.Chemscore.Internal.Correction>
0.0524

> <Gold.Rescore>
     Score         DG    S(hbond)    S(metal)    S(lipo)     H(rot)  DE(clash)    DE(int)     intcor
     13.91     -14.69       0.88        0.00      90.33       1.67       0.03       0.75       ----

> <Gold.Chemscore.Fitness>
13.9135

> <Gold.Chemscore.DG>
-14.6928

> <Gold.Chemscore.ZeroCoef>
-5.4800

> <Gold.Chemscore.Hbond>
0.8766

> <Gold.Chemscore.Metal>
0.0000

> <Gold.Chemscore.Lipo>
90.3337

> <Gold.Chemscore.Internal_Hbond>
0.0000

> <Gold.Chemscore.DEClash>
0.0255

> <Gold.Chemscore.DEInternal>
0.7538

> <Gold.Chemscore.Rot>
1.6734

> <Gold.Chemscore.Internal.Correction>
   9.000000E+99

> <Gold.Chemscore.Hbonds>
donor molecule, donor type, donor heavy atom, donor atom, acceptor molecule, acceptor atom, score
      P1  H 10752 10765       L1    18  0.58

> <Gold.Chemscore.Hbond.Weighted>
-2.9278

> <Gold.Chemscore.Metal.Weighted>
-0.0000

> <Gold.Chemscore.Lipo.Weighted>
-10.5690

> <Gold.Chemscore.Internal_Hbond.Weighted>
0.0000

> <Gold.Chemscore.DEClash.Weighted>
0.0255

> <Gold.Chemscore.DEInternal.Weighted>
0.7538

> <Gold.Chemscore.Rot.Weighted>
4.2840

> <Gold.Chemscore.Internal.Correction.Weighted>
   9.000000E+99

> <Gold.Protein.RotatedTorsions>
[ 6907 6896 6895 6894 ] final -163.64 input  -60.11 | X-H torsion
[ 7974 7965 7964 7962 ] final   91.31 input  175.53 | X-H torsion
[ 8008 7997 7996 7995 ] final -113.40 input   59.86 | X-H torsion
[ 10167 10162 10161 10158 ] final  123.28 input  -65.29 | X-H torsion
[ 10718 10713 10712 10709 ] final -122.54 input   66.30 | X-H torsion
[ 10763 10752 10751 10750 ] final  174.26 input  -60.55 | X-H torsion
[ 11005 11000 10999 10996 ] final  -67.59 input  -57.11 | X-H torsion

> <Gold.Protein.ActiveResidues>
 VAL166  LYS551  ARG553  GLY616  TRP617  ASP618  TYR619  PRO620  LYS621  CYS622 
 ASP623  PHE694  ASN695  SER759  ASP760  ASP761  ALA762  ILE779  LEU786  VAL792 
 PHE793  MET794  SER795  GLU796  ALA797  LYS798  CYS799  TRP800  GLU811  SER814 

> <Gold.Protein.RotatedAtoms>
  151.3992  133.3763  159.2729 H   0  0  0  0  0  0  0  0  0  0  0  0  # atno 6907 bound_to 6896
  150.9446  134.8853  159.7644 H   0  0  0  0  0  0  0  0  0  0  0  0  # atno 6908 bound_to 6896
  152.5086  134.3944  159.9447 H   0  0  0  0  0  0  0  0  0  0  0  0  # atno 6909 bound_to 6896
  145.5073  139.2276  143.2744 H   0  0  0  0  0  0  0  0  0  0  0  0  # atno 7974 bound_to 7965
  155.0201  140.0393  157.2434 H   0  0  0  0  0  0  0  0  0  0  0  0  # atno 8008 bound_to 7997
  154.7385  140.2744  155.6370 H   0  0  0  0  0  0  0  0  0  0  0  0  # atno 8009 bound_to 7997
  156.2859  140.2670  156.2106 H   0  0  0  0  0  0  0  0  0  0  0  0  # atno 8010 bound_to 7997
  139.5809  144.6985  151.3532 H   0  0  0  0  0  0  0  0  0  0  0  0  # atno 10167 bound_to 10162
  156.1427  130.6477  150.9795 H   0  0  0  0  0  0  0  0  0  0  0  0  # atno 10718 bound_to 10713
  154.4514  135.2765  155.1778 H   0  0  0  0  0  0  0  0  0  0  0  0  # atno 10763 bound_to 10752
  154.3604  135.6131  153.5691 H   0  0  0  0  0  0  0  0  0  0  0  0  # atno 10764 bound_to 10752
  152.9847  135.5833  154.4859 H   0  0  0  0  0  0  0  0  0  0  0  0  # atno 10765 bound_to 10752
  141.1512  133.6722  156.6316 H   0  0  0  0  0  0  0  0  0  0  0  0  # atno 11005 bound_to 11000
  146.2188  140.5878  142.9026 LP  0  0  0  0  0  0  0  0  0  0  0  0  # atno 17320 bound_to 7965
  144.7746  140.5713  143.6646 LP  0  0  0  0  0  0  0  0  0  0  0  0  # atno 17321 bound_to 7965
  140.7087  143.7447  150.7527 LP  0  0  0  0  0  0  0  0  0  0  0  0  # atno 17342 bound_to 10162
  140.0979  143.4815  152.2442 LP  0  0  0  0  0  0  0  0  0  0  0  0  # atno 17343 bound_to 10162
  157.6590  131.0884  150.7882 LP  0  0  0  0  0  0  0  0  0  0  0  0  # atno 17370 bound_to 10713
  156.7956  130.4904  149.5378 LP  0  0  0  0  0  0  0  0  0  0  0  0  # atno 17371 bound_to 10713
  140.3462  134.7807  157.4434 LP  0  0  0  0  0  0  0  0  0  0  0  0  # atno 17394 bound_to 11000
  140.0897  134.5617  155.8456 LP  0  0  0  0  0  0  0  0  0  0  0  0  # atno 17395 bound_to 11000

$$$$
