AV-unprocessed.smi:2159|AV-procd|sdf|8795|dock1
  -GOLD-   2272011573D 1   1.00000     0.00000
 Structure written by MMmdl.
 48 50  0  0  0  0  0  0  0  0  2 V2000
  146.9125  139.1515  155.0499 O   0  0  0  0  0  0  0  0  0  0  0  0
  147.7278  138.6872  154.2536 C   0  0  0  0  0  0  0  0  0  0  0  0
  149.1587  139.2252  154.2147 C   0  0  0  0  0  0  0  0  0  0  0  0
  149.9268  138.9012  155.5118 C   0  0  0  0  0  0  0  0  0  0  0  0
  150.4303  140.1181  156.1552 N   0  0  0  0  0  0  0  0  0  0  0  0
  151.6870  140.2620  156.5985 C   0  0  0  0  0  0  0  0  0  0  0  0
  152.5768  139.4118  156.5458 O   0  0  0  0  0  0  0  0  0  0  0  0
  151.9067  141.6538  157.1856 C   0  0  2  0  0  0  0  0  0  0  0  0
  152.4089  141.6014  158.6438 C   0  0  0  0  0  0  0  0  0  0  0  0
  152.2896  142.9774  159.3212 C   0  0  0  0  0  0  0  0  0  0  0  0
  150.8810  143.6014  159.2042 C   0  0  0  0  0  0  0  0  0  0  0  0
  149.8979  142.7559  158.3749 C   0  0  0  0  0  0  0  0  0  0  0  0
  150.5194  142.3145  157.0331 C   0  0  2  0  0  0  0  0  0  0  0  0
  149.6962  141.2212  156.3559 C   0  0  0  0  0  0  0  0  0  0  0  0
  148.5149  141.3734  156.0453 O   0  0  0  0  0  0  0  0  0  0  0  0
  147.4454  137.6837  153.4090 N   0  0  0  0  0  0  0  0  0  0  0  0
  146.1852  136.9478  153.3666 C   0  0  0  0  0  0  0  0  0  0  0  0
  145.6023  136.8356  151.9415 C   0  0  0  0  0  0  0  0  0  0  0  0
  145.5471  135.4108  151.4157 C   0  0  0  0  0  0  0  0  0  0  0  0
  144.3746  134.8665  150.8468 C   0  0  0  0  0  0  0  0  0  0  0  0
  144.3805  133.5287  150.4013 C   0  0  0  0  0  0  0  0  0  0  0  0
  145.5592  132.7652  150.5285 C   0  0  0  0  0  0  0  0  0  0  0  0
  146.7032  133.3599  151.0991 C   0  0  0  0  0  0  0  0  0  0  0  0
  146.6568  134.6440  151.5174 N   0  3  0  0  0  0  0  0  0  0  0  0
  149.6745  138.7891  153.3572 H   0  0  0  0  0  0  0  0  0  0  0  0
  149.1368  140.3024  154.0471 H   0  0  0  0  0  0  0  0  0  0  0  0
  149.2820  138.3474  156.1966 H   0  0  0  0  0  0  0  0  0  0  0  0
  150.7660  138.2341  155.3050 H   0  0  0  0  0  0  0  0  0  0  0  0
  152.6329  142.1839  156.5676 H   0  0  0  0  0  0  0  0  0  0  0  0
  151.8392  140.8675  159.2167 H   0  0  0  0  0  0  0  0  0  0  0  0
  153.4468  141.2675  158.6704 H   0  0  0  0  0  0  0  0  0  0  0  0
  152.5725  142.8947  160.3709 H   0  0  0  0  0  0  0  0  0  0  0  0
  153.0146  143.6560  158.8700 H   0  0  0  0  0  0  0  0  0  0  0  0
  150.4656  143.7657  160.1989 H   0  0  0  0  0  0  0  0  0  0  0  0
  150.9697  144.5901  158.7523 H   0  0  0  0  0  0  0  0  0  0  0  0
  149.6002  141.8817  158.9568 H   0  0  0  0  0  0  0  0  0  0  0  0
  148.9843  143.3244  158.1972 H   0  0  0  0  0  0  0  0  0  0  0  0
  150.5911  143.1710  156.3612 H   0  0  0  0  0  0  0  0  0  0  0  0
  148.1748  137.3760  152.7819 H   0  0  0  0  0  0  0  0  0  0  0  0
  146.3087  135.9582  153.8091 H   0  0  0  0  0  0  0  0  0  0  0  0
  145.4805  137.4836  154.0031 H   0  0  0  0  0  0  0  0  0  0  0  0
  144.5939  137.2509  151.9252 H   0  0  0  0  0  0  0  0  0  0  0  0
  146.1874  137.4483  151.2549 H   0  0  0  0  0  0  0  0  0  0  0  0
  143.4775  135.4624  150.7621 H   0  0  0  0  0  0  0  0  0  0  0  0
  143.4906  133.0936  149.9702 H   0  0  0  0  0  0  0  0  0  0  0  0
  145.5842  131.7384  150.1939 H   0  0  0  0  0  0  0  0  0  0  0  0
  147.6460  132.8503  151.2350 H   0  0  0  0  0  0  0  0  0  0  0  0
  147.4957  135.0524  151.9303 H   0  0  0  0  0  0  0  0  0  0  0  0
  1  2  2  0  0  0  0
  2  3  1  0  0  0  0
  2 16  1  0  0  0  0
  3  4  1  0  0  0  0
  3 25  1  0  0  0  0
  3 26  1  0  0  0  0
  4  5  1  0  0  0  0
  4 27  1  0  0  0  0
  4 28  1  0  0  0  0
  5 14  1  0  0  0  0
  5  6  1  0  0  0  0
  6  7  2  0  0  0  0
  6  8  1  0  0  0  0
  8 13  1  0  0  0  0
  8  9  1  0  0  0  0
  8 29  1  0  0  0  0
  9 10  1  0  0  0  0
  9 30  1  0  0  0  0
  9 31  1  0  0  0  0
 10 11  1  0  0  0  0
 10 32  1  0  0  0  0
 10 33  1  0  0  0  0
 11 12  1  0  0  0  0
 11 34  1  0  0  0  0
 11 35  1  0  0  0  0
 12 13  1  0  0  0  0
 12 36  1  0  0  0  0
 12 37  1  0  0  0  0
 13 14  1  0  0  0  0
 13 38  1  0  0  0  0
 14 15  2  0  0  0  0
 16 17  1  0  0  0  0
 16 39  1  0  0  0  0
 17 18  1  0  0  0  0
 17 40  1  0  0  0  0
 17 41  1  0  0  0  0
 18 19  1  0  0  0  0
 18 42  1  0  0  0  0
 18 43  1  0  0  0  0
 19 24  1  0  0  0  0
 19 20  2  0  0  0  0
 20 21  1  0  0  0  0
 20 44  1  0  0  0  0
 21 22  2  0  0  0  0
 21 45  1  0  0  0  0
 22 23  1  0  0  0  0
 22 46  1  0  0  0  0
 23 24  2  0  0  0  0
 23 47  1  0  0  0  0
 24 48  1  0  0  0  0
M  CHG  1  24   1
M  END
> <s_m_source_file>
AV-unprocessed.smi

> <i_m_source_file_index>
2159

> <i_lp_mmshare_version>
43012

> <i_f3d_flags>
0

> <s_epik_input>
bjFbY0hdW2NIXVtjSF1bY0hdYzFbQ0gyXVtDSDJdW05IXUMoPU8pW0NIMl1bQ0gyXU4oQzI9TylDKD1PKVtDQEhdKFtDQEBIXTIzKVtDSDJdW0NIMl1bQ0gyXVtDSDJdMw==

> <s_epik_cmdline>
J2VwaWtfcHl0aG9uJywgJy1waCcsICc3LjAnLCAnLXRuJywgJzgnLCAnLW1hJywgJzIwMCcsICctbWV0YWxfYmluZGluZycsICctaW1hZScsICc8aW5maWxlLm1hZT4nLCAnLW9tYWUnLCAnPG91dGZpbGUubWFlPic=

> <r_lp_tautomer_probability>
1

> <r_epik_Ionization_Penalty>
1.85146

> <r_epik_Ionization_Penalty_Charging>
1.85146

> <r_epik_Ionization_Penalty_Neutral>
2.95922e-08

> <r_epik_State_Penalty>
1.96899

> <r_epik_Charging_Adjusted_Penalty>
3.82044

> <i_epik_Tot_Q>
1

> <i_epik_Tot_abs_Q>
1

> <r_epik_Metal_State_Penalty>
1.99467

> <b_epik_Metal_Only>
0

> <s_lp_Force_Field>
OPLS_2005

> <r_lp_Energy>
31.2596

> <b_lp_Chiralities_Consistent>
1

> <s_lp_Variant>
AV-unprocessed.smi:2159-5

> <Gold.Version>
5.8.1

> <Gold.Id.Protein>
6NUR|6NUR_protein|mol2

> <Gold.PLP.Fitness>
47.3219

> <Gold.PLP.PLP>
-37.2979

> <Gold.PLP.part.hbond>
-3.0000

> <Gold.PLP.part.metal>
0.0000

> <Gold.PLP.part.buried>
-5.2056

> <Gold.PLP.part.nonpolar>
-29.4810

> <Gold.PLP.part.repulsive>
0.2375

> <Gold.PLP.ligand.clash>
0.0000

> <Gold.PLP.ligand.torsion>
1.0895

> <Gold.PLP.Chemscore.Hbond>
4.0000

> <Gold.PLP.Chemscore.CHOScore>
0.0000

> <Gold.PLP.Chemscore.Metal>
0.0000

> <Gold.Chemscore.Hbonds>
donor molecule, donor type, donor heavy atom, donor atom, acceptor molecule, acceptor atom, score
      L1  H    16    39       P1  7948  1.00
      L1  H    24    48       P1  7948  2.00
      P1  H  7997  8008       L1     7  1.00

> <Gold.PLP.Chemscore.Internal.Correction>
0.2030

> <Gold.Rescore>
     Score         DG    S(hbond)    S(metal)    S(lipo)     H(rot)  DE(clash)    DE(int)     intcor
     17.09     -22.07       2.88        0.00     105.40       2.10       1.49       3.49       ----

> <Gold.Chemscore.Fitness>
17.0906

> <Gold.Chemscore.DG>
-22.0738

> <Gold.Chemscore.ZeroCoef>
-5.4800

> <Gold.Chemscore.Hbond>
2.8823

> <Gold.Chemscore.Metal>
0.0000

> <Gold.Chemscore.Lipo>
105.4048

> <Gold.Chemscore.Internal_Hbond>
0.0000

> <Gold.Chemscore.DEClash>
1.4934

> <Gold.Chemscore.DEInternal>
3.4898

> <Gold.Chemscore.Rot>
2.0959

> <Gold.Chemscore.Internal.Correction>
   9.000000E+99

> <Gold.Chemscore.Hbonds>
donor molecule, donor type, donor heavy atom, donor atom, acceptor molecule, acceptor atom, score
      L1  H    16    39       P1  7948  0.97
      L1  H    24    48       P1  7948  0.86
      P1  H  7997  8008       L1     7  0.90

> <Gold.Chemscore.Hbond.Weighted>
-9.6269

> <Gold.Chemscore.Metal.Weighted>
-0.0000

> <Gold.Chemscore.Lipo.Weighted>
-12.3324

> <Gold.Chemscore.Internal_Hbond.Weighted>
0.0000

> <Gold.Chemscore.DEClash.Weighted>
1.4934

> <Gold.Chemscore.DEInternal.Weighted>
3.4898

> <Gold.Chemscore.Rot.Weighted>
5.3655

> <Gold.Chemscore.Internal.Correction.Weighted>
   9.000000E+99

> <Gold.Protein.RotatedTorsions>
[ 6907 6896 6895 6894 ] final -115.01 input  -60.11 | X-H torsion
[ 7974 7965 7964 7962 ] final   28.48 input  175.53 | X-H torsion
[ 8008 7997 7996 7995 ] final  -50.19 input   59.86 | X-H torsion
[ 10167 10162 10161 10158 ] final  -80.77 input  -65.29 | X-H torsion
[ 10718 10713 10712 10709 ] final  -22.02 input   66.30 | X-H torsion
[ 10763 10752 10751 10750 ] final  -64.28 input  -60.55 | X-H torsion
[ 11005 11000 10999 10996 ] final  -98.64 input  -57.11 | X-H torsion

> <Gold.Protein.ActiveResidues>
 VAL166  LYS551  ARG553  GLY616  TRP617  ASP618  TYR619  PRO620  LYS621  CYS622 
 ASP623  PHE694  ASN695  SER759  ASP760  ASP761  ALA762  ILE779  LEU786  VAL792 
 PHE793  MET794  SER795  GLU796  ALA797  LYS798  CYS799  TRP800  GLU811  SER814 

> <Gold.Protein.RotatedAtoms>
  150.7945  133.8720  159.3261 H   0  0  0  0  0  0  0  0  0  0  0  0  # atno 6907 bound_to 6896
  151.6549  135.0995  160.0177 H   0  0  0  0  0  0  0  0  0  0  0  0  # atno 6908 bound_to 6896
  152.4024  133.6799  159.6363 H   0  0  0  0  0  0  0  0  0  0  0  0  # atno 6909 bound_to 6896
  146.1726  139.7050  142.8957 H   0  0  0  0  0  0  0  0  0  0  0  0  # atno 7974 bound_to 7965
  154.4057  140.1278  156.4626 H   0  0  0  0  0  0  0  0  0  0  0  0  # atno 8008 bound_to 7997
  155.7258  140.3492  155.5017 H   0  0  0  0  0  0  0  0  0  0  0  0  # atno 8009 bound_to 7997
  155.9173  140.1046  157.1224 H   0  0  0  0  0  0  0  0  0  0  0  0  # atno 8010 bound_to 7997
  140.4473  143.2494  151.8540 H   0  0  0  0  0  0  0  0  0  0  0  0  # atno 10167 bound_to 10162
  156.5102  130.4608  149.6652 H   0  0  0  0  0  0  0  0  0  0  0  0  # atno 10718 bound_to 10713
  154.3277  135.6183  153.5537 H   0  0  0  0  0  0  0  0  0  0  0  0  # atno 10763 bound_to 10752
  152.9814  135.5739  154.4997 H   0  0  0  0  0  0  0  0  0  0  0  0  # atno 10764 bound_to 10752
  154.4678  135.2858  155.1642 H   0  0  0  0  0  0  0  0  0  0  0  0  # atno 10765 bound_to 10752
  141.1337  133.8261  157.0866 H   0  0  0  0  0  0  0  0  0  0  0  0  # atno 11005 bound_to 11000
  145.4298  141.0414  143.2917 LP  0  0  0  0  0  0  0  0  0  0  0  0  # atno 17320 bound_to 7965
  144.8187  139.5831  143.6997 LP  0  0  0  0  0  0  0  0  0  0  0  0  # atno 17321 bound_to 7965
  139.4794  144.5160  151.8867 LP  0  0  0  0  0  0  0  0  0  0  0  0  # atno 17342 bound_to 10162
  140.4248  144.2194  150.5887 LP  0  0  0  0  0  0  0  0  0  0  0  0  # atno 17343 bound_to 10162
  156.3248  130.7300  151.2218 LP  0  0  0  0  0  0  0  0  0  0  0  0  # atno 17370 bound_to 10713
  157.7451  131.0446  150.4801 LP  0  0  0  0  0  0  0  0  0  0  0  0  # atno 17371 bound_to 10713
  140.0418  134.9850  157.0976 LP  0  0  0  0  0  0  0  0  0  0  0  0  # atno 17394 bound_to 11000
  140.4123  134.1968  155.7163 LP  0  0  0  0  0  0  0  0  0  0  0  0  # atno 17395 bound_to 11000

$$$$
