AV-unprocessed.smi:1793|AV-procd|sdf|7229|dock9
  -GOLD-   22720 8473D 1   1.00000     0.00000
 Structure written by MMmdl.
 47 49  0  0  0  0  0  0  0  0  2 V2000
  143.8195  136.2224  151.7447 C   0  0  0  0  0  0  0  0  0  0  0  0
  143.9283  136.6149  153.2252 C   0  0  1  0  0  0  0  0  0  0  0  0
  144.5781  137.9209  153.3235 N   0  0  0  0  0  0  0  0  0  0  0  0
  145.7938  138.1586  153.8361 C   0  0  0  0  0  0  0  0  0  0  0  0
  146.5276  137.2853  154.2980 O   0  0  0  0  0  0  0  0  0  0  0  0
  146.1022  139.4639  153.7623 N   0  0  0  0  0  0  0  0  0  0  0  0
  147.3272  140.0924  154.1228 C   0  0  0  0  0  0  0  0  0  0  0  0
  148.5567  139.3875  154.0573 C   0  0  0  0  0  0  0  0  0  0  0  0
  149.7459  140.0058  154.4865 C   0  0  0  0  0  0  0  0  0  0  0  0
  149.6869  141.3154  154.9917 C   0  0  0  0  0  0  0  0  0  0  0  0
  148.5011  141.9553  155.0526 N   0  3  0  0  0  0  0  0  0  0  0  0
  147.3239  141.4209  154.6408 C   0  0  0  0  0  0  0  0  0  0  0  0
  146.1633  142.2205  154.7588 N   0  0  0  0  0  0  0  0  0  0  0  0
  145.7787  142.7789  156.0500 C   0  0  0  0  0  0  0  0  0  0  0  0
  144.7210  143.8313  155.7287 C   0  0  0  0  0  0  0  0  0  0  0  0
  145.2037  144.3847  154.3916 C   0  0  0  0  0  0  0  0  0  0  0  0
  145.8312  143.1696  153.7007 C   0  0  0  0  0  0  0  0  0  0  0  0
  142.5495  136.6570  153.9124 C   0  0  2  0  0  0  0  0  0  0  0  0
  141.6754  135.4246  153.6782 C   0  0  0  0  0  0  0  0  0  0  0  0
  140.2689  135.9444  153.9230 C   0  0  0  0  0  0  0  0  0  0  0  0
  140.4023  137.4629  153.7710 C   0  0  0  0  0  0  0  0  0  0  0  0
  141.7458  137.6905  153.3652 O   0  0  0  0  0  0  0  0  0  0  0  0
  143.3672  135.2368  151.6316 H   0  0  0  0  0  0  0  0  0  0  0  0
  144.8031  136.1860  151.2748 H   0  0  0  0  0  0  0  0  0  0  0  0
  143.2093  136.9341  151.1875 H   0  0  0  0  0  0  0  0  0  0  0  0
  144.5331  135.8553  153.7235 H   0  0  0  0  0  0  0  0  0  0  0  0
  144.0533  138.7071  152.9692 H   0  0  0  0  0  0  0  0  0  0  0  0
  145.4363  140.0502  153.2806 H   0  0  0  0  0  0  0  0  0  0  0  0
  148.6035  138.3682  153.7043 H   0  0  0  0  0  0  0  0  0  0  0  0
  150.6867  139.4767  154.4408 H   0  0  0  0  0  0  0  0  0  0  0  0
  150.5441  141.8661  155.3512 H   0  0  0  0  0  0  0  0  0  0  0  0
  145.3937  142.0096  156.7198 H   0  0  0  0  0  0  0  0  0  0  0  0
  146.6353  143.2557  156.5283 H   0  0  0  0  0  0  0  0  0  0  0  0
  143.7464  143.3568  155.6053 H   0  0  0  0  0  0  0  0  0  0  0  0
  144.6320  144.5952  156.5017 H   0  0  0  0  0  0  0  0  0  0  0  0
  144.4054  144.8400  153.8050 H   0  0  0  0  0  0  0  0  0  0  0  0
  145.9679  145.1437  154.5641 H   0  0  0  0  0  0  0  0  0  0  0  0
  146.7041  143.4556  153.1126 H   0  0  0  0  0  0  0  0  0  0  0  0
  145.1055  142.7070  153.0317 H   0  0  0  0  0  0  0  0  0  0  0  0
  142.6625  136.8294  154.9846 H   0  0  0  0  0  0  0  0  0  0  0  0
  141.7669  135.0910  152.6435 H   0  0  0  0  0  0  0  0  0  0  0  0
  141.9372  134.5880  154.3266 H   0  0  0  0  0  0  0  0  0  0  0  0
  139.5589  135.5207  153.2121 H   0  0  0  0  0  0  0  0  0  0  0  0
  139.9284  135.6937  154.9283 H   0  0  0  0  0  0  0  0  0  0  0  0
  139.7052  137.8709  153.0389 H   0  0  0  0  0  0  0  0  0  0  0  0
  140.2238  137.9612  154.7247 H   0  0  0  0  0  0  0  0  0  0  0  0
  148.4912  142.9047  155.4259 H   0  0  0  0  0  0  0  0  0  0  0  0
  1  2  1  0  0  0  0
  1 23  1  0  0  0  0
  1 24  1  0  0  0  0
  1 25  1  0  0  0  0
  2  3  1  0  0  0  0
  2 18  1  0  0  0  0
  2 26  1  0  0  0  0
  3  4  1  0  0  0  0
  3 27  1  0  0  0  0
  4  5  2  0  0  0  0
  4  6  1  0  0  0  0
  6  7  1  0  0  0  0
  6 28  1  0  0  0  0
  7 12  1  0  0  0  0
  7  8  2  0  0  0  0
  8  9  1  0  0  0  0
  8 29  1  0  0  0  0
  9 10  2  0  0  0  0
  9 30  1  0  0  0  0
 10 11  1  0  0  0  0
 10 31  1  0  0  0  0
 11 12  2  0  0  0  0
 11 47  1  0  0  0  0
 12 13  1  0  0  0  0
 13 17  1  0  0  0  0
 13 14  1  0  0  0  0
 14 15  1  0  0  0  0
 14 32  1  0  0  0  0
 14 33  1  0  0  0  0
 15 16  1  0  0  0  0
 15 34  1  0  0  0  0
 15 35  1  0  0  0  0
 16 17  1  0  0  0  0
 16 36  1  0  0  0  0
 16 37  1  0  0  0  0
 17 38  1  0  0  0  0
 17 39  1  0  0  0  0
 18 22  1  0  0  0  0
 18 19  1  0  0  0  0
 18 40  1  0  0  0  0
 19 20  1  0  0  0  0
 19 41  1  0  0  0  0
 19 42  1  0  0  0  0
 20 21  1  0  0  0  0
 20 43  1  0  0  0  0
 20 44  1  0  0  0  0
 21 22  1  0  0  0  0
 21 45  1  0  0  0  0
 21 46  1  0  0  0  0
M  CHG  1  11   1
M  END
> <s_m_source_file>
AV-unprocessed.smi

> <i_m_source_file_index>
1793

> <i_lp_mmshare_version>
43012

> <i_f3d_flags>
0

> <s_epik_input>
TzFbQ0gyXVtDSDJdW0NIMl1bQ0BIXTFbQ0BIXShbQ0gzXSlbTkhdQyg9TylbTkhdYzJbY0hdW2NIXVtjSF1uYzJOM1tDSDJdW0NIMl1bQ0gyXVtDSDJdMw==

> <s_epik_cmdline>
J2VwaWtfcHl0aG9uJywgJy1waCcsICc3LjAnLCAnLXRuJywgJzgnLCAnLW1hJywgJzIwMCcsICctbWV0YWxfYmluZGluZycsICctaW1hZScsICc8aW5maWxlLm1hZT4nLCAnLW9tYWUnLCAnPG91dGZpbGUubWFlPic=

> <r_lp_tautomer_probability>
0.999994

> <r_epik_Ionization_Penalty>
1.11092

> <r_epik_Ionization_Penalty_Charging>
1.1109

> <r_epik_Ionization_Penalty_Neutral>
1.9363e-05

> <r_epik_State_Penalty>
1.16888

> <r_epik_Charging_Adjusted_Penalty>
2.27978

> <i_epik_Tot_Q>
1

> <i_epik_Tot_abs_Q>
1

> <r_epik_Metal_State_Penalty>
1.25472

> <b_epik_Metal_Only>
0

> <s_lp_Force_Field>
OPLS_2005

> <r_lp_Energy>
51.9838

> <b_lp_Chiralities_Consistent>
1

> <s_lp_Variant>
AV-unprocessed.smi:1793-6

> <Gold.Version>
5.8.1

> <Gold.Id.Protein>
6NUR|6NUR_protein|mol2

> <Gold.PLP.Fitness>
46.4581

> <Gold.PLP.PLP>
-35.3429

> <Gold.PLP.part.hbond>
-3.0000

> <Gold.PLP.part.metal>
0.0000

> <Gold.PLP.part.buried>
-5.8604

> <Gold.PLP.part.nonpolar>
-26.2076

> <Gold.PLP.part.repulsive>
0.6635

> <Gold.PLP.ligand.clash>
0.0000

> <Gold.PLP.ligand.torsion>
0.6614

> <Gold.PLP.Chemscore.Hbond>
4.0000

> <Gold.PLP.Chemscore.CHOScore>
0.0000

> <Gold.PLP.Chemscore.Metal>
0.0000

> <Gold.Chemscore.Hbonds>
donor molecule, donor type, donor heavy atom, donor atom, acceptor molecule, acceptor atom, score
      L1  H     3    27       P1 10175  1.00
      L1  H     6    28       P1 10175  1.00
      L1  H    11    47       P1  8028  2.00

> <Gold.PLP.Chemscore.Internal.Correction>
0.4380

> <Gold.Rescore>
     Score         DG    S(hbond)    S(metal)    S(lipo)     H(rot)  DE(clash)    DE(int)     intcor
     19.17     -21.16       2.92        0.00      80.80       1.38       0.08       1.90       ----

> <Gold.Chemscore.Fitness>
19.1748

> <Gold.Chemscore.DG>
-21.1595

> <Gold.Chemscore.ZeroCoef>
-5.4800

> <Gold.Chemscore.Hbond>
2.9217

> <Gold.Chemscore.Metal>
0.0000

> <Gold.Chemscore.Lipo>
80.8037

> <Gold.Chemscore.Internal_Hbond>
0.0000

> <Gold.Chemscore.DEClash>
0.0811

> <Gold.Chemscore.DEInternal>
1.9036

> <Gold.Chemscore.Rot>
1.3802

> <Gold.Chemscore.Internal.Correction>
   9.000000E+99

> <Gold.Chemscore.Hbonds>
donor molecule, donor type, donor heavy atom, donor atom, acceptor molecule, acceptor atom, score
      L1  H     3    27       P1 10175  1.00
      L1  H     6    28       P1 10175  0.96
      L1  H    11    47       P1  8028  1.00

> <Gold.Chemscore.Hbond.Weighted>
-9.7586

> <Gold.Chemscore.Metal.Weighted>
-0.0000

> <Gold.Chemscore.Lipo.Weighted>
-9.4540

> <Gold.Chemscore.Internal_Hbond.Weighted>
0.0000

> <Gold.Chemscore.DEClash.Weighted>
0.0811

> <Gold.Chemscore.DEInternal.Weighted>
1.9036

> <Gold.Chemscore.Rot.Weighted>
3.5332

> <Gold.Chemscore.Internal.Correction.Weighted>
   9.000000E+99

> <Gold.Protein.RotatedTorsions>
[ 6907 6896 6895 6894 ] final   77.48 input  -60.11 | X-H torsion
[ 7974 7965 7964 7962 ] final  -25.55 input  175.53 | X-H torsion
[ 8008 7997 7996 7995 ] final   55.28 input   59.86 | X-H torsion
[ 10167 10162 10161 10158 ] final  -16.00 input  -65.29 | X-H torsion
[ 10718 10713 10712 10709 ] final  -92.90 input   66.30 | X-H torsion
[ 10763 10752 10751 10750 ] final  112.04 input  -60.55 | X-H torsion
[ 11005 11000 10999 10996 ] final  100.26 input  -57.11 | X-H torsion

> <Gold.Protein.ActiveResidues>
 VAL166  LYS551  ARG553  GLY616  TRP617  ASP618  TYR619  PRO620  LYS621  CYS622 
 ASP623  PHE694  ASN695  SER759  ASP760  ASP761  ALA762  ILE779  LEU786  VAL792 
 PHE793  MET794  SER795  GLU796  ALA797  LYS798  CYS799  TRP800  GLU811  SER814 

> <Gold.Protein.RotatedAtoms>
  152.5119  134.3811  159.9351 H   0  0  0  0  0  0  0  0  0  0  0  0  # atno 6907 bound_to 6896
  151.3768  133.3829  159.2713 H   0  0  0  0  0  0  0  0  0  0  0  0  # atno 6908 bound_to 6896
  150.9535  134.8952  159.7745 H   0  0  0  0  0  0  0  0  0  0  0  0  # atno 6909 bound_to 6896
  146.1483  140.4902  142.8622 H   0  0  0  0  0  0  0  0  0  0  0  0  # atno 7974 bound_to 7965
  155.4984  140.3473  155.4367 H   0  0  0  0  0  0  0  0  0  0  0  0  # atno 8008 bound_to 7997
  156.0930  140.1415  156.9595 H   0  0  0  0  0  0  0  0  0  0  0  0  # atno 8009 bound_to 7997
  154.4646  140.0922  156.6963 H   0  0  0  0  0  0  0  0  0  0  0  0  # atno 8010 bound_to 7997
  140.7227  143.5161  150.9690 H   0  0  0  0  0  0  0  0  0  0  0  0  # atno 10167 bound_to 10162
  156.0007  130.5005  150.5696 H   0  0  0  0  0  0  0  0  0  0  0  0  # atno 10718 bound_to 10713
  153.4721  135.3698  155.2396 H   0  0  0  0  0  0  0  0  0  0  0  0  # atno 10763 bound_to 10752
  154.8757  135.3934  154.3800 H   0  0  0  0  0  0  0  0  0  0  0  0  # atno 10764 bound_to 10752
  153.4390  135.7084  153.6246 H   0  0  0  0  0  0  0  0  0  0  0  0  # atno 10765 bound_to 10752
  139.8771  134.9132  156.4730 H   0  0  0  0  0  0  0  0  0  0  0  0  # atno 11005 bound_to 11000
  144.7873  140.5962  143.6565 LP  0  0  0  0  0  0  0  0  0  0  0  0  # atno 17320 bound_to 7965
  145.4884  139.1490  143.3723 LP  0  0  0  0  0  0  0  0  0  0  0  0  # atno 17321 bound_to 7965
  139.8876  143.6993  152.3149 LP  0  0  0  0  0  0  0  0  0  0  0  0  # atno 17342 bound_to 10162
  139.7297  144.7585  151.0821 LP  0  0  0  0  0  0  0  0  0  0  0  0  # atno 17343 bound_to 10162
  157.3593  131.0747  151.1650 LP  0  0  0  0  0  0  0  0  0  0  0  0  # atno 17370 bound_to 10713
  157.2440  130.6583  149.5902 LP  0  0  0  0  0  0  0  0  0  0  0  0  # atno 17371 bound_to 10713
  140.8782  133.7937  155.9438 LP  0  0  0  0  0  0  0  0  0  0  0  0  # atno 17394 bound_to 11000
  140.8881  134.2528  157.5109 LP  0  0  0  0  0  0  0  0  0  0  0  0  # atno 17395 bound_to 11000

$$$$
