#       Name:                AV-unprocessed.smi:3113
#       Creating user name   scv26
#       Creation time:       Fri Mar 27 17:23:30 2020


#       File generated by GOLD software.
#

@<TRIPOS>MOLECULE
AV-unprocessed.smi:3113
    38    39     1
SMALL
NO_CHARGES


@<TRIPOS>ATOM
      1 ****        -5.7855   1.9687   0.8718 C.2            1 S1                 0.0000
      2 ****        -5.5058   2.2105  -0.5024 C.2            1 S1                 0.0000
      3 ****        -4.2096   2.1956  -0.7693 N.2            1 S1                 0.0000
      4 ****        -3.6219   1.9402   0.4196 N.pl3          1 S1                 0.0000
      5 ****        -2.1765   1.8560   0.5038 C.3            1 S1                 0.0000
      6 ****        -1.6356   0.5988  -0.1931 C.3            1 S1                 0.0000
      7 ****        -0.1682   0.5124  -0.0664 N.4            1 S1                 1.0000
      8 ****         0.4235  -0.6661  -0.7302 C.3            1 S1                 0.0000
      9 ****         1.9403  -0.7272  -0.4991 C.3            1 S1                 0.0000
     10 ****         2.6035  -1.8428  -1.3305 C.3            1 S1                 0.0000
     11 ****         4.0974  -1.9467  -1.0023 C.3            1 S1                 0.0000
     12 ****         4.2840  -2.0978   0.5108 C.3            1 S1                 0.0000
     13 ****         3.5382  -0.9784   1.2537 C.3            1 S1                 0.0000
     14 ****         2.1617  -0.9856   0.8864 O.3            1 S1                 0.0000
     15 ****        -4.5505   1.8031   1.4303 C.2            1 S1                 0.0000
     16 ****        -6.7432   1.9255   1.3692 H              1 S1                 0.0000
     17 ****        -6.2013   2.3961  -1.3077 H              1 S1                 0.0000
     18 ****        -1.7514   2.7554   0.0560 H              1 S1                 0.0000
     19 ****        -1.8903   1.8597   1.5565 H              1 S1                 0.0000
     20 ****        -2.0858  -0.2931   0.2451 H              1 S1                 0.0000
     21 ****        -1.9026   0.6095  -1.2507 H              1 S1                 0.0000
     22 ****         0.2408   1.3453  -0.4653 H              1 S1                 0.0000
     23 ****        -0.0510  -1.5764  -0.3607 H              1 S1                 0.0000
     24 ****         0.2123  -0.6036  -1.7986 H              1 S1                 0.0000
     25 ****         2.3828   0.2347  -0.7660 H              1 S1                 0.0000
     26 ****         2.1179  -2.7971  -1.1211 H              1 S1                 0.0000
     27 ****         2.4704  -1.6514  -2.3959 H              1 S1                 0.0000
     28 ****         4.5457  -2.7906  -1.5275 H              1 S1                 0.0000
     29 ****         4.6138  -1.0505  -1.3486 H              1 S1                 0.0000
     30 ****         3.9011  -3.0669   0.8331 H              1 S1                 0.0000
     31 ****         5.3442  -2.0794   0.7650 H              1 S1                 0.0000
     32 ****         3.6158  -1.1279   2.3308 H              1 S1                 0.0000
     33 ****         3.9793  -0.0046   1.0353 H              1 S1                 0.0000
     34 ****        -4.2603   1.6007   2.4510 H              1 S1                 0.0000
     35 ****         0.0670   0.4748   0.9154 H              1 S1                 0.0000
     36 ****        -3.7650   2.3409  -1.6531 LP             1 S1                 0.0000
     37 ****         1.7804  -1.8837   1.1057 LP             1 S1                 0.0000
     38 ****         1.6885  -0.2837   1.4188 LP             1 S1                 0.0000
@<TRIPOS>BOND
    1    1   15 2     
    2    1    2 1     
    3    1   16 1     
    4    2    3 2     
    5    2   17 1     
    6    3    4 1     
    7    4    5 1     
    8    4   15 1     
    9    5    6 1     
   10    5   18 1     
   11    5   19 1     
   12    6    7 1     
   13    6   20 1     
   14    6   21 1     
   15    7    8 1     
   16    7   22 1     
   17    7   35 1     
   18    8    9 1     
   19    8   23 1     
   20    8   24 1     
   21    9   14 1     
   22    9   10 1     
   23    9   25 1     
   24   10   11 1     
   25   10   26 1     
   26   10   27 1     
   27   11   12 1     
   28   11   28 1     
   29   11   29 1     
   30   12   13 1     
   31   12   30 1     
   32   12   31 1     
   33   13   14 1     
   34   13   32 1     
   35   13   33 1     
   36   15   34 1     
   37    3   36 1     
   38   14   37 1     
   39   14   38 1     
@<TRIPOS>SUBSTRUCTURE
      1 S1             1
@<TRIPOS>SET
LONE_PAIRS      STATIC     ATOMS    <user>   **** ""
3 36 37 38
DONOR_HYDROGENS      STATIC     ATOMS    <user>   **** ""
2 22 35
ATOM$BLUE        STATIC     ATOMS    COLORGROUP SYSTEM
3 36 37 38
ATOM$RED        STATIC     ATOMS    COLORGROUP SYSTEM
2 22 35
