AV-unprocessed.smi:1526|AV-procd|sdf|6146|dock1
  -GOLD-   22720 6293D 1   1.00000     0.00000
 Structure written by MMmdl.
 34 35  0  0  0  0  0  0  0  0  3 V2000
  150.2229  142.0786  158.8372 O   0  0  0  0  0  0  0  0  0  0  0  0
  151.1766  141.9638  158.0684 C   0  0  0  0  0  0  0  0  0  0  0  0
  150.9779  142.2847  156.5764 C   0  0  0  0  0  0  0  0  0  0  0  0
  150.5078  141.1541  155.7542 N   0  0  0  0  0  0  0  0  0  0  0  0
  149.2699  141.3117  155.1000 C   0  0  0  0  0  0  0  0  0  0  0  0
  148.7453  140.3485  154.3175 C   0  0  0  0  0  0  0  0  0  0  0  0
  147.4768  140.5315  153.6468 N   0  3  0  0  0  0  0  0  0  0  0  0
  146.8836  141.5958  153.7902 O   0  0  0  0  0  0  0  0  0  0  0  0
  147.0311  139.6197  152.9567 O   0  5  0  0  0  0  0  0  0  0  0  0
  149.4996  139.1195  154.1640 C   0  0  0  0  0  0  0  0  0  0  0  0
  150.6863  138.9639  154.7834 C   0  0  0  0  0  0  0  0  0  0  0  0
  151.2585  140.0166  155.6289 C   0  0  0  0  0  0  0  0  0  0  0  0
  152.3490  139.8869  156.1848 O   0  0  0  0  0  0  0  0  0  0  0  0
  152.3917  141.5652  158.4765 N   0  0  0  0  0  0  0  0  0  0  0  0
  152.7343  141.1997  159.8421 C   0  0  0  0  0  0  0  0  0  0  0  0
  153.0621  142.4498  160.6491 C   0  0  0  0  0  0  0  0  0  0  0  0
  153.0192  142.4008  162.1846 C   0  0  0  0  0  0  0  0  0  0  0  0
  152.5069  143.8436  162.1692 C   0  0  0  0  0  0  0  0  0  0  0  0
  152.0392  143.5923  160.7327 C   0  0  0  0  0  0  0  0  0  0  0  0
  150.2875  143.1258  156.4935 H   0  0  0  0  0  0  0  0  0  0  0  0
  151.9239  142.6628  156.1862 H   0  0  0  0  0  0  0  0  0  0  0  0
  148.7907  142.2648  155.2732 H   0  0  0  0  0  0  0  0  0  0  0  0
  149.1188  138.3154  153.5517 H   0  0  0  0  0  0  0  0  0  0  0  0
  151.2319  138.0405  154.6552 H   0  0  0  0  0  0  0  0  0  0  0  0
  153.1268  141.4953  157.7883 H   0  0  0  0  0  0  0  0  0  0  0  0
  151.8990  140.6624  160.2929 H   0  0  0  0  0  0  0  0  0  0  0  0
  153.5849  140.5163  159.8310 H   0  0  0  0  0  0  0  0  0  0  0  0
  154.0237  142.8669  160.3409 H   0  0  0  0  0  0  0  0  0  0  0  0
  152.2793  141.6950  162.5660 H   0  0  0  0  0  0  0  0  0  0  0  0
  153.9892  142.2632  162.6637 H   0  0  0  0  0  0  0  0  0  0  0  0
  151.7071  144.0529  162.8802 H   0  0  0  0  0  0  0  0  0  0  0  0
  153.3105  144.5792  162.2311 H   0  0  0  0  0  0  0  0  0  0  0  0
  152.2183  144.4172  160.0424 H   0  0  0  0  0  0  0  0  0  0  0  0
  151.0066  143.2428  160.6820 H   0  0  0  0  0  0  0  0  0  0  0  0
  1  2  2  0  0  0  0
  2  3  1  0  0  0  0
  2 14  1  0  0  0  0
  3  4  1  0  0  0  0
  3 20  1  0  0  0  0
  3 21  1  0  0  0  0
  4 12  1  0  0  0  0
  4  5  1  0  0  0  0
  5  6  2  0  0  0  0
  5 22  1  0  0  0  0
  6  7  1  0  0  0  0
  6 10  1  0  0  0  0
  7  8  2  0  0  0  0
  7  9  1  0  0  0  0
 10 11  2  0  0  0  0
 10 23  1  0  0  0  0
 11 12  1  0  0  0  0
 11 24  1  0  0  0  0
 12 13  2  0  0  0  0
 14 15  1  0  0  0  0
 14 25  1  0  0  0  0
 15 16  1  0  0  0  0
 15 26  1  0  0  0  0
 15 27  1  0  0  0  0
 16 19  1  0  0  0  0
 16 17  1  0  0  0  0
 16 28  1  0  0  0  0
 17 18  1  0  0  0  0
 17 29  1  0  0  0  0
 17 30  1  0  0  0  0
 18 19  1  0  0  0  0
 18 31  1  0  0  0  0
 18 32  1  0  0  0  0
 19 33  1  0  0  0  0
 19 34  1  0  0  0  0
M  CHG  1   7   1
M  CHG  1   9  -1
M  END
> <s_m_source_file>
AV-unprocessed.smi

> <i_m_source_file_index>
1526

> <i_lp_mmshare_version>
43012

> <i_f3d_flags>
0

> <s_epik_input>
W0NIMl0xW0NIMl1bQ0gyXVtDSF0xW0NIMl1bTkhdQyg9TylbQ0gyXW4yW2NIXWMoW04rXSg9TylbTy1dKVtjSF1bY0hdYzI9Tw==

> <s_epik_cmdline>
J2VwaWtfcHl0aG9uJywgJy1waCcsICc3LjAnLCAnLXRuJywgJzgnLCAnLW1hJywgJzIwMCcsICctbWV0YWxfYmluZGluZycsICctaW1hZScsICc8aW5maWxlLm1hZT4nLCAnLW9tYWUnLCAnPG91dGZpbGUubWFlPic=

> <r_lp_tautomer_probability>
1

> <r_epik_Ionization_Penalty>
1.93777e-08

> <r_epik_Ionization_Penalty_Charging>
7.59562e-11

> <r_epik_Ionization_Penalty_Neutral>
1.93017e-08

> <r_epik_State_Penalty>
-0

> <r_epik_Charging_Adjusted_Penalty>
7.59562e-11

> <i_epik_Tot_Q>
0

> <i_epik_Tot_abs_Q>
2

> <r_epik_Metal_State_Penalty>
-0

> <b_epik_Metal_Only>
0

> <s_lp_Force_Field>
OPLS_2005

> <r_lp_Energy>
24.467

> <b_lp_Chiralities_Consistent>
1

> <s_lp_Variant>
AV-unprocessed.smi:1526-1

> <Gold.Version>
5.8.1

> <Gold.Id.Protein>
6NUR|6NUR_protein|mol2

> <Gold.PLP.Fitness>
49.6089

> <Gold.PLP.PLP>
-44.6917

> <Gold.PLP.part.hbond>
-1.6228

> <Gold.PLP.part.metal>
0.0000

> <Gold.PLP.part.buried>
-4.0279

> <Gold.PLP.part.nonpolar>
-39.2170

> <Gold.PLP.part.repulsive>
0.7931

> <Gold.PLP.ligand.clash>
0.0000

> <Gold.PLP.ligand.torsion>
0.6336

> <Gold.PLP.Chemscore.Hbond>
1.0000

> <Gold.PLP.Chemscore.CHOScore>
1.0000

> <Gold.PLP.Chemscore.Metal>
0.0000

> <Gold.Chemscore.Hbonds>
donor molecule, donor type, donor heavy atom, donor atom, acceptor molecule, acceptor atom, score
      P1  H  7997  8009       L1    13  0.99
      L1  C     5    22       P1  8028  1.00

> <Gold.PLP.Chemscore.Internal.Correction>
0.1844

> <Gold.Rescore>
     Score         DG    S(hbond)    S(metal)    S(lipo)     H(rot)  DE(clash)    DE(int)     intcor
     14.39     -15.18       1.00        0.00      94.23       1.82       0.05       0.75       ----

> <Gold.Chemscore.Fitness>
14.3864

> <Gold.Chemscore.DG>
-15.1850

> <Gold.Chemscore.ZeroCoef>
-5.4800

> <Gold.Chemscore.Hbond>
0.9991

> <Gold.Chemscore.Metal>
0.0000

> <Gold.Chemscore.Lipo>
94.2282

> <Gold.Chemscore.Internal_Hbond>
0.0000

> <Gold.Chemscore.DEClash>
0.0503

> <Gold.Chemscore.DEInternal>
0.7482

> <Gold.Chemscore.Rot>
1.8190

> <Gold.Chemscore.Internal.Correction>
   9.000000E+99

> <Gold.Chemscore.Hbonds>
donor molecule, donor type, donor heavy atom, donor atom, acceptor molecule, acceptor atom, score
      P1  H  7997  8009       L1    13  0.91

> <Gold.Chemscore.Hbond.Weighted>
-3.3369

> <Gold.Chemscore.Metal.Weighted>
-0.0000

> <Gold.Chemscore.Lipo.Weighted>
-11.0247

> <Gold.Chemscore.Internal_Hbond.Weighted>
0.0000

> <Gold.Chemscore.DEClash.Weighted>
0.0503

> <Gold.Chemscore.DEInternal.Weighted>
0.7482

> <Gold.Chemscore.Rot.Weighted>
4.6567

> <Gold.Chemscore.Internal.Correction.Weighted>
   9.000000E+99

> <Gold.Protein.RotatedTorsions>
[ 6907 6896 6895 6894 ] final   45.70 input  -60.11 | X-H torsion
[ 7974 7965 7964 7962 ] final   20.50 input  175.53 | X-H torsion
[ 8008 7997 7996 7995 ] final -148.77 input   59.86 | X-H torsion
[ 10167 10162 10161 10158 ] final  -22.06 input  -65.29 | X-H torsion
[ 10718 10713 10712 10709 ] final   59.03 input   66.30 | X-H torsion
[ 10763 10752 10751 10750 ] final -165.85 input  -60.55 | X-H torsion
[ 11005 11000 10999 10996 ] final -151.04 input  -57.11 | X-H torsion

> <Gold.Protein.ActiveResidues>
 VAL166  LYS551  ARG553  GLY616  TRP617  ASP618  TYR619  PRO620  LYS621  CYS622 
 ASP623  PHE694  ASN695  SER759  ASP760  ASP761  ALA762  ILE779  LEU786  VAL792 
 PHE793  MET794  SER795  GLU796  ALA797  LYS798  CYS799  TRP800  GLU811  SER814 

> <Gold.Protein.RotatedAtoms>
  152.2476  134.8165  160.0450 H   0  0  0  0  0  0  0  0  0  0  0  0  # atno 6907 bound_to 6896
  151.8857  133.3500  159.3789 H   0  0  0  0  0  0  0  0  0  0  0  0  # atno 6908 bound_to 6896
  150.7073  134.4901  159.5555 H   0  0  0  0  0  0  0  0  0  0  0  0  # atno 6909 bound_to 6896
  146.2109  139.8161  142.8690 H   0  0  0  0  0  0  0  0  0  0  0  0  # atno 7974 bound_to 7965
  155.5969  140.0658  157.2743 H   0  0  0  0  0  0  0  0  0  0  0  0  # atno 8008 bound_to 7997
  154.4289  140.1825  156.1180 H   0  0  0  0  0  0  0  0  0  0  0  0  # atno 8009 bound_to 7997
  156.0189  140.3319  155.7022 H   0  0  0  0  0  0  0  0  0  0  0  0  # atno 8010 bound_to 7997
  140.7284  143.4570  151.0434 H   0  0  0  0  0  0  0  0  0  0  0  0  # atno 10167 bound_to 10162
  157.5644  130.8859  149.9163 H   0  0  0  0  0  0  0  0  0  0  0  0  # atno 10718 bound_to 10713
  154.6891  135.2967  154.9505 H   0  0  0  0  0  0  0  0  0  0  0  0  # atno 10763 bound_to 10752
  154.0474  135.6649  153.4800 H   0  0  0  0  0  0  0  0  0  0  0  0  # atno 10764 bound_to 10752
  153.0600  135.5121  154.7974 H   0  0  0  0  0  0  0  0  0  0  0  0  # atno 10765 bound_to 10752
  140.7338  134.3591  157.5161 H   0  0  0  0  0  0  0  0  0  0  0  0  # atno 11005 bound_to 11000
  145.3145  141.0228  143.3535 LP  0  0  0  0  0  0  0  0  0  0  0  0  # atno 17320 bound_to 7965
  144.8911  139.4773  143.6677 LP  0  0  0  0  0  0  0  0  0  0  0  0  # atno 17321 bound_to 7965
  139.8251  143.7767  152.3178 LP  0  0  0  0  0  0  0  0  0  0  0  0  # atno 17342 bound_to 10162
  139.7863  144.7426  151.0018 LP  0  0  0  0  0  0  0  0  0  0  0  0  # atno 17343 bound_to 10162
  156.0693  130.3687  150.0810 LP  0  0  0  0  0  0  0  0  0  0  0  0  # atno 17370 bound_to 10713
  156.8970  130.9607  151.3581 LP  0  0  0  0  0  0  0  0  0  0  0  0  # atno 17371 bound_to 10713
  139.8820  134.9036  156.2858 LP  0  0  0  0  0  0  0  0  0  0  0  0  # atno 17394 bound_to 11000
  140.9897  133.7216  156.0795 LP  0  0  0  0  0  0  0  0  0  0  0  0  # atno 17395 bound_to 11000

$$$$
