#       Name:                AV-unprocessed.smi:1836
#       Creating user name   scv26
#       Creation time:       Fri Mar 27 09:17:38 2020


#       File generated by GOLD software.
#

@<TRIPOS>MOLECULE
AV-unprocessed.smi:1836
    39    40     1
SMALL
NO_CHARGES


@<TRIPOS>ATOM
      1 ****         0.0249   3.4809   1.2737 C.3            1 S1                 0.0000
      2 ****         0.1244   1.9759   0.9895 C.3            1 S1                 0.0000
      3 ****         1.5815   1.5645   0.6752 C.3            1 S1                 0.0000
      4 ****         1.7643   0.1137   0.6564 N.am           1 S1                 0.0000
      5 ****         1.9559  -0.5949  -0.5988 C.3            1 S1                 0.0000
      6 ****         1.7740  -2.0762  -0.2431 C.3            1 S1                 0.0000
      7 ****         1.9214  -2.1526   1.2802 C.3            1 S1                 0.0000
      8 ****         1.7762  -0.7041   1.7160 C.2            1 S1                 0.0000
      9 ****         1.6757  -0.3680   2.8952 O.2            1 S1                 0.0000
     10 ****        -0.7505   1.6585  -0.1394 N.am           1 S1                 0.0000
     11 ****        -1.4735   0.5392  -0.2962 C.2            1 S1                 0.0000
     12 ****        -1.4764  -0.3238   0.5847 O.2            1 S1                 0.0000
     13 ****        -2.1313   0.4772  -1.4758 N.pl3          1 S1                -1.0000
     14 ****        -2.8269  -0.6269  -1.7939 C.2            1 S1                 0.0000
     15 ****        -4.1639  -0.6897  -1.6902 N.2            1 S1                 0.0000
     16 ****        -4.6832  -1.9204  -2.0693 N.2            1 S1                 0.0000
     17 ****        -3.7200  -2.7552  -2.4585 C.2            1 S1                 0.0000
     18 ****        -2.0918  -2.1140  -2.4008 S.3            1 S1                 0.0000
     19 ****         0.6413   3.7596   2.1286 H              1 S1                 0.0000
     20 ****        -1.0016   3.7703   1.5013 H              1 S1                 0.0000
     21 ****         0.3561   4.0704   0.4180 H              1 S1                 0.0000
     22 ****        -0.2181   1.4597   1.8879 H              1 S1                 0.0000
     23 ****         1.8986   1.9897  -0.2784 H              1 S1                 0.0000
     24 ****         2.2535   1.9800   1.4277 H              1 S1                 0.0000
     25 ****         1.2456  -0.2721  -1.3611 H              1 S1                 0.0000
     26 ****         2.9638  -0.4018  -0.9678 H              1 S1                 0.0000
     27 ****         0.7748  -2.4057  -0.5323 H              1 S1                 0.0000
     28 ****         2.4940  -2.7104  -0.7611 H              1 S1                 0.0000
     29 ****         1.1606  -2.7862   1.7370 H              1 S1                 0.0000
     30 ****         2.9067  -2.5203   1.5678 H              1 S1                 0.0000
     31 ****        -0.7866   2.3353  -0.8876 H              1 S1                 0.0000
     32 ****        -3.9700  -3.7538  -2.7844 H              1 S1                 0.0000
     33 ****         1.5735   0.5980   3.1328 LP             1 S1                 0.0000
     34 ****         1.6963  -1.0607   3.6160 LP             1 S1                 0.0000
     35 ****        -0.9393  -0.1899   1.4175 LP             1 S1                 0.0000
     36 ****        -2.0158  -1.1574   0.4662 LP             1 S1                 0.0000
     37 ****        -2.1000   1.2505  -2.1091 LP             1 S1                 0.0000
     38 ****        -4.7283   0.0722  -1.3724 LP             1 S1                 0.0000
     39 ****        -5.6561  -2.1510  -2.0524 LP             1 S1                 0.0000
@<TRIPOS>BOND
    1    1    2 1     
    2    1   19 1     
    3    1   20 1     
    4    1   21 1     
    5    2    3 1     
    6    2   10 1     
    7    2   22 1     
    8    3    4 1     
    9    3   23 1     
   10    3   24 1     
   11    4    8 am    
   12    4    5 1     
   13    5    6 1     
   14    5   25 1     
   15    5   26 1     
   16    6    7 1     
   17    6   27 1     
   18    6   28 1     
   19    7    8 1     
   20    7   29 1     
   21    7   30 1     
   22    8    9 2     
   23   10   11 am    
   24   10   31 1     
   25   11   12 2     
   26   11   13 1     
   27   13   14 1     
   28   14   18 1     
   29   14   15 2     
   30   15   16 1     
   31   16   17 2     
   32   17   18 1     
   33   17   32 1     
   34    9   33 1     
   35    9   34 1     
   36   12   35 1     
   37   12   36 1     
   38   13   37 1     
   39   15   38 1     
   40   16   39 1     
@<TRIPOS>SUBSTRUCTURE
      1 S1             1
@<TRIPOS>SET
LONE_PAIRS      STATIC     ATOMS    <user>   **** ""
7 33 34 35 36 37 38 39
DONOR_HYDROGENS      STATIC     ATOMS    <user>   **** ""
1 31
ATOM$BLUE        STATIC     ATOMS    COLORGROUP SYSTEM
7 33 34 35 36 37 38 39
ATOM$RED        STATIC     ATOMS    COLORGROUP SYSTEM
1 31
