AV-unprocessed.smi:1173|AV-procd|sdf|4945|dock8
  -GOLD-   22720 3533D 1   1.00000     0.00000
 Structure written by MMmdl.
 37 38  0  0  0  0  0  0  0  0  1 V2000
  147.9601  138.9170  156.0400 C   0  0  0  0  0  0  0  0  0  0  0  0
  148.1044  139.8910  154.9514 N   0  0  0  0  0  0  0  0  0  0  0  0
  146.9629  140.0213  154.0306 C   0  0  0  0  0  0  0  0  0  0  0  0
  146.7312  138.7663  153.1771 C   0  0  0  0  0  0  0  0  0  0  0  0
  147.7106  138.4272  152.3357 N   0  0  0  0  0  0  0  0  0  0  0  0
  145.6864  138.1218  153.2565 O   0  0  0  0  0  0  0  0  0  0  0  0
  149.2141  140.6568  154.7953 C   0  0  0  0  0  0  0  0  0  0  0  0
  149.3196  141.5312  153.9342 O   0  0  0  0  0  0  0  0  0  0  0  0
  150.3676  140.4145  155.7241 C   0  0  0  0  0  0  0  0  0  0  0  0
  150.6375  141.3814  156.6296 N   0  0  0  0  0  0  0  0  0  0  0  0
  151.6662  141.1980  157.4674 C   0  0  0  0  0  0  0  0  0  0  0  0
  151.9289  142.2090  158.4016 N   0  0  0  0  0  0  0  0  0  0  0  0
  151.6743  143.6203  158.1003 C   0  0  0  0  0  0  0  0  0  0  0  0
  151.3410  144.4042  159.3808 C   0  0  0  0  0  0  0  0  0  0  0  0
  152.3809  144.2331  160.3352 O   0  0  0  0  0  0  0  0  0  0  0  0
  152.5233  142.8694  160.7119 C   0  0  0  0  0  0  0  0  0  0  0  0
  152.9007  142.0250  159.4829 C   0  0  0  0  0  0  0  0  0  0  0  0
  152.4611  140.1198  157.4771 N   0  0  0  0  0  0  0  0  0  0  0  0
  152.2165  139.1480  156.5729 C   0  0  0  0  0  0  0  0  0  0  0  0
  151.1609  139.2448  155.6468 C   0  0  0  0  0  0  0  0  0  0  0  0
  150.8926  137.9941  154.4823 Cl  0  0  0  0  0  0  0  0  0  0  0  0
  148.6590  138.0899  155.9157 H   0  0  0  0  0  0  0  0  0  0  0  0
  146.9612  138.4823  156.0786 H   0  0  0  0  0  0  0  0  0  0  0  0
  148.1443  139.3824  157.0094 H   0  0  0  0  0  0  0  0  0  0  0  0
  146.0460  140.2317  154.5817 H   0  0  0  0  0  0  0  0  0  0  0  0
  147.1021  140.8831  153.3751 H   0  0  0  0  0  0  0  0  0  0  0  0
  147.6121  137.6127  151.7470 H   0  0  0  0  0  0  0  0  0  0  0  0
  148.5479  138.9899  152.2886 H   0  0  0  0  0  0  0  0  0  0  0  0
  152.5613  144.0402  157.6248 H   0  0  0  0  0  0  0  0  0  0  0  0
  150.8494  143.7483  157.3998 H   0  0  0  0  0  0  0  0  0  0  0  0
  151.2407  145.4658  159.1539 H   0  0  0  0  0  0  0  0  0  0  0  0
  150.3879  144.0775  159.8001 H   0  0  0  0  0  0  0  0  0  0  0  0
  153.3007  142.7916  161.4721 H   0  0  0  0  0  0  0  0  0  0  0  0
  151.5993  142.5057  161.1646 H   0  0  0  0  0  0  0  0  0  0  0  0
  152.9715  140.9837  159.7962 H   0  0  0  0  0  0  0  0  0  0  0  0
  153.8867  142.3146  159.1178 H   0  0  0  0  0  0  0  0  0  0  0  0
  152.8728  138.2904  156.5859 H   0  0  0  0  0  0  0  0  0  0  0  0
  1  2  1  0  0  0  0
  1 22  1  0  0  0  0
  1 23  1  0  0  0  0
  1 24  1  0  0  0  0
  2  3  1  0  0  0  0
  2  7  1  0  0  0  0
  3  4  1  0  0  0  0
  3 25  1  0  0  0  0
  3 26  1  0  0  0  0
  4  5  1  0  0  0  0
  4  6  2  0  0  0  0
  5 27  1  0  0  0  0
  5 28  1  0  0  0  0
  7  8  2  0  0  0  0
  7  9  1  0  0  0  0
  9 20  1  0  0  0  0
  9 10  2  0  0  0  0
 10 11  1  0  0  0  0
 11 12  1  0  0  0  0
 11 18  2  0  0  0  0
 12 17  1  0  0  0  0
 12 13  1  0  0  0  0
 13 14  1  0  0  0  0
 13 29  1  0  0  0  0
 13 30  1  0  0  0  0
 14 15  1  0  0  0  0
 14 31  1  0  0  0  0
 14 32  1  0  0  0  0
 15 16  1  0  0  0  0
 16 17  1  0  0  0  0
 16 33  1  0  0  0  0
 16 34  1  0  0  0  0
 17 35  1  0  0  0  0
 17 36  1  0  0  0  0
 18 19  1  0  0  0  0
 19 20  2  0  0  0  0
 19 37  1  0  0  0  0
 20 21  1  0  0  0  0
M  END
> <s_m_source_file>
AV-unprocessed.smi

> <i_m_source_file_index>
1173

> <i_lp_mmshare_version>
43012

> <i_f3d_flags>
0

> <s_epik_input>
W05IMl1DKD1PKVtDSDJdTihbQ0gzXSlDKD1PKWMxbmMobltjSF1jMUNsKU4yW0NIMl1bQ0gyXU9bQ0gyXVtDSDJdMg==

> <s_epik_cmdline>
J2VwaWtfcHl0aG9uJywgJy1waCcsICc3LjAnLCAnLXRuJywgJzgnLCAnLW1hJywgJzIwMCcsICctbWV0YWxfYmluZGluZycsICctaW1hZScsICc8aW5maWxlLm1hZT4nLCAnLW9tYWUnLCAnPG91dGZpbGUubWFlPic=

> <r_lp_tautomer_probability>
1

> <r_epik_Ionization_Penalty>
9.52456e-08

> <r_epik_Ionization_Penalty_Charging>
0

> <r_epik_Ionization_Penalty_Neutral>
9.52456e-08

> <r_epik_State_Penalty>
-0

> <r_epik_Charging_Adjusted_Penalty>
0

> <i_epik_Tot_Q>
0

> <i_epik_Tot_abs_Q>
0

> <r_epik_Metal_State_Penalty>
-0

> <b_epik_Metal_Only>
0

> <s_lp_Force_Field>
OPLS_2005

> <r_lp_Energy>
19.8888

> <b_lp_Chiralities_Consistent>
1

> <s_lp_Variant>
AV-unprocessed.smi:1173-1

> <Gold.Version>
5.8.1

> <Gold.Id.Protein>
6NUR|6NUR_protein|mol2

> <Gold.PLP.Fitness>
47.3219

> <Gold.PLP.PLP>
-41.0490

> <Gold.PLP.part.hbond>
-5.0000

> <Gold.PLP.part.metal>
0.0000

> <Gold.PLP.part.buried>
-6.6781

> <Gold.PLP.part.nonpolar>
-31.0895

> <Gold.PLP.part.repulsive>
1.2221

> <Gold.PLP.ligand.clash>
0.0000

> <Gold.PLP.ligand.torsion>
1.6180

> <Gold.PLP.Chemscore.Hbond>
2.5936

> <Gold.PLP.Chemscore.CHOScore>
0.0000

> <Gold.PLP.Chemscore.Metal>
0.0000

> <Gold.Chemscore.Hbonds>
donor molecule, donor type, donor heavy atom, donor atom, acceptor molecule, acceptor atom, score
      L1  H     5    27       P1  7948  0.38
      L1  H     5    28       P1  7957  0.86
      P1  H  7989  7998       L1     8  0.01
      P1  H  7997  8010       L1    18  0.30
      P1  H  8011  8017       L1     8  0.69

> <Gold.PLP.Chemscore.Internal.Correction>
1.7280

> <Gold.Rescore>
     Score         DG    S(hbond)    S(metal)    S(lipo)     H(rot)  DE(clash)    DE(int)     intcor
     15.76     -17.70       2.16        0.00      76.35       1.54       0.09       1.85       ----

> <Gold.Chemscore.Fitness>
15.7630

> <Gold.Chemscore.DG>
-17.6978

> <Gold.Chemscore.ZeroCoef>
-5.4800

> <Gold.Chemscore.Hbond>
2.1620

> <Gold.Chemscore.Metal>
0.0000

> <Gold.Chemscore.Lipo>
76.3533

> <Gold.Chemscore.Internal_Hbond>
0.0000

> <Gold.Chemscore.DEClash>
0.0892

> <Gold.Chemscore.DEInternal>
1.8455

> <Gold.Chemscore.Rot>
1.5377

> <Gold.Chemscore.Internal.Correction>
   9.000000E+99

> <Gold.Chemscore.Hbonds>
donor molecule, donor type, donor heavy atom, donor atom, acceptor molecule, acceptor atom, score
      L1  H     5    27       P1  7948  0.38
      L1  H     5    28       P1  7957  0.84
      P1  H  7997  8010       L1    18  0.01
      P1  H  8011  8017       L1     8  0.68

> <Gold.Chemscore.Hbond.Weighted>
-7.2210

> <Gold.Chemscore.Metal.Weighted>
-0.0000

> <Gold.Chemscore.Lipo.Weighted>
-8.9333

> <Gold.Chemscore.Internal_Hbond.Weighted>
0.0000

> <Gold.Chemscore.DEClash.Weighted>
0.0892

> <Gold.Chemscore.DEInternal.Weighted>
1.8455

> <Gold.Chemscore.Rot.Weighted>
3.9366

> <Gold.Chemscore.Internal.Correction.Weighted>
   9.000000E+99

> <Gold.Protein.RotatedTorsions>
[ 6907 6896 6895 6894 ] final  -42.19 input  -60.11 | X-H torsion
[ 7974 7965 7964 7962 ] final -103.50 input  175.53 | X-H torsion
[ 8008 7997 7996 7995 ] final   47.51 input   59.86 | X-H torsion
[ 10167 10162 10161 10158 ] final  135.96 input  -65.29 | X-H torsion
[ 10718 10713 10712 10709 ] final  -77.41 input   66.30 | X-H torsion
[ 10763 10752 10751 10750 ] final   46.99 input  -60.55 | X-H torsion
[ 11005 11000 10999 10996 ] final  -76.77 input  -57.11 | X-H torsion

> <Gold.Protein.ActiveResidues>
 VAL166  LYS551  ARG553  GLY616  TRP617  ASP618  TYR619  PRO620  LYS621  CYS622 
 ASP623  PHE694  ASN695  SER759  ASP760  ASP761  ALA762  ILE779  LEU786  VAL792 
 PHE793  MET794  SER795  GLU796  ALA797  LYS798  CYS799  TRP800  GLU811  SER814 

> <Gold.Protein.RotatedAtoms>
  150.9581  134.8972  159.7713 H   0  0  0  0  0  0  0  0  0  0  0  0  # atno 6907 bound_to 6896
  152.5146  134.3712  159.9328 H   0  0  0  0  0  0  0  0  0  0  0  0  # atno 6908 bound_to 6896
  151.3725  133.3809  159.2736 H   0  0  0  0  0  0  0  0  0  0  0  0  # atno 6909 bound_to 6896
  145.2551  140.9251  143.3073 H   0  0  0  0  0  0  0  0  0  0  0  0  # atno 7974 bound_to 7965
  155.3702  140.3423  155.4243 H   0  0  0  0  0  0  0  0  0  0  0  0  # atno 8008 bound_to 7997
  156.1667  140.1618  156.8554 H   0  0  0  0  0  0  0  0  0  0  0  0  # atno 8009 bound_to 7997
  154.5192  140.0771  156.8121 H   0  0  0  0  0  0  0  0  0  0  0  0  # atno 8010 bound_to 7997
  139.5197  144.6490  151.5358 H   0  0  0  0  0  0  0  0  0  0  0  0  # atno 10167 bound_to 10162
  156.0146  130.4491  150.3341 H   0  0  0  0  0  0  0  0  0  0  0  0  # atno 10718 bound_to 10713
  152.9804  135.5991  154.3689 H   0  0  0  0  0  0  0  0  0  0  0  0  # atno 10763 bound_to 10752
  154.3364  135.2768  155.2447 H   0  0  0  0  0  0  0  0  0  0  0  0  # atno 10764 bound_to 10752
  154.4548  135.5980  153.6271 H   0  0  0  0  0  0  0  0  0  0  0  0  # atno 10765 bound_to 10752
  141.1656  133.6996  156.7720 H   0  0  0  0  0  0  0  0  0  0  0  0  # atno 11005 bound_to 11000
  144.9468  139.4127  143.6422 LP  0  0  0  0  0  0  0  0  0  0  0  0  # atno 17320 bound_to 7965
  146.3291  139.8455  142.8882 LP  0  0  0  0  0  0  0  0  0  0  0  0  # atno 17321 bound_to 7965
  140.6286  143.9119  150.6586 LP  0  0  0  0  0  0  0  0  0  0  0  0  # atno 17342 bound_to 10162
  140.2416  143.3659  152.1481 LP  0  0  0  0  0  0  0  0  0  0  0  0  # atno 17343 bound_to 10162
  157.1439  131.0303  151.2916 LP  0  0  0  0  0  0  0  0  0  0  0  0  # atno 17370 bound_to 10713
  157.4449  130.7565  149.7101 LP  0  0  0  0  0  0  0  0  0  0  0  0  # atno 17371 bound_to 10713
  140.2457  134.8579  157.3618 LP  0  0  0  0  0  0  0  0  0  0  0  0  # atno 17394 bound_to 11000
  140.1752  134.4559  155.7806 LP  0  0  0  0  0  0  0  0  0  0  0  0  # atno 17395 bound_to 11000

$$$$
