AV-unprocessed.smi:497|AV-procd|sdf|2725|dock10
  -GOLD-   2262023173D 1   1.00000     0.00000
 Structure written by MMmdl.
 40 42  0  0  0  0  0  0  0  0  2 V2000
  149.7936  137.3199  159.0409 C   0  0  0  0  0  0  0  0  0  0  0  0
  150.7997  138.3098  159.1606 O   0  0  0  0  0  0  0  0  0  0  0  0
  150.8774  139.1475  158.0182 C   0  0  0  0  0  0  0  0  0  0  0  0
  152.0092  140.1676  158.2045 C   0  0  0  0  0  0  0  0  0  0  0  0
  151.5299  141.5545  158.1045 N   0  0  0  0  0  0  0  0  0  0  0  0
  150.7997  142.1757  157.1322 C   0  0  0  0  0  0  0  0  0  0  0  0
  150.2753  141.5750  155.8649 C   0  0  0  0  0  0  0  0  0  0  0  0
  148.9833  142.1227  155.4708 N   0  0  0  0  0  0  0  0  0  0  0  0
  147.8219  141.4498  155.4868 C   0  0  0  0  0  0  0  0  0  0  0  0
  147.7227  140.2778  155.8490 O   0  0  0  0  0  0  0  0  0  0  0  0
  146.6382  142.2002  155.0266 C   0  0  0  0  0  0  0  0  0  0  0  0
  146.5001  143.1912  154.0900 C   0  0  0  0  0  0  0  0  0  0  0  0
  145.1228  143.5462  154.0726 C   0  0  0  0  0  0  0  0  0  0  0  0
  144.5176  142.7487  155.0011 C   0  0  0  0  0  0  0  0  0  0  0  0
  145.4264  141.9265  155.5925 O   0  0  0  0  0  0  0  0  0  0  0  0
  150.6276  143.4702  157.5241 N   0  3  0  0  0  0  0  0  0  0  0  0
  151.2577  143.6815  158.7506 C   0  0  0  0  0  0  0  0  0  0  0  0
  151.3600  144.8243  159.5378 C   0  0  0  0  0  0  0  0  0  0  0  0
  152.0854  144.7009  160.7411 C   0  0  0  0  0  0  0  0  0  0  0  0
  152.6749  143.4774  161.1209 C   0  0  0  0  0  0  0  0  0  0  0  0
  152.5629  142.3252  160.3148 C   0  0  0  0  0  0  0  0  0  0  0  0
  151.8426  142.4556  159.1279 C   0  0  0  0  0  0  0  0  0  0  0  0
  149.7723  136.7088  159.9434 H   0  0  0  0  0  0  0  0  0  0  0  0
  149.9872  136.6616  158.1930 H   0  0  0  0  0  0  0  0  0  0  0  0
  148.8085  137.7714  158.9168 H   0  0  0  0  0  0  0  0  0  0  0  0
  151.0640  138.5489  157.1253 H   0  0  0  0  0  0  0  0  0  0  0  0
  149.9278  139.6644  157.8713 H   0  0  0  0  0  0  0  0  0  0  0  0
  152.4707  140.0394  159.1830 H   0  0  0  0  0  0  0  0  0  0  0  0
  152.8031  140.0113  157.4738 H   0  0  0  0  0  0  0  0  0  0  0  0
  150.9896  141.7721  155.0653 H   0  0  0  0  0  0  0  0  0  0  0  0
  150.2103  140.4904  155.9549 H   0  0  0  0  0  0  0  0  0  0  0  0
  148.9704  143.0799  155.1496 H   0  0  0  0  0  0  0  0  0  0  0  0
  147.2920  143.6123  153.4881 H   0  0  0  0  0  0  0  0  0  0  0  0
  144.6367  144.2904  153.4592 H   0  0  0  0  0  0  0  0  0  0  0  0
  143.5014  142.6417  155.3511 H   0  0  0  0  0  0  0  0  0  0  0  0
  150.9104  145.7629  159.2483 H   0  0  0  0  0  0  0  0  0  0  0  0
  152.1928  145.5619  161.3851 H   0  0  0  0  0  0  0  0  0  0  0  0
  153.2245  143.4213  162.0493 H   0  0  0  0  0  0  0  0  0  0  0  0
  153.0196  141.3935  160.6139 H   0  0  0  0  0  0  0  0  0  0  0  0
  150.1166  144.1583  156.9867 H   0  0  0  0  0  0  0  0  0  0  0  0
  1  2  1  0  0  0  0
  1 23  1  0  0  0  0
  1 24  1  0  0  0  0
  1 25  1  0  0  0  0
  2  3  1  0  0  0  0
  3  4  1  0  0  0  0
  3 26  1  0  0  0  0
  3 27  1  0  0  0  0
  4  5  1  0  0  0  0
  4 28  1  0  0  0  0
  4 29  1  0  0  0  0
  5 22  1  0  0  0  0
  5  6  1  0  0  0  0
  6  7  1  0  0  0  0
  6 16  2  0  0  0  0
  7  8  1  0  0  0  0
  7 30  1  0  0  0  0
  7 31  1  0  0  0  0
  8  9  1  0  0  0  0
  8 32  1  0  0  0  0
  9 10  2  0  0  0  0
  9 11  1  0  0  0  0
 11 15  1  0  0  0  0
 11 12  2  0  0  0  0
 12 13  1  0  0  0  0
 12 33  1  0  0  0  0
 13 14  2  0  0  0  0
 13 34  1  0  0  0  0
 14 15  1  0  0  0  0
 14 35  1  0  0  0  0
 16 17  1  0  0  0  0
 16 40  1  0  0  0  0
 17 22  2  0  0  0  0
 17 18  1  0  0  0  0
 18 19  2  0  0  0  0
 18 36  1  0  0  0  0
 19 20  1  0  0  0  0
 19 37  1  0  0  0  0
 20 21  2  0  0  0  0
 20 38  1  0  0  0  0
 21 22  1  0  0  0  0
 21 39  1  0  0  0  0
M  CHG  1  16   1
M  END
> <s_m_source_file>
AV-unprocessed.smi

> <i_m_source_file_index>
497

> <i_lp_mmshare_version>
43012

> <i_f3d_flags>
0

> <s_epik_input>
W2NIXTFbY0hdW2NIXVtjSF1jKGMxMiluKFtDSDJdW0NIMl1PW0NIM10pYyhuMilbQ0gyXVtOSF1DKD1PKWMzW2NIXVtjSF1bY0hdbzM=

> <s_epik_cmdline>
J2VwaWtfcHl0aG9uJywgJy1waCcsICc3LjAnLCAnLXRuJywgJzgnLCAnLW1hJywgJzIwMCcsICctbWV0YWxfYmluZGluZycsICctaW1hZScsICc8aW5maWxlLm1hZT4nLCAnLW9tYWUnLCAnPG91dGZpbGUubWFlPic=

> <r_epik_Ionization_Penalty>
1.26486

> <r_epik_Ionization_Penalty_Charging>
1.26483

> <r_epik_Ionization_Penalty_Neutral>
2.77772e-05

> <r_epik_State_Penalty>
1.33577

> <r_epik_Charging_Adjusted_Penalty>
2.6006

> <i_epik_Tot_Q>
1

> <i_epik_Tot_abs_Q>
1

> <r_epik_Metal_State_Penalty>
1.44158

> <b_epik_Metal_Only>
0

> <s_lp_Force_Field>
OPLS_2005

> <r_lp_Energy>
9.51778

> <b_lp_Chiralities_Consistent>
1

> <s_lp_Variant>
AV-unprocessed.smi:497-2

> <Gold.Version>
5.8.1

> <Gold.Id.Protein>
6NUR|6NUR_protein|mol2

> <Gold.PLP.Fitness>
52.8804

> <Gold.PLP.PLP>
-46.6140

> <Gold.PLP.part.hbond>
-2.3504

> <Gold.PLP.part.metal>
0.0000

> <Gold.PLP.part.buried>
-6.9185

> <Gold.PLP.part.nonpolar>
-38.0985

> <Gold.PLP.part.repulsive>
0.2937

> <Gold.PLP.ligand.clash>
0.0000

> <Gold.PLP.ligand.torsion>
1.2558

> <Gold.PLP.Chemscore.Hbond>
2.9120

> <Gold.PLP.Chemscore.CHOScore>
0.0000

> <Gold.PLP.Chemscore.Metal>
0.0000

> <Gold.Chemscore.Hbonds>
donor molecule, donor type, donor heavy atom, donor atom, acceptor molecule, acceptor atom, score
      L1  H     8    32       P1  8028  0.91
      L1  H    16    40       P1  8028  2.00

> <Gold.PLP.Chemscore.Internal.Correction>
0.0420

> <Gold.Rescore>
     Score         DG    S(hbond)    S(metal)    S(lipo)     H(rot)  DE(clash)    DE(int)     intcor
     18.45     -19.34       1.97        0.00     105.07       1.96       0.00       0.89       ----

> <Gold.Chemscore.Fitness>
18.4507

> <Gold.Chemscore.DG>
-19.3442

> <Gold.Chemscore.ZeroCoef>
-5.4800

> <Gold.Chemscore.Hbond>
1.9704

> <Gold.Chemscore.Metal>
0.0000

> <Gold.Chemscore.Lipo>
105.0745

> <Gold.Chemscore.Internal_Hbond>
0.0000

> <Gold.Chemscore.DEClash>
0.0000

> <Gold.Chemscore.DEInternal>
0.8935

> <Gold.Chemscore.Rot>
1.9573

> <Gold.Chemscore.Internal.Correction>
   9.000000E+99

> <Gold.Chemscore.Hbonds>
donor molecule, donor type, donor heavy atom, donor atom, acceptor molecule, acceptor atom, score
      L1  H     8    32       P1  8028  0.88
      L1  H    16    40       P1  8028  0.89

> <Gold.Chemscore.Hbond.Weighted>
-6.5811

> <Gold.Chemscore.Metal.Weighted>
-0.0000

> <Gold.Chemscore.Lipo.Weighted>
-12.2937

> <Gold.Chemscore.Internal_Hbond.Weighted>
0.0000

> <Gold.Chemscore.DEClash.Weighted>
0.0000

> <Gold.Chemscore.DEInternal.Weighted>
0.8935

> <Gold.Chemscore.Rot.Weighted>
5.0107

> <Gold.Chemscore.Internal.Correction.Weighted>
   9.000000E+99

> <Gold.Protein.RotatedTorsions>
[ 6907 6896 6895 6894 ] final   55.50 input  -60.11 | X-H torsion
[ 7974 7965 7964 7962 ] final   33.15 input  175.53 | X-H torsion
[ 8008 7997 7996 7995 ] final    0.16 input   59.86 | X-H torsion
[ 10167 10162 10161 10158 ] final  -96.32 input  -65.29 | X-H torsion
[ 10718 10713 10712 10709 ] final -174.20 input   66.30 | X-H torsion
[ 10763 10752 10751 10750 ] final -150.88 input  -60.55 | X-H torsion
[ 11005 11000 10999 10996 ] final -151.24 input  -57.11 | X-H torsion

> <Gold.Protein.ActiveResidues>
 VAL166  LYS551  ARG553  GLY616  TRP617  ASP618  TYR619  PRO620  LYS621  CYS622 
 ASP623  PHE694  ASN695  SER759  ASP760  ASP761  ALA762  ILE779  LEU786  VAL792 
 PHE793  MET794  SER795  GLU796  ALA797  LYS798  CYS799  TRP800  GLU811  SER814 

> <Gold.Protein.RotatedAtoms>
  152.3545  134.6959  160.0226 H   0  0  0  0  0  0  0  0  0  0  0  0  # atno 6907 bound_to 6896
  151.7303  133.3312  159.3346 H   0  0  0  0  0  0  0  0  0  0  0  0  # atno 6908 bound_to 6896
  150.7562  134.6303  159.6227 H   0  0  0  0  0  0  0  0  0  0  0  0  # atno 6909 bound_to 6896
  146.1439  139.6434  142.9144 H   0  0  0  0  0  0  0  0  0  0  0  0  # atno 7974 bound_to 7965
  154.6649  140.2599  155.7069 H   0  0  0  0  0  0  0  0  0  0  0  0  # atno 8008 bound_to 7997
  156.2634  140.2841  156.1057 H   0  0  0  0  0  0  0  0  0  0  0  0  # atno 8009 bound_to 7997
  155.1254  140.0377  157.2751 H   0  0  0  0  0  0  0  0  0  0  0  0  # atno 8010 bound_to 7997
  140.2950  143.3198  152.0307 H   0  0  0  0  0  0  0  0  0  0  0  0  # atno 10167 bound_to 10162
  156.7816  130.9485  151.3120 H   0  0  0  0  0  0  0  0  0  0  0  0  # atno 10718 bound_to 10713
  154.8092  135.3273  154.7351 H   0  0  0  0  0  0  0  0  0  0  0  0  # atno 10763 bound_to 10752
  153.8003  135.6904  153.4861 H   0  0  0  0  0  0  0  0  0  0  0  0  # atno 10764 bound_to 10752
  153.1858  135.4569  155.0033 H   0  0  0  0  0  0  0  0  0  0  0  0  # atno 10765 bound_to 10752
  140.7317  134.3614  157.5165 H   0  0  0  0  0  0  0  0  0  0  0  0  # atno 11005 bound_to 11000
  145.4982  141.0438  143.2555 LP  0  0  0  0  0  0  0  0  0  0  0  0  # atno 17320 bound_to 7965
  144.7824  139.6497  143.7148 LP  0  0  0  0  0  0  0  0  0  0  0  0  # atno 17321 bound_to 7965
  139.4928  144.6497  151.6701 LP  0  0  0  0  0  0  0  0  0  0  0  0  # atno 17342 bound_to 10162
  140.5700  144.0125  150.6212 LP  0  0  0  0  0  0  0  0  0  0  0  0  # atno 17343 bound_to 10162
  157.6644  130.8994  149.9899 LP  0  0  0  0  0  0  0  0  0  0  0  0  # atno 17370 bound_to 10713
  156.1214  130.3646  149.9880 LP  0  0  0  0  0  0  0  0  0  0  0  0  # atno 17371 bound_to 10713
  139.8825  134.9022  156.2828 LP  0  0  0  0  0  0  0  0  0  0  0  0  # atno 17394 bound_to 11000
  140.9915  133.7206  156.0821 LP  0  0  0  0  0  0  0  0  0  0  0  0  # atno 17395 bound_to 11000

$$$$
