AV-unprocessed.smi:1005|AV-procd|sdf|4382|dock4
  -GOLD-   22720 2303D 1   1.00000     0.00000
 Structure written by MMmdl.
 58 60  0  0  0  0  0  0  0  0  4 V2000
  152.2673  144.7331  160.4824 C   0  0  0  0  0  0  0  0  0  0  0  0
  152.0011  143.5750  159.5360 C   0  0  0  0  0  0  0  0  0  0  0  0
  151.1745  143.7990  158.4117 C   0  0  0  0  0  0  0  0  0  0  0  0
  150.9518  142.7212  157.5632 C   0  0  0  0  0  0  0  0  0  0  0  0
  150.1998  142.6182  156.3909 N   0  3  0  0  0  0  0  0  0  0  0  0
  150.2848  141.3484  155.9060 C   0  0  0  0  0  0  0  0  0  0  0  0
  151.0830  140.6395  156.7505 N   0  0  0  0  0  0  0  0  0  0  0  0
  151.5066  139.2337  156.6967 C   0  0  0  0  0  0  0  0  0  0  0  0
  151.8877  138.7766  155.2743 C   0  0  2  0  0  0  0  0  0  0  0  0
  152.8675  139.6521  154.7501 O   0  0  0  0  0  0  0  0  0  0  0  0
  150.6712  138.7626  154.3274 C   0  0  0  0  0  0  0  0  0  0  0  0
  149.9539  137.4587  154.3475 N   0  3  1  0  0  0  0  0  0  0  0  0
  150.8102  136.2833  154.6494 C   0  0  0  0  0  0  0  0  0  0  0  0
  151.0965  136.1654  156.1581 C   0  0  0  0  0  0  0  0  0  0  0  0
  149.8714  136.1428  156.8803 O   0  0  0  0  0  0  0  0  0  0  0  0
  149.1053  137.3298  156.7006 C   0  0  2  0  0  0  0  0  0  0  0  0
  147.8473  137.2161  157.5821 C   0  0  0  0  0  0  0  0  0  0  0  0
  148.0401  136.3121  158.7453 N   0  3  0  0  0  0  0  0  0  0  0  0
  149.2575  136.6179  159.5317 C   0  0  0  0  0  0  0  0  0  0  0  0
  146.8395  136.2493  159.6080 C   0  0  0  0  0  0  0  0  0  0  0  0
  148.7425  137.4528  155.2048 C   0  0  0  0  0  0  0  0  0  0  0  0
  151.5182  141.4540  157.8014 C   0  0  0  0  0  0  0  0  0  0  0  0
  152.3318  141.2147  158.9061 C   0  0  0  0  0  0  0  0  0  0  0  0
  152.5720  142.2989  159.7801 C   0  0  0  0  0  0  0  0  0  0  0  0
  153.4597  142.0701  160.9917 C   0  0  0  0  0  0  0  0  0  0  0  0
  151.7723  145.6450  160.1468 H   0  0  0  0  0  0  0  0  0  0  0  0
  153.3361  144.9387  160.5453 H   0  0  0  0  0  0  0  0  0  0  0  0
  151.8989  144.5026  161.4823 H   0  0  0  0  0  0  0  0  0  0  0  0
  150.7359  144.7674  158.2202 H   0  0  0  0  0  0  0  0  0  0  0  0
  149.8080  140.9742  155.0115 H   0  0  0  0  0  0  0  0  0  0  0  0
  152.3412  139.1023  157.3866 H   0  0  0  0  0  0  0  0  0  0  0  0
  150.6857  138.6287  157.0846 H   0  0  0  0  0  0  0  0  0  0  0  0
  152.3280  137.7821  155.3344 H   0  0  0  0  0  0  0  0  0  0  0  0
  152.5461  140.0210  153.9413 H   0  0  0  0  0  0  0  0  0  0  0  0
  149.9828  139.5673  154.5857 H   0  0  0  0  0  0  0  0  0  0  0  0
  151.0188  138.9798  153.3162 H   0  0  0  0  0  0  0  0  0  0  0  0
  150.2836  135.3880  154.3161 H   0  0  0  0  0  0  0  0  0  0  0  0
  151.7416  136.3137  154.0854 H   0  0  0  0  0  0  0  0  0  0  0  0
  151.6390  135.2421  156.3623 H   0  0  0  0  0  0  0  0  0  0  0  0
  151.7268  136.9819  156.5119 H   0  0  0  0  0  0  0  0  0  0  0  0
  149.6938  138.1970  157.0010 H   0  0  0  0  0  0  0  0  0  0  0  0
  147.5353  138.1997  157.9371 H   0  0  0  0  0  0  0  0  0  0  0  0
  147.0302  136.8432  156.9623 H   0  0  0  0  0  0  0  0  0  0  0  0
  149.2062  137.6211  159.9573 H   0  0  0  0  0  0  0  0  0  0  0  0
  150.1572  136.5514  158.9212 H   0  0  0  0  0  0  0  0  0  0  0  0
  149.3713  135.9086  160.3523 H   0  0  0  0  0  0  0  0  0  0  0  0
  146.6185  137.2247  160.0432 H   0  0  0  0  0  0  0  0  0  0  0  0
  146.9838  135.5364  160.4206 H   0  0  0  0  0  0  0  0  0  0  0  0
  145.9692  135.9230  159.0375 H   0  0  0  0  0  0  0  0  0  0  0  0
  148.1414  138.3438  155.0199 H   0  0  0  0  0  0  0  0  0  0  0  0
  148.1237  136.6040  154.9096 H   0  0  0  0  0  0  0  0  0  0  0  0
  152.7658  140.2439  159.0922 H   0  0  0  0  0  0  0  0  0  0  0  0
  153.8035  141.0366  161.0456 H   0  0  0  0  0  0  0  0  0  0  0  0
  152.9173  142.2881  161.9119 H   0  0  0  0  0  0  0  0  0  0  0  0
  154.3400  142.7118  160.9475 H   0  0  0  0  0  0  0  0  0  0  0  0
  148.1569  135.3809  158.3708 H   0  0  0  0  0  0  0  0  0  0  0  0
  149.6202  137.3364  153.4011 H   0  0  0  0  0  0  0  0  0  0  0  0
  149.6676  143.3585  155.9514 H   0  0  0  0  0  0  0  0  0  0  0  0
  1  2  1  0  0  0  0
  1 26  1  0  0  0  0
  1 27  1  0  0  0  0
  1 28  1  0  0  0  0
  2 24  1  0  0  0  0
  2  3  2  0  0  0  0
  3  4  1  0  0  0  0
  3 29  1  0  0  0  0
  4 22  2  0  0  0  0
  4  5  1  0  0  0  0
  5  6  2  0  0  0  0
  5 58  1  0  0  0  0
  6  7  1  0  0  0  0
  6 30  1  0  0  0  0
  7  8  1  0  0  0  0
  7 22  1  0  0  0  0
  8  9  1  0  0  0  0
  8 31  1  0  0  0  0
  8 32  1  0  0  0  0
  9 10  1  0  0  0  0
  9 11  1  0  0  0  0
  9 33  1  0  0  0  0
 10 34  1  0  0  0  0
 11 12  1  0  0  0  0
 11 35  1  0  0  0  0
 11 36  1  0  0  0  0
 12 21  1  0  0  0  0
 12 13  1  0  0  0  0
 12 57  1  0  0  0  0
 13 14  1  0  0  0  0
 13 37  1  0  0  0  0
 13 38  1  0  0  0  0
 14 15  1  0  0  0  0
 14 39  1  0  0  0  0
 14 40  1  0  0  0  0
 15 16  1  0  0  0  0
 16 17  1  0  0  0  0
 16 21  1  0  0  0  0
 16 41  1  0  0  0  0
 17 18  1  0  0  0  0
 17 42  1  0  0  0  0
 17 43  1  0  0  0  0
 18 19  1  0  0  0  0
 18 20  1  0  0  0  0
 18 56  1  0  0  0  0
 19 44  1  0  0  0  0
 19 45  1  0  0  0  0
 19 46  1  0  0  0  0
 20 47  1  0  0  0  0
 20 48  1  0  0  0  0
 20 49  1  0  0  0  0
 21 50  1  0  0  0  0
 21 51  1  0  0  0  0
 22 23  1  0  0  0  0
 23 24  2  0  0  0  0
 23 52  1  0  0  0  0
 24 25  1  0  0  0  0
 25 53  1  0  0  0  0
 25 54  1  0  0  0  0
 25 55  1  0  0  0  0
M  CHG  1   5   1
M  CHG  1  12   1
M  CHG  1  18   1
M  END
> <s_m_source_file>
AV-unprocessed.smi

> <i_m_source_file_index>
1005

> <i_lp_mmshare_version>
43012

> <i_f3d_flags>
0

> <s_epik_input>
W0NIM11jKFtjSF0xKWMoW0NIM10pW2NIXWMoYzEyKW4oW2NIXW4yKVtDSDJdW0NASF0oW09IXSlbQ0gyXU4zW0NIMl1bQ0gyXU9bQ0BIXShbQ0gyXTMpW0NIMl1OKFtDSDNdKVtDSDNd

> <s_epik_cmdline>
J2VwaWtfcHl0aG9uJywgJy1waCcsICc3LjAnLCAnLXRuJywgJzgnLCAnLW1hJywgJzIwMCcsICctbWV0YWxfYmluZGluZycsICctaW1hZScsICc8aW5maWxlLm1hZT4nLCAnLW9tYWUnLCAnPG91dGZpbGUubWFlPic=

> <r_epik_Ionization_Penalty>
2.30802

> <r_epik_Ionization_Penalty_Charging>
2.30798

> <r_epik_Ionization_Penalty_Neutral>
3.4851e-05

> <r_epik_State_Penalty>
2.52618

> <r_epik_Charging_Adjusted_Penalty>
4.83416

> <i_epik_Tot_Q>
3

> <i_epik_Tot_abs_Q>
3

> <r_epik_Metal_State_Penalty>
6.53149

> <b_epik_Metal_Only>
0

> <s_lp_Force_Field>
OPLS_2005

> <r_lp_Energy>
46.1367

> <b_lp_Chiralities_Consistent>
1

> <s_lp_Variant>
AV-unprocessed.smi:1005-21

> <Gold.Version>
5.8.1

> <Gold.Id.Protein>
6NUR|6NUR_protein|mol2

> <Gold.PLP.Fitness>
55.0949

> <Gold.PLP.PLP>
-47.4355

> <Gold.PLP.part.hbond>
-3.8886

> <Gold.PLP.part.metal>
0.0000

> <Gold.PLP.part.buried>
-6.7786

> <Gold.PLP.part.nonpolar>
-38.0758

> <Gold.PLP.part.repulsive>
0.2333

> <Gold.PLP.ligand.clash>
4.3038

> <Gold.PLP.ligand.torsion>
1.5974

> <Gold.PLP.Chemscore.Hbond>
5.0000

> <Gold.PLP.Chemscore.CHOScore>
0.0000

> <Gold.PLP.Chemscore.Metal>
0.0000

> <Gold.Chemscore.Hbonds>
donor molecule, donor type, donor heavy atom, donor atom, acceptor molecule, acceptor atom, score
      L1  H     5    58       P1  8028  2.00
      L1  H    12    57       P1  7948  2.00
      P1  H  7997  8009       L1    10  1.00

> <Gold.PLP.Chemscore.Internal.Correction>
0.1580

> <Gold.Rescore>
     Score         DG    S(hbond)    S(metal)    S(lipo)     H(rot)  DE(clash)    DE(int)     intcor
     18.45     -22.38       2.75        0.00     121.83       2.56       0.26       3.68       ----

> <Gold.Chemscore.Fitness>
18.4478

> <Gold.Chemscore.DG>
-22.3816

> <Gold.Chemscore.ZeroCoef>
-5.4800

> <Gold.Chemscore.Hbond>
2.7522

> <Gold.Chemscore.Metal>
0.0000

> <Gold.Chemscore.Lipo>
121.8297

> <Gold.Chemscore.Internal_Hbond>
0.0000

> <Gold.Chemscore.DEClash>
0.2561

> <Gold.Chemscore.DEInternal>
3.6777

> <Gold.Chemscore.Rot>
2.5566

> <Gold.Chemscore.Internal.Correction>
   9.000000E+99

> <Gold.Chemscore.Hbonds>
donor molecule, donor type, donor heavy atom, donor atom, acceptor molecule, acceptor atom, score
      L1  H     5    58       P1  8028  0.98
      L1  H    12    57       P1  7948  0.78
      P1  H  7997  8009       L1    10  0.93

> <Gold.Chemscore.Hbond.Weighted>
-9.1925

> <Gold.Chemscore.Metal.Weighted>
-0.0000

> <Gold.Chemscore.Lipo.Weighted>
-14.2541

> <Gold.Chemscore.Internal_Hbond.Weighted>
0.0000

> <Gold.Chemscore.DEClash.Weighted>
0.2561

> <Gold.Chemscore.DEInternal.Weighted>
3.6777

> <Gold.Chemscore.Rot.Weighted>
6.5450

> <Gold.Chemscore.Internal.Correction.Weighted>
   9.000000E+99

> <Gold.Protein.RotatedTorsions>
[ 6907 6896 6895 6894 ] final   -9.21 input  -60.11 | X-H torsion
[ 7974 7965 7964 7962 ] final    2.91 input  175.53 | X-H torsion
[ 8008 7997 7996 7995 ] final -125.69 input   59.86 | X-H torsion
[ 10167 10162 10161 10158 ] final   12.31 input  -65.29 | X-H torsion
[ 10718 10713 10712 10709 ] final   12.84 input   66.30 | X-H torsion
[ 10763 10752 10751 10750 ] final -172.45 input  -60.55 | X-H torsion
[ 11005 11000 10999 10996 ] final  131.11 input  -57.11 | X-H torsion

> <Gold.Protein.ActiveResidues>
 VAL166  LYS551  ARG553  GLY616  TRP617  ASP618  TYR619  PRO620  LYS621  CYS622 
 ASP623  PHE694  ASN695  SER759  ASP760  ASP761  ALA762  ILE779  LEU786  VAL792 
 PHE793  MET794  SER795  GLU796  ALA797  LYS798  CYS799  TRP800  GLU811  SER814 

> <Gold.Protein.RotatedAtoms>
  151.4214  135.0998  159.9614 H   0  0  0  0  0  0  0  0  0  0  0  0  # atno 6907 bound_to 6896
  152.4987  133.8703  159.7305 H   0  0  0  0  0  0  0  0  0  0  0  0  # atno 6908 bound_to 6896
  150.9220  133.6811  159.2858 H   0  0  0  0  0  0  0  0  0  0  0  0  # atno 6909 bound_to 6896
  146.2444  140.0765  142.8359 H   0  0  0  0  0  0  0  0  0  0  0  0  # atno 7974 bound_to 7965
  155.2175  140.0421  157.2943 H   0  0  0  0  0  0  0  0  0  0  0  0  # atno 8008 bound_to 7997
  154.5971  140.2442  155.7813 H   0  0  0  0  0  0  0  0  0  0  0  0  # atno 8009 bound_to 7997
  156.2297  140.2942  156.0166 H   0  0  0  0  0  0  0  0  0  0  0  0  # atno 8010 bound_to 7997
  140.6076  143.8476  150.7030 H   0  0  0  0  0  0  0  0  0  0  0  0  # atno 10167 bound_to 10162
  157.0160  130.6136  149.5714 H   0  0  0  0  0  0  0  0  0  0  0  0  # atno 10718 bound_to 10713
  154.6191  135.2873  155.0346 H   0  0  0  0  0  0  0  0  0  0  0  0  # atno 10763 bound_to 10752
  154.1547  135.6498  153.4975 H   0  0  0  0  0  0  0  0  0  0  0  0  # atno 10764 bound_to 10752
  153.0228  135.5364  154.6974 H   0  0  0  0  0  0  0  0  0  0  0  0  # atno 10765 bound_to 10752
  139.9711  134.9577  156.9390 H   0  0  0  0  0  0  0  0  0  0  0  0  # atno 11005 bound_to 11000
  145.0770  140.9195  143.4848 LP  0  0  0  0  0  0  0  0  0  0  0  0  # atno 17320 bound_to 7965
  145.0911  139.2890  143.5734 LP  0  0  0  0  0  0  0  0  0  0  0  0  # atno 17321 bound_to 7965
  140.2036  143.3939  152.1772 LP  0  0  0  0  0  0  0  0  0  0  0  0  # atno 17342 bound_to 10162
  139.5336  144.7186  151.4969 LP  0  0  0  0  0  0  0  0  0  0  0  0  # atno 17343 bound_to 10162
  156.0119  130.5211  150.8015 LP  0  0  0  0  0  0  0  0  0  0  0  0  # atno 17370 bound_to 10713
  157.5285  131.0935  150.9986 LP  0  0  0  0  0  0  0  0  0  0  0  0  # atno 17371 bound_to 10713
  140.5292  134.0830  155.7311 LP  0  0  0  0  0  0  0  0  0  0  0  0  # atno 17394 bound_to 11000
  141.1390  133.9171  157.2369 LP  0  0  0  0  0  0  0  0  0  0  0  0  # atno 17395 bound_to 11000

$$$$
