AV-unprocessed.smi:1801|AV-procd|sdf|7268|dock3
  -GOLD-   22720 8523D 1   1.00000     0.00000
 Structure written by MMmdl.
 38 39  0  0  0  0  0  0  0  0  2 V2000
  145.5858  134.8476  150.5872 C   0  0  0  0  0  0  0  0  0  0  0  0
  145.4264  135.1973  152.0770 C   0  0  1  0  0  0  0  0  0  0  0  0
  145.3332  136.7264  152.2914 C   0  0  0  0  0  0  0  0  0  0  0  0
  146.6420  137.3423  152.4840 N   0  0  0  0  0  0  0  0  0  0  0  0
  146.8776  138.4000  153.2738 C   0  0  0  0  0  0  0  0  0  0  0  0
  145.9973  138.9679  153.9211 O   0  0  0  0  0  0  0  0  0  0  0  0
  148.1766  138.7394  153.2607 N   0  0  0  0  0  0  0  0  0  0  0  0
  148.8109  139.7867  153.9750 C   0  0  0  0  0  0  0  0  0  0  0  0
  150.0359  139.5612  154.4644 N   0  0  0  0  0  0  0  0  0  0  0  0
  150.5377  140.6663  155.1410 N   0  0  0  0  0  0  0  0  0  0  0  0
  149.6703  141.6829  155.1355 C   0  0  0  0  0  0  0  0  0  0  0  0
  148.1528  141.3925  154.3035 S   0  0  0  0  0  0  0  0  0  0  0  0
  144.2053  134.4640  152.6720 C   0  0  0  0  0  0  0  0  0  0  0  0
  144.3642  132.9893  152.6645 N   0  3  0  0  0  0  0  0  0  0  0  0
  144.0951  132.3567  151.3587 C   0  0  0  0  0  0  0  0  0  0  0  0
  144.7951  131.0041  151.4314 C   0  0  0  0  0  0  0  0  0  0  0  0
  146.0631  131.3170  152.2212 C   0  0  0  0  0  0  0  0  0  0  0  0
  145.6758  132.4851  153.1389 C   0  0  0  0  0  0  0  0  0  0  0  0
  144.7276  135.1874  150.0064 H   0  0  0  0  0  0  0  0  0  0  0  0
  145.6776  133.7706  150.4449 H   0  0  0  0  0  0  0  0  0  0  0  0
  146.4786  135.3050  150.1603 H   0  0  0  0  0  0  0  0  0  0  0  0
  146.3196  134.8296  152.5831 H   0  0  0  0  0  0  0  0  0  0  0  0
  144.8565  137.1967  151.4308 H   0  0  0  0  0  0  0  0  0  0  0  0
  144.7046  136.9631  153.1513 H   0  0  0  0  0  0  0  0  0  0  0  0
  147.4191  136.9340  151.9847 H   0  0  0  0  0  0  0  0  0  0  0  0
  148.7847  138.1831  152.6777 H   0  0  0  0  0  0  0  0  0  0  0  0
  149.9259  142.6105  155.6260 H   0  0  0  0  0  0  0  0  0  0  0  0
  144.0502  134.7982  153.6990 H   0  0  0  0  0  0  0  0  0  0  0  0
  143.2993  134.7238  152.1220 H   0  0  0  0  0  0  0  0  0  0  0  0
  143.0255  132.2673  151.1661 H   0  0  0  0  0  0  0  0  0  0  0  0
  144.5356  132.9559  150.5597 H   0  0  0  0  0  0  0  0  0  0  0  0
  144.1770  130.2960  151.9854 H   0  0  0  0  0  0  0  0  0  0  0  0
  144.9999  130.5777  150.4489 H   0  0  0  0  0  0  0  0  0  0  0  0
  146.4339  130.4533  152.7739 H   0  0  0  0  0  0  0  0  0  0  0  0
  146.8512  131.6349  151.5371 H   0  0  0  0  0  0  0  0  0  0  0  0
  146.4448  133.2584  153.1076 H   0  0  0  0  0  0  0  0  0  0  0  0
  145.5757  132.1599  154.1751 H   0  0  0  0  0  0  0  0  0  0  0  0
  143.6744  132.6119  153.2987 H   0  0  0  0  0  0  0  0  0  0  0  0
  1  2  1  0  0  0  0
  1 19  1  0  0  0  0
  1 20  1  0  0  0  0
  1 21  1  0  0  0  0
  2  3  1  0  0  0  0
  2 13  1  0  0  0  0
  2 22  1  0  0  0  0
  3  4  1  0  0  0  0
  3 23  1  0  0  0  0
  3 24  1  0  0  0  0
  4  5  1  0  0  0  0
  4 25  1  0  0  0  0
  5  6  2  0  0  0  0
  5  7  1  0  0  0  0
  7  8  1  0  0  0  0
  7 26  1  0  0  0  0
  8 12  1  0  0  0  0
  8  9  2  0  0  0  0
  9 10  1  0  0  0  0
 10 11  2  0  0  0  0
 11 12  1  0  0  0  0
 11 27  1  0  0  0  0
 13 14  1  0  0  0  0
 13 28  1  0  0  0  0
 13 29  1  0  0  0  0
 14 18  1  0  0  0  0
 14 15  1  0  0  0  0
 14 38  1  0  0  0  0
 15 16  1  0  0  0  0
 15 30  1  0  0  0  0
 15 31  1  0  0  0  0
 16 17  1  0  0  0  0
 16 32  1  0  0  0  0
 16 33  1  0  0  0  0
 17 18  1  0  0  0  0
 17 34  1  0  0  0  0
 17 35  1  0  0  0  0
 18 36  1  0  0  0  0
 18 37  1  0  0  0  0
M  CHG  1  14   1
M  END
> <s_m_source_file>
AV-unprocessed.smi

> <i_m_source_file_index>
1801

> <i_lp_mmshare_version>
43012

> <i_f3d_flags>
0

> <s_epik_input>
W0NIMl0xW0NIMl1bQ0gyXVtDSDJdTjFbQ0gyXVtDQEhdKFtDSDNdKVtDSDJdW05IXUMoPU8pW05IXWMybm5bY0hdczI=

> <s_epik_cmdline>
J2VwaWtfcHl0aG9uJywgJy1waCcsICc3LjAnLCAnLXRuJywgJzgnLCAnLW1hJywgJzIwMCcsICctbWV0YWxfYmluZGluZycsICctaW1hZScsICc8aW5maWxlLm1hZT4nLCAnLW9tYWUnLCAnPG91dGZpbGUubWFlPic=

> <r_lp_tautomer_probability>
1

> <r_epik_Ionization_Penalty>
0.00281598

> <r_epik_Ionization_Penalty_Charging>
0.000371708

> <r_epik_Ionization_Penalty_Neutral>
0.00244427

> <r_epik_State_Penalty>
-0

> <r_epik_Charging_Adjusted_Penalty>
0.000371708

> <i_epik_Tot_Q>
1

> <i_epik_Tot_abs_Q>
1

> <r_epik_Metal_State_Penalty>
0.350595

> <b_epik_Metal_Only>
0

> <s_lp_Force_Field>
OPLS_2005

> <r_lp_Energy>
27.8609

> <b_lp_Chiralities_Consistent>
1

> <s_lp_Variant>
AV-unprocessed.smi:1801-2

> <Gold.Version>
5.8.1

> <Gold.Id.Protein>
6NUR|6NUR_protein|mol2

> <Gold.PLP.Fitness>
42.6649

> <Gold.PLP.PLP>
-29.3020

> <Gold.PLP.part.hbond>
-5.4534

> <Gold.PLP.part.metal>
0.0000

> <Gold.PLP.part.buried>
-1.5414

> <Gold.PLP.part.nonpolar>
-23.5017

> <Gold.PLP.part.repulsive>
0.4674

> <Gold.PLP.ligand.clash>
0.0000

> <Gold.PLP.ligand.torsion>
1.0291

> <Gold.PLP.Chemscore.Hbond>
4.1223

> <Gold.PLP.Chemscore.CHOScore>
0.9736

> <Gold.PLP.Chemscore.Metal>
0.0000

> <Gold.Chemscore.Hbonds>
donor molecule, donor type, donor heavy atom, donor atom, acceptor molecule, acceptor atom, score
      L1  H     4    25       P1  7948  1.00
      L1  H     7    26       P1  7948  0.72
      L1  H    14    38       P1 10957  2.00
      P1  H  7989  7998       L1    10  0.18
      L1  C    11    27       P1  8028  1.00

> <Gold.PLP.Chemscore.Internal.Correction>
0.1332

> <Gold.Rescore>
     Score         DG    S(hbond)    S(metal)    S(lipo)     H(rot)  DE(clash)    DE(int)     intcor
     14.87     -16.13       2.72        0.00      56.52       1.97       0.03       1.23       ----

> <Gold.Chemscore.Fitness>
14.8679

> <Gold.Chemscore.DG>
-16.1294

> <Gold.Chemscore.ZeroCoef>
-5.4800

> <Gold.Chemscore.Hbond>
2.7159

> <Gold.Chemscore.Metal>
0.0000

> <Gold.Chemscore.Lipo>
56.5216

> <Gold.Chemscore.Internal_Hbond>
0.0000

> <Gold.Chemscore.DEClash>
0.0323

> <Gold.Chemscore.DEInternal>
1.2292

> <Gold.Chemscore.Rot>
1.9667

> <Gold.Chemscore.Internal.Correction>
   9.000000E+99

> <Gold.Chemscore.Hbonds>
donor molecule, donor type, donor heavy atom, donor atom, acceptor molecule, acceptor atom, score
      L1  H     4    25       P1  7948  0.98
      L1  H     7    26       P1  7948  0.68
      L1  H    14    38       P1 10957  0.29

> <Gold.Chemscore.Hbond.Weighted>
-9.0712

> <Gold.Chemscore.Metal.Weighted>
-0.0000

> <Gold.Chemscore.Lipo.Weighted>
-6.6130

> <Gold.Chemscore.Internal_Hbond.Weighted>
0.0000

> <Gold.Chemscore.DEClash.Weighted>
0.0323

> <Gold.Chemscore.DEInternal.Weighted>
1.2292

> <Gold.Chemscore.Rot.Weighted>
5.0348

> <Gold.Chemscore.Internal.Correction.Weighted>
   9.000000E+99

> <Gold.Protein.RotatedTorsions>
[ 6907 6896 6895 6894 ] final  -26.25 input  -60.11 | X-H torsion
[ 7974 7965 7964 7962 ] final   76.42 input  175.53 | X-H torsion
[ 8008 7997 7996 7995 ] final  162.67 input   59.86 | X-H torsion
[ 10167 10162 10161 10158 ] final  -77.95 input  -65.29 | X-H torsion
[ 10718 10713 10712 10709 ] final  -11.38 input   66.30 | X-H torsion
[ 10763 10752 10751 10750 ] final  -83.16 input  -60.55 | X-H torsion
[ 11005 11000 10999 10996 ] final  -43.06 input  -57.11 | X-H torsion

> <Gold.Protein.ActiveResidues>
 VAL166  LYS551  ARG553  GLY616  TRP617  ASP618  TYR619  PRO620  LYS621  CYS622 
 ASP623  PHE694  ASN695  SER759  ASP760  ASP761  ALA762  ILE779  LEU786  VAL792 
 PHE793  MET794  SER795  GLU796  ALA797  LYS798  CYS799  TRP800  GLU811  SER814 

> <Gold.Protein.RotatedAtoms>
  151.1636  135.0285  159.8720 H   0  0  0  0  0  0  0  0  0  0  0  0  # atno 6907 bound_to 6896
  152.5451  134.1251  159.8425 H   0  0  0  0  0  0  0  0  0  0  0  0  # atno 6908 bound_to 6896
  151.1349  133.4965  159.2631 H   0  0  0  0  0  0  0  0  0  0  0  0  # atno 6909 bound_to 6896
  145.7030  139.2589  143.1694 H   0  0  0  0  0  0  0  0  0  0  0  0  # atno 7974 bound_to 7965
  156.2014  140.1744  156.7890 H   0  0  0  0  0  0  0  0  0  0  0  0  # atno 8008 bound_to 7997
  154.5597  140.0702  156.8830 H   0  0  0  0  0  0  0  0  0  0  0  0  # atno 8009 bound_to 7997
  155.2871  140.3353  155.4257 H   0  0  0  0  0  0  0  0  0  0  0  0  # atno 8010 bound_to 7997
  140.4725  143.2423  151.8184 H   0  0  0  0  0  0  0  0  0  0  0  0  # atno 10167 bound_to 10162
  156.6598  130.4979  149.6034 H   0  0  0  0  0  0  0  0  0  0  0  0  # atno 10718 bound_to 10713
  154.5845  135.5565  153.7217 H   0  0  0  0  0  0  0  0  0  0  0  0  # atno 10763 bound_to 10752
  153.0093  135.6328  154.1936 H   0  0  0  0  0  0  0  0  0  0  0  0  # atno 10764 bound_to 10752
  154.1877  135.2884  155.3012 H   0  0  0  0  0  0  0  0  0  0  0  0  # atno 10765 bound_to 10752
  141.0358  133.6800  156.2681 H   0  0  0  0  0  0  0  0  0  0  0  0  # atno 11005 bound_to 11000
  146.0780  140.7795  142.9655 LP  0  0  0  0  0  0  0  0  0  0  0  0  # atno 17320 bound_to 7965
  144.6963  140.3445  143.7193 LP  0  0  0  0  0  0  0  0  0  0  0  0  # atno 17321 bound_to 7965
  139.4820  144.4874  151.9229 LP  0  0  0  0  0  0  0  0  0  0  0  0  # atno 17342 bound_to 10162
  140.3960  144.2555  150.5896 LP  0  0  0  0  0  0  0  0  0  0  0  0  # atno 17343 bound_to 10162
  156.2019  130.6625  151.1177 LP  0  0  0  0  0  0  0  0  0  0  0  0  # atno 17370 bound_to 10713
  157.7113  131.0732  150.6489 LP  0  0  0  0  0  0  0  0  0  0  0  0  # atno 17371 bound_to 10713
  140.6324  134.5250  157.5561 LP  0  0  0  0  0  0  0  0  0  0  0  0  # atno 17394 bound_to 11000
  139.9240  134.8093  156.1125 LP  0  0  0  0  0  0  0  0  0  0  0  0  # atno 17395 bound_to 11000

$$$$
