AV-unprocessed.smi:169|AV-procd|sdf|1401|dock1
  -GOLD-   2262019153D 1   1.00000     0.00000
 Structure written by MMmdl.
 56 60  0  0  0  0  0  0  0  0  2 V2000
  151.8990  143.3100  157.8491 C   0  0  0  0  0  0  0  0  0  0  0  0
  150.7276  142.3616  158.1565 C   0  0  0  0  0  0  0  0  0  0  0  0
  150.6080  141.2298  157.2012 N   0  3  1  0  0  0  0  0  0  0  0  0
  149.9471  141.6305  155.9090 C   0  0  0  0  0  0  0  0  0  0  0  0
  149.2951  140.4437  155.1084 C   0  0  0  0  0  0  0  0  0  0  0  0
  150.1255  139.1457  155.1711 C   0  0  3  0  0  0  0  0  0  0  0  0
  151.2458  138.4847  154.3598 C   0  0  0  0  0  0  0  0  0  0  0  0
  152.3619  138.3978  155.4542 C   0  0  0  0  0  0  0  0  0  0  0  0
  151.6896  138.9070  156.7740 C   0  0  1  0  0  0  0  0  0  0  0  0
  151.8883  140.4390  157.0682 C   0  0  0  0  0  0  0  0  0  0  0  0
  150.2801  138.6487  156.5258 N   0  0  0  0  0  0  0  0  0  0  0  0
  149.7162  137.4487  156.8382 C   0  0  0  0  0  0  0  0  0  0  0  0
  150.0799  136.3457  156.1320 N   0  0  0  0  0  0  0  0  0  0  0  0
  149.5508  135.1518  156.4115 C   0  0  0  0  0  0  0  0  0  0  0  0
  148.6604  134.8353  157.3517 N   0  0  0  0  0  0  0  0  0  0  0  0
  148.3024  135.9296  158.0817 C   0  0  0  0  0  0  0  0  0  0  0  0
  148.7737  137.2611  157.8935 C   0  0  0  0  0  0  0  0  0  0  0  0
  148.1781  138.1006  158.8286 N   0  0  0  0  0  0  0  0  0  0  0  0
  147.3991  137.3157  159.5200 C   0  0  0  0  0  0  0  0  0  0  0  0
  147.4249  135.9904  159.1507 N   0  0  0  0  0  0  0  0  0  0  0  0
  146.6627  134.9013  159.7456 C   0  0  0  0  0  0  0  0  0  0  0  0
  145.6949  135.3234  160.8782 C   0  0  0  0  0  0  0  0  0  0  0  0
  144.5074  136.0544  160.2380 C   0  0  0  0  0  0  0  0  0  0  0  0
  143.6429  136.5861  161.2217 O   0  0  0  0  0  0  0  0  0  0  0  0
  145.3238  134.2446  161.9115 C   0  0  0  0  0  0  0  0  0  0  0  0
  146.2559  134.7751  162.8770 O   0  0  0  0  0  0  0  0  0  0  0  0
  146.3159  135.9979  162.1129 C   0  0  0  0  0  0  0  0  0  0  0  0
  151.9431  144.1112  158.5871 H   0  0  0  0  0  0  0  0  0  0  0  0
  151.7949  143.7775  156.8701 H   0  0  0  0  0  0  0  0  0  0  0  0
  152.8575  142.7915  157.8753 H   0  0  0  0  0  0  0  0  0  0  0  0
  150.8352  141.9626  159.1658 H   0  0  0  0  0  0  0  0  0  0  0  0
  149.7929  142.9235  158.1602 H   0  0  0  0  0  0  0  0  0  0  0  0
  149.1697  142.3696  156.1056 H   0  0  0  0  0  0  0  0  0  0  0  0
  150.6845  142.1357  155.2832 H   0  0  0  0  0  0  0  0  0  0  0  0
  148.3120  140.2384  155.5334 H   0  0  0  0  0  0  0  0  0  0  0  0
  149.1146  140.7402  154.0738 H   0  0  0  0  0  0  0  0  0  0  0  0
  150.8548  139.9258  154.9875 H   0  0  0  0  0  0  0  0  0  0  0  0
  150.9410  137.4823  154.0564 H   0  0  0  0  0  0  0  0  0  0  0  0
  151.5546  139.0176  153.4549 H   0  0  0  0  0  0  0  0  0  0  0  0
  152.6802  137.3607  155.5675 H   0  0  0  0  0  0  0  0  0  0  0  0
  153.2454  138.9809  155.1931 H   0  0  0  0  0  0  0  0  0  0  0  0
  152.0780  138.3492  157.6261 H   0  0  0  0  0  0  0  0  0  0  0  0
  152.5218  140.9073  156.3137 H   0  0  0  0  0  0  0  0  0  0  0  0
  152.4512  140.5128  157.9994 H   0  0  0  0  0  0  0  0  0  0  0  0
  149.8915  134.3326  155.7957 H   0  0  0  0  0  0  0  0  0  0  0  0
  146.7822  137.6860  160.3256 H   0  0  0  0  0  0  0  0  0  0  0  0
  146.1158  134.4117  158.9390 H   0  0  0  0  0  0  0  0  0  0  0  0
  147.3748  134.1602  160.1107 H   0  0  0  0  0  0  0  0  0  0  0  0
  144.8463  136.8633  159.5901 H   0  0  0  0  0  0  0  0  0  0  0  0
  143.9255  135.3787  159.6103 H   0  0  0  0  0  0  0  0  0  0  0  0
  144.0303  137.3758  161.5673 H   0  0  0  0  0  0  0  0  0  0  0  0
  144.2953  134.3117  162.2706 H   0  0  0  0  0  0  0  0  0  0  0  0
  145.5530  133.2222  161.6164 H   0  0  0  0  0  0  0  0  0  0  0  0
  147.3317  136.3634  161.9692 H   0  0  0  0  0  0  0  0  0  0  0  0
  145.6889  136.7762  162.5514 H   0  0  0  0  0  0  0  0  0  0  0  0
  149.9568  140.5996  157.6480 H   0  0  0  0  0  0  0  0  0  0  0  0
  1  2  1  0  0  0  0
  1 28  1  0  0  0  0
  1 29  1  0  0  0  0
  1 30  1  0  0  0  0
  2  3  1  0  0  0  0
  2 31  1  0  0  0  0
  2 32  1  0  0  0  0
  3 10  1  0  0  0  0
  3  4  1  0  0  0  0
  3 56  1  0  0  0  0
  4  5  1  0  0  0  0
  4 33  1  0  0  0  0
  4 34  1  0  0  0  0
  5  6  1  0  0  0  0
  5 35  1  0  0  0  0
  5 36  1  0  0  0  0
  6 11  1  0  0  0  0
  6  7  1  0  0  0  0
  6 37  1  0  0  0  0
  7  8  1  0  0  0  0
  7 38  1  0  0  0  0
  7 39  1  0  0  0  0
  8  9  1  0  0  0  0
  8 40  1  0  0  0  0
  8 41  1  0  0  0  0
  9 10  1  0  0  0  0
  9 11  1  0  0  0  0
  9 42  1  0  0  0  0
 10 43  1  0  0  0  0
 10 44  1  0  0  0  0
 11 12  1  0  0  0  0
 12 17  1  0  0  0  0
 12 13  2  0  0  0  0
 13 14  1  0  0  0  0
 14 15  2  0  0  0  0
 14 45  1  0  0  0  0
 15 16  1  0  0  0  0
 16 20  1  0  0  0  0
 16 17  2  0  0  0  0
 17 18  1  0  0  0  0
 18 19  2  0  0  0  0
 19 20  1  0  0  0  0
 19 46  1  0  0  0  0
 20 21  1  0  0  0  0
 21 22  1  0  0  0  0
 21 47  1  0  0  0  0
 21 48  1  0  0  0  0
 22 27  1  0  0  0  0
 22 23  1  0  0  0  0
 22 25  1  0  0  0  0
 23 24  1  0  0  0  0
 23 49  1  0  0  0  0
 23 50  1  0  0  0  0
 24 51  1  0  0  0  0
 25 26  1  0  0  0  0
 25 52  1  0  0  0  0
 25 53  1  0  0  0  0
 26 27  1  0  0  0  0
 27 54  1  0  0  0  0
 27 55  1  0  0  0  0
M  CHG  1   3   1
M  END
> <s_m_source_file>
AV-unprocessed.smi

> <i_m_source_file_index>
169

> <i_lp_mmshare_version>
43012

> <i_f3d_flags>
0

> <s_epik_input>
W0NASF0xMltDSDJdW0NIMl1OKFtDSDJdW0NIM10pW0NIMl1bQ0BIXShbQ0gyXVtDSDJdMSlOMmMobltjSF1uMyljKGMzNCluW2NIXW40W0NIMl1DNShbQ0gyXVtPSF0pW0NIMl1PW0NIMl01

> <s_epik_cmdline>
J2VwaWtfcHl0aG9uJywgJy1waCcsICc3LjAnLCAnLXRuJywgJzgnLCAnLW1hJywgJzIwMCcsICctbWV0YWxfYmluZGluZycsICctaW1hZScsICc8aW5maWxlLm1hZT4nLCAnLW9tYWUnLCAnPG91dGZpbGUubWFlPic=

> <r_lp_tautomer_probability>
1

> <r_epik_Ionization_Penalty>
0.00274162

> <r_epik_Ionization_Penalty_Charging>
0.00243722

> <r_epik_Ionization_Penalty_Neutral>
0.000304399

> <r_epik_State_Penalty>
-0

> <r_epik_Charging_Adjusted_Penalty>
0.00243722

> <i_epik_Tot_Q>
1

> <i_epik_Tot_abs_Q>
1

> <r_epik_Metal_State_Penalty>
-0

> <b_epik_Metal_Only>
0

> <s_lp_Force_Field>
OPLS_2005

> <r_lp_Energy>
128.509

> <b_lp_Chiralities_Consistent>
1

> <s_lp_Variant>
AV-unprocessed.smi:169-4

> <Gold.Version>
5.8.1

> <Gold.Id.Protein>
6NUR|6NUR_protein|mol2

> <Gold.PLP.Fitness>
42.1421

> <Gold.PLP.PLP>
-40.2231

> <Gold.PLP.part.hbond>
-3.4728

> <Gold.PLP.part.metal>
0.0000

> <Gold.PLP.part.buried>
-5.8049

> <Gold.PLP.part.nonpolar>
-32.2357

> <Gold.PLP.part.repulsive>
0.0635

> <Gold.PLP.ligand.clash>
0.0000

> <Gold.PLP.ligand.torsion>
0.4760

> <Gold.PLP.Chemscore.Hbond>
0.8089

> <Gold.PLP.Chemscore.CHOScore>
0.0000

> <Gold.PLP.Chemscore.Metal>
0.0000

> <Gold.PLP.Chemscore.Internal.Correction>
0.4444

> <Gold.Rescore>
     Score         DG    S(hbond)    S(metal)    S(lipo)     H(rot)  DE(clash)    DE(int)     intcor
      8.37      -9.90       0.04        0.00      94.14       2.62       0.11       1.42       ----

> <Gold.Chemscore.Fitness>
8.3732

> <Gold.Chemscore.DG>
-9.9042

> <Gold.Chemscore.ZeroCoef>
-5.4800

> <Gold.Chemscore.Hbond>
0.0360

> <Gold.Chemscore.Metal>
0.0000

> <Gold.Chemscore.Lipo>
94.1369

> <Gold.Chemscore.Internal_Hbond>
0.0000

> <Gold.Chemscore.DEClash>
0.1089

> <Gold.Chemscore.DEInternal>
1.4221

> <Gold.Chemscore.Rot>
2.6212

> <Gold.Chemscore.Internal.Correction>
   9.000000E+99

> <Gold.Chemscore.Hbond.Weighted>
-0.1204

> <Gold.Chemscore.Metal.Weighted>
-0.0000

> <Gold.Chemscore.Lipo.Weighted>
-11.0140

> <Gold.Chemscore.Internal_Hbond.Weighted>
0.0000

> <Gold.Chemscore.DEClash.Weighted>
0.1089

> <Gold.Chemscore.DEInternal.Weighted>
1.4221

> <Gold.Chemscore.Rot.Weighted>
6.7102

> <Gold.Chemscore.Internal.Correction.Weighted>
   9.000000E+99

> <Gold.Protein.RotatedTorsions>
[ 6907 6896 6895 6894 ] final    2.33 input  -60.11 | X-H torsion
[ 7974 7965 7964 7962 ] final   51.83 input  175.53 | X-H torsion
[ 8008 7997 7996 7995 ] final   26.77 input   59.86 | X-H torsion
[ 10167 10162 10161 10158 ] final   69.32 input  -65.29 | X-H torsion
[ 10718 10713 10712 10709 ] final -139.07 input   66.30 | X-H torsion
[ 10763 10752 10751 10750 ] final   97.53 input  -60.55 | X-H torsion
[ 11005 11000 10999 10996 ] final   66.18 input  -57.11 | X-H torsion

> <Gold.Protein.ActiveResidues>
 VAL166  LYS551  ARG553  GLY616  TRP617  ASP618  TYR619  PRO620  LYS621  CYS622 
 ASP623  PHE694  ASN695  SER759  ASP760  ASP761  ALA762  ILE779  LEU786  VAL792 
 PHE793  MET794  SER795  GLU796  ALA797  LYS798  CYS799  TRP800  GLU811  SER814 

> <Gold.Protein.RotatedAtoms>
  151.6071  135.1043  160.0072 H   0  0  0  0  0  0  0  0  0  0  0  0  # atno 6907 bound_to 6896
  152.4227  133.7139  159.6505 H   0  0  0  0  0  0  0  0  0  0  0  0  # atno 6908 bound_to 6896
  150.8115  133.8340  159.3202 H   0  0  0  0  0  0  0  0  0  0  0  0  # atno 6909 bound_to 6896
  145.9874  139.4304  143.0094 H   0  0  0  0  0  0  0  0  0  0  0  0  # atno 7974 bound_to 7965
  155.0324  140.3160  155.4753 H   0  0  0  0  0  0  0  0  0  0  0  0  # atno 8008 bound_to 7997
  156.2871  140.2178  156.5388 H   0  0  0  0  0  0  0  0  0  0  0  0  # atno 8009 bound_to 7997
  154.7359  140.0477  157.0756 H   0  0  0  0  0  0  0  0  0  0  0  0  # atno 8010 bound_to 7997
  140.0691  144.5168  150.7240 H   0  0  0  0  0  0  0  0  0  0  0  0  # atno 10167 bound_to 10162
  156.3066  130.7458  151.1523 H   0  0  0  0  0  0  0  0  0  0  0  0  # atno 10718 bound_to 10713
  153.2780  135.4180  155.1051 H   0  0  0  0  0  0  0  0  0  0  0  0  # atno 10763 bound_to 10752
  154.8479  135.3488  154.6152 H   0  0  0  0  0  0  0  0  0  0  0  0  # atno 10764 bound_to 10752
  153.6572  135.7050  153.5247 H   0  0  0  0  0  0  0  0  0  0  0  0  # atno 10765 bound_to 10752
  139.9848  134.6686  156.0197 H   0  0  0  0  0  0  0  0  0  0  0  0  # atno 11005 bound_to 11000
  145.7680  140.9908  143.1164 LP  0  0  0  0  0  0  0  0  0  0  0  0  # atno 17320 bound_to 7965
  144.6879  139.9412  143.7475 LP  0  0  0  0  0  0  0  0  0  0  0  0  # atno 17321 bound_to 7965
  140.7134  143.2524  151.4509 LP  0  0  0  0  0  0  0  0  0  0  0  0  # atno 17342 bound_to 10162
  139.5847  144.1631  152.2013 LP  0  0  0  0  0  0  0  0  0  0  0  0  # atno 17343 bound_to 10162
  157.7381  131.0544  150.5315 LP  0  0  0  0  0  0  0  0  0  0  0  0  # atno 17370 bound_to 10713
  156.5450  130.4217  149.6135 LP  0  0  0  0  0  0  0  0  0  0  0  0  # atno 17371 bound_to 10713
  141.1514  133.6548  156.4026 LP  0  0  0  0  0  0  0  0  0  0  0  0  # atno 17394 bound_to 11000
  140.5025  134.6472  157.5254 LP  0  0  0  0  0  0  0  0  0  0  0  0  # atno 17395 bound_to 11000

$$$$
