AV-unprocessed.smi:3042|AV-procd|sdf|11600|dock8
  -GOLD-   2272016583D 1   1.00000     0.00000
 Structure written by MMmdl.
 33 34  0  0  0  0  0  0  0  0  2 V2000
  148.3260  142.4777  157.5311 N   0  3  0  0  0  0  0  0  0  0  0  0
  149.1962  141.3094  157.3029 C   0  0  0  0  0  0  0  0  0  0  0  0
  150.5867  141.7158  156.7499 C   0  0  1  0  0  0  0  0  0  0  0  0
  151.2402  142.6877  157.7317 C   0  0  0  0  0  0  0  0  0  0  0  0
  151.6431  142.2720  159.0203 C   0  0  0  0  0  0  0  0  0  0  0  0
  152.2317  143.2131  159.8861 C   0  0  0  0  0  0  0  0  0  0  0  0
  152.3985  144.5345  159.4272 C   0  0  0  0  0  0  0  0  0  0  0  0
  152.0183  144.9448  158.1982 N   0  0  0  0  0  0  0  0  0  0  0  0
  151.4561  144.0365  157.3731 C   0  0  0  0  0  0  0  0  0  0  0  0
  151.4782  140.5780  156.4417 N   0  0  0  0  0  0  0  0  0  0  0  0
  151.0072  139.8110  155.2821 C   0  0  0  0  0  0  0  0  0  0  0  0
  151.9253  138.6234  154.9472 C   0  0  0  0  0  0  0  0  0  0  0  0
  152.0360  137.7746  156.0823 O   0  0  0  0  0  0  0  0  0  0  0  0
  152.5475  138.4575  157.2192 C   0  0  0  0  0  0  0  0  0  0  0  0
  151.6361  139.6487  157.5642 C   0  0  0  0  0  0  0  0  0  0  0  0
  147.4031  142.2879  157.1675 H   0  0  0  0  0  0  0  0  0  0  0  0
  148.7133  143.2843  157.0629 H   0  0  0  0  0  0  0  0  0  0  0  0
  149.2973  140.7575  158.2380 H   0  0  0  0  0  0  0  0  0  0  0  0
  148.6605  140.6657  156.6068 H   0  0  0  0  0  0  0  0  0  0  0  0
  150.4140  142.2640  155.8220 H   0  0  0  0  0  0  0  0  0  0  0  0
  151.5031  141.2500  159.3406 H   0  0  0  0  0  0  0  0  0  0  0  0
  152.5499  142.9290  160.8784 H   0  0  0  0  0  0  0  0  0  0  0  0
  152.8473  145.2817  160.0647 H   0  0  0  0  0  0  0  0  0  0  0  0
  151.1643  144.3999  156.3987 H   0  0  0  0  0  0  0  0  0  0  0  0
  149.9981  139.4410  155.4701 H   0  0  0  0  0  0  0  0  0  0  0  0
  150.9436  140.4462  154.3990 H   0  0  0  0  0  0  0  0  0  0  0  0
  151.5153  138.0516  154.1146 H   0  0  0  0  0  0  0  0  0  0  0  0
  152.9137  138.9710  154.6423 H   0  0  0  0  0  0  0  0  0  0  0  0
  152.5972  137.7635  158.0581 H   0  0  0  0  0  0  0  0  0  0  0  0
  153.5665  138.7949  157.0225 H   0  0  0  0  0  0  0  0  0  0  0  0
  152.0770  140.1539  158.4217 H   0  0  0  0  0  0  0  0  0  0  0  0
  150.6594  139.2784  157.8795 H   0  0  0  0  0  0  0  0  0  0  0  0
  148.2665  142.6611  158.5227 H   0  0  0  0  0  0  0  0  0  0  0  0
  1  2  1  0  0  0  0
  1 16  1  0  0  0  0
  1 17  1  0  0  0  0
  1 33  1  0  0  0  0
  2  3  1  0  0  0  0
  2 18  1  0  0  0  0
  2 19  1  0  0  0  0
  3  4  1  0  0  0  0
  3 10  1  0  0  0  0
  3 20  1  0  0  0  0
  4  9  1  0  0  0  0
  4  5  2  0  0  0  0
  5  6  1  0  0  0  0
  5 21  1  0  0  0  0
  6  7  2  0  0  0  0
  6 22  1  0  0  0  0
  7  8  1  0  0  0  0
  7 23  1  0  0  0  0
  8  9  2  0  0  0  0
  9 24  1  0  0  0  0
 10 15  1  0  0  0  0
 10 11  1  0  0  0  0
 11 12  1  0  0  0  0
 11 25  1  0  0  0  0
 11 26  1  0  0  0  0
 12 13  1  0  0  0  0
 12 27  1  0  0  0  0
 12 28  1  0  0  0  0
 13 14  1  0  0  0  0
 14 15  1  0  0  0  0
 14 29  1  0  0  0  0
 14 30  1  0  0  0  0
 15 31  1  0  0  0  0
 15 32  1  0  0  0  0
M  CHG  1   1   1
M  END
> <s_m_source_file>
AV-unprocessed.smi

> <i_m_source_file_index>
3042

> <i_lp_mmshare_version>
43012

> <i_f3d_flags>
0

> <s_epik_input>
W0NIMl0xW0NIMl1PW0NIMl1bQ0gyXU4xW0NASF0oW0NIMl1bTkgyXSljMltjSF1bY0hdW2NIXW5bY0hdMg==

> <s_epik_cmdline>
J2VwaWtfcHl0aG9uJywgJy1waCcsICc3LjAnLCAnLXRuJywgJzgnLCAnLW1hJywgJzIwMCcsICctbWV0YWxfYmluZGluZycsICctaW1hZScsICc8aW5maWxlLm1hZT4nLCAnLW9tYWUnLCAnPG91dGZpbGUubWFlPic=

> <r_epik_Ionization_Penalty>
0.0112597

> <r_epik_Ionization_Penalty_Charging>
0.00794922

> <r_epik_Ionization_Penalty_Neutral>
0.00331052

> <r_epik_State_Penalty>
0.00596555

> <r_epik_Charging_Adjusted_Penalty>
0.0139148

> <i_epik_Tot_Q>
1

> <i_epik_Tot_abs_Q>
1

> <r_epik_Metal_State_Penalty>
0.00603286

> <b_epik_Metal_Only>
0

> <s_lp_Force_Field>
OPLS_2005

> <r_lp_Energy>
28.2789

> <b_lp_Chiralities_Consistent>
1

> <s_lp_Variant>
AV-unprocessed.smi:3042-2

> <Gold.Version>
5.8.1

> <Gold.Id.Protein>
6NUR|6NUR_protein|mol2

> <Gold.PLP.Fitness>
38.4319

> <Gold.PLP.PLP>
-29.9879

> <Gold.PLP.part.hbond>
-1.0000

> <Gold.PLP.part.metal>
0.0000

> <Gold.PLP.part.buried>
-1.6738

> <Gold.PLP.part.nonpolar>
-26.9253

> <Gold.PLP.part.repulsive>
0.1335

> <Gold.PLP.ligand.clash>
0.0000

> <Gold.PLP.ligand.torsion>
0.1624

> <Gold.PLP.Chemscore.Hbond>
2.0000

> <Gold.PLP.Chemscore.CHOScore>
0.8984

> <Gold.PLP.Chemscore.Metal>
0.0000

> <Gold.Chemscore.Hbonds>
donor molecule, donor type, donor heavy atom, donor atom, acceptor molecule, acceptor atom, score
      L1  H     1    17       P1  8028  2.00
      L1  C     9    24       P1  8028  0.91

> <Gold.PLP.Chemscore.Internal.Correction>
0.0734

> <Gold.Rescore>
     Score         DG    S(hbond)    S(metal)    S(lipo)     H(rot)  DE(clash)    DE(int)     intcor
     15.10     -15.41       0.95        0.00      90.22       1.48       0.06       0.25       ----

> <Gold.Chemscore.Fitness>
15.0972

> <Gold.Chemscore.DG>
-15.4142

> <Gold.Chemscore.ZeroCoef>
-5.4800

> <Gold.Chemscore.Hbond>
0.9516

> <Gold.Chemscore.Metal>
0.0000

> <Gold.Chemscore.Lipo>
90.2247

> <Gold.Chemscore.Internal_Hbond>
0.0000

> <Gold.Chemscore.DEClash>
0.0640

> <Gold.Chemscore.DEInternal>
0.2530

> <Gold.Chemscore.Rot>
1.4846

> <Gold.Chemscore.Internal.Correction>
   9.000000E+99

> <Gold.Chemscore.Hbonds>
donor molecule, donor type, donor heavy atom, donor atom, acceptor molecule, acceptor atom, score
      L1  H     1    17       P1  8028  0.43

> <Gold.Chemscore.Hbond.Weighted>
-3.1784

> <Gold.Chemscore.Metal.Weighted>
-0.0000

> <Gold.Chemscore.Lipo.Weighted>
-10.5563

> <Gold.Chemscore.Internal_Hbond.Weighted>
0.0000

> <Gold.Chemscore.DEClash.Weighted>
0.0640

> <Gold.Chemscore.DEInternal.Weighted>
0.2530

> <Gold.Chemscore.Rot.Weighted>
3.8005

> <Gold.Chemscore.Internal.Correction.Weighted>
   9.000000E+99

> <Gold.Protein.RotatedTorsions>
[ 6907 6896 6895 6894 ] final  -48.72 input  -60.11 | X-H torsion
[ 7974 7965 7964 7962 ] final -112.13 input  175.53 | X-H torsion
[ 8008 7997 7996 7995 ] final   -1.68 input   59.86 | X-H torsion
[ 10167 10162 10161 10158 ] final   50.57 input  -65.29 | X-H torsion
[ 10718 10713 10712 10709 ] final  -17.54 input   66.30 | X-H torsion
[ 10763 10752 10751 10750 ] final  146.93 input  -60.55 | X-H torsion
[ 11005 11000 10999 10996 ] final   35.75 input  -57.11 | X-H torsion

> <Gold.Protein.ActiveResidues>
 VAL166  LYS551  ARG553  GLY616  TRP617  ASP618  TYR619  PRO620  LYS621  CYS622 
 ASP623  PHE694  ASN695  SER759  ASP760  ASP761  ALA762  ILE779  LEU786  VAL792 
 PHE793  MET794  SER795  GLU796  ALA797  LYS798  CYS799  TRP800  GLU811  SER814 

> <Gold.Protein.RotatedAtoms>
  150.8877  134.8277  159.7270 H   0  0  0  0  0  0  0  0  0  0  0  0  # atno 6907 bound_to 6896
  152.4818  134.4697  159.9641 H   0  0  0  0  0  0  0  0  0  0  0  0  # atno 6908 bound_to 6896
  151.4763  133.3518  159.2866 H   0  0  0  0  0  0  0  0  0  0  0  0  # atno 6909 bound_to 6896
  145.1477  140.8812  143.3665 H   0  0  0  0  0  0  0  0  0  0  0  0  # atno 7974 bound_to 7965
  154.6441  140.2553  155.7288 H   0  0  0  0  0  0  0  0  0  0  0  0  # atno 8008 bound_to 7997
  156.2543  140.2881  156.0767 H   0  0  0  0  0  0  0  0  0  0  0  0  # atno 8009 bound_to 7997
  155.1551  140.0383  157.2820 H   0  0  0  0  0  0  0  0  0  0  0  0  # atno 8010 bound_to 7997
  140.2710  144.3265  150.6290 H   0  0  0  0  0  0  0  0  0  0  0  0  # atno 10167 bound_to 10162
  156.5721  130.4752  149.6358 H   0  0  0  0  0  0  0  0  0  0  0  0  # atno 10718 bound_to 10713
  154.0301  135.2898  155.3369 H   0  0  0  0  0  0  0  0  0  0  0  0  # atno 10763 bound_to 10752
  154.6993  135.5195  153.8507 H   0  0  0  0  0  0  0  0  0  0  0  0  # atno 10764 bound_to 10752
  153.0644  135.6625  154.0514 H   0  0  0  0  0  0  0  0  0  0  0  0  # atno 10765 bound_to 10752
  140.2395  134.3432  155.7931 H   0  0  0  0  0  0  0  0  0  0  0  0  # atno 11005 bound_to 11000
  145.0464  139.3217  143.5950 LP  0  0  0  0  0  0  0  0  0  0  0  0  # atno 17320 bound_to 7965
  146.3498  139.9856  142.8691 LP  0  0  0  0  0  0  0  0  0  0  0  0  # atno 17321 bound_to 7965
  140.5889  143.2169  151.7290 LP  0  0  0  0  0  0  0  0  0  0  0  0  # atno 17342 bound_to 10162
  139.4989  144.3969  152.0222 LP  0  0  0  0  0  0  0  0  0  0  0  0  # atno 17343 bound_to 10162
  156.2706  130.7014  151.1811 LP  0  0  0  0  0  0  0  0  0  0  0  0  # atno 17370 bound_to 10713
  157.7346  131.0580  150.5516 LP  0  0  0  0  0  0  0  0  0  0  0  0  # atno 17371 bound_to 10713
  141.2211  133.7291  156.8862 LP  0  0  0  0  0  0  0  0  0  0  0  0  # atno 17394 bound_to 11000
  140.1668  134.9128  157.2783 LP  0  0  0  0  0  0  0  0  0  0  0  0  # atno 17395 bound_to 11000

$$$$
