AV-unprocessed.smi:651|AV-procd|sdf|3190|dock4
  -GOLD-   22720 0113D 1   1.00000     0.00000
 Structure written by MMmdl.
 39 40  0  0  0  0  0  0  0  0  2 V2000
  143.7237  132.1044  150.1970 C   0  0  0  0  0  0  0  0  0  0  0  0
  144.3416  133.3722  150.7479 C   0  0  0  0  0  0  0  0  0  0  0  0
  145.6612  133.4093  151.2467 C   0  0  0  0  0  0  0  0  0  0  0  0
  146.1768  134.6259  151.7401 C   0  0  0  0  0  0  0  0  0  0  0  0
  145.3638  135.7810  151.7244 C   0  0  0  0  0  0  0  0  0  0  0  0
  145.8941  137.1084  152.2424 C   0  0  0  0  0  0  0  0  0  0  0  0
  146.2468  137.0531  153.7339 C   0  0  0  0  0  0  0  0  0  0  0  0
  145.4025  136.7524  154.5792 O   0  0  0  0  0  0  0  0  0  0  0  0
  147.5206  137.3399  154.0413 N   0  0  0  0  0  0  0  0  0  0  0  0
  148.0830  137.3365  155.3935 C   0  0  2  0  0  0  0  0  0  0  0  0
  147.2714  138.2501  156.3329 C   0  0  0  0  0  0  0  0  0  0  0  0
  148.2824  139.0699  157.1431 C   0  0  0  0  0  0  0  0  0  0  0  0
  149.6406  138.4080  156.9012 C   0  0  0  0  0  0  0  0  0  0  0  0
  149.5624  137.8022  155.4918 C   0  0  2  0  0  0  0  0  0  0  0  0
  150.0033  138.8306  154.4275 C   0  0  0  0  0  0  0  0  0  0  0  0
  149.7357  138.5334  153.1534 N   0  0  0  0  0  0  0  0  0  0  0  0
  150.5663  139.8767  154.7458 O   0  0  0  0  0  0  0  0  0  0  0  0
  144.0513  135.6830  151.2137 C   0  0  0  0  0  0  0  0  0  0  0  0
  143.5948  134.4993  150.7495 N   0  3  0  0  0  0  0  0  0  0  0  0
  144.1711  131.2235  150.6584 H   0  0  0  0  0  0  0  0  0  0  0  0
  143.8819  132.0455  149.1200 H   0  0  0  0  0  0  0  0  0  0  0  0
  142.6505  132.0785  150.3893 H   0  0  0  0  0  0  0  0  0  0  0  0
  146.2731  132.5190  151.2500 H   0  0  0  0  0  0  0  0  0  0  0  0
  147.1865  134.6714  152.1219 H   0  0  0  0  0  0  0  0  0  0  0  0
  146.7818  137.3916  151.6749 H   0  0  0  0  0  0  0  0  0  0  0  0
  145.1497  137.8885  152.0766 H   0  0  0  0  0  0  0  0  0  0  0  0
  148.1531  137.5692  153.2880 H   0  0  0  0  0  0  0  0  0  0  0  0
  148.0226  136.3210  155.7902 H   0  0  0  0  0  0  0  0  0  0  0  0
  146.6069  138.9193  155.7842 H   0  0  0  0  0  0  0  0  0  0  0  0
  146.6446  137.6484  156.9920 H   0  0  0  0  0  0  0  0  0  0  0  0
  148.3006  140.0968  156.7762 H   0  0  0  0  0  0  0  0  0  0  0  0
  148.0287  139.1093  158.2028 H   0  0  0  0  0  0  0  0  0  0  0  0
  150.4653  139.1119  157.0251 H   0  0  0  0  0  0  0  0  0  0  0  0
  149.7916  137.6090  157.6282 H   0  0  0  0  0  0  0  0  0  0  0  0
  150.2242  136.9369  155.4240 H   0  0  0  0  0  0  0  0  0  0  0  0
  149.9941  139.1776  152.4200 H   0  0  0  0  0  0  0  0  0  0  0  0
  149.2656  137.6683  152.9290 H   0  0  0  0  0  0  0  0  0  0  0  0
  143.3594  136.5109  151.1570 H   0  0  0  0  0  0  0  0  0  0  0  0
  142.6441  134.4543  150.3824 H   0  0  0  0  0  0  0  0  0  0  0  0
  1  2  1  0  0  0  0
  1 20  1  0  0  0  0
  1 21  1  0  0  0  0
  1 22  1  0  0  0  0
  2 19  1  0  0  0  0
  2  3  2  0  0  0  0
  3  4  1  0  0  0  0
  3 23  1  0  0  0  0
  4  5  2  0  0  0  0
  4 24  1  0  0  0  0
  5  6  1  0  0  0  0
  5 18  1  0  0  0  0
  6  7  1  0  0  0  0
  6 25  1  0  0  0  0
  6 26  1  0  0  0  0
  7  8  2  0  0  0  0
  7  9  1  0  0  0  0
  9 10  1  0  0  0  0
  9 27  1  0  0  0  0
 10 14  1  0  0  0  0
 10 11  1  0  0  0  0
 10 28  1  0  0  0  0
 11 12  1  0  0  0  0
 11 29  1  0  0  0  0
 11 30  1  0  0  0  0
 12 13  1  0  0  0  0
 12 31  1  0  0  0  0
 12 32  1  0  0  0  0
 13 14  1  0  0  0  0
 13 33  1  0  0  0  0
 13 34  1  0  0  0  0
 14 15  1  0  0  0  0
 14 35  1  0  0  0  0
 15 16  1  0  0  0  0
 15 17  2  0  0  0  0
 16 36  1  0  0  0  0
 16 37  1  0  0  0  0
 18 19  2  0  0  0  0
 18 38  1  0  0  0  0
 19 39  1  0  0  0  0
M  CHG  1  19   1
M  END
> <s_m_source_file>
AV-unprocessed.smi

> <i_m_source_file_index>
651

> <i_lp_mmshare_version>
43012

> <i_f3d_flags>
0

> <s_epik_input>
W0NIM11jMVtjSF1bY0hdYyhbY0hdbjEpW0NIMl1DKD1PKVtOSF1bQ0BASF0yW0NIMl1bQ0gyXVtDSDJdW0NASF0yQyg9TylbTkgyXQ==

> <s_epik_cmdline>
J2VwaWtfcHl0aG9uJywgJy1waCcsICc3LjAnLCAnLXRuJywgJzgnLCAnLW1hJywgJzIwMCcsICctbWV0YWxfYmluZGluZycsICctaW1hZScsICc8aW5maWxlLm1hZT4nLCAnLW9tYWUnLCAnPG91dGZpbGUubWFlPic=

> <r_epik_Ionization_Penalty>
2.14971

> <r_epik_Ionization_Penalty_Charging>
2.14971

> <r_epik_Ionization_Penalty_Neutral>
1.65229e-07

> <r_epik_State_Penalty>
2.28946

> <r_epik_Charging_Adjusted_Penalty>
4.43917

> <i_epik_Tot_Q>
1

> <i_epik_Tot_abs_Q>
1

> <r_epik_Metal_State_Penalty>
2.30508

> <b_epik_Metal_Only>
0

> <s_lp_Force_Field>
OPLS_2005

> <r_lp_Energy>
19.6238

> <b_lp_Chiralities_Consistent>
1

> <s_lp_Variant>
AV-unprocessed.smi:651-7

> <Gold.Version>
5.8.1

> <Gold.Id.Protein>
6NUR|6NUR_protein|mol2

> <Gold.PLP.Fitness>
42.5055

> <Gold.PLP.PLP>
-26.8046

> <Gold.PLP.part.hbond>
-4.8891

> <Gold.PLP.part.metal>
0.0000

> <Gold.PLP.part.buried>
-2.7436

> <Gold.PLP.part.nonpolar>
-18.7410

> <Gold.PLP.part.repulsive>
0.2338

> <Gold.PLP.ligand.clash>
0.0000

> <Gold.PLP.ligand.torsion>
0.2493

> <Gold.PLP.Chemscore.Hbond>
5.3924

> <Gold.PLP.Chemscore.CHOScore>
0.0000

> <Gold.PLP.Chemscore.Metal>
0.0000

> <Gold.Chemscore.Hbonds>
donor molecule, donor type, donor heavy atom, donor atom, acceptor molecule, acceptor atom, score
      L1  H     9    27       P1  7948  0.44
      L1  H    16    36       P1  7957  1.00
      L1  H    16    37       P1  7948  1.00
      L1  H    19    39       P1 10186  2.00
      P1  H  7989  7998       L1    17  1.00

> <Gold.PLP.Chemscore.Internal.Correction>
0.0224

> <Gold.Rescore>
     Score         DG    S(hbond)    S(metal)    S(lipo)     H(rot)  DE(clash)    DE(int)     intcor
     16.86     -19.79       4.02        0.00      52.21       2.04       0.01       2.93       ----

> <Gold.Chemscore.Fitness>
16.8591

> <Gold.Chemscore.DG>
-19.7949

> <Gold.Chemscore.ZeroCoef>
-5.4800

> <Gold.Chemscore.Hbond>
4.0195

> <Gold.Chemscore.Metal>
0.0000

> <Gold.Chemscore.Lipo>
52.2082

> <Gold.Chemscore.Internal_Hbond>
0.0000

> <Gold.Chemscore.DEClash>
0.0082

> <Gold.Chemscore.DEInternal>
2.9276

> <Gold.Chemscore.Rot>
2.0386

> <Gold.Chemscore.Internal.Correction>
   9.000000E+99

> <Gold.Chemscore.Hbonds>
donor molecule, donor type, donor heavy atom, donor atom, acceptor molecule, acceptor atom, score
      L1  H     9    27       P1  7948  0.43
      L1  H    16    36       P1  7957  0.60
      L1  H    16    37       P1  7948  0.92
      L1  H    19    39       P1 10186  0.55
      P1  H  7989  7998       L1    17  0.99

> <Gold.Chemscore.Hbond.Weighted>
-13.4253

> <Gold.Chemscore.Metal.Weighted>
-0.0000

> <Gold.Chemscore.Lipo.Weighted>
-6.1084

> <Gold.Chemscore.Internal_Hbond.Weighted>
0.0000

> <Gold.Chemscore.DEClash.Weighted>
0.0082

> <Gold.Chemscore.DEInternal.Weighted>
2.9276

> <Gold.Chemscore.Rot.Weighted>
5.2188

> <Gold.Chemscore.Internal.Correction.Weighted>
   9.000000E+99

> <Gold.Protein.RotatedTorsions>
[ 6907 6896 6895 6894 ] final -144.34 input  -60.11 | X-H torsion
[ 7974 7965 7964 7962 ] final -107.80 input  175.53 | X-H torsion
[ 8008 7997 7996 7995 ] final  112.92 input   59.86 | X-H torsion
[ 10167 10162 10161 10158 ] final  151.98 input  -65.29 | X-H torsion
[ 10718 10713 10712 10709 ] final -141.68 input   66.30 | X-H torsion
[ 10763 10752 10751 10750 ] final -121.11 input  -60.55 | X-H torsion
[ 11005 11000 10999 10996 ] final   53.48 input  -57.11 | X-H torsion

> <Gold.Protein.ActiveResidues>
 VAL166  LYS551  ARG553  GLY616  TRP617  ASP618  TYR619  PRO620  LYS621  CYS622 
 ASP623  PHE694  ASN695  SER759  ASP760  ASP761  ALA762  ILE779  LEU786  VAL792 
 PHE793  MET794  SER795  GLU796  ALA797  LYS798  CYS799  TRP800  GLU811  SER814 

> <Gold.Protein.RotatedAtoms>
  151.1127  133.5161  159.2604 H   0  0  0  0  0  0  0  0  0  0  0  0  # atno 6907 bound_to 6896
  151.1949  135.0417  159.8858 H   0  0  0  0  0  0  0  0  0  0  0  0  # atno 6908 bound_to 6896
  152.5451  134.0963  159.8352 H   0  0  0  0  0  0  0  0  0  0  0  0  # atno 6909 bound_to 6896
  145.2008  140.9055  143.3370 H   0  0  0  0  0  0  0  0  0  0  0  0  # atno 7974 bound_to 7965
  156.2224  140.2990  155.9985 H   0  0  0  0  0  0  0  0  0  0  0  0  # atno 8008 bound_to 7997
  155.2446  140.0423  157.2996 H   0  0  0  0  0  0  0  0  0  0  0  0  # atno 8009 bound_to 7997
  154.5862  140.2389  155.7992 H   0  0  0  0  0  0  0  0  0  0  0  0  # atno 8010 bound_to 7997
  139.4836  144.5395  151.7588 H   0  0  0  0  0  0  0  0  0  0  0  0  # atno 10167 bound_to 10162
  156.3369  130.7616  151.1745 H   0  0  0  0  0  0  0  0  0  0  0  0  # atno 10718 bound_to 10713
  154.8660  135.4179  154.2568 H   0  0  0  0  0  0  0  0  0  0  0  0  # atno 10763 bound_to 10752
  153.3503  135.6998  153.6799 H   0  0  0  0  0  0  0  0  0  0  0  0  # atno 10764 bound_to 10752
  153.5742  135.3585  155.2822 H   0  0  0  0  0  0  0  0  0  0  0  0  # atno 10765 bound_to 10752
  140.0763  134.5399  155.8992 H   0  0  0  0  0  0  0  0  0  0  0  0  # atno 11005 bound_to 11000
  144.9949  139.3653  143.6196 LP  0  0  0  0  0  0  0  0  0  0  0  0  # atno 17320 bound_to 7965
  146.3418  139.9148  142.8775 LP  0  0  0  0  0  0  0  0  0  0  0  0  # atno 17321 bound_to 7965
  140.4933  144.1278  150.5955 LP  0  0  0  0  0  0  0  0  0  0  0  0  # atno 17342 bound_to 10162
  140.4146  143.2640  151.9790 LP  0  0  0  0  0  0  0  0  0  0  0  0  # atno 17343 bound_to 10162
  157.7440  131.0465  150.4899 LP  0  0  0  0  0  0  0  0  0  0  0  0  # atno 17370 bound_to 10713
  156.5073  130.4131  149.6320 LP  0  0  0  0  0  0  0  0  0  0  0  0  # atno 17371 bound_to 10713
  141.2031  133.6629  156.6042 LP  0  0  0  0  0  0  0  0  0  0  0  0  # atno 17394 bound_to 11000
  140.3552  134.7734  157.4495 LP  0  0  0  0  0  0  0  0  0  0  0  0  # atno 17395 bound_to 11000

$$$$
