AV-unprocessed.smi:59|AV-procd|sdf|587|dock2
  -GOLD-   2262016483D 1   1.00000     0.00000
 Structure written by MMmdl.
 29 30  0  0  0  0  0  0  0  0  2 V2000
  147.8285  141.7802  157.4525 C   0  0  0  0  0  0  0  0  0  0  0  0
  148.8540  141.2240  156.5756 N   0  0  0  0  0  0  0  0  0  0  0  0
  148.8071  141.1713  155.2369 C   0  0  0  0  0  0  0  0  0  0  0  0
  147.9041  141.6013  154.5188 O   0  0  0  0  0  0  0  0  0  0  0  0
  150.0627  140.5092  154.6956 C   0  0  2  0  0  0  0  0  0  0  0  0
  149.7806  139.6332  153.6203 O   0  0  0  0  0  0  0  0  0  0  0  0
  150.6065  139.7800  155.9402 C   0  0  1  0  0  0  0  0  0  0  0  0
  152.1284  139.5288  155.9221 C   0  0  0  0  0  0  0  0  0  0  0  0
  152.6694  139.0368  156.9374 O   0  0  0  0  0  0  0  0  0  0  0  0
  152.7324  139.8495  154.8749 O   0  5  0  0  0  0  0  0  0  0  0  0
  150.0453  140.5908  157.1405 C   0  0  1  0  0  0  0  0  0  0  0  0
  151.0033  141.6125  157.7238 C   0  0  0  0  0  0  0  0  0  0  0  0
  152.1679  141.3601  158.5049 C   0  0  0  0  0  0  0  0  0  0  0  0
  152.7966  142.4658  158.8695 N   0  0  0  0  0  0  0  0  0  0  0  0
  152.0643  143.4605  158.3294 N   0  0  0  0  0  0  0  0  0  0  0  0
  152.4745  144.8344  158.5238 C   0  0  0  0  0  0  0  0  0  0  0  0
  150.9772  142.9773  157.6349 C   0  0  0  0  0  0  0  0  0  0  0  0
  150.7328  141.3001  154.3553 H   0  0  0  0  0  0  0  0  0  0  0  0
  150.1356  138.7950  155.9702 H   0  0  0  0  0  0  0  0  0  0  0  0
  149.7260  139.8926  157.9156 H   0  0  0  0  0  0  0  0  0  0  0  0
  147.0429  142.2946  156.8977 H   0  0  0  0  0  0  0  0  0  0  0  0
  148.2698  142.4969  158.1456 H   0  0  0  0  0  0  0  0  0  0  0  0
  147.3641  140.9851  158.0360 H   0  0  0  0  0  0  0  0  0  0  0  0
  149.6655  140.1508  152.8382 H   0  0  0  0  0  0  0  0  0  0  0  0
  152.5714  140.4077  158.8152 H   0  0  0  0  0  0  0  0  0  0  0  0
  151.7532  145.5093  158.0620 H   0  0  0  0  0  0  0  0  0  0  0  0
  153.4521  144.9945  158.0682 H   0  0  0  0  0  0  0  0  0  0  0  0
  152.5347  145.0554  159.5900 H   0  0  0  0  0  0  0  0  0  0  0  0
  150.2815  143.6359  157.1362 H   0  0  0  0  0  0  0  0  0  0  0  0
  1  2  1  0  0  0  0
  1 21  1  0  0  0  0
  1 22  1  0  0  0  0
  1 23  1  0  0  0  0
  2 11  1  0  0  0  0
  2  3  1  0  0  0  0
  3  4  2  0  0  0  0
  3  5  1  0  0  0  0
  5 18  1  0  0  0  0
  5  6  1  0  0  0  0
  5  7  1  0  0  0  0
  6 24  1  0  0  0  0
  7 19  1  0  0  0  0
  7  8  1  0  0  0  0
  7 11  1  0  0  0  0
  8  9  2  0  0  0  0
  8 10  1  0  0  0  0
 11 20  1  0  0  0  0
 11 12  1  0  0  0  0
 12 17  2  0  0  0  0
 12 13  1  0  0  0  0
 13 14  2  0  0  0  0
 13 25  1  0  0  0  0
 14 15  1  0  0  0  0
 15 16  1  0  0  0  0
 15 17  1  0  0  0  0
 16 26  1  0  0  0  0
 16 27  1  0  0  0  0
 16 28  1  0  0  0  0
 17 29  1  0  0  0  0
M  CHG  1  10  -1
M  END
> <s_m_source_file>
AV-unprocessed.smi

> <i_m_source_file_index>
59

> <i_lp_mmshare_version>
43012

> <i_f3d_flags>
0

> <s_epik_input>
W0NIM11OMUMoPU8pW0NASF0oW09IXSlbQ0BIXShDKD1PKVtPSF0pW0NASF0xYzJbY0hdbm4oW0NIM10pW2NIXTI=

> <s_epik_cmdline>
J2VwaWtfcHl0aG9uJywgJy1waCcsICc3LjAnLCAnLXRuJywgJzgnLCAnLW1hJywgJzIwMCcsICctbWV0YWxfYmluZGluZycsICctaW1hZScsICc8aW5maWxlLm1hZT4nLCAnLW9tYWUnLCAnPG91dGZpbGUubWFlPic=

> <r_lp_tautomer_probability>
1

> <r_epik_Ionization_Penalty>
0.00173515

> <r_epik_Ionization_Penalty_Charging>
0.00120567

> <r_epik_Ionization_Penalty_Neutral>
0.000529476

> <r_epik_State_Penalty>
-0

> <r_epik_Charging_Adjusted_Penalty>
0.00120567

> <i_epik_Tot_Q>
-1

> <i_epik_Tot_abs_Q>
1

> <r_epik_Metal_State_Penalty>
-0

> <b_epik_Metal_Only>
0

> <s_lp_Force_Field>
OPLS_2005

> <r_lp_Energy>
8.21593

> <b_lp_Chiralities_Consistent>
1

> <s_lp_Variant>
AV-unprocessed.smi:59-3

> <Gold.Version>
5.8.1

> <Gold.Id.Protein>
6NUR|6NUR_protein|mol2

> <Gold.PLP.Fitness>
44.4370

> <Gold.PLP.PLP>
-32.1027

> <Gold.PLP.part.hbond>
-4.7454

> <Gold.PLP.part.metal>
0.0000

> <Gold.PLP.part.buried>
-1.7669

> <Gold.PLP.part.nonpolar>
-25.9526

> <Gold.PLP.part.repulsive>
0.1667

> <Gold.PLP.ligand.clash>
0.0000

> <Gold.PLP.ligand.torsion>
0.3070

> <Gold.PLP.Chemscore.Hbond>
3.3098

> <Gold.PLP.Chemscore.CHOScore>
1.0000

> <Gold.PLP.Chemscore.Metal>
0.0000

> <Gold.Chemscore.Hbonds>
donor molecule, donor type, donor heavy atom, donor atom, acceptor molecule, acceptor atom, score
      L1  H     6    24       P1  7957  0.85
      P1  H  7989  7998       L1    10  0.48
      P1  H  7997  8010       L1    10  1.67
      L1  C    17    29       P1  8028  1.00

> <Gold.PLP.Chemscore.Internal.Correction>
0.0189

> <Gold.Rescore>
     Score         DG    S(hbond)    S(metal)    S(lipo)     H(rot)  DE(clash)    DE(int)     intcor
     13.23     -13.75       2.07        0.00      56.86       2.06       0.15       0.36       ----

> <Gold.Chemscore.Fitness>
13.2333

> <Gold.Chemscore.DG>
-13.7481

> <Gold.Chemscore.ZeroCoef>
-5.4800

> <Gold.Chemscore.Hbond>
2.0657

> <Gold.Chemscore.Metal>
0.0000

> <Gold.Chemscore.Lipo>
56.8578

> <Gold.Chemscore.Internal_Hbond>
0.0000

> <Gold.Chemscore.DEClash>
0.1522

> <Gold.Chemscore.DEInternal>
0.3627

> <Gold.Chemscore.Rot>
2.0639

> <Gold.Chemscore.Internal.Correction>
   9.000000E+99

> <Gold.Chemscore.Hbonds>
donor molecule, donor type, donor heavy atom, donor atom, acceptor molecule, acceptor atom, score
      L1  H     6    24       P1  7957  0.85
      P1  H  7989  7998       L1    10  0.44
      P1  H  7997  8010       L1    10  0.18

> <Gold.Chemscore.Hbond.Weighted>
-6.8994

> <Gold.Chemscore.Metal.Weighted>
-0.0000

> <Gold.Chemscore.Lipo.Weighted>
-6.6524

> <Gold.Chemscore.Internal_Hbond.Weighted>
0.0000

> <Gold.Chemscore.DEClash.Weighted>
0.1522

> <Gold.Chemscore.DEInternal.Weighted>
0.3627

> <Gold.Chemscore.Rot.Weighted>
5.2837

> <Gold.Chemscore.Internal.Correction.Weighted>
   9.000000E+99

> <Gold.Protein.RotatedTorsions>
[ 6907 6896 6895 6894 ] final  166.03 input  -60.11 | X-H torsion
[ 7974 7965 7964 7962 ] final  106.57 input  175.53 | X-H torsion
[ 8008 7997 7996 7995 ] final  121.09 input   59.86 | X-H torsion
[ 10167 10162 10161 10158 ] final -108.83 input  -65.29 | X-H torsion
[ 10718 10713 10712 10709 ] final  148.90 input   66.30 | X-H torsion
[ 10763 10752 10751 10750 ] final  -68.47 input  -60.55 | X-H torsion
[ 11005 11000 10999 10996 ] final   34.38 input  -57.11 | X-H torsion

> <Gold.Protein.ActiveResidues>
 VAL166  LYS551  ARG553  GLY616  TRP617  ASP618  TYR619  PRO620  LYS621  CYS622 
 ASP623  PHE694  ASN695  SER759  ASP760  ASP761  ALA762  ILE779  LEU786  VAL792 
 PHE793  MET794  SER795  GLU796  ALA797  LYS798  CYS799  TRP800  GLU811  SER814 

> <Gold.Protein.RotatedAtoms>
  151.8852  133.3504  159.3779 H   0  0  0  0  0  0  0  0  0  0  0  0  # atno 6907 bound_to 6896
  150.7117  134.4978  159.5556 H   0  0  0  0  0  0  0  0  0  0  0  0  # atno 6908 bound_to 6896
  152.2538  134.8106  160.0492 H   0  0  0  0  0  0  0  0  0  0  0  0  # atno 6909 bound_to 6896
  145.3049  139.2558  143.3794 H   0  0  0  0  0  0  0  0  0  0  0  0  # atno 7974 bound_to 7965
  156.2671  140.2816  156.1253 H   0  0  0  0  0  0  0  0  0  0  0  0  # atno 8008 bound_to 7997
  155.1112  140.0391  157.2742 H   0  0  0  0  0  0  0  0  0  0  0  0  # atno 8009 bound_to 7997
  154.6741  140.2594  155.6982 H   0  0  0  0  0  0  0  0  0  0  0  0  # atno 8010 bound_to 7997
  140.1619  143.4113  152.1419 H   0  0  0  0  0  0  0  0  0  0  0  0  # atno 10167 bound_to 10162
  157.3028  131.0874  151.1377 H   0  0  0  0  0  0  0  0  0  0  0  0  # atno 10718 bound_to 10713
  154.3895  135.6056  153.5835 H   0  0  0  0  0  0  0  0  0  0  0  0  # atno 10763 bound_to 10752
  152.9787  135.5880  154.4315 H   0  0  0  0  0  0  0  0  0  0  0  0  # atno 10764 bound_to 10752
  154.4096  135.2844  155.2023 H   0  0  0  0  0  0  0  0  0  0  0  0  # atno 10765 bound_to 10752
  140.2535  134.3276  155.7882 H   0  0  0  0  0  0  0  0  0  0  0  0  # atno 11005 bound_to 11000
  146.3139  140.3572  142.8661 LP  0  0  0  0  0  0  0  0  0  0  0  0  # atno 17320 bound_to 7965
  144.9063  140.7703  143.5835 LP  0  0  0  0  0  0  0  0  0  0  0  0  # atno 17321 bound_to 7965
  139.5377  144.7226  151.4837 LP  0  0  0  0  0  0  0  0  0  0  0  0  # atno 17342 bound_to 10162
  140.6637  143.8443  150.6917 LP  0  0  0  0  0  0  0  0  0  0  0  0  # atno 17343 bound_to 10162
  157.2729  130.6713  149.6028 LP  0  0  0  0  0  0  0  0  0  0  0  0  # atno 17370 bound_to 10713
  155.9672  130.4473  150.5576 LP  0  0  0  0  0  0  0  0  0  0  0  0  # atno 17371 bound_to 10713
  141.2199  133.7367  156.9074 LP  0  0  0  0  0  0  0  0  0  0  0  0  # atno 17394 bound_to 11000
  140.1535  134.9214  157.2623 LP  0  0  0  0  0  0  0  0  0  0  0  0  # atno 17395 bound_to 11000

$$$$
