AV-unprocessed.smi:2489|AV-procd|sdf|9803|dock2
  -GOLD-   2272013433D 1   1.00000     0.00000
 Structure written by MMmdl.
 34 35  0  0  0  0  0  0  0  0  2 V2000
  153.6092  141.0103  160.3204 C   0  0  0  0  0  0  0  0  0  0  0  0
  153.3275  142.3986  160.4226 O   0  0  0  0  0  0  0  0  0  0  0  0
  152.5124  142.9680  159.4682 C   0  0  0  0  0  0  0  0  0  0  0  0
  152.2850  144.3566  159.5588 C   0  0  0  0  0  0  0  0  0  0  0  0
  151.4533  144.9897  158.6165 C   0  0  0  0  0  0  0  0  0  0  0  0
  150.8848  144.2658  157.6298 N   0  3  0  0  0  0  0  0  0  0  0  0
  151.0724  142.9356  157.4772 C   0  0  0  0  0  0  0  0  0  0  0  0
  150.3935  142.3090  156.3979 N   0  0  0  0  0  0  0  0  0  0  0  0
  150.6146  141.0979  155.8527 C   0  0  0  0  0  0  0  0  0  0  0  0
  151.4818  140.3108  156.2324 O   0  0  0  0  0  0  0  0  0  0  0  0
  149.6977  140.7126  154.6837 C   0  0  2  0  0  0  0  0  0  0  0  0
  148.5707  141.7131  154.4035 C   0  0  0  0  0  0  0  0  0  0  0  0
  147.5069  140.8190  153.8081 C   0  0  0  0  0  0  0  0  0  0  0  0
  147.6565  139.5563  154.6528 C   0  0  1  0  0  0  0  0  0  0  0  0
  147.1801  138.2772  153.9564 C   0  0  0  0  0  0  0  0  0  0  0  0
  149.0457  139.4709  154.9604 O   0  0  0  0  0  0  0  0  0  0  0  0
  151.8893  142.2510  158.4133 C   0  0  0  0  0  0  0  0  0  0  0  0
  154.2741  140.7175  161.1328 H   0  0  0  0  0  0  0  0  0  0  0  0
  154.1115  140.7727  159.3817 H   0  0  0  0  0  0  0  0  0  0  0  0
  152.7012  140.4119  160.4065 H   0  0  0  0  0  0  0  0  0  0  0  0
  152.7425  144.9319  160.3504 H   0  0  0  0  0  0  0  0  0  0  0  0
  151.2273  146.0461  158.6224 H   0  0  0  0  0  0  0  0  0  0  0  0
  149.6998  142.8752  155.9309 H   0  0  0  0  0  0  0  0  0  0  0  0
  150.3020  140.5788  153.7853 H   0  0  0  0  0  0  0  0  0  0  0  0
  148.2005  142.1686  155.3238 H   0  0  0  0  0  0  0  0  0  0  0  0
  148.8738  142.5109  153.7247 H   0  0  0  0  0  0  0  0  0  0  0  0
  146.5066  141.2503  153.8591 H   0  0  0  0  0  0  0  0  0  0  0  0
  147.7378  140.6133  152.7618 H   0  0  0  0  0  0  0  0  0  0  0  0
  147.1189  139.6893  155.5929 H   0  0  0  0  0  0  0  0  0  0  0  0
  146.1226  138.3424  153.6993 H   0  0  0  0  0  0  0  0  0  0  0  0
  147.3126  137.4095  154.6029 H   0  0  0  0  0  0  0  0  0  0  0  0
  147.7382  138.0959  153.0374 H   0  0  0  0  0  0  0  0  0  0  0  0
  152.0243  141.1851  158.3306 H   0  0  0  0  0  0  0  0  0  0  0  0
  150.2867  144.7527  156.9617 H   0  0  0  0  0  0  0  0  0  0  0  0
  1  2  1  0  0  0  0
  1 18  1  0  0  0  0
  1 19  1  0  0  0  0
  1 20  1  0  0  0  0
  2  3  1  0  0  0  0
  3 17  1  0  0  0  0
  3  4  2  0  0  0  0
  4  5  1  0  0  0  0
  4 21  1  0  0  0  0
  5  6  2  0  0  0  0
  5 22  1  0  0  0  0
  6  7  1  0  0  0  0
  6 34  1  0  0  0  0
  7  8  1  0  0  0  0
  7 17  2  0  0  0  0
  8  9  1  0  0  0  0
  8 23  1  0  0  0  0
  9 10  2  0  0  0  0
  9 11  1  0  0  0  0
 11 16  1  0  0  0  0
 11 12  1  0  0  0  0
 11 24  1  0  0  0  0
 12 13  1  0  0  0  0
 12 25  1  0  0  0  0
 12 26  1  0  0  0  0
 13 14  1  0  0  0  0
 13 27  1  0  0  0  0
 13 28  1  0  0  0  0
 14 15  1  0  0  0  0
 14 16  1  0  0  0  0
 14 29  1  0  0  0  0
 15 30  1  0  0  0  0
 15 31  1  0  0  0  0
 15 32  1  0  0  0  0
 17 33  1  0  0  0  0
M  CHG  1   6   1
M  END
> <s_m_source_file>
AV-unprocessed.smi

> <i_m_source_file_index>
2489

> <i_lp_mmshare_version>
43012

> <i_f3d_flags>
0

> <s_epik_input>
W0NIM11PYzFbY0hdW2NIXW5jKFtjSF0xKVtOSF1DKD1PKVtDQEBIXTJbQ0gyXVtDSDJdW0NASF0oTzIpW0NIM10=

> <s_epik_cmdline>
J2VwaWtfcHl0aG9uJywgJy1waCcsICc3LjAnLCAnLXRuJywgJzgnLCAnLW1hJywgJzIwMCcsICctbWV0YWxfYmluZGluZycsICctaW1hZScsICc8aW5maWxlLm1hZT4nLCAnLW9tYWUnLCAnPG91dGZpbGUubWFlPic=

> <r_epik_Ionization_Penalty>
1.58956

> <r_epik_Ionization_Penalty_Charging>
1.1784

> <r_epik_Ionization_Penalty_Neutral>
0.411158

> <r_epik_State_Penalty>
1.31089

> <r_epik_Charging_Adjusted_Penalty>
2.48928

> <i_epik_Tot_Q>
1

> <i_epik_Tot_abs_Q>
1

> <r_epik_Metal_State_Penalty>
5.00213

> <b_epik_Metal_Only>
0

> <s_lp_Force_Field>
OPLS_2005

> <r_lp_Energy>
32.4976

> <b_lp_Chiralities_Consistent>
1

> <s_lp_Variant>
AV-unprocessed.smi:2489-9

> <Gold.Version>
5.8.1

> <Gold.Id.Protein>
6NUR|6NUR_protein|mol2

> <Gold.PLP.Fitness>
45.7228

> <Gold.PLP.PLP>
-37.1111

> <Gold.PLP.part.hbond>
-2.0000

> <Gold.PLP.part.metal>
0.0000

> <Gold.PLP.part.buried>
-4.9689

> <Gold.PLP.part.nonpolar>
-30.7110

> <Gold.PLP.part.repulsive>
0.1995

> <Gold.PLP.ligand.clash>
0.0000

> <Gold.PLP.ligand.torsion>
0.1238

> <Gold.PLP.Chemscore.Hbond>
2.9516

> <Gold.PLP.Chemscore.CHOScore>
0.0000

> <Gold.PLP.Chemscore.Metal>
0.0000

> <Gold.Chemscore.Hbonds>
donor molecule, donor type, donor heavy atom, donor atom, acceptor molecule, acceptor atom, score
      L1  H     6    34       P1  8028  2.00
      L1  H     8    23       P1  8028  0.95

> <Gold.PLP.Chemscore.Internal.Correction>
0.0045

> <Gold.Rescore>
     Score         DG    S(hbond)    S(metal)    S(lipo)     H(rot)  DE(clash)    DE(int)     intcor
     16.51     -17.81       1.64        0.00      85.85       1.24       0.03       1.28       ----

> <Gold.Chemscore.Fitness>
16.5061

> <Gold.Chemscore.DG>
-17.8136

> <Gold.Chemscore.ZeroCoef>
-5.4800

> <Gold.Chemscore.Hbond>
1.6366

> <Gold.Chemscore.Metal>
0.0000

> <Gold.Chemscore.Lipo>
85.8478

> <Gold.Chemscore.Internal_Hbond>
0.0000

> <Gold.Chemscore.DEClash>
0.0322

> <Gold.Chemscore.DEInternal>
1.2753

> <Gold.Chemscore.Rot>
1.2409

> <Gold.Chemscore.Internal.Correction>
   9.000000E+99

> <Gold.Chemscore.Hbonds>
donor molecule, donor type, donor heavy atom, donor atom, acceptor molecule, acceptor atom, score
      L1  H     6    34       P1  8028  0.53
      L1  H     8    23       P1  8028  0.85

> <Gold.Chemscore.Hbond.Weighted>
-5.4661

> <Gold.Chemscore.Metal.Weighted>
-0.0000

> <Gold.Chemscore.Lipo.Weighted>
-10.0442

> <Gold.Chemscore.Internal_Hbond.Weighted>
0.0000

> <Gold.Chemscore.DEClash.Weighted>
0.0322

> <Gold.Chemscore.DEInternal.Weighted>
1.2753

> <Gold.Chemscore.Rot.Weighted>
3.1767

> <Gold.Chemscore.Internal.Correction.Weighted>
   9.000000E+99

> <Gold.Protein.RotatedTorsions>
[ 6907 6896 6895 6894 ] final -104.21 input  -60.11 | X-H torsion
[ 7974 7965 7964 7962 ] final  -27.48 input  175.53 | X-H torsion
[ 8008 7997 7996 7995 ] final -129.38 input   59.86 | X-H torsion
[ 10167 10162 10161 10158 ] final   -9.34 input  -65.29 | X-H torsion
[ 10718 10713 10712 10709 ] final  118.15 input   66.30 | X-H torsion
[ 10763 10752 10751 10750 ] final   20.72 input  -60.55 | X-H torsion
[ 11005 11000 10999 10996 ] final  -67.01 input  -57.11 | X-H torsion

> <Gold.Protein.ActiveResidues>
 VAL166  LYS551  ARG553  GLY616  TRP617  ASP618  TYR619  PRO620  LYS621  CYS622 
 ASP623  PHE694  ASN695  SER759  ASP760  ASP761  ALA762  ILE779  LEU786  VAL792 
 PHE793  MET794  SER795  GLU796  ALA797  LYS798  CYS799  TRP800  GLU811  SER814 

> <Gold.Protein.RotatedAtoms>
  150.7276  134.0311  159.3733 H   0  0  0  0  0  0  0  0  0  0  0  0  # atno 6907 bound_to 6896
  151.8281  135.0628  160.0443 H   0  0  0  0  0  0  0  0  0  0  0  0  # atno 6908 bound_to 6896
  152.2954  133.5566  159.5620 H   0  0  0  0  0  0  0  0  0  0  0  0  # atno 6909 bound_to 6896
  146.1355  140.5157  142.8675 H   0  0  0  0  0  0  0  0  0  0  0  0  # atno 7974 bound_to 7965
  155.2783  140.0443  157.3013 H   0  0  0  0  0  0  0  0  0  0  0  0  # atno 8008 bound_to 7997
  154.5612  140.2346  155.8301 H   0  0  0  0  0  0  0  0  0  0  0  0  # atno 8009 bound_to 7997
  156.2049  140.3015  155.9612 H   0  0  0  0  0  0  0  0  0  0  0  0  # atno 8010 bound_to 7997
  140.7084  143.5868  150.8934 H   0  0  0  0  0  0  0  0  0  0  0  0  # atno 10167 bound_to 10162
  157.6050  131.1045  150.7715 H   0  0  0  0  0  0  0  0  0  0  0  0  # atno 10718 bound_to 10713
  153.1054  135.6683  153.9597 H   0  0  0  0  0  0  0  0  0  0  0  0  # atno 10763 bound_to 10752
  153.9156  135.3020  155.3449 H   0  0  0  0  0  0  0  0  0  0  0  0  # atno 10764 bound_to 10752
  154.7475  135.5051  153.9305 H   0  0  0  0  0  0  0  0  0  0  0  0  # atno 10765 bound_to 10752
  141.1497  133.6710  156.6227 H   0  0  0  0  0  0  0  0  0  0  0  0  # atno 11005 bound_to 11000
  144.7735  140.5689  143.6654 LP  0  0  0  0  0  0  0  0  0  0  0  0  # atno 17320 bound_to 7965
  145.5165  139.1478  143.3576 LP  0  0  0  0  0  0  0  0  0  0  0  0  # atno 17321 bound_to 7965
  139.9594  143.6181  152.3006 LP  0  0  0  0  0  0  0  0  0  0  0  0  # atno 17342 bound_to 10162
  139.6728  144.7660  151.1751 LP  0  0  0  0  0  0  0  0  0  0  0  0  # atno 17343 bound_to 10162
  156.8105  130.4951  149.5356 LP  0  0  0  0  0  0  0  0  0  0  0  0  # atno 17370 bound_to 10713
  156.1133  130.6056  151.0082 LP  0  0  0  0  0  0  0  0  0  0  0  0  # atno 17371 bound_to 10713
  140.3528  134.7754  157.4479 LP  0  0  0  0  0  0  0  0  0  0  0  0  # atno 17394 bound_to 11000
  140.0847  134.5683  155.8504 LP  0  0  0  0  0  0  0  0  0  0  0  0  # atno 17395 bound_to 11000

$$$$
