AV-unprocessed.smi:765|AV-procd|sdf|3646|dock8
  -GOLD-   22720 1 53D 1   1.00000     0.00000
 Structure written by MMmdl.
 39 40  0  0  0  0  0  0  0  0  1 V2000
  151.5795  141.2206  158.3457 C   0  0  0  0  0  0  0  0  0  0  0  0
  150.9043  140.1025  157.5388 C   0  0  1  0  0  0  0  0  0  0  0  0
  150.7872  140.4770  156.0501 C   0  0  0  0  0  0  0  0  0  0  0  0
  150.1414  139.3510  155.2303 C   0  0  0  0  0  0  0  0  0  0  0  0
  150.9096  138.0300  155.4087 C   0  0  0  0  0  0  0  0  0  0  0  0
  151.0198  137.6060  156.8945 C   0  0  2  0  0  0  0  0  0  0  0  0
  151.8875  136.4190  157.0143 C   0  0  0  0  0  0  0  0  0  0  0  0
  152.5673  135.4876  157.1096 N   0  0  0  0  0  0  0  0  0  0  0  0
  149.6933  137.3332  157.4541 N   0  0  0  0  0  0  0  0  0  0  0  0
  149.3995  136.9524  158.7084 C   0  0  0  0  0  0  0  0  0  0  0  0
  150.2381  136.8701  159.6060 O   0  0  0  0  0  0  0  0  0  0  0  0
  147.9307  136.5801  158.9612 C   0  0  2  0  0  0  0  0  0  0  0  0
  146.9434  137.6876  158.5464 C   0  0  0  0  0  0  0  0  0  0  0  0
  147.7509  136.2116  160.3603 N   0  0  0  0  0  0  0  0  0  0  0  0
  147.4339  134.9785  160.8971 C   0  0  0  0  0  0  0  0  0  0  0  0
  147.3393  135.1328  162.2501 C   0  0  0  0  0  0  0  0  0  0  0  0
  147.6176  136.5131  162.4521 C   0  0  0  0  0  0  0  0  0  0  0  0
  147.8597  137.1559  161.3210 N   0  0  0  0  0  0  0  0  0  0  0  0
  151.6538  138.7616  157.7017 C   0  0  0  0  0  0  0  0  0  0  0  0
  152.6000  141.3965  158.0034 H   0  0  0  0  0  0  0  0  0  0  0  0
  151.6232  140.9684  159.4056 H   0  0  0  0  0  0  0  0  0  0  0  0
  151.0314  142.1584  158.2531 H   0  0  0  0  0  0  0  0  0  0  0  0
  149.8948  139.9839  157.9350 H   0  0  0  0  0  0  0  0  0  0  0  0
  150.2008  141.3901  155.9400 H   0  0  0  0  0  0  0  0  0  0  0  0
  151.7765  140.6961  155.6465 H   0  0  0  0  0  0  0  0  0  0  0  0
  149.1017  139.2234  155.5335 H   0  0  0  0  0  0  0  0  0  0  0  0
  150.1201  139.6271  154.1759 H   0  0  0  0  0  0  0  0  0  0  0  0
  150.4371  137.2469  154.8153 H   0  0  0  0  0  0  0  0  0  0  0  0
  151.9120  138.1474  154.9947 H   0  0  0  0  0  0  0  0  0  0  0  0
  148.9250  137.3740  156.8001 H   0  0  0  0  0  0  0  0  0  0  0  0
  147.7139  135.7031  158.3480 H   0  0  0  0  0  0  0  0  0  0  0  0
  147.0470  137.9326  157.4887 H   0  0  0  0  0  0  0  0  0  0  0  0
  147.0968  138.6041  159.1174 H   0  0  0  0  0  0  0  0  0  0  0  0
  145.9134  137.3682  158.7072 H   0  0  0  0  0  0  0  0  0  0  0  0
  147.2971  134.1049  160.2764 H   0  0  0  0  0  0  0  0  0  0  0  0
  147.1048  134.3756  162.9834 H   0  0  0  0  0  0  0  0  0  0  0  0
  147.6477  137.0640  163.3806 H   0  0  0  0  0  0  0  0  0  0  0  0
  152.6891  138.8928  157.3829 H   0  0  0  0  0  0  0  0  0  0  0  0
  151.6987  138.4908  158.7577 H   0  0  0  0  0  0  0  0  0  0  0  0
  1  2  1  0  0  0  0
  1 20  1  0  0  0  0
  1 21  1  0  0  0  0
  1 22  1  0  0  0  0
  2 19  1  0  0  0  0
  2  3  1  0  0  0  0
  2 23  1  0  0  0  0
  3  4  1  0  0  0  0
  3 24  1  0  0  0  0
  3 25  1  0  0  0  0
  4  5  1  0  0  0  0
  4 26  1  0  0  0  0
  4 27  1  0  0  0  0
  5  6  1  0  0  0  0
  5 28  1  0  0  0  0
  5 29  1  0  0  0  0
  6  7  1  0  0  0  0
  6  9  1  0  0  0  0
  6 19  1  0  0  0  0
  7  8  3  0  0  0  0
  9 10  1  0  0  0  0
  9 30  1  0  0  0  0
 10 11  2  0  0  0  0
 10 12  1  0  0  0  0
 12 13  1  0  0  0  0
 12 14  1  0  0  0  0
 12 31  1  0  0  0  0
 13 32  1  0  0  0  0
 13 33  1  0  0  0  0
 13 34  1  0  0  0  0
 14 18  1  0  0  0  0
 14 15  1  0  0  0  0
 15 16  2  0  0  0  0
 15 35  1  0  0  0  0
 16 17  1  0  0  0  0
 16 36  1  0  0  0  0
 17 18  2  0  0  0  0
 17 37  1  0  0  0  0
 19 38  1  0  0  0  0
 19 39  1  0  0  0  0
M  END
> <s_m_source_file>
AV-unprocessed.smi

> <i_m_source_file_index>
765

> <i_lp_mmshare_version>
43012

> <i_f3d_flags>
0

> <s_epik_input>
W0NIM11bQ0BASF0oW0NIMl0xKVtDSDJdW0NIMl1bQ0gyXVtDQEBdMShDI04pW05IXUMoPU8pW0NASF0oW0NIM10pbjJbY0hdW2NIXVtjSF1uMg==

> <s_epik_cmdline>
J2VwaWtfcHl0aG9uJywgJy1waCcsICc3LjAnLCAnLXRuJywgJzgnLCAnLW1hJywgJzIwMCcsICctbWV0YWxfYmluZGluZycsICctaW1hZScsICc8aW5maWxlLm1hZT4nLCAnLW9tYWUnLCAnPG91dGZpbGUubWFlPic=

> <r_lp_tautomer_probability>
1

> <r_epik_Ionization_Penalty>
2.71142e-05

> <r_epik_Ionization_Penalty_Charging>
0

> <r_epik_Ionization_Penalty_Neutral>
2.71142e-05

> <r_epik_State_Penalty>
-0

> <r_epik_Charging_Adjusted_Penalty>
0

> <i_epik_Tot_Q>
0

> <i_epik_Tot_abs_Q>
0

> <r_epik_Metal_State_Penalty>
-0

> <b_epik_Metal_Only>
0

> <s_lp_Force_Field>
OPLS_2005

> <r_lp_Energy>
10.6921

> <b_lp_Chiralities_Consistent>
1

> <s_lp_Variant>
AV-unprocessed.smi:765-4

> <Gold.Version>
5.8.1

> <Gold.Id.Protein>
6NUR|6NUR_protein|mol2

> <Gold.PLP.Fitness>
41.9290

> <Gold.PLP.PLP>
-30.9717

> <Gold.PLP.part.hbond>
-4.2156

> <Gold.PLP.part.metal>
0.0000

> <Gold.PLP.part.buried>
-4.3716

> <Gold.PLP.part.nonpolar>
-22.3407

> <Gold.PLP.part.repulsive>
0.0317

> <Gold.PLP.ligand.clash>
0.0000

> <Gold.PLP.ligand.torsion>
0.1094

> <Gold.PLP.Chemscore.Hbond>
3.7020

> <Gold.PLP.Chemscore.CHOScore>
0.0000

> <Gold.PLP.Chemscore.Metal>
0.0000

> <Gold.Chemscore.Hbonds>
donor molecule, donor type, donor heavy atom, donor atom, acceptor molecule, acceptor atom, score
      P1  H  6896  6909       L1    11  1.00
      P1  H  6931  6943       L1    18  0.90
      P1  H  6934  6947       L1    18  0.75
      P1  H 10752 10764       L1     8  1.00

> <Gold.PLP.Chemscore.Internal.Correction>
0.0702

> <Gold.Rescore>
     Score         DG    S(hbond)    S(metal)    S(lipo)     H(rot)  DE(clash)    DE(int)     intcor
     18.61     -20.08       3.21        0.00      64.08       1.42       0.00       1.47       ----

> <Gold.Chemscore.Fitness>
18.6066

> <Gold.Chemscore.DG>
-20.0848

> <Gold.Chemscore.ZeroCoef>
-5.4800

> <Gold.Chemscore.Hbond>
3.2150

> <Gold.Chemscore.Metal>
0.0000

> <Gold.Chemscore.Lipo>
64.0823

> <Gold.Chemscore.Internal_Hbond>
0.0000

> <Gold.Chemscore.DEClash>
0.0048

> <Gold.Chemscore.DEInternal>
1.4734

> <Gold.Chemscore.Rot>
1.4183

> <Gold.Chemscore.Internal.Correction>
   9.000000E+99

> <Gold.Chemscore.Hbonds>
donor molecule, donor type, donor heavy atom, donor atom, acceptor molecule, acceptor atom, score
      P1  H  6896  6909       L1    11  0.77
      P1  H  6931  6943       L1    18  0.17
      P1  H  6934  6947       L1    18  0.69
      P1  H 10752 10764       L1     8  0.28

> <Gold.Chemscore.Hbond.Weighted>
-10.7381

> <Gold.Chemscore.Metal.Weighted>
-0.0000

> <Gold.Chemscore.Lipo.Weighted>
-7.4976

> <Gold.Chemscore.Internal_Hbond.Weighted>
0.0000

> <Gold.Chemscore.DEClash.Weighted>
0.0048

> <Gold.Chemscore.DEInternal.Weighted>
1.4734

> <Gold.Chemscore.Rot.Weighted>
3.6309

> <Gold.Chemscore.Internal.Correction.Weighted>
   9.000000E+99

> <Gold.Protein.RotatedTorsions>
[ 6907 6896 6895 6894 ] final   80.08 input  -60.11 | X-H torsion
[ 7974 7965 7964 7962 ] final   18.77 input  175.53 | X-H torsion
[ 8008 7997 7996 7995 ] final   41.79 input   59.86 | X-H torsion
[ 10167 10162 10161 10158 ] final  104.71 input  -65.29 | X-H torsion
[ 10718 10713 10712 10709 ] final  -81.72 input   66.30 | X-H torsion
[ 10763 10752 10751 10750 ] final  -14.80 input  -60.55 | X-H torsion
[ 11005 11000 10999 10996 ] final -106.98 input  -57.11 | X-H torsion

> <Gold.Protein.ActiveResidues>
 VAL166  LYS551  ARG553  GLY616  TRP617  ASP618  TYR619  PRO620  LYS621  CYS622 
 ASP623  PHE694  ASN695  SER759  ASP760  ASP761  ALA762  ILE779  LEU786  VAL792 
 PHE793  MET794  SER795  GLU796  ALA797  LYS798  CYS799  TRP800  GLU811  SER814 

> <Gold.Protein.RotatedAtoms>
  152.5222  134.3413  159.9217 H   0  0  0  0  0  0  0  0  0  0  0  0  # atno 6907 bound_to 6896
  151.3363  133.3974  159.2675 H   0  0  0  0  0  0  0  0  0  0  0  0  # atno 6908 bound_to 6896
  150.9839  134.9207  159.7918 H   0  0  0  0  0  0  0  0  0  0  0  0  # atno 6909 bound_to 6896
  146.2173  139.8409  142.8641 H   0  0  0  0  0  0  0  0  0  0  0  0  # atno 7974 bound_to 7965
  155.2755  140.3369  155.4262 H   0  0  0  0  0  0  0  0  0  0  0  0  # atno 8008 bound_to 7997
  156.2113  140.1771  156.7729 H   0  0  0  0  0  0  0  0  0  0  0  0  # atno 8009 bound_to 7997
  154.5691  140.0673  156.8921 H   0  0  0  0  0  0  0  0  0  0  0  0  # atno 8010 bound_to 7997
  139.7154  144.7069  151.0959 H   0  0  0  0  0  0  0  0  0  0  0  0  # atno 10167 bound_to 10162
  156.0045  130.4612  150.3996 H   0  0  0  0  0  0  0  0  0  0  0  0  # atno 10718 bound_to 10713
  153.5337  135.7014  153.5670 H   0  0  0  0  0  0  0  0  0  0  0  0  # atno 10763 bound_to 10752
  153.3666  135.3955  155.1758 H   0  0  0  0  0  0  0  0  0  0  0  0  # atno 10764 bound_to 10752
  154.8682  135.3802  154.4836 H   0  0  0  0  0  0  0  0  0  0  0  0  # atno 10765 bound_to 10752
  141.0977  133.8941  157.1921 H   0  0  0  0  0  0  0  0  0  0  0  0  # atno 11005 bound_to 11000
  145.2900  141.0164  143.3668 LP  0  0  0  0  0  0  0  0  0  0  0  0  # atno 17320 bound_to 7965
  144.9085  139.4559  143.6598 LP  0  0  0  0  0  0  0  0  0  0  0  0  # atno 17321 bound_to 7965
  140.7742  143.5237  150.9506 LP  0  0  0  0  0  0  0  0  0  0  0  0  # atno 17342 bound_to 10162
  139.8922  143.6938  152.3143 LP  0  0  0  0  0  0  0  0  0  0  0  0  # atno 17343 bound_to 10162
  157.2065  131.0450  151.2622 LP  0  0  0  0  0  0  0  0  0  0  0  0  # atno 17370 bound_to 10713
  157.3927  130.7291  149.6709 LP  0  0  0  0  0  0  0  0  0  0  0  0  # atno 17371 bound_to 10713
  139.9819  135.0095  156.9769 LP  0  0  0  0  0  0  0  0  0  0  0  0  # atno 17394 bound_to 11000
  140.5099  134.1013  155.7268 LP  0  0  0  0  0  0  0  0  0  0  0  0  # atno 17395 bound_to 11000

$$$$
