AV-unprocessed.smi:1239|AV-procd|sdf|5192|dock5
  -GOLD-   22720 4273D 1   1.00000     0.00000
 Structure written by MMmdl.
 48 49  0  0  0  0  0  0  0  0  2 V2000
  149.6699  134.7121  156.7695 C   0  0  0  0  0  0  0  0  0  0  0  0
  149.3555  135.7148  155.6312 C   0  0  1  0  0  0  0  0  0  0  0  0
  150.6372  136.4962  155.2368 C   0  0  0  0  0  0  0  0  0  0  0  0
  151.2761  137.1361  156.3816 N   0  0  0  0  0  0  0  0  0  0  0  0
  151.1959  138.4443  156.6578 C   0  0  0  0  0  0  0  0  0  0  0  0
  150.5691  139.2400  155.9596 O   0  0  0  0  0  0  0  0  0  0  0  0
  151.8779  138.7441  157.7770 N   0  0  0  0  0  0  0  0  0  0  0  0
  152.0421  139.9967  158.4314 C   0  0  0  0  0  0  0  0  0  0  0  0
  152.8607  140.2250  159.5624 C   0  0  0  0  0  0  0  0  0  0  0  0
  152.9270  141.5210  160.1090 C   0  0  0  0  0  0  0  0  0  0  0  0
  152.1748  142.5660  159.5178 C   0  0  0  0  0  0  0  0  0  0  0  0
  152.2105  143.8829  160.0306 N   0  0  0  0  0  0  0  0  0  0  0  0
  152.1891  145.0196  159.1155 C   0  0  0  0  0  0  0  0  0  0  0  0
  152.2372  144.1089  161.4706 C   0  0  0  0  0  0  0  0  0  0  0  0
  151.3910  142.3403  158.4356 N   0  0  0  0  0  0  0  0  0  0  0  0
  151.3300  141.0973  157.9154 C   0  0  0  0  0  0  0  0  0  0  0  0
  148.7204  135.0356  154.4513 N   0  3  0  0  0  0  0  0  0  0  0  0
  149.3337  133.7175  154.1212 C   0  0  0  0  0  0  0  0  0  0  0  0
  148.6532  133.0597  152.9093 C   0  0  0  0  0  0  0  0  0  0  0  0
  147.2648  132.9160  153.1592 O   0  0  0  0  0  0  0  0  0  0  0  0
  146.6449  134.1790  153.3365 C   0  0  0  0  0  0  0  0  0  0  0  0
  147.2417  134.8840  154.5661 C   0  0  0  0  0  0  0  0  0  0  0  0
  150.1989  135.1796  157.5993 H   0  0  0  0  0  0  0  0  0  0  0  0
  150.2889  133.8887  156.4114 H   0  0  0  0  0  0  0  0  0  0  0  0
  148.7675  134.2920  157.2115 H   0  0  0  0  0  0  0  0  0  0  0  0
  148.6346  136.4371  156.0180 H   0  0  0  0  0  0  0  0  0  0  0  0
  151.3492  135.8276  154.7496 H   0  0  0  0  0  0  0  0  0  0  0  0
  150.4120  137.2989  154.5360 H   0  0  0  0  0  0  0  0  0  0  0  0
  151.8106  136.5462  157.0026 H   0  0  0  0  0  0  0  0  0  0  0  0
  152.3312  137.9661  158.2336 H   0  0  0  0  0  0  0  0  0  0  0  0
  153.4394  139.4451  160.0296 H   0  0  0  0  0  0  0  0  0  0  0  0
  153.5553  141.6856  160.9710 H   0  0  0  0  0  0  0  0  0  0  0  0
  153.0370  144.9775  158.4310 H   0  0  0  0  0  0  0  0  0  0  0  0
  152.2439  145.9659  159.6543 H   0  0  0  0  0  0  0  0  0  0  0  0
  151.2697  145.0218  158.5290 H   0  0  0  0  0  0  0  0  0  0  0  0
  151.3589  143.6691  161.9441 H   0  0  0  0  0  0  0  0  0  0  0  0
  152.2428  145.1733  161.7062 H   0  0  0  0  0  0  0  0  0  0  0  0
  153.1309  143.6665  161.9117 H   0  0  0  0  0  0  0  0  0  0  0  0
  150.6883  140.9801  157.0541 H   0  0  0  0  0  0  0  0  0  0  0  0
  150.3878  133.8272  153.8727 H   0  0  0  0  0  0  0  0  0  0  0  0
  149.2703  133.0576  154.9878 H   0  0  0  0  0  0  0  0  0  0  0  0
  148.8169  133.6459  152.0034 H   0  0  0  0  0  0  0  0  0  0  0  0
  149.0812  132.0733  152.7300 H   0  0  0  0  0  0  0  0  0  0  0  0
  146.7648  134.7893  152.4399 H   0  0  0  0  0  0  0  0  0  0  0  0
  145.5741  134.0282  153.4751 H   0  0  0  0  0  0  0  0  0  0  0  0
  147.0001  134.3240  155.4709 H   0  0  0  0  0  0  0  0  0  0  0  0
  146.7511  135.8524  154.6417 H   0  0  0  0  0  0  0  0  0  0  0  0
  148.8835  135.6332  153.6533 H   0  0  0  0  0  0  0  0  0  0  0  0
  1  2  1  0  0  0  0
  1 23  1  0  0  0  0
  1 24  1  0  0  0  0
  1 25  1  0  0  0  0
  2  3  1  0  0  0  0
  2 17  1  0  0  0  0
  2 26  1  0  0  0  0
  3  4  1  0  0  0  0
  3 27  1  0  0  0  0
  3 28  1  0  0  0  0
  4  5  1  0  0  0  0
  4 29  1  0  0  0  0
  5  6  2  0  0  0  0
  5  7  1  0  0  0  0
  7  8  1  0  0  0  0
  7 30  1  0  0  0  0
  8 16  1  0  0  0  0
  8  9  2  0  0  0  0
  9 10  1  0  0  0  0
  9 31  1  0  0  0  0
 10 11  2  0  0  0  0
 10 32  1  0  0  0  0
 11 12  1  0  0  0  0
 11 15  1  0  0  0  0
 12 13  1  0  0  0  0
 12 14  1  0  0  0  0
 13 33  1  0  0  0  0
 13 34  1  0  0  0  0
 13 35  1  0  0  0  0
 14 36  1  0  0  0  0
 14 37  1  0  0  0  0
 14 38  1  0  0  0  0
 15 16  2  0  0  0  0
 16 39  1  0  0  0  0
 17 22  1  0  0  0  0
 17 18  1  0  0  0  0
 17 48  1  0  0  0  0
 18 19  1  0  0  0  0
 18 40  1  0  0  0  0
 18 41  1  0  0  0  0
 19 20  1  0  0  0  0
 19 42  1  0  0  0  0
 19 43  1  0  0  0  0
 20 21  1  0  0  0  0
 21 22  1  0  0  0  0
 21 44  1  0  0  0  0
 21 45  1  0  0  0  0
 22 46  1  0  0  0  0
 22 47  1  0  0  0  0
M  CHG  1  17   1
M  END
> <s_m_source_file>
AV-unprocessed.smi

> <i_m_source_file_index>
1239

> <i_lp_mmshare_version>
43012

> <i_f3d_flags>
0

> <s_epik_input>
W0NIMl0xW0NIMl1PW0NIMl1bQ0gyXU4xW0NASF0oW0NIM10pW0NIMl1bTkhdQyg9TylbTkhdYzJbY0hdW2NIXWMoTihbQ0gzXSlbQ0gzXSluW2NIXTI=

> <s_epik_cmdline>
J2VwaWtfcHl0aG9uJywgJy1waCcsICc3LjAnLCAnLXRuJywgJzgnLCAnLW1hJywgJzIwMCcsICctbWV0YWxfYmluZGluZycsICctaW1hZScsICc8aW5maWxlLm1hZT4nLCAnLW9tYWUnLCAnPG91dGZpbGUubWFlPic=

> <r_epik_Ionization_Penalty>
1.1428

> <r_epik_Ionization_Penalty_Charging>
0.602531

> <r_epik_Ionization_Penalty_Neutral>
0.540271

> <r_epik_State_Penalty>
1.1888

> <r_epik_Charging_Adjusted_Penalty>
1.79133

> <i_epik_Tot_Q>
1

> <i_epik_Tot_abs_Q>
1

> <r_epik_Metal_State_Penalty>
0.936295

> <b_epik_Metal_Only>
0

> <s_lp_Force_Field>
OPLS_2005

> <r_lp_Energy>
25.9365

> <b_lp_Chiralities_Consistent>
1

> <s_lp_Variant>
AV-unprocessed.smi:1239-8

> <Gold.Version>
5.8.1

> <Gold.Id.Protein>
6NUR|6NUR_protein|mol2

> <Gold.PLP.Fitness>
43.1126

> <Gold.PLP.PLP>
-39.5141

> <Gold.PLP.part.hbond>
-1.0000

> <Gold.PLP.part.metal>
0.0000

> <Gold.PLP.part.buried>
-6.1690

> <Gold.PLP.part.nonpolar>
-32.4335

> <Gold.PLP.part.repulsive>
0.2909

> <Gold.PLP.ligand.clash>
0.0000

> <Gold.PLP.ligand.torsion>
1.2377

> <Gold.PLP.Chemscore.Hbond>
2.0000

> <Gold.PLP.Chemscore.CHOScore>
0.0000

> <Gold.PLP.Chemscore.Metal>
0.0000

> <Gold.Chemscore.Hbonds>
donor molecule, donor type, donor heavy atom, donor atom, acceptor molecule, acceptor atom, score
      L1  H    17    48       P1  7948  2.00

> <Gold.PLP.Chemscore.Internal.Correction>
0.0741

> <Gold.Rescore>
     Score         DG    S(hbond)    S(metal)    S(lipo)     H(rot)  DE(clash)    DE(int)     intcor
     12.70     -14.99       0.94        0.00      86.98       1.48       0.03       2.26       ----

> <Gold.Chemscore.Fitness>
12.7049

> <Gold.Chemscore.DG>
-14.9925

> <Gold.Chemscore.ZeroCoef>
-5.4800

> <Gold.Chemscore.Hbond>
0.9378

> <Gold.Chemscore.Metal>
0.0000

> <Gold.Chemscore.Lipo>
86.9798

> <Gold.Chemscore.Internal_Hbond>
0.0000

> <Gold.Chemscore.DEClash>
0.0272

> <Gold.Chemscore.DEInternal>
2.2604

> <Gold.Chemscore.Rot>
1.4830

> <Gold.Chemscore.Internal.Correction>
   9.000000E+99

> <Gold.Chemscore.Hbonds>
donor molecule, donor type, donor heavy atom, donor atom, acceptor molecule, acceptor atom, score
      L1  H    17    48       P1  7948  0.90

> <Gold.Chemscore.Hbond.Weighted>
-3.1322

> <Gold.Chemscore.Metal.Weighted>
-0.0000

> <Gold.Chemscore.Lipo.Weighted>
-10.1766

> <Gold.Chemscore.Internal_Hbond.Weighted>
0.0000

> <Gold.Chemscore.DEClash.Weighted>
0.0272

> <Gold.Chemscore.DEInternal.Weighted>
2.2604

> <Gold.Chemscore.Rot.Weighted>
3.7964

> <Gold.Chemscore.Internal.Correction.Weighted>
   9.000000E+99

> <Gold.Protein.RotatedTorsions>
[ 6907 6896 6895 6894 ] final  -79.23 input  -60.11 | X-H torsion
[ 7974 7965 7964 7962 ] final  156.97 input  175.53 | X-H torsion
[ 8008 7997 7996 7995 ] final  124.51 input   59.86 | X-H torsion
[ 10167 10162 10161 10158 ] final  120.33 input  -65.29 | X-H torsion
[ 10718 10713 10712 10709 ] final -151.48 input   66.30 | X-H torsion
[ 10763 10752 10751 10750 ] final   39.10 input  -60.55 | X-H torsion
[ 11005 11000 10999 10996 ] final  130.96 input  -57.11 | X-H torsion

> <Gold.Protein.ActiveResidues>
 VAL166  LYS551  ARG553  GLY616  TRP617  ASP618  TYR619  PRO620  LYS621  CYS622 
 ASP623  PHE694  ASN695  SER759  ASP760  ASP761  ALA762  ILE779  LEU786  VAL792 
 PHE793  MET794  SER795  GLU796  ALA797  LYS798  CYS799  TRP800  GLU811  SER814 

> <Gold.Protein.RotatedAtoms>
  150.6954  134.4152  159.5179 H   0  0  0  0  0  0  0  0  0  0  0  0  # atno 6907 bound_to 6896
  152.1904  134.8674  160.0527 H   0  0  0  0  0  0  0  0  0  0  0  0  # atno 6908 bound_to 6896
  151.9632  133.3667  159.4080 H   0  0  0  0  0  0  0  0  0  0  0  0  # atno 6909 bound_to 6896
  144.7931  139.7276  143.6213 H   0  0  0  0  0  0  0  0  0  0  0  0  # atno 7974 bound_to 7965
  156.2803  140.2738  156.1799 H   0  0  0  0  0  0  0  0  0  0  0  0  # atno 8008 bound_to 7997
  155.0567  140.0386  157.2580 H   0  0  0  0  0  0  0  0  0  0  0  0  # atno 8009 bound_to 7997
  154.7151  140.2676  155.6599 H   0  0  0  0  0  0  0  0  0  0  0  0  # atno 8010 bound_to 7997
  139.5989  144.7050  151.3110 H   0  0  0  0  0  0  0  0  0  0  0  0  # atno 10167 bound_to 10162
  156.4599  130.8208  151.2439 H   0  0  0  0  0  0  0  0  0  0  0  0  # atno 10718 bound_to 10713
  152.9978  135.6230  154.2411 H   0  0  0  0  0  0  0  0  0  0  0  0  # atno 10763 bound_to 10752
  154.2152  135.2798  155.2946 H   0  0  0  0  0  0  0  0  0  0  0  0  # atno 10764 bound_to 10752
  154.5574  135.5715  153.7035 H   0  0  0  0  0  0  0  0  0  0  0  0  # atno 10765 bound_to 10752
  139.9702  134.9579  156.9369 H   0  0  0  0  0  0  0  0  0  0  0  0  # atno 11005 bound_to 11000
  146.2190  139.5602  142.9631 LP  0  0  0  0  0  0  0  0  0  0  0  0  # atno 17320 bound_to 7965
  145.5742  141.0390  143.2157 LP  0  0  0  0  0  0  0  0  0  0  0  0  # atno 17321 bound_to 7965
  140.7234  143.7073  150.7797 LP  0  0  0  0  0  0  0  0  0  0  0  0  # atno 17342 bound_to 10162
  140.0645  143.5122  152.2611 LP  0  0  0  0  0  0  0  0  0  0  0  0  # atno 17343 bound_to 10162
  157.7498  131.0110  150.3330 LP  0  0  0  0  0  0  0  0  0  0  0  0  # atno 17370 bound_to 10713
  156.3728  130.3866  149.7162 LP  0  0  0  0  0  0  0  0  0  0  0  0  # atno 17371 bound_to 10713
  140.5309  134.0814  155.7315 LP  0  0  0  0  0  0  0  0  0  0  0  0  # atno 17394 bound_to 11000
  141.1382  133.9185  157.2386 LP  0  0  0  0  0  0  0  0  0  0  0  0  # atno 17395 bound_to 11000

$$$$
