#       Name:                AV-unprocessed.smi:2418
#       Creating user name   scv26
#       Creation time:       Fri Mar 27 13:18:27 2020


#       File generated by GOLD software.
#

@<TRIPOS>MOLECULE
AV-unprocessed.smi:2418
    39    40     1
SMALL
NO_CHARGES


@<TRIPOS>ATOM
      1 ****        -4.9878   0.8858   0.8421 C.3            1 S1                 0.0000
      2 ****        -3.5292   0.4693   0.7754 C.2            1 S1                 0.0000
      3 ****        -2.6023   1.5155   0.7725 N.2            1 S1                 0.0000
      4 ****        -1.3374   1.2554   0.7179 C.2            1 S1                 0.0000
      5 ****        -0.8557  -0.0637   0.6626 N.am           1 S1                 0.0000
      6 ****         0.6079  -0.2219   0.5999 C.3            1 S1                 0.0000
      7 ****         1.1534  -0.0798  -0.8388 C.3            1 S1                 0.0000
      8 ****         0.8963  -1.2762  -1.5482 O.3            1 S1                 0.0000
      9 ****         2.6402   0.2527  -0.8211 C.ar           1 S1                 0.0000
     10 ****         3.6014  -0.7673  -0.6375 C.ar           1 S1                 0.0000
     11 ****         4.9745  -0.4559  -0.6102 C.ar           1 S1                 0.0000
     12 ****         5.8883  -1.4397  -0.4355 F              1 S1                 0.0000
     13 ****         5.3975   0.8779  -0.7626 C.ar           1 S1                 0.0000
     14 ****         4.4456   1.9003  -0.9378 C.ar           1 S1                 0.0000
     15 ****         3.0716   1.5913  -0.9642 C.ar           1 S1                 0.0000
     16 ****         2.1698   2.5899  -1.1224 F              1 S1                 0.0000
     17 ****        -1.6913  -1.1421   0.6576 C.2            1 S1                 0.0000
     18 ****        -1.2615  -2.2958   0.6045 O.2            1 S1                 0.0000
     19 ****        -3.1288  -0.8304   0.7203 C.2            1 S1                 0.0000
     20 ****        -4.0930  -2.0102   0.7198 C.3            1 S1                 0.0000
     21 ****        -5.5255   0.5356  -0.0393 H              1 S1                 0.0000
     22 ****        -5.0896   1.9708   0.8867 H              1 S1                 0.0000
     23 ****        -5.4639   0.4704   1.7307 H              1 S1                 0.0000
     24 ****        -0.5727   2.0344   0.7068 H              1 S1                 0.0000
     25 ****         1.0602   0.5474   1.2295 H              1 S1                 0.0000
     26 ****         0.9423  -1.1599   1.0471 H              1 S1                 0.0000
     27 ****         0.6270   0.7193  -1.3616 H              1 S1                 0.0000
     28 ****         1.1528  -1.1524  -2.4493 H              1 S1                 0.0000
     29 ****         3.2896  -1.7941  -0.5131 H              1 S1                 0.0000
     30 ****         6.4505   1.1171  -0.7416 H              1 S1                 0.0000
     31 ****         4.7701   2.9245  -1.0494 H              1 S1                 0.0000
     32 ****        -3.8941  -2.6582   1.5740 H              1 S1                 0.0000
     33 ****        -3.9674  -2.5989  -0.1896 H              1 S1                 0.0000
     34 ****        -5.1383  -1.7110   0.7735 H              1 S1                 0.0000
     35 ****        -2.9174   2.4637   0.8126 LP             1 S1                 0.0000
     36 ****        -0.0788  -1.4928  -1.5018 LP             1 S1                 0.0000
     37 ****         1.4236  -2.0256  -1.1475 LP             1 S1                 0.0000
     38 ****        -0.2761  -2.4609   0.5636 LP             1 S1                 0.0000
     39 ****        -1.8982  -3.0669   0.6024 LP             1 S1                 0.0000
@<TRIPOS>BOND
    1    1    2 1     
    2    1   21 1     
    3    1   22 1     
    4    1   23 1     
    5    2   19 2     
    6    2    3 1     
    7    3    4 2     
    8    4    5 1     
    9    4   24 1     
   10    5    6 1     
   11    5   17 am    
   12    6    7 1     
   13    6   25 1     
   14    6   26 1     
   15    7    8 1     
   16    7    9 1     
   17    7   27 1     
   18    8   28 1     
   19    9   15 ar    
   20    9   10 ar    
   21   10   11 ar    
   22   10   29 1     
   23   11   12 1     
   24   11   13 ar    
   25   13   14 ar    
   26   13   30 1     
   27   14   15 ar    
   28   14   31 1     
   29   15   16 1     
   30   17   18 2     
   31   17   19 1     
   32   19   20 1     
   33   20   32 1     
   34   20   33 1     
   35   20   34 1     
   36    3   35 1     
   37    8   36 1     
   38    8   37 1     
   39   18   38 1     
   40   18   39 1     
@<TRIPOS>SUBSTRUCTURE
      1 S1             1
@<TRIPOS>SET
LONE_PAIRS      STATIC     ATOMS    <user>   **** ""
5 35 36 37 38 39
DONOR_HYDROGENS      STATIC     ATOMS    <user>   **** ""
1 28
ATOM$BLUE        STATIC     ATOMS    COLORGROUP SYSTEM
5 35 36 37 38 39
ATOM$RED        STATIC     ATOMS    COLORGROUP SYSTEM
1 28
