AV-unprocessed.smi:1645|AV-procd|sdf|6609|dock4
  -GOLD-   22720 7313D 1   1.00000     0.00000
 Structure written by MMmdl.
 56 59  0  0  0  0  0  0  0  0  3 V2000
  146.4463  139.7553  153.5932 O   0  0  0  0  0  0  0  0  0  0  0  0
  147.3374  138.9848  153.2390 C   0  0  0  0  0  0  0  0  0  0  0  0
  148.6140  139.0191  153.6595 N   0  0  0  0  0  0  0  0  0  0  0  0
  149.2480  139.9567  154.5212 C   0  0  0  0  0  0  0  0  0  0  0  0
  150.4970  139.5973  155.0695 C   0  0  0  0  0  0  0  0  0  0  0  0
  151.1748  140.4908  155.9236 C   0  0  0  0  0  0  0  0  0  0  0  0
  150.5959  141.7465  156.2352 C   0  0  0  0  0  0  0  0  0  0  0  0
  151.2105  142.7149  157.0610 N   0  0  0  0  0  0  0  0  0  0  0  0
  151.0528  144.1185  156.6669 C   0  0  0  0  0  0  0  0  0  0  0  0
  152.1233  145.0074  157.3222 C   0  0  0  0  0  0  0  0  0  0  0  0
  152.1465  144.8148  158.8451 C   0  0  0  0  0  0  0  0  0  0  0  0
  152.3445  143.3301  159.1802 C   0  0  0  0  0  0  0  0  0  0  0  0
  151.2757  142.4567  158.5008 C   0  0  0  0  0  0  0  0  0  0  0  0
  149.3872  142.0390  155.6970 N   0  3  0  0  0  0  0  0  0  0  0  0
  148.7037  141.2147  154.8742 C   0  0  0  0  0  0  0  0  0  0  0  0
  147.1423  137.9882  152.3629 N   0  0  0  0  0  0  0  0  0  0  0  0
  145.8828  137.7036  151.6755 C   0  0  1  0  0  0  0  0  0  0  0  0
  146.0117  136.5855  150.6232 C   0  0  0  0  0  0  0  0  0  0  0  0
  144.7269  135.7641  150.7722 C   0  0  0  0  0  0  0  0  0  0  0  0
  144.4413  135.8620  152.2083 N   0  3  2  0  0  0  0  0  0  0  0  0
  143.1325  135.3895  152.7033 C   0  0  0  0  0  0  0  0  0  0  0  0
  143.1552  135.4226  154.2467 C   0  0  0  0  0  0  0  0  0  0  0  0
  143.5884  136.8010  154.7967 C   0  0  0  0  0  0  0  0  0  0  0  0
  144.8964  137.2968  154.1420 C   0  0  0  0  0  0  0  0  0  0  0  0
  144.7387  137.2473  152.6117 C   0  0  1  0  0  0  0  0  0  0  0  0
  149.2271  138.3253  153.2571 H   0  0  0  0  0  0  0  0  0  0  0  0
  150.9428  138.6419  154.8337 H   0  0  0  0  0  0  0  0  0  0  0  0
  152.1286  140.1890  156.3293 H   0  0  0  0  0  0  0  0  0  0  0  0
  151.1122  144.2463  155.5863 H   0  0  0  0  0  0  0  0  0  0  0  0
  150.0589  144.4526  156.9673 H   0  0  0  0  0  0  0  0  0  0  0  0
  153.1028  144.7634  156.9086 H   0  0  0  0  0  0  0  0  0  0  0  0
  151.9377  146.0542  157.0805 H   0  0  0  0  0  0  0  0  0  0  0  0
  152.9443  145.4113  159.2887 H   0  0  0  0  0  0  0  0  0  0  0  0
  151.2105  145.1705  159.2778 H   0  0  0  0  0  0  0  0  0  0  0  0
  153.3356  143.0128  158.8528 H   0  0  0  0  0  0  0  0  0  0  0  0
  152.3150  143.1826  160.2603 H   0  0  0  0  0  0  0  0  0  0  0  0
  150.2967  142.6486  158.9420 H   0  0  0  0  0  0  0  0  0  0  0  0
  151.5205  141.4112  158.6898 H   0  0  0  0  0  0  0  0  0  0  0  0
  147.7541  141.6036  154.5407 H   0  0  0  0  0  0  0  0  0  0  0  0
  147.9298  137.4007  152.1304 H   0  0  0  0  0  0  0  0  0  0  0  0
  145.5549  138.6064  151.1559 H   0  0  0  0  0  0  0  0  0  0  0  0
  146.1441  136.9722  149.6122 H   0  0  0  0  0  0  0  0  0  0  0  0
  146.8707  135.9509  150.8472 H   0  0  0  0  0  0  0  0  0  0  0  0
  143.9134  136.2149  150.2015 H   0  0  0  0  0  0  0  0  0  0  0  0
  144.8481  134.7299  150.4486 H   0  0  0  0  0  0  0  0  0  0  0  0
  142.3319  136.0187  152.3114 H   0  0  0  0  0  0  0  0  0  0  0  0
  142.9494  134.3737  152.3513 H   0  0  0  0  0  0  0  0  0  0  0  0
  142.1746  135.1537  154.6407 H   0  0  0  0  0  0  0  0  0  0  0  0
  143.8486  134.6623  154.6093 H   0  0  0  0  0  0  0  0  0  0  0  0
  142.7955  137.5261  154.6081 H   0  0  0  0  0  0  0  0  0  0  0  0
  143.7065  136.7519  155.8796 H   0  0  0  0  0  0  0  0  0  0  0  0
  145.1109  138.3132  154.4734 H   0  0  0  0  0  0  0  0  0  0  0  0
  145.7335  136.6737  154.4594 H   0  0  0  0  0  0  0  0  0  0  0  0
  143.8712  137.8568  152.3485 H   0  0  0  0  0  0  0  0  0  0  0  0
  145.1395  135.2873  152.6578 H   0  0  0  0  0  0  0  0  0  0  0  0
  148.9686  142.9419  155.9216 H   0  0  0  0  0  0  0  0  0  0  0  0
  1  2  2  0  0  0  0
  2  3  1  0  0  0  0
  2 16  1  0  0  0  0
  3  4  1  0  0  0  0
  3 26  1  0  0  0  0
  4 15  1  0  0  0  0
  4  5  2  0  0  0  0
  5  6  1  0  0  0  0
  5 27  1  0  0  0  0
  6  7  2  0  0  0  0
  6 28  1  0  0  0  0
  7  8  1  0  0  0  0
  7 14  1  0  0  0  0
  8 13  1  0  0  0  0
  8  9  1  0  0  0  0
  9 10  1  0  0  0  0
  9 29  1  0  0  0  0
  9 30  1  0  0  0  0
 10 11  1  0  0  0  0
 10 31  1  0  0  0  0
 10 32  1  0  0  0  0
 11 12  1  0  0  0  0
 11 33  1  0  0  0  0
 11 34  1  0  0  0  0
 12 13  1  0  0  0  0
 12 35  1  0  0  0  0
 12 36  1  0  0  0  0
 13 37  1  0  0  0  0
 13 38  1  0  0  0  0
 14 15  2  0  0  0  0
 14 56  1  0  0  0  0
 15 39  1  0  0  0  0
 16 17  1  0  0  0  0
 16 40  1  0  0  0  0
 17 25  1  0  0  0  0
 17 18  1  0  0  0  0
 17 41  1  0  0  0  0
 18 19  1  0  0  0  0
 18 42  1  0  0  0  0
 18 43  1  0  0  0  0
 19 20  1  0  0  0  0
 19 44  1  0  0  0  0
 19 45  1  0  0  0  0
 20 25  1  0  0  0  0
 20 21  1  0  0  0  0
 20 55  1  0  0  0  0
 21 22  1  0  0  0  0
 21 46  1  0  0  0  0
 21 47  1  0  0  0  0
 22 23  1  0  0  0  0
 22 48  1  0  0  0  0
 22 49  1  0  0  0  0
 23 24  1  0  0  0  0
 23 50  1  0  0  0  0
 23 51  1  0  0  0  0
 24 25  1  0  0  0  0
 24 52  1  0  0  0  0
 24 53  1  0  0  0  0
 25 54  1  0  0  0  0
M  CHG  1  14   1
M  CHG  1  20   1
M  END
> <s_m_source_file>
AV-unprocessed.smi

> <i_m_source_file_index>
1645

> <i_lp_mmshare_version>
43012

> <i_f3d_flags>
0

> <s_epik_input>
W0NIMl0xW0NIMl1bQ0gyXVtDSDJdW0NASF0oTjEyKVtDQEBIXShbQ0gyXVtDSDJdMilbTkhdQyg9TylbTkhdYzNbY0hdW2NIXWMobltjSF0zKU40W0NIMl1bQ0gyXVtDSDJdW0NIMl1bQ0gyXTQ=

> <s_epik_cmdline>
J2VwaWtfcHl0aG9uJywgJy1waCcsICc3LjAnLCAnLXRuJywgJzgnLCAnLW1hJywgJzIwMCcsICctbWV0YWxfYmluZGluZycsICctaW1hZScsICc8aW5maWxlLm1hZT4nLCAnLW9tYWUnLCAnPG91dGZpbGUubWFlPic=

> <r_lp_tautomer_probability>
0.999994

> <r_epik_Ionization_Penalty>
1.26838

> <r_epik_Ionization_Penalty_Charging>
1.26836

> <r_epik_Ionization_Penalty_Neutral>
1.95562e-05

> <r_epik_State_Penalty>
1.33841

> <r_epik_Charging_Adjusted_Penalty>
2.60677

> <i_epik_Tot_Q>
2

> <i_epik_Tot_abs_Q>
2

> <r_epik_Metal_State_Penalty>
1.40601

> <b_epik_Metal_Only>
0

> <s_lp_Force_Field>
OPLS_2005

> <r_lp_Energy>
64.599

> <b_lp_Chiralities_Consistent>
1

> <s_lp_Variant>
AV-unprocessed.smi:1645-10

> <Gold.Version>
5.8.1

> <Gold.Id.Protein>
6NUR|6NUR_protein|mol2

> <Gold.PLP.Fitness>
52.0043

> <Gold.PLP.PLP>
-44.8700

> <Gold.PLP.part.hbond>
-3.1302

> <Gold.PLP.part.metal>
0.0000

> <Gold.PLP.part.buried>
3.4327

> <Gold.PLP.part.nonpolar>
-45.1875

> <Gold.PLP.part.repulsive>
0.5039

> <Gold.PLP.ligand.clash>
0.0000

> <Gold.PLP.ligand.torsion>
1.0485

> <Gold.PLP.Chemscore.Hbond>
2.9913

> <Gold.PLP.Chemscore.CHOScore>
0.0000

> <Gold.PLP.Chemscore.Metal>
0.0000

> <Gold.Chemscore.Hbonds>
donor molecule, donor type, donor heavy atom, donor atom, acceptor molecule, acceptor atom, score
      L1  H    14    56       P1  8028  1.98
      L1  H    16    40       P1  7948  1.00

> <Gold.PLP.Chemscore.Internal.Correction>
0.2575

> <Gold.Rescore>
     Score         DG    S(hbond)    S(metal)    S(lipo)     H(rot)  DE(clash)    DE(int)     intcor
     19.38     -23.61       1.92        0.00     122.15       1.00       0.83       3.41       ----

> <Gold.Chemscore.Fitness>
19.3759

> <Gold.Chemscore.DG>
-23.6145

> <Gold.Chemscore.ZeroCoef>
-5.4800

> <Gold.Chemscore.Hbond>
1.9172

> <Gold.Chemscore.Metal>
0.0000

> <Gold.Chemscore.Lipo>
122.1456

> <Gold.Chemscore.Internal_Hbond>
0.0000

> <Gold.Chemscore.DEClash>
0.8257

> <Gold.Chemscore.DEInternal>
3.4129

> <Gold.Chemscore.Rot>
1.0000

> <Gold.Chemscore.Internal.Correction>
   9.000000E+99

> <Gold.Chemscore.Hbonds>
donor molecule, donor type, donor heavy atom, donor atom, acceptor molecule, acceptor atom, score
      L1  H     3    26       P1  7948  0.01
      L1  H    14    56       P1  8028  0.94
      L1  H    16    40       P1  7948  0.96

> <Gold.Chemscore.Hbond.Weighted>
-6.4034

> <Gold.Chemscore.Metal.Weighted>
-0.0000

> <Gold.Chemscore.Lipo.Weighted>
-14.2910

> <Gold.Chemscore.Internal_Hbond.Weighted>
0.0000

> <Gold.Chemscore.DEClash.Weighted>
0.8257

> <Gold.Chemscore.DEInternal.Weighted>
3.4129

> <Gold.Chemscore.Rot.Weighted>
2.5600

> <Gold.Chemscore.Internal.Correction.Weighted>
   9.000000E+99

> <Gold.Protein.RotatedTorsions>
[ 6907 6896 6895 6894 ] final  -20.50 input  -60.11 | X-H torsion
[ 7974 7965 7964 7962 ] final   37.30 input  175.53 | X-H torsion
[ 8008 7997 7996 7995 ] final  -82.13 input   59.86 | X-H torsion
[ 10167 10162 10161 10158 ] final   20.49 input  -65.29 | X-H torsion
[ 10718 10713 10712 10709 ] final  132.70 input   66.30 | X-H torsion
[ 10763 10752 10751 10750 ] final  142.70 input  -60.55 | X-H torsion
[ 11005 11000 10999 10996 ] final  -97.50 input  -57.11 | X-H torsion

> <Gold.Protein.ActiveResidues>
 VAL166  LYS551  ARG553  GLY616  TRP617  ASP618  TYR619  PRO620  LYS621  CYS622 
 ASP623  PHE694  ASN695  SER759  ASP760  ASP761  ALA762  ILE779  LEU786  VAL792 
 PHE793  MET794  SER795  GLU796  ALA797  LYS798  CYS799  TRP800  GLU811  SER814 

> <Gold.Protein.RotatedAtoms>
  151.2472  135.0609  159.9047 H   0  0  0  0  0  0  0  0  0  0  0  0  # atno 6907 bound_to 6896
  152.5385  134.0371  159.8061 H   0  0  0  0  0  0  0  0  0  0  0  0  # atno 6908 bound_to 6896
  151.0573  133.5524  159.2668 H   0  0  0  0  0  0  0  0  0  0  0  0  # atno 6909 bound_to 6896
  146.1148  139.5911  142.9329 H   0  0  0  0  0  0  0  0  0  0  0  0  # atno 7974 bound_to 7965
  154.6054  140.0637  156.9424 H   0  0  0  0  0  0  0  0  0  0  0  0  # atno 8008 bound_to 7997
  155.2061  140.3319  155.4317 H   0  0  0  0  0  0  0  0  0  0  0  0  # atno 8009 bound_to 7997
  156.2344  140.1856  156.7141 H   0  0  0  0  0  0  0  0  0  0  0  0  # atno 8010 bound_to 7997
  140.5499  143.9527  150.6572 H   0  0  0  0  0  0  0  0  0  0  0  0  # atno 10167 bound_to 10162
  157.4846  131.1087  150.9637 H   0  0  0  0  0  0  0  0  0  0  0  0  # atno 10718 bound_to 10713
  153.9601  135.2961  155.3434 H   0  0  0  0  0  0  0  0  0  0  0  0  # atno 10763 bound_to 10752
  154.7379  135.5038  153.9076 H   0  0  0  0  0  0  0  0  0  0  0  0  # atno 10764 bound_to 10752
  153.0951  135.6719  153.9889 H   0  0  0  0  0  0  0  0  0  0  0  0  # atno 10765 bound_to 10752
  141.1377  133.8175  157.0714 H   0  0  0  0  0  0  0  0  0  0  0  0  # atno 11005 bound_to 11000
  145.5590  141.0406  143.2236 LP  0  0  0  0  0  0  0  0  0  0  0  0  # atno 17320 bound_to 7965
  144.7543  139.7114  143.7260 LP  0  0  0  0  0  0  0  0  0  0  0  0  # atno 17321 bound_to 7965
  140.2950  143.3298  152.1026 LP  0  0  0  0  0  0  0  0  0  0  0  0  # atno 17342 bound_to 10162
  139.5023  144.6732  151.6192 LP  0  0  0  0  0  0  0  0  0  0  0  0  # atno 17343 bound_to 10162
  157.0359  130.5730  149.5349 LP  0  0  0  0  0  0  0  0  0  0  0  0  # atno 17370 bound_to 10713
  156.0140  130.5233  150.8076 LP  0  0  0  0  0  0  0  0  0  0  0  0  # atno 17371 bound_to 10713
  140.0509  134.9806  157.1134 LP  0  0  0  0  0  0  0  0  0  0  0  0  # atno 17394 bound_to 11000
  140.3992  134.2101  155.7164 LP  0  0  0  0  0  0  0  0  0  0  0  0  # atno 17395 bound_to 11000

$$$$
