AV-unprocessed.smi:1263|AV-procd|sdf|5310|dock5
  -GOLD-   22720 4433D 1   1.00000     0.00000
 Structure written by MMmdl.
 44 46  0  0  0  0  0  0  0  0  2 V2000
  145.8862  143.5015  154.0497 C   0  0  0  0  0  0  0  0  0  0  0  0
  145.9215  142.0786  154.0631 O   0  0  0  0  0  0  0  0  0  0  0  0
  147.1360  141.4503  154.2632 C   0  0  0  0  0  0  0  0  0  0  0  0
  148.1479  142.1639  154.8181 N   0  0  0  0  0  0  0  0  0  0  0  0
  149.3357  141.5538  155.0085 C   0  0  0  0  0  0  0  0  0  0  0  0
  149.5793  140.2145  154.6531 C   0  0  0  0  0  0  0  0  0  0  0  0
  148.5315  139.4721  154.0781 C   0  0  0  0  0  0  0  0  0  0  0  0
  147.2737  140.0937  153.8862 C   0  0  0  0  0  0  0  0  0  0  0  0
  146.1553  139.4419  153.2968 N   0  0  0  0  0  0  0  0  0  0  0  0
  146.0452  138.1625  152.9013 C   0  0  0  0  0  0  0  0  0  0  0  0
  146.9244  137.3068  153.0007 O   0  0  0  0  0  0  0  0  0  0  0  0
  144.8303  137.9155  152.3905 N   0  0  0  0  0  0  0  0  0  0  0  0
  144.3748  136.6191  151.8966 C   0  0  2  0  0  0  0  0  0  0  0  0
  143.9597  135.6970  153.0590 C   0  0  0  0  0  0  0  0  0  0  0  0
  143.5736  134.2997  152.5458 C   0  0  0  0  0  0  0  0  0  0  0  0
  144.6805  133.6929  151.7654 N   0  3  1  0  0  0  0  0  0  0  0  0
  144.3761  132.3052  151.3536 C   0  0  0  0  0  0  0  0  0  0  0  0
  145.2371  131.8065  150.2164 C   0  0  0  0  0  0  0  0  0  0  0  0
  143.7981  132.1967  149.9618 C   0  0  0  0  0  0  0  0  0  0  0  0
  145.0739  134.5438  150.6149 C   0  0  0  0  0  0  0  0  0  0  0  0
  145.4934  135.9477  151.0828 C   0  0  0  0  0  0  0  0  0  0  0  0
  144.8629  143.8354  153.8793 H   0  0  0  0  0  0  0  0  0  0  0  0
  146.5042  143.9085  153.2480 H   0  0  0  0  0  0  0  0  0  0  0  0
  146.2154  143.9181  155.0027 H   0  0  0  0  0  0  0  0  0  0  0  0
  150.1174  142.1532  155.4507 H   0  0  0  0  0  0  0  0  0  0  0  0
  150.5495  139.7681  154.8126 H   0  0  0  0  0  0  0  0  0  0  0  0
  148.7176  138.4512  153.7838 H   0  0  0  0  0  0  0  0  0  0  0  0
  145.3175  140.0016  153.2329 H   0  0  0  0  0  0  0  0  0  0  0  0
  144.1684  138.6771  152.3533 H   0  0  0  0  0  0  0  0  0  0  0  0
  143.5169  136.7724  151.2388 H   0  0  0  0  0  0  0  0  0  0  0  0
  144.7793  135.6076  153.7738 H   0  0  0  0  0  0  0  0  0  0  0  0
  143.1201  136.1288  153.6051 H   0  0  0  0  0  0  0  0  0  0  0  0
  143.3272  133.6571  153.3917 H   0  0  0  0  0  0  0  0  0  0  0  0
  142.6789  134.3614  151.9240 H   0  0  0  0  0  0  0  0  0  0  0  0
  144.0520  131.6266  152.1410 H   0  0  0  0  0  0  0  0  0  0  0  0
  146.0114  132.4653  149.8271 H   0  0  0  0  0  0  0  0  0  0  0  0
  145.4770  130.7454  150.1958 H   0  0  0  0  0  0  0  0  0  0  0  0
  143.0900  131.3922  149.7730 H   0  0  0  0  0  0  0  0  0  0  0  0
  143.6179  133.1143  149.4046 H   0  0  0  0  0  0  0  0  0  0  0  0
  145.9018  134.0765  150.0806 H   0  0  0  0  0  0  0  0  0  0  0  0
  144.2430  134.6144  149.9110 H   0  0  0  0  0  0  0  0  0  0  0  0
  145.7489  136.5622  150.2186 H   0  0  0  0  0  0  0  0  0  0  0  0
  146.3990  135.8716  151.6869 H   0  0  0  0  0  0  0  0  0  0  0  0
  145.4798  133.6440  152.3807 H   0  0  0  0  0  0  0  0  0  0  0  0
  1  2  1  0  0  0  0
  1 22  1  0  0  0  0
  1 23  1  0  0  0  0
  1 24  1  0  0  0  0
  2  3  1  0  0  0  0
  3  8  1  0  0  0  0
  3  4  2  0  0  0  0
  4  5  1  0  0  0  0
  5  6  2  0  0  0  0
  5 25  1  0  0  0  0
  6  7  1  0  0  0  0
  6 26  1  0  0  0  0
  7  8  2  0  0  0  0
  7 27  1  0  0  0  0
  8  9  1  0  0  0  0
  9 10  1  0  0  0  0
  9 28  1  0  0  0  0
 10 11  2  0  0  0  0
 10 12  1  0  0  0  0
 12 13  1  0  0  0  0
 12 29  1  0  0  0  0
 13 21  1  0  0  0  0
 13 14  1  0  0  0  0
 13 30  1  0  0  0  0
 14 15  1  0  0  0  0
 14 31  1  0  0  0  0
 14 32  1  0  0  0  0
 15 16  1  0  0  0  0
 15 33  1  0  0  0  0
 15 34  1  0  0  0  0
 16 17  1  0  0  0  0
 16 20  1  0  0  0  0
 16 44  1  0  0  0  0
 17 19  1  0  0  0  0
 17 18  1  0  0  0  0
 17 35  1  0  0  0  0
 18 19  1  0  0  0  0
 18 36  1  0  0  0  0
 18 37  1  0  0  0  0
 19 38  1  0  0  0  0
 19 39  1  0  0  0  0
 20 21  1  0  0  0  0
 20 40  1  0  0  0  0
 20 41  1  0  0  0  0
 21 42  1  0  0  0  0
 21 43  1  0  0  0  0
M  CHG  1  16   1
M  END
> <s_m_source_file>
AV-unprocessed.smi

> <i_m_source_file_index>
1263

> <i_lp_mmshare_version>
43012

> <i_f3d_flags>
0

> <s_epik_input>
W0NIM11PYzFuW2NIXVtjSF1bY0hdYzFbTkhdQyg9TylbTkhdW0NIXTJbQ0gyXVtDSDJdTihbQ0gyXVtDSDJdMilbQ0hdM1tDSDJdW0NIMl0z

> <s_epik_cmdline>
J2VwaWtfcHl0aG9uJywgJy1waCcsICc3LjAnLCAnLXRuJywgJzgnLCAnLW1hJywgJzIwMCcsICctbWV0YWxfYmluZGluZycsICctaW1hZScsICc8aW5maWxlLm1hZT4nLCAnLW9tYWUnLCAnPG91dGZpbGUubWFlPic=

> <r_lp_tautomer_probability>
1

> <r_epik_Ionization_Penalty>
0.115628

> <r_epik_Ionization_Penalty_Charging>
0.115549

> <r_epik_Ionization_Penalty_Neutral>
7.89431e-05

> <r_epik_State_Penalty>
0.105184

> <r_epik_Charging_Adjusted_Penalty>
0.220733

> <i_epik_Tot_Q>
1

> <i_epik_Tot_abs_Q>
1

> <r_epik_Metal_State_Penalty>
0.105186

> <b_epik_Metal_Only>
0

> <s_lp_Force_Field>
OPLS_2005

> <r_lp_Energy>
28.8205

> <b_lp_Chiralities_Consistent>
1

> <s_lp_Variant>
AV-unprocessed.smi:1263-1

> <Gold.Version>
5.8.1

> <Gold.Id.Protein>
6NUR|6NUR_protein|mol2

> <Gold.PLP.Fitness>
39.5019

> <Gold.PLP.PLP>
-34.2795

> <Gold.PLP.part.hbond>
-3.0000

> <Gold.PLP.part.metal>
0.0000

> <Gold.PLP.part.buried>
-5.1756

> <Gold.PLP.part.nonpolar>
-33.4580

> <Gold.PLP.part.repulsive>
6.3222

> <Gold.PLP.ligand.clash>
0.0000

> <Gold.PLP.ligand.torsion>
1.1571

> <Gold.PLP.Chemscore.Hbond>
2.0000

> <Gold.PLP.Chemscore.CHOScore>
0.0911

> <Gold.PLP.Chemscore.Metal>
0.0000

> <Gold.Chemscore.Hbonds>
donor molecule, donor type, donor heavy atom, donor atom, acceptor molecule, acceptor atom, score
      L1  H     9    28       P1 10175  1.00
      L1  H    12    29       P1 10175  1.00
      L1  C     5    25       P1  8028  0.09

> <Gold.PLP.Chemscore.Internal.Correction>
1.2634

> <Gold.Rescore>
     Score         DG    S(hbond)    S(metal)    S(lipo)     H(rot)  DE(clash)    DE(int)     intcor
     11.62     -18.39       1.96        0.00      85.79       1.43       2.83       3.94       ----

> <Gold.Chemscore.Fitness>
11.6209

> <Gold.Chemscore.DG>
-18.3932

> <Gold.Chemscore.ZeroCoef>
-5.4800

> <Gold.Chemscore.Hbond>
1.9585

> <Gold.Chemscore.Metal>
0.0000

> <Gold.Chemscore.Lipo>
85.7871

> <Gold.Chemscore.Internal_Hbond>
0.0000

> <Gold.Chemscore.DEClash>
2.8307

> <Gold.Chemscore.DEInternal>
3.9416

> <Gold.Chemscore.Rot>
1.4318

> <Gold.Chemscore.Internal.Correction>
   9.000000E+99

> <Gold.Chemscore.Hbonds>
donor molecule, donor type, donor heavy atom, donor atom, acceptor molecule, acceptor atom, score
      L1  H     9    28       P1 10175  0.98
      L1  H    12    29       P1 10175  0.98

> <Gold.Chemscore.Hbond.Weighted>
-6.5414

> <Gold.Chemscore.Metal.Weighted>
-0.0000

> <Gold.Chemscore.Lipo.Weighted>
-10.0371

> <Gold.Chemscore.Internal_Hbond.Weighted>
0.0000

> <Gold.Chemscore.DEClash.Weighted>
2.8307

> <Gold.Chemscore.DEInternal.Weighted>
3.9416

> <Gold.Chemscore.Rot.Weighted>
3.6653

> <Gold.Chemscore.Internal.Correction.Weighted>
   9.000000E+99

> <Gold.Protein.RotatedTorsions>
[ 6907 6896 6895 6894 ] final  -54.60 input  -60.11 | X-H torsion
[ 7974 7965 7964 7962 ] final  129.73 input  175.53 | X-H torsion
[ 8008 7997 7996 7995 ] final  171.22 input   59.86 | X-H torsion
[ 10167 10162 10161 10158 ] final  -97.96 input  -65.29 | X-H torsion
[ 10718 10713 10712 10709 ] final  153.57 input   66.30 | X-H torsion
[ 10763 10752 10751 10750 ] final   17.79 input  -60.55 | X-H torsion
[ 11005 11000 10999 10996 ] final   62.63 input  -57.11 | X-H torsion

> <Gold.Protein.ActiveResidues>
 VAL166  LYS551  ARG553  GLY616  TRP617  ASP618  TYR619  PRO620  LYS621  CYS622 
 ASP623  PHE694  ASN695  SER759  ASP760  ASP761  ALA762  ILE779  LEU786  VAL792 
 PHE793  MET794  SER795  GLU796  ALA797  LYS798  CYS799  TRP800  GLU811  SER814 

> <Gold.Protein.RotatedAtoms>
  150.8324  134.7582  159.6864 H   0  0  0  0  0  0  0  0  0  0  0  0  # atno 6907 bound_to 6896
  152.4426  134.5556  159.9889 H   0  0  0  0  0  0  0  0  0  0  0  0  # atno 6908 bound_to 6896
  151.5714  133.3352  159.3026 H   0  0  0  0  0  0  0  0  0  0  0  0  # atno 6909 bound_to 6896
  145.0255  139.4093  143.5176 H   0  0  0  0  0  0  0  0  0  0  0  0  # atno 7974 bound_to 7965
  156.1292  140.1517  156.9091 H   0  0  0  0  0  0  0  0  0  0  0  0  # atno 8008 bound_to 7997
  154.4895  140.0855  156.7603 H   0  0  0  0  0  0  0  0  0  0  0  0  # atno 8009 bound_to 7997
  155.4288  140.3426  155.4280 H   0  0  0  0  0  0  0  0  0  0  0  0  # atno 8010 bound_to 7997
  140.2780  143.3300  152.0469 H   0  0  0  0  0  0  0  0  0  0  0  0  # atno 10167 bound_to 10162
  157.2430  131.0763  151.1780 H   0  0  0  0  0  0  0  0  0  0  0  0  # atno 10718 bound_to 10713
  153.1307  135.6739  153.9183 H   0  0  0  0  0  0  0  0  0  0  0  0  # atno 10763 bound_to 10752
  153.8670  135.3074  155.3441 H   0  0  0  0  0  0  0  0  0  0  0  0  # atno 10764 bound_to 10752
  154.7705  135.4942  153.9720 H   0  0  0  0  0  0  0  0  0  0  0  0  # atno 10765 bound_to 10752
  140.0079  134.6341  155.9826 H   0  0  0  0  0  0  0  0  0  0  0  0  # atno 11005 bound_to 11000
  146.3491  139.9776  142.8699 LP  0  0  0  0  0  0  0  0  0  0  0  0  # atno 17320 bound_to 7965
  145.1840  140.9780  143.4250 LP  0  0  0  0  0  0  0  0  0  0  0  0  # atno 17321 bound_to 7965
  139.4970  144.6611  151.6462 LP  0  0  0  0  0  0  0  0  0  0  0  0  # atno 17342 bound_to 10162
  140.5835  143.9904  150.6282 LP  0  0  0  0  0  0  0  0  0  0  0  0  # atno 17343 bound_to 10162
  157.3358  130.7008  149.6352 LP  0  0  0  0  0  0  0  0  0  0  0  0  # atno 17370 bound_to 10713
  155.9669  130.4294  150.4831 LP  0  0  0  0  0  0  0  0  0  0  0  0  # atno 17371 bound_to 10713
  141.1690  133.6537  156.4583 LP  0  0  0  0  0  0  0  0  0  0  0  0  # atno 17394 bound_to 11000
  140.4608  134.6843  157.5084 LP  0  0  0  0  0  0  0  0  0  0  0  0  # atno 17395 bound_to 11000

$$$$
