AV-unprocessed.smi:1978|AV-procd|sdf|8009|dock2
  -GOLD-   2272010193D 1   1.00000     0.00000
 Structure written by MMmdl.
 44 45  0  0  0  0  0  0  0  0  3 V2000
  146.4875  134.2582  162.5159 C   0  0  0  0  0  0  0  0  0  0  0  0
  147.0898  135.2283  161.5583 C   0  0  0  0  0  0  0  0  0  0  0  0
  147.6967  135.0799  160.3432 C   0  0  0  0  0  0  0  0  0  0  0  0
  148.0367  136.4128  159.9885 C   0  0  0  0  0  0  0  0  0  0  0  0
  148.7030  136.6880  158.7650 N   0  0  0  0  0  0  0  0  0  0  0  0
  149.3519  135.8380  157.9483 C   0  0  0  0  0  0  0  0  0  0  0  0
  149.4473  134.6403  158.2414 O   0  0  0  0  0  0  0  0  0  0  0  0
  149.8433  136.4618  156.8430 N   0  5  0  0  0  0  0  0  0  0  0  0
  149.2200  136.4202  155.5204 C   0  0  0  0  0  0  0  0  0  0  0  0
  148.6888  137.8338  155.1234 C   0  0  1  0  0  0  0  0  0  0  0  0
  149.8985  138.7997  154.9292 C   0  0  0  0  0  0  0  0  0  0  0  0
  147.7701  137.7446  153.9290 N   0  3  1  0  0  0  0  0  0  0  0  0
  146.5372  136.9174  154.1410 C   0  0  0  0  0  0  0  0  0  0  0  0
  145.8859  136.5553  152.7955 C   0  0  0  0  0  0  0  0  0  0  0  0
  145.5491  137.8085  151.9798 C   0  0  0  0  0  0  0  0  0  0  0  0
  146.7879  138.7083  151.8514 C   0  0  0  0  0  0  0  0  0  0  0  0
  147.4305  139.0229  153.2199 C   0  0  1  0  0  0  0  0  0  0  0  0
  146.5486  139.9832  154.0552 C   0  0  0  0  0  0  0  0  0  0  0  0
  147.6695  137.2948  160.9062 N   0  0  0  0  0  0  0  0  0  0  0  0
  147.0611  136.5405  161.9164 O   0  0  0  0  0  0  0  0  0  0  0  0
  146.2759  133.3080  162.0256 H   0  0  0  0  0  0  0  0  0  0  0  0
  145.5525  134.6435  162.9228 H   0  0  0  0  0  0  0  0  0  0  0  0
  147.1655  134.0664  163.3474 H   0  0  0  0  0  0  0  0  0  0  0  0
  147.8703  134.1643  159.7981 H   0  0  0  0  0  0  0  0  0  0  0  0
  148.6778  137.6505  158.4631 H   0  0  0  0  0  0  0  0  0  0  0  0
  149.9109  136.0704  154.7524 H   0  0  0  0  0  0  0  0  0  0  0  0
  148.3989  135.7044  155.5074 H   0  0  0  0  0  0  0  0  0  0  0  0
  148.0882  138.2307  155.9439 H   0  0  0  0  0  0  0  0  0  0  0  0
  150.5421  138.8476  155.8103 H   0  0  0  0  0  0  0  0  0  0  0  0
  149.5924  139.8294  154.7613 H   0  0  0  0  0  0  0  0  0  0  0  0
  150.5293  138.5099  154.0863 H   0  0  0  0  0  0  0  0  0  0  0  0
  146.7502  135.9849  154.6609 H   0  0  0  0  0  0  0  0  0  0  0  0
  145.8316  137.4453  154.7821 H   0  0  0  0  0  0  0  0  0  0  0  0
  146.5650  135.9204  152.2248 H   0  0  0  0  0  0  0  0  0  0  0  0
  144.9830  135.9676  152.9637 H   0  0  0  0  0  0  0  0  0  0  0  0
  145.1884  137.5251  150.9906 H   0  0  0  0  0  0  0  0  0  0  0  0
  144.7333  138.3522  152.4564 H   0  0  0  0  0  0  0  0  0  0  0  0
  147.5235  138.2096  151.2186 H   0  0  0  0  0  0  0  0  0  0  0  0
  146.5242  139.6326  151.3360 H   0  0  0  0  0  0  0  0  0  0  0  0
  148.3550  139.5454  152.9790 H   0  0  0  0  0  0  0  0  0  0  0  0
  146.4598  140.9487  153.5567 H   0  0  0  0  0  0  0  0  0  0  0  0
  146.9527  140.1698  155.0483 H   0  0  0  0  0  0  0  0  0  0  0  0
  145.5365  139.6074  154.1966 H   0  0  0  0  0  0  0  0  0  0  0  0
  148.3193  137.2294  153.2558 H   0  0  0  0  0  0  0  0  0  0  0  0
  1  2  1  0  0  0  0
  1 21  1  0  0  0  0
  1 22  1  0  0  0  0
  1 23  1  0  0  0  0
  2 20  1  0  0  0  0
  2  3  2  0  0  0  0
  3  4  1  0  0  0  0
  3 24  1  0  0  0  0
  4  5  1  0  0  0  0
  4 19  2  0  0  0  0
  5  6  1  0  0  0  0
  5 25  1  0  0  0  0
  6  7  2  0  0  0  0
  6  8  1  0  0  0  0
  8  9  1  0  0  0  0
  9 10  1  0  0  0  0
  9 26  1  0  0  0  0
  9 27  1  0  0  0  0
 10 11  1  0  0  0  0
 10 12  1  0  0  0  0
 10 28  1  0  0  0  0
 11 29  1  0  0  0  0
 11 30  1  0  0  0  0
 11 31  1  0  0  0  0
 12 17  1  0  0  0  0
 12 13  1  0  0  0  0
 12 44  1  0  0  0  0
 13 14  1  0  0  0  0
 13 32  1  0  0  0  0
 13 33  1  0  0  0  0
 14 15  1  0  0  0  0
 14 34  1  0  0  0  0
 14 35  1  0  0  0  0
 15 16  1  0  0  0  0
 15 36  1  0  0  0  0
 15 37  1  0  0  0  0
 16 17  1  0  0  0  0
 16 38  1  0  0  0  0
 16 39  1  0  0  0  0
 17 18  1  0  0  0  0
 17 40  1  0  0  0  0
 18 41  1  0  0  0  0
 18 42  1  0  0  0  0
 18 43  1  0  0  0  0
 19 20  1  0  0  0  0
M  CHG  1   8  -1
M  CHG  1  12   1
M  END
> <s_m_source_file>
AV-unprocessed.smi

> <i_m_source_file_index>
1978

> <i_lp_mmshare_version>
43012

> <i_f3d_flags>
0

> <s_epik_input>
W0NIM11jMVtjSF1jKG5vMSlbTkhdQyg9TylbTkhdW0NIMl1bQ0BIXShbQ0gzXSlOMltDSDJdW0NIMl1bQ0gyXVtDSDJdW0NASF0yW0NIM10=

> <s_epik_cmdline>
J2VwaWtfcHl0aG9uJywgJy1waCcsICc3LjAnLCAnLXRuJywgJzgnLCAnLW1hJywgJzIwMCcsICctbWV0YWxfYmluZGluZycsICctaW1hZScsICc8aW5maWxlLm1hZT4nLCAnLW9tYWUnLCAnPG91dGZpbGUubWFlPic=

> <r_epik_Ionization_Penalty>
6.7666

> <r_epik_Ionization_Penalty_Charging>
6.7666

> <r_epik_Ionization_Penalty_Neutral>
5.77131e-06

> <r_epik_State_Penalty>
6.79217

> <r_epik_Charging_Adjusted_Penalty>
13.5588

> <i_epik_Tot_Q>
0

> <i_epik_Tot_abs_Q>
2

> <r_epik_Metal_State_Penalty>
2.72569

> <b_epik_Metal_Only>
1

> <s_lp_Force_Field>
OPLS_2005

> <r_lp_Energy>
25.8375

> <b_lp_Chiralities_Consistent>
1

> <s_lp_Variant>
AV-unprocessed.smi:1978-18

> <Gold.Version>
5.8.1

> <Gold.Id.Protein>
6NUR|6NUR_protein|mol2

> <Gold.PLP.Fitness>
39.3433

> <Gold.PLP.PLP>
-26.9129

> <Gold.PLP.part.hbond>
-4.0000

> <Gold.PLP.part.metal>
0.0000

> <Gold.PLP.part.buried>
1.3902

> <Gold.PLP.part.nonpolar>
-23.7705

> <Gold.PLP.part.repulsive>
0.1387

> <Gold.PLP.ligand.clash>
0.0000

> <Gold.PLP.ligand.torsion>
0.9906

> <Gold.PLP.Chemscore.Hbond>
4.7600

> <Gold.PLP.Chemscore.CHOScore>
0.0000

> <Gold.PLP.Chemscore.Metal>
0.0000

> <Gold.Chemscore.Hbonds>
donor molecule, donor type, donor heavy atom, donor atom, acceptor molecule, acceptor atom, score
      L1  H    12    44       P1  7948  2.00
      P1  H  6896  6908       L1     7  1.00
      P1  H  6931  6943       L1    19  0.82
      P1  H  6934  6947       L1    19  0.90

> <Gold.PLP.Chemscore.Internal.Correction>
0.1315

> <Gold.Rescore>
     Score         DG    S(hbond)    S(metal)    S(lipo)     H(rot)  DE(clash)    DE(int)     intcor
     17.38     -20.36       3.40        0.00      63.37       1.52       0.54       2.44       ----

> <Gold.Chemscore.Fitness>
17.3773

> <Gold.Chemscore.DG>
-20.3606

> <Gold.Chemscore.ZeroCoef>
-5.4800

> <Gold.Chemscore.Hbond>
3.3998

> <Gold.Chemscore.Metal>
0.0000

> <Gold.Chemscore.Lipo>
63.3661

> <Gold.Chemscore.Internal_Hbond>
0.0000

> <Gold.Chemscore.DEClash>
0.5444

> <Gold.Chemscore.DEInternal>
2.4390

> <Gold.Chemscore.Rot>
1.5190

> <Gold.Chemscore.Internal.Correction>
   9.000000E+99

> <Gold.Chemscore.Hbonds>
donor molecule, donor type, donor heavy atom, donor atom, acceptor molecule, acceptor atom, score
      L1  H    12    44       P1  7948  1.00
      P1  H  6896  6908       L1     7  0.93
      P1  H  6931  6943       L1    19  0.27
      P1  H  6934  6947       L1    19  0.75

> <Gold.Chemscore.Hbond.Weighted>
-11.3555

> <Gold.Chemscore.Metal.Weighted>
-0.0000

> <Gold.Chemscore.Lipo.Weighted>
-7.4138

> <Gold.Chemscore.Internal_Hbond.Weighted>
0.0000

> <Gold.Chemscore.DEClash.Weighted>
0.5444

> <Gold.Chemscore.DEInternal.Weighted>
2.4390

> <Gold.Chemscore.Rot.Weighted>
3.8886

> <Gold.Chemscore.Internal.Correction.Weighted>
   9.000000E+99

> <Gold.Protein.RotatedTorsions>
[ 6907 6896 6895 6894 ] final  148.32 input  -60.11 | X-H torsion
[ 7974 7965 7964 7962 ] final -148.98 input  175.53 | X-H torsion
[ 8008 7997 7996 7995 ] final  -75.02 input   59.86 | X-H torsion
[ 10167 10162 10161 10158 ] final -110.27 input  -65.29 | X-H torsion
[ 10718 10713 10712 10709 ] final  -32.20 input   66.30 | X-H torsion
[ 10763 10752 10751 10750 ] final  -41.13 input  -60.55 | X-H torsion
[ 11005 11000 10999 10996 ] final  173.26 input  -57.11 | X-H torsion

> <Gold.Protein.ActiveResidues>
 VAL166  LYS551  ARG553  GLY616  TRP617  ASP618  TYR619  PRO620  LYS621  CYS622 
 ASP623  PHE694  ASN695  SER759  ASP760  ASP761  ALA762  ILE779  LEU786  VAL792 
 PHE793  MET794  SER795  GLU796  ALA797  LYS798  CYS799  TRP800  GLU811  SER814 

> <Gold.Protein.RotatedAtoms>
  152.1430  133.4475  159.4775 H   0  0  0  0  0  0  0  0  0  0  0  0  # atno 6907 bound_to 6896
  150.6888  134.2282  159.4433 H   0  0  0  0  0  0  0  0  0  0  0  0  # atno 6908 bound_to 6896
  152.0174  134.9842  160.0620 H   0  0  0  0  0  0  0  0  0  0  0  0  # atno 6909 bound_to 6896
  144.7996  140.5125  143.5716 H   0  0  0  0  0  0  0  0  0  0  0  0  # atno 7974 bound_to 7965
  154.5380  140.0751  156.8461 H   0  0  0  0  0  0  0  0  0  0  0  0  # atno 8008 bound_to 7997
  155.3238  140.3397  155.4222 H   0  0  0  0  0  0  0  0  0  0  0  0  # atno 8009 bound_to 7997
  156.1847  140.1664  156.8194 H   0  0  0  0  0  0  0  0  0  0  0  0  # atno 8010 bound_to 7997
  140.1462  143.4237  152.1527 H   0  0  0  0  0  0  0  0  0  0  0  0  # atno 10167 bound_to 10162
  156.3779  130.4351  149.7492 H   0  0  0  0  0  0  0  0  0  0  0  0  # atno 10718 bound_to 10713
  153.9573  135.6743  153.4744 H   0  0  0  0  0  0  0  0  0  0  0  0  # atno 10763 bound_to 10752
  153.0855  135.4901  154.8585 H   0  0  0  0  0  0  0  0  0  0  0  0  # atno 10764 bound_to 10752
  154.7292  135.3134  154.8879 H   0  0  0  0  0  0  0  0  0  0  0  0  # atno 10765 bound_to 10752
  140.3386  134.7296  157.4186 H   0  0  0  0  0  0  0  0  0  0  0  0  # atno 11005 bound_to 11000
  145.5587  139.1478  143.3353 LP  0  0  0  0  0  0  0  0  0  0  0  0  # atno 17320 bound_to 7965
  146.2273  140.5724  142.8990 LP  0  0  0  0  0  0  0  0  0  0  0  0  # atno 17321 bound_to 7965
  139.5448  144.7288  151.4619 LP  0  0  0  0  0  0  0  0  0  0  0  0  # atno 17342 bound_to 10162
  140.6730  143.8252  150.7023 LP  0  0  0  0  0  0  0  0  0  0  0  0  # atno 17343 bound_to 10162
  156.4594  130.7945  151.2965 LP  0  0  0  0  0  0  0  0  0  0  0  0  # atno 17370 bound_to 10713
  157.7490  131.0070  150.3174 LP  0  0  0  0  0  0  0  0  0  0  0  0  # atno 17371 bound_to 10713
  140.0800  134.5744  155.8550 LP  0  0  0  0  0  0  0  0  0  0  0  0  # atno 17394 bound_to 11000
  141.2044  133.6639  156.6122 LP  0  0  0  0  0  0  0  0  0  0  0  0  # atno 17395 bound_to 11000

$$$$
