AV-unprocessed.smi:33|AV-procd|sdf|210|dock7
  -GOLD-   2262015503D 1   1.00000     0.00000
 Structure written by MMmdl.
 67 72  0  0  0  0  0  0  0  0  1 V2000
  151.3322  141.1884  155.6535 O   0  0  0  0  0  0  0  0  0  0  0  0
  150.9054  141.4382  156.7825 C   0  0  0  0  0  0  0  0  0  0  0  0
  149.7937  140.8818  157.2992 O   0  0  0  0  0  0  0  0  0  0  0  0
  149.0376  139.9584  156.5339 C   0  0  0  0  0  0  0  0  0  0  0  0
  149.7864  138.6217  156.4947 C   0  0  1  0  0  0  0  0  0  0  0  0
  148.8813  137.5375  156.2884 O   0  0  0  0  0  0  0  0  0  0  0  0
  149.5251  136.4939  155.6152 C   0  0  2  0  0  0  0  0  0  0  0  0
  149.5401  135.2919  156.5071 N   0  0  0  0  0  0  0  0  0  0  0  0
  150.6478  134.5875  156.9253 C   0  0  0  0  0  0  0  0  0  0  0  0
  150.4062  133.5694  157.7055 N   0  0  0  0  0  0  0  0  0  0  0  0
  149.0234  133.5608  157.8244 C   0  0  0  0  0  0  0  0  0  0  0  0
  148.0986  132.7354  158.5190 C   0  0  0  0  0  0  0  0  0  0  0  0
  148.4813  131.6833  159.2799 N   0  0  0  0  0  0  0  0  0  0  0  0
  149.5041  130.7902  158.7179 C   0  0  0  0  0  0  0  0  0  0  0  0
  150.2287  130.1419  159.4751 O   0  0  0  0  0  0  0  0  0  0  0  0
  149.6984  130.6990  157.2309 C   0  0  0  0  0  0  0  0  0  0  0  0
  148.5793  130.6878  156.3698 C   0  0  0  0  0  0  0  0  0  0  0  0
  148.7581  130.6189  154.9745 C   0  0  0  0  0  0  0  0  0  0  0  0
  150.0562  130.5805  154.4308 C   0  0  0  0  0  0  0  0  0  0  0  0
  151.1766  130.6194  155.2824 C   0  0  0  0  0  0  0  0  0  0  0  0
  150.9988  130.6868  156.6776 C   0  0  0  0  0  0  0  0  0  0  0  0
  147.8443  131.5338  160.5969 C   0  0  0  0  0  0  0  0  0  0  0  0
  147.7930  130.4207  161.1236 O   0  0  0  0  0  0  0  0  0  0  0  0
  147.2072  132.7138  161.2752 C   0  0  0  0  0  0  0  0  0  0  0  0
  145.9796  132.5589  161.9562 C   0  0  0  0  0  0  0  0  0  0  0  0
  145.3844  133.6574  162.6059 C   0  0  0  0  0  0  0  0  0  0  0  0
  146.0210  134.9130  162.5948 C   0  0  0  0  0  0  0  0  0  0  0  0
  147.2587  135.0678  161.9420 C   0  0  0  0  0  0  0  0  0  0  0  0
  147.8545  133.9700  161.2917 C   0  0  0  0  0  0  0  0  0  0  0  0
  146.7767  133.0261  158.4106 N   0  0  0  0  0  0  0  0  0  0  0  0
  146.3861  134.0642  157.6661 C   0  0  0  0  0  0  0  0  0  0  0  0
  147.1364  134.9205  156.9694 N   0  0  0  0  0  0  0  0  0  0  0  0
  148.4660  134.6329  157.0741 C   0  0  0  0  0  0  0  0  0  0  0  0
  150.9474  136.9682  155.2845 C   0  0  1  0  0  0  0  0  0  0  0  0
  151.4009  136.5619  154.0090 O   0  0  0  0  0  0  0  0  0  0  0  0
  150.7735  138.4775  155.3387 C   0  0  1  0  0  0  0  0  0  0  0  0
  150.2003  138.9326  154.2202 F   0  0  0  0  0  0  0  0  0  0  0  0
  151.5666  142.3899  157.7216 C   0  0  0  0  0  0  0  0  0  0  0  0
  152.1202  141.9012  158.9280 C   0  0  0  0  0  0  0  0  0  0  0  0
  152.7525  142.7759  159.8330 C   0  0  0  0  0  0  0  0  0  0  0  0
  152.8390  144.1498  159.5422 C   0  0  0  0  0  0  0  0  0  0  0  0
  152.2921  144.6486  158.3455 C   0  0  0  0  0  0  0  0  0  0  0  0
  151.6593  143.7756  157.4393 C   0  0  0  0  0  0  0  0  0  0  0  0
  148.0409  139.8315  156.9592 H   0  0  0  0  0  0  0  0  0  0  0  0
  148.9200  140.3478  155.5217 H   0  0  0  0  0  0  0  0  0  0  0  0
  150.3245  138.4805  157.4315 H   0  0  0  0  0  0  0  0  0  0  0  0
  148.9406  136.2034  154.7410 H   0  0  0  0  0  0  0  0  0  0  0  0
  151.6526  134.8588  156.6360 H   0  0  0  0  0  0  0  0  0  0  0  0
  147.5784  130.7172  156.7760 H   0  0  0  0  0  0  0  0  0  0  0  0
  147.8985  130.5971  154.3212 H   0  0  0  0  0  0  0  0  0  0  0  0
  150.1927  130.5284  153.3608 H   0  0  0  0  0  0  0  0  0  0  0  0
  152.1729  130.5995  154.8659 H   0  0  0  0  0  0  0  0  0  0  0  0
  151.8659  130.7224  157.3215 H   0  0  0  0  0  0  0  0  0  0  0  0
  145.4815  131.6003  161.9712 H   0  0  0  0  0  0  0  0  0  0  0  0
  144.4390  133.5362  163.1138 H   0  0  0  0  0  0  0  0  0  0  0  0
  145.5634  135.7552  163.0926 H   0  0  0  0  0  0  0  0  0  0  0  0
  147.7523  136.0284  161.9407 H   0  0  0  0  0  0  0  0  0  0  0  0
  148.8071  134.0999  160.7985 H   0  0  0  0  0  0  0  0  0  0  0  0
  145.3205  134.2351  157.6248 H   0  0  0  0  0  0  0  0  0  0  0  0
  151.6465  136.6435  156.0563 H   0  0  0  0  0  0  0  0  0  0  0  0
  150.7241  136.7499  153.3766 H   0  0  0  0  0  0  0  0  0  0  0  0
  151.7067  139.0211  155.4887 H   0  0  0  0  0  0  0  0  0  0  0  0
  152.0662  140.8500  159.1726 H   0  0  0  0  0  0  0  0  0  0  0  0
  153.1718  142.3910  160.7509 H   0  0  0  0  0  0  0  0  0  0  0  0
  153.3244  144.8205  160.2360 H   0  0  0  0  0  0  0  0  0  0  0  0
  152.3585  145.7030  158.1210 H   0  0  0  0  0  0  0  0  0  0  0  0
  151.2515  144.1915  156.5295 H   0  0  0  0  0  0  0  0  0  0  0  0
  1  2  2  0  0  0  0
  2  3  1  0  0  0  0
  2 38  1  0  0  0  0
  3  4  1  0  0  0  0
  4  5  1  0  0  0  0
  4 44  1  0  0  0  0
  4 45  1  0  0  0  0
  5 36  1  0  0  0  0
  5  6  1  0  0  0  0
  5 46  1  0  0  0  0
  6  7  1  0  0  0  0
  7  8  1  0  0  0  0
  7 34  1  0  0  0  0
  7 47  1  0  0  0  0
  8 33  1  0  0  0  0
  8  9  1  0  0  0  0
  9 10  2  0  0  0  0
  9 48  1  0  0  0  0
 10 11  1  0  0  0  0
 11 33  2  0  0  0  0
 11 12  1  0  0  0  0
 12 13  1  0  0  0  0
 12 30  2  0  0  0  0
 13 14  1  0  0  0  0
 13 22  1  0  0  0  0
 14 15  2  0  0  0  0
 14 16  1  0  0  0  0
 16 21  1  0  0  0  0
 16 17  2  0  0  0  0
 17 18  1  0  0  0  0
 17 49  1  0  0  0  0
 18 19  2  0  0  0  0
 18 50  1  0  0  0  0
 19 20  1  0  0  0  0
 19 51  1  0  0  0  0
 20 21  2  0  0  0  0
 20 52  1  0  0  0  0
 21 53  1  0  0  0  0
 22 23  2  0  0  0  0
 22 24  1  0  0  0  0
 24 29  1  0  0  0  0
 24 25  2  0  0  0  0
 25 26  1  0  0  0  0
 25 54  1  0  0  0  0
 26 27  2  0  0  0  0
 26 55  1  0  0  0  0
 27 28  1  0  0  0  0
 27 56  1  0  0  0  0
 28 29  2  0  0  0  0
 28 57  1  0  0  0  0
 29 58  1  0  0  0  0
 30 31  1  0  0  0  0
 31 32  2  0  0  0  0
 31 59  1  0  0  0  0
 32 33  1  0  0  0  0
 34 35  1  0  0  0  0
 34 36  1  0  0  0  0
 34 60  1  0  0  0  0
 35 61  1  0  0  0  0
 36 37  1  0  0  0  0
 36 62  1  0  0  0  0
 38 43  1  0  0  0  0
 38 39  2  0  0  0  0
 39 40  1  0  0  0  0
 39 63  1  0  0  0  0
 40 41  2  0  0  0  0
 40 64  1  0  0  0  0
 41 42  1  0  0  0  0
 41 65  1  0  0  0  0
 42 43  2  0  0  0  0
 42 66  1  0  0  0  0
 43 67  1  0  0  0  0
M  END
> <s_m_source_file>
AV-unprocessed.smi

> <i_m_source_file_index>
33

> <i_lp_mmshare_version>
43012

> <i_f3d_flags>
0

> <s_epik_input>
W2NIXTFbY0hdW2NIXVtjSF1bY0hdYzFDKD1PKU9bQ0gyXVtDQEBIXTJPW0NASF0oW0NAQEhdKFtPSF0pW0NAQEhdMkYpbihbY0hdbjMpYyhjMzQpbltjSF1uYzROKEMoPU8pYzVbY0hdW2NIXVtjSF1bY0hdW2NIXTUpQyg9TyljNltjSF1bY0hdW2NIXVtjSF1bY0hdNg==

> <s_epik_cmdline>
J2VwaWtfcHl0aG9uJywgJy1waCcsICc3LjAnLCAnLXRuJywgJzgnLCAnLW1hJywgJzIwMCcsICctbWV0YWxfYmluZGluZycsICctaW1hZScsICc8aW5maWxlLm1hZT4nLCAnLW9tYWUnLCAnPG91dGZpbGUubWFlPic=

> <r_lp_tautomer_probability>
1

> <r_epik_Ionization_Penalty>
0.00067664

> <r_epik_Ionization_Penalty_Charging>
0

> <r_epik_Ionization_Penalty_Neutral>
0.00067664

> <r_epik_State_Penalty>
0.000428095

> <r_epik_Charging_Adjusted_Penalty>
0.000428095

> <i_epik_Tot_Q>
0

> <i_epik_Tot_abs_Q>
0

> <r_epik_Metal_State_Penalty>
-0

> <b_epik_Metal_Only>
0

> <s_epik_Chemistry_Notes>
This compound has an ester and may undergo hydrolysis at high or low pH. This compound contains an acetal/aminal-like group ( X-CH(R)-Y where X, Y are N, S, or O) that may be acid/base labile, releasing an aldehyde.

> <s_lp_Force_Field>
OPLS_2005

> <r_lp_Energy>
69.9903

> <b_lp_Chiralities_Consistent>
1

> <s_lp_Variant>
AV-unprocessed.smi:33-12

> <Gold.Version>
5.8.1

> <Gold.Id.Protein>
6NUR|6NUR_protein|mol2

> <Gold.PLP.Fitness>
63.6638

> <Gold.PLP.PLP>
-59.4154

> <Gold.PLP.part.hbond>
-4.4977

> <Gold.PLP.part.metal>
0.0000

> <Gold.PLP.part.buried>
-3.8589

> <Gold.PLP.part.nonpolar>
-50.3036

> <Gold.PLP.part.repulsive>
0.0973

> <Gold.PLP.ligand.clash>
0.0100

> <Gold.PLP.ligand.torsion>
4.1775

> <Gold.PLP.Chemscore.Hbond>
2.5819

> <Gold.PLP.Chemscore.CHOScore>
0.0000

> <Gold.PLP.Chemscore.Metal>
0.0000

> <Gold.Chemscore.Hbonds>
donor molecule, donor type, donor heavy atom, donor atom, acceptor molecule, acceptor atom, score
      L1  H    35    61       P1  7949  0.15
      P1  H  6896  6908       L1    10  0.99
      P1  H  7989  7998       L1     1  0.33
      P1  H 10752 10765       L1    35  1.00

> <Gold.PLP.Chemscore.Internal.Correction>
4.8678

> <Gold.Rescore>
     Score         DG    S(hbond)    S(metal)    S(lipo)     H(rot)  DE(clash)    DE(int)     intcor
     15.21     -23.15       1.99        0.00     149.41       2.52       0.66       7.28       ----

> <Gold.Chemscore.Fitness>
15.2068

> <Gold.Chemscore.DG>
-23.1523

> <Gold.Chemscore.ZeroCoef>
-5.4800

> <Gold.Chemscore.Hbond>
1.9923

> <Gold.Chemscore.Metal>
0.0000

> <Gold.Chemscore.Lipo>
149.4129

> <Gold.Chemscore.Internal_Hbond>
0.0000

> <Gold.Chemscore.DEClash>
0.6624

> <Gold.Chemscore.DEInternal>
7.2832

> <Gold.Chemscore.Rot>
2.5247

> <Gold.Chemscore.Internal.Correction>
   9.000000E+99

> <Gold.Chemscore.Hbonds>
donor molecule, donor type, donor heavy atom, donor atom, acceptor molecule, acceptor atom, score
      L1  H    35    61       P1  7949  0.01
      P1  H  6896  6908       L1    10  0.34
      P1  H  7989  7998       L1     1  0.34
      P1  H 10752 10765       L1    35  0.70

> <Gold.Chemscore.Hbond.Weighted>
-6.6543

> <Gold.Chemscore.Metal.Weighted>
-0.0000

> <Gold.Chemscore.Lipo.Weighted>
-17.4813

> <Gold.Chemscore.Internal_Hbond.Weighted>
0.0000

> <Gold.Chemscore.DEClash.Weighted>
0.6624

> <Gold.Chemscore.DEInternal.Weighted>
7.2832

> <Gold.Chemscore.Rot.Weighted>
6.4633

> <Gold.Chemscore.Internal.Correction.Weighted>
   9.000000E+99

> <Gold.Protein.RotatedTorsions>
[ 6907 6896 6895 6894 ] final  111.18 input  -60.11 | X-H torsion
[ 7974 7965 7964 7962 ] final  -55.79 input  175.53 | X-H torsion
[ 8008 7997 7996 7995 ] final  161.69 input   59.86 | X-H torsion
[ 10167 10162 10161 10158 ] final   52.46 input  -65.29 | X-H torsion
[ 10718 10713 10712 10709 ] final -129.14 input   66.30 | X-H torsion
[ 10763 10752 10751 10750 ] final  157.10 input  -60.55 | X-H torsion
[ 11005 11000 10999 10996 ] final   -5.66 input  -57.11 | X-H torsion

> <Gold.Protein.ActiveResidues>
 VAL166  LYS551  ARG553  GLY616  TRP617  ASP618  TYR619  PRO620  LYS621  CYS622 
 ASP623  PHE694  ASN695  SER759  ASP760  ASP761  ALA762  ILE779  LEU786  VAL792 
 PHE793  MET794  SER795  GLU796  ALA797  LYS798  CYS799  TRP800  GLU811  SER814 

> <Gold.Protein.RotatedAtoms>
  152.4983  133.8695  159.7290 H   0  0  0  0  0  0  0  0  0  0  0  0  # atno 6907 bound_to 6896
  150.9185  133.6900  159.2844 H   0  0  0  0  0  0  0  0  0  0  0  0  # atno 6908 bound_to 6896
  151.4285  135.1011  159.9687 H   0  0  0  0  0  0  0  0  0  0  0  0  # atno 6909 bound_to 6896
  145.8701  140.8222  142.9893 H   0  0  0  0  0  0  0  0  0  0  0  0  # atno 7974 bound_to 7965
  156.2085  140.1770  156.7746 H   0  0  0  0  0  0  0  0  0  0  0  0  # atno 8008 bound_to 7997
  154.5689  140.0686  156.8964 H   0  0  0  0  0  0  0  0  0  0  0  0  # atno 8009 bound_to 7997
  155.2709  140.3342  155.4268 H   0  0  0  0  0  0  0  0  0  0  0  0  # atno 8010 bound_to 7997
  140.2511  144.3478  150.6348 H   0  0  0  0  0  0  0  0  0  0  0  0  # atno 10167 bound_to 10162
  156.2018  130.6862  151.0548 H   0  0  0  0  0  0  0  0  0  0  0  0  # atno 10718 bound_to 10713
  154.1949  135.2793  155.3010 H   0  0  0  0  0  0  0  0  0  0  0  0  # atno 10763 bound_to 10752
  154.5900  135.5563  153.7272 H   0  0  0  0  0  0  0  0  0  0  0  0  # atno 10764 bound_to 10752
  153.0103  135.6366  154.2087 H   0  0  0  0  0  0  0  0  0  0  0  0  # atno 10765 bound_to 10752
  140.6936  133.9050  155.8635 H   0  0  0  0  0  0  0  0  0  0  0  0  # atno 11005 bound_to 11000
  144.6726  140.1226  143.7449 LP  0  0  0  0  0  0  0  0  0  0  0  0  # atno 17320 bound_to 7965
  145.9147  139.2508  143.1417 LP  0  0  0  0  0  0  0  0  0  0  0  0  # atno 17321 bound_to 7965
  140.6040  143.2167  151.7017 LP  0  0  0  0  0  0  0  0  0  0  0  0  # atno 17342 bound_to 10162
  139.5046  144.3748  152.0434 LP  0  0  0  0  0  0  0  0  0  0  0  0  # atno 17343 bound_to 10162
  157.6990  131.0783  150.6880 LP  0  0  0  0  0  0  0  0  0  0  0  0  # atno 17370 bound_to 10713
  156.6938  130.4603  149.5592 LP  0  0  0  0  0  0  0  0  0  0  0  0  # atno 17371 bound_to 10713
  141.0221  134.0874  157.4109 LP  0  0  0  0  0  0  0  0  0  0  0  0  # atno 17394 bound_to 11000
  139.8916  135.0120  156.6802 LP  0  0  0  0  0  0  0  0  0  0  0  0  # atno 17395 bound_to 11000

$$$$
