AV-unprocessed.smi:1413|AV-procd|sdf|5752|dock8
  -GOLD-   22720 5393D 1   1.00000     0.00000
 Structure written by MMmdl.
 53 55  0  0  0  0  0  0  0  0  1 V2000
  153.5533  141.4273  160.1325 C   0  0  0  0  0  0  0  0  0  0  0  0
  152.3696  142.0276  159.3670 C   0  0  2  0  0  0  0  0  0  0  0  0
  151.8502  141.0754  158.2743 C   0  0  0  0  0  0  0  0  0  0  0  0
  150.8025  141.7269  157.5015 N   0  0  0  0  0  0  0  0  0  0  0  0
  150.1669  140.8661  156.5957 C   0  0  0  0  0  0  0  0  0  0  0  0
  148.9866  140.2058  156.9939 C   0  0  0  0  0  0  0  0  0  0  0  0
  148.3517  139.3444  156.0795 C   0  0  0  0  0  0  0  0  0  0  0  0
  148.9190  139.1577  154.8031 C   0  0  0  0  0  0  0  0  0  0  0  0
  148.2463  138.3014  153.8906 N   0  0  0  0  0  0  0  0  0  0  0  0
  146.9247  138.1853  153.6776 C   0  0  0  0  0  0  0  0  0  0  0  0
  146.0557  138.8577  154.2319 O   0  0  0  0  0  0  0  0  0  0  0  0
  146.6671  137.2502  152.7516 N   0  0  0  0  0  0  0  0  0  0  0  0
  145.3475  136.9042  152.2279 C   0  0  2  0  0  0  0  0  0  0  0  0
  144.3927  136.6661  153.4080 C   0  0  0  0  0  0  0  0  0  0  0  0
  145.4710  135.6703  151.3125 C   0  0  1  0  0  0  0  0  0  0  0  0
  146.0873  134.4353  151.9770 C   0  0  0  0  0  0  0  0  0  0  0  0
  145.4306  133.2594  151.2661 C   0  0  0  0  0  0  0  0  0  0  0  0
  144.3686  133.9055  150.3759 C   0  0  0  0  0  0  0  0  0  0  0  0
  144.1877  135.1990  150.9286 O   0  0  0  0  0  0  0  0  0  0  0  0
  150.1026  139.8718  154.4964 C   0  0  0  0  0  0  0  0  0  0  0  0
  150.7139  140.7027  155.3679 N   0  0  0  0  0  0  0  0  0  0  0  0
  151.2501  142.9821  156.9102 C   0  0  0  0  0  0  0  0  0  0  0  0
  151.8094  143.9265  157.9929 C   0  0  1  0  0  0  0  0  0  0  0  0
  150.7201  144.5630  158.8745 C   0  0  0  0  0  0  0  0  0  0  0  0
  152.8030  143.2502  158.7687 O   0  0  0  0  0  0  0  0  0  0  0  0
  153.2730  140.4925  160.6186 H   0  0  0  0  0  0  0  0  0  0  0  0
  153.9048  142.1113  160.9055 H   0  0  0  0  0  0  0  0  0  0  0  0
  154.3904  141.2201  159.4650 H   0  0  0  0  0  0  0  0  0  0  0  0
  151.5730  142.2321  160.0826 H   0  0  0  0  0  0  0  0  0  0  0  0
  152.6668  140.7851  157.6112 H   0  0  0  0  0  0  0  0  0  0  0  0
  151.4616  140.1618  158.7265 H   0  0  0  0  0  0  0  0  0  0  0  0
  148.5718  140.3588  157.9795 H   0  0  0  0  0  0  0  0  0  0  0  0
  147.4424  138.8323  156.3592 H   0  0  0  0  0  0  0  0  0  0  0  0
  148.8433  137.7520  153.2899 H   0  0  0  0  0  0  0  0  0  0  0  0
  147.4513  136.7564  152.3518 H   0  0  0  0  0  0  0  0  0  0  0  0
  144.9465  137.7309  151.6390 H   0  0  0  0  0  0  0  0  0  0  0  0
  143.3833  136.4422  153.0630 H   0  0  0  0  0  0  0  0  0  0  0  0
  144.3292  137.5493  154.0446 H   0  0  0  0  0  0  0  0  0  0  0  0
  144.7252  135.8323  154.0273 H   0  0  0  0  0  0  0  0  0  0  0  0
  146.0330  135.9213  150.4103 H   0  0  0  0  0  0  0  0  0  0  0  0
  147.1745  134.4229  151.8924 H   0  0  0  0  0  0  0  0  0  0  0  0
  145.8349  134.4038  153.0378 H   0  0  0  0  0  0  0  0  0  0  0  0
  146.1433  132.6819  150.6769 H   0  0  0  0  0  0  0  0  0  0  0  0
  144.9734  132.5873  151.9931 H   0  0  0  0  0  0  0  0  0  0  0  0
  144.7300  134.0005  149.3508 H   0  0  0  0  0  0  0  0  0  0  0  0
  143.4342  133.3443  150.3583 H   0  0  0  0  0  0  0  0  0  0  0  0
  150.5736  139.8074  153.5279 H   0  0  0  0  0  0  0  0  0  0  0  0
  152.0286  142.7757  156.1744 H   0  0  0  0  0  0  0  0  0  0  0  0
  150.4267  143.4597  156.3776 H   0  0  0  0  0  0  0  0  0  0  0  0
  152.3230  144.7445  157.4870 H   0  0  0  0  0  0  0  0  0  0  0  0
  150.0488  145.1774  158.2739 H   0  0  0  0  0  0  0  0  0  0  0  0
  151.1627  145.2057  159.6360 H   0  0  0  0  0  0  0  0  0  0  0  0
  150.1084  143.8165  159.3803 H   0  0  0  0  0  0  0  0  0  0  0  0
  1  2  1  0  0  0  0
  1 26  1  0  0  0  0
  1 27  1  0  0  0  0
  1 28  1  0  0  0  0
  2 25  1  0  0  0  0
  2  3  1  0  0  0  0
  2 29  1  0  0  0  0
  3  4  1  0  0  0  0
  3 30  1  0  0  0  0
  3 31  1  0  0  0  0
  4  5  1  0  0  0  0
  4 22  1  0  0  0  0
  5 21  1  0  0  0  0
  5  6  2  0  0  0  0
  6  7  1  0  0  0  0
  6 32  1  0  0  0  0
  7  8  2  0  0  0  0
  7 33  1  0  0  0  0
  8  9  1  0  0  0  0
  8 20  1  0  0  0  0
  9 10  1  0  0  0  0
  9 34  1  0  0  0  0
 10 11  2  0  0  0  0
 10 12  1  0  0  0  0
 12 13  1  0  0  0  0
 12 35  1  0  0  0  0
 13 14  1  0  0  0  0
 13 15  1  0  0  0  0
 13 36  1  0  0  0  0
 14 37  1  0  0  0  0
 14 38  1  0  0  0  0
 14 39  1  0  0  0  0
 15 19  1  0  0  0  0
 15 16  1  0  0  0  0
 15 40  1  0  0  0  0
 16 17  1  0  0  0  0
 16 41  1  0  0  0  0
 16 42  1  0  0  0  0
 17 18  1  0  0  0  0
 17 43  1  0  0  0  0
 17 44  1  0  0  0  0
 18 19  1  0  0  0  0
 18 45  1  0  0  0  0
 18 46  1  0  0  0  0
 20 21  2  0  0  0  0
 20 47  1  0  0  0  0
 22 23  1  0  0  0  0
 22 48  1  0  0  0  0
 22 49  1  0  0  0  0
 23 24  1  0  0  0  0
 23 25  1  0  0  0  0
 23 50  1  0  0  0  0
 24 51  1  0  0  0  0
 24 52  1  0  0  0  0
 24 53  1  0  0  0  0
M  END
> <s_m_source_file>
AV-unprocessed.smi

> <i_m_source_file_index>
1413

> <i_lp_mmshare_version>
43012

> <i_f3d_flags>
0

> <s_epik_input>
W0NIM11bQ0BASF0xW0NIMl1OKFtDSDJdW0NASF0oTzEpW0NIM10pYzJbY0hdW2NIXWMoW2NIXW4yKVtOSF1DKD1PKVtOSF1bQ0BIXShbQ0gzXSlbQ0BASF0zW0NIMl1bQ0gyXVtDSDJdTzM=

> <s_epik_cmdline>
J2VwaWtfcHl0aG9uJywgJy1waCcsICc3LjAnLCAnLXRuJywgJzgnLCAnLW1hJywgJzIwMCcsICctbWV0YWxfYmluZGluZycsICctaW1hZScsICc8aW5maWxlLm1hZT4nLCAnLW9tYWUnLCAnPG91dGZpbGUubWFlPic=

> <r_lp_tautomer_probability>
1

> <r_epik_Ionization_Penalty>
0.00271172

> <r_epik_Ionization_Penalty_Charging>
0

> <r_epik_Ionization_Penalty_Neutral>
0.00271172

> <r_epik_State_Penalty>
0.00186503

> <r_epik_Charging_Adjusted_Penalty>
0.00186503

> <i_epik_Tot_Q>
0

> <i_epik_Tot_abs_Q>
0

> <r_epik_Metal_State_Penalty>
-0

> <b_epik_Metal_Only>
0

> <s_lp_Force_Field>
OPLS_2005

> <r_lp_Energy>
38.8739

> <b_lp_Chiralities_Consistent>
1

> <s_lp_Variant>
AV-unprocessed.smi:1413-5

> <Gold.Version>
5.8.1

> <Gold.Id.Protein>
6NUR|6NUR_protein|mol2

> <Gold.PLP.Fitness>
47.0286

> <Gold.PLP.PLP>
-40.1506

> <Gold.PLP.part.hbond>
-3.0000

> <Gold.PLP.part.metal>
0.0000

> <Gold.PLP.part.buried>
-4.2209

> <Gold.PLP.part.nonpolar>
-33.1357

> <Gold.PLP.part.repulsive>
0.5274

> <Gold.PLP.ligand.clash>
0.0000

> <Gold.PLP.ligand.torsion>
1.0024

> <Gold.PLP.Chemscore.Hbond>
1.9199

> <Gold.PLP.Chemscore.CHOScore>
1.0000

> <Gold.PLP.Chemscore.Metal>
0.0000

> <Gold.Chemscore.Hbonds>
donor molecule, donor type, donor heavy atom, donor atom, acceptor molecule, acceptor atom, score
      L1  H     9    34       P1  7948  0.87
      L1  H    12    35       P1  7948  1.00
      L1  C    20    47       P1  7957  0.94

> <Gold.PLP.Chemscore.Internal.Correction>
0.1231

> <Gold.Rescore>
     Score         DG    S(hbond)    S(metal)    S(lipo)     H(rot)  DE(clash)    DE(int)     intcor
     16.88     -20.82       1.92        0.00     105.71       1.35       0.33       3.61       ----

> <Gold.Chemscore.Fitness>
16.8813

> <Gold.Chemscore.DG>
-20.8244

> <Gold.Chemscore.ZeroCoef>
-5.4800

> <Gold.Chemscore.Hbond>
1.9237

> <Gold.Chemscore.Metal>
0.0000

> <Gold.Chemscore.Lipo>
105.7075

> <Gold.Chemscore.Internal_Hbond>
0.0000

> <Gold.Chemscore.DEClash>
0.3297

> <Gold.Chemscore.DEInternal>
3.6134

> <Gold.Chemscore.Rot>
1.3471

> <Gold.Chemscore.Internal.Correction>
   9.000000E+99

> <Gold.Chemscore.Hbonds>
donor molecule, donor type, donor heavy atom, donor atom, acceptor molecule, acceptor atom, score
      L1  H     9    34       P1  7948  0.80
      L1  H    12    35       P1  7948  1.00

> <Gold.Chemscore.Hbond.Weighted>
-6.4252

> <Gold.Chemscore.Metal.Weighted>
-0.0000

> <Gold.Chemscore.Lipo.Weighted>
-12.3678

> <Gold.Chemscore.Internal_Hbond.Weighted>
0.0000

> <Gold.Chemscore.DEClash.Weighted>
0.3297

> <Gold.Chemscore.DEInternal.Weighted>
3.6134

> <Gold.Chemscore.Rot.Weighted>
3.4485

> <Gold.Chemscore.Internal.Correction.Weighted>
   9.000000E+99

> <Gold.Protein.RotatedTorsions>
[ 6907 6896 6895 6894 ] final   21.79 input  -60.11 | X-H torsion
[ 7974 7965 7964 7962 ] final -104.77 input  175.53 | X-H torsion
[ 8008 7997 7996 7995 ] final   24.36 input   59.86 | X-H torsion
[ 10167 10162 10161 10158 ] final  -85.37 input  -65.29 | X-H torsion
[ 10718 10713 10712 10709 ] final -138.62 input   66.30 | X-H torsion
[ 10763 10752 10751 10750 ] final -103.63 input  -60.55 | X-H torsion
[ 11005 11000 10999 10996 ] final    1.98 input  -57.11 | X-H torsion

> <Gold.Protein.ActiveResidues>
 VAL166  LYS551  ARG553  GLY616  TRP617  ASP618  TYR619  PRO620  LYS621  CYS622 
 ASP623  PHE694  ASN695  SER759  ASP760  ASP761  ALA762  ILE779  LEU786  VAL792 
 PHE793  MET794  SER795  GLU796  ALA797  LYS798  CYS799  TRP800  GLU811  SER814 

> <Gold.Protein.RotatedAtoms>
  151.9171  135.0314  160.0518 H   0  0  0  0  0  0  0  0  0  0  0  0  # atno 6907 bound_to 6896
  152.2230  133.4994  159.5181 H   0  0  0  0  0  0  0  0  0  0  0  0  # atno 6908 bound_to 6896
  150.7005  134.1233  159.4085 H   0  0  0  0  0  0  0  0  0  0  0  0  # atno 6909 bound_to 6896
  145.2389  140.9198  143.3161 H   0  0  0  0  0  0  0  0  0  0  0  0  # atno 7974 bound_to 7965
  154.9951  140.3118  155.4890 H   0  0  0  0  0  0  0  0  0  0  0  0  # atno 8008 bound_to 7997
  156.2934  140.2242  156.4999 H   0  0  0  0  0  0  0  0  0  0  0  0  # atno 8009 bound_to 7997
  154.7668  140.0455  157.1007 H   0  0  0  0  0  0  0  0  0  0  0  0  # atno 8010 bound_to 7997
  140.4044  143.2649  151.9101 H   0  0  0  0  0  0  0  0  0  0  0  0  # atno 10167 bound_to 10162
  156.3014  130.7431  151.1483 H   0  0  0  0  0  0  0  0  0  0  0  0  # atno 10718 bound_to 10713
  154.7821  135.4816  153.9866 H   0  0  0  0  0  0  0  0  0  0  0  0  # atno 10763 bound_to 10752
  153.1508  135.6791  153.8892 H   0  0  0  0  0  0  0  0  0  0  0  0  # atno 10764 bound_to 10752
  153.8537  135.3164  155.3412 H   0  0  0  0  0  0  0  0  0  0  0  0  # atno 10765 bound_to 10752
  140.6094  133.9762  155.8170 H   0  0  0  0  0  0  0  0  0  0  0  0  # atno 11005 bound_to 11000
  144.9607  139.3983  143.6357 LP  0  0  0  0  0  0  0  0  0  0  0  0  # atno 17320 bound_to 7965
  146.3333  139.8659  142.8848 LP  0  0  0  0  0  0  0  0  0  0  0  0  # atno 17321 bound_to 7965
  139.4784  144.5601  151.8252 LP  0  0  0  0  0  0  0  0  0  0  0  0  # atno 17342 bound_to 10162
  140.4706  144.1593  150.5917 LP  0  0  0  0  0  0  0  0  0  0  0  0  # atno 17343 bound_to 10162
  157.7369  131.0558  150.5388 LP  0  0  0  0  0  0  0  0  0  0  0  0  # atno 17370 bound_to 10713
  156.5516  130.4233  149.6105 LP  0  0  0  0  0  0  0  0  0  0  0  0  # atno 17371 bound_to 10713
  141.0818  134.0050  157.3374 LP  0  0  0  0  0  0  0  0  0  0  0  0  # atno 17394 bound_to 11000
  139.9199  135.0200  156.8023 LP  0  0  0  0  0  0  0  0  0  0  0  0  # atno 17395 bound_to 11000

$$$$
