AV-unprocessed.smi:3161|AV-procd|sdf|12057|dock6
  -GOLD-   2272017483D 1   1.00000     0.00000
 Structure written by MMmdl.
 41 42  0  0  0  0  0  0  0  0  2 V2000
  144.0473  132.0528  150.5333 C   0  0  0  0  0  0  0  0  0  0  0  0
  144.3186  133.3940  151.1516 C   0  0  0  0  0  0  0  0  0  0  0  0
  143.8049  133.9119  152.3745 C   0  0  0  0  0  0  0  0  0  0  0  0
  144.2338  135.1360  152.6346 N   0  0  0  0  0  0  0  0  0  0  0  0
  145.0365  135.4410  151.5925 N   0  0  0  0  0  0  0  0  0  0  0  0
  145.6781  136.7432  151.5320 C   0  0  0  0  0  0  0  0  0  0  0  0
  146.2049  137.1932  152.9084 C   0  0  2  0  0  0  0  0  0  0  0  0
  145.0620  137.7056  153.7991 C   0  0  0  0  0  0  0  0  0  0  0  0
  147.2453  138.2323  152.7387 N   0  3  0  0  0  0  0  0  0  0  0  0
  147.4417  139.1273  153.8968 C   0  0  0  0  0  0  0  0  0  0  0  0
  148.9231  139.4988  154.0476 C   0  0  1  0  0  0  0  0  0  0  0  0
  149.1627  140.4378  155.2455 C   0  0  0  0  0  0  0  0  0  0  0  0
  150.6610  140.7028  155.4329 C   0  0  0  0  0  0  0  0  0  0  0  0
  151.4161  139.3719  155.5151 C   0  0  0  0  0  0  0  0  0  0  0  0
  151.0645  138.4842  154.3112 C   0  0  0  0  0  0  0  0  0  0  0  0
  149.6548  138.2909  154.2506 O   0  0  0  0  0  0  0  0  0  0  0  0
  145.1067  134.4071  150.6831 C   0  0  0  0  0  0  0  0  0  0  0  0
  143.7976  131.3038  151.2851 H   0  0  0  0  0  0  0  0  0  0  0  0
  144.9107  131.6785  149.9828 H   0  0  0  0  0  0  0  0  0  0  0  0
  143.2133  132.0960  149.8329 H   0  0  0  0  0  0  0  0  0  0  0  0
  143.1336  133.4375  153.0753 H   0  0  0  0  0  0  0  0  0  0  0  0
  146.4859  136.7099  150.7988 H   0  0  0  0  0  0  0  0  0  0  0  0
  144.9466  137.4602  151.1565 H   0  0  0  0  0  0  0  0  0  0  0  0
  146.6559  136.3239  153.3897 H   0  0  0  0  0  0  0  0  0  0  0  0
  144.2919  136.9439  153.9228 H   0  0  0  0  0  0  0  0  0  0  0  0
  144.5883  138.5881  153.3676 H   0  0  0  0  0  0  0  0  0  0  0  0
  145.4162  137.9709  154.7952 H   0  0  0  0  0  0  0  0  0  0  0  0
  148.1219  137.7506  152.5912 H   0  0  0  0  0  0  0  0  0  0  0  0
  146.8420  140.0272  153.7587 H   0  0  0  0  0  0  0  0  0  0  0  0
  147.0894  138.6398  154.8068 H   0  0  0  0  0  0  0  0  0  0  0  0
  149.2667  139.9837  153.1318 H   0  0  0  0  0  0  0  0  0  0  0  0
  148.6342  141.3806  155.1002 H   0  0  0  0  0  0  0  0  0  0  0  0
  148.7568  139.9887  156.1530 H   0  0  0  0  0  0  0  0  0  0  0  0
  151.0383  141.2886  154.5938 H   0  0  0  0  0  0  0  0  0  0  0  0
  150.8338  141.2950  156.3321 H   0  0  0  0  0  0  0  0  0  0  0  0
  152.4914  139.5489  155.5543 H   0  0  0  0  0  0  0  0  0  0  0  0
  151.1496  138.8546  156.4376 H   0  0  0  0  0  0  0  0  0  0  0  0
  151.4227  138.9280  153.3810 H   0  0  0  0  0  0  0  0  0  0  0  0
  151.5497  137.5127  154.4071 H   0  0  0  0  0  0  0  0  0  0  0  0
  145.7014  134.4784  149.7841 H   0  0  0  0  0  0  0  0  0  0  0  0
  147.0425  138.7790  151.9140 H   0  0  0  0  0  0  0  0  0  0  0  0
  1  2  1  0  0  0  0
  1 18  1  0  0  0  0
  1 19  1  0  0  0  0
  1 20  1  0  0  0  0
  2 17  2  0  0  0  0
  2  3  1  0  0  0  0
  3  4  2  0  0  0  0
  3 21  1  0  0  0  0
  4  5  1  0  0  0  0
  5  6  1  0  0  0  0
  5 17  1  0  0  0  0
  6  7  1  0  0  0  0
  6 22  1  0  0  0  0
  6 23  1  0  0  0  0
  7  8  1  0  0  0  0
  7  9  1  0  0  0  0
  7 24  1  0  0  0  0
  8 25  1  0  0  0  0
  8 26  1  0  0  0  0
  8 27  1  0  0  0  0
  9 10  1  0  0  0  0
  9 28  1  0  0  0  0
  9 41  1  0  0  0  0
 10 11  1  0  0  0  0
 10 29  1  0  0  0  0
 10 30  1  0  0  0  0
 11 16  1  0  0  0  0
 11 12  1  0  0  0  0
 11 31  1  0  0  0  0
 12 13  1  0  0  0  0
 12 32  1  0  0  0  0
 12 33  1  0  0  0  0
 13 14  1  0  0  0  0
 13 34  1  0  0  0  0
 13 35  1  0  0  0  0
 14 15  1  0  0  0  0
 14 36  1  0  0  0  0
 14 37  1  0  0  0  0
 15 16  1  0  0  0  0
 15 38  1  0  0  0  0
 15 39  1  0  0  0  0
 17 40  1  0  0  0  0
M  CHG  1   9   1
M  END
> <s_m_source_file>
AV-unprocessed.smi

> <i_m_source_file_index>
3161

> <i_lp_mmshare_version>
43012

> <i_f3d_flags>
0

> <s_epik_input>
W0NIM11jMVtjSF1ubihbY0hdMSlbQ0gyXVtDQEhdKFtDSDNdKVtOSF1bQ0gyXVtDQEBIXTJbQ0gyXVtDSDJdW0NIMl1bQ0gyXU8y

> <s_epik_cmdline>
J2VwaWtfcHl0aG9uJywgJy1waCcsICc3LjAnLCAnLXRuJywgJzgnLCAnLW1hJywgJzIwMCcsICctbWV0YWxfYmluZGluZycsICctaW1hZScsICc8aW5maWxlLm1hZT4nLCAnLW9tYWUnLCAnPG91dGZpbGUubWFlPic=

> <r_lp_tautomer_probability>
1

> <r_epik_Ionization_Penalty>
0.00849661

> <r_epik_Ionization_Penalty_Charging>
0.00848754

> <r_epik_Ionization_Penalty_Neutral>
9.06711e-06

> <r_epik_State_Penalty>
0.00639836

> <r_epik_Charging_Adjusted_Penalty>
0.0148859

> <i_epik_Tot_Q>
1

> <i_epik_Tot_abs_Q>
1

> <r_epik_Metal_State_Penalty>
0.00639921

> <b_epik_Metal_Only>
0

> <s_lp_Force_Field>
OPLS_2005

> <r_lp_Energy>
12.1076

> <b_lp_Chiralities_Consistent>
1

> <s_lp_Variant>
AV-unprocessed.smi:3161-3

> <Gold.Version>
5.8.1

> <Gold.Id.Protein>
6NUR|6NUR_protein|mol2

> <Gold.PLP.Fitness>
38.6168

> <Gold.PLP.PLP>
-28.8045

> <Gold.PLP.part.hbond>
-1.0000

> <Gold.PLP.part.metal>
0.0000

> <Gold.PLP.part.buried>
-0.8206

> <Gold.PLP.part.nonpolar>
-27.6974

> <Gold.PLP.part.repulsive>
0.3692

> <Gold.PLP.ligand.clash>
0.0000

> <Gold.PLP.ligand.torsion>
0.9722

> <Gold.PLP.Chemscore.Hbond>
1.9200

> <Gold.PLP.Chemscore.CHOScore>
1.9931

> <Gold.PLP.Chemscore.Metal>
0.0000

> <Gold.Chemscore.Hbonds>
donor molecule, donor type, donor heavy atom, donor atom, acceptor molecule, acceptor atom, score
      L1  H     9    28       P1  7948  1.86
      L1  C     3    21       P1 10957  1.00
      L1  C    17    40       P1  7921  1.00

> <Gold.PLP.Chemscore.Internal.Correction>
0.0174

> <Gold.Rescore>
     Score         DG    S(hbond)    S(metal)    S(lipo)     H(rot)  DE(clash)    DE(int)     intcor
     12.81     -13.88       0.94        0.00      79.21       1.57       0.19       0.87       ----

> <Gold.Chemscore.Fitness>
12.8144

> <Gold.Chemscore.DG>
-13.8781

> <Gold.Chemscore.ZeroCoef>
-5.4800

> <Gold.Chemscore.Hbond>
0.9442

> <Gold.Chemscore.Metal>
0.0000

> <Gold.Chemscore.Lipo>
79.2083

> <Gold.Chemscore.Internal_Hbond>
0.0000

> <Gold.Chemscore.DEClash>
0.1937

> <Gold.Chemscore.DEInternal>
0.8700

> <Gold.Chemscore.Rot>
1.5714

> <Gold.Chemscore.Internal.Correction>
   9.000000E+99

> <Gold.Chemscore.Hbonds>
donor molecule, donor type, donor heavy atom, donor atom, acceptor molecule, acceptor atom, score
      L1  H     9    28       P1  7948  0.90

> <Gold.Chemscore.Hbond.Weighted>
-3.1535

> <Gold.Chemscore.Metal.Weighted>
-0.0000

> <Gold.Chemscore.Lipo.Weighted>
-9.2674

> <Gold.Chemscore.Internal_Hbond.Weighted>
0.0000

> <Gold.Chemscore.DEClash.Weighted>
0.1937

> <Gold.Chemscore.DEInternal.Weighted>
0.8700

> <Gold.Chemscore.Rot.Weighted>
4.0228

> <Gold.Chemscore.Internal.Correction.Weighted>
   9.000000E+99

> <Gold.Protein.RotatedTorsions>
[ 6907 6896 6895 6894 ] final  141.07 input  -60.11 | X-H torsion
[ 7974 7965 7964 7962 ] final   -0.58 input  175.53 | X-H torsion
[ 8008 7997 7996 7995 ] final   66.16 input   59.86 | X-H torsion
[ 10167 10162 10161 10158 ] final  -16.89 input  -65.29 | X-H torsion
[ 10718 10713 10712 10709 ] final  -47.82 input   66.30 | X-H torsion
[ 10763 10752 10751 10750 ] final   58.80 input  -60.55 | X-H torsion
[ 11005 11000 10999 10996 ] final  -63.32 input  -57.11 | X-H torsion

> <Gold.Protein.ActiveResidues>
 VAL166  LYS551  ARG553  GLY616  TRP617  ASP618  TYR619  PRO620  LYS621  CYS622 
 ASP623  PHE694  ASN695  SER759  ASP760  ASP761  ALA762  ILE779  LEU786  VAL792 
 PHE793  MET794  SER795  GLU796  ALA797  LYS798  CYS799  TRP800  GLU811  SER814 

> <Gold.Protein.RotatedAtoms>
  152.2354  133.5092  159.5239 H   0  0  0  0  0  0  0  0  0  0  0  0  # atno 6907 bound_to 6896
  150.7049  134.1160  159.4026 H   0  0  0  0  0  0  0  0  0  0  0  0  # atno 6908 bound_to 6896
  151.9081  135.0350  160.0563 H   0  0  0  0  0  0  0  0  0  0  0  0  # atno 6909 bound_to 6896
  146.2426  140.1291  142.8338 H   0  0  0  0  0  0  0  0  0  0  0  0  # atno 7974 bound_to 7965
  155.6731  140.3497  155.4826 H   0  0  0  0  0  0  0  0  0  0  0  0  # atno 8008 bound_to 7997
  155.9671  140.1148  157.0868 H   0  0  0  0  0  0  0  0  0  0  0  0  # atno 8009 bound_to 7997
  154.4157  140.1164  156.5243 H   0  0  0  0  0  0  0  0  0  0  0  0  # atno 8010 bound_to 7997
  140.7240  143.5070  150.9797 H   0  0  0  0  0  0  0  0  0  0  0  0  # atno 10167 bound_to 10162
  156.2047  130.4158  149.9194 H   0  0  0  0  0  0  0  0  0  0  0  0  # atno 10718 bound_to 10713
  152.9879  135.5594  154.5611 H   0  0  0  0  0  0  0  0  0  0  0  0  # atno 10763 bound_to 10752
  154.5030  135.2798  155.1407 H   0  0  0  0  0  0  0  0  0  0  0  0  # atno 10764 bound_to 10752
  154.2830  135.6341  153.5408 H   0  0  0  0  0  0  0  0  0  0  0  0  # atno 10765 bound_to 10752
  141.1389  133.6650  156.5663 H   0  0  0  0  0  0  0  0  0  0  0  0  # atno 11005 bound_to 11000
  145.0341  140.8894  143.5092 LP  0  0  0  0  0  0  0  0  0  0  0  0  # atno 17320 bound_to 7965
  145.1360  139.2602  143.5514 LP  0  0  0  0  0  0  0  0  0  0  0  0  # atno 17321 bound_to 7965
  139.8782  143.7105  152.3160 LP  0  0  0  0  0  0  0  0  0  0  0  0  # atno 17342 bound_to 10162
  139.7378  144.7567  151.0699 LP  0  0  0  0  0  0  0  0  0  0  0  0  # atno 17343 bound_to 10162
  156.6891  130.8889  151.3586 LP  0  0  0  0  0  0  0  0  0  0  0  0  # atno 17370 bound_to 10713
  157.7006  130.9328  150.0773 LP  0  0  0  0  0  0  0  0  0  0  0  0  # atno 17371 bound_to 10713
  140.3948  134.7408  157.4744 LP  0  0  0  0  0  0  0  0  0  0  0  0  # atno 17394 bound_to 11000
  140.0539  134.6091  155.8828 LP  0  0  0  0  0  0  0  0  0  0  0  0  # atno 17395 bound_to 11000

$$$$
