AV-unprocessed.smi:1707|AV-procd|sdf|6887|dock9
  -GOLD-   22720 8 93D 1   1.00000     0.00000
 Structure written by MMmdl.
 41 42  0  0  0  0  0  0  0  0  1 V2000
  154.3531  139.1939  158.2569 O   0  0  0  0  0  0  0  0  0  0  0  0
  153.2593  139.0646  158.8059 C   0  0  0  0  0  0  0  0  0  0  0  0
  152.1688  139.7529  158.4385 N   0  0  0  0  0  0  0  0  0  0  0  0
  152.1224  140.7333  157.3600 C   0  0  0  0  0  0  0  0  0  0  0  0
  150.9896  141.7526  157.5734 C   0  0  0  0  0  0  0  0  0  0  0  0
  151.3866  142.8887  158.5009 C   0  0  0  0  0  0  0  0  0  0  0  0
  151.8344  142.6656  159.7520 C   0  0  0  0  0  0  0  0  0  0  0  0
  152.2336  143.7627  160.7234 C   0  0  0  0  0  0  0  0  0  0  0  0
  151.7546  145.1514  160.2686 C   0  0  0  0  0  0  0  0  0  0  0  0
  151.9950  145.3551  158.7677 C   0  0  0  0  0  0  0  0  0  0  0  0
  151.2516  144.2971  157.9326 C   0  0  0  0  0  0  0  0  0  0  0  0
  152.9846  138.2503  159.8416 N   0  0  0  0  0  0  0  0  0  0  0  0
  153.8229  137.3537  160.5271 C   0  0  0  0  0  0  0  0  0  0  0  0
  153.9909  137.3126  161.8753 C   0  0  0  0  0  0  0  0  0  0  0  0
  154.8855  136.3613  162.5133 C   0  0  0  0  0  0  0  0  0  0  0  0
  155.0045  136.2764  164.0270 C   0  0  0  0  0  0  0  0  0  0  0  0
  154.2290  137.1805  164.6273 F   0  0  0  0  0  0  0  0  0  0  0  0
  154.6319  135.0670  164.4433 F   0  0  0  0  0  0  0  0  0  0  0  0
  156.2629  136.4793  164.4177 F   0  0  0  0  0  0  0  0  0  0  0  0
  155.5365  135.5101  161.6993 C   0  0  0  0  0  0  0  0  0  0  0  0
  155.3839  135.5573  160.3121 N   0  0  0  0  0  0  0  0  0  0  0  0
  154.5708  136.4225  159.6657 C   0  0  0  0  0  0  0  0  0  0  0  0
  154.4909  136.3993  158.4380 O   0  0  0  0  0  0  0  0  0  0  0  0
  155.9182  134.8949  159.7685 H   0  0  0  0  0  0  0  0  0  0  0  0
  151.3091  139.5896  158.9422 H   0  0  0  0  0  0  0  0  0  0  0  0
  153.0886  141.2326  157.2751 H   0  0  0  0  0  0  0  0  0  0  0  0
  151.9659  140.1975  156.4234 H   0  0  0  0  0  0  0  0  0  0  0  0
  150.6846  142.1622  156.6093 H   0  0  0  0  0  0  0  0  0  0  0  0
  150.1090  141.2616  157.9894 H   0  0  0  0  0  0  0  0  0  0  0  0
  151.9364  141.6529  160.1138 H   0  0  0  0  0  0  0  0  0  0  0  0
  151.8291  143.5351  161.7097 H   0  0  0  0  0  0  0  0  0  0  0  0
  153.3201  143.7511  160.8156 H   0  0  0  0  0  0  0  0  0  0  0  0
  150.6890  145.2561  160.4768 H   0  0  0  0  0  0  0  0  0  0  0  0
  152.2599  145.9273  160.8441 H   0  0  0  0  0  0  0  0  0  0  0  0
  151.6814  146.3545  158.4651 H   0  0  0  0  0  0  0  0  0  0  0  0
  153.0649  145.2927  158.5652 H   0  0  0  0  0  0  0  0  0  0  0  0
  151.6246  144.3149  156.9082 H   0  0  0  0  0  0  0  0  0  0  0  0
  150.1913  144.5462  157.8872 H   0  0  0  0  0  0  0  0  0  0  0  0
  152.0440  138.2986  160.2060 H   0  0  0  0  0  0  0  0  0  0  0  0
  153.4762  138.0007  162.5248 H   0  0  0  0  0  0  0  0  0  0  0  0
  156.2088  134.7359  162.0391 H   0  0  0  0  0  0  0  0  0  0  0  0
  1  2  2  0  0  0  0
  2  3  1  0  0  0  0
  2 12  1  0  0  0  0
  3  4  1  0  0  0  0
  3 25  1  0  0  0  0
  4  5  1  0  0  0  0
  4 26  1  0  0  0  0
  4 27  1  0  0  0  0
  5  6  1  0  0  0  0
  5 28  1  0  0  0  0
  5 29  1  0  0  0  0
  6 11  1  0  0  0  0
  6  7  2  0  0  0  0
  7  8  1  0  0  0  0
  7 30  1  0  0  0  0
  8  9  1  0  0  0  0
  8 31  1  0  0  0  0
  8 32  1  0  0  0  0
  9 10  1  0  0  0  0
  9 33  1  0  0  0  0
  9 34  1  0  0  0  0
 10 11  1  0  0  0  0
 10 35  1  0  0  0  0
 10 36  1  0  0  0  0
 11 37  1  0  0  0  0
 11 38  1  0  0  0  0
 12 13  1  0  0  0  0
 12 39  1  0  0  0  0
 13 22  1  0  0  0  0
 13 14  2  0  0  0  0
 14 15  1  0  0  0  0
 14 40  1  0  0  0  0
 15 16  1  0  0  0  0
 15 20  2  0  0  0  0
 16 17  1  0  0  0  0
 16 18  1  0  0  0  0
 16 19  1  0  0  0  0
 20 21  1  0  0  0  0
 20 41  1  0  0  0  0
 21 24  1  0  0  0  0
 21 22  1  0  0  0  0
 22 23  2  0  0  0  0
M  END
> <s_m_source_file>
AV-unprocessed.smi

> <i_m_source_file_index>
1707

> <i_lp_mmshare_version>
43012

> <i_f3d_flags>
0

> <s_epik_input>
Tz1jMVtuSF1bY0hdYyhDKEYpKEYpRilbY0hdYzFbTkhdQyg9TylbTkhdW0NIMl1bQ0gyXUMyPVtDSF1bQ0gyXVtDSDJdW0NIMl1bQ0gyXTI=

> <s_epik_cmdline>
J2VwaWtfcHl0aG9uJywgJy1waCcsICc3LjAnLCAnLXRuJywgJzgnLCAnLW1hJywgJzIwMCcsICctbWV0YWxfYmluZGluZycsICctaW1hZScsICc8aW5maWxlLm1hZT4nLCAnLW9tYWUnLCAnPG91dGZpbGUubWFlPic=

> <r_lp_tautomer_probability>
1

> <r_epik_Ionization_Penalty>
0.00382222

> <r_epik_Ionization_Penalty_Charging>
0.0038016

> <r_epik_Ionization_Penalty_Neutral>
2.06242e-05

> <r_epik_State_Penalty>
-0

> <r_epik_Charging_Adjusted_Penalty>
0.0038016

> <i_epik_Tot_Q>
0

> <i_epik_Tot_abs_Q>
0

> <r_epik_Metal_State_Penalty>
0.371215

> <b_epik_Metal_Only>
0

> <s_lp_Force_Field>
OPLS_2005

> <r_lp_Energy>
19.0753

> <b_lp_Chiralities_Consistent>
1

> <s_lp_Variant>
AV-unprocessed.smi:1707-1

> <Gold.Version>
5.8.1

> <Gold.Id.Protein>
6NUR|6NUR_protein|mol2

> <Gold.PLP.Fitness>
48.4025

> <Gold.PLP.PLP>
-46.9098

> <Gold.PLP.part.hbond>
-0.9300

> <Gold.PLP.part.metal>
0.0000

> <Gold.PLP.part.buried>
-5.6714

> <Gold.PLP.part.nonpolar>
-39.6989

> <Gold.PLP.part.repulsive>
0.2614

> <Gold.PLP.ligand.clash>
0.0000

> <Gold.PLP.ligand.torsion>
0.7806

> <Gold.PLP.Chemscore.Hbond>
1.0000

> <Gold.PLP.Chemscore.CHOScore>
0.0000

> <Gold.PLP.Chemscore.Metal>
0.0000

> <Gold.Chemscore.Hbonds>
donor molecule, donor type, donor heavy atom, donor atom, acceptor molecule, acceptor atom, score
      P1  H  7997  8009       L1     1  0.71

> <Gold.PLP.Chemscore.Internal.Correction>
0.0538

> <Gold.Rescore>
     Score         DG    S(hbond)    S(metal)    S(lipo)     H(rot)  DE(clash)    DE(int)     intcor
     16.77     -17.89       1.00        0.00     112.00       1.57       0.18       0.95       ----

> <Gold.Chemscore.Fitness>
16.7670

> <Gold.Chemscore.DG>
-17.8924

> <Gold.Chemscore.ZeroCoef>
-5.4800

> <Gold.Chemscore.Hbond>
0.9976

> <Gold.Chemscore.Metal>
0.0000

> <Gold.Chemscore.Lipo>
111.9994

> <Gold.Chemscore.Internal_Hbond>
0.0000

> <Gold.Chemscore.DEClash>
0.1768

> <Gold.Chemscore.DEInternal>
0.9486

> <Gold.Chemscore.Rot>
1.5717

> <Gold.Chemscore.Internal.Correction>
   9.000000E+99

> <Gold.Chemscore.Hbonds>
donor molecule, donor type, donor heavy atom, donor atom, acceptor molecule, acceptor atom, score
      P1  H  7997  8009       L1     1  0.71

> <Gold.Chemscore.Hbond.Weighted>
-3.3321

> <Gold.Chemscore.Metal.Weighted>
-0.0000

> <Gold.Chemscore.Lipo.Weighted>
-13.1039

> <Gold.Chemscore.Internal_Hbond.Weighted>
0.0000

> <Gold.Chemscore.DEClash.Weighted>
0.1768

> <Gold.Chemscore.DEInternal.Weighted>
0.9486

> <Gold.Chemscore.Rot.Weighted>
4.0237

> <Gold.Chemscore.Internal.Correction.Weighted>
   9.000000E+99

> <Gold.Protein.RotatedTorsions>
[ 6907 6896 6895 6894 ] final  -89.11 input  -60.11 | X-H torsion
[ 7974 7965 7964 7962 ] final   65.87 input  175.53 | X-H torsion
[ 8008 7997 7996 7995 ] final  123.76 input   59.86 | X-H torsion
[ 10167 10162 10161 10158 ] final   87.47 input  -65.29 | X-H torsion
[ 10718 10713 10712 10709 ] final   89.79 input   66.30 | X-H torsion
[ 10763 10752 10751 10750 ] final  -58.04 input  -60.55 | X-H torsion
[ 11005 11000 10999 10996 ] final  -54.56 input  -57.11 | X-H torsion

> <Gold.Protein.ActiveResidues>
 VAL166  LYS551  ARG553  GLY616  TRP617  ASP618  TYR619  PRO620  LYS621  CYS622 
 ASP623  PHE694  ASN695  SER759  ASP760  ASP761  ALA762  ILE779  LEU786  VAL792 
 PHE793  MET794  SER795  GLU796  ALA797  LYS798  CYS799  TRP800  GLU811  SER814 

> <Gold.Protein.RotatedAtoms>
  150.6872  134.2637  159.4559 H   0  0  0  0  0  0  0  0  0  0  0  0  # atno 6907 bound_to 6896
  152.0565  134.9618  160.0584 H   0  0  0  0  0  0  0  0  0  0  0  0  # atno 6908 bound_to 6896
  152.1062  133.4241  159.4647 H   0  0  0  0  0  0  0  0  0  0  0  0  # atno 6909 bound_to 6896
  145.8334  139.3152  143.0974 H   0  0  0  0  0  0  0  0  0  0  0  0  # atno 7974 bound_to 7965
  156.2777  140.2755  156.1679 H   0  0  0  0  0  0  0  0  0  0  0  0  # atno 8008 bound_to 7997
  155.0685  140.0387  157.2618 H   0  0  0  0  0  0  0  0  0  0  0  0  # atno 8009 bound_to 7997
  154.7059  140.2659  155.6680 H   0  0  0  0  0  0  0  0  0  0  0  0  # atno 8010 bound_to 7997
  139.8770  144.6461  150.8885 H   0  0  0  0  0  0  0  0  0  0  0  0  # atno 10167 bound_to 10162
  157.6957  131.0346  150.3479 H   0  0  0  0  0  0  0  0  0  0  0  0  # atno 10718 bound_to 10713
  154.2318  135.6359  153.5178 H   0  0  0  0  0  0  0  0  0  0  0  0  # atno 10763 bound_to 10752
  152.9947  135.5521  154.6004 H   0  0  0  0  0  0  0  0  0  0  0  0  # atno 10764 bound_to 10752
  154.5489  135.2900  155.1001 H   0  0  0  0  0  0  0  0  0  0  0  0  # atno 10765 bound_to 10752
  141.1031  133.6616  156.4338 H   0  0  0  0  0  0  0  0  0  0  0  0  # atno 11005 bound_to 11000
  145.9546  140.8883  143.0242 LP  0  0  0  0  0  0  0  0  0  0  0  0  # atno 17320 bound_to 7965
  144.6738  140.1727  143.7413 LP  0  0  0  0  0  0  0  0  0  0  0  0  # atno 17321 bound_to 7965
  140.7751  143.3616  151.1817 LP  0  0  0  0  0  0  0  0  0  0  0  0  # atno 17342 bound_to 10162
  139.7230  143.9192  152.2992 LP  0  0  0  0  0  0  0  0  0  0  0  0  # atno 17343 bound_to 10162
  156.3931  130.3902  149.7015 LP  0  0  0  0  0  0  0  0  0  0  0  0  # atno 17370 bound_to 10713
  156.4357  130.7837  151.2857 LP  0  0  0  0  0  0  0  0  0  0  0  0  # atno 17371 bound_to 10713
  140.4970  134.6521  157.5234 LP  0  0  0  0  0  0  0  0  0  0  0  0  # atno 17394 bound_to 11000
  139.9891  134.7014  155.9722 LP  0  0  0  0  0  0  0  0  0  0  0  0  # atno 17395 bound_to 11000

$$$$
