AV-unprocessed.smi:1801|AV-procd|sdf|7270|dock10
  -GOLD-   22720 8523D 1   1.00000     0.00000
 Structure written by MMmdl.
 37 38  0  0  0  0  0  0  0  0  3 V2000
  147.3311  135.9696  155.4244 C   0  0  0  0  0  0  0  0  0  0  0  0
  148.0423  134.8098  154.7078 C   0  0  1  0  0  0  0  0  0  0  0  0
  148.8331  133.9583  155.7265 C   0  0  0  0  0  0  0  0  0  0  0  0
  148.1664  133.8628  157.0226 N   0  0  0  0  0  0  0  0  0  0  0  0
  148.6506  134.2992  158.1941 C   0  0  0  0  0  0  0  0  0  0  0  0
  149.7376  134.8796  158.2335 O   0  0  0  0  0  0  0  0  0  0  0  0
  147.8507  134.0226  159.2479 N   0  5  0  0  0  0  0  0  0  0  0  0
  147.7003  134.9250  160.2316 C   0  0  0  0  0  0  0  0  0  0  0  0
  147.8684  136.2416  160.0299 N   0  0  0  0  0  0  0  0  0  0  0  0
  147.6608  137.0002  161.1739 N   0  0  0  0  0  0  0  0  0  0  0  0
  147.3323  136.2325  162.2127 C   0  0  0  0  0  0  0  0  0  0  0  0
  147.2448  134.5139  161.8876 S   0  0  0  0  0  0  0  0  0  0  0  0
  147.0442  133.9602  153.8858 C   0  0  0  0  0  0  0  0  0  0  0  0
  146.7844  134.5355  152.5451 N   0  3  0  0  0  0  0  0  0  0  0  0
  146.3257  133.5628  151.5223 C   0  0  0  0  0  0  0  0  0  0  0  0
  145.1526  134.2156  150.7800 C   0  0  0  0  0  0  0  0  0  0  0  0
  145.2524  135.6950  151.1363 C   0  0  0  0  0  0  0  0  0  0  0  0
  145.8291  135.6619  152.5475 C   0  0  0  0  0  0  0  0  0  0  0  0
  146.5875  135.6029  156.1325 H   0  0  0  0  0  0  0  0  0  0  0  0
  146.8230  136.6253  154.7170 H   0  0  0  0  0  0  0  0  0  0  0  0
  148.0430  136.5815  155.9794 H   0  0  0  0  0  0  0  0  0  0  0  0
  148.7677  135.2529  154.0252 H   0  0  0  0  0  0  0  0  0  0  0  0
  149.0008  132.9533  155.3356 H   0  0  0  0  0  0  0  0  0  0  0  0
  149.8196  134.3933  155.8892 H   0  0  0  0  0  0  0  0  0  0  0  0
  147.2648  133.4087  157.0388 H   0  0  0  0  0  0  0  0  0  0  0  0
  147.1384  136.6808  163.1755 H   0  0  0  0  0  0  0  0  0  0  0  0
  147.4036  132.9392  153.7504 H   0  0  0  0  0  0  0  0  0  0  0  0
  146.1039  133.8814  154.4334 H   0  0  0  0  0  0  0  0  0  0  0  0
  147.1533  133.3594  150.8422 H   0  0  0  0  0  0  0  0  0  0  0  0
  146.0185  132.6118  151.9607 H   0  0  0  0  0  0  0  0  0  0  0  0
  145.1821  134.0374  149.7047 H   0  0  0  0  0  0  0  0  0  0  0  0
  144.2118  133.8126  151.1577 H   0  0  0  0  0  0  0  0  0  0  0  0
  145.9475  136.1958  150.4607 H   0  0  0  0  0  0  0  0  0  0  0  0
  144.2937  136.2118  151.0805 H   0  0  0  0  0  0  0  0  0  0  0  0
  145.0291  135.4663  153.2638 H   0  0  0  0  0  0  0  0  0  0  0  0
  146.3120  136.5984  152.8272 H   0  0  0  0  0  0  0  0  0  0  0  0
  147.6585  134.9119  152.2069 H   0  0  0  0  0  0  0  0  0  0  0  0
  1  2  1  0  0  0  0
  1 19  1  0  0  0  0
  1 20  1  0  0  0  0
  1 21  1  0  0  0  0
  2  3  1  0  0  0  0
  2 13  1  0  0  0  0
  2 22  1  0  0  0  0
  3  4  1  0  0  0  0
  3 23  1  0  0  0  0
  3 24  1  0  0  0  0
  4  5  1  0  0  0  0
  4 25  1  0  0  0  0
  5  6  2  0  0  0  0
  5  7  1  0  0  0  0
  7  8  1  0  0  0  0
  8 12  1  0  0  0  0
  8  9  2  0  0  0  0
  9 10  1  0  0  0  0
 10 11  2  0  0  0  0
 11 12  1  0  0  0  0
 11 26  1  0  0  0  0
 13 14  1  0  0  0  0
 13 27  1  0  0  0  0
 13 28  1  0  0  0  0
 14 18  1  0  0  0  0
 14 15  1  0  0  0  0
 14 37  1  0  0  0  0
 15 16  1  0  0  0  0
 15 29  1  0  0  0  0
 15 30  1  0  0  0  0
 16 17  1  0  0  0  0
 16 31  1  0  0  0  0
 16 32  1  0  0  0  0
 17 18  1  0  0  0  0
 17 33  1  0  0  0  0
 17 34  1  0  0  0  0
 18 35  1  0  0  0  0
 18 36  1  0  0  0  0
M  CHG  1   7  -1
M  CHG  1  14   1
M  END
> <s_m_source_file>
AV-unprocessed.smi

> <i_m_source_file_index>
1801

> <i_lp_mmshare_version>
43012

> <i_f3d_flags>
0

> <s_epik_input>
W0NIMl0xW0NIMl1bQ0gyXVtDSDJdTjFbQ0gyXVtDQEhdKFtDSDNdKVtDSDJdW05IXUMoPU8pW05IXWMybm5bY0hdczI=

> <s_epik_cmdline>
J2VwaWtfcHl0aG9uJywgJy1waCcsICc3LjAnLCAnLXRuJywgJzgnLCAnLW1hJywgJzIwMCcsICctbWV0YWxfYmluZGluZycsICctaW1hZScsICc8aW5maWxlLm1hZT4nLCAnLW9tYWUnLCAnPG91dGZpbGUubWFlPic=

> <r_lp_tautomer_probability>
1

> <r_epik_Ionization_Penalty>
3.29721

> <r_epik_Ionization_Penalty_Charging>
3.25987

> <r_epik_Ionization_Penalty_Neutral>
0.0373399

> <r_epik_State_Penalty>
3.2571

> <r_epik_Charging_Adjusted_Penalty>
6.51697

> <i_epik_Tot_Q>
0

> <i_epik_Tot_abs_Q>
2

> <r_epik_Metal_State_Penalty>
0.477553

> <b_epik_Metal_Only>
1

> <s_lp_Force_Field>
OPLS_2005

> <r_lp_Energy>
22.4804

> <b_lp_Chiralities_Consistent>
1

> <s_lp_Variant>
AV-unprocessed.smi:1801-4

> <Gold.Version>
5.8.1

> <Gold.Id.Protein>
6NUR|6NUR_protein|mol2

> <Gold.PLP.Fitness>
37.4117

> <Gold.PLP.PLP>
-25.2685

> <Gold.PLP.part.hbond>
-3.9924

> <Gold.PLP.part.metal>
0.0000

> <Gold.PLP.part.buried>
-3.6772

> <Gold.PLP.part.nonpolar>
-18.0479

> <Gold.PLP.part.repulsive>
0.0305

> <Gold.PLP.ligand.clash>
0.0000

> <Gold.PLP.ligand.torsion>
1.2754

> <Gold.PLP.Chemscore.Hbond>
4.8720

> <Gold.PLP.Chemscore.CHOScore>
0.0000

> <Gold.PLP.Chemscore.Metal>
0.0000

> <Gold.Chemscore.Hbonds>
donor molecule, donor type, donor heavy atom, donor atom, acceptor molecule, acceptor atom, score
      L1  H    14    37       P1  7948  2.00
      P1  H  6896  6907       L1     6  0.96
      P1  H  6931  6943       L1    10  1.00
      P1  H  6934  6947       L1    10  0.77

> <Gold.PLP.Chemscore.Internal.Correction>
0.0779

> <Gold.Rescore>
     Score         DG    S(hbond)    S(metal)    S(lipo)     H(rot)  DE(clash)    DE(int)     intcor
     15.13     -17.54       3.47        0.00      46.07       1.93       0.00       2.41       ----

> <Gold.Chemscore.Fitness>
15.1284

> <Gold.Chemscore.DG>
-17.5426

> <Gold.Chemscore.ZeroCoef>
-5.4800

> <Gold.Chemscore.Hbond>
3.4743

> <Gold.Chemscore.Metal>
0.0000

> <Gold.Chemscore.Lipo>
46.0727

> <Gold.Chemscore.Internal_Hbond>
0.0000

> <Gold.Chemscore.DEClash>
0.0000

> <Gold.Chemscore.DEInternal>
2.4143

> <Gold.Chemscore.Rot>
1.9266

> <Gold.Chemscore.Internal.Correction>
   9.000000E+99

> <Gold.Chemscore.Hbonds>
donor molecule, donor type, donor heavy atom, donor atom, acceptor molecule, acceptor atom, score
      L1  H    14    37       P1  7948  0.87
      P1  H  6896  6907       L1     6  0.60
      P1  H  6931  6943       L1    10  0.41
      P1  H  6934  6947       L1    10  0.71

> <Gold.Chemscore.Hbond.Weighted>
-11.6042

> <Gold.Chemscore.Metal.Weighted>
-0.0000

> <Gold.Chemscore.Lipo.Weighted>
-5.3905

> <Gold.Chemscore.Internal_Hbond.Weighted>
0.0000

> <Gold.Chemscore.DEClash.Weighted>
0.0000

> <Gold.Chemscore.DEInternal.Weighted>
2.4143

> <Gold.Chemscore.Rot.Weighted>
4.9321

> <Gold.Chemscore.Internal.Correction.Weighted>
   9.000000E+99

> <Gold.Protein.RotatedTorsions>
[ 6907 6896 6895 6894 ] final -100.37 input  -60.11 | X-H torsion
[ 7974 7965 7964 7962 ] final  -71.92 input  175.53 | X-H torsion
[ 8008 7997 7996 7995 ] final   65.36 input   59.86 | X-H torsion
[ 10167 10162 10161 10158 ] final -102.73 input  -65.29 | X-H torsion
[ 10718 10713 10712 10709 ] final  -87.02 input   66.30 | X-H torsion
[ 10763 10752 10751 10750 ] final -111.73 input  -60.55 | X-H torsion
[ 11005 11000 10999 10996 ] final  170.25 input  -57.11 | X-H torsion

> <Gold.Protein.ActiveResidues>
 VAL166  LYS551  ARG553  GLY616  TRP617  ASP618  TYR619  PRO620  LYS621  CYS622 
 ASP623  PHE694  ASN695  SER759  ASP760  ASP761  ALA762  ILE779  LEU786  VAL792 
 PHE793  MET794  SER795  GLU796  ALA797  LYS798  CYS799  TRP800  GLU811  SER814 

> <Gold.Protein.RotatedAtoms>
  150.7113  134.0898  159.3927 H   0  0  0  0  0  0  0  0  0  0  0  0  # atno 6907 bound_to 6896
  151.8883  135.0424  160.0504 H   0  0  0  0  0  0  0  0  0  0  0  0  # atno 6908 bound_to 6896
  152.2512  133.5181  159.5363 H   0  0  0  0  0  0  0  0  0  0  0  0  # atno 6909 bound_to 6896
  145.6718  140.9218  143.0879 H   0  0  0  0  0  0  0  0  0  0  0  0  # atno 7974 bound_to 7965
  155.6606  140.3497  155.4781 H   0  0  0  0  0  0  0  0  0  0  0  0  # atno 8008 bound_to 7997
  155.9772  140.1167  157.0782 H   0  0  0  0  0  0  0  0  0  0  0  0  # atno 8009 bound_to 7997
  154.4182  140.1145  156.5372 H   0  0  0  0  0  0  0  0  0  0  0  0  # atno 8010 bound_to 7997
  140.2275  143.3630  152.0915 H   0  0  0  0  0  0  0  0  0  0  0  0  # atno 10167 bound_to 10162
  155.9987  130.4785  150.4804 H   0  0  0  0  0  0  0  0  0  0  0  0  # atno 10718 bound_to 10713
  154.8315  135.4516  154.1084 H   0  0  0  0  0  0  0  0  0  0  0  0  # atno 10763 bound_to 10752
  153.2353  135.6910  153.7849 H   0  0  0  0  0  0  0  0  0  0  0  0  # atno 10764 bound_to 10752
  153.7217  135.3340  155.3244 H   0  0  0  0  0  0  0  0  0  0  0  0  # atno 10765 bound_to 10752
  140.3063  134.7553  157.3956 H   0  0  0  0  0  0  0  0  0  0  0  0  # atno 11005 bound_to 11000
  144.7054  139.8582  143.7431 LP  0  0  0  0  0  0  0  0  0  0  0  0  # atno 17320 bound_to 7965
  146.1039  139.4037  143.0330 LP  0  0  0  0  0  0  0  0  0  0  0  0  # atno 17321 bound_to 7965
  139.5122  144.6912  151.5754 LP  0  0  0  0  0  0  0  0  0  0  0  0  # atno 17342 bound_to 10162
  140.6209  143.9259  150.6526 LP  0  0  0  0  0  0  0  0  0  0  0  0  # atno 17343 bound_to 10162
  157.2810  131.0607  151.2198 LP  0  0  0  0  0  0  0  0  0  0  0  0  # atno 17370 bound_to 10713
  157.3244  130.6953  149.6288 LP  0  0  0  0  0  0  0  0  0  0  0  0  # atno 17371 bound_to 10713
  140.1064  134.5404  155.8306 LP  0  0  0  0  0  0  0  0  0  0  0  0  # atno 17394 bound_to 11000
  141.2117  133.6710  156.6606 LP  0  0  0  0  0  0  0  0  0  0  0  0  # atno 17395 bound_to 11000

$$$$
