AV-unprocessed.smi:1774|AV-procd|sdf|7167|dock7
  -GOLD-   22720 8403D 1   1.00000     0.00000
 Structure written by MMmdl.
 46 47  0  0  0  0  0  0  0  0  2 V2000
  151.6702  144.5335  159.2540 C   0  0  0  0  0  0  0  0  0  0  0  0
  152.2509  143.1444  159.4640 C   0  0  0  0  0  0  0  0  0  0  0  0
  153.1033  142.9118  160.5643 C   0  0  0  0  0  0  0  0  0  0  0  0
  153.6368  141.6264  160.7588 C   0  0  0  0  0  0  0  0  0  0  0  0
  153.2919  140.6212  159.8393 C   0  0  0  0  0  0  0  0  0  0  0  0
  152.4782  140.8345  158.7853 N   0  0  0  0  0  0  0  0  0  0  0  0
  151.9544  142.0696  158.5834 C   0  0  0  0  0  0  0  0  0  0  0  0
  151.0929  142.3677  157.4898 N   0  0  0  0  0  0  0  0  0  0  0  0
  150.6684  141.5472  156.5124 C   0  0  0  0  0  0  0  0  0  0  0  0
  150.9469  140.3521  156.4103 O   0  0  0  0  0  0  0  0  0  0  0  0
  149.8800  142.1944  155.6417 N   0  0  0  0  0  0  0  0  0  0  0  0
  149.2307  141.5802  154.4891 C   0  0  0  0  0  0  0  0  0  0  0  0
  147.7625  141.2155  154.7858 C   0  0  0  0  0  0  0  0  0  0  0  0
  146.9205  142.4114  155.0374 N   0  3  1  0  0  0  0  0  0  0  0  0
  146.3894  143.0003  153.7853 C   0  0  0  0  0  0  0  0  0  0  0  0
  145.5784  144.2746  154.0879 C   0  0  1  0  0  0  0  0  0  0  0  0
  144.9467  144.8730  152.8265 C   0  0  0  0  0  0  0  0  0  0  0  0
  144.5324  143.9541  154.9983 O   0  0  0  0  0  0  0  0  0  0  0  0
  145.0209  143.4671  156.2432 C   0  0  1  0  0  0  0  0  0  0  0  0
  143.8234  143.2456  157.1738 C   0  0  0  0  0  0  0  0  0  0  0  0
  145.8172  142.1710  156.0004 C   0  0  0  0  0  0  0  0  0  0  0  0
  152.0111  145.2272  160.0232 H   0  0  0  0  0  0  0  0  0  0  0  0
  150.5809  144.5002  159.2918 H   0  0  0  0  0  0  0  0  0  0  0  0
  151.9727  144.9323  158.2853 H   0  0  0  0  0  0  0  0  0  0  0  0
  153.3477  143.7069  161.2533 H   0  0  0  0  0  0  0  0  0  0  0  0
  154.2927  141.4167  161.5906 H   0  0  0  0  0  0  0  0  0  0  0  0
  153.6793  139.6195  159.9520 H   0  0  0  0  0  0  0  0  0  0  0  0
  150.7584  143.3192  157.4531 H   0  0  0  0  0  0  0  0  0  0  0  0
  149.7005  143.1755  155.7990 H   0  0  0  0  0  0  0  0  0  0  0  0
  149.3107  142.2575  153.6387 H   0  0  0  0  0  0  0  0  0  0  0  0
  149.7902  140.6823  154.2252 H   0  0  0  0  0  0  0  0  0  0  0  0
  147.3669  140.6768  153.9234 H   0  0  0  0  0  0  0  0  0  0  0  0
  147.6875  140.5349  155.6353 H   0  0  0  0  0  0  0  0  0  0  0  0
  147.2141  143.2420  153.1136 H   0  0  0  0  0  0  0  0  0  0  0  0
  145.7644  142.2656  153.2742 H   0  0  0  0  0  0  0  0  0  0  0  0
  146.2296  145.0255  154.5388 H   0  0  0  0  0  0  0  0  0  0  0  0
  145.7083  145.1398  152.0934 H   0  0  0  0  0  0  0  0  0  0  0  0
  144.3844  145.7762  153.0646 H   0  0  0  0  0  0  0  0  0  0  0  0
  144.2604  144.1687  152.3558 H   0  0  0  0  0  0  0  0  0  0  0  0
  145.6721  144.2199  156.6916 H   0  0  0  0  0  0  0  0  0  0  0  0
  144.1458  142.8793  158.1487 H   0  0  0  0  0  0  0  0  0  0  0  0
  143.1271  142.5179  156.7560 H   0  0  0  0  0  0  0  0  0  0  0  0
  143.2771  144.1755  157.3335 H   0  0  0  0  0  0  0  0  0  0  0  0
  145.1589  141.3912  155.6132 H   0  0  0  0  0  0  0  0  0  0  0  0
  146.2123  141.8118  156.9498 H   0  0  0  0  0  0  0  0  0  0  0  0
  147.5249  143.1101  155.4454 H   0  0  0  0  0  0  0  0  0  0  0  0
  1  2  1  0  0  0  0
  1 22  1  0  0  0  0
  1 23  1  0  0  0  0
  1 24  1  0  0  0  0
  2  7  1  0  0  0  0
  2  3  2  0  0  0  0
  3  4  1  0  0  0  0
  3 25  1  0  0  0  0
  4  5  2  0  0  0  0
  4 26  1  0  0  0  0
  5  6  1  0  0  0  0
  5 27  1  0  0  0  0
  6  7  2  0  0  0  0
  7  8  1  0  0  0  0
  8  9  1  0  0  0  0
  8 28  1  0  0  0  0
  9 10  2  0  0  0  0
  9 11  1  0  0  0  0
 11 12  1  0  0  0  0
 11 29  1  0  0  0  0
 12 13  1  0  0  0  0
 12 30  1  0  0  0  0
 12 31  1  0  0  0  0
 13 14  1  0  0  0  0
 13 32  1  0  0  0  0
 13 33  1  0  0  0  0
 14 21  1  0  0  0  0
 14 15  1  0  0  0  0
 14 46  1  0  0  0  0
 15 16  1  0  0  0  0
 15 34  1  0  0  0  0
 15 35  1  0  0  0  0
 16 17  1  0  0  0  0
 16 18  1  0  0  0  0
 16 36  1  0  0  0  0
 17 37  1  0  0  0  0
 17 38  1  0  0  0  0
 17 39  1  0  0  0  0
 18 19  1  0  0  0  0
 19 20  1  0  0  0  0
 19 21  1  0  0  0  0
 19 40  1  0  0  0  0
 20 41  1  0  0  0  0
 20 42  1  0  0  0  0
 20 43  1  0  0  0  0
 21 44  1  0  0  0  0
 21 45  1  0  0  0  0
M  CHG  1  14   1
M  END
> <s_m_source_file>
AV-unprocessed.smi

> <i_m_source_file_index>
1774

> <i_lp_mmshare_version>
43012

> <i_f3d_flags>
0

> <s_epik_input>
W0NIM11jMVtjSF1bY0hdW2NIXW5jMVtOSF1DKD1PKVtOSF1bQ0gyXVtDSDJdTjJbQ0gyXVtDQEBIXShbQ0gzXSlPW0NAQEhdKFtDSDNdKVtDSDJdMg==

> <s_epik_cmdline>
J2VwaWtfcHl0aG9uJywgJy1waCcsICc3LjAnLCAnLXRuJywgJzgnLCAnLW1hJywgJzIwMCcsICctbWV0YWxfYmluZGluZycsICctaW1hZScsICc8aW5maWxlLm1hZT4nLCAnLW9tYWUnLCAnPG91dGZpbGUubWFlPic=

> <r_epik_Ionization_Penalty>
0.602573

> <r_epik_Ionization_Penalty_Charging>
0.602531

> <r_epik_Ionization_Penalty_Neutral>
4.21996e-05

> <r_epik_State_Penalty>
0.617039

> <r_epik_Charging_Adjusted_Penalty>
1.21957

> <i_epik_Tot_Q>
1

> <i_epik_Tot_abs_Q>
1

> <r_epik_Metal_State_Penalty>
0.617042

> <b_epik_Metal_Only>
0

> <s_lp_Force_Field>
OPLS_2005

> <r_lp_Energy>
15.6229

> <b_lp_Chiralities_Consistent>
1

> <s_lp_Variant>
AV-unprocessed.smi:1774-4

> <Gold.Version>
5.8.1

> <Gold.Id.Protein>
6NUR|6NUR_protein|mol2

> <Gold.PLP.Fitness>
50.7449

> <Gold.PLP.PLP>
-42.8096

> <Gold.PLP.part.hbond>
-2.0000

> <Gold.PLP.part.metal>
0.0000

> <Gold.PLP.part.buried>
-6.1081

> <Gold.PLP.part.nonpolar>
-34.5127

> <Gold.PLP.part.repulsive>
0.4521

> <Gold.PLP.ligand.clash>
0.0000

> <Gold.PLP.ligand.torsion>
0.5144

> <Gold.PLP.Chemscore.Hbond>
2.9825

> <Gold.PLP.Chemscore.CHOScore>
0.0000

> <Gold.PLP.Chemscore.Metal>
0.0000

> <Gold.Chemscore.Hbonds>
donor molecule, donor type, donor heavy atom, donor atom, acceptor molecule, acceptor atom, score
      L1  H    11    29       P1  8028  1.00
      L1  H    14    46       P1  8028  1.76

> <Gold.PLP.Chemscore.Internal.Correction>
0.0166

> <Gold.Rescore>
     Score         DG    S(hbond)    S(metal)    S(lipo)     H(rot)  DE(clash)    DE(int)     intcor
     15.72     -17.93       1.26        0.00     103.27       1.49       0.47       1.74       ----

> <Gold.Chemscore.Fitness>
15.7197

> <Gold.Chemscore.DG>
-17.9309

> <Gold.Chemscore.ZeroCoef>
-5.4800

> <Gold.Chemscore.Hbond>
1.2560

> <Gold.Chemscore.Metal>
0.0000

> <Gold.Chemscore.Lipo>
103.2655

> <Gold.Chemscore.Internal_Hbond>
0.0000

> <Gold.Chemscore.DEClash>
0.4695

> <Gold.Chemscore.DEInternal>
1.7417

> <Gold.Chemscore.Rot>
1.4946

> <Gold.Chemscore.Internal.Correction>
   9.000000E+99

> <Gold.Chemscore.Hbonds>
donor molecule, donor type, donor heavy atom, donor atom, acceptor molecule, acceptor atom, score
      L1  H    11    29       P1  8028  0.99
      L1  H    14    46       P1  8028  0.21

> <Gold.Chemscore.Hbond.Weighted>
-4.1949

> <Gold.Chemscore.Metal.Weighted>
-0.0000

> <Gold.Chemscore.Lipo.Weighted>
-12.0821

> <Gold.Chemscore.Internal_Hbond.Weighted>
0.0000

> <Gold.Chemscore.DEClash.Weighted>
0.4695

> <Gold.Chemscore.DEInternal.Weighted>
1.7417

> <Gold.Chemscore.Rot.Weighted>
3.8261

> <Gold.Chemscore.Internal.Correction.Weighted>
   9.000000E+99

> <Gold.Protein.RotatedTorsions>
[ 6907 6896 6895 6894 ] final   -8.17 input  -60.11 | X-H torsion
[ 7974 7965 7964 7962 ] final -149.25 input  175.53 | X-H torsion
[ 8008 7997 7996 7995 ] final -105.96 input   59.86 | X-H torsion
[ 10167 10162 10161 10158 ] final  174.46 input  -65.29 | X-H torsion
[ 10718 10713 10712 10709 ] final -122.17 input   66.30 | X-H torsion
[ 10763 10752 10751 10750 ] final  146.14 input  -60.55 | X-H torsion
[ 11005 11000 10999 10996 ] final  -32.76 input  -57.11 | X-H torsion

> <Gold.Protein.ActiveResidues>
 VAL166  LYS551  ARG553  GLY616  TRP617  ASP618  TYR619  PRO620  LYS621  CYS622 
 ASP623  PHE694  ASN695  SER759  ASP760  ASP761  ALA762  ILE779  LEU786  VAL792 
 PHE793  MET794  SER795  GLU796  ALA797  LYS798  CYS799  TRP800  GLU811  SER814 

> <Gold.Protein.RotatedAtoms>
  151.4378  135.1017  159.9661 H   0  0  0  0  0  0  0  0  0  0  0  0  # atno 6907 bound_to 6896
  152.4933  133.8557  159.7235 H   0  0  0  0  0  0  0  0  0  0  0  0  # atno 6908 bound_to 6896
  150.9109  133.6940  159.2882 H   0  0  0  0  0  0  0  0  0  0  0  0  # atno 6909 bound_to 6896
  144.7979  140.5090  143.5727 H   0  0  0  0  0  0  0  0  0  0  0  0  # atno 7974 bound_to 7965
  154.9076  140.0411  157.1928 H   0  0  0  0  0  0  0  0  0  0  0  0  # atno 8008 bound_to 7997
  154.8381  140.2910  155.5656 H   0  0  0  0  0  0  0  0  0  0  0  0  # atno 8009 bound_to 7997
  156.2990  140.2488  156.3318 H   0  0  0  0  0  0  0  0  0  0  0  0  # atno 8010 bound_to 7997
  139.5143  144.3144  152.0262 H   0  0  0  0  0  0  0  0  0  0  0  0  # atno 10167 bound_to 10162
  156.1397  130.6456  150.9751 H   0  0  0  0  0  0  0  0  0  0  0  0  # atno 10718 bound_to 10713
  154.0170  135.2909  155.3385 H   0  0  0  0  0  0  0  0  0  0  0  0  # atno 10763 bound_to 10752
  154.7069  135.5165  153.8611 H   0  0  0  0  0  0  0  0  0  0  0  0  # atno 10764 bound_to 10752
  153.0698  135.6643  154.0396 H   0  0  0  0  0  0  0  0  0  0  0  0  # atno 10765 bound_to 10752
  140.9579  133.7182  156.1322 H   0  0  0  0  0  0  0  0  0  0  0  0  # atno 11005 bound_to 11000
  145.5627  139.1480  143.3332 LP  0  0  0  0  0  0  0  0  0  0  0  0  # atno 17320 bound_to 7965
  146.2252  140.5762  142.8999 LP  0  0  0  0  0  0  0  0  0  0  0  0  # atno 17321 bound_to 7965
  140.2587  144.4090  150.6194 LP  0  0  0  0  0  0  0  0  0  0  0  0  # atno 17342 bound_to 10162
  140.6173  143.2173  151.6767 LP  0  0  0  0  0  0  0  0  0  0  0  0  # atno 17343 bound_to 10162
  157.6564  131.0888  150.7937 LP  0  0  0  0  0  0  0  0  0  0  0  0  # atno 17370 bound_to 10713
  156.8014  130.4922  149.5369 LP  0  0  0  0  0  0  0  0  0  0  0  0  # atno 17371 bound_to 10713
  140.7510  134.4045  157.5541 LP  0  0  0  0  0  0  0  0  0  0  0  0  # atno 17394 bound_to 11000
  139.8868  134.8899  156.2564 LP  0  0  0  0  0  0  0  0  0  0  0  0  # atno 17395 bound_to 11000

$$$$
