AV-unprocessed.smi:1360|AV-procd|sdf|5554|dock5
  -GOLD-   22720 5143D 1   1.00000     0.00000
 Structure written by MMmdl.
 36 37  0  0  0  0  0  0  0  0  1 V2000
  147.3376  141.7107  155.6058 C   0  0  0  0  0  0  0  0  0  0  0  0
  148.7506  141.1439  155.8201 C   0  0  1  0  0  0  0  0  0  0  0  0
  149.4716  140.7851  154.5027 C   0  0  0  0  0  0  0  0  0  0  0  0
  150.3897  139.6706  154.6512 N   0  0  0  0  0  0  0  0  0  0  0  0
  150.4479  138.5088  153.9108 C   0  0  0  0  0  0  0  0  0  0  0  0
  151.4723  137.7584  154.4125 C   0  0  0  0  0  0  0  0  0  0  0  0
  151.9861  138.5545  155.4740 C   0  0  0  0  0  0  0  0  0  0  0  0
  151.3345  139.6976  155.6162 N   0  0  0  0  0  0  0  0  0  0  0  0
  149.5414  142.1102  156.5767 N   0  0  0  0  0  0  0  0  0  0  0  0
  150.3440  141.8202  157.6128 C   0  0  0  0  0  0  0  0  0  0  0  0
  150.5102  140.6771  158.0396 O   0  0  0  0  0  0  0  0  0  0  0  0
  151.0731  143.0031  158.2635 C   0  0  1  0  0  0  0  0  0  0  0  0
  150.0715  144.0709  158.7593 C   0  0  0  0  0  0  0  0  0  0  0  0
  150.7426  145.1288  159.6173 C   0  0  0  0  0  0  0  0  0  0  0  0
  151.9598  144.9725  160.1654 C   0  0  0  0  0  0  0  0  0  0  0  0
  152.7994  143.7186  159.9939 C   0  0  0  0  0  0  0  0  0  0  0  0
  151.9847  142.5436  159.4195 C   0  0  0  0  0  0  0  0  0  0  0  0
  146.6842  140.9845  155.1221 H   0  0  0  0  0  0  0  0  0  0  0  0
  147.3596  142.6059  154.9834 H   0  0  0  0  0  0  0  0  0  0  0  0
  146.8744  141.9767  156.5565 H   0  0  0  0  0  0  0  0  0  0  0  0
  148.6471  140.2357  156.4168 H   0  0  0  0  0  0  0  0  0  0  0  0
  148.7444  140.5436  153.7256 H   0  0  0  0  0  0  0  0  0  0  0  0
  150.0422  141.6399  154.1371 H   0  0  0  0  0  0  0  0  0  0  0  0
  149.7640  138.3172  153.0969 H   0  0  0  0  0  0  0  0  0  0  0  0
  151.8040  136.7882  154.0734 H   0  0  0  0  0  0  0  0  0  0  0  0
  152.8064  138.3372  156.1420 H   0  0  0  0  0  0  0  0  0  0  0  0
  149.4692  143.0765  156.2925 H   0  0  0  0  0  0  0  0  0  0  0  0
  151.7116  143.4647  157.5075 H   0  0  0  0  0  0  0  0  0  0  0  0
  149.6032  144.5617  157.9054 H   0  0  0  0  0  0  0  0  0  0  0  0
  149.2692  143.6214  159.3461 H   0  0  0  0  0  0  0  0  0  0  0  0
  150.1883  146.0395  159.7908 H   0  0  0  0  0  0  0  0  0  0  0  0
  152.3891  145.7692  160.7550 H   0  0  0  0  0  0  0  0  0  0  0  0
  153.6325  143.9580  159.3323 H   0  0  0  0  0  0  0  0  0  0  0  0
  153.2280  143.4377  160.9563 H   0  0  0  0  0  0  0  0  0  0  0  0
  151.3749  142.1113  160.2147 H   0  0  0  0  0  0  0  0  0  0  0  0
  152.6624  141.7551  159.0894 H   0  0  0  0  0  0  0  0  0  0  0  0
  1  2  1  0  0  0  0
  1 18  1  0  0  0  0
  1 19  1  0  0  0  0
  1 20  1  0  0  0  0
  2  3  1  0  0  0  0
  2  9  1  0  0  0  0
  2 21  1  0  0  0  0
  3  4  1  0  0  0  0
  3 22  1  0  0  0  0
  3 23  1  0  0  0  0
  4  8  1  0  0  0  0
  4  5  1  0  0  0  0
  5  6  2  0  0  0  0
  5 24  1  0  0  0  0
  6  7  1  0  0  0  0
  6 25  1  0  0  0  0
  7  8  2  0  0  0  0
  7 26  1  0  0  0  0
  9 10  1  0  0  0  0
  9 27  1  0  0  0  0
 10 11  2  0  0  0  0
 10 12  1  0  0  0  0
 12 17  1  0  0  0  0
 12 13  1  0  0  0  0
 12 28  1  0  0  0  0
 13 14  1  0  0  0  0
 13 29  1  0  0  0  0
 13 30  1  0  0  0  0
 14 15  2  0  0  0  0
 14 31  1  0  0  0  0
 15 16  1  0  0  0  0
 15 32  1  0  0  0  0
 16 17  1  0  0  0  0
 16 33  1  0  0  0  0
 16 34  1  0  0  0  0
 17 35  1  0  0  0  0
 17 36  1  0  0  0  0
M  END
> <s_m_source_file>
AV-unprocessed.smi

> <i_m_source_file_index>
1360

> <i_lp_mmshare_version>
43012

> <i_f3d_flags>
0

> <s_epik_input>
bjFbY0hdW2NIXVtjSF1uMVtDSDJdW0NAQEhdKFtDSDNdKVtOSF1DKD1PKVtDQEBIXTJbQ0gyXVtDSF09W0NIXVtDSDJdW0NIMl0y

> <s_epik_cmdline>
J2VwaWtfcHl0aG9uJywgJy1waCcsICc3LjAnLCAnLXRuJywgJzgnLCAnLW1hJywgJzIwMCcsICctbWV0YWxfYmluZGluZycsICctaW1hZScsICc8aW5maWxlLm1hZT4nLCAnLW9tYWUnLCAnPG91dGZpbGUubWFlPic=

> <r_lp_tautomer_probability>
1

> <r_epik_Ionization_Penalty>
0.000315076

> <r_epik_Ionization_Penalty_Charging>
0

> <r_epik_Ionization_Penalty_Neutral>
0.000315076

> <r_epik_State_Penalty>
-0

> <r_epik_Charging_Adjusted_Penalty>
0

> <i_epik_Tot_Q>
0

> <i_epik_Tot_abs_Q>
0

> <r_epik_Metal_State_Penalty>
-0

> <b_epik_Metal_Only>
0

> <s_lp_Force_Field>
OPLS_2005

> <r_lp_Energy>
7.88056

> <b_lp_Chiralities_Consistent>
1

> <s_lp_Variant>
AV-unprocessed.smi:1360-4

> <Gold.Version>
5.8.1

> <Gold.Id.Protein>
6NUR|6NUR_protein|mol2

> <Gold.PLP.Fitness>
43.9440

> <Gold.PLP.PLP>
-36.8667

> <Gold.PLP.part.hbond>
-1.0000

> <Gold.PLP.part.metal>
0.0000

> <Gold.PLP.part.buried>
-2.8488

> <Gold.PLP.part.nonpolar>
-33.4284

> <Gold.PLP.part.repulsive>
0.0489

> <Gold.PLP.ligand.clash>
0.0000

> <Gold.PLP.ligand.torsion>
0.6670

> <Gold.PLP.Chemscore.Hbond>
1.0000

> <Gold.PLP.Chemscore.CHOScore>
1.7926

> <Gold.PLP.Chemscore.Metal>
0.0000

> <Gold.Chemscore.Hbonds>
donor molecule, donor type, donor heavy atom, donor atom, acceptor molecule, acceptor atom, score
      L1  H     9    27       P1  8028  1.00
      L1  C     5    24       P1  7948  1.00
      L1  C     5    24       P1  7957  0.69

> <Gold.PLP.Chemscore.Internal.Correction>
0.0335

> <Gold.Rescore>
     Score         DG    S(hbond)    S(metal)    S(lipo)     H(rot)  DE(clash)    DE(int)     intcor
     16.34     -16.98       1.00        0.00     102.70       1.51       0.03       0.61       ----

> <Gold.Chemscore.Fitness>
16.3397

> <Gold.Chemscore.DG>
-16.9792

> <Gold.Chemscore.ZeroCoef>
-5.4800

> <Gold.Chemscore.Hbond>
0.9994

> <Gold.Chemscore.Metal>
0.0000

> <Gold.Chemscore.Lipo>
102.7002

> <Gold.Chemscore.Internal_Hbond>
0.0000

> <Gold.Chemscore.DEClash>
0.0317

> <Gold.Chemscore.DEInternal>
0.6079

> <Gold.Chemscore.Rot>
1.5057

> <Gold.Chemscore.Internal.Correction>
   9.000000E+99

> <Gold.Chemscore.Hbonds>
donor molecule, donor type, donor heavy atom, donor atom, acceptor molecule, acceptor atom, score
      L1  H     9    27       P1  8028  1.00

> <Gold.Chemscore.Hbond.Weighted>
-3.3379

> <Gold.Chemscore.Metal.Weighted>
-0.0000

> <Gold.Chemscore.Lipo.Weighted>
-12.0159

> <Gold.Chemscore.Internal_Hbond.Weighted>
0.0000

> <Gold.Chemscore.DEClash.Weighted>
0.0317

> <Gold.Chemscore.DEInternal.Weighted>
0.6079

> <Gold.Chemscore.Rot.Weighted>
3.8546

> <Gold.Chemscore.Internal.Correction.Weighted>
   9.000000E+99

> <Gold.Protein.RotatedTorsions>
[ 6907 6896 6895 6894 ] final    9.32 input  -60.11 | X-H torsion
[ 7974 7965 7964 7962 ] final   87.89 input  175.53 | X-H torsion
[ 8008 7997 7996 7995 ] final  117.29 input   59.86 | X-H torsion
[ 10167 10162 10161 10158 ] final  -84.41 input  -65.29 | X-H torsion
[ 10718 10713 10712 10709 ] final   -2.46 input   66.30 | X-H torsion
[ 10763 10752 10751 10750 ] final   11.12 input  -60.55 | X-H torsion
[ 11005 11000 10999 10996 ] final  -68.88 input  -57.11 | X-H torsion

> <Gold.Protein.ActiveResidues>
 VAL166  LYS551  ARG553  GLY616  TRP617  ASP618  TYR619  PRO620  LYS621  CYS622 
 ASP623  PHE694  ASN695  SER759  ASP760  ASP761  ALA762  ILE779  LEU786  VAL792 
 PHE793  MET794  SER795  GLU796  ALA797  LYS798  CYS799  TRP800  GLU811  SER814 

> <Gold.Protein.RotatedAtoms>
  151.7202  135.0896  160.0282 H   0  0  0  0  0  0  0  0  0  0  0  0  # atno 6907 bound_to 6896
  152.3607  133.6288  159.6021 H   0  0  0  0  0  0  0  0  0  0  0  0  # atno 6908 bound_to 6896
  150.7602  133.9345  159.3478 H   0  0  0  0  0  0  0  0  0  0  0  0  # atno 6909 bound_to 6896
  145.5529  139.2297  143.2502 H   0  0  0  0  0  0  0  0  0  0  0  0  # atno 7974 bound_to 7965
  156.2486  140.2899  156.0655 H   0  0  0  0  0  0  0  0  0  0  0  0  # atno 8008 bound_to 7997
  155.1728  140.0402  157.2884 H   0  0  0  0  0  0  0  0  0  0  0  0  # atno 8009 bound_to 7997
  154.6313  140.2500  155.7437 H   0  0  0  0  0  0  0  0  0  0  0  0  # atno 8010 bound_to 7997
  140.4135  143.2613  151.8986 H   0  0  0  0  0  0  0  0  0  0  0  0  # atno 10167 bound_to 10162
  156.7904  130.5360  149.5736 H   0  0  0  0  0  0  0  0  0  0  0  0  # atno 10718 bound_to 10713
  153.1960  135.6849  153.8291 H   0  0  0  0  0  0  0  0  0  0  0  0  # atno 10763 bound_to 10752
  153.7574  135.3215  155.3332 H   0  0  0  0  0  0  0  0  0  0  0  0  # atno 10764 bound_to 10752
  154.8145  135.4695  154.0704 H   0  0  0  0  0  0  0  0  0  0  0  0  # atno 10765 bound_to 10752
  141.1542  133.6751  156.6513 H   0  0  0  0  0  0  0  0  0  0  0  0  # atno 11005 bound_to 11000
  146.1904  140.6352  142.9148 LP  0  0  0  0  0  0  0  0  0  0  0  0  # atno 17320 bound_to 7965
  144.7520  140.5215  143.6795 LP  0  0  0  0  0  0  0  0  0  0  0  0  # atno 17321 bound_to 7965
  139.4782  144.5512  151.8382 LP  0  0  0  0  0  0  0  0  0  0  0  0  # atno 17342 bound_to 10162
  140.4612  144.1719  150.5906 LP  0  0  0  0  0  0  0  0  0  0  0  0  # atno 17343 bound_to 10162
  156.1162  130.6077  151.0124 LP  0  0  0  0  0  0  0  0  0  0  0  0  # atno 17370 bound_to 10713
  157.6603  131.0882  150.7853 LP  0  0  0  0  0  0  0  0  0  0  0  0  # atno 17371 bound_to 10713
  140.3318  134.7922  157.4332 LP  0  0  0  0  0  0  0  0  0  0  0  0  # atno 17394 bound_to 11000
  140.1010  134.5472  155.8352 LP  0  0  0  0  0  0  0  0  0  0  0  0  # atno 17395 bound_to 11000

$$$$
