#       Name:                AV-unprocessed.smi:91
#       Creating user name   scv26
#       Creation time:       Thu Mar 26 17:26:55 2020


#       File generated by GOLD software.
#

@<TRIPOS>MOLECULE
AV-unprocessed.smi:91
    72    75     1
SMALL
NO_CHARGES


@<TRIPOS>ATOM
      1 ****        -4.9740  -4.3314   0.4066 C.3            1 S1                 0.0000
      2 ****        -4.6270  -3.2927  -0.4955 O.3            1 S1                 0.0000
      3 ****        -5.1181  -2.0099  -0.1273 C.3            1 S1                 0.0000
      4 ****        -4.3057  -1.3696   1.0120 C.3            1 S1                 0.0000
      5 ****        -2.8223  -1.2008   0.6367 C.3            1 S1                 0.0000
      6 ****        -2.1324  -0.4457   1.6700 N.3            1 S1                 0.0000
      7 ****        -0.7877  -0.4804   1.5529 C.ar           1 S1                 0.0000
      8 ****        -0.1458  -1.4824   2.2026 N.ar           1 S1                 0.0000
      9 ****         1.1838  -1.5888   2.1227 C.ar           1 S1                 0.0000
     10 ****         2.0436  -0.8203   1.4512 N.ar           1 S1                 0.0000
     11 ****         1.3995   0.1794   0.7837 C.ar           1 S1                 0.0000
     12 ****        -0.0034   0.4234   0.7799 C.ar           1 S1                 0.0000
     13 ****        -0.2877   1.5215  -0.0239 N.2            1 S1                 0.0000
     14 ****         0.8781   1.9056  -0.4667 C.2            1 S1                 0.0000
     15 ****         1.9450   1.1509  -0.0373 N.pl3          1 S1                 0.0000
     16 ****         3.3409   1.3499  -0.3868 C.3            1 S1                 0.0000
     17 ****         3.6806   0.8779  -1.8226 C.3            1 S1                 0.0000
     18 ****         3.2599  -0.5891  -2.0844 C.3            1 S1                 0.0000
     19 ****         3.9781  -1.4869  -1.2635 O.3            1 S1                 0.0000
     20 ****         5.1691   1.1355  -2.1684 C.3            1 S1                 0.0000
     21 ****         5.5616   0.8074  -3.5982 C.3            1 S1                 0.0000
     22 ****         6.8681   1.5765  -3.7553 C.3            1 S1                 0.0000
     23 ****         6.7199   2.7454  -2.9580 O.3            1 S1                 0.0000
     24 ****         5.5974   2.6054  -2.0923 C.3            1 S1                 0.0000
     25 ****        -2.7399   0.8539   1.9221 C.3            1 S1                 0.0000
     26 ****        -4.2304   0.6926   2.2928 C.3            1 S1                 0.0000
     27 ****        -4.4163   0.0604   3.6889 C.3            1 S1                 0.0000
     28 ****        -4.9249   2.0629   2.2635 C.3            1 S1                 0.0000
     29 ****        -4.8782  -0.0871   1.2794 O.3            1 S1                 0.0000
     30 ****        -4.6142  -5.2833   0.0161 H              1 S1                 0.0000
     31 ****        -6.0554  -4.4077   0.5265 H              1 S1                 0.0000
     32 ****        -4.5212  -4.1868   1.3872 H              1 S1                 0.0000
     33 ****        -5.0600  -1.3707  -1.0088 H              1 S1                 0.0000
     34 ****        -6.1751  -2.0697   0.1367 H              1 S1                 0.0000
     35 ****        -4.3929  -1.9888   1.9033 H              1 S1                 0.0000
     36 ****        -2.3558  -2.1788   0.5096 H              1 S1                 0.0000
     37 ****        -2.7295  -0.6734  -0.3140 H              1 S1                 0.0000
     38 ****         1.6211  -2.4080   2.6740 H              1 S1                 0.0000
     39 ****         0.9923   2.7506  -1.1301 H              1 S1                 0.0000
     40 ****         3.5589   2.4115  -0.2699 H              1 S1                 0.0000
     41 ****         3.9628   0.8278   0.3412 H              1 S1                 0.0000
     42 ****         3.0851   1.4900  -2.5017 H              1 S1                 0.0000
     43 ****         2.1938  -0.7292  -1.9066 H              1 S1                 0.0000
     44 ****         3.4249  -0.8609  -3.1267 H              1 S1                 0.0000
     45 ****         3.6557  -2.3616  -1.4194 H              1 S1                 0.0000
     46 ****         5.8059   0.5575  -1.4964 H              1 S1                 0.0000
     47 ****         5.6850  -0.2610  -3.7778 H              1 S1                 0.0000
     48 ****         4.8159   1.1890  -4.2973 H              1 S1                 0.0000
     49 ****         7.7020   0.9927  -3.3637 H              1 S1                 0.0000
     50 ****         7.0857   1.8248  -4.7943 H              1 S1                 0.0000
     51 ****         4.8047   3.2599  -2.4570 H              1 S1                 0.0000
     52 ****         5.8472   2.9139  -1.0768 H              1 S1                 0.0000
     53 ****        -2.2006   1.3744   2.7149 H              1 S1                 0.0000
     54 ****        -2.6615   1.4660   1.0235 H              1 S1                 0.0000
     55 ****        -4.0284   0.7170   4.4681 H              1 S1                 0.0000
     56 ****        -3.8947  -0.8909   3.7905 H              1 S1                 0.0000
     57 ****        -5.4708  -0.1162   3.9023 H              1 S1                 0.0000
     58 ****        -4.4861   2.7463   2.9913 H              1 S1                 0.0000
     59 ****        -5.9872   1.9717   2.4926 H              1 S1                 0.0000
     60 ****        -4.8409   2.5278   1.2806 H              1 S1                 0.0000
     61 ****        -4.9966  -3.5231  -1.3957 LP             1 S1                 0.0000
     62 ****        -3.6296  -3.2431  -0.5475 LP             1 S1                 0.0000
     63 ****        -2.2769  -0.9265   2.5348 LP             1 S1                 0.0000
     64 ****        -0.6680  -2.1426   2.7423 LP             1 S1                 0.0000
     65 ****         3.0338  -0.9596   1.4390 LP             1 S1                 0.0000
     66 ****        -1.1817   1.9251  -0.2184 LP             1 S1                 0.0000
     67 ****         3.8448  -1.2449  -0.3025 LP             1 S1                 0.0000
     68 ****         4.9519  -1.4420  -1.4866 LP             1 S1                 0.0000
     69 ****         6.5824   3.5371  -3.5533 LP             1 S1                 0.0000
     70 ****         7.5458   2.8797  -2.4104 LP             1 S1                 0.0000
     71 ****        -5.8268  -0.2287   1.5623 LP             1 S1                 0.0000
     72 ****        -4.8589   0.4396   0.4295 LP             1 S1                 0.0000
@<TRIPOS>BOND
    1    1    2 1     
    2    1   30 1     
    3    1   31 1     
    4    1   32 1     
    5    2    3 1     
    6    3    4 1     
    7    3   33 1     
    8    3   34 1     
    9    4   29 1     
   10    4    5 1     
   11    4   35 1     
   12    5    6 1     
   13    5   36 1     
   14    5   37 1     
   15    6    7 1     
   16    6   25 1     
   17    7   12 ar    
   18    7    8 ar    
   19    8    9 ar    
   20    9   10 ar    
   21    9   38 1     
   22   10   11 ar    
   23   11   15 1     
   24   11   12 ar    
   25   12   13 1     
   26   13   14 2     
   27   14   15 1     
   28   14   39 1     
   29   15   16 1     
   30   16   17 1     
   31   16   40 1     
   32   16   41 1     
   33   17   18 1     
   34   17   20 1     
   35   17   42 1     
   36   18   19 1     
   37   18   43 1     
   38   18   44 1     
   39   19   45 1     
   40   20   24 1     
   41   20   21 1     
   42   20   46 1     
   43   21   22 1     
   44   21   47 1     
   45   21   48 1     
   46   22   23 1     
   47   22   49 1     
   48   22   50 1     
   49   23   24 1     
   50   24   51 1     
   51   24   52 1     
   52   25   26 1     
   53   25   53 1     
   54   25   54 1     
   55   26   27 1     
   56   26   28 1     
   57   26   29 1     
   58   27   55 1     
   59   27   56 1     
   60   27   57 1     
   61   28   58 1     
   62   28   59 1     
   63   28   60 1     
   64    2   61 1     
   65    2   62 1     
   66    6   63 1     
   67    8   64 1     
   68   10   65 1     
   69   13   66 1     
   70   19   67 1     
   71   19   68 1     
   72   23   69 1     
   73   23   70 1     
   74   29   71 1     
   75   29   72 1     
@<TRIPOS>SUBSTRUCTURE
      1 S1             1
@<TRIPOS>SET
LONE_PAIRS      STATIC     ATOMS    <user>   **** ""
12 61 62 63 64 65 66 67 68 69 70 71 72
DONOR_HYDROGENS      STATIC     ATOMS    <user>   **** ""
1 45
ATOM$BLUE        STATIC     ATOMS    COLORGROUP SYSTEM
12 61 62 63 64 65 66 67 68 69 70 71 72
ATOM$RED        STATIC     ATOMS    COLORGROUP SYSTEM
1 45
