AV-unprocessed.smi:1299|AV-procd|sdf|5418|dock6
  -GOLD-   22720 4573D 1   1.00000     0.00000
 Structure written by MMmdl.
 39 40  0  0  0  0  0  0  0  0  1 V2000
  154.8194  137.2025  165.2654 C   0  0  0  0  0  0  0  0  0  0  0  0
  155.1220  135.7154  165.3294 C   0  0  0  0  0  0  0  0  0  0  0  0
  154.6638  134.8689  166.2576 C   0  0  0  0  0  0  0  0  0  0  0  0
  155.1878  133.2245  165.9907 S   0  0  0  0  0  0  0  0  0  0  0  0
  156.0824  133.7399  164.5162 C   0  0  0  0  0  0  0  0  0  0  0  0
  156.7187  132.9557  163.8141 O   0  0  0  0  0  0  0  0  0  0  0  0
  155.9211  135.1149  164.3460 N   0  0  0  0  0  0  0  0  0  0  0  0
  156.5390  135.8542  163.2370 C   0  0  0  0  0  0  0  0  0  0  0  0
  155.5316  136.2953  162.1663 C   0  0  0  0  0  0  0  0  0  0  0  0
  154.7939  135.4786  161.6124 O   0  0  0  0  0  0  0  0  0  0  0  0
  155.5052  137.6086  161.8936 N   0  0  0  0  0  0  0  0  0  0  0  0
  154.6291  138.2438  160.9154 C   0  0  0  0  0  0  0  0  0  0  0  0
  154.3360  139.7120  161.2853 C   0  0  0  0  0  0  0  0  0  0  0  0
  153.5878  140.4892  160.1893 C   0  0  0  0  0  0  0  0  0  0  0  0
  153.3631  139.9551  159.1022 O   0  0  0  0  0  0  0  0  0  0  0  0
  153.1976  141.7523  160.4597 N   0  0  0  0  0  0  0  0  0  0  0  0
  153.4143  142.4623  161.7201 C   0  0  0  0  0  0  0  0  0  0  0  0
  152.5889  143.7454  161.6190 C   0  0  0  0  0  0  0  0  0  0  0  0
  152.4751  143.9998  160.1226 C   0  0  0  0  0  0  0  0  0  0  0  0
  152.4906  142.6021  159.5033 C   0  0  0  0  0  0  0  0  0  0  0  0
  153.9390  137.4348  165.8650 H   0  0  0  0  0  0  0  0  0  0  0  0
  154.6142  137.5310  164.2466 H   0  0  0  0  0  0  0  0  0  0  0  0
  155.6582  137.7765  165.6590 H   0  0  0  0  0  0  0  0  0  0  0  0
  154.0273  135.1189  167.0934 H   0  0  0  0  0  0  0  0  0  0  0  0
  157.0833  136.7246  163.6032 H   0  0  0  0  0  0  0  0  0  0  0  0
  157.2927  135.2244  162.7612 H   0  0  0  0  0  0  0  0  0  0  0  0
  156.1415  138.2114  162.3948 H   0  0  0  0  0  0  0  0  0  0  0  0
  155.1229  138.1920  159.9443 H   0  0  0  0  0  0  0  0  0  0  0  0
  153.7023  137.6737  160.8254 H   0  0  0  0  0  0  0  0  0  0  0  0
  153.7395  139.7442  162.1977 H   0  0  0  0  0  0  0  0  0  0  0  0
  155.2745  140.2247  161.4995 H   0  0  0  0  0  0  0  0  0  0  0  0
  153.1127  141.8743  162.5877 H   0  0  0  0  0  0  0  0  0  0  0  0
  154.4749  142.6986  161.8180 H   0  0  0  0  0  0  0  0  0  0  0  0
  151.5954  143.5734  162.0354 H   0  0  0  0  0  0  0  0  0  0  0  0
  153.0366  144.5805  162.1583 H   0  0  0  0  0  0  0  0  0  0  0  0
  151.5850  144.5707  159.8564 H   0  0  0  0  0  0  0  0  0  0  0  0
  153.3461  144.5606  159.7812 H   0  0  0  0  0  0  0  0  0  0  0  0
  152.9719  142.6084  158.5239 H   0  0  0  0  0  0  0  0  0  0  0  0
  151.4737  142.2264  159.3792 H   0  0  0  0  0  0  0  0  0  0  0  0
  1  2  1  0  0  0  0
  1 21  1  0  0  0  0
  1 22  1  0  0  0  0
  1 23  1  0  0  0  0
  2  7  1  0  0  0  0
  2  3  2  0  0  0  0
  3  4  1  0  0  0  0
  3 24  1  0  0  0  0
  4  5  1  0  0  0  0
  5  6  2  0  0  0  0
  5  7  1  0  0  0  0
  7  8  1  0  0  0  0
  8  9  1  0  0  0  0
  8 25  1  0  0  0  0
  8 26  1  0  0  0  0
  9 10  2  0  0  0  0
  9 11  1  0  0  0  0
 11 12  1  0  0  0  0
 11 27  1  0  0  0  0
 12 13  1  0  0  0  0
 12 28  1  0  0  0  0
 12 29  1  0  0  0  0
 13 14  1  0  0  0  0
 13 30  1  0  0  0  0
 13 31  1  0  0  0  0
 14 15  2  0  0  0  0
 14 16  1  0  0  0  0
 16 20  1  0  0  0  0
 16 17  1  0  0  0  0
 17 18  1  0  0  0  0
 17 32  1  0  0  0  0
 17 33  1  0  0  0  0
 18 19  1  0  0  0  0
 18 34  1  0  0  0  0
 18 35  1  0  0  0  0
 19 20  1  0  0  0  0
 19 36  1  0  0  0  0
 19 37  1  0  0  0  0
 20 38  1  0  0  0  0
 20 39  1  0  0  0  0
M  END
> <s_m_source_file>
AV-unprocessed.smi

> <i_m_source_file_index>
1299

> <i_lp_mmshare_version>
43012

> <i_f3d_flags>
0

> <s_epik_input>
W0NIM11jMVtjSF1zYyg9TyluMVtDSDJdQyg9TylbTkhdW0NIMl1bQ0gyXUMoPU8pTjJbQ0gyXVtDSDJdW0NIMl1bQ0gyXTI=

> <s_epik_cmdline>
J2VwaWtfcHl0aG9uJywgJy1waCcsICc3LjAnLCAnLXRuJywgJzgnLCAnLW1hJywgJzIwMCcsICctbWV0YWxfYmluZGluZycsICctaW1hZScsICc8aW5maWxlLm1hZT4nLCAnLW9tYWUnLCAnPG91dGZpbGUubWFlPic=

> <r_lp_tautomer_probability>
1

> <r_epik_Ionization_Penalty>
1.42672e-06

> <r_epik_Ionization_Penalty_Charging>
1.08064e-06

> <r_epik_Ionization_Penalty_Neutral>
3.46085e-07

> <r_epik_State_Penalty>
-0

> <r_epik_Charging_Adjusted_Penalty>
1.08064e-06

> <i_epik_Tot_Q>
0

> <i_epik_Tot_abs_Q>
0

> <r_epik_Metal_State_Penalty>
-0

> <b_epik_Metal_Only>
0

> <s_lp_Force_Field>
OPLS_2005

> <r_lp_Energy>
30.8751

> <b_lp_Chiralities_Consistent>
1

> <s_lp_Variant>
AV-unprocessed.smi:1299-1

> <Gold.Version>
5.8.1

> <Gold.Id.Protein>
6NUR|6NUR_protein|mol2

> <Gold.PLP.Fitness>
47.8036

> <Gold.PLP.PLP>
-42.8153

> <Gold.PLP.part.hbond>
-2.0000

> <Gold.PLP.part.metal>
0.0000

> <Gold.PLP.part.buried>
-3.6850

> <Gold.PLP.part.nonpolar>
-36.3167

> <Gold.PLP.part.repulsive>
0.0041

> <Gold.PLP.ligand.clash>
0.0000

> <Gold.PLP.ligand.torsion>
0.3893

> <Gold.PLP.Chemscore.Hbond>
1.9120

> <Gold.PLP.Chemscore.CHOScore>
0.0000

> <Gold.PLP.Chemscore.Metal>
0.0000

> <Gold.PLP.Chemscore.Internal.Correction>
0.0308

> <Gold.Rescore>
     Score         DG    S(hbond)    S(metal)    S(lipo)     H(rot)  DE(clash)    DE(int)     intcor
     17.38     -17.67       1.90        0.00      94.06       2.02       0.01       0.27       ----

> <Gold.Chemscore.Fitness>
17.3848

> <Gold.Chemscore.DG>
-17.6695

> <Gold.Chemscore.ZeroCoef>
-5.4800

> <Gold.Chemscore.Hbond>
1.9001

> <Gold.Chemscore.Metal>
0.0000

> <Gold.Chemscore.Lipo>
94.0571

> <Gold.Chemscore.Internal_Hbond>
0.0000

> <Gold.Chemscore.DEClash>
0.0098

> <Gold.Chemscore.DEInternal>
0.2749

> <Gold.Chemscore.Rot>
2.0162

> <Gold.Chemscore.Internal.Correction>
   9.000000E+99

> <Gold.Chemscore.Hbonds>
donor molecule, donor type, donor heavy atom, donor atom, acceptor molecule, acceptor atom, score
      P1  H  7997  8009       L1    15  0.07

> <Gold.Chemscore.Hbond.Weighted>
-6.3462

> <Gold.Chemscore.Metal.Weighted>
-0.0000

> <Gold.Chemscore.Lipo.Weighted>
-11.0047

> <Gold.Chemscore.Internal_Hbond.Weighted>
0.0000

> <Gold.Chemscore.DEClash.Weighted>
0.0098

> <Gold.Chemscore.DEInternal.Weighted>
0.2749

> <Gold.Chemscore.Rot.Weighted>
5.1614

> <Gold.Chemscore.Internal.Correction.Weighted>
   9.000000E+99

> <Gold.Protein.RotatedTorsions>
[ 6907 6896 6895 6894 ] final -167.27 input  -60.11 | X-H torsion
[ 7974 7965 7964 7962 ] final  174.38 input  175.53 | X-H torsion
[ 8008 7997 7996 7995 ] final  159.22 input   59.86 | X-H torsion
[ 10167 10162 10161 10158 ] final   66.56 input  -65.29 | X-H torsion
[ 10718 10713 10712 10709 ] final   69.40 input   66.30 | X-H torsion
[ 10763 10752 10751 10750 ] final  -54.80 input  -60.55 | X-H torsion
[ 11005 11000 10999 10996 ] final  -53.81 input  -57.11 | X-H torsion

> <Gold.Protein.ActiveResidues>
 VAL166  LYS551  ARG553  GLY616  TRP617  ASP618  TYR619  PRO620  LYS621  CYS622 
 ASP623  PHE694  ASN695  SER759  ASP760  ASP761  ALA762  ILE779  LEU786  VAL792 
 PHE793  MET794  SER795  GLU796  ALA797  LYS798  CYS799  TRP800  GLU811  SER814 

> <Gold.Protein.RotatedAtoms>
  151.4568  133.3603  159.2803 H   0  0  0  0  0  0  0  0  0  0  0  0  # atno 6907 bound_to 6896
  150.9053  134.8469  159.7399 H   0  0  0  0  0  0  0  0  0  0  0  0  # atno 6908 bound_to 6896
  152.4902  134.4493  159.9621 H   0  0  0  0  0  0  0  0  0  0  0  0  # atno 6909 bound_to 6896
  144.7223  139.9789  143.6438 H   0  0  0  0  0  0  0  0  0  0  0  0  # atno 7974 bound_to 7965
  156.2253  140.1837  156.7379 H   0  0  0  0  0  0  0  0  0  0  0  0  # atno 8008 bound_to 7997
  154.5931  140.0647  156.9294 H   0  0  0  0  0  0  0  0  0  0  0  0  # atno 8009 bound_to 7997
  155.2303  140.3314  155.4307 H   0  0  0  0  0  0  0  0  0  0  0  0  # atno 8010 bound_to 7997
  140.0990  144.4920  150.7049 H   0  0  0  0  0  0  0  0  0  0  0  0  # atno 10167 bound_to 10162
  157.6344  130.9424  150.0509 H   0  0  0  0  0  0  0  0  0  0  0  0  # atno 10718 bound_to 10713
  154.1807  135.6444  153.5033 H   0  0  0  0  0  0  0  0  0  0  0  0  # atno 10763 bound_to 10752
  153.0060  135.5405  154.6517 H   0  0  0  0  0  0  0  0  0  0  0  0  # atno 10764 bound_to 10752
  154.5881  135.2931  155.0637 H   0  0  0  0  0  0  0  0  0  0  0  0  # atno 10765 bound_to 10752
  141.0995  133.6620  156.4228 H   0  0  0  0  0  0  0  0  0  0  0  0  # atno 11005 bound_to 11000
  146.0504  139.3505  143.0643 LP  0  0  0  0  0  0  0  0  0  0  0  0  # atno 17320 bound_to 7965
  145.8222  140.9673  143.0893 LP  0  0  0  0  0  0  0  0  0  0  0  0  # atno 17321 bound_to 7965
  140.6988  143.2421  151.4925 LP  0  0  0  0  0  0  0  0  0  0  0  0  # atno 17342 bound_to 10162
  139.5682  144.1992  152.1796 LP  0  0  0  0  0  0  0  0  0  0  0  0  # atno 17343 bound_to 10162
  156.1571  130.3643  149.9353 LP  0  0  0  0  0  0  0  0  0  0  0  0  # atno 17370 bound_to 10713
  156.7359  130.9061  151.3629 LP  0  0  0  0  0  0  0  0  0  0  0  0  # atno 17371 bound_to 10713
  140.5058  134.6442  157.5266 LP  0  0  0  0  0  0  0  0  0  0  0  0  # atno 17394 bound_to 11000
  139.9841  134.7089  155.9805 LP  0  0  0  0  0  0  0  0  0  0  0  0  # atno 17395 bound_to 11000

$$$$
