AV-unprocessed.smi:2784|AV-procd|sdf|10739|dock2
  -GOLD-   2272015173D 1   1.00000     0.00000
 Structure written by MMmdl.
 31 32  0  0  0  0  0  0  0  0  1 V2000
  150.1687  144.6118  160.1252 C   0  0  0  0  0  0  0  0  0  0  0  0
  150.8477  143.4078  159.8076 O   0  0  0  0  0  0  0  0  0  0  0  0
  152.2638  143.4932  159.9449 C   0  0  1  0  0  0  0  0  0  0  0  0
  152.5429  143.7756  161.4227 C   0  0  0  0  0  0  0  0  0  0  0  0
  152.5034  142.4013  162.0842 C   0  0  0  0  0  0  0  0  0  0  0  0
  153.1368  141.4628  161.0551 C   0  0  0  0  0  0  0  0  0  0  0  0
  152.9432  142.1282  159.6780 C   0  0  1  0  0  0  0  0  0  0  0  0
  152.1716  141.2651  158.7852 N   0  0  0  0  0  0  0  0  0  0  0  0
  152.5276  140.0338  158.3902 C   0  0  0  0  0  0  0  0  0  0  0  0
  153.5844  139.5170  158.7662 O   0  0  0  0  0  0  0  0  0  0  0  0
  151.5619  139.5110  157.5424 N   0  0  0  0  0  0  0  0  0  0  0  0
  151.9219  138.8222  156.5038 C   0  0  0  0  0  0  0  0  0  0  0  0
  151.1014  138.2301  155.5568 N   0  0  0  0  0  0  0  0  0  0  0  0
  151.8958  137.6019  154.6379 C   0  0  0  0  0  0  0  0  0  0  0  0
  153.1643  137.7910  154.9895 C   0  0  0  0  0  0  0  0  0  0  0  0
  153.2146  138.5357  156.1291 O   0  0  0  0  0  0  0  0  0  0  0  0
  149.0977  144.4791  159.9725 H   0  0  0  0  0  0  0  0  0  0  0  0
  150.4991  145.4361  159.4929 H   0  0  0  0  0  0  0  0  0  0  0  0
  150.3285  144.8867  161.1686 H   0  0  0  0  0  0  0  0  0  0  0  0
  152.6846  144.2815  159.3174 H   0  0  0  0  0  0  0  0  0  0  0  0
  153.5413  144.2017  161.5316 H   0  0  0  0  0  0  0  0  0  0  0  0
  151.8337  144.4777  161.8625 H   0  0  0  0  0  0  0  0  0  0  0  0
  153.0202  142.3815  163.0443 H   0  0  0  0  0  0  0  0  0  0  0  0
  151.4669  142.1094  162.2587 H   0  0  0  0  0  0  0  0  0  0  0  0
  154.2034  141.3594  161.2596 H   0  0  0  0  0  0  0  0  0  0  0  0
  152.7032  140.4633  161.1135 H   0  0  0  0  0  0  0  0  0  0  0  0
  153.9347  142.3023  159.2558 H   0  0  0  0  0  0  0  0  0  0  0  0
  151.3011  141.6385  158.4351 H   0  0  0  0  0  0  0  0  0  0  0  0
  150.0926  138.2351  155.5130 H   0  0  0  0  0  0  0  0  0  0  0  0
  151.4553  137.0715  153.8065 H   0  0  0  0  0  0  0  0  0  0  0  0
  154.1013  137.4757  154.5548 H   0  0  0  0  0  0  0  0  0  0  0  0
  1  2  1  0  0  0  0
  1 17  1  0  0  0  0
  1 18  1  0  0  0  0
  1 19  1  0  0  0  0
  2  3  1  0  0  0  0
  3  7  1  0  0  0  0
  3  4  1  0  0  0  0
  3 20  1  0  0  0  0
  4  5  1  0  0  0  0
  4 21  1  0  0  0  0
  4 22  1  0  0  0  0
  5  6  1  0  0  0  0
  5 23  1  0  0  0  0
  5 24  1  0  0  0  0
  6  7  1  0  0  0  0
  6 25  1  0  0  0  0
  6 26  1  0  0  0  0
  7  8  1  0  0  0  0
  7 27  1  0  0  0  0
  8 28  1  0  0  0  0
  8  9  1  0  0  0  0
  9 11  1  0  0  0  0
  9 10  2  0  0  0  0
 11 12  2  0  0  0  0
 12 16  1  0  0  0  0
 12 13  1  0  0  0  0
 13 29  1  0  0  0  0
 13 14  1  0  0  0  0
 14 30  1  0  0  0  0
 14 15  2  0  0  0  0
 15 31  1  0  0  0  0
 15 16  1  0  0  0  0
M  END
> <s_m_source_file>
AV-unprocessed.smi

> <i_m_source_file_index>
2784

> <i_lp_mmshare_version>
43012

> <i_f3d_flags>
0

> <s_epik_input>
W0NIM11PW0NAQEhdMVtDSDJdW0NIMl1bQ0gyXVtDQEhdMVtOSF1DKD1PKVtOSF1jMm5bY0hdW2NIXW8y

> <s_epik_cmdline>
J2VwaWtfcHl0aG9uJywgJy1waCcsICc3LjAnLCAnLXRuJywgJzgnLCAnLW1hJywgJzIwMCcsICctbWV0YWxfYmluZGluZycsICctaW1hZScsICc8aW5maWxlLm1hZT4nLCAnLW9tYWUnLCAnPG91dGZpbGUubWFlPic=

> <r_lp_tautomer_probability>
0.107061

> <r_epik_Ionization_Penalty>
1.29244

> <r_epik_Ionization_Penalty_Charging>
1.29208

> <r_epik_Ionization_Penalty_Neutral>
0.000359742

> <r_epik_State_Penalty>
2.59896

> <r_epik_Charging_Adjusted_Penalty>
3.89105

> <i_epik_Tot_Q>
0

> <i_epik_Tot_abs_Q>
0

> <r_epik_Metal_State_Penalty>
3.62496

> <b_epik_Metal_Only>
0

> <s_lp_Force_Field>
OPLS_2005

> <r_lp_Energy>
45.4074

> <b_lp_Chiralities_Consistent>
1

> <s_lp_Variant>
AV-unprocessed.smi:2784-14

> <Gold.Version>
5.8.1

> <Gold.Id.Protein>
6NUR|6NUR_protein|mol2

> <Gold.PLP.Fitness>
39.9335

> <Gold.PLP.PLP>
-34.1698

> <Gold.PLP.part.hbond>
-1.9313

> <Gold.PLP.part.metal>
0.0000

> <Gold.PLP.part.buried>
-5.8749

> <Gold.PLP.part.nonpolar>
-26.4672

> <Gold.PLP.part.repulsive>
0.2348

> <Gold.PLP.ligand.clash>
0.0000

> <Gold.PLP.ligand.torsion>
0.3097

> <Gold.PLP.Chemscore.Hbond>
1.0000

> <Gold.PLP.Chemscore.CHOScore>
1.1237

> <Gold.PLP.Chemscore.Metal>
0.0000

> <Gold.Chemscore.Hbonds>
donor molecule, donor type, donor heavy atom, donor atom, acceptor molecule, acceptor atom, score
      P1  H  7997  8010       L1    10  0.71
      L1  C    14    30       P1  7949  0.90

> <Gold.PLP.Chemscore.Internal.Correction>
0.0120

> <Gold.Rescore>
     Score         DG    S(hbond)    S(metal)    S(lipo)     H(rot)  DE(clash)    DE(int)     intcor
     13.11     -14.92       0.99        0.00      81.34       1.32       0.03       1.78       ----

> <Gold.Chemscore.Fitness>
13.1083

> <Gold.Chemscore.DG>
-14.9189

> <Gold.Chemscore.ZeroCoef>
-5.4800

> <Gold.Chemscore.Hbond>
0.9911

> <Gold.Chemscore.Metal>
0.0000

> <Gold.Chemscore.Lipo>
81.3406

> <Gold.Chemscore.Internal_Hbond>
0.0000

> <Gold.Chemscore.DEClash>
0.0310

> <Gold.Chemscore.DEInternal>
1.7796

> <Gold.Chemscore.Rot>
1.3235

> <Gold.Chemscore.Internal.Correction>
   9.000000E+99

> <Gold.Chemscore.Hbonds>
donor molecule, donor type, donor heavy atom, donor atom, acceptor molecule, acceptor atom, score
      P1  H  7997  8010       L1    16  0.14

> <Gold.Chemscore.Hbond.Weighted>
-3.3102

> <Gold.Chemscore.Metal.Weighted>
-0.0000

> <Gold.Chemscore.Lipo.Weighted>
-9.5168

> <Gold.Chemscore.Internal_Hbond.Weighted>
0.0000

> <Gold.Chemscore.DEClash.Weighted>
0.0310

> <Gold.Chemscore.DEInternal.Weighted>
1.7796

> <Gold.Chemscore.Rot.Weighted>
3.3882

> <Gold.Chemscore.Internal.Correction.Weighted>
   9.000000E+99

> <Gold.Protein.RotatedTorsions>
[ 6907 6896 6895 6894 ] final  178.51 input  -60.11 | X-H torsion
[ 7974 7965 7964 7962 ] final -170.52 input  175.53 | X-H torsion
[ 8008 7997 7996 7995 ] final   30.50 input   59.86 | X-H torsion
[ 10167 10162 10161 10158 ] final   32.81 input  -65.29 | X-H torsion
[ 10718 10713 10712 10709 ] final   79.59 input   66.30 | X-H torsion
[ 10763 10752 10751 10750 ] final  -37.71 input  -60.55 | X-H torsion
[ 11005 11000 10999 10996 ] final  -72.02 input  -57.11 | X-H torsion

> <Gold.Protein.ActiveResidues>
 VAL166  LYS551  ARG553  GLY616  TRP617  ASP618  TYR619  PRO620  LYS621  CYS622 
 ASP623  PHE694  ASN695  SER759  ASP760  ASP761  ALA762  ILE779  LEU786  VAL792 
 PHE793  MET794  SER795  GLU796  ALA797  LYS798  CYS799  TRP800  GLU811  SER814 

> <Gold.Protein.RotatedAtoms>
  151.6867  133.3311  159.3232 H   0  0  0  0  0  0  0  0  0  0  0  0  # atno 6907 bound_to 6896
  150.7798  134.6734  159.6413 H   0  0  0  0  0  0  0  0  0  0  0  0  # atno 6908 bound_to 6896
  152.3851  134.6532  160.0180 H   0  0  0  0  0  0  0  0  0  0  0  0  # atno 6909 bound_to 6896
  144.7169  140.2059  143.6333 H   0  0  0  0  0  0  0  0  0  0  0  0  # atno 7974 bound_to 7965
  155.0914  140.3220  155.4573 H   0  0  0  0  0  0  0  0  0  0  0  0  # atno 8008 bound_to 7997
  156.2742  140.2077  156.5987 H   0  0  0  0  0  0  0  0  0  0  0  0  # atno 8009 bound_to 7997
  154.6901  140.0517  157.0341 H   0  0  0  0  0  0  0  0  0  0  0  0  # atno 8010 bound_to 7997
  140.4464  144.1112  150.6183 H   0  0  0  0  0  0  0  0  0  0  0  0  # atno 10167 bound_to 10162
  157.6781  130.9921  150.1955 H   0  0  0  0  0  0  0  0  0  0  0  0  # atno 10718 bound_to 10713
  153.9008  135.6802  153.4755 H   0  0  0  0  0  0  0  0  0  0  0  0  # atno 10763 bound_to 10752
  153.1130  135.4774  154.9065 H   0  0  0  0  0  0  0  0  0  0  0  0  # atno 10764 bound_to 10752
  154.7576  135.3201  154.8395 H   0  0  0  0  0  0  0  0  0  0  0  0  # atno 10765 bound_to 10752
  141.1602  133.6834  156.6994 H   0  0  0  0  0  0  0  0  0  0  0  0  # atno 11005 bound_to 11000
  145.8636  139.2235  143.1702 LP  0  0  0  0  0  0  0  0  0  0  0  0  # atno 17320 bound_to 7965
  146.0150  140.8400  142.9952 LP  0  0  0  0  0  0  0  0  0  0  0  0  # atno 17321 bound_to 7965
  140.4258  143.2590  151.9658 LP  0  0  0  0  0  0  0  0  0  0  0  0  # atno 17342 bound_to 10162
  139.4793  144.5789  151.7965 LP  0  0  0  0  0  0  0  0  0  0  0  0  # atno 17343 bound_to 10162
  156.2657  130.3716  149.8083 LP  0  0  0  0  0  0  0  0  0  0  0  0  # atno 17370 bound_to 10713
  156.5815  130.8468  151.3384 LP  0  0  0  0  0  0  0  0  0  0  0  0  # atno 17371 bound_to 10713
  140.2970  134.8194  157.4065 LP  0  0  0  0  0  0  0  0  0  0  0  0  # atno 17394 bound_to 11000
  140.1296  134.5113  155.8117 LP  0  0  0  0  0  0  0  0  0  0  0  0  # atno 17395 bound_to 11000

$$$$
