#       Name:                AV-unprocessed.smi:1976
#       Creating user name   scv26
#       Creation time:       Fri Mar 27 10:16:25 2020


#       File generated by GOLD software.
#

@<TRIPOS>MOLECULE
AV-unprocessed.smi:1976
    49    51     1
SMALL
NO_CHARGES


@<TRIPOS>ATOM
      1 ****        -0.0338   1.8303   0.4527 O.2            1 S1                 0.0000
      2 ****         0.6726   0.8451   0.2344 C.2            1 S1                 0.0000
      3 ****         2.2026   0.9641   0.1782 C.3            1 S1                 0.0000
      4 ****         2.6780   2.3475   0.0080 N.am           1 S1                 0.0000
      5 ****         3.0746   3.0366   1.1709 C.2            1 S1                 0.0000
      6 ****         3.5396   4.3004   1.1516 C.2            1 S1                 0.0000
      7 ****         3.9017   5.0385   2.4312 C.3            1 S1                 0.0000
      8 ****         3.7244   6.3528   2.2938 F              1 S1                 0.0000
      9 ****         3.1577   4.6201   3.4560 F              1 S1                 0.0000
     10 ****         5.1813   4.8216   2.7326 F              1 S1                 0.0000
     11 ****         3.5871   4.9504  -0.1435 C.2            1 S1                 0.0000
     12 ****         3.1982   4.3105  -1.2638 C.2            1 S1                 0.0000
     13 ****         2.7114   2.9295  -1.2282 C.2            1 S1                 0.0000
     14 ****         2.3543   2.3329  -2.2445 O.2            1 S1                 0.0000
     15 ****         0.1725  -0.3854   0.0500 N.am           1 S1                 0.0000
     16 ****        -1.2490  -0.7126   0.0616 C.3            1 S1                 0.0000
     17 ****        -1.8844  -0.7052   1.4659 C.3            1 S1                 0.0000
     18 ****        -2.8847  -1.8781   1.4676 C.3            1 S1                 0.0000
     19 ****        -2.8566  -2.4165   0.0941 N.4            1 S1                 1.0000
     20 ****        -3.2637  -3.8271  -0.0866 C.3            1 S1                 0.0000
     21 ****        -3.2396  -4.1761  -1.5885 C.3            1 S1                 0.0000
     22 ****        -1.8803  -3.8369  -2.2347 C.3            1 S1                 0.0000
     23 ****        -1.4697  -2.3816  -1.9363 C.3            1 S1                 0.0000
     24 ****        -1.5061  -2.1403  -0.4183 C.3            1 S1                 0.0000
     25 ****         2.6114   0.5300   1.0915 H              1 S1                 0.0000
     26 ****         2.5828   0.3357  -0.6296 H              1 S1                 0.0000
     27 ****         2.9665   2.4729   2.0862 H              1 S1                 0.0000
     28 ****         3.9435   5.9672  -0.2178 H              1 S1                 0.0000
     29 ****         3.2478   4.8260  -2.2117 H              1 S1                 0.0000
     30 ****         0.8195  -1.1425  -0.1181 H              1 S1                 0.0000
     31 ****        -1.7920  -0.0175  -0.5825 H              1 S1                 0.0000
     32 ****        -1.1340  -0.8604   2.2427 H              1 S1                 0.0000
     33 ****        -2.3742   0.2478   1.6695 H              1 S1                 0.0000
     34 ****        -2.5629  -2.6425   2.1768 H              1 S1                 0.0000
     35 ****        -3.8928  -1.5654   1.7406 H              1 S1                 0.0000
     36 ****        -2.5916  -4.4825   0.4695 H              1 S1                 0.0000
     37 ****        -4.2660  -3.9733   0.3178 H              1 S1                 0.0000
     38 ****        -3.4678  -5.2330  -1.7301 H              1 S1                 0.0000
     39 ****        -4.0275  -3.6211  -2.0995 H              1 S1                 0.0000
     40 ****        -1.1176  -4.5146  -1.8490 H              1 S1                 0.0000
     41 ****        -1.9242  -4.0027  -3.3117 H              1 S1                 0.0000
     42 ****        -0.4709  -2.1856  -2.3277 H              1 S1                 0.0000
     43 ****        -2.1472  -1.6937  -2.4442 H              1 S1                 0.0000
     44 ****        -0.8033  -2.8167   0.0743 H              1 S1                 0.0000
     45 ****        -3.4897  -1.8482  -0.4504 H              1 S1                 0.0000
     46 ****         0.3876   2.7257   0.5967 LP             1 S1                 0.0000
     47 ****        -1.0286   1.7347   0.4859 LP             1 S1                 0.0000
     48 ****         2.0261   1.3904  -2.1817 LP             1 S1                 0.0000
     49 ****         2.3926   2.7909  -3.1326 LP             1 S1                 0.0000
@<TRIPOS>BOND
    1    1    2 2     
    2    2    3 1     
    3    2   15 am    
    4    3    4 1     
    5    3   25 1     
    6    3   26 1     
    7    4   13 am    
    8    4    5 1     
    9    5    6 2     
   10    5   27 1     
   11    6    7 1     
   12    6   11 1     
   13    7    8 1     
   14    7    9 1     
   15    7   10 1     
   16   11   12 2     
   17   11   28 1     
   18   12   13 1     
   19   12   29 1     
   20   13   14 2     
   21   15   16 1     
   22   15   30 1     
   23   16   24 1     
   24   16   17 1     
   25   16   31 1     
   26   17   18 1     
   27   17   32 1     
   28   17   33 1     
   29   18   19 1     
   30   18   34 1     
   31   18   35 1     
   32   19   24 1     
   33   19   20 1     
   34   19   45 1     
   35   20   21 1     
   36   20   36 1     
   37   20   37 1     
   38   21   22 1     
   39   21   38 1     
   40   21   39 1     
   41   22   23 1     
   42   22   40 1     
   43   22   41 1     
   44   23   24 1     
   45   23   42 1     
   46   23   43 1     
   47   24   44 1     
   48    1   46 1     
   49    1   47 1     
   50   14   48 1     
   51   14   49 1     
@<TRIPOS>SUBSTRUCTURE
      1 S1             1
@<TRIPOS>SET
LONE_PAIRS      STATIC     ATOMS    <user>   **** ""
4 46 47 48 49
DONOR_HYDROGENS      STATIC     ATOMS    <user>   **** ""
2 30 45
ATOM$BLUE        STATIC     ATOMS    COLORGROUP SYSTEM
4 46 47 48 49
ATOM$RED        STATIC     ATOMS    COLORGROUP SYSTEM
2 30 45
