AV-unprocessed.smi:1033|AV-procd|sdf|4498|dock5
  -GOLD-   22720 2493D 1   1.00000     0.00000
 Structure written by MMmdl.
 57 59  0  0  0  0  0  0  0  0  3 V2000
  152.2168  144.6474  160.4549 C   0  0  0  0  0  0  0  0  0  0  0  0
  152.0302  143.5285  159.4442 C   0  0  0  0  0  0  0  0  0  0  0  0
  151.1361  143.7329  158.3693 C   0  0  0  0  0  0  0  0  0  0  0  0
  150.9865  142.6915  157.4615 C   0  0  0  0  0  0  0  0  0  0  0  0
  150.1937  142.5844  156.3171 N   0  3  0  0  0  0  0  0  0  0  0  0
  150.3822  141.3630  155.7460 C   0  0  0  0  0  0  0  0  0  0  0  0
  151.2829  140.6860  156.5096 N   0  0  0  0  0  0  0  0  0  0  0  0
  151.8340  139.3343  156.3307 C   0  0  0  0  0  0  0  0  0  0  0  0
  150.7543  138.2352  156.3771 C   0  0  2  0  0  0  0  0  0  0  0  0
  150.0362  138.3307  157.5921 O   0  0  0  0  0  0  0  0  0  0  0  0
  151.3727  136.8260  156.2777 C   0  0  0  0  0  0  0  0  0  0  0  0
  150.3511  135.7522  156.1770 N   0  3  0  0  0  0  0  0  0  0  0  0
  150.9495  134.4303  155.8575 C   0  0  0  0  0  0  0  0  0  0  0  0
  149.8622  133.3364  155.8399 C   0  0  0  0  0  0  0  0  0  0  0  0
  148.7742  133.6181  154.9041 N   0  0  0  0  0  0  0  0  0  0  0  0
  149.1774  133.4639  153.5013 C   0  0  0  0  0  0  0  0  0  0  0  0
  148.0427  133.1087  152.5202 C   0  0  2  0  0  0  0  0  0  0  0  0
  146.7566  133.9066  152.7794 C   0  0  0  0  0  0  0  0  0  0  0  0
  147.7475  131.7369  152.6750 O   0  0  0  0  0  0  0  0  0  0  0  0
  148.2026  134.9255  155.2370 C   0  0  0  0  0  0  0  0  0  0  0  0
  149.2412  136.0660  155.2377 C   0  0  0  0  0  0  0  0  0  0  0  0
  151.6897  141.4776  157.5916 C   0  0  0  0  0  0  0  0  0  0  0  0
  152.5748  141.2605  158.6459 C   0  0  0  0  0  0  0  0  0  0  0  0
  152.7402  142.3077  159.5805 C   0  0  0  0  0  0  0  0  0  0  0  0
  153.6973  142.0983  160.7417 C   0  0  0  0  0  0  0  0  0  0  0  0
  151.5774  145.5010  160.2282 H   0  0  0  0  0  0  0  0  0  0  0  0
  153.2501  144.9951  160.4532 H   0  0  0  0  0  0  0  0  0  0  0  0
  151.9683  144.3039  161.4593 H   0  0  0  0  0  0  0  0  0  0  0  0
  150.5921  144.6598  158.2591 H   0  0  0  0  0  0  0  0  0  0  0  0
  149.9040  140.9991  154.8480 H   0  0  0  0  0  0  0  0  0  0  0  0
  152.3331  139.3208  155.3610 H   0  0  0  0  0  0  0  0  0  0  0  0
  152.6125  139.1595  157.0738 H   0  0  0  0  0  0  0  0  0  0  0  0
  150.0582  138.4046  155.5562 H   0  0  0  0  0  0  0  0  0  0  0  0
  149.1117  138.3449  157.3944 H   0  0  0  0  0  0  0  0  0  0  0  0
  152.0453  136.7617  155.4210 H   0  0  0  0  0  0  0  0  0  0  0  0
  151.9908  136.6583  157.1615 H   0  0  0  0  0  0  0  0  0  0  0  0
  151.4713  134.4782  154.9007 H   0  0  0  0  0  0  0  0  0  0  0  0
  151.6971  134.1775  156.6102 H   0  0  0  0  0  0  0  0  0  0  0  0
  150.3118  132.3706  155.6061 H   0  0  0  0  0  0  0  0  0  0  0  0
  149.4488  133.2344  156.8443 H   0  0  0  0  0  0  0  0  0  0  0  0
  149.6754  134.3689  153.1541 H   0  0  0  0  0  0  0  0  0  0  0  0
  149.9297  132.6762  153.4370 H   0  0  0  0  0  0  0  0  0  0  0  0
  148.3629  133.2509  151.4886 H   0  0  0  0  0  0  0  0  0  0  0  0
  146.9212  134.9748  152.6356 H   0  0  0  0  0  0  0  0  0  0  0  0
  146.3959  133.7610  153.7983 H   0  0  0  0  0  0  0  0  0  0  0  0
  145.9611  133.6040  152.0976 H   0  0  0  0  0  0  0  0  0  0  0  0
  147.8354  131.3132  151.8346 H   0  0  0  0  0  0  0  0  0  0  0  0
  147.3821  135.1686  154.5634 H   0  0  0  0  0  0  0  0  0  0  0  0
  147.7507  134.8676  156.2282 H   0  0  0  0  0  0  0  0  0  0  0  0
  148.7452  136.9885  155.5363 H   0  0  0  0  0  0  0  0  0  0  0  0
  149.6343  136.2350  154.2345 H   0  0  0  0  0  0  0  0  0  0  0  0
  153.1141  140.3315  158.7554 H   0  0  0  0  0  0  0  0  0  0  0  0
  154.1858  141.1250  160.6867 H   0  0  0  0  0  0  0  0  0  0  0  0
  153.1634  142.1500  161.6909 H   0  0  0  0  0  0  0  0  0  0  0  0
  154.4761  142.8615  160.7398 H   0  0  0  0  0  0  0  0  0  0  0  0
  149.9429  135.6588  157.0965 H   0  0  0  0  0  0  0  0  0  0  0  0
  149.5710  143.2926  155.9495 H   0  0  0  0  0  0  0  0  0  0  0  0
  1  2  1  0  0  0  0
  1 26  1  0  0  0  0
  1 27  1  0  0  0  0
  1 28  1  0  0  0  0
  2 24  1  0  0  0  0
  2  3  2  0  0  0  0
  3  4  1  0  0  0  0
  3 29  1  0  0  0  0
  4 22  2  0  0  0  0
  4  5  1  0  0  0  0
  5  6  2  0  0  0  0
  5 57  1  0  0  0  0
  6  7  1  0  0  0  0
  6 30  1  0  0  0  0
  7  8  1  0  0  0  0
  7 22  1  0  0  0  0
  8  9  1  0  0  0  0
  8 31  1  0  0  0  0
  8 32  1  0  0  0  0
  9 10  1  0  0  0  0
  9 11  1  0  0  0  0
  9 33  1  0  0  0  0
 10 34  1  0  0  0  0
 11 12  1  0  0  0  0
 11 35  1  0  0  0  0
 11 36  1  0  0  0  0
 12 21  1  0  0  0  0
 12 13  1  0  0  0  0
 12 56  1  0  0  0  0
 13 14  1  0  0  0  0
 13 37  1  0  0  0  0
 13 38  1  0  0  0  0
 14 15  1  0  0  0  0
 14 39  1  0  0  0  0
 14 40  1  0  0  0  0
 15 16  1  0  0  0  0
 15 20  1  0  0  0  0
 16 17  1  0  0  0  0
 16 41  1  0  0  0  0
 16 42  1  0  0  0  0
 17 18  1  0  0  0  0
 17 19  1  0  0  0  0
 17 43  1  0  0  0  0
 18 44  1  0  0  0  0
 18 45  1  0  0  0  0
 18 46  1  0  0  0  0
 19 47  1  0  0  0  0
 20 21  1  0  0  0  0
 20 48  1  0  0  0  0
 20 49  1  0  0  0  0
 21 50  1  0  0  0  0
 21 51  1  0  0  0  0
 22 23  1  0  0  0  0
 23 24  2  0  0  0  0
 23 52  1  0  0  0  0
 24 25  1  0  0  0  0
 25 53  1  0  0  0  0
 25 54  1  0  0  0  0
 25 55  1  0  0  0  0
M  CHG  1   5   1
M  CHG  1  12   1
M  END
> <s_m_source_file>
AV-unprocessed.smi

> <i_m_source_file_index>
1033

> <i_lp_mmshare_version>
43012

> <i_f3d_flags>
0

> <s_epik_input>
W0NIM11jKFtjSF0xKWMoW0NIM10pW2NIXWMoYzEyKW4oW2NIXW4yKVtDSDJdW0NASF0oW09IXSlbQ0gyXU4zW0NIMl1bQ0gyXU4oW0NIMl1bQ0gyXTMpW0NIMl1bQ0BIXShbQ0gzXSlbT0hd

> <s_epik_cmdline>
J2VwaWtfcHl0aG9uJywgJy1waCcsICc3LjAnLCAnLXRuJywgJzgnLCAnLW1hJywgJzIwMCcsICctbWV0YWxfYmluZGluZycsICctaW1hZScsICc8aW5maWxlLm1hZT4nLCAnLW9tYWUnLCAnPG91dGZpbGUubWFlPic=

> <r_epik_Ionization_Penalty>
1.22049

> <r_epik_Ionization_Penalty_Charging>
1.17952

> <r_epik_Ionization_Penalty_Neutral>
0.0409743

> <r_epik_State_Penalty>
1.61468

> <r_epik_Charging_Adjusted_Penalty>
2.7942

> <i_epik_Tot_Q>
2

> <i_epik_Tot_abs_Q>
2

> <r_epik_Metal_State_Penalty>
5.63169

> <b_epik_Metal_Only>
0

> <s_lp_Force_Field>
OPLS_2005

> <r_lp_Energy>
42.2447

> <b_lp_Chiralities_Consistent>
1

> <s_lp_Variant>
AV-unprocessed.smi:1033-9

> <Gold.Version>
5.8.1

> <Gold.Id.Protein>
6NUR|6NUR_protein|mol2

> <Gold.PLP.Fitness>
54.9548

> <Gold.PLP.PLP>
-46.8617

> <Gold.PLP.part.hbond>
-2.0000

> <Gold.PLP.part.metal>
0.0000

> <Gold.PLP.part.buried>
-6.0024

> <Gold.PLP.part.nonpolar>
-39.0360

> <Gold.PLP.part.repulsive>
0.2618

> <Gold.PLP.ligand.clash>
0.0000

> <Gold.PLP.ligand.torsion>
0.5210

> <Gold.PLP.Chemscore.Hbond>
3.0000

> <Gold.PLP.Chemscore.CHOScore>
0.0000

> <Gold.PLP.Chemscore.Metal>
0.0000

> <Gold.Chemscore.Hbonds>
donor molecule, donor type, donor heavy atom, donor atom, acceptor molecule, acceptor atom, score
      L1  H     5    57       P1  8028  2.00
      L1  H    19    47       P1 10747  0.96

> <Gold.PLP.Chemscore.Internal.Correction>
0.1351

> <Gold.Rescore>
     Score         DG    S(hbond)    S(metal)    S(lipo)     H(rot)  DE(clash)    DE(int)     intcor
     18.34     -19.08       1.96        0.00     129.12       3.15       0.04       0.70       ----

> <Gold.Chemscore.Fitness>
18.3449

> <Gold.Chemscore.DG>
-19.0811

> <Gold.Chemscore.ZeroCoef>
-5.4800

> <Gold.Chemscore.Hbond>
1.9621

> <Gold.Chemscore.Metal>
0.0000

> <Gold.Chemscore.Lipo>
129.1219

> <Gold.Chemscore.Internal_Hbond>
0.0000

> <Gold.Chemscore.DEClash>
0.0402

> <Gold.Chemscore.DEInternal>
0.6959

> <Gold.Chemscore.Rot>
3.1483

> <Gold.Chemscore.Internal.Correction>
   9.000000E+99

> <Gold.Chemscore.Hbonds>
donor molecule, donor type, donor heavy atom, donor atom, acceptor molecule, acceptor atom, score
      L1  H     5    57       P1  8028  0.99
      L1  H    19    47       P1 10747  0.90

> <Gold.Chemscore.Hbond.Weighted>
-6.5536

> <Gold.Chemscore.Metal.Weighted>
-0.0000

> <Gold.Chemscore.Lipo.Weighted>
-15.1073

> <Gold.Chemscore.Internal_Hbond.Weighted>
0.0000

> <Gold.Chemscore.DEClash.Weighted>
0.0402

> <Gold.Chemscore.DEInternal.Weighted>
0.6959

> <Gold.Chemscore.Rot.Weighted>
8.0597

> <Gold.Chemscore.Internal.Correction.Weighted>
   9.000000E+99

> <Gold.Protein.RotatedTorsions>
[ 6907 6896 6895 6894 ] final  105.95 input  -60.11 | X-H torsion
[ 7974 7965 7964 7962 ] final -139.38 input  175.53 | X-H torsion
[ 8008 7997 7996 7995 ] final  107.61 input   59.86 | X-H torsion
[ 10167 10162 10161 10158 ] final  107.76 input  -65.29 | X-H torsion
[ 10718 10713 10712 10709 ] final  105.37 input   66.30 | X-H torsion
[ 10763 10752 10751 10750 ] final  -94.84 input  -60.55 | X-H torsion
[ 11005 11000 10999 10996 ] final  133.62 input  -57.11 | X-H torsion

> <Gold.Protein.ActiveResidues>
 VAL166  LYS551  ARG553  GLY616  TRP617  ASP618  TYR619  PRO620  LYS621  CYS622 
 ASP623  PHE694  ASN695  SER759  ASP760  ASP761  ALA762  ILE779  LEU786  VAL792 
 PHE793  MET794  SER795  GLU796  ALA797  LYS798  CYS799  TRP800  GLU811  SER814 

> <Gold.Protein.RotatedAtoms>
  152.5212  133.9452  159.7645 H   0  0  0  0  0  0  0  0  0  0  0  0  # atno 6907 bound_to 6896
  150.9774  133.6272  159.2735 H   0  0  0  0  0  0  0  0  0  0  0  0  # atno 6908 bound_to 6896
  151.3462  135.0880  159.9441 H   0  0  0  0  0  0  0  0  0  0  0  0  # atno 6909 bound_to 6896
  144.8682  140.6326  143.5284 H   0  0  0  0  0  0  0  0  0  0  0  0  # atno 7974 bound_to 7965
  156.1838  140.3091  155.9199 H   0  0  0  0  0  0  0  0  0  0  0  0  # atno 8008 bound_to 7997
  155.3326  140.0461  157.3060 H   0  0  0  0  0  0  0  0  0  0  0  0  # atno 8009 bound_to 7997
  154.5372  140.2250  155.8712 H   0  0  0  0  0  0  0  0  0  0  0  0  # atno 8010 bound_to 7997
  139.6901  144.7109  151.1363 H   0  0  0  0  0  0  0  0  0  0  0  0  # atno 10167 bound_to 10162
  157.6708  131.0826  150.5846 H   0  0  0  0  0  0  0  0  0  0  0  0  # atno 10718 bound_to 10713
  154.7093  135.5142  153.8642 H   0  0  0  0  0  0  0  0  0  0  0  0  # atno 10763 bound_to 10752
  153.0767  135.6618  154.0140 H   0  0  0  0  0  0  0  0  0  0  0  0  # atno 10764 bound_to 10752
  153.9985  135.3013  155.3384 H   0  0  0  0  0  0  0  0  0  0  0  0  # atno 10765 bound_to 10752
  139.9863  134.9531  156.9751 H   0  0  0  0  0  0  0  0  0  0  0  0  # atno 11005 bound_to 11000
  145.4181  139.1568  143.4089 LP  0  0  0  0  0  0  0  0  0  0  0  0  # atno 17320 bound_to 7965
  146.2911  140.4290  142.8739 LP  0  0  0  0  0  0  0  0  0  0  0  0  # atno 17321 bound_to 7965
  140.7680  143.5571  150.9139 LP  0  0  0  0  0  0  0  0  0  0  0  0  # atno 17342 bound_to 10162
  139.9248  143.6562  152.3089 LP  0  0  0  0  0  0  0  0  0  0  0  0  # atno 17343 bound_to 10162
  156.6147  130.4389  149.5845 LP  0  0  0  0  0  0  0  0  0  0  0  0  # atno 17370 bound_to 10713
  156.2403  130.6847  151.1549 LP  0  0  0  0  0  0  0  0  0  0  0  0  # atno 17371 bound_to 10713
  140.4995  134.1111  155.7248 LP  0  0  0  0  0  0  0  0  0  0  0  0  # atno 17394 bound_to 11000
  141.1528  133.8938  157.2055 LP  0  0  0  0  0  0  0  0  0  0  0  0  # atno 17395 bound_to 11000

$$$$
