AV-unprocessed.smi:283|AV-procd|sdf|2133|dock10
  -GOLD-   2262021453D 1   1.00000     0.00000
 Structure written by MMmdl.
 48 51  0  0  0  0  0  0  0  0  1 V2000
  151.7195  139.6268  156.7307 C   0  0  0  0  0  0  0  0  0  0  0  0
  150.9351  139.9396  158.0121 C   0  0  2  0  0  0  0  0  0  0  0  0
  149.5137  139.6681  157.8034 N   0  0  0  0  0  0  0  0  0  0  0  0
  148.9001  140.0115  156.6485 C   0  0  0  0  0  0  0  0  0  0  0  0
  148.9431  141.2863  156.1807 N   0  0  0  0  0  0  0  0  0  0  0  0
  148.3240  141.5990  155.0388 C   0  0  0  0  0  0  0  0  0  0  0  0
  147.6185  140.8069  154.2296 N   0  0  0  0  0  0  0  0  0  0  0  0
  147.5671  139.5256  154.6956 C   0  0  0  0  0  0  0  0  0  0  0  0
  148.1801  139.0529  155.8898 C   0  0  0  0  0  0  0  0  0  0  0  0
  147.9231  137.6975  156.0475 N   0  0  0  0  0  0  0  0  0  0  0  0
  147.1980  137.3913  155.0055 C   0  0  0  0  0  0  0  0  0  0  0  0
  146.9325  138.4305  154.1415 N   0  0  0  0  0  0  0  0  0  0  0  0
  146.1206  138.3777  152.8867 C   0  0  2  0  0  0  0  0  0  0  0  0
  144.8525  137.8840  153.1953 O   0  0  0  0  0  0  0  0  0  0  0  0
  144.4618  136.9730  152.1808 C   0  0  2  0  0  0  0  0  0  0  0  0
  143.2439  136.1084  152.5706 C   0  0  0  0  0  0  0  0  0  0  0  0
  142.0937  136.8601  152.8962 O   0  0  0  0  0  0  0  0  0  0  0  0
  145.7595  136.3118  151.6912 C   0  0  2  0  0  0  0  0  0  0  0  0
  146.1510  135.1995  152.4709 O   0  0  0  0  0  0  0  0  0  0  0  0
  146.7776  137.4375  151.8532 C   0  0  1  0  0  0  0  0  0  0  0  0
  146.9612  138.0955  150.6150 O   0  0  0  0  0  0  0  0  0  0  0  0
  151.2439  141.3586  158.4951 C   0  0  0  0  0  0  0  0  0  0  0  0
  150.9282  142.4661  157.6738 C   0  0  0  0  0  0  0  0  0  0  0  0
  151.2093  143.7782  158.0982 C   0  0  0  0  0  0  0  0  0  0  0  0
  151.8173  143.9977  159.3472 C   0  0  0  0  0  0  0  0  0  0  0  0
  152.1456  142.9032  160.1680 C   0  0  0  0  0  0  0  0  0  0  0  0
  151.8650  141.5872  159.7489 C   0  0  0  0  0  0  0  0  0  0  0  0
  152.3022  140.2806  160.7935 Cl  0  0  0  0  0  0  0  0  0  0  0  0
  146.0564  139.4158  152.5569 H   0  0  0  0  0  0  0  0  0  0  0  0
  144.1200  137.6105  151.3629 H   0  0  0  0  0  0  0  0  0  0  0  0
  145.6656  135.9718  150.6589 H   0  0  0  0  0  0  0  0  0  0  0  0
  147.7478  137.0797  152.2034 H   0  0  0  0  0  0  0  0  0  0  0  0
  152.7921  139.7426  156.8899 H   0  0  0  0  0  0  0  0  0  0  0  0
  151.4307  140.2912  155.9155 H   0  0  0  0  0  0  0  0  0  0  0  0
  151.5459  138.6013  156.4031 H   0  0  0  0  0  0  0  0  0  0  0  0
  151.2663  139.2317  158.7713 H   0  0  0  0  0  0  0  0  0  0  0  0
  149.0713  139.0915  158.5044 H   0  0  0  0  0  0  0  0  0  0  0  0
  148.4042  142.6304  154.7292 H   0  0  0  0  0  0  0  0  0  0  0  0
  146.8280  136.3900  154.8401 H   0  0  0  0  0  0  0  0  0  0  0  0
  142.9979  135.4237  151.7585 H   0  0  0  0  0  0  0  0  0  0  0  0
  143.4954  135.4938  153.4353 H   0  0  0  0  0  0  0  0  0  0  0  0
  142.2039  137.7379  152.5638 H   0  0  0  0  0  0  0  0  0  0  0  0
  147.0883  135.2314  152.5884 H   0  0  0  0  0  0  0  0  0  0  0  0
  146.1160  138.2086  150.2080 H   0  0  0  0  0  0  0  0  0  0  0  0
  150.4663  142.3156  156.7093 H   0  0  0  0  0  0  0  0  0  0  0  0
  150.9596  144.6160  157.4641 H   0  0  0  0  0  0  0  0  0  0  0  0
  152.0346  145.0039  159.6739 H   0  0  0  0  0  0  0  0  0  0  0  0
  152.6173  143.0750  161.1245 H   0  0  0  0  0  0  0  0  0  0  0  0
  1  2  1  0  0  0  0
  1 33  1  0  0  0  0
  1 34  1  0  0  0  0
  1 35  1  0  0  0  0
  2  3  1  0  0  0  0
  2 22  1  0  0  0  0
  2 36  1  0  0  0  0
  3  4  1  0  0  0  0
  3 37  1  0  0  0  0
  4  9  1  0  0  0  0
  4  5  2  0  0  0  0
  5  6  1  0  0  0  0
  6  7  2  0  0  0  0
  6 38  1  0  0  0  0
  7  8  1  0  0  0  0
  8 12  1  0  0  0  0
  8  9  2  0  0  0  0
  9 10  1  0  0  0  0
 10 11  2  0  0  0  0
 11 12  1  0  0  0  0
 11 39  1  0  0  0  0
 12 13  1  0  0  0  0
 13 29  1  0  0  0  0
 13 20  1  0  0  0  0
 13 14  1  0  0  0  0
 14 15  1  0  0  0  0
 15 30  1  0  0  0  0
 15 16  1  0  0  0  0
 15 18  1  0  0  0  0
 16 17  1  0  0  0  0
 16 40  1  0  0  0  0
 16 41  1  0  0  0  0
 17 42  1  0  0  0  0
 18 31  1  0  0  0  0
 18 19  1  0  0  0  0
 18 20  1  0  0  0  0
 19 43  1  0  0  0  0
 20 32  1  0  0  0  0
 20 21  1  0  0  0  0
 21 44  1  0  0  0  0
 22 27  1  0  0  0  0
 22 23  2  0  0  0  0
 23 24  1  0  0  0  0
 23 45  1  0  0  0  0
 24 25  2  0  0  0  0
 24 46  1  0  0  0  0
 25 26  1  0  0  0  0
 25 47  1  0  0  0  0
 26 27  2  0  0  0  0
 26 48  1  0  0  0  0
 27 28  1  0  0  0  0
M  END
> <s_m_source_file>
AV-unprocessed.smi

> <i_m_source_file_index>
283

> <i_lp_mmshare_version>
43012

> <i_f3d_flags>
0

> <s_epik_input>
Q2xjMVtjSF1bY0hdW2NIXVtjSF1jMVtDQEhdKFtDSDNdKVtOSF1jKG5bY0hdbjIpYyhjMjMpbltjSF1uM1tDQEBIXTRPW0NASF0oW0NIMl1bT0hdKVtDQEBIXShbT0hdKVtDQEhdNFtPSF0=

> <s_epik_cmdline>
J2VwaWtfcHl0aG9uJywgJy1waCcsICc3LjAnLCAnLXRuJywgJzgnLCAnLW1hJywgJzIwMCcsICctbWV0YWxfYmluZGluZycsICctaW1hZScsICc8aW5maWxlLm1hZT4nLCAnLW9tYWUnLCAnPG91dGZpbGUubWFlPic=

> <r_lp_tautomer_probability>
1

> <r_epik_Ionization_Penalty>
0.000266407

> <r_epik_Ionization_Penalty_Charging>
0

> <r_epik_Ionization_Penalty_Neutral>
0.000266407

> <r_epik_State_Penalty>
-0

> <r_epik_Charging_Adjusted_Penalty>
0

> <i_epik_Tot_Q>
0

> <i_epik_Tot_abs_Q>
0

> <r_epik_Metal_State_Penalty>
-0

> <b_epik_Metal_Only>
0

> <s_epik_Chemistry_Notes>
This compound contains an acetal/aminal-like group ( X-CH(R)-Y where X, Y are N, S, or O) that may be acid/base labile, releasing an aldehyde.

> <s_lp_Force_Field>
OPLS_2005

> <r_lp_Energy>
46.8878

> <b_lp_Chiralities_Consistent>
1

> <s_lp_Variant>
AV-unprocessed.smi:283-9

> <Gold.Version>
5.8.1

> <Gold.Id.Protein>
6NUR|6NUR_protein|mol2

> <Gold.PLP.Fitness>
50.7709

> <Gold.PLP.PLP>
-40.6386

> <Gold.PLP.part.hbond>
-3.0000

> <Gold.PLP.part.metal>
0.0000

> <Gold.PLP.part.buried>
-2.7959

> <Gold.PLP.part.nonpolar>
-37.1846

> <Gold.PLP.part.repulsive>
0.4764

> <Gold.PLP.ligand.clash>
0.0026

> <Gold.PLP.ligand.torsion>
0.8351

> <Gold.PLP.Chemscore.Hbond>
2.9120

> <Gold.PLP.Chemscore.CHOScore>
1.0000

> <Gold.PLP.Chemscore.Metal>
0.0000

> <Gold.Chemscore.Hbonds>
donor molecule, donor type, donor heavy atom, donor atom, acceptor molecule, acceptor atom, score
      L1  H    19    43       P1  7948  0.46
      L1  H    21    44       P1 10171  0.36
      P1  H  7954  7966       L1    21  0.71
      L1  C     6    38       P1  8028  1.00

> <Gold.PLP.Chemscore.Internal.Correction>
0.0691

> <Gold.Rescore>
     Score         DG    S(hbond)    S(metal)    S(lipo)     H(rot)  DE(clash)    DE(int)     intcor
     11.83     -15.85       2.49        0.00     107.14       4.10       1.69       2.32       ----

> <Gold.Chemscore.Fitness>
11.8336

> <Gold.Chemscore.DG>
-15.8461

> <Gold.Chemscore.ZeroCoef>
-5.4800

> <Gold.Chemscore.Hbond>
2.4908

> <Gold.Chemscore.Metal>
0.0000

> <Gold.Chemscore.Lipo>
107.1355

> <Gold.Chemscore.Internal_Hbond>
0.0000

> <Gold.Chemscore.DEClash>
1.6946

> <Gold.Chemscore.DEInternal>
2.3179

> <Gold.Chemscore.Rot>
4.0968

> <Gold.Chemscore.Internal.Correction>
   9.000000E+99

> <Gold.Chemscore.Hbonds>
donor molecule, donor type, donor heavy atom, donor atom, acceptor molecule, acceptor atom, score
      L1  H    19    43       P1  7948  0.46
      L1  H    21    44       P1 10171  0.35
      P1  H  7954  7966       L1    21  0.66

> <Gold.Chemscore.Hbond.Weighted>
-8.3192

> <Gold.Chemscore.Metal.Weighted>
-0.0000

> <Gold.Chemscore.Lipo.Weighted>
-12.5348

> <Gold.Chemscore.Internal_Hbond.Weighted>
0.0000

> <Gold.Chemscore.DEClash.Weighted>
1.6946

> <Gold.Chemscore.DEInternal.Weighted>
2.3179

> <Gold.Chemscore.Rot.Weighted>
10.4879

> <Gold.Chemscore.Internal.Correction.Weighted>
   9.000000E+99

> <Gold.Protein.RotatedTorsions>
[ 6907 6896 6895 6894 ] final  -42.78 input  -60.11 | X-H torsion
[ 7974 7965 7964 7962 ] final -109.20 input  175.53 | X-H torsion
[ 8008 7997 7996 7995 ] final   30.53 input   59.86 | X-H torsion
[ 10167 10162 10161 10158 ] final   -8.04 input  -65.29 | X-H torsion
[ 10718 10713 10712 10709 ] final  -88.98 input   66.30 | X-H torsion
[ 10763 10752 10751 10750 ] final -115.08 input  -60.55 | X-H torsion
[ 11005 11000 10999 10996 ] final -153.55 input  -57.11 | X-H torsion

> <Gold.Protein.ActiveResidues>
 VAL166  LYS551  ARG553  GLY616  TRP617  ASP618  TYR619  PRO620  LYS621  CYS622 
 ASP623  PHE694  ASN695  SER759  ASP760  ASP761  ALA762  ILE779  LEU786  VAL792 
 PHE793  MET794  SER795  GLU796  ALA797  LYS798  CYS799  TRP800  GLU811  SER814 

> <Gold.Protein.RotatedAtoms>
  150.9513  134.8913  159.7673 H   0  0  0  0  0  0  0  0  0  0  0  0  # atno 6907 bound_to 6896
  152.5121  134.3802  159.9358 H   0  0  0  0  0  0  0  0  0  0  0  0  # atno 6908 bound_to 6896
  151.3818  133.3778  159.2745 H   0  0  0  0  0  0  0  0  0  0  0  0  # atno 6909 bound_to 6896
  145.1834  140.8982  143.3466 H   0  0  0  0  0  0  0  0  0  0  0  0  # atno 7974 bound_to 7965
  155.0919  140.3221  155.4571 H   0  0  0  0  0  0  0  0  0  0  0  0  # atno 8008 bound_to 7997
  156.2740  140.2076  156.5993 H   0  0  0  0  0  0  0  0  0  0  0  0  # atno 8009 bound_to 7997
  154.6896  140.0518  157.0337 H   0  0  0  0  0  0  0  0  0  0  0  0  # atno 8010 bound_to 7997
  140.7047  143.6013  150.8795 H   0  0  0  0  0  0  0  0  0  0  0  0  # atno 10167 bound_to 10162
  155.9984  130.4855  150.5102 H   0  0  0  0  0  0  0  0  0  0  0  0  # atno 10718 bound_to 10713
  154.8466  135.4394  154.1606 H   0  0  0  0  0  0  0  0  0  0  0  0  # atno 10763 bound_to 10752
  153.2744  135.6948  153.7454 H   0  0  0  0  0  0  0  0  0  0  0  0  # atno 10764 bound_to 10752
  153.6682  135.3423  155.3121 H   0  0  0  0  0  0  0  0  0  0  0  0  # atno 10765 bound_to 10752
  140.7069  134.3876  157.5203 H   0  0  0  0  0  0  0  0  0  0  0  0  # atno 11005 bound_to 11000
  145.0113  139.3507  143.6118 LP  0  0  0  0  0  0  0  0  0  0  0  0  # atno 17320 bound_to 7965
  146.3449  139.9377  142.8745 LP  0  0  0  0  0  0  0  0  0  0  0  0  # atno 17321 bound_to 7965
  139.9737  143.6028  152.2965 LP  0  0  0  0  0  0  0  0  0  0  0  0  # atno 17342 bound_to 10162
  139.6624  144.7662  151.1937 LP  0  0  0  0  0  0  0  0  0  0  0  0  # atno 17343 bound_to 10162
  157.3076  131.0657  151.2024 LP  0  0  0  0  0  0  0  0  0  0  0  0  # atno 17370 bound_to 10713
  157.2981  130.6829  149.6149 LP  0  0  0  0  0  0  0  0  0  0  0  0  # atno 17371 bound_to 10713
  139.8882  134.8863  156.2488 LP  0  0  0  0  0  0  0  0  0  0  0  0  # atno 17394 bound_to 11000
  141.0117  133.7092  156.1123 LP  0  0  0  0  0  0  0  0  0  0  0  0  # atno 17395 bound_to 11000

$$$$
