AV-unprocessed.smi:2620|AV-procd|sdf|10224|dock7
  -GOLD-   2272014233D 1   1.00000     0.00000
 Structure written by MMmdl.
 35 36  0  0  0  0  0  0  0  0  2 V2000
  150.8609  137.5322  154.4458 C   0  0  0  0  0  0  0  0  0  0  0  0
  150.9930  138.9322  154.2721 O   0  0  0  0  0  0  0  0  0  0  0  0
  151.9244  139.5050  155.1739 C   0  0  0  0  0  0  0  0  0  0  0  0
  151.1840  139.9233  156.4528 C   0  0  0  0  0  0  0  0  0  0  0  0
  151.9552  139.5799  157.6547 N   0  0  0  0  0  0  0  0  0  0  0  0
  152.3077  140.6432  158.5082 C   0  0  0  0  0  0  0  0  0  0  0  0
  153.0132  140.4530  159.6391 C   0  0  0  0  0  0  0  0  0  0  0  0
  153.3720  141.6044  160.5029 C   0  0  0  0  0  0  0  0  0  0  0  0
  154.2326  141.4975  161.3781 O   0  0  0  0  0  0  0  0  0  0  0  0
  152.6762  142.9045  160.2615 C   0  0  0  0  0  0  0  0  0  0  0  0
  152.9145  143.5933  159.0483 C   0  0  0  0  0  0  0  0  0  0  0  0
  152.2895  144.8267  158.7854 C   0  0  0  0  0  0  0  0  0  0  0  0
  151.4166  145.3880  159.7340 C   0  0  0  0  0  0  0  0  0  0  0  0
  151.1681  144.7130  160.9432 C   0  0  0  0  0  0  0  0  0  0  0  0
  151.7894  143.4766  161.2140 C   0  0  0  0  0  0  0  0  0  0  0  0
  151.4918  142.8558  162.3964 O   0  5  0  0  0  0  0  0  0  0  0  0
  153.4225  139.0982  159.9561 C   0  0  0  0  0  0  0  0  0  0  0  0
  153.0978  138.0780  159.1375 C   0  0  0  0  0  0  0  0  0  0  0  0
  153.4973  136.7403  159.4256 C   0  0  0  0  0  0  0  0  0  0  0  0
  153.8077  135.6538  159.6765 N   0  0  0  0  0  0  0  0  0  0  0  0
  152.3245  138.2873  157.9054 C   0  0  0  0  0  0  0  0  0  0  0  0
  152.0277  137.3666  157.1418 O   0  0  0  0  0  0  0  0  0  0  0  0
  150.1379  137.1410  153.7301 H   0  0  0  0  0  0  0  0  0  0  0  0
  150.5062  137.2908  155.4486 H   0  0  0  0  0  0  0  0  0  0  0  0
  151.8102  137.0222  154.2778 H   0  0  0  0  0  0  0  0  0  0  0  0
  152.7080  138.7825  155.4079 H   0  0  0  0  0  0  0  0  0  0  0  0
  152.4014  140.3727  154.7152 H   0  0  0  0  0  0  0  0  0  0  0  0
  150.9895  140.9965  156.4261 H   0  0  0  0  0  0  0  0  0  0  0  0
  150.1967  139.4589  156.4805 H   0  0  0  0  0  0  0  0  0  0  0  0
  151.9677  141.6152  158.1787 H   0  0  0  0  0  0  0  0  0  0  0  0
  153.5889  143.1831  158.3106 H   0  0  0  0  0  0  0  0  0  0  0  0
  152.4826  145.3435  157.8572 H   0  0  0  0  0  0  0  0  0  0  0  0
  150.9369  146.3347  159.5352 H   0  0  0  0  0  0  0  0  0  0  0  0
  150.4924  145.1480  161.6654 H   0  0  0  0  0  0  0  0  0  0  0  0
  154.0037  138.8949  160.8442 H   0  0  0  0  0  0  0  0  0  0  0  0
  1  2  1  0  0  0  0
  1 23  1  0  0  0  0
  1 24  1  0  0  0  0
  1 25  1  0  0  0  0
  2  3  1  0  0  0  0
  3  4  1  0  0  0  0
  3 26  1  0  0  0  0
  3 27  1  0  0  0  0
  4  5  1  0  0  0  0
  4 28  1  0  0  0  0
  4 29  1  0  0  0  0
  5 21  1  0  0  0  0
  5  6  1  0  0  0  0
  6  7  2  0  0  0  0
  6 30  1  0  0  0  0
  7  8  1  0  0  0  0
  7 17  1  0  0  0  0
  8  9  2  0  0  0  0
  8 10  1  0  0  0  0
 10 15  1  0  0  0  0
 10 11  2  0  0  0  0
 11 12  1  0  0  0  0
 11 31  1  0  0  0  0
 12 13  2  0  0  0  0
 12 32  1  0  0  0  0
 13 14  1  0  0  0  0
 13 33  1  0  0  0  0
 14 15  2  0  0  0  0
 14 34  1  0  0  0  0
 15 16  1  0  0  0  0
 17 18  2  0  0  0  0
 17 35  1  0  0  0  0
 18 19  1  0  0  0  0
 18 21  1  0  0  0  0
 19 20  3  0  0  0  0
 21 22  2  0  0  0  0
M  CHG  1  16  -1
M  END
> <s_m_source_file>
AV-unprocessed.smi

> <i_m_source_file_index>
2620

> <i_lp_mmshare_version>
43012

> <i_f3d_flags>
0

> <s_epik_input>
W0NIM11PW0NIMl1bQ0gyXW4xW2NIXWMoW2NIXWMoQyNOKWMxPU8pQyg9TyljMltjSF1bY0hdW2NIXVtjSF1jMltPSF0=

> <s_epik_cmdline>
J2VwaWtfcHl0aG9uJywgJy1waCcsICc3LjAnLCAnLXRuJywgJzgnLCAnLW1hJywgJzIwMCcsICctbWV0YWxfYmluZGluZycsICctaW1hZScsICc8aW5maWxlLm1hZT4nLCAnLW9tYWUnLCAnPG91dGZpbGUubWFlPic=

> <r_epik_Ionization_Penalty>
0.694682

> <r_epik_Ionization_Penalty_Charging>
0.694682

> <r_epik_Ionization_Penalty_Neutral>
1.08437e-11

> <r_epik_State_Penalty>
0.716871

> <r_epik_Charging_Adjusted_Penalty>
1.41155

> <i_epik_Tot_Q>
-1

> <i_epik_Tot_abs_Q>
1

> <r_epik_Metal_State_Penalty>
0.716871

> <b_epik_Metal_Only>
0

> <s_lp_Force_Field>
OPLS_2005

> <r_lp_Energy>
23.3851

> <b_lp_Chiralities_Consistent>
1

> <s_lp_Variant>
AV-unprocessed.smi:2620-2

> <Gold.Version>
5.8.1

> <Gold.Id.Protein>
6NUR|6NUR_protein|mol2

> <Gold.PLP.Fitness>
51.5186

> <Gold.PLP.PLP>
-44.7615

> <Gold.PLP.part.hbond>
-3.7613

> <Gold.PLP.part.metal>
0.0000

> <Gold.PLP.part.buried>
-2.2446

> <Gold.PLP.part.nonpolar>
-42.6072

> <Gold.PLP.part.repulsive>
3.0278

> <Gold.PLP.ligand.clash>
0.0000

> <Gold.PLP.ligand.torsion>
1.8426

> <Gold.PLP.Chemscore.Hbond>
2.9200

> <Gold.PLP.Chemscore.CHOScore>
0.0000

> <Gold.PLP.Chemscore.Metal>
0.0000

> <Gold.Chemscore.Hbonds>
donor molecule, donor type, donor heavy atom, donor atom, acceptor molecule, acceptor atom, score
      P1  H  6896  6907       L1    20  1.00
      P1  H  6933  6945       L1    16  1.92

> <Gold.PLP.Chemscore.Internal.Correction>
1.6823

> <Gold.Rescore>
     Score         DG    S(hbond)    S(metal)    S(lipo)     H(rot)  DE(clash)    DE(int)     intcor
     16.22     -21.93       1.74        0.00     122.46       1.44       2.34       3.37       ----

> <Gold.Chemscore.Fitness>
16.2190

> <Gold.Chemscore.DG>
-21.9329

> <Gold.Chemscore.ZeroCoef>
-5.4800

> <Gold.Chemscore.Hbond>
1.7381

> <Gold.Chemscore.Metal>
0.0000

> <Gold.Chemscore.Lipo>
122.4575

> <Gold.Chemscore.Internal_Hbond>
0.0000

> <Gold.Chemscore.DEClash>
2.3437

> <Gold.Chemscore.DEInternal>
3.3702

> <Gold.Chemscore.Rot>
1.4374

> <Gold.Chemscore.Internal.Correction>
   9.000000E+99

> <Gold.Chemscore.Hbonds>
donor molecule, donor type, donor heavy atom, donor atom, acceptor molecule, acceptor atom, score
      P1  H  6896  6907       L1    20  0.50
      P1  H  6933  6945       L1    16  0.76

> <Gold.Chemscore.Hbond.Weighted>
-5.8051

> <Gold.Chemscore.Metal.Weighted>
-0.0000

> <Gold.Chemscore.Lipo.Weighted>
-14.3275

> <Gold.Chemscore.Internal_Hbond.Weighted>
0.0000

> <Gold.Chemscore.DEClash.Weighted>
2.3437

> <Gold.Chemscore.DEInternal.Weighted>
3.3702

> <Gold.Chemscore.Rot.Weighted>
3.6797

> <Gold.Chemscore.Internal.Correction.Weighted>
   9.000000E+99

> <Gold.Protein.RotatedTorsions>
[ 6907 6896 6895 6894 ] final   47.96 input  -60.11 | X-H torsion
[ 7974 7965 7964 7962 ] final -130.19 input  175.53 | X-H torsion
[ 8008 7997 7996 7995 ] final  164.81 input   59.86 | X-H torsion
[ 10167 10162 10161 10158 ] final -178.83 input  -65.29 | X-H torsion
[ 10718 10713 10712 10709 ] final -153.51 input   66.30 | X-H torsion
[ 10763 10752 10751 10750 ] final  117.16 input  -60.55 | X-H torsion
[ 11005 11000 10999 10996 ] final -160.92 input  -57.11 | X-H torsion

> <Gold.Protein.ActiveResidues>
 VAL166  LYS551  ARG553  GLY616  TRP617  ASP618  TYR619  PRO620  LYS621  CYS622 
 ASP623  PHE694  ASN695  SER759  ASP760  ASP761  ALA762  ILE779  LEU786  VAL792 
 PHE793  MET794  SER795  GLU796  ALA797  LYS798  CYS799  TRP800  GLU811  SER814 

> <Gold.Protein.RotatedAtoms>
  152.2740  134.7901  160.0408 H   0  0  0  0  0  0  0  0  0  0  0  0  # atno 6907 bound_to 6896
  151.8504  133.3433  159.3679 H   0  0  0  0  0  0  0  0  0  0  0  0  # atno 6908 bound_to 6896
  150.7163  134.5233  159.5708 H   0  0  0  0  0  0  0  0  0  0  0  0  # atno 6909 bound_to 6896
  144.9499  140.7333  143.4794 H   0  0  0  0  0  0  0  0  0  0  0  0  # atno 7974 bound_to 7965
  156.1850  140.1687  156.8202 H   0  0  0  0  0  0  0  0  0  0  0  0  # atno 8008 bound_to 7997
  154.5404  140.0738  156.8532 H   0  0  0  0  0  0  0  0  0  0  0  0  # atno 8009 bound_to 7997
  155.3226  140.3374  155.4243 H   0  0  0  0  0  0  0  0  0  0  0  0  # atno 8010 bound_to 7997
  139.5414  144.2353  152.0902 H   0  0  0  0  0  0  0  0  0  0  0  0  # atno 10167 bound_to 10162
  156.4869  130.8329  151.2554 H   0  0  0  0  0  0  0  0  0  0  0  0  # atno 10718 bound_to 10713
  153.5481  135.3545  155.2747 H   0  0  0  0  0  0  0  0  0  0  0  0  # atno 10763 bound_to 10752
  154.8710  135.4107  154.2968 H   0  0  0  0  0  0  0  0  0  0  0  0  # atno 10764 bound_to 10752
  153.3689  135.7063  153.6722 H   0  0  0  0  0  0  0  0  0  0  0  0  # atno 10765 bound_to 10752
  140.6261  134.4700  157.5227 H   0  0  0  0  0  0  0  0  0  0  0  0  # atno 11005 bound_to 11000
  145.2860  139.1901  143.4766 LP  0  0  0  0  0  0  0  0  0  0  0  0  # atno 17320 bound_to 7965
  146.3317  140.2829  142.8611 LP  0  0  0  0  0  0  0  0  0  0  0  0  # atno 17321 bound_to 7965
  140.1832  144.4824  150.6517 LP  0  0  0  0  0  0  0  0  0  0  0  0  # atno 17342 bound_to 10162
  140.6645  143.2263  151.5776 LP  0  0  0  0  0  0  0  0  0  0  0  0  # atno 17343 bound_to 10162
  157.7478  131.0026  150.3008 LP  0  0  0  0  0  0  0  0  0  0  0  0  # atno 17370 bound_to 10713
  156.3466  130.3824  149.7364 LP  0  0  0  0  0  0  0  0  0  0  0  0  # atno 17371 bound_to 10713
  139.9134  134.8297  156.1449 LP  0  0  0  0  0  0  0  0  0  0  0  0  # atno 17394 bound_to 11000
  141.0708  133.6798  156.2137 LP  0  0  0  0  0  0  0  0  0  0  0  0  # atno 17395 bound_to 11000

$$$$
