#       Name:                AV-unprocessed.smi:1884
#       Creating user name   scv26
#       Creation time:       Fri Mar 27 09:37:54 2020


#       File generated by GOLD software.
#

@<TRIPOS>MOLECULE
AV-unprocessed.smi:1884
    46    48     1
SMALL
NO_CHARGES


@<TRIPOS>ATOM
      1 ****        -2.4991   0.5674   3.2790 C.3            1 S1                 0.0000
      2 ****        -2.9550   0.5392   1.8588 C.2            1 S1                 0.0000
      3 ****        -4.2477   0.5864   1.4299 N.pl3          1 S1                 1.0000
      4 ****        -4.2846   0.5404   0.0355 C.ar           1 S1                 0.0000
      5 ****        -5.3592   0.5620  -0.8482 C.ar           1 S1                 0.0000
      6 ****        -5.0497   0.4928  -2.2225 C.ar           1 S1                 0.0000
      7 ****        -3.7158   0.4069  -2.6714 C.ar           1 S1                 0.0000
      8 ****        -2.6344   0.3902  -1.7659 C.ar           1 S1                 0.0000
      9 ****        -2.9486   0.4594  -0.4087 C.ar           1 S1                 0.0000
     10 ****        -2.1634   0.4649   0.7509 N.pl3          1 S1                 0.0000
     11 ****        -0.6975   0.4023   0.6403 C.3            1 S1                 0.0000
     12 ****        -0.1510  -1.0366   0.7324 C.3            1 S1                 0.0000
     13 ****        -0.6610  -1.8593  -0.2975 O.3            1 S1                 0.0000
     14 ****         1.3845  -1.1126   0.7289 C.3            1 S1                 0.0000
     15 ****         1.9102  -0.3190  -0.3284 O.3            1 S1                 0.0000
     16 ****         3.2787  -0.2513  -0.4769 C.ar           1 S1                 0.0000
     17 ****         3.7686   0.5246  -1.5477 C.ar           1 S1                 0.0000
     18 ****         5.1528   0.6505  -1.7745 C.ar           1 S1                 0.0000
     19 ****         6.0682  -0.0026  -0.9260 C.ar           1 S1                 0.0000
     20 ****         7.4974   0.1249  -1.1565 C.1            1 S1                 0.0000
     21 ****         8.6354   0.2262  -1.3398 N.1            1 S1                 0.0000
     22 ****         5.5915  -0.7803   0.1477 C.ar           1 S1                 0.0000
     23 ****         4.2065  -0.9053   0.3728 C.ar           1 S1                 0.0000
     24 ****        -3.3533   0.6003   3.9556 H              1 S1                 0.0000
     25 ****        -1.8803   1.4468   3.4580 H              1 S1                 0.0000
     26 ****        -1.9126  -0.3233   3.5045 H              1 S1                 0.0000
     27 ****        -6.3819   0.6266  -0.5065 H              1 S1                 0.0000
     28 ****        -5.8515   0.5041  -2.9466 H              1 S1                 0.0000
     29 ****        -3.5170   0.3521  -3.7320 H              1 S1                 0.0000
     30 ****        -1.6168   0.3202  -2.1212 H              1 S1                 0.0000
     31 ****        -0.3888   0.8909  -0.2839 H              1 S1                 0.0000
     32 ****        -0.2862   1.0051   1.4506 H              1 S1                 0.0000
     33 ****        -0.4994  -1.4781   1.6668 H              1 S1                 0.0000
     34 ****        -1.6036  -1.8697  -0.2335 H              1 S1                 0.0000
     35 ****         1.7539  -0.7260   1.6800 H              1 S1                 0.0000
     36 ****         1.7123  -2.1502   0.6424 H              1 S1                 0.0000
     37 ****         3.0746   1.0291  -2.2038 H              1 S1                 0.0000
     38 ****         5.5051   1.2500  -2.6018 H              1 S1                 0.0000
     39 ****         6.2843  -1.2858   0.8053 H              1 S1                 0.0000
     40 ****         3.8819  -1.5092   1.2063 H              1 S1                 0.0000
     41 ****        -5.0461   0.6465   2.0487 H              1 S1                 0.0000
     42 ****        -0.3056  -2.7883  -0.1944 LP             1 S1                 0.0000
     43 ****        -0.3873  -1.4945  -1.1875 LP             1 S1                 0.0000
     44 ****         1.5810   0.6150  -0.1893 LP             1 S1                 0.0000
     45 ****         1.5372  -0.6801  -1.1831 LP             1 S1                 0.0000
     46 ****         9.6189   0.3137  -1.4982 LP             1 S1                 0.0000
@<TRIPOS>BOND
    1    1    2 1     
    2    1   24 1     
    3    1   25 1     
    4    1   26 1     
    5    2   10 1     
    6    2    3 2     
    7    3    4 1     
    8    3   41 1     
    9    4    9 ar    
   10    4    5 ar    
   11    5    6 ar    
   12    5   27 1     
   13    6    7 ar    
   14    6   28 1     
   15    7    8 ar    
   16    7   29 1     
   17    8    9 ar    
   18    8   30 1     
   19    9   10 1     
   20   10   11 1     
   21   11   12 1     
   22   11   31 1     
   23   11   32 1     
   24   12   13 1     
   25   12   14 1     
   26   12   33 1     
   27   13   34 1     
   28   14   15 1     
   29   14   35 1     
   30   14   36 1     
   31   15   16 1     
   32   16   23 ar    
   33   16   17 ar    
   34   17   18 ar    
   35   17   37 1     
   36   18   19 ar    
   37   18   38 1     
   38   19   20 1     
   39   19   22 ar    
   40   20   21 3     
   41   22   23 ar    
   42   22   39 1     
   43   23   40 1     
   44   13   42 1     
   45   13   43 1     
   46   15   44 1     
   47   15   45 1     
   48   21   46 1     
@<TRIPOS>SUBSTRUCTURE
      1 S1             1
@<TRIPOS>SET
LONE_PAIRS      STATIC     ATOMS    <user>   **** ""
5 42 43 44 45 46
DONOR_HYDROGENS      STATIC     ATOMS    <user>   **** ""
2 41 34
ATOM$BLUE        STATIC     ATOMS    COLORGROUP SYSTEM
5 42 43 44 45 46
ATOM$RED        STATIC     ATOMS    COLORGROUP SYSTEM
2 41 34
