AV-unprocessed.smi:2044|AV-procd|sdf|8299|dock8
  -GOLD-   2272010563D 1   1.00000     0.00000
 Structure written by MMmdl.
 39 40  0  0  0  0  0  0  0  0  1 V2000
  153.8731  142.0137  160.8013 C   0  0  0  0  0  0  0  0  0  0  0  0
  152.9655  142.5989  159.7739 C   0  0  0  0  0  0  0  0  0  0  0  0
  152.2110  142.0473  158.7766 C   0  0  0  0  0  0  0  0  0  0  0  0
  151.5941  143.1787  158.1790 C   0  0  0  0  0  0  0  0  0  0  0  0
  150.7109  143.0314  157.0788 N   0  0  0  0  0  0  0  0  0  0  0  0
  150.4407  141.9092  156.3900 C   0  0  0  0  0  0  0  0  0  0  0  0
  150.9304  140.8020  156.6160 O   0  0  0  0  0  0  0  0  0  0  0  0
  149.5564  142.1401  155.4087 N   0  0  0  0  0  0  0  0  0  0  0  0
  149.0500  141.1310  154.4818 C   0  0  0  0  0  0  0  0  0  0  0  0
  147.8043  141.5994  153.6744 C   0  0  1  0  0  0  0  0  0  0  0  0
  147.0778  140.3523  153.1092 C   0  0  0  0  0  0  0  0  0  0  0  0
  146.9025  142.4856  154.4477 N   0  0  0  0  0  0  0  0  0  0  0  0
  146.2124  141.7754  155.5311 C   0  0  0  0  0  0  0  0  0  0  0  0
  145.2471  142.6766  156.3209 C   0  0  0  0  0  0  0  0  0  0  0  0
  144.2985  143.2546  155.4354 O   0  0  0  0  0  0  0  0  0  0  0  0
  144.9215  144.0197  154.4135 C   0  0  0  0  0  0  0  0  0  0  0  0
  145.8834  143.1281  153.6093 C   0  0  0  0  0  0  0  0  0  0  0  0
  151.9398  144.3175  158.7599 N   0  0  0  0  0  0  0  0  0  0  0  0
  152.8198  143.9516  159.7852 O   0  0  0  0  0  0  0  0  0  0  0  0
  154.1822  141.0070  160.5197 H   0  0  0  0  0  0  0  0  0  0  0  0
  153.3742  141.9561  161.7688 H   0  0  0  0  0  0  0  0  0  0  0  0
  154.7706  142.6215  160.9187 H   0  0  0  0  0  0  0  0  0  0  0  0
  152.1185  141.0027  158.5189 H   0  0  0  0  0  0  0  0  0  0  0  0
  150.2352  143.8710  156.7839 H   0  0  0  0  0  0  0  0  0  0  0  0
  149.2034  143.0789  155.2949 H   0  0  0  0  0  0  0  0  0  0  0  0
  149.8560  140.8647  153.7976 H   0  0  0  0  0  0  0  0  0  0  0  0
  148.8441  140.2404  155.0737 H   0  0  0  0  0  0  0  0  0  0  0  0
  148.1722  142.1664  152.8179 H   0  0  0  0  0  0  0  0  0  0  0  0
  147.7548  139.6767  152.5878 H   0  0  0  0  0  0  0  0  0  0  0  0
  146.3193  140.6148  152.3729 H   0  0  0  0  0  0  0  0  0  0  0  0
  146.5945  139.7831  153.9041 H   0  0  0  0  0  0  0  0  0  0  0  0
  145.6618  140.9261  155.1237 H   0  0  0  0  0  0  0  0  0  0  0  0
  146.9295  141.3749  156.2455 H   0  0  0  0  0  0  0  0  0  0  0  0
  144.7180  142.0941  157.0753 H   0  0  0  0  0  0  0  0  0  0  0  0
  145.7930  143.4615  156.8467 H   0  0  0  0  0  0  0  0  0  0  0  0
  144.1527  144.4316  153.7597 H   0  0  0  0  0  0  0  0  0  0  0  0
  145.4540  144.8648  154.8529 H   0  0  0  0  0  0  0  0  0  0  0  0
  146.3459  143.7645  152.8580 H   0  0  0  0  0  0  0  0  0  0  0  0
  145.3112  142.3683  153.0747 H   0  0  0  0  0  0  0  0  0  0  0  0
  1  2  1  0  0  0  0
  1 20  1  0  0  0  0
  1 21  1  0  0  0  0
  1 22  1  0  0  0  0
  2 19  1  0  0  0  0
  2  3  2  0  0  0  0
  3  4  1  0  0  0  0
  3 23  1  0  0  0  0
  4  5  1  0  0  0  0
  4 18  2  0  0  0  0
  5  6  1  0  0  0  0
  5 24  1  0  0  0  0
  6  7  2  0  0  0  0
  6  8  1  0  0  0  0
  8  9  1  0  0  0  0
  8 25  1  0  0  0  0
  9 10  1  0  0  0  0
  9 26  1  0  0  0  0
  9 27  1  0  0  0  0
 10 11  1  0  0  0  0
 10 12  1  0  0  0  0
 10 28  1  0  0  0  0
 11 29  1  0  0  0  0
 11 30  1  0  0  0  0
 11 31  1  0  0  0  0
 12 17  1  0  0  0  0
 12 13  1  0  0  0  0
 13 14  1  0  0  0  0
 13 32  1  0  0  0  0
 13 33  1  0  0  0  0
 14 15  1  0  0  0  0
 14 34  1  0  0  0  0
 14 35  1  0  0  0  0
 15 16  1  0  0  0  0
 16 17  1  0  0  0  0
 16 36  1  0  0  0  0
 16 37  1  0  0  0  0
 17 38  1  0  0  0  0
 17 39  1  0  0  0  0
 18 19  1  0  0  0  0
M  END
> <s_m_source_file>
AV-unprocessed.smi

> <i_m_source_file_index>
2044

> <i_lp_mmshare_version>
43012

> <i_f3d_flags>
0

> <s_epik_input>
W0NIM11jMVtjSF1jKG5vMSlbTkhdQyg9TylbTkhdW0NIMl1bQ0BIXShbQ0gzXSlOMltDSDJdW0NIMl1PW0NIMl1bQ0gyXTI=

> <s_epik_cmdline>
J2VwaWtfcHl0aG9uJywgJy1waCcsICc3LjAnLCAnLXRuJywgJzgnLCAnLW1hJywgJzIwMCcsICctbWV0YWxfYmluZGluZycsICctaW1hZScsICc8aW5maWxlLm1hZT4nLCAnLW9tYWUnLCAnPG91dGZpbGUubWFlPic=

> <r_epik_Ionization_Penalty>
0.214073

> <r_epik_Ionization_Penalty_Charging>
0

> <r_epik_Ionization_Penalty_Neutral>
0.214073

> <r_epik_State_Penalty>
0.204211

> <r_epik_Charging_Adjusted_Penalty>
0.204211

> <i_epik_Tot_Q>
0

> <i_epik_Tot_abs_Q>
0

> <r_epik_Metal_State_Penalty>
0.217151

> <b_epik_Metal_Only>
0

> <s_lp_Force_Field>
OPLS_2005

> <r_lp_Energy>
26.3951

> <b_lp_Chiralities_Consistent>
1

> <s_lp_Variant>
AV-unprocessed.smi:2044-2

> <Gold.Version>
5.8.1

> <Gold.Id.Protein>
6NUR|6NUR_protein|mol2

> <Gold.PLP.Fitness>
42.8490

> <Gold.PLP.PLP>
-37.5919

> <Gold.PLP.part.hbond>
-2.0000

> <Gold.PLP.part.metal>
0.0000

> <Gold.PLP.part.buried>
-7.6051

> <Gold.PLP.part.nonpolar>
-28.0304

> <Gold.PLP.part.repulsive>
0.5897

> <Gold.PLP.ligand.clash>
0.0000

> <Gold.PLP.ligand.torsion>
0.3856

> <Gold.PLP.Chemscore.Hbond>
2.0000

> <Gold.PLP.Chemscore.CHOScore>
0.0000

> <Gold.PLP.Chemscore.Metal>
0.0000

> <Gold.Chemscore.Hbonds>
donor molecule, donor type, donor heavy atom, donor atom, acceptor molecule, acceptor atom, score
      L1  H     5    24       P1  8028  1.00
      L1  H     8    25       P1  8028  1.00

> <Gold.PLP.Chemscore.Internal.Correction>
0.0282

> <Gold.Rescore>
     Score         DG    S(hbond)    S(metal)    S(lipo)     H(rot)  DE(clash)    DE(int)     intcor
     15.12     -16.88       1.97        0.00      75.81       1.58       0.08       1.68       ----

> <Gold.Chemscore.Fitness>
15.1205

> <Gold.Chemscore.DG>
-16.8833

> <Gold.Chemscore.ZeroCoef>
-5.4800

> <Gold.Chemscore.Hbond>
1.9661

> <Gold.Chemscore.Metal>
0.0000

> <Gold.Chemscore.Lipo>
75.8062

> <Gold.Chemscore.Internal_Hbond>
0.0000

> <Gold.Chemscore.DEClash>
0.0839

> <Gold.Chemscore.DEInternal>
1.6789

> <Gold.Chemscore.Rot>
1.5753

> <Gold.Chemscore.Internal.Correction>
   9.000000E+99

> <Gold.Chemscore.Hbonds>
donor molecule, donor type, donor heavy atom, donor atom, acceptor molecule, acceptor atom, score
      L1  H     5    24       P1  8028  0.94
      L1  H     8    25       P1  8028  1.00

> <Gold.Chemscore.Hbond.Weighted>
-6.5668

> <Gold.Chemscore.Metal.Weighted>
-0.0000

> <Gold.Chemscore.Lipo.Weighted>
-8.8693

> <Gold.Chemscore.Internal_Hbond.Weighted>
0.0000

> <Gold.Chemscore.DEClash.Weighted>
0.0839

> <Gold.Chemscore.DEInternal.Weighted>
1.6789

> <Gold.Chemscore.Rot.Weighted>
4.0329

> <Gold.Chemscore.Internal.Correction.Weighted>
   9.000000E+99

> <Gold.Protein.RotatedTorsions>
[ 6907 6896 6895 6894 ] final  -38.84 input  -60.11 | X-H torsion
[ 7974 7965 7964 7962 ] final   12.89 input  175.53 | X-H torsion
[ 8008 7997 7996 7995 ] final   31.47 input   59.86 | X-H torsion
[ 10167 10162 10161 10158 ] final  -40.32 input  -65.29 | X-H torsion
[ 10718 10713 10712 10709 ] final  147.92 input   66.30 | X-H torsion
[ 10763 10752 10751 10750 ] final -141.68 input  -60.55 | X-H torsion
[ 11005 11000 10999 10996 ] final   93.57 input  -57.11 | X-H torsion

> <Gold.Protein.ActiveResidues>
 VAL166  LYS551  ARG553  GLY616  TRP617  ASP618  TYR619  PRO620  LYS621  CYS622 
 ASP623  PHE694  ASN695  SER759  ASP760  ASP761  ALA762  ILE779  LEU786  VAL792 
 PHE793  MET794  SER795  GLU796  ALA797  LYS798  CYS799  TRP800  GLU811  SER814 

> <Gold.Protein.RotatedAtoms>
  150.9976  134.9296  159.7934 H   0  0  0  0  0  0  0  0  0  0  0  0  # atno 6907 bound_to 6896
  152.5269  134.3198  159.9154 H   0  0  0  0  0  0  0  0  0  0  0  0  # atno 6908 bound_to 6896
  151.3203  133.4001  159.2688 H   0  0  0  0  0  0  0  0  0  0  0  0  # atno 6909 bound_to 6896
  146.2341  139.9270  142.8502 H   0  0  0  0  0  0  0  0  0  0  0  0  # atno 7974 bound_to 7965
  155.1069  140.3235  155.4532 H   0  0  0  0  0  0  0  0  0  0  0  0  # atno 8008 bound_to 7997
  156.2701  140.2051  156.6142 H   0  0  0  0  0  0  0  0  0  0  0  0  # atno 8009 bound_to 7997
  154.6785  140.0529  157.0228 H   0  0  0  0  0  0  0  0  0  0  0  0  # atno 8010 bound_to 7997
  140.7038  143.3160  151.2908 H   0  0  0  0  0  0  0  0  0  0  0  0  # atno 10167 bound_to 10162
  157.3150  131.0894  151.1286 H   0  0  0  0  0  0  0  0  0  0  0  0  # atno 10718 bound_to 10713
  154.8536  135.3517  154.5907 H   0  0  0  0  0  0  0  0  0  0  0  0  # atno 10763 bound_to 10752
  153.6517  135.6994  153.5211 H   0  0  0  0  0  0  0  0  0  0  0  0  # atno 10764 bound_to 10752
  153.2889  135.4241  155.1106 H   0  0  0  0  0  0  0  0  0  0  0  0  # atno 10765 bound_to 10752
  139.8808  134.8797  156.3738 H   0  0  0  0  0  0  0  0  0  0  0  0  # atno 11005 bound_to 11000
  145.2081  140.9884  143.4116 LP  0  0  0  0  0  0  0  0  0  0  0  0  # atno 17320 bound_to 7965
  144.9715  139.3876  143.6307 LP  0  0  0  0  0  0  0  0  0  0  0  0  # atno 17321 bound_to 7965
  139.6599  144.0208  152.2685 LP  0  0  0  0  0  0  0  0  0  0  0  0  # atno 17342 bound_to 10162
  139.9772  144.6453  150.7934 LP  0  0  0  0  0  0  0  0  0  0  0  0  # atno 17343 bound_to 10162
  157.2593  130.6651  149.5967 LP  0  0  0  0  0  0  0  0  0  0  0  0  # atno 17370 bound_to 10713
  155.9681  130.4514  150.5733 LP  0  0  0  0  0  0  0  0  0  0  0  0  # atno 17371 bound_to 10713
  140.9446  133.7491  156.0191 LP  0  0  0  0  0  0  0  0  0  0  0  0  # atno 17394 bound_to 11000
  140.8179  134.3324  157.5391 LP  0  0  0  0  0  0  0  0  0  0  0  0  # atno 17395 bound_to 11000

$$$$
