AV-unprocessed.smi:244|AV-procd|sdf|1865|dock6
  -GOLD-   2262020503D 1   1.00000     0.00000
 Structure written by MMmdl.
 57 61  0  0  0  0  0  0  0  0  2 V2000
  147.4056  140.9789  153.5651 C   0  0  0  0  0  0  0  0  0  0  0  0
  147.9068  139.7431  152.9200 N   0  3  2  0  0  0  0  0  0  0  0  0
  146.8266  138.8443  152.4370 C   0  0  0  0  0  0  0  0  0  0  0  0
  146.1699  138.0567  153.5858 C   0  0  0  0  0  0  0  0  0  0  0  0
  147.2291  137.2870  154.3840 C   0  0  2  0  0  0  0  0  0  0  0  0
  146.6094  136.6136  155.4739 O   0  0  0  0  0  0  0  0  0  0  0  0
  147.5430  135.8255  156.2049 C   0  0  0  0  0  0  0  0  0  0  0  0
  148.6368  136.7376  156.7825 C   0  0  0  0  0  0  0  0  0  0  0  0
  149.2739  137.5082  155.7169 N   0  0  0  0  0  0  0  0  0  0  0  0
  150.3356  138.2280  156.1465 C   0  0  0  0  0  0  0  0  0  0  0  0
  151.5143  137.6108  156.4240 N   0  0  0  0  0  0  0  0  0  0  0  0
  152.5525  138.3263  156.8678 C   0  0  0  0  0  0  0  0  0  0  0  0
  152.6213  139.6380  157.1071 N   0  0  0  0  0  0  0  0  0  0  0  0
  151.4361  140.2561  156.8346 C   0  0  0  0  0  0  0  0  0  0  0  0
  150.2521  139.6289  156.3578 C   0  0  0  0  0  0  0  0  0  0  0  0
  149.2381  140.5660  156.2113 N   0  0  0  0  0  0  0  0  0  0  0  0
  149.7938  141.6891  156.5771 C   0  0  0  0  0  0  0  0  0  0  0  0
  151.1146  141.5964  156.9575 N   0  0  0  0  0  0  0  0  0  0  0  0
  151.9718  142.6838  157.4045 C   0  0  0  0  0  0  0  0  0  0  0  0
  151.5244  143.3326  158.7383 C   0  0  0  0  0  0  0  0  0  0  0  0
  151.5172  142.3211  159.7306 O   0  0  0  0  0  0  0  0  0  0  0  0
  152.4733  144.4608  159.1992 C   0  0  0  0  0  0  0  0  0  0  0  0
  151.9095  145.2380  160.4020 C   0  0  0  0  0  0  0  0  0  0  0  0
  150.6132  145.7378  160.0980 O   0  0  0  0  0  0  0  0  0  0  0  0
  149.6711  144.7023  159.8471 C   0  0  0  0  0  0  0  0  0  0  0  0
  150.0946  143.8947  158.6072 C   0  0  0  0  0  0  0  0  0  0  0  0
  148.3030  138.2601  154.9175 C   0  0  1  0  0  0  0  0  0  0  0  0
  148.9312  139.0271  153.7247 C   0  0  0  0  0  0  0  0  0  0  0  0
  146.8627  140.7663  154.4859 H   0  0  0  0  0  0  0  0  0  0  0  0
  146.7353  141.5158  152.8934 H   0  0  0  0  0  0  0  0  0  0  0  0
  148.2329  141.6469  153.8067 H   0  0  0  0  0  0  0  0  0  0  0  0
  146.0784  139.4179  151.8887 H   0  0  0  0  0  0  0  0  0  0  0  0
  147.2601  138.1444  151.7214 H   0  0  0  0  0  0  0  0  0  0  0  0
  145.6251  138.7335  154.2447 H   0  0  0  0  0  0  0  0  0  0  0  0
  145.4327  137.3621  153.1823 H   0  0  0  0  0  0  0  0  0  0  0  0
  147.6911  136.5469  153.7269 H   0  0  0  0  0  0  0  0  0  0  0  0
  147.0199  135.3089  157.0097 H   0  0  0  0  0  0  0  0  0  0  0  0
  147.9751  135.0576  155.5611 H   0  0  0  0  0  0  0  0  0  0  0  0
  148.1935  137.4122  157.5166 H   0  0  0  0  0  0  0  0  0  0  0  0
  149.3840  136.1381  157.3048 H   0  0  0  0  0  0  0  0  0  0  0  0
  153.4575  137.7689  157.0602 H   0  0  0  0  0  0  0  0  0  0  0  0
  149.2540  142.6251  156.5733 H   0  0  0  0  0  0  0  0  0  0  0  0
  152.9850  142.2913  157.5023 H   0  0  0  0  0  0  0  0  0  0  0  0
  152.0141  143.4343  156.6135 H   0  0  0  0  0  0  0  0  0  0  0  0
  152.1089  141.6340  159.4645 H   0  0  0  0  0  0  0  0  0  0  0  0
  153.4568  144.0637  159.4525 H   0  0  0  0  0  0  0  0  0  0  0  0
  152.6263  145.1598  158.3758 H   0  0  0  0  0  0  0  0  0  0  0  0
  151.8702  144.6091  161.2927 H   0  0  0  0  0  0  0  0  0  0  0  0
  152.5623  146.0781  160.6397 H   0  0  0  0  0  0  0  0  0  0  0  0
  149.5776  144.0594  160.7237 H   0  0  0  0  0  0  0  0  0  0  0  0
  148.6923  145.1524  159.6815 H   0  0  0  0  0  0  0  0  0  0  0  0
  150.0433  144.5503  157.7366 H   0  0  0  0  0  0  0  0  0  0  0  0
  149.3819  143.0894  158.4240 H   0  0  0  0  0  0  0  0  0  0  0  0
  147.8225  138.9780  155.5840 H   0  0  0  0  0  0  0  0  0  0  0  0
  149.4549  138.3271  153.0722 H   0  0  0  0  0  0  0  0  0  0  0  0
  149.6761  139.7495  154.0607 H   0  0  0  0  0  0  0  0  0  0  0  0
  148.3861  140.0629  152.0902 H   0  0  0  0  0  0  0  0  0  0  0  0
  1  2  1  0  0  0  0
  1 29  1  0  0  0  0
  1 30  1  0  0  0  0
  1 31  1  0  0  0  0
  2 28  1  0  0  0  0
  2  3  1  0  0  0  0
  2 57  1  0  0  0  0
  3  4  1  0  0  0  0
  3 32  1  0  0  0  0
  3 33  1  0  0  0  0
  4  5  1  0  0  0  0
  4 34  1  0  0  0  0
  4 35  1  0  0  0  0
  5 27  1  0  0  0  0
  5  6  1  0  0  0  0
  5 36  1  0  0  0  0
  6  7  1  0  0  0  0
  7  8  1  0  0  0  0
  7 37  1  0  0  0  0
  7 38  1  0  0  0  0
  8  9  1  0  0  0  0
  8 39  1  0  0  0  0
  8 40  1  0  0  0  0
  9 10  1  0  0  0  0
  9 27  1  0  0  0  0
 10 15  1  0  0  0  0
 10 11  2  0  0  0  0
 11 12  1  0  0  0  0
 12 13  2  0  0  0  0
 12 41  1  0  0  0  0
 13 14  1  0  0  0  0
 14 18  1  0  0  0  0
 14 15  2  0  0  0  0
 15 16  1  0  0  0  0
 16 17  2  0  0  0  0
 17 18  1  0  0  0  0
 17 42  1  0  0  0  0
 18 19  1  0  0  0  0
 19 20  1  0  0  0  0
 19 43  1  0  0  0  0
 19 44  1  0  0  0  0
 20 26  1  0  0  0  0
 20 21  1  0  0  0  0
 20 22  1  0  0  0  0
 21 45  1  0  0  0  0
 22 23  1  0  0  0  0
 22 46  1  0  0  0  0
 22 47  1  0  0  0  0
 23 24  1  0  0  0  0
 23 48  1  0  0  0  0
 23 49  1  0  0  0  0
 24 25  1  0  0  0  0
 25 26  1  0  0  0  0
 25 50  1  0  0  0  0
 25 51  1  0  0  0  0
 26 52  1  0  0  0  0
 26 53  1  0  0  0  0
 27 28  1  0  0  0  0
 27 54  1  0  0  0  0
 28 55  1  0  0  0  0
 28 56  1  0  0  0  0
M  CHG  1   2   1
M  END
> <s_m_source_file>
AV-unprocessed.smi

> <i_m_source_file_index>
244

> <i_lp_mmshare_version>
43012

> <i_f3d_flags>
0

> <s_epik_input>
W0NIMl0xW0NIMl1OKFtDSDNdKVtDSDJdW0NAQEhdKFtDQEhdMTIpTihbQ0gyXVtDSDJdTzIpYyhuW2NIXW4zKWMoYzM0KW5bY0hdbjRbQ0gyXUM1KFtPSF0pW0NIMl1bQ0gyXU9bQ0gyXVtDSDJdNQ==

> <s_epik_cmdline>
J2VwaWtfcHl0aG9uJywgJy1waCcsICc3LjAnLCAnLXRuJywgJzgnLCAnLW1hJywgJzIwMCcsICctbWV0YWxfYmluZGluZycsICctaW1hZScsICc8aW5maWxlLm1hZT4nLCAnLW9tYWUnLCAnPG91dGZpbGUubWFlPic=

> <r_lp_tautomer_probability>
1

> <r_epik_Ionization_Penalty>
0.0136215

> <r_epik_Ionization_Penalty_Charging>
0.0131385

> <r_epik_Ionization_Penalty_Neutral>
0.000483022

> <r_epik_State_Penalty>
0.0104001

> <r_epik_Charging_Adjusted_Penalty>
0.0235387

> <i_epik_Tot_Q>
1

> <i_epik_Tot_abs_Q>
1

> <r_epik_Metal_State_Penalty>
0.0104469

> <b_epik_Metal_Only>
0

> <s_lp_Force_Field>
OPLS_2005

> <r_lp_Energy>
43.138

> <b_lp_Chiralities_Consistent>
1

> <s_lp_Variant>
AV-unprocessed.smi:244-2

> <Gold.Version>
5.8.1

> <Gold.Id.Protein>
6NUR|6NUR_protein|mol2

> <Gold.PLP.Fitness>
42.9395

> <Gold.PLP.PLP>
-35.0060

> <Gold.PLP.part.hbond>
-3.4819

> <Gold.PLP.part.metal>
0.0000

> <Gold.PLP.part.buried>
-3.4281

> <Gold.PLP.part.nonpolar>
-27.7322

> <Gold.PLP.part.repulsive>
0.4639

> <Gold.PLP.ligand.clash>
0.0000

> <Gold.PLP.ligand.torsion>
0.5934

> <Gold.PLP.Chemscore.Hbond>
2.0000

> <Gold.PLP.Chemscore.CHOScore>
1.0000

> <Gold.PLP.Chemscore.Metal>
0.0000

> <Gold.Chemscore.Hbonds>
donor molecule, donor type, donor heavy atom, donor atom, acceptor molecule, acceptor atom, score
      L1  H     2    57       P1  7957  0.98
      P1  H  7997  8009       L1    13  1.00
      L1  C    17    42       P1  8028  1.00

> <Gold.PLP.Chemscore.Internal.Correction>
0.1202

> <Gold.Rescore>
     Score         DG    S(hbond)    S(metal)    S(lipo)     H(rot)  DE(clash)    DE(int)     intcor
     10.44     -17.00       1.78        0.00      93.34       2.09       1.76       4.80       ----

> <Gold.Chemscore.Fitness>
10.4378

> <Gold.Chemscore.DG>
-17.0030

> <Gold.Chemscore.ZeroCoef>
-5.4800

> <Gold.Chemscore.Hbond>
1.7831

> <Gold.Chemscore.Metal>
0.0000

> <Gold.Chemscore.Lipo>
93.3375

> <Gold.Chemscore.Internal_Hbond>
0.0000

> <Gold.Chemscore.DEClash>
1.7605

> <Gold.Chemscore.DEInternal>
4.8047

> <Gold.Chemscore.Rot>
2.0911

> <Gold.Chemscore.Internal.Correction>
   9.000000E+99

> <Gold.Chemscore.Hbonds>
donor molecule, donor type, donor heavy atom, donor atom, acceptor molecule, acceptor atom, score
      L1  H     2    57       P1  7957  0.88
      P1  H  7997  8009       L1    13  0.45

> <Gold.Chemscore.Hbond.Weighted>
-5.9556

> <Gold.Chemscore.Metal.Weighted>
-0.0000

> <Gold.Chemscore.Lipo.Weighted>
-10.9205

> <Gold.Chemscore.Internal_Hbond.Weighted>
0.0000

> <Gold.Chemscore.DEClash.Weighted>
1.7605

> <Gold.Chemscore.DEInternal.Weighted>
4.8047

> <Gold.Chemscore.Rot.Weighted>
5.3531

> <Gold.Chemscore.Internal.Correction.Weighted>
   9.000000E+99

> <Gold.Protein.RotatedTorsions>
[ 6907 6896 6895 6894 ] final   70.46 input  -60.11 | X-H torsion
[ 7974 7965 7964 7962 ] final  -27.33 input  175.53 | X-H torsion
[ 8008 7997 7996 7995 ] final  172.12 input   59.86 | X-H torsion
[ 10167 10162 10161 10158 ] final  175.46 input  -65.29 | X-H torsion
[ 10718 10713 10712 10709 ] final   33.31 input   66.30 | X-H torsion
[ 10763 10752 10751 10750 ] final  168.81 input  -60.55 | X-H torsion
[ 11005 11000 10999 10996 ] final   87.56 input  -57.11 | X-H torsion

> <Gold.Protein.ActiveResidues>
 VAL166  LYS551  ARG553  GLY616  TRP617  ASP618  TYR619  PRO620  LYS621  CYS622 
 ASP623  PHE694  ASN695  SER759  ASP760  ASP761  ALA762  ILE779  LEU786  VAL792 
 PHE793  MET794  SER795  GLU796  ALA797  LYS798  CYS799  TRP800  GLU811  SER814 

> <Gold.Protein.RotatedAtoms>
  152.4750  134.4865  159.9681 H   0  0  0  0  0  0  0  0  0  0  0  0  # atno 6907 bound_to 6896
  151.4883  133.3524  159.2857 H   0  0  0  0  0  0  0  0  0  0  0  0  # atno 6908 bound_to 6896
  150.8784  134.8197  159.7268 H   0  0  0  0  0  0  0  0  0  0  0  0  # atno 6909 bound_to 6896
  146.1365  140.5137  142.8670 H   0  0  0  0  0  0  0  0  0  0  0  0  # atno 7974 bound_to 7965
  156.1205  140.1494  156.9211 H   0  0  0  0  0  0  0  0  0  0  0  0  # atno 8008 bound_to 7997
  154.4832  140.0873  156.7468 H   0  0  0  0  0  0  0  0  0  0  0  0  # atno 8009 bound_to 7997
  155.4437  140.3432  155.4295 H   0  0  0  0  0  0  0  0  0  0  0  0  # atno 8010 bound_to 7997
  139.5178  144.3029  152.0362 H   0  0  0  0  0  0  0  0  0  0  0  0  # atno 10167 bound_to 10162
  157.2962  130.7328  149.6640 H   0  0  0  0  0  0  0  0  0  0  0  0  # atno 10718 bound_to 10713
  154.3740  135.2753  155.2250 H   0  0  0  0  0  0  0  0  0  0  0  0  # atno 10763 bound_to 10752
  154.4385  135.5960  153.6118 H   0  0  0  0  0  0  0  0  0  0  0  0  # atno 10764 bound_to 10752
  152.9837  135.6013  154.3974 H   0  0  0  0  0  0  0  0  0  0  0  0  # atno 10765 bound_to 10752
  139.8916  134.8430  156.2877 H   0  0  0  0  0  0  0  0  0  0  0  0  # atno 11005 bound_to 11000
  144.7745  140.5711  143.6647 LP  0  0  0  0  0  0  0  0  0  0  0  0  # atno 17320 bound_to 7965
  145.5144  139.1478  143.3587 LP  0  0  0  0  0  0  0  0  0  0  0  0  # atno 17321 bound_to 7965
  140.2476  144.4203  150.6234 LP  0  0  0  0  0  0  0  0  0  0  0  0  # atno 17342 bound_to 10162
  140.6247  143.2180  151.6621 LP  0  0  0  0  0  0  0  0  0  0  0  0  # atno 17343 bound_to 10162
  155.9669  130.4293  150.4829 LP  0  0  0  0  0  0  0  0  0  0  0  0  # atno 17370 bound_to 10713
  157.2801  131.0605  151.2203 LP  0  0  0  0  0  0  0  0  0  0  0  0  # atno 17371 bound_to 10713
  140.9997  133.7159  156.0940 LP  0  0  0  0  0  0  0  0  0  0  0  0  # atno 17394 bound_to 11000
  140.7515  134.4040  157.5540 LP  0  0  0  0  0  0  0  0  0  0  0  0  # atno 17395 bound_to 11000

$$$$
