AV-unprocessed.smi:78|AV-procd|sdf|775|dock7
  -GOLD-   2262017133D 1   1.00000     0.00000
 Structure written by MMmdl.
 56 59  0  0  0  0  0  0  0  0  1 V2000
  151.3521  139.5731  155.6053 C   0  0  0  0  0  0  0  0  0  0  0  0
  150.4075  138.3652  155.5164 C   0  0  0  0  0  0  0  0  0  0  0  0
  151.2132  137.0557  155.5509 C   0  0  0  0  0  0  0  0  0  0  0  0
  149.5038  138.4751  154.2659 C   0  0  0  0  0  0  0  0  0  0  0  0
  148.2639  139.4079  154.3685 C   0  0  2  0  0  0  0  0  0  0  0  0
  148.7334  140.8456  154.6782 C   0  0  0  0  0  0  0  0  0  0  0  0
  149.3241  141.4882  153.8123 O   0  0  0  0  0  0  0  0  0  0  0  0
  148.4878  141.3768  155.8886 N   0  0  0  0  0  0  0  0  0  0  0  0
  147.7665  140.7323  156.9842 C   0  0  0  0  0  0  0  0  0  0  0  0
  147.5731  139.2202  156.7867 C   0  0  0  0  0  0  0  0  0  0  0  0
  147.3140  138.9236  155.3822 N   0  0  0  0  0  0  0  0  0  0  0  0
  146.3920  137.9841  155.0509 C   0  0  0  0  0  0  0  0  0  0  0  0
  145.6939  137.3902  156.0526 N   0  0  0  0  0  0  0  0  0  0  0  0
  144.7618  136.4746  155.7764 C   0  0  0  0  0  0  0  0  0  0  0  0
  144.3666  136.0204  154.5862 N   0  0  0  0  0  0  0  0  0  0  0  0
  145.0566  136.6177  153.5729 C   0  0  0  0  0  0  0  0  0  0  0  0
  146.0866  137.5906  153.7151 C   0  0  0  0  0  0  0  0  0  0  0  0
  146.5548  137.9629  152.4609 N   0  0  0  0  0  0  0  0  0  0  0  0
  145.8552  137.2420  151.6290 C   0  0  0  0  0  0  0  0  0  0  0  0
  144.9024  136.4333  152.2089 N   0  0  0  0  0  0  0  0  0  0  0  0
  143.9980  135.5304  151.5477 C   0  0  0  0  0  0  0  0  0  0  0  0
  143.9069  134.0488  151.9436 C   0  0  0  0  0  0  0  0  0  0  0  0
  144.7719  133.6691  150.7210 C   0  0  0  0  0  0  0  0  0  0  0  0
  146.2876  133.5747  150.9849 C   0  0  0  0  0  0  0  0  0  0  0  0
  146.6335  132.3510  151.6015 O   0  0  0  0  0  0  0  0  0  0  0  0
  144.3701  132.4057  149.9353 C   0  0  0  0  0  0  0  0  0  0  0  0
  143.0020  132.3982  149.5803 O   0  0  0  0  0  0  0  0  0  0  0  0
  144.3200  135.0247  150.1339 C   0  0  0  0  0  0  0  0  0  0  0  0
  152.0254  139.6154  154.7486 H   0  0  0  0  0  0  0  0  0  0  0  0
  151.9632  139.5290  156.5071 H   0  0  0  0  0  0  0  0  0  0  0  0
  150.7927  140.5085  155.6364 H   0  0  0  0  0  0  0  0  0  0  0  0
  149.7870  138.4024  156.4090 H   0  0  0  0  0  0  0  0  0  0  0  0
  151.8438  136.9557  154.6669 H   0  0  0  0  0  0  0  0  0  0  0  0
  150.5654  136.1816  155.5987 H   0  0  0  0  0  0  0  0  0  0  0  0
  151.8617  137.0193  156.4266 H   0  0  0  0  0  0  0  0  0  0  0  0
  150.1140  138.7969  153.4208 H   0  0  0  0  0  0  0  0  0  0  0  0
  149.1734  137.4666  154.0111 H   0  0  0  0  0  0  0  0  0  0  0  0
  147.7792  139.4710  153.3946 H   0  0  0  0  0  0  0  0  0  0  0  0
  148.8140  142.3175  156.0566 H   0  0  0  0  0  0  0  0  0  0  0  0
  148.2758  140.9318  157.9273 H   0  0  0  0  0  0  0  0  0  0  0  0
  146.7901  141.2134  157.0490 H   0  0  0  0  0  0  0  0  0  0  0  0
  148.4691  138.6826  157.0981 H   0  0  0  0  0  0  0  0  0  0  0  0
  146.7594  138.8849  157.4308 H   0  0  0  0  0  0  0  0  0  0  0  0
  144.2571  136.0491  156.6312 H   0  0  0  0  0  0  0  0  0  0  0  0
  146.0150  137.3000  150.5629 H   0  0  0  0  0  0  0  0  0  0  0  0
  143.0195  136.0110  151.5846 H   0  0  0  0  0  0  0  0  0  0  0  0
  144.3433  133.7828  152.9053 H   0  0  0  0  0  0  0  0  0  0  0  0
  142.8831  133.6767  151.8813 H   0  0  0  0  0  0  0  0  0  0  0  0
  146.8537  133.6715  150.0580 H   0  0  0  0  0  0  0  0  0  0  0  0
  146.6311  134.3811  151.6326 H   0  0  0  0  0  0  0  0  0  0  0  0
  147.4286  132.0290  151.2048 H   0  0  0  0  0  0  0  0  0  0  0  0
  144.9529  132.3176  149.0178 H   0  0  0  0  0  0  0  0  0  0  0  0
  144.5622  131.5042  150.5177 H   0  0  0  0  0  0  0  0  0  0  0  0
  142.6742  133.2831  149.6304 H   0  0  0  0  0  0  0  0  0  0  0  0
  143.4266  134.9619  149.5110 H   0  0  0  0  0  0  0  0  0  0  0  0
  145.1085  135.5706  149.6153 H   0  0  0  0  0  0  0  0  0  0  0  0
  1  2  1  0  0  0  0
  1 29  1  0  0  0  0
  1 30  1  0  0  0  0
  1 31  1  0  0  0  0
  2  3  1  0  0  0  0
  2  4  1  0  0  0  0
  2 32  1  0  0  0  0
  3 33  1  0  0  0  0
  3 34  1  0  0  0  0
  3 35  1  0  0  0  0
  4  5  1  0  0  0  0
  4 36  1  0  0  0  0
  4 37  1  0  0  0  0
  5 11  1  0  0  0  0
  5  6  1  0  0  0  0
  5 38  1  0  0  0  0
  6  7  2  0  0  0  0
  6  8  1  0  0  0  0
  8  9  1  0  0  0  0
  8 39  1  0  0  0  0
  9 10  1  0  0  0  0
  9 40  1  0  0  0  0
  9 41  1  0  0  0  0
 10 11  1  0  0  0  0
 10 42  1  0  0  0  0
 10 43  1  0  0  0  0
 11 12  1  0  0  0  0
 12 17  1  0  0  0  0
 12 13  2  0  0  0  0
 13 14  1  0  0  0  0
 14 15  2  0  0  0  0
 14 44  1  0  0  0  0
 15 16  1  0  0  0  0
 16 20  1  0  0  0  0
 16 17  2  0  0  0  0
 17 18  1  0  0  0  0
 18 19  2  0  0  0  0
 19 20  1  0  0  0  0
 19 45  1  0  0  0  0
 20 21  1  0  0  0  0
 21 28  1  0  0  0  0
 21 22  1  0  0  0  0
 21 46  1  0  0  0  0
 22 23  1  0  0  0  0
 22 47  1  0  0  0  0
 22 48  1  0  0  0  0
 23 24  1  0  0  0  0
 23 26  1  0  0  0  0
 23 28  1  0  0  0  0
 24 25  1  0  0  0  0
 24 49  1  0  0  0  0
 24 50  1  0  0  0  0
 25 51  1  0  0  0  0
 26 27  1  0  0  0  0
 26 52  1  0  0  0  0
 26 53  1  0  0  0  0
 27 54  1  0  0  0  0
 28 55  1  0  0  0  0
 28 56  1  0  0  0  0
M  END
> <s_m_source_file>
AV-unprocessed.smi

> <i_m_source_file_index>
78

> <i_lp_mmshare_version>
43012

> <i_f3d_flags>
0

> <s_epik_input>
W0NIM11bQ0hdKFtDSDNdKVtDSDJdW0NAQEhdMUMoPU8pW05IXVtDSDJdW0NIMl1OMWMobltjSF1uMiljKGMyMyluW2NIXW4zW0NIXShbQ0gyXTQpW0NIMl1DNChbQ0gyXVtPSF0pW0NIMl1bT0hd

> <s_epik_cmdline>
J2VwaWtfcHl0aG9uJywgJy1waCcsICc3LjAnLCAnLXRuJywgJzgnLCAnLW1hJywgJzIwMCcsICctbWV0YWxfYmluZGluZycsICctaW1hZScsICc8aW5maWxlLm1hZT4nLCAnLW9tYWUnLCAnPG91dGZpbGUubWFlPic=

> <r_lp_tautomer_probability>
1

> <r_epik_Ionization_Penalty>
0.000550083

> <r_epik_Ionization_Penalty_Charging>
0

> <r_epik_Ionization_Penalty_Neutral>
0.000550083

> <r_epik_State_Penalty>
0.000250415

> <r_epik_Charging_Adjusted_Penalty>
0.000250415

> <i_epik_Tot_Q>
0

> <i_epik_Tot_abs_Q>
0

> <r_epik_Metal_State_Penalty>
-0

> <b_epik_Metal_Only>
0

> <s_lp_Force_Field>
OPLS_2005

> <r_lp_Energy>
48.6174

> <b_lp_Chiralities_Consistent>
1

> <s_lp_Variant>
AV-unprocessed.smi:78-1

> <Gold.Version>
5.8.1

> <Gold.Id.Protein>
6NUR|6NUR_protein|mol2

> <Gold.PLP.Fitness>
46.6481

> <Gold.PLP.PLP>
-37.8818

> <Gold.PLP.part.hbond>
-5.0000

> <Gold.PLP.part.metal>
0.0000

> <Gold.PLP.part.buried>
-4.5178

> <Gold.PLP.part.nonpolar>
-30.3685

> <Gold.PLP.part.repulsive>
1.0587

> <Gold.PLP.ligand.clash>
0.0000

> <Gold.PLP.ligand.torsion>
0.8028

> <Gold.PLP.Chemscore.Hbond>
2.6456

> <Gold.PLP.Chemscore.CHOScore>
0.5841

> <Gold.PLP.Chemscore.Metal>
0.0000

> <Gold.Chemscore.Hbonds>
donor molecule, donor type, donor heavy atom, donor atom, acceptor molecule, acceptor atom, score
      L1  H    25    51       P1 10747  0.70
      L1  H    27    54       P1 10186  0.88
      P1  H  7989  7998       L1     7  0.03
      P1  H  8011  8017       L1     7  0.75
      P1  H 10785 10796       L1    27  0.02
      L1  C    19    45       P1 10171  0.36

> <Gold.PLP.Chemscore.Internal.Correction>
0.6830

> <Gold.Rescore>
     Score         DG    S(hbond)    S(metal)    S(lipo)     H(rot)  DE(clash)    DE(int)     intcor
     11.91     -14.17       2.62        0.00      73.55       3.39       0.25       2.02       ----

> <Gold.Chemscore.Fitness>
11.9055

> <Gold.Chemscore.DG>
-14.1738

> <Gold.Chemscore.ZeroCoef>
-5.4800

> <Gold.Chemscore.Hbond>
2.6215

> <Gold.Chemscore.Metal>
0.0000

> <Gold.Chemscore.Lipo>
73.5532

> <Gold.Chemscore.Internal_Hbond>
0.0000

> <Gold.Chemscore.DEClash>
0.2470

> <Gold.Chemscore.DEInternal>
2.0212

> <Gold.Chemscore.Rot>
3.3859

> <Gold.Chemscore.Internal.Correction>
   9.000000E+99

> <Gold.Chemscore.Hbonds>
donor molecule, donor type, donor heavy atom, donor atom, acceptor molecule, acceptor atom, score
      L1  H     8    39       P1  8028  0.06
      L1  H    25    51       P1 10747  0.69
      L1  H    27    54       P1 10186  0.82
      P1  H  7989  7998       L1     7  0.03
      P1  H  8011  8017       L1     7  0.74

> <Gold.Chemscore.Hbond.Weighted>
-8.7560

> <Gold.Chemscore.Metal.Weighted>
-0.0000

> <Gold.Chemscore.Lipo.Weighted>
-8.6057

> <Gold.Chemscore.Internal_Hbond.Weighted>
0.0000

> <Gold.Chemscore.DEClash.Weighted>
0.2470

> <Gold.Chemscore.DEInternal.Weighted>
2.0212

> <Gold.Chemscore.Rot.Weighted>
8.6679

> <Gold.Chemscore.Internal.Correction.Weighted>
   9.000000E+99

> <Gold.Protein.RotatedTorsions>
[ 6907 6896 6895 6894 ] final   12.25 input  -60.11 | X-H torsion
[ 7974 7965 7964 7962 ] final -132.39 input  175.53 | X-H torsion
[ 8008 7997 7996 7995 ] final -105.58 input   59.86 | X-H torsion
[ 10167 10162 10161 10158 ] final   -6.10 input  -65.29 | X-H torsion
[ 10718 10713 10712 10709 ] final -111.93 input   66.30 | X-H torsion
[ 10763 10752 10751 10750 ] final -124.43 input  -60.55 | X-H torsion
[ 11005 11000 10999 10996 ] final -110.01 input  -57.11 | X-H torsion

> <Gold.Protein.ActiveResidues>
 VAL166  LYS551  ARG553  GLY616  TRP617  ASP618  TYR619  PRO620  LYS621  CYS622 
 ASP623  PHE694  ASN695  SER759  ASP760  ASP761  ALA762  ILE779  LEU786  VAL792 
 PHE793  MET794  SER795  GLU796  ALA797  LYS798  CYS799  TRP800  GLU811  SER814 

> <Gold.Protein.RotatedAtoms>
  151.7673  135.0795  160.0354 H   0  0  0  0  0  0  0  0  0  0  0  0  # atno 6907 bound_to 6896
  152.3313  133.5957  159.5820 H   0  0  0  0  0  0  0  0  0  0  0  0  # atno 6908 bound_to 6896
  150.7424  133.9780  159.3609 H   0  0  0  0  0  0  0  0  0  0  0  0  # atno 6909 bound_to 6896
  144.9290  140.7106  143.4918 H   0  0  0  0  0  0  0  0  0  0  0  0  # atno 7974 bound_to 7965
  154.9019  140.0412  157.1898 H   0  0  0  0  0  0  0  0  0  0  0  0  # atno 8008 bound_to 7997
  154.8435  140.2918  155.5623 H   0  0  0  0  0  0  0  0  0  0  0  0  # atno 8009 bound_to 7997
  156.2993  140.2478  156.3381 H   0  0  0  0  0  0  0  0  0  0  0  0  # atno 8010 bound_to 7997
  140.6986  143.6232  150.8592 H   0  0  0  0  0  0  0  0  0  0  0  0  # atno 10167 bound_to 10162
  156.0676  130.5893  150.8440 H   0  0  0  0  0  0  0  0  0  0  0  0  # atno 10718 bound_to 10713
  154.8723  135.4064  154.3105 H   0  0  0  0  0  0  0  0  0  0  0  0  # atno 10763 bound_to 10752
  153.3950  135.7016  153.6473 H   0  0  0  0  0  0  0  0  0  0  0  0  # atno 10764 bound_to 10752
  153.5240  135.3681  155.2616 H   0  0  0  0  0  0  0  0  0  0  0  0  # atno 10765 bound_to 10752
  141.0816  133.9210  157.2276 H   0  0  0  0  0  0  0  0  0  0  0  0  # atno 11005 bound_to 11000
  145.3173  139.1799  143.4607 LP  0  0  0  0  0  0  0  0  0  0  0  0  # atno 17320 bound_to 7965
  146.3239  140.3185  142.8631 LP  0  0  0  0  0  0  0  0  0  0  0  0  # atno 17321 bound_to 7965
  139.9952  143.5803  152.2895 LP  0  0  0  0  0  0  0  0  0  0  0  0  # atno 17342 bound_to 10162
  139.6473  144.7659  151.2218 LP  0  0  0  0  0  0  0  0  0  0  0  0  # atno 17343 bound_to 10162
  157.5727  131.0946  150.9393 LP  0  0  0  0  0  0  0  0  0  0  0  0  # atno 17370 bound_to 10713
  156.9606  130.5454  149.5286 LP  0  0  0  0  0  0  0  0  0  0  0  0  # atno 17371 bound_to 10713
  139.9630  135.0149  156.9312 LP  0  0  0  0  0  0  0  0  0  0  0  0  # atno 17394 bound_to 11000
  140.5456  134.0677  155.7354 LP  0  0  0  0  0  0  0  0  0  0  0  0  # atno 17395 bound_to 11000

$$$$
