AV-unprocessed.smi:2867|AV-procd|sdf|11025|dock2
  -GOLD-   2272015483D 1   1.00000     0.00000
 Structure written by MMmdl.
 39 41  0  0  0  0  0  0  0  0  2 V2000
  148.1469  141.3801  154.0983 C   0  0  0  0  0  0  0  0  0  0  0  0
  149.4825  141.0257  154.4116 O   0  0  0  0  0  0  0  0  0  0  0  0
  149.9287  141.6120  155.6216 C   0  0  0  0  0  0  0  0  0  0  0  0
  151.2370  140.9358  156.0469 C   0  0  0  0  0  0  0  0  0  0  0  0
  151.0057  139.9304  157.0711 N   0  0  0  0  0  0  0  0  0  0  0  0
  151.3027  140.0089  158.3930 C   0  0  0  0  0  0  0  0  0  0  0  0
  151.9388  141.1593  159.0178 C   0  0  0  0  0  0  0  0  0  0  0  0
  152.8927  140.9779  160.0414 C   0  0  0  0  0  0  0  0  0  0  0  0
  153.5058  142.0954  160.6407 C   0  0  0  0  0  0  0  0  0  0  0  0
  153.1642  143.3958  160.2209 C   0  0  0  0  0  0  0  0  0  0  0  0
  152.2076  143.5793  159.2031 C   0  0  0  0  0  0  0  0  0  0  0  0
  151.8793  144.8296  158.8002 F   0  0  0  0  0  0  0  0  0  0  0  0
  151.5936  142.4626  158.6038 C   0  0  0  0  0  0  0  0  0  0  0  0
  150.9519  138.9424  159.1145 N   0  0  0  0  0  0  0  0  0  0  0  0
  150.3803  138.1025  158.1789 C   0  0  0  0  0  0  0  0  0  0  0  0
  149.8112  136.8183  158.3235 C   0  0  0  0  0  0  0  0  0  0  0  0
  149.2713  136.1545  157.2012 C   0  0  0  0  0  0  0  0  0  0  0  0
  148.5486  134.5289  157.4055 S   0  0  0  0  0  0  0  0  0  0  0  0
  149.4218  133.7784  156.2758 N   0  5  0  0  0  0  0  0  0  0  0  0
  148.8792  134.0879  158.7695 O   0  0  0  0  0  0  0  0  0  0  0  0
  147.1288  134.6533  157.0403 O   0  0  0  0  0  0  0  0  0  0  0  0
  149.2931  136.7554  155.9242 C   0  0  0  0  0  0  0  0  0  0  0  0
  149.8595  138.0343  155.7635 C   0  0  0  0  0  0  0  0  0  0  0  0
  150.3965  138.6945  156.8853 C   0  0  0  0  0  0  0  0  0  0  0  0
  147.8547  140.9126  153.1581 H   0  0  0  0  0  0  0  0  0  0  0  0
  148.0402  142.4596  153.9852 H   0  0  0  0  0  0  0  0  0  0  0  0
  147.4575  141.0389  154.8719 H   0  0  0  0  0  0  0  0  0  0  0  0
  150.0849  142.6830  155.4817 H   0  0  0  0  0  0  0  0  0  0  0  0
  149.1726  141.4870  156.3987 H   0  0  0  0  0  0  0  0  0  0  0  0
  151.7093  140.4584  155.1877 H   0  0  0  0  0  0  0  0  0  0  0  0
  151.9478  141.6743  156.4163 H   0  0  0  0  0  0  0  0  0  0  0  0
  153.1564  139.9817  160.3663 H   0  0  0  0  0  0  0  0  0  0  0  0
  154.2377  141.9555  161.4226 H   0  0  0  0  0  0  0  0  0  0  0  0
  153.6351  144.2523  160.6803 H   0  0  0  0  0  0  0  0  0  0  0  0
  150.8609  142.6066  157.8229 H   0  0  0  0  0  0  0  0  0  0  0  0
  149.7831  136.3488  159.2956 H   0  0  0  0  0  0  0  0  0  0  0  0
  150.4119  133.8793  156.5278 H   0  0  0  0  0  0  0  0  0  0  0  0
  148.8729  136.2417  155.0722 H   0  0  0  0  0  0  0  0  0  0  0  0
  149.8765  138.5021  154.7906 H   0  0  0  0  0  0  0  0  0  0  0  0
  1  2  1  0  0  0  0
  1 25  1  0  0  0  0
  1 26  1  0  0  0  0
  1 27  1  0  0  0  0
  2  3  1  0  0  0  0
  3  4  1  0  0  0  0
  3 28  1  0  0  0  0
  3 29  1  0  0  0  0
  4  5  1  0  0  0  0
  4 30  1  0  0  0  0
  4 31  1  0  0  0  0
  5 24  1  0  0  0  0
  5  6  1  0  0  0  0
  6  7  1  0  0  0  0
  6 14  2  0  0  0  0
  7 13  1  0  0  0  0
  7  8  2  0  0  0  0
  8  9  1  0  0  0  0
  8 32  1  0  0  0  0
  9 10  2  0  0  0  0
  9 33  1  0  0  0  0
 10 11  1  0  0  0  0
 10 34  1  0  0  0  0
 11 12  1  0  0  0  0
 11 13  2  0  0  0  0
 13 35  1  0  0  0  0
 14 15  1  0  0  0  0
 15 24  2  0  0  0  0
 15 16  1  0  0  0  0
 16 17  2  0  0  0  0
 16 36  1  0  0  0  0
 17 18  1  0  0  0  0
 17 22  1  0  0  0  0
 18 19  1  0  0  0  0
 18 20  2  0  0  0  0
 18 21  2  0  0  0  0
 19 37  1  0  0  0  0
 22 23  2  0  0  0  0
 22 38  1  0  0  0  0
 23 24  1  0  0  0  0
 23 39  1  0  0  0  0
M  CHG  1  19  -1
M  END
> <s_m_source_file>
AV-unprocessed.smi

> <i_m_source_file_index>
2867

> <i_lp_mmshare_version>
43012

> <i_f3d_flags>
0

> <s_epik_input>
W05IMl1TKD1PKSg9TyljKFtjSF0xKVtjSF1bY0hdYyhjMTIpbihbQ0gyXVtDSDJdT1tDSDNdKWMobjIpLWMzW2NIXVtjSF1bY0hdYyhGKVtjSF0z

> <s_epik_cmdline>
J2VwaWtfcHl0aG9uJywgJy1waCcsICc3LjAnLCAnLXRuJywgJzgnLCAnLW1hJywgJzIwMCcsICctbWV0YWxfYmluZGluZycsICctaW1hZScsICc8aW5maWxlLm1hZT4nLCAnLW9tYWUnLCAnPG91dGZpbGUubWFlPic=

> <r_epik_Ionization_Penalty>
4.13732

> <r_epik_Ionization_Penalty_Charging>
3.73366

> <r_epik_Ionization_Penalty_Neutral>
0.403663

> <r_epik_State_Penalty>
3.79183

> <r_epik_Charging_Adjusted_Penalty>
7.52549

> <i_epik_Tot_Q>
-1

> <i_epik_Tot_abs_Q>
1

> <r_epik_Metal_State_Penalty>
0.634538

> <b_epik_Metal_Only>
1

> <s_lp_Force_Field>
OPLS_2005

> <r_lp_Energy>
13.7357

> <b_lp_Chiralities_Consistent>
1

> <s_lp_Variant>
AV-unprocessed.smi:2867-3

> <Gold.Version>
5.8.1

> <Gold.Id.Protein>
6NUR|6NUR_protein|mol2

> <Gold.PLP.Fitness>
44.4089

> <Gold.PLP.PLP>
-41.2434

> <Gold.PLP.part.hbond>
-2.2995

> <Gold.PLP.part.metal>
0.0000

> <Gold.PLP.part.buried>
-4.3680

> <Gold.PLP.part.nonpolar>
-33.7006

> <Gold.PLP.part.repulsive>
0.1430

> <Gold.PLP.ligand.clash>
0.0202

> <Gold.PLP.ligand.torsion>
2.1428

> <Gold.PLP.Chemscore.Hbond>
1.3973

> <Gold.PLP.Chemscore.CHOScore>
0.0000

> <Gold.PLP.Chemscore.Metal>
0.0000

> <Gold.Chemscore.Hbonds>
donor molecule, donor type, donor heavy atom, donor atom, acceptor molecule, acceptor atom, score
      P1  H  6896  6909       L1    20  1.00
      P1  H  7989  7998       L1     2  0.10

> <Gold.PLP.Chemscore.Internal.Correction>
3.2793

> <Gold.Rescore>
     Score         DG    S(hbond)    S(metal)    S(lipo)     H(rot)  DE(clash)    DE(int)     intcor
     14.69     -17.02       1.00        0.00     101.42       1.43       0.05       2.28       ----

> <Gold.Chemscore.Fitness>
14.6944

> <Gold.Chemscore.DG>
-17.0219

> <Gold.Chemscore.ZeroCoef>
-5.4800

> <Gold.Chemscore.Hbond>
0.9996

> <Gold.Chemscore.Metal>
0.0000

> <Gold.Chemscore.Lipo>
101.4182

> <Gold.Chemscore.Internal_Hbond>
0.0000

> <Gold.Chemscore.DEClash>
0.0515

> <Gold.Chemscore.DEInternal>
2.2760

> <Gold.Chemscore.Rot>
1.4308

> <Gold.Chemscore.Internal.Correction>
   9.000000E+99

> <Gold.Chemscore.Hbonds>
donor molecule, donor type, donor heavy atom, donor atom, acceptor molecule, acceptor atom, score
      P1  H  6896  6909       L1    20  0.98
      P1  H  7989  7998       L1     2  0.01

> <Gold.Chemscore.Hbond.Weighted>
-3.3388

> <Gold.Chemscore.Metal.Weighted>
-0.0000

> <Gold.Chemscore.Lipo.Weighted>
-11.8659

> <Gold.Chemscore.Internal_Hbond.Weighted>
0.0000

> <Gold.Chemscore.DEClash.Weighted>
0.0515

> <Gold.Chemscore.DEInternal.Weighted>
2.2760

> <Gold.Chemscore.Rot.Weighted>
3.6628

> <Gold.Chemscore.Internal.Correction.Weighted>
   9.000000E+99

> <Gold.Protein.RotatedTorsions>
[ 6907 6896 6895 6894 ] final   31.23 input  -60.11 | X-H torsion
[ 7974 7965 7964 7962 ] final -114.41 input  175.53 | X-H torsion
[ 8008 7997 7996 7995 ] final  -76.94 input   59.86 | X-H torsion
[ 10167 10162 10161 10158 ] final   73.15 input  -65.29 | X-H torsion
[ 10718 10713 10712 10709 ] final   12.27 input   66.30 | X-H torsion
[ 10763 10752 10751 10750 ] final -179.27 input  -60.55 | X-H torsion
[ 11005 11000 10999 10996 ] final -124.64 input  -57.11 | X-H torsion

> <Gold.Protein.ActiveResidues>
 VAL166  LYS551  ARG553  GLY616  TRP617  ASP618  TYR619  PRO620  LYS621  CYS622 
 ASP623  PHE694  ASN695  SER759  ASP760  ASP761  ALA762  ILE779  LEU786  VAL792 
 PHE793  MET794  SER795  GLU796  ALA797  LYS798  CYS799  TRP800  GLU811  SER814 

> <Gold.Protein.RotatedAtoms>
  152.0573  134.9616  160.0574 H   0  0  0  0  0  0  0  0  0  0  0  0  # atno 6907 bound_to 6896
  152.0993  133.4237  159.4588 H   0  0  0  0  0  0  0  0  0  0  0  0  # atno 6908 bound_to 6896
  150.6839  134.2698  159.4627 H   0  0  0  0  0  0  0  0  0  0  0  0  # atno 6909 bound_to 6896
  145.1205  140.8666  143.3817 H   0  0  0  0  0  0  0  0  0  0  0  0  # atno 7974 bound_to 7965
  154.5550  140.0719  156.8729 H   0  0  0  0  0  0  0  0  0  0  0  0  # atno 8008 bound_to 7997
  155.2919  140.3378  155.4234 H   0  0  0  0  0  0  0  0  0  0  0  0  # atno 8009 bound_to 7997
  156.1994  140.1716  156.7916 H   0  0  0  0  0  0  0  0  0  0  0  0  # atno 8010 bound_to 7997
  140.0276  144.5491  150.7532 H   0  0  0  0  0  0  0  0  0  0  0  0  # atno 10167 bound_to 10162
  157.0078  130.6105  149.5704 H   0  0  0  0  0  0  0  0  0  0  0  0  # atno 10718 bound_to 10713
  154.5372  135.2803  155.1128 H   0  0  0  0  0  0  0  0  0  0  0  0  # atno 10763 bound_to 10752
  154.2625  135.6319  153.5283 H   0  0  0  0  0  0  0  0  0  0  0  0  # atno 10764 bound_to 10752
  152.9970  135.5609  154.5901 H   0  0  0  0  0  0  0  0  0  0  0  0  # atno 10765 bound_to 10752
  140.9825  134.0653  157.3748 H   0  0  0  0  0  0  0  0  0  0  0  0  # atno 11005 bound_to 11000
  145.0746  139.3005  143.5814 LP  0  0  0  0  0  0  0  0  0  0  0  0  # atno 17320 bound_to 7965
  146.3521  140.0232  142.8657 LP  0  0  0  0  0  0  0  0  0  0  0  0  # atno 17321 bound_to 7965
  140.7316  143.2696  151.3931 LP  0  0  0  0  0  0  0  0  0  0  0  0  # atno 17342 bound_to 10162
  139.6098  144.1122  152.2287 LP  0  0  0  0  0  0  0  0  0  0  0  0  # atno 17343 bound_to 10162
  156.0147  130.5241  150.8099 LP  0  0  0  0  0  0  0  0  0  0  0  0  # atno 17370 bound_to 10713
  157.5343  131.0938  150.9913 LP  0  0  0  0  0  0  0  0  0  0  0  0  # atno 17371 bound_to 10713
  139.8956  135.0142  156.7011 LP  0  0  0  0  0  0  0  0  0  0  0  0  # atno 17394 bound_to 11000
  140.7165  133.9178  155.8118 LP  0  0  0  0  0  0  0  0  0  0  0  0  # atno 17395 bound_to 11000

$$$$
