AV-unprocessed.smi:3147|AV-procd|sdf|11987|dock5
  -GOLD-   2272017393D 1   1.00000     0.00000
 Structure written by MMmdl.
 37 38  0  0  0  0  0  0  0  0  2 V2000
  153.3579  142.7898  163.1344 C   0  0  0  0  0  0  0  0  0  0  0  0
  152.7481  143.2873  161.8672 C   0  0  0  0  0  0  0  0  0  0  0  0
  151.8212  144.2961  161.8471 N   0  3  0  0  0  0  0  0  0  0  0  0
  151.4394  144.5575  160.5961 C   0  0  0  0  0  0  0  0  0  0  0  0
  152.1167  143.7204  159.8025 N   0  0  0  0  0  0  0  0  0  0  0  0
  151.9491  143.7307  158.3408 C   0  0  0  0  0  0  0  0  0  0  0  0
  151.3511  142.4247  157.8063 C   0  0  0  0  0  0  0  0  0  0  0  0
  151.8565  141.3378  158.0896 O   0  0  0  0  0  0  0  0  0  0  0  0
  150.2635  142.5531  157.0320 N   0  0  0  0  0  0  0  0  0  0  0  0
  149.5036  141.4474  156.4562 C   0  0  0  0  0  0  0  0  0  0  0  0
  150.3067  140.6648  155.4002 C   0  0  2  0  0  0  0  0  0  0  0  0
  149.5745  139.4994  154.7342 C   0  0  0  0  0  0  0  0  0  0  0  0
  150.7353  138.7082  154.1747 C   0  0  0  0  0  0  0  0  0  0  0  0
  151.7986  138.8757  155.2599 C   0  0  0  0  0  0  0  0  0  0  0  0
  151.4808  140.0806  155.9551 O   0  0  0  0  0  0  0  0  0  0  0  0
  152.9422  142.9159  160.5568 C   0  0  0  0  0  0  0  0  0  0  0  0
  153.8406  141.8817  159.9606 C   0  0  0  0  0  0  0  0  0  0  0  0
  153.4188  141.7013  163.1221 H   0  0  0  0  0  0  0  0  0  0  0  0
  152.7613  143.0924  163.9956 H   0  0  0  0  0  0  0  0  0  0  0  0
  154.3642  143.1936  163.2485 H   0  0  0  0  0  0  0  0  0  0  0  0
  150.7265  145.3017  160.2884 H   0  0  0  0  0  0  0  0  0  0  0  0
  151.3115  144.5762  158.0796 H   0  0  0  0  0  0  0  0  0  0  0  0
  152.9208  143.9026  157.8757 H   0  0  0  0  0  0  0  0  0  0  0  0
  149.9188  143.4841  156.8472 H   0  0  0  0  0  0  0  0  0  0  0  0
  149.2273  140.7761  157.2694 H   0  0  0  0  0  0  0  0  0  0  0  0
  148.5658  141.8034  156.0268 H   0  0  0  0  0  0  0  0  0  0  0  0
  150.6331  141.3581  154.6233 H   0  0  0  0  0  0  0  0  0  0  0  0
  149.0361  138.8946  155.4645 H   0  0  0  0  0  0  0  0  0  0  0  0
  148.8687  139.8222  153.9685 H   0  0  0  0  0  0  0  0  0  0  0  0
  150.4889  137.6648  153.9760 H   0  0  0  0  0  0  0  0  0  0  0  0
  151.0774  139.1605  153.2426 H   0  0  0  0  0  0  0  0  0  0  0  0
  151.7592  138.0464  155.9662 H   0  0  0  0  0  0  0  0  0  0  0  0
  152.8047  138.9153  154.8421 H   0  0  0  0  0  0  0  0  0  0  0  0
  154.3219  141.2959  160.7436 H   0  0  0  0  0  0  0  0  0  0  0  0
  154.6164  142.3601  159.3632 H   0  0  0  0  0  0  0  0  0  0  0  0
  153.2737  141.2031  159.3231 H   0  0  0  0  0  0  0  0  0  0  0  0
  151.4747  144.7807  162.6655 H   0  0  0  0  0  0  0  0  0  0  0  0
  1  2  1  0  0  0  0
  1 18  1  0  0  0  0
  1 19  1  0  0  0  0
  1 20  1  0  0  0  0
  2 16  2  0  0  0  0
  2  3  1  0  0  0  0
  3  4  2  0  0  0  0
  3 37  1  0  0  0  0
  4  5  1  0  0  0  0
  4 21  1  0  0  0  0
  5  6  1  0  0  0  0
  5 16  1  0  0  0  0
  6  7  1  0  0  0  0
  6 22  1  0  0  0  0
  6 23  1  0  0  0  0
  7  8  2  0  0  0  0
  7  9  1  0  0  0  0
  9 10  1  0  0  0  0
  9 24  1  0  0  0  0
 10 11  1  0  0  0  0
 10 25  1  0  0  0  0
 10 26  1  0  0  0  0
 11 15  1  0  0  0  0
 11 12  1  0  0  0  0
 11 27  1  0  0  0  0
 12 13  1  0  0  0  0
 12 28  1  0  0  0  0
 12 29  1  0  0  0  0
 13 14  1  0  0  0  0
 13 30  1  0  0  0  0
 13 31  1  0  0  0  0
 14 15  1  0  0  0  0
 14 32  1  0  0  0  0
 14 33  1  0  0  0  0
 16 17  1  0  0  0  0
 17 34  1  0  0  0  0
 17 35  1  0  0  0  0
 17 36  1  0  0  0  0
M  CHG  1   3   1
M  END
> <s_m_source_file>
AV-unprocessed.smi

> <i_m_source_file_index>
3147

> <i_lp_mmshare_version>
43012

> <i_f3d_flags>
0

> <s_epik_input>
W0NIM11jMW5bY0hdbihjMVtDSDNdKVtDSDJdQyg9TylbTkhdW0NIMl1bQ0BASF0yW0NIMl1bQ0gyXVtDSDJdTzI=

> <s_epik_cmdline>
J2VwaWtfcHl0aG9uJywgJy1waCcsICc3LjAnLCAnLXRuJywgJzgnLCAnLW1hJywgJzIwMCcsICctbWV0YWxfYmluZGluZycsICctaW1hZScsICc8aW5maWxlLm1hZT4nLCAnLW9tYWUnLCAnPG91dGZpbGUubWFlPic=

> <r_lp_tautomer_probability>
1

> <r_epik_Ionization_Penalty>
0.131257

> <r_epik_Ionization_Penalty_Charging>
0

> <r_epik_Ionization_Penalty_Neutral>
0.131257

> <r_epik_State_Penalty>
0.12065

> <r_epik_Charging_Adjusted_Penalty>
0.12065

> <i_epik_Tot_Q>
1

> <i_epik_Tot_abs_Q>
1

> <r_epik_Metal_State_Penalty>
0.448684

> <b_epik_Metal_Only>
0

> <s_lp_Force_Field>
OPLS_2005

> <r_lp_Energy>
20.508

> <b_lp_Chiralities_Consistent>
1

> <s_lp_Variant>
AV-unprocessed.smi:3147-1

> <Gold.Version>
5.8.1

> <Gold.Id.Protein>
6NUR|6NUR_protein|mol2

> <Gold.PLP.Fitness>
49.3625

> <Gold.PLP.PLP>
-46.5684

> <Gold.PLP.part.hbond>
-2.5016

> <Gold.PLP.part.metal>
0.0000

> <Gold.PLP.part.buried>
-6.6035

> <Gold.PLP.part.nonpolar>
-37.2774

> <Gold.PLP.part.repulsive>
0.0806

> <Gold.PLP.ligand.clash>
0.0000

> <Gold.PLP.ligand.torsion>
0.0934

> <Gold.PLP.Chemscore.Hbond>
0.9920

> <Gold.PLP.Chemscore.CHOScore>
0.0000

> <Gold.PLP.Chemscore.Metal>
0.0000

> <Gold.Chemscore.Hbonds>
donor molecule, donor type, donor heavy atom, donor atom, acceptor molecule, acceptor atom, score
      L1  H     9    24       P1  8028  0.99

> <Gold.PLP.Chemscore.Internal.Correction>
0.0049

> <Gold.Rescore>
     Score         DG    S(hbond)    S(metal)    S(lipo)     H(rot)  DE(clash)    DE(int)     intcor
     12.00     -15.27       1.00        0.00      93.66       1.76       0.01       3.26       ----

> <Gold.Chemscore.Fitness>
12.0019

> <Gold.Chemscore.DG>
-15.2748

> <Gold.Chemscore.ZeroCoef>
-5.4800

> <Gold.Chemscore.Hbond>
0.9991

> <Gold.Chemscore.Metal>
0.0000

> <Gold.Chemscore.Lipo>
93.6553

> <Gold.Chemscore.Internal_Hbond>
0.0000

> <Gold.Chemscore.DEClash>
0.0148

> <Gold.Chemscore.DEInternal>
3.2581

> <Gold.Chemscore.Rot>
1.7577

> <Gold.Chemscore.Internal.Correction>
   9.000000E+99

> <Gold.Chemscore.Hbonds>
donor molecule, donor type, donor heavy atom, donor atom, acceptor molecule, acceptor atom, score
      L1  H     9    24       P1  8028  0.91

> <Gold.Chemscore.Hbond.Weighted>
-3.3369

> <Gold.Chemscore.Metal.Weighted>
-0.0000

> <Gold.Chemscore.Lipo.Weighted>
-10.9577

> <Gold.Chemscore.Internal_Hbond.Weighted>
0.0000

> <Gold.Chemscore.DEClash.Weighted>
0.0148

> <Gold.Chemscore.DEInternal.Weighted>
3.2581

> <Gold.Chemscore.Rot.Weighted>
4.4998

> <Gold.Chemscore.Internal.Correction.Weighted>
   9.000000E+99

> <Gold.Protein.RotatedTorsions>
[ 6907 6896 6895 6894 ] final  100.66 input  -60.11 | X-H torsion
[ 7974 7965 7964 7962 ] final  -28.86 input  175.53 | X-H torsion
[ 8008 7997 7996 7995 ] final  109.27 input   59.86 | X-H torsion
[ 10167 10162 10161 10158 ] final  162.91 input  -65.29 | X-H torsion
[ 10718 10713 10712 10709 ] final  -84.54 input   66.30 | X-H torsion
[ 10763 10752 10751 10750 ] final  -22.25 input  -60.55 | X-H torsion
[ 11005 11000 10999 10996 ] final  -52.17 input  -57.11 | X-H torsion

> <Gold.Protein.ActiveResidues>
 VAL166  LYS551  ARG553  GLY616  TRP617  ASP618  TYR619  PRO620  LYS621  CYS622 
 ASP623  PHE694  ASN695  SER759  ASP760  ASP761  ALA762  ILE779  LEU786  VAL792 
 PHE793  MET794  SER795  GLU796  ALA797  LYS798  CYS799  TRP800  GLU811  SER814 

> <Gold.Protein.RotatedAtoms>
  152.5367  134.0244  159.7995 H   0  0  0  0  0  0  0  0  0  0  0  0  # atno 6907 bound_to 6896
  151.0425  133.5686  159.2657 H   0  0  0  0  0  0  0  0  0  0  0  0  # atno 6908 bound_to 6896
  151.2651  135.0674  159.9166 H   0  0  0  0  0  0  0  0  0  0  0  0  # atno 6909 bound_to 6896
  146.1258  140.5337  142.8715 H   0  0  0  0  0  0  0  0  0  0  0  0  # atno 7974 bound_to 7965
  156.1967  140.3061  155.9441 H   0  0  0  0  0  0  0  0  0  0  0  0  # atno 8008 bound_to 7997
  155.3050  140.0448  157.3049 H   0  0  0  0  0  0  0  0  0  0  0  0  # atno 8009 bound_to 7997
  154.5518  140.2293  155.8482 H   0  0  0  0  0  0  0  0  0  0  0  0  # atno 8010 bound_to 7997
  139.4866  144.4390  151.8975 H   0  0  0  0  0  0  0  0  0  0  0  0  # atno 10167 bound_to 10162
  156.0005  130.4701  150.4425 H   0  0  0  0  0  0  0  0  0  0  0  0  # atno 10718 bound_to 10713
  153.6490  135.6981  153.5215 H   0  0  0  0  0  0  0  0  0  0  0  0  # atno 10763 bound_to 10752
  153.2722  135.4211  155.0998 H   0  0  0  0  0  0  0  0  0  0  0  0  # atno 10764 bound_to 10752
  154.8481  135.3581  154.6034 H   0  0  0  0  0  0  0  0  0  0  0  0  # atno 10765 bound_to 10752
  141.0910  133.6633  156.3985 H   0  0  0  0  0  0  0  0  0  0  0  0  # atno 11005 bound_to 11000
  144.7641  140.5490  143.6715 LP  0  0  0  0  0  0  0  0  0  0  0  0  # atno 17320 bound_to 7965
  145.5368  139.1475  143.3469 LP  0  0  0  0  0  0  0  0  0  0  0  0  # atno 17321 bound_to 7965
  140.3841  144.2699  150.5905 LP  0  0  0  0  0  0  0  0  0  0  0  0  # atno 17342 bound_to 10162
  140.5206  143.2267  151.8394 LP  0  0  0  0  0  0  0  0  0  0  0  0  # atno 17343 bound_to 10162
  157.2465  131.0537  151.2405 LP  0  0  0  0  0  0  0  0  0  0  0  0  # atno 17370 bound_to 10713
  157.3570  130.7111  149.6477 LP  0  0  0  0  0  0  0  0  0  0  0  0  # atno 17371 bound_to 10713
  140.5252  134.6266  157.5331 LP  0  0  0  0  0  0  0  0  0  0  0  0  # atno 17394 bound_to 11000
  139.9736  134.7252  155.9993 LP  0  0  0  0  0  0  0  0  0  0  0  0  # atno 17395 bound_to 11000

$$$$
