AV-unprocessed.smi:3348|AV-procd|sdf|12927|dock9
  -GOLD-   2272019353D 1   1.00000     0.00000
 Structure written by MMmdl.
 46 47  0  0  0  0  0  0  0  0  1 V2000
  144.6265  135.0721  153.4894 C   0  0  0  0  0  0  0  0  0  0  0  0
  144.5357  135.9070  152.2004 C   0  0  2  0  0  0  0  0  0  0  0  0
  145.5255  135.4270  151.1105 C   0  0  0  0  0  0  0  0  0  0  0  0
  145.4012  134.0117  150.8103 N   0  0  0  0  0  0  0  0  0  0  0  0
  144.2654  133.2987  150.4875 C   0  0  0  0  0  0  0  0  0  0  0  0
  144.6410  131.9989  150.3021 C   0  0  0  0  0  0  0  0  0  0  0  0
  146.0436  132.0149  150.5423 C   0  0  0  0  0  0  0  0  0  0  0  0
  146.4950  133.2199  150.8504 N   0  0  0  0  0  0  0  0  0  0  0  0
  144.7314  137.3218  152.5317 N   0  0  0  0  0  0  0  0  0  0  0  0
  145.9097  137.6219  153.3450 C   0  0  0  0  0  0  0  0  0  0  0  0
  146.6332  138.8679  152.8239 C   0  0  0  0  0  0  0  0  0  0  0  0
  147.1360  139.5990  153.9322 O   0  0  0  0  0  0  0  0  0  0  0  0
  147.8595  140.7762  153.5894 C   0  0  2  0  0  0  0  0  0  0  0  0
  149.3738  140.4802  153.5396 C   0  0  0  0  0  0  0  0  0  0  0  0
  149.9242  140.0936  154.9224 C   0  0  0  0  0  0  0  0  0  0  0  0
  149.6079  141.1727  155.9691 C   0  0  0  0  0  0  0  0  0  0  0  0
  148.1013  141.4718  156.0268 C   0  0  0  0  0  0  0  0  0  0  0  0
  147.5495  141.8646  154.6414 C   0  0  2  0  0  0  0  0  0  0  0  0
  146.0515  142.2024  154.6964 C   0  0  0  0  0  0  0  0  0  0  0  0
  144.3748  134.0267  153.3110 H   0  0  0  0  0  0  0  0  0  0  0  0
  143.9341  135.4423  154.2464 H   0  0  0  0  0  0  0  0  0  0  0  0
  145.6312  135.1058  153.9126 H   0  0  0  0  0  0  0  0  0  0  0  0
  143.5238  135.7816  151.8130 H   0  0  0  0  0  0  0  0  0  0  0  0
  145.3769  135.9712  150.1776 H   0  0  0  0  0  0  0  0  0  0  0  0
  146.5519  135.6208  151.4252 H   0  0  0  0  0  0  0  0  0  0  0  0
  143.2965  133.7705  150.4156 H   0  0  0  0  0  0  0  0  0  0  0  0
  144.0102  131.1636  150.0367 H   0  0  0  0  0  0  0  0  0  0  0  0
  146.7423  131.1922  150.5038 H   0  0  0  0  0  0  0  0  0  0  0  0
  144.7615  137.8693  151.6777 H   0  0  0  0  0  0  0  0  0  0  0  0
  145.6440  137.7672  154.3918 H   0  0  0  0  0  0  0  0  0  0  0  0
  146.5982  136.7771  153.3079 H   0  0  0  0  0  0  0  0  0  0  0  0
  147.4551  138.5587  152.1783 H   0  0  0  0  0  0  0  0  0  0  0  0
  145.9602  139.4821  152.2233 H   0  0  0  0  0  0  0  0  0  0  0  0
  147.5297  141.1411  152.6147 H   0  0  0  0  0  0  0  0  0  0  0  0
  149.5938  139.6931  152.8189 H   0  0  0  0  0  0  0  0  0  0  0  0
  149.8993  141.3667  153.1823 H   0  0  0  0  0  0  0  0  0  0  0  0
  149.4926  139.1419  155.2354 H   0  0  0  0  0  0  0  0  0  0  0  0
  151.0020  139.9389  154.8628 H   0  0  0  0  0  0  0  0  0  0  0  0
  149.9614  140.8541  156.9503 H   0  0  0  0  0  0  0  0  0  0  0  0
  150.1521  142.0864  155.7268 H   0  0  0  0  0  0  0  0  0  0  0  0
  147.5694  140.5969  156.4034 H   0  0  0  0  0  0  0  0  0  0  0  0
  147.9174  142.2738  156.7423 H   0  0  0  0  0  0  0  0  0  0  0  0
  148.0669  142.7737  154.3311 H   0  0  0  0  0  0  0  0  0  0  0  0
  145.4603  141.3454  155.0208 H   0  0  0  0  0  0  0  0  0  0  0  0
  145.6825  142.5096  153.7174 H   0  0  0  0  0  0  0  0  0  0  0  0
  145.8594  143.0196  155.3919 H   0  0  0  0  0  0  0  0  0  0  0  0
  1  2  1  0  0  0  0
  1 20  1  0  0  0  0
  1 21  1  0  0  0  0
  1 22  1  0  0  0  0
  2  3  1  0  0  0  0
  2  9  1  0  0  0  0
  2 23  1  0  0  0  0
  3  4  1  0  0  0  0
  3 24  1  0  0  0  0
  3 25  1  0  0  0  0
  4  8  1  0  0  0  0
  4  5  1  0  0  0  0
  5  6  2  0  0  0  0
  5 26  1  0  0  0  0
  6  7  1  0  0  0  0
  6 27  1  0  0  0  0
  7  8  2  0  0  0  0
  7 28  1  0  0  0  0
  9 10  1  0  0  0  0
  9 29  1  0  0  0  0
 10 11  1  0  0  0  0
 10 30  1  0  0  0  0
 10 31  1  0  0  0  0
 11 12  1  0  0  0  0
 11 32  1  0  0  0  0
 11 33  1  0  0  0  0
 12 13  1  0  0  0  0
 13 18  1  0  0  0  0
 13 14  1  0  0  0  0
 13 34  1  0  0  0  0
 14 15  1  0  0  0  0
 14 35  1  0  0  0  0
 14 36  1  0  0  0  0
 15 16  1  0  0  0  0
 15 37  1  0  0  0  0
 15 38  1  0  0  0  0
 16 17  1  0  0  0  0
 16 39  1  0  0  0  0
 16 40  1  0  0  0  0
 17 18  1  0  0  0  0
 17 41  1  0  0  0  0
 17 42  1  0  0  0  0
 18 19  1  0  0  0  0
 18 43  1  0  0  0  0
 19 44  1  0  0  0  0
 19 45  1  0  0  0  0
 19 46  1  0  0  0  0
M  END
> <s_m_source_file>
AV-unprocessed.smi

> <i_m_source_file_index>
3348

> <i_lp_mmshare_version>
43012

> <i_f3d_flags>
0

> <s_epik_input>
bjFbY0hdW2NIXVtjSF1uMVtDSDJdW0NAQEhdKFtDSDNdKVtOSF1bQ0gyXVtDSDJdT1tDQEBIXTJbQ0gyXVtDSDJdW0NIMl1bQ0gyXVtDQEhdMltDSDNd

> <s_epik_cmdline>
J2VwaWtfcHl0aG9uJywgJy1waCcsICc3LjAnLCAnLXRuJywgJzgnLCAnLW1hJywgJzIwMCcsICctbWV0YWxfYmluZGluZycsICctaW1hZScsICc8aW5maWxlLm1hZT4nLCAnLW9tYWUnLCAnPG91dGZpbGUubWFlPic=

> <r_lp_tautomer_probability>
1

> <r_epik_Ionization_Penalty>
2.46945

> <r_epik_Ionization_Penalty_Charging>
0

> <r_epik_Ionization_Penalty_Neutral>
2.46945

> <r_epik_State_Penalty>
2.6322

> <r_epik_Charging_Adjusted_Penalty>
2.6322

> <i_epik_Tot_Q>
0

> <i_epik_Tot_abs_Q>
0

> <r_epik_Metal_State_Penalty>
2.63217

> <b_epik_Metal_Only>
0

> <s_lp_Force_Field>
OPLS_2005

> <r_lp_Energy>
16.5117

> <b_lp_Chiralities_Consistent>
1

> <s_lp_Variant>
AV-unprocessed.smi:3348-13

> <Gold.Version>
5.8.1

> <Gold.Id.Protein>
6NUR|6NUR_protein|mol2

> <Gold.PLP.Fitness>
40.9447

> <Gold.PLP.PLP>
-34.7667

> <Gold.PLP.part.hbond>
-1.8493

> <Gold.PLP.part.metal>
0.0000

> <Gold.PLP.part.buried>
-0.1487

> <Gold.PLP.part.nonpolar>
-33.7590

> <Gold.PLP.part.repulsive>
0.3569

> <Gold.PLP.ligand.clash>
0.0000

> <Gold.PLP.ligand.torsion>
1.1949

> <Gold.PLP.Chemscore.Hbond>
0.8160

> <Gold.PLP.Chemscore.CHOScore>
2.0000

> <Gold.PLP.Chemscore.Metal>
0.0000

> <Gold.Chemscore.Hbonds>
donor molecule, donor type, donor heavy atom, donor atom, acceptor molecule, acceptor atom, score
      L1  H     9    29       P1 10171  0.60
      L1  C     5    26       P1 10186  1.00
      L1  C     7    28       P1 10747  1.00

> <Gold.PLP.Chemscore.Internal.Correction>
0.1199

> <Gold.Rescore>
     Score         DG    S(hbond)    S(metal)    S(lipo)     H(rot)  DE(clash)    DE(int)     intcor
     12.87     -15.84       0.88        0.00     101.15       1.72       2.10       0.87       ----

> <Gold.Chemscore.Fitness>
12.8694

> <Gold.Chemscore.DG>
-15.8429

> <Gold.Chemscore.ZeroCoef>
-5.4800

> <Gold.Chemscore.Hbond>
0.8804

> <Gold.Chemscore.Metal>
0.0000

> <Gold.Chemscore.Lipo>
101.1520

> <Gold.Chemscore.Internal_Hbond>
0.0000

> <Gold.Chemscore.DEClash>
2.0992

> <Gold.Chemscore.DEInternal>
0.8743

> <Gold.Chemscore.Rot>
1.7237

> <Gold.Chemscore.Internal.Correction>
   9.000000E+99

> <Gold.Chemscore.Hbonds>
donor molecule, donor type, donor heavy atom, donor atom, acceptor molecule, acceptor atom, score
      L1  H     9    29       P1 10171  0.58

> <Gold.Chemscore.Hbond.Weighted>
-2.9407

> <Gold.Chemscore.Metal.Weighted>
-0.0000

> <Gold.Chemscore.Lipo.Weighted>
-11.8348

> <Gold.Chemscore.Internal_Hbond.Weighted>
0.0000

> <Gold.Chemscore.DEClash.Weighted>
2.0992

> <Gold.Chemscore.DEInternal.Weighted>
0.8743

> <Gold.Chemscore.Rot.Weighted>
4.4126

> <Gold.Chemscore.Internal.Correction.Weighted>
   9.000000E+99

> <Gold.Protein.RotatedTorsions>
[ 6907 6896 6895 6894 ] final  131.49 input  -60.11 | X-H torsion
[ 7974 7965 7964 7962 ] final   61.96 input  175.53 | X-H torsion
[ 8008 7997 7996 7995 ] final  163.73 input   59.86 | X-H torsion
[ 10167 10162 10161 10158 ] final  168.35 input  -65.29 | X-H torsion
[ 10718 10713 10712 10709 ] final  172.27 input   66.30 | X-H torsion
[ 10763 10752 10751 10750 ] final  -48.93 input  -60.55 | X-H torsion
[ 11005 11000 10999 10996 ] final  -64.90 input  -57.11 | X-H torsion

> <Gold.Protein.ActiveResidues>
 VAL166  LYS551  ARG553  GLY616  TRP617  ASP618  TYR619  PRO620  LYS621  CYS622 
 ASP623  PHE694  ASN695  SER759  ASP760  ASP761  ALA762  ILE779  LEU786  VAL792 
 PHE793  MET794  SER795  GLU796  ALA797  LYS798  CYS799  TRP800  GLU811  SER814 

> <Gold.Protein.RotatedAtoms>
  152.3420  133.6078  159.5883 H   0  0  0  0  0  0  0  0  0  0  0  0  # atno 6907 bound_to 6896
  150.7484  133.9707  159.3553 H   0  0  0  0  0  0  0  0  0  0  0  0  # atno 6908 bound_to 6896
  151.7570  135.0820  160.0390 H   0  0  0  0  0  0  0  0  0  0  0  0  # atno 6909 bound_to 6896
  145.8787  139.3428  143.0719 H   0  0  0  0  0  0  0  0  0  0  0  0  # atno 7974 bound_to 7965
  156.1934  140.1715  156.8046 H   0  0  0  0  0  0  0  0  0  0  0  0  # atno 8008 bound_to 7997
  154.5500  140.0719  156.8683 H   0  0  0  0  0  0  0  0  0  0  0  0  # atno 8009 bound_to 7997
  155.3047  140.3364  155.4248 H   0  0  0  0  0  0  0  0  0  0  0  0  # atno 8010 bound_to 7997
  139.4966  144.3823  151.9608 H   0  0  0  0  0  0  0  0  0  0  0  0  # atno 10167 bound_to 10162
  156.9813  131.0120  151.2880 H   0  0  0  0  0  0  0  0  0  0  0  0  # atno 10718 bound_to 10713
  154.0858  135.6584  153.4845 H   0  0  0  0  0  0  0  0  0  0  0  0  # atno 10763 bound_to 10752
  153.0339  135.5190  154.7429 H   0  0  0  0  0  0  0  0  0  0  0  0  # atno 10764 bound_to 10752
  154.6538  135.3005  154.9922 H   0  0  0  0  0  0  0  0  0  0  0  0  # atno 10765 bound_to 10752
  141.1439  133.6673  156.5904 H   0  0  0  0  0  0  0  0  0  0  0  0  # atno 11005 bound_to 11000
  145.9049  140.9218  143.0484 LP  0  0  0  0  0  0  0  0  0  0  0  0  # atno 17320 bound_to 7965
  144.6727  140.1082  143.7457 LP  0  0  0  0  0  0  0  0  0  0  0  0  # atno 17321 bound_to 7965
  140.3260  144.3372  150.5998 LP  0  0  0  0  0  0  0  0  0  0  0  0  # atno 17342 bound_to 10162
  140.5684  143.2183  151.7643 LP  0  0  0  0  0  0  0  0  0  0  0  0  # atno 17343 bound_to 10162
  157.5524  130.8191  149.8161 LP  0  0  0  0  0  0  0  0  0  0  0  0  # atno 17370 bound_to 10713
  156.0243  130.3785  150.1869 LP  0  0  0  0  0  0  0  0  0  0  0  0  # atno 17371 bound_to 10713
  140.3767  134.7559  157.4634 LP  0  0  0  0  0  0  0  0  0  0  0  0  # atno 17394 bound_to 11000
  140.0669  134.5917  155.8685 LP  0  0  0  0  0  0  0  0  0  0  0  0  # atno 17395 bound_to 11000

$$$$
