AV-unprocessed.smi:16|AV-procd|sdf|92|dock1
  -GOLD-   2262015233D 1   1.00000     0.00000
 Structure written by MMmdl.
 60 64  0  0  0  0  0  0  0  0  2 V2000
  146.0085  131.5521  156.5472 C   0  0  0  0  0  0  0  0  0  0  0  0
  146.6129  130.4836  155.6242 C   0  0  0  0  0  0  0  0  0  0  0  0
  146.0580  130.5372  154.2477 N   0  3  2  0  0  0  0  0  0  0  0  0
  146.5891  129.4456  153.3895 C   0  0  0  0  0  0  0  0  0  0  0  0
  145.9222  129.4453  152.0041 C   0  0  0  0  0  0  0  0  0  0  0  0
  146.0943  130.8092  151.3273 C   0  0  1  0  0  0  0  0  0  0  0  0
  145.4252  130.8125  150.0718 O   0  0  0  0  0  0  0  0  0  0  0  0
  145.6229  132.0393  149.3765 C   0  0  0  0  0  0  0  0  0  0  0  0
  145.0542  133.2004  150.2088 C   0  0  0  0  0  0  0  0  0  0  0  0
  145.6314  133.2060  151.5498 N   0  0  0  0  0  0  0  0  0  0  0  0
  145.2233  134.2952  152.2403 C   0  0  0  0  0  0  0  0  0  0  0  0
  146.1258  135.2287  152.6436 N   0  0  0  0  0  0  0  0  0  0  0  0
  145.7143  136.3014  153.3271 C   0  0  0  0  0  0  0  0  0  0  0  0
  144.4755  136.6261  153.7045 N   0  0  0  0  0  0  0  0  0  0  0  0
  143.5719  135.6846  153.3069 C   0  0  0  0  0  0  0  0  0  0  0  0
  143.8600  134.4997  152.5750 C   0  0  0  0  0  0  0  0  0  0  0  0
  142.6918  133.7902  152.3317 N   0  0  0  0  0  0  0  0  0  0  0  0
  141.7608  134.5194  152.8850 C   0  0  0  0  0  0  0  0  0  0  0  0
  142.2044  135.6613  153.5152 N   0  0  0  0  0  0  0  0  0  0  0  0
  141.4019  136.6560  154.1637 C   0  0  0  0  0  0  0  0  0  0  0  0
  139.8745  136.6078  154.0870 C   0  0  0  0  0  0  0  0  0  0  0  0
  139.8317  138.1524  154.1328 C   0  0  0  0  0  0  0  0  0  0  0  0
  138.8230  138.8171  153.1818 C   0  0  0  0  0  0  0  0  0  0  0  0
  139.0546  140.2076  153.0825 O   0  0  0  0  0  0  0  0  0  0  0  0
  139.6810  138.7640  155.5404 C   0  0  0  0  0  0  0  0  0  0  0  0
  138.3863  138.5459  156.0635 O   0  0  0  0  0  0  0  0  0  0  0  0
  141.2799  138.0742  153.6016 C   0  0  0  0  0  0  0  0  0  0  0  0
  145.5047  131.9129  152.2287 C   0  0  2  0  0  0  0  0  0  0  0  0
  146.2117  131.8710  153.6051 C   0  0  0  0  0  0  0  0  0  0  0  0
  147.1594  130.9870  151.1635 H   0  0  0  0  0  0  0  0  0  0  0  0
  144.4425  131.7080  152.3744 H   0  0  0  0  0  0  0  0  0  0  0  0
  146.3638  131.4188  157.5693 H   0  0  0  0  0  0  0  0  0  0  0  0
  144.9202  131.4866  156.5661 H   0  0  0  0  0  0  0  0  0  0  0  0
  146.2804  132.5622  156.2425 H   0  0  0  0  0  0  0  0  0  0  0  0
  147.7000  130.5689  155.5948 H   0  0  0  0  0  0  0  0  0  0  0  0
  146.3924  129.5089  156.0613 H   0  0  0  0  0  0  0  0  0  0  0  0
  147.6697  129.5579  153.2861 H   0  0  0  0  0  0  0  0  0  0  0  0
  146.4147  128.4814  153.8686 H   0  0  0  0  0  0  0  0  0  0  0  0
  146.3566  128.6623  151.3817 H   0  0  0  0  0  0  0  0  0  0  0  0
  144.8613  129.2111  152.1041 H   0  0  0  0  0  0  0  0  0  0  0  0
  146.6843  132.1900  149.1726 H   0  0  0  0  0  0  0  0  0  0  0  0
  145.1179  131.9863  148.4119 H   0  0  0  0  0  0  0  0  0  0  0  0
  145.2612  134.1475  149.7081 H   0  0  0  0  0  0  0  0  0  0  0  0
  143.9695  133.1055  150.2796 H   0  0  0  0  0  0  0  0  0  0  0  0
  146.4875  136.9991  153.6137 H   0  0  0  0  0  0  0  0  0  0  0  0
  140.7180  134.2382  152.8505 H   0  0  0  0  0  0  0  0  0  0  0  0
  141.7347  136.6797  155.2027 H   0  0  0  0  0  0  0  0  0  0  0  0
  139.5195  136.1974  153.1398 H   0  0  0  0  0  0  0  0  0  0  0  0
  139.3992  136.1050  154.9299 H   0  0  0  0  0  0  0  0  0  0  0  0
  138.9008  138.3954  152.1793 H   0  0  0  0  0  0  0  0  0  0  0  0
  137.7950  138.6497  153.5036 H   0  0  0  0  0  0  0  0  0  0  0  0
  139.5803  140.3705  152.3144 H   0  0  0  0  0  0  0  0  0  0  0  0
  140.3980  138.3301  156.2375 H   0  0  0  0  0  0  0  0  0  0  0  0
  139.8800  139.8359  155.5334 H   0  0  0  0  0  0  0  0  0  0  0  0
  138.4493  137.9203  156.7691 H   0  0  0  0  0  0  0  0  0  0  0  0
  141.9691  138.7955  154.0416 H   0  0  0  0  0  0  0  0  0  0  0  0
  141.3318  138.0993  152.5114 H   0  0  0  0  0  0  0  0  0  0  0  0
  145.7922  132.6324  154.2605 H   0  0  0  0  0  0  0  0  0  0  0  0
  147.2719  132.1038  153.4921 H   0  0  0  0  0  0  0  0  0  0  0  0
  145.0661  130.3668  154.3341 H   0  0  0  0  0  0  0  0  0  0  0  0
  1  2  1  0  0  0  0
  1 32  1  0  0  0  0
  1 33  1  0  0  0  0
  1 34  1  0  0  0  0
  2  3  1  0  0  0  0
  2 35  1  0  0  0  0
  2 36  1  0  0  0  0
  3 29  1  0  0  0  0
  3  4  1  0  0  0  0
  3 60  1  0  0  0  0
  4  5  1  0  0  0  0
  4 37  1  0  0  0  0
  4 38  1  0  0  0  0
  5  6  1  0  0  0  0
  5 39  1  0  0  0  0
  5 40  1  0  0  0  0
  6 30  1  0  0  0  0
  6 28  1  0  0  0  0
  6  7  1  0  0  0  0
  7  8  1  0  0  0  0
  8  9  1  0  0  0  0
  8 41  1  0  0  0  0
  8 42  1  0  0  0  0
  9 10  1  0  0  0  0
  9 43  1  0  0  0  0
  9 44  1  0  0  0  0
 10 11  1  0  0  0  0
 10 28  1  0  0  0  0
 11 16  1  0  0  0  0
 11 12  2  0  0  0  0
 12 13  1  0  0  0  0
 13 14  2  0  0  0  0
 13 45  1  0  0  0  0
 14 15  1  0  0  0  0
 15 19  1  0  0  0  0
 15 16  2  0  0  0  0
 16 17  1  0  0  0  0
 17 18  2  0  0  0  0
 18 19  1  0  0  0  0
 18 46  1  0  0  0  0
 19 20  1  0  0  0  0
 20 27  1  0  0  0  0
 20 21  1  0  0  0  0
 20 47  1  0  0  0  0
 21 22  1  0  0  0  0
 21 48  1  0  0  0  0
 21 49  1  0  0  0  0
 22 23  1  0  0  0  0
 22 25  1  0  0  0  0
 22 27  1  0  0  0  0
 23 24  1  0  0  0  0
 23 50  1  0  0  0  0
 23 51  1  0  0  0  0
 24 52  1  0  0  0  0
 25 26  1  0  0  0  0
 25 53  1  0  0  0  0
 25 54  1  0  0  0  0
 26 55  1  0  0  0  0
 27 56  1  0  0  0  0
 27 57  1  0  0  0  0
 28 31  1  0  0  0  0
 28 29  1  0  0  0  0
 29 58  1  0  0  0  0
 29 59  1  0  0  0  0
M  CHG  1   3   1
M  END
> <s_m_source_file>
AV-unprocessed.smi

> <i_m_source_file_index>
16

> <i_lp_mmshare_version>
43012

> <i_f3d_flags>
0

> <s_epik_input>
W0NIM11bQ0gyXU4oW0NIMl1bQ0gyXTEpW0NIMl1bQ0BASF0oW0NAQEhdMTIpTihbQ0gyXVtDSDJdTzIpYyhuW2NIXW4zKWMoYzM0KW5bY0hdbjRbQ0hdKFtDSDJdNSlbQ0gyXUM1KFtDSDJdW09IXSlbQ0gyXVtPSF0=

> <s_epik_cmdline>
J2VwaWtfcHl0aG9uJywgJy1waCcsICc3LjAnLCAnLXRuJywgJzgnLCAnLW1hJywgJzIwMCcsICctbWV0YWxfYmluZGluZycsICctaW1hZScsICc8aW5maWxlLm1hZT4nLCAnLW9tYWUnLCAnPG91dGZpbGUubWFlPic=

> <r_lp_tautomer_probability>
1

> <r_epik_Ionization_Penalty>
0.0135603

> <r_epik_Ionization_Penalty_Charging>
0.0131385

> <r_epik_Ionization_Penalty_Neutral>
0.000421734

> <r_epik_State_Penalty>
0.0102091

> <r_epik_Charging_Adjusted_Penalty>
0.0233476

> <i_epik_Tot_Q>
1

> <i_epik_Tot_abs_Q>
1

> <r_epik_Metal_State_Penalty>
0.0103746

> <b_epik_Metal_Only>
0

> <s_lp_Force_Field>
OPLS_2005

> <r_lp_Energy>
53.4104

> <b_lp_Chiralities_Consistent>
1

> <s_lp_Variant>
AV-unprocessed.smi:16-6

> <Gold.Version>
5.8.1

> <Gold.Id.Protein>
6NUR|6NUR_protein|mol2

> <Gold.PLP.Fitness>
46.8307

> <Gold.PLP.PLP>
-38.6712

> <Gold.PLP.part.hbond>
-3.0000

> <Gold.PLP.part.metal>
0.0000

> <Gold.PLP.part.buried>
-4.5948

> <Gold.PLP.part.nonpolar>
-31.8832

> <Gold.PLP.part.repulsive>
0.8129

> <Gold.PLP.ligand.clash>
0.0000

> <Gold.PLP.ligand.torsion>
0.3189

> <Gold.PLP.Chemscore.Hbond>
2.6000

> <Gold.PLP.Chemscore.CHOScore>
0.1249

> <Gold.PLP.Chemscore.Metal>
0.0000

> <Gold.Chemscore.Hbonds>
donor molecule, donor type, donor heavy atom, donor atom, acceptor molecule, acceptor atom, score
      L1  H     3    60       P1 10956  1.50
      L1  H    24    52       P1 10160  1.00
      L1  C    18    46       P1 10187  0.12

> <Gold.PLP.Chemscore.Internal.Correction>
0.6226

> <Gold.Rescore>
     Score         DG    S(hbond)    S(metal)    S(lipo)     H(rot)  DE(clash)    DE(int)     intcor
     10.13     -12.02       1.09        0.00      97.51       3.33       1.57       0.32       ----

> <Gold.Chemscore.Fitness>
10.1342

> <Gold.Chemscore.DG>
-12.0247

> <Gold.Chemscore.ZeroCoef>
-5.4800

> <Gold.Chemscore.Hbond>
1.0924

> <Gold.Chemscore.Metal>
0.0000

> <Gold.Chemscore.Lipo>
97.5058

> <Gold.Chemscore.Internal_Hbond>
0.0000

> <Gold.Chemscore.DEClash>
1.5704

> <Gold.Chemscore.DEInternal>
0.3201

> <Gold.Chemscore.Rot>
3.3251

> <Gold.Chemscore.Internal.Correction>
   9.000000E+99

> <Gold.Chemscore.Hbonds>
donor molecule, donor type, donor heavy atom, donor atom, acceptor molecule, acceptor atom, score
      L1  H     3    60       P1 10956  0.09
      L1  H    24    52       P1 10160  1.00

> <Gold.Chemscore.Hbond.Weighted>
-3.6487

> <Gold.Chemscore.Metal.Weighted>
-0.0000

> <Gold.Chemscore.Lipo.Weighted>
-11.4082

> <Gold.Chemscore.Internal_Hbond.Weighted>
0.0000

> <Gold.Chemscore.DEClash.Weighted>
1.5704

> <Gold.Chemscore.DEInternal.Weighted>
0.3201

> <Gold.Chemscore.Rot.Weighted>
8.5122

> <Gold.Chemscore.Internal.Correction.Weighted>
   9.000000E+99

> <Gold.Protein.RotatedTorsions>
[ 6907 6896 6895 6894 ] final  148.13 input  -60.11 | X-H torsion
[ 7974 7965 7964 7962 ] final  138.20 input  175.53 | X-H torsion
[ 8008 7997 7996 7995 ] final  -75.01 input   59.86 | X-H torsion
[ 10167 10162 10161 10158 ] final  -32.77 input  -65.29 | X-H torsion
[ 10718 10713 10712 10709 ] final  -52.67 input   66.30 | X-H torsion
[ 10763 10752 10751 10750 ] final  134.91 input  -60.55 | X-H torsion
[ 11005 11000 10999 10996 ] final -132.58 input  -57.11 | X-H torsion

> <Gold.Protein.ActiveResidues>
 VAL166  LYS551  ARG553  GLY616  TRP617  ASP618  TYR619  PRO620  LYS621  CYS622 
 ASP623  PHE694  ASN695  SER759  ASP760  ASP761  ALA762  ILE779  LEU786  VAL792 
 PHE793  MET794  SER795  GLU796  ALA797  LYS798  CYS799  TRP800  GLU811  SER814 

> <Gold.Protein.RotatedAtoms>
  152.1456  133.4490  159.4788 H   0  0  0  0  0  0  0  0  0  0  0  0  # atno 6907 bound_to 6896
  150.6890  134.2251  159.4421 H   0  0  0  0  0  0  0  0  0  0  0  0  # atno 6908 bound_to 6896
  152.0145  134.9857  160.0619 H   0  0  0  0  0  0  0  0  0  0  0  0  # atno 6909 bound_to 6896
  144.9395  139.4948  143.5579 H   0  0  0  0  0  0  0  0  0  0  0  0  # atno 7974 bound_to 7965
  154.5380  140.0751  156.8461 H   0  0  0  0  0  0  0  0  0  0  0  0  # atno 8008 bound_to 7997
  155.3239  140.3397  155.4222 H   0  0  0  0  0  0  0  0  0  0  0  0  # atno 8009 bound_to 7997
  156.1847  140.1664  156.8195 H   0  0  0  0  0  0  0  0  0  0  0  0  # atno 8010 bound_to 7997
  140.7216  143.3670  151.1852 H   0  0  0  0  0  0  0  0  0  0  0  0  # atno 10167 bound_to 10162
  156.1601  130.4150  149.9806 H   0  0  0  0  0  0  0  0  0  0  0  0  # atno 10718 bound_to 10713
  153.8313  135.3103  155.3419 H   0  0  0  0  0  0  0  0  0  0  0  0  # atno 10763 bound_to 10752
  154.7972  135.4748  154.0191 H   0  0  0  0  0  0  0  0  0  0  0  0  # atno 10764 bound_to 10752
  153.1632  135.6864  153.8803 H   0  0  0  0  0  0  0  0  0  0  0  0  # atno 10765 bound_to 10752
  140.9157  134.1510  157.4354 H   0  0  0  0  0  0  0  0  0  0  0  0  # atno 11005 bound_to 11000
  146.3280  139.8403  142.8891 LP  0  0  0  0  0  0  0  0  0  0  0  0  # atno 17320 bound_to 7965
  145.3014  141.0195  143.3606 LP  0  0  0  0  0  0  0  0  0  0  0  0  # atno 17321 bound_to 7965
  139.7233  143.9188  152.2993 LP  0  0  0  0  0  0  0  0  0  0  0  0  # atno 17342 bound_to 10162
  139.8952  144.6943  150.8726 LP  0  0  0  0  0  0  0  0  0  0  0  0  # atno 17343 bound_to 10162
  156.7638  130.9161  151.3642 LP  0  0  0  0  0  0  0  0  0  0  0  0  # atno 17370 bound_to 10713
  157.6726  130.9065  150.0075 LP  0  0  0  0  0  0  0  0  0  0  0  0  # atno 17371 bound_to 10713
  139.8765  134.9952  156.5735 LP  0  0  0  0  0  0  0  0  0  0  0  0  # atno 17394 bound_to 11000
  140.8053  133.8473  155.8762 LP  0  0  0  0  0  0  0  0  0  0  0  0  # atno 17395 bound_to 11000

$$$$
