AV-unprocessed.smi:249|AV-procd|sdf|1900|dock6
  -GOLD-   2262020573D 1   1.00000     0.00000
 Structure written by MMmdl.
 64 67  0  0  0  0  0  0  0  0  2 V2000
  145.1364  134.0517  152.4018 C   0  0  0  0  0  0  0  0  0  0  0  0
  146.6716  134.0233  152.4789 C   0  0  0  0  0  0  0  0  0  0  0  0
  147.1981  133.8400  153.8628 N   0  3  2  0  0  0  0  0  0  0  0  0
  146.7964  134.9615  154.7605 C   0  0  0  0  0  0  0  0  0  0  0  0
  147.2679  134.7484  156.2080 C   0  0  0  0  0  0  0  0  0  0  0  0
  148.7984  134.5772  156.2854 C   0  0  2  0  0  0  0  0  0  0  0  0
  149.5472  135.7955  155.9349 N   0  0  0  0  0  0  0  0  0  0  0  0
  150.8666  135.6199  155.3351 C   0  0  0  0  0  0  0  0  0  0  0  0
  149.5949  136.7326  156.9083 C   0  0  0  0  0  0  0  0  0  0  0  0
  149.0178  136.4270  158.0961 N   0  0  0  0  0  0  0  0  0  0  0  0
  149.0401  137.3149  159.0952 C   0  0  0  0  0  0  0  0  0  0  0  0
  149.5727  138.5389  159.1131 N   0  0  0  0  0  0  0  0  0  0  0  0
  150.1490  138.8488  157.9164 C   0  0  0  0  0  0  0  0  0  0  0  0
  150.2064  138.0101  156.7685 C   0  0  0  0  0  0  0  0  0  0  0  0
  150.8714  138.6600  155.7361 N   0  0  0  0  0  0  0  0  0  0  0  0
  151.1858  139.8209  156.2434 C   0  0  0  0  0  0  0  0  0  0  0  0
  150.7956  140.0159  157.5489 N   0  0  0  0  0  0  0  0  0  0  0  0
  151.0147  141.2095  158.3474 C   0  0  0  0  0  0  0  0  0  0  0  0
  152.5111  141.5814  158.4922 C   0  0  2  0  0  0  0  0  0  0  0  0
  153.2901  140.5855  159.3858 C   0  0  0  0  0  0  0  0  0  0  0  0
  153.7332  139.4657  158.6469 O   0  0  0  0  0  0  0  0  0  0  0  0
  152.6940  143.0498  158.9533 C   0  0  2  0  0  0  0  0  0  0  0  0
  152.0143  143.3967  160.2663 C   0  0  0  0  0  0  0  0  0  0  0  0
  151.9664  144.9186  160.2072 C   0  0  0  0  0  0  0  0  0  0  0  0
  151.7832  145.2373  158.8331 O   0  0  0  0  0  0  0  0  0  0  0  0
  152.0651  144.0969  158.0269 C   0  0  0  0  0  0  0  0  0  0  0  0
  149.1493  133.3862  155.3743 C   0  0  0  0  0  0  0  0  0  0  0  0
  148.6752  133.5847  153.9157 C   0  0  1  0  0  0  0  0  0  0  0  0
  149.1070  132.3553  153.0892 C   0  0  0  0  0  0  0  0  0  0  0  0
  144.8087  134.0209  151.3622 H   0  0  0  0  0  0  0  0  0  0  0  0
  144.7155  134.9582  152.8358 H   0  0  0  0  0  0  0  0  0  0  0  0
  144.6979  133.1921  152.9094 H   0  0  0  0  0  0  0  0  0  0  0  0
  146.9838  133.1974  151.8440 H   0  0  0  0  0  0  0  0  0  0  0  0
  147.0902  134.9295  152.0389 H   0  0  0  0  0  0  0  0  0  0  0  0
  147.1890  135.9003  154.3675 H   0  0  0  0  0  0  0  0  0  0  0  0
  145.7126  135.0620  154.7833 H   0  0  0  0  0  0  0  0  0  0  0  0
  146.9233  135.5671  156.8402 H   0  0  0  0  0  0  0  0  0  0  0  0
  146.7870  133.8550  156.6087 H   0  0  0  0  0  0  0  0  0  0  0  0
  149.0652  134.3100  157.3085 H   0  0  0  0  0  0  0  0  0  0  0  0
  151.4586  136.5363  155.3719 H   0  0  0  0  0  0  0  0  0  0  0  0
  150.7690  135.3415  154.2858 H   0  0  0  0  0  0  0  0  0  0  0  0
  151.4240  134.8349  155.8475 H   0  0  0  0  0  0  0  0  0  0  0  0
  148.5618  137.0013  160.0113 H   0  0  0  0  0  0  0  0  0  0  0  0
  151.7167  140.5723  155.6769 H   0  0  0  0  0  0  0  0  0  0  0  0
  150.4618  142.0217  157.8751 H   0  0  0  0  0  0  0  0  0  0  0  0
  150.5642  141.0629  159.3297 H   0  0  0  0  0  0  0  0  0  0  0  0
  152.9499  141.5039  157.4963 H   0  0  0  0  0  0  0  0  0  0  0  0
  154.1538  141.0644  159.8474 H   0  0  0  0  0  0  0  0  0  0  0  0
  152.6678  140.2348  160.2088 H   0  0  0  0  0  0  0  0  0  0  0  0
  152.9900  139.0804  158.2087 H   0  0  0  0  0  0  0  0  0  0  0  0
  153.7578  143.2716  159.0542 H   0  0  0  0  0  0  0  0  0  0  0  0
  151.0020  142.9908  160.2929 H   0  0  0  0  0  0  0  0  0  0  0  0
  152.5536  143.0327  161.1412 H   0  0  0  0  0  0  0  0  0  0  0  0
  151.1728  145.3377  160.8259 H   0  0  0  0  0  0  0  0  0  0  0  0
  152.9154  145.3416  160.5387 H   0  0  0  0  0  0  0  0  0  0  0  0
  152.7186  144.3600  157.1946 H   0  0  0  0  0  0  0  0  0  0  0  0
  151.1231  143.7343  157.6132 H   0  0  0  0  0  0  0  0  0  0  0  0
  150.2209  133.1880  155.4030 H   0  0  0  0  0  0  0  0  0  0  0  0
  148.6836  132.4861  155.7786 H   0  0  0  0  0  0  0  0  0  0  0  0
  149.1821  134.4591  153.5040 H   0  0  0  0  0  0  0  0  0  0  0  0
  150.1526  132.1089  153.2764 H   0  0  0  0  0  0  0  0  0  0  0  0
  149.0290  132.5255  152.0161 H   0  0  0  0  0  0  0  0  0  0  0  0
  148.5142  131.4755  153.3423 H   0  0  0  0  0  0  0  0  0  0  0  0
  146.7575  133.0077  154.2281 H   0  0  0  0  0  0  0  0  0  0  0  0
  1  2  1  0  0  0  0
  1 30  1  0  0  0  0
  1 31  1  0  0  0  0
  1 32  1  0  0  0  0
  2  3  1  0  0  0  0
  2 33  1  0  0  0  0
  2 34  1  0  0  0  0
  3 28  1  0  0  0  0
  3  4  1  0  0  0  0
  3 64  1  0  0  0  0
  4  5  1  0  0  0  0
  4 35  1  0  0  0  0
  4 36  1  0  0  0  0
  5  6  1  0  0  0  0
  5 37  1  0  0  0  0
  5 38  1  0  0  0  0
  6  7  1  0  0  0  0
  6 27  1  0  0  0  0
  6 39  1  0  0  0  0
  7  8  1  0  0  0  0
  7  9  1  0  0  0  0
  8 40  1  0  0  0  0
  8 41  1  0  0  0  0
  8 42  1  0  0  0  0
  9 14  1  0  0  0  0
  9 10  2  0  0  0  0
 10 11  1  0  0  0  0
 11 12  2  0  0  0  0
 11 43  1  0  0  0  0
 12 13  1  0  0  0  0
 13 17  1  0  0  0  0
 13 14  2  0  0  0  0
 14 15  1  0  0  0  0
 15 16  2  0  0  0  0
 16 17  1  0  0  0  0
 16 44  1  0  0  0  0
 17 18  1  0  0  0  0
 18 19  1  0  0  0  0
 18 45  1  0  0  0  0
 18 46  1  0  0  0  0
 19 20  1  0  0  0  0
 19 22  1  0  0  0  0
 19 47  1  0  0  0  0
 20 21  1  0  0  0  0
 20 48  1  0  0  0  0
 20 49  1  0  0  0  0
 21 50  1  0  0  0  0
 22 26  1  0  0  0  0
 22 23  1  0  0  0  0
 22 51  1  0  0  0  0
 23 24  1  0  0  0  0
 23 52  1  0  0  0  0
 23 53  1  0  0  0  0
 24 25  1  0  0  0  0
 24 54  1  0  0  0  0
 24 55  1  0  0  0  0
 25 26  1  0  0  0  0
 26 56  1  0  0  0  0
 26 57  1  0  0  0  0
 27 28  1  0  0  0  0
 27 58  1  0  0  0  0
 27 59  1  0  0  0  0
 28 29  1  0  0  0  0
 28 60  1  0  0  0  0
 29 61  1  0  0  0  0
 29 62  1  0  0  0  0
 29 63  1  0  0  0  0
M  CHG  1   3   1
M  END
> <s_m_source_file>
AV-unprocessed.smi

> <i_m_source_file_index>
249

> <i_lp_mmshare_version>
43012

> <i_f3d_flags>
0

> <s_epik_input>
W0NIM11bQ0gyXU4xW0NIMl1bQ0gyXVtDQEhdKFtDSDJdW0NASF0xW0NIM10pTihbQ0gzXSljKG5bY0hdbjIpYyhjMjMpbltjSF1uM1tDSDJdW0NASF0oW0NIMl1bT0hdKVtDQEBIXTRbQ0gyXVtDSDJdT1tDSDJdNA==

> <s_epik_cmdline>
J2VwaWtfcHl0aG9uJywgJy1waCcsICc3LjAnLCAnLXRuJywgJzgnLCAnLW1hJywgJzIwMCcsICctbWV0YWxfYmluZGluZycsICctaW1hZScsICc8aW5maWxlLm1hZT4nLCAnLW9tYWUnLCAnPG91dGZpbGUubWFlPic=

> <r_lp_tautomer_probability>
1

> <r_epik_Ionization_Penalty>
0.00294688

> <r_epik_Ionization_Penalty_Charging>
0.00169971

> <r_epik_Ionization_Penalty_Neutral>
0.00124717

> <r_epik_State_Penalty>
-0

> <r_epik_Charging_Adjusted_Penalty>
0.00169971

> <i_epik_Tot_Q>
1

> <i_epik_Tot_abs_Q>
1

> <r_epik_Metal_State_Penalty>
-0

> <b_epik_Metal_Only>
0

> <s_lp_Force_Field>
OPLS_2005

> <r_lp_Energy>
57.7525

> <b_lp_Chiralities_Consistent>
1

> <s_lp_Variant>
AV-unprocessed.smi:249-3

> <Gold.Version>
5.8.1

> <Gold.Id.Protein>
6NUR|6NUR_protein|mol2

> <Gold.PLP.Fitness>
41.2205

> <Gold.PLP.PLP>
-40.1363

> <Gold.PLP.part.hbond>
-2.8477

> <Gold.PLP.part.metal>
0.0000

> <Gold.PLP.part.buried>
-4.9771

> <Gold.PLP.part.nonpolar>
-32.8018

> <Gold.PLP.part.repulsive>
0.1381

> <Gold.PLP.ligand.clash>
0.0000

> <Gold.PLP.ligand.torsion>
1.1923

> <Gold.PLP.Chemscore.Hbond>
0.9440

> <Gold.PLP.Chemscore.CHOScore>
0.0000

> <Gold.PLP.Chemscore.Metal>
0.0000

> <Gold.Chemscore.Hbonds>
donor molecule, donor type, donor heavy atom, donor atom, acceptor molecule, acceptor atom, score
      P1  H  7997  8008       L1    21  0.96

> <Gold.PLP.Chemscore.Internal.Correction>
0.6368

> <Gold.Rescore>
     Score         DG    S(hbond)    S(metal)    S(lipo)     H(rot)  DE(clash)    DE(int)     intcor
     11.55     -12.99       0.72        0.00     107.05       2.90       0.12       1.32       ----

> <Gold.Chemscore.Fitness>
11.5485

> <Gold.Chemscore.DG>
-12.9857

> <Gold.Chemscore.ZeroCoef>
-5.4800

> <Gold.Chemscore.Hbond>
0.7206

> <Gold.Chemscore.Metal>
0.0000

> <Gold.Chemscore.Lipo>
107.0488

> <Gold.Chemscore.Internal_Hbond>
0.0000

> <Gold.Chemscore.DEClash>
0.1173

> <Gold.Chemscore.DEInternal>
1.3200

> <Gold.Chemscore.Rot>
2.9006

> <Gold.Chemscore.Internal.Correction>
   9.000000E+99

> <Gold.Chemscore.Hbonds>
donor molecule, donor type, donor heavy atom, donor atom, acceptor molecule, acceptor atom, score
      P1  H  7997  8008       L1    21  0.50

> <Gold.Chemscore.Hbond.Weighted>
-2.4067

> <Gold.Chemscore.Metal.Weighted>
-0.0000

> <Gold.Chemscore.Lipo.Weighted>
-12.5247

> <Gold.Chemscore.Internal_Hbond.Weighted>
0.0000

> <Gold.Chemscore.DEClash.Weighted>
0.1173

> <Gold.Chemscore.DEInternal.Weighted>
1.3200

> <Gold.Chemscore.Rot.Weighted>
7.4256

> <Gold.Chemscore.Internal.Correction.Weighted>
   9.000000E+99

> <Gold.Protein.RotatedTorsions>
[ 6907 6896 6895 6894 ] final -152.73 input  -60.11 | X-H torsion
[ 7974 7965 7964 7962 ] final -110.67 input  175.53 | X-H torsion
[ 8008 7997 7996 7995 ] final -120.33 input   59.86 | X-H torsion
[ 10167 10162 10161 10158 ] final   71.59 input  -65.29 | X-H torsion
[ 10718 10713 10712 10709 ] final   49.56 input   66.30 | X-H torsion
[ 10763 10752 10751 10750 ] final  -49.64 input  -60.55 | X-H torsion
[ 11005 11000 10999 10996 ] final    1.36 input  -57.11 | X-H torsion

> <Gold.Protein.ActiveResidues>
 VAL166  LYS551  ARG553  GLY616  TRP617  ASP618  TYR619  PRO620  LYS621  CYS622 
 ASP623  PHE694  ASN695  SER759  ASP760  ASP761  ALA762  ILE779  LEU786  VAL792 
 PHE793  MET794  SER795  GLU796  ALA797  LYS798  CYS799  TRP800  GLU811  SER814 

> <Gold.Protein.RotatedAtoms>
  151.2321  133.4445  159.2603 H   0  0  0  0  0  0  0  0  0  0  0  0  # atno 6907 bound_to 6896
  151.0785  134.9843  159.8354 H   0  0  0  0  0  0  0  0  0  0  0  0  # atno 6908 bound_to 6896
  152.5421  134.2262  159.8859 H   0  0  0  0  0  0  0  0  0  0  0  0  # atno 6909 bound_to 6896
  145.1654  140.8899  143.3566 H   0  0  0  0  0  0  0  0  0  0  0  0  # atno 7974 bound_to 7965
  155.1301  140.0400  157.2772 H   0  0  0  0  0  0  0  0  0  0  0  0  # atno 8008 bound_to 7997
  154.6549  140.2577  155.7146 H   0  0  0  0  0  0  0  0  0  0  0  0  # atno 8009 bound_to 7997
  156.2594  140.2829  156.0998 H   0  0  0  0  0  0  0  0  0  0  0  0  # atno 8010 bound_to 7997
  140.0445  144.5363  150.7409 H   0  0  0  0  0  0  0  0  0  0  0  0  # atno 10167 bound_to 10162
  157.4798  130.8308  149.8081 H   0  0  0  0  0  0  0  0  0  0  0  0  # atno 10718 bound_to 10713
  154.0975  135.6568  153.4862 H   0  0  0  0  0  0  0  0  0  0  0  0  # atno 10763 bound_to 10752
  153.0300  135.5217  154.7320 H   0  0  0  0  0  0  0  0  0  0  0  0  # atno 10764 bound_to 10752
  154.6462  135.2995  155.0012 H   0  0  0  0  0  0  0  0  0  0  0  0  # atno 10765 bound_to 10752
  140.6163  133.9702  155.8202 H   0  0  0  0  0  0  0  0  0  0  0  0  # atno 11005 bound_to 11000
  145.0287  139.3360  143.6035 LP  0  0  0  0  0  0  0  0  0  0  0  0  # atno 17320 bound_to 7965
  146.3476  139.9616  142.8716 LP  0  0  0  0  0  0  0  0  0  0  0  0  # atno 17321 bound_to 7965
  140.7245  143.2622  151.4167 LP  0  0  0  0  0  0  0  0  0  0  0  0  # atno 17342 bound_to 10162
  139.5993  144.1331  152.2179 LP  0  0  0  0  0  0  0  0  0  0  0  0  # atno 17343 bound_to 10162
  156.0116  130.3831  150.2247 LP  0  0  0  0  0  0  0  0  0  0  0  0  # atno 17370 bound_to 10713
  157.0433  131.0041  151.3277 LP  0  0  0  0  0  0  0  0  0  0  0  0  # atno 17371 bound_to 10713
  141.0773  134.0115  157.3438 LP  0  0  0  0  0  0  0  0  0  0  0  0  # atno 17394 bound_to 11000
  139.9171  135.0198  156.7925 LP  0  0  0  0  0  0  0  0  0  0  0  0  # atno 17395 bound_to 11000

$$$$
