AV-unprocessed.smi:686|AV-procd|sdf|3348|dock5
  -GOLD-   22720 0323D 1   1.00000     0.00000
 Structure written by MMmdl.
 40 41  0  0  0  0  0  0  0  0  3 V2000
  149.3329  141.0805  156.2827 C   0  0  0  0  0  0  0  0  0  0  0  0
  150.6774  141.0059  157.0364 C   0  0  1  0  0  0  0  0  0  0  0  0
  150.9356  142.1639  158.0155 C   0  0  0  0  0  0  0  0  0  0  0  0
  151.7494  141.6106  159.1288 N   0  3  2  0  0  0  0  0  0  0  0  0
  152.8732  142.4732  159.5907 C   0  0  0  0  0  0  0  0  0  0  0  0
  153.6847  141.8018  160.7154 C   0  0  0  0  0  0  0  0  0  0  0  0
  152.3552  143.8398  160.0769 C   0  0  0  0  0  0  0  0  0  0  0  0
  152.1094  140.2230  158.7525 C   0  0  0  0  0  0  0  0  0  0  0  0
  150.9697  139.7343  157.8524 C   0  0  1  0  0  0  0  0  0  0  0  0
  149.8184  139.3529  158.6702 N   0  5  0  0  0  0  0  0  0  0  0  0
  149.3110  137.8094  158.7607 S   0  0  0  0  0  0  0  0  0  0  0  0
  150.4024  136.8333  158.9214 O   0  0  0  0  0  0  0  0  0  0  0  0
  148.1783  137.6857  159.6906 O   0  0  0  0  0  0  0  0  0  0  0  0
  148.5989  137.5331  157.0753 C   0  0  0  0  0  0  0  0  0  0  0  0
  149.6967  137.5312  156.0488 C   0  0  0  0  0  0  0  0  0  0  0  0
  149.8651  138.3935  154.9300 C   0  0  0  0  0  0  0  0  0  0  0  0
  151.0181  137.9464  154.3527 C   0  0  0  0  0  0  0  0  0  0  0  0
  151.5284  136.9043  155.0557 O   0  0  0  0  0  0  0  0  0  0  0  0
  150.6797  136.6485  156.1386 N   0  0  0  0  0  0  0  0  0  0  0  0
  148.4768  141.0872  156.9593 H   0  0  0  0  0  0  0  0  0  0  0  0
  149.2078  140.2447  155.5923 H   0  0  0  0  0  0  0  0  0  0  0  0
  149.2796  141.9956  155.6925 H   0  0  0  0  0  0  0  0  0  0  0  0
  151.4601  141.0608  156.2776 H   0  0  0  0  0  0  0  0  0  0  0  0
  151.4416  142.9805  157.4982 H   0  0  0  0  0  0  0  0  0  0  0  0
  150.0069  142.5619  158.4282 H   0  0  0  0  0  0  0  0  0  0  0  0
  153.5423  142.6383  158.7448 H   0  0  0  0  0  0  0  0  0  0  0  0
  154.4695  142.4655  161.0800 H   0  0  0  0  0  0  0  0  0  0  0  0
  154.1774  140.8902  160.3770 H   0  0  0  0  0  0  0  0  0  0  0  0
  153.0495  141.5451  161.5638 H   0  0  0  0  0  0  0  0  0  0  0  0
  153.1757  144.4646  160.4309 H   0  0  0  0  0  0  0  0  0  0  0  0
  151.6501  143.7242  160.9008 H   0  0  0  0  0  0  0  0  0  0  0  0
  151.8525  144.3958  159.2856 H   0  0  0  0  0  0  0  0  0  0  0  0
  153.0399  140.2317  158.1824 H   0  0  0  0  0  0  0  0  0  0  0  0
  152.2657  139.5936  159.6292 H   0  0  0  0  0  0  0  0  0  0  0  0
  151.2993  138.9256  157.1997 H   0  0  0  0  0  0  0  0  0  0  0  0
  148.0704  136.5801  157.0801 H   0  0  0  0  0  0  0  0  0  0  0  0
  147.8695  138.3155  156.8667 H   0  0  0  0  0  0  0  0  0  0  0  0
  149.2338  139.2051  154.6002 H   0  0  0  0  0  0  0  0  0  0  0  0
  151.5786  138.2516  153.4816 H   0  0  0  0  0  0  0  0  0  0  0  0
  151.1117  141.5125  159.9063 H   0  0  0  0  0  0  0  0  0  0  0  0
  1  2  1  0  0  0  0
  1 20  1  0  0  0  0
  1 21  1  0  0  0  0
  1 22  1  0  0  0  0
  2  9  1  0  0  0  0
  2  3  1  0  0  0  0
  2 23  1  0  0  0  0
  3  4  1  0  0  0  0
  3 24  1  0  0  0  0
  3 25  1  0  0  0  0
  4  5  1  0  0  0  0
  4  8  1  0  0  0  0
  4 40  1  0  0  0  0
  5  6  1  0  0  0  0
  5  7  1  0  0  0  0
  5 26  1  0  0  0  0
  6 27  1  0  0  0  0
  6 28  1  0  0  0  0
  6 29  1  0  0  0  0
  7 30  1  0  0  0  0
  7 31  1  0  0  0  0
  7 32  1  0  0  0  0
  8  9  1  0  0  0  0
  8 33  1  0  0  0  0
  8 34  1  0  0  0  0
  9 10  1  0  0  0  0
  9 35  1  0  0  0  0
 10 11  1  0  0  0  0
 11 12  2  0  0  0  0
 11 13  2  0  0  0  0
 11 14  1  0  0  0  0
 14 15  1  0  0  0  0
 14 36  1  0  0  0  0
 14 37  1  0  0  0  0
 15 19  2  0  0  0  0
 15 16  1  0  0  0  0
 16 17  2  0  0  0  0
 16 38  1  0  0  0  0
 17 18  1  0  0  0  0
 17 39  1  0  0  0  0
 18 19  1  0  0  0  0
M  CHG  1   4   1
M  CHG  1  10  -1
M  END
> <s_m_source_file>
AV-unprocessed.smi

> <i_m_source_file_index>
686

> <i_lp_mmshare_version>
43012

> <i_f3d_flags>
0

> <s_epik_input>
W0NIM11bQ0BASF0xW0NIMl1OKFtDSF0oW0NIM10pW0NIM10pW0NIMl1bQ0BIXTFbTkhdUyg9TykoPU8pW0NIMl1jMltjSF1bY0hdb24y

> <s_epik_cmdline>
J2VwaWtfcHl0aG9uJywgJy1waCcsICc3LjAnLCAnLXRuJywgJzgnLCAnLW1hJywgJzIwMCcsICctbWV0YWxfYmluZGluZycsICctaW1hZScsICc8aW5maWxlLm1hZT4nLCAnLW9tYWUnLCAnPG91dGZpbGUubWFlPic=

> <r_epik_Ionization_Penalty>
3.62478

> <r_epik_Ionization_Penalty_Charging>
3.62478

> <r_epik_Ionization_Penalty_Neutral>
2.03645e-10

> <r_epik_State_Penalty>
3.6247

> <r_epik_Charging_Adjusted_Penalty>
7.24949

> <i_epik_Tot_Q>
0

> <i_epik_Tot_abs_Q>
2

> <r_epik_Metal_State_Penalty>
0.530836

> <b_epik_Metal_Only>
1

> <s_lp_Force_Field>
OPLS_2005

> <r_lp_Energy>
18.5921

> <b_lp_Chiralities_Consistent>
1

> <s_lp_Variant>
AV-unprocessed.smi:686-12

> <Gold.Version>
5.8.1

> <Gold.Id.Protein>
6NUR|6NUR_protein|mol2

> <Gold.PLP.Fitness>
38.6101

> <Gold.PLP.PLP>
-32.0967

> <Gold.PLP.part.hbond>
-4.2129

> <Gold.PLP.part.metal>
0.0000

> <Gold.PLP.part.buried>
-5.3465

> <Gold.PLP.part.nonpolar>
-23.6670

> <Gold.PLP.part.repulsive>
0.2143

> <Gold.PLP.ligand.clash>
0.0000

> <Gold.PLP.ligand.torsion>
0.7345

> <Gold.PLP.Chemscore.Hbond>
2.2917

> <Gold.PLP.Chemscore.CHOScore>
0.0000

> <Gold.PLP.Chemscore.Metal>
0.0000

> <Gold.Chemscore.Hbonds>
donor molecule, donor type, donor heavy atom, donor atom, acceptor molecule, acceptor atom, score
      P1  H  6896  6907       L1    12  0.83
      P1  H  6931  6943       L1    13  0.01
      P1  H  6934  6947       L1    13  0.44
      P1  H 10752 10763       L1    18  1.00

> <Gold.PLP.Chemscore.Internal.Correction>
1.1072

> <Gold.Rescore>
     Score         DG    S(hbond)    S(metal)    S(lipo)     H(rot)  DE(clash)    DE(int)     intcor
     16.38     -18.71       2.47        0.00      77.97       1.61       0.04       2.30       ----

> <Gold.Chemscore.Fitness>
16.3765

> <Gold.Chemscore.DG>
-18.7123

> <Gold.Chemscore.ZeroCoef>
-5.4800

> <Gold.Chemscore.Hbond>
2.4683

> <Gold.Chemscore.Metal>
0.0000

> <Gold.Chemscore.Lipo>
77.9672

> <Gold.Chemscore.Internal_Hbond>
0.0000

> <Gold.Chemscore.DEClash>
0.0361

> <Gold.Chemscore.DEInternal>
2.2997

> <Gold.Chemscore.Rot>
1.6149

> <Gold.Chemscore.Internal.Correction>
   9.000000E+99

> <Gold.Chemscore.Hbonds>
donor molecule, donor type, donor heavy atom, donor atom, acceptor molecule, acceptor atom, score
      P1  H  6896  6907       L1    12  0.80
      P1  H  6931  6943       L1    13  0.02
      P1  H  6934  6947       L1    13  0.41
      P1  H 10752 10763       L1    18  0.88

> <Gold.Chemscore.Hbond.Weighted>
-8.2443

> <Gold.Chemscore.Metal.Weighted>
-0.0000

> <Gold.Chemscore.Lipo.Weighted>
-9.1222

> <Gold.Chemscore.Internal_Hbond.Weighted>
0.0000

> <Gold.Chemscore.DEClash.Weighted>
0.0361

> <Gold.Chemscore.DEInternal.Weighted>
2.2997

> <Gold.Chemscore.Rot.Weighted>
4.1341

> <Gold.Chemscore.Internal.Correction.Weighted>
   9.000000E+99

> <Gold.Protein.RotatedTorsions>
[ 6907 6896 6895 6894 ] final  -31.18 input  -60.11 | X-H torsion
[ 7974 7965 7964 7962 ] final  -39.47 input  175.53 | X-H torsion
[ 8008 7997 7996 7995 ] final    8.73 input   59.86 | X-H torsion
[ 10167 10162 10161 10158 ] final -108.02 input  -65.29 | X-H torsion
[ 10718 10713 10712 10709 ] final  103.96 input   66.30 | X-H torsion
[ 10763 10752 10751 10750 ] final   69.92 input  -60.55 | X-H torsion
[ 11005 11000 10999 10996 ] final -127.95 input  -57.11 | X-H torsion

> <Gold.Protein.ActiveResidues>
 VAL166  LYS551  ARG553  GLY616  TRP617  ASP618  TYR619  PRO620  LYS621  CYS622 
 ASP623  PHE694  ASN695  SER759  ASP760  ASP761  ALA762  ILE779  LEU786  VAL792 
 PHE793  MET794  SER795  GLU796  ALA797  LYS798  CYS799  TRP800  GLU811  SER814 

> <Gold.Protein.RotatedAtoms>
  151.0955  134.9941  159.8423 H   0  0  0  0  0  0  0  0  0  0  0  0  # atno 6907 bound_to 6896
  152.5433  134.2013  159.8723 H   0  0  0  0  0  0  0  0  0  0  0  0  # atno 6908 bound_to 6896
  151.2053  133.4543  159.2630 H   0  0  0  0  0  0  0  0  0  0  0  0  # atno 6909 bound_to 6896
  146.0393  140.6629  142.9095 H   0  0  0  0  0  0  0  0  0  0  0  0  # atno 7974 bound_to 7965
  154.7707  140.2801  155.6140 H   0  0  0  0  0  0  0  0  0  0  0  0  # atno 8008 bound_to 7997
  156.2933  140.2642  156.2437 H   0  0  0  0  0  0  0  0  0  0  0  0  # atno 8009 bound_to 7997
  154.9903  140.0374  157.2306 H   0  0  0  0  0  0  0  0  0  0  0  0  # atno 8010 bound_to 7997
  140.1707  143.4045  152.1357 H   0  0  0  0  0  0  0  0  0  0  0  0  # atno 10167 bound_to 10162
  157.6756  131.0792  150.5634 H   0  0  0  0  0  0  0  0  0  0  0  0  # atno 10718 bound_to 10713
  153.0313  135.5193  154.7362 H   0  0  0  0  0  0  0  0  0  0  0  0  # atno 10763 bound_to 10752
  154.6375  135.2908  155.0146 H   0  0  0  0  0  0  0  0  0  0  0  0  # atno 10764 bound_to 10752
  154.1076  135.6627  153.4931 H   0  0  0  0  0  0  0  0  0  0  0  0  # atno 10765 bound_to 10752
  140.9557  134.1005  157.4019 H   0  0  0  0  0  0  0  0  0  0  0  0  # atno 11005 bound_to 11000
  144.7067  140.3879  143.7113 LP  0  0  0  0  0  0  0  0  0  0  0  0  # atno 17320 bound_to 7965
  145.6911  139.1639  143.2646 LP  0  0  0  0  0  0  0  0  0  0  0  0  # atno 17321 bound_to 7965
  139.5339  144.7189  151.4959 LP  0  0  0  0  0  0  0  0  0  0  0  0  # atno 17342 bound_to 10162
  140.6584  143.8551  150.6860 LP  0  0  0  0  0  0  0  0  0  0  0  0  # atno 17343 bound_to 10162
  156.5936  130.4336  149.5926 LP  0  0  0  0  0  0  0  0  0  0  0  0  # atno 17370 bound_to 10713
  156.2563  130.6936  151.1691 LP  0  0  0  0  0  0  0  0  0  0  0  0  # atno 17371 bound_to 10713
  139.8861  135.0079  156.6479 LP  0  0  0  0  0  0  0  0  0  0  0  0  # atno 17394 bound_to 11000
  140.7539  133.8874  155.8368 LP  0  0  0  0  0  0  0  0  0  0  0  0  # atno 17395 bound_to 11000

$$$$
