#       Name:                AV-unprocessed.smi:255
#       Creating user name   scv26
#       Creation time:       Thu Mar 26 21:08:48 2020


#       File generated by GOLD software.
#

@<TRIPOS>MOLECULE
AV-unprocessed.smi:255
    54    57     1
SMALL
NO_CHARGES


@<TRIPOS>ATOM
      1 ****        -3.3772  -1.2188  -2.8788 O.3            1 S1                 0.0000
      2 ****        -2.8565  -0.6758  -1.6847 C.3            1 S1                 0.0000
      3 ****        -2.9877   0.8583  -1.6969 C.3            1 S1                 0.0000
      4 ****        -4.4296   1.3674  -1.6831 C.3            1 S1                 0.0000
      5 ****        -4.2595   2.8150  -1.2248 C.3            1 S1                 0.0000
      6 ****        -4.0140   3.5904  -2.2818 F              1 S1                 0.0000
      7 ****        -3.0157   2.7844  -0.3249 C.3            1 S1                 0.0000
      8 ****        -2.3916   1.4790  -0.5200 N.3            1 S1                 0.0000
      9 ****        -1.0418   1.4781  -0.4660 C.ar           1 S1                 0.0000
     10 ****        -0.3163   2.1226  -1.4172 N.ar           1 S1                 0.0000
     11 ****         1.0187   2.1178  -1.3519 C.ar           1 S1                 0.0000
     12 ****         1.8086   1.5404  -0.4433 N.ar           1 S1                 0.0000
     13 ****         1.0796   0.8842   0.5055 C.ar           1 S1                 0.0000
     14 ****        -0.3394   0.8113   0.5702 C.ar           1 S1                 0.0000
     15 ****        -0.7320   0.0764   1.6804 N.2            1 S1                 0.0000
     16 ****         0.3943  -0.2625   2.2456 C.2            1 S1                 0.0000
     17 ****         1.5336   0.1604   1.5957 N.pl3          1 S1                 0.0000
     18 ****         2.9106  -0.0706   2.0097 C.3            1 S1                 0.0000
     19 ****         3.5358  -1.4006   1.5128 C.3            1 S1                 0.0000
     20 ****         4.8703  -1.4187   1.9863 O.3            1 S1                 0.0000
     21 ****         2.8472  -2.6730   2.0078 C.3            1 S1                 0.0000
     22 ****         3.1135  -3.6648   0.8838 C.3            1 S1                 0.0000
     23 ****         2.9619  -2.8606  -0.2723 O.3            1 S1                 0.0000
     24 ****         3.5687  -1.5982  -0.0193 C.3            1 S1                 0.0000
     25 ****        -2.4923   1.2483  -2.5882 H              1 S1                 0.0000
     26 ****        -5.1421   3.2135  -0.7241 H              1 S1                 0.0000
     27 ****        -4.2930  -0.9940  -2.9360 H              1 S1                 0.0000
     28 ****        -3.3791  -1.1067  -0.8302 H              1 S1                 0.0000
     29 ****        -1.8104  -0.9736  -1.6062 H              1 S1                 0.0000
     30 ****        -4.9261   1.2795  -2.6500 H              1 S1                 0.0000
     31 ****        -5.0180   0.8154  -0.9485 H              1 S1                 0.0000
     32 ****        -2.3443   3.6166  -0.5433 H              1 S1                 0.0000
     33 ****        -3.3070   2.8668   0.7227 H              1 S1                 0.0000
     34 ****         1.5268   2.6527  -2.1406 H              1 S1                 0.0000
     35 ****         0.4238  -0.8380   3.1595 H              1 S1                 0.0000
     36 ****         3.5107   0.7719   1.6627 H              1 S1                 0.0000
     37 ****         2.9410  -0.0321   3.0995 H              1 S1                 0.0000
     38 ****         5.2860  -2.2104   1.6808 H              1 S1                 0.0000
     39 ****         3.2059  -3.0185   2.9783 H              1 S1                 0.0000
     40 ****         1.7706  -2.5383   2.0865 H              1 S1                 0.0000
     41 ****         4.1309  -4.0561   0.9337 H              1 S1                 0.0000
     42 ****         2.4171  -4.5034   0.8854 H              1 S1                 0.0000
     43 ****         3.0302  -0.8294  -0.5681 H              1 S1                 0.0000
     44 ****         4.5890  -1.6081  -0.4066 H              1 S1                 0.0000
     45 ****        -3.2740  -2.2134  -2.8701 LP             1 S1                 0.0000
     46 ****        -2.8871  -0.8396  -3.6636 LP             1 S1                 0.0000
     47 ****        -2.5942   0.8975   0.2679 LP             1 S1                 0.0000
     48 ****        -0.7800   2.5992  -2.1641 LP             1 S1                 0.0000
     49 ****         2.8076   1.5834  -0.4563 LP             1 S1                 0.0000
     50 ****        -1.6614  -0.1423   1.9777 LP             1 S1                 0.0000
     51 ****         4.8737  -1.4000   2.9862 LP             1 S1                 0.0000
     52 ****         5.3633  -0.6221   1.6364 LP             1 S1                 0.0000
     53 ****         1.9901  -2.7350  -0.4721 LP             1 S1                 0.0000
     54 ****         3.4083  -3.3005  -1.0515 LP             1 S1                 0.0000
@<TRIPOS>BOND
    1    1    2 1     
    2    1   27 1     
    3    2    3 1     
    4    2   28 1     
    5    2   29 1     
    6    3   25 1     
    7    3    8 1     
    8    3    4 1     
    9    4    5 1     
   10    4   30 1     
   11    4   31 1     
   12    5   26 1     
   13    5    6 1     
   14    5    7 1     
   15    7    8 1     
   16    7   32 1     
   17    7   33 1     
   18    8    9 1     
   19    9   14 ar    
   20    9   10 ar    
   21   10   11 ar    
   22   11   12 ar    
   23   11   34 1     
   24   12   13 ar    
   25   13   17 1     
   26   13   14 ar    
   27   14   15 1     
   28   15   16 2     
   29   16   17 1     
   30   16   35 1     
   31   17   18 1     
   32   18   19 1     
   33   18   36 1     
   34   18   37 1     
   35   19   24 1     
   36   19   20 1     
   37   19   21 1     
   38   20   38 1     
   39   21   22 1     
   40   21   39 1     
   41   21   40 1     
   42   22   23 1     
   43   22   41 1     
   44   22   42 1     
   45   23   24 1     
   46   24   43 1     
   47   24   44 1     
   48    1   45 1     
   49    1   46 1     
   50    8   47 1     
   51   10   48 1     
   52   12   49 1     
   53   15   50 1     
   54   20   51 1     
   55   20   52 1     
   56   23   53 1     
   57   23   54 1     
@<TRIPOS>SUBSTRUCTURE
      1 S1             1
@<TRIPOS>SET
LONE_PAIRS      STATIC     ATOMS    <user>   **** ""
10 45 46 47 48 49 50 51 52 53 54
DONOR_HYDROGENS      STATIC     ATOMS    <user>   **** ""
2 27 38
ATOM$BLUE        STATIC     ATOMS    COLORGROUP SYSTEM
10 45 46 47 48 49 50 51 52 53 54
ATOM$RED        STATIC     ATOMS    COLORGROUP SYSTEM
2 27 38
