#       Name:                AV-unprocessed.smi:1022
#       Creating user name   scv26
#       Creation time:       Fri Mar 27 02:43:21 2020


#       File generated by GOLD software.
#

@<TRIPOS>MOLECULE
AV-unprocessed.smi:1022
    39    40     1
SMALL
NO_CHARGES


@<TRIPOS>ATOM
      1 ****        -4.7383  -1.5576   2.2715 C.3            1 S1                 0.0000
      2 ****        -3.3246  -1.5178   2.1867 O.3            1 S1                 0.0000
      3 ****        -2.7709  -2.7481   1.7482 C.3            1 S1                 0.0000
      4 ****        -1.2412  -2.6243   1.6763 C.3            1 S1                 0.0000
      5 ****        -0.5824  -3.9769   1.3601 C.3            1 S1                 0.0000
      6 ****        -0.8787  -1.6362   0.6630 N.am           1 S1                 0.0000
      7 ****         0.2604  -0.9290   0.6423 C.2            1 S1                 0.0000
      8 ****         1.1499  -1.0494   1.4853 O.2            1 S1                 0.0000
      9 ****         0.2913  -0.0883  -0.4067 N.am           1 S1                 0.0000
     10 ****         1.3244   0.8100  -0.7843 C.2            1 S1                 0.0000
     11 ****         2.4847   0.9302  -0.1247 N.2            1 S1                 0.0000
     12 ****         3.3175   1.8742  -0.7091 N.2            1 S1                 0.0000
     13 ****         2.7644   2.4411  -1.7882 C.2            1 S1                 0.0000
     14 ****         3.4684   3.4864  -2.5876 C.3            1 S1                 0.0000
     15 ****         3.6390   4.8887  -2.0492 C.3            1 S1                 0.0000
     16 ****         2.7181   4.6403  -3.2165 C.3            1 S1                 0.0000
     17 ****         1.1533   1.8521  -2.1862 S.3            1 S1                 0.0000
     18 ****        -5.1122  -0.5915   2.6104 H              1 S1                 0.0000
     19 ****        -5.0708  -2.3153   2.9823 H              1 S1                 0.0000
     20 ****        -5.1858  -1.7687   1.2992 H              1 S1                 0.0000
     21 ****        -3.0468  -3.5382   2.4487 H              1 S1                 0.0000
     22 ****        -3.1771  -3.0215   0.7727 H              1 S1                 0.0000
     23 ****        -0.8846  -2.2871   2.6515 H              1 S1                 0.0000
     24 ****        -0.8381  -4.7221   2.1137 H              1 S1                 0.0000
     25 ****         0.5047  -3.8943   1.3396 H              1 S1                 0.0000
     26 ****        -0.9056  -4.3590   0.3913 H              1 S1                 0.0000
     27 ****        -1.5562  -1.4688  -0.0665 H              1 S1                 0.0000
     28 ****        -0.5190  -0.0936  -1.0083 H              1 S1                 0.0000
     29 ****         4.2935   3.0509  -3.1480 H              1 S1                 0.0000
     30 ****         3.1815   5.1211  -1.0892 H              1 S1                 0.0000
     31 ****         4.5826   5.3918  -2.2507 H              1 S1                 0.0000
     32 ****         3.0480   4.9764  -4.1974 H              1 S1                 0.0000
     33 ****         1.6490   4.7233  -3.0310 H              1 S1                 0.0000
     34 ****        -2.9551  -1.3042   3.0911 LP             1 S1                 0.0000
     35 ****        -3.0622  -0.8002   1.5416 LP             1 S1                 0.0000
     36 ****         1.0428  -1.7018   2.2356 LP             1 S1                 0.0000
     37 ****         1.9795  -0.4947   1.4196 LP             1 S1                 0.0000
     38 ****         2.7222   0.4028   0.6911 LP             1 S1                 0.0000
     39 ****         4.2272   2.1046  -0.3634 LP             1 S1                 0.0000
@<TRIPOS>BOND
    1    1    2 1     
    2    1   18 1     
    3    1   19 1     
    4    1   20 1     
    5    2    3 1     
    6    3    4 1     
    7    3   21 1     
    8    3   22 1     
    9    4    5 1     
   10    4    6 1     
   11    4   23 1     
   12    5   24 1     
   13    5   25 1     
   14    5   26 1     
   15    6    7 am    
   16    6   27 1     
   17    7    8 2     
   18    7    9 am    
   19    9   10 1     
   20    9   28 1     
   21   10   17 1     
   22   10   11 2     
   23   11   12 1     
   24   12   13 2     
   25   13   14 1     
   26   13   17 1     
   27   14   16 1     
   28   14   15 1     
   29   14   29 1     
   30   15   16 1     
   31   15   30 1     
   32   15   31 1     
   33   16   32 1     
   34   16   33 1     
   35    2   34 1     
   36    2   35 1     
   37    8   36 1     
   38    8   37 1     
   39   11   38 1     
   40   12   39 1     
@<TRIPOS>SUBSTRUCTURE
      1 S1             1
@<TRIPOS>SET
LONE_PAIRS      STATIC     ATOMS    <user>   **** ""
6 34 35 36 37 38 39
DONOR_HYDROGENS      STATIC     ATOMS    <user>   **** ""
2 27 28
ATOM$BLUE        STATIC     ATOMS    COLORGROUP SYSTEM
6 34 35 36 37 38 39
ATOM$RED        STATIC     ATOMS    COLORGROUP SYSTEM
2 27 28
