AV-unprocessed.smi:2812|AV-procd|sdf|10835|dock4
  -GOLD-   2272015273D 1   1.00000     0.00000
 Structure written by MMmdl.
 55 56  0  0  0  0  0  0  0  0  2 V2000
  145.0801  135.0427  150.9761 C   0  0  0  0  0  0  0  0  0  0  0  0
  145.3404  133.5707  151.2547 C   0  0  0  0  0  0  0  0  0  0  0  0
  144.4693  132.5758  150.6643 C   0  0  0  0  0  0  0  0  0  0  0  0
  144.6835  131.2780  150.9186 C   0  0  0  0  0  0  0  0  0  0  0  0
  145.7423  130.8519  151.7334 N   0  0  0  0  0  0  0  0  0  0  0  0
  145.9030  129.4095  151.9360 C   0  0  0  0  0  0  0  0  0  0  0  0
  146.6238  131.7255  152.3000 C   0  0  0  0  0  0  0  0  0  0  0  0
  147.5873  131.3173  152.9527 O   0  0  0  0  0  0  0  0  0  0  0  0
  146.3548  133.1644  152.0626 C   0  0  0  0  0  0  0  0  0  0  0  0
  147.2053  134.1308  152.6213 N   0  0  0  0  0  0  0  0  0  0  0  0
  147.0537  134.7177  153.8214 C   0  0  0  0  0  0  0  0  0  0  0  0
  146.1610  134.4539  154.6281 O   0  0  0  0  0  0  0  0  0  0  0  0
  147.9787  135.6669  154.0231 N   0  0  0  0  0  0  0  0  0  0  0  0
  148.0566  136.5229  155.2042 C   0  0  0  0  0  0  0  0  0  0  0  0
  148.0096  138.0429  154.8690 C   0  0  2  0  0  0  0  0  0  0  0  0
  146.5683  138.4515  154.4644 C   0  0  0  0  0  0  0  0  0  0  0  0
  146.4538  139.9412  154.1378 C   0  0  0  0  0  0  0  0  0  0  0  0
  147.4615  140.2971  153.0488 C   0  0  0  0  0  0  0  0  0  0  0  0
  148.8781  139.9052  153.4850 C   0  0  0  0  0  0  0  0  0  0  0  0
  148.9888  138.4505  153.8021 N   0  3  1  0  0  0  0  0  0  0  0  0
  150.4051  138.0542  154.0711 C   0  0  0  0  0  0  0  0  0  0  0  0
  151.2581  139.1498  154.7557 C   0  0  0  0  0  0  0  0  0  0  0  0
  152.7238  138.7164  154.9293 C   0  0  0  0  0  0  0  0  0  0  0  0
  150.6505  139.5288  156.1148 C   0  0  0  0  0  0  0  0  0  0  0  0
  144.2200  135.1741  150.3192 H   0  0  0  0  0  0  0  0  0  0  0  0
  145.9440  135.5009  150.4938 H   0  0  0  0  0  0  0  0  0  0  0  0
  144.8777  135.5768  151.9050 H   0  0  0  0  0  0  0  0  0  0  0  0
  143.6477  132.8717  150.0286 H   0  0  0  0  0  0  0  0  0  0  0  0
  144.0668  130.4915  150.5084 H   0  0  0  0  0  0  0  0  0  0  0  0
  145.9721  129.1717  152.9987 H   0  0  0  0  0  0  0  0  0  0  0  0
  146.8126  129.0570  151.4478 H   0  0  0  0  0  0  0  0  0  0  0  0
  145.0691  128.8334  151.5335 H   0  0  0  0  0  0  0  0  0  0  0  0
  147.9044  134.5122  152.0010 H   0  0  0  0  0  0  0  0  0  0  0  0
  148.6713  135.8168  153.3038 H   0  0  0  0  0  0  0  0  0  0  0  0
  147.2338  136.2182  155.8490 H   0  0  0  0  0  0  0  0  0  0  0  0
  148.9788  136.2844  155.7348 H   0  0  0  0  0  0  0  0  0  0  0  0
  148.2768  138.5970  155.7703 H   0  0  0  0  0  0  0  0  0  0  0  0
  146.2503  137.8648  153.6014 H   0  0  0  0  0  0  0  0  0  0  0  0
  145.8603  138.2285  155.2625 H   0  0  0  0  0  0  0  0  0  0  0  0
  145.4418  140.1803  153.8098 H   0  0  0  0  0  0  0  0  0  0  0  0
  146.6443  140.5351  155.0328 H   0  0  0  0  0  0  0  0  0  0  0  0
  147.2042  139.7857  152.1201 H   0  0  0  0  0  0  0  0  0  0  0  0
  147.4183  141.3660  152.8376 H   0  0  0  0  0  0  0  0  0  0  0  0
  149.5492  140.1832  152.6756 H   0  0  0  0  0  0  0  0  0  0  0  0
  149.1774  140.4909  154.3559 H   0  0  0  0  0  0  0  0  0  0  0  0
  150.4116  137.1394  154.6658 H   0  0  0  0  0  0  0  0  0  0  0  0
  150.9267  137.8205  153.1481 H   0  0  0  0  0  0  0  0  0  0  0  0
  151.2422  140.0603  154.1593 H   0  0  0  0  0  0  0  0  0  0  0  0
  152.8007  137.8061  155.5251 H   0  0  0  0  0  0  0  0  0  0  0  0
  153.3045  139.4909  155.4314 H   0  0  0  0  0  0  0  0  0  0  0  0
  153.2024  138.5274  153.9683 H   0  0  0  0  0  0  0  0  0  0  0  0
  150.6423  138.6792  156.7987 H   0  0  0  0  0  0  0  0  0  0  0  0
  149.6228  139.8761  156.0036 H   0  0  0  0  0  0  0  0  0  0  0  0
  151.2169  140.3306  156.5900 H   0  0  0  0  0  0  0  0  0  0  0  0
  148.7133  137.9516  152.9684 H   0  0  0  0  0  0  0  0  0  0  0  0
  1  2  1  0  0  0  0
  1 25  1  0  0  0  0
  1 26  1  0  0  0  0
  1 27  1  0  0  0  0
  2  9  2  0  0  0  0
  2  3  1  0  0  0  0
  3  4  2  0  0  0  0
  3 28  1  0  0  0  0
  4  5  1  0  0  0  0
  4 29  1  0  0  0  0
  5  6  1  0  0  0  0
  5  7  1  0  0  0  0
  6 30  1  0  0  0  0
  6 31  1  0  0  0  0
  6 32  1  0  0  0  0
  7  8  2  0  0  0  0
  7  9  1  0  0  0  0
  9 10  1  0  0  0  0
 10 11  1  0  0  0  0
 10 33  1  0  0  0  0
 11 12  2  0  0  0  0
 11 13  1  0  0  0  0
 13 14  1  0  0  0  0
 13 34  1  0  0  0  0
 14 15  1  0  0  0  0
 14 35  1  0  0  0  0
 14 36  1  0  0  0  0
 15 20  1  0  0  0  0
 15 16  1  0  0  0  0
 15 37  1  0  0  0  0
 16 17  1  0  0  0  0
 16 38  1  0  0  0  0
 16 39  1  0  0  0  0
 17 18  1  0  0  0  0
 17 40  1  0  0  0  0
 17 41  1  0  0  0  0
 18 19  1  0  0  0  0
 18 42  1  0  0  0  0
 18 43  1  0  0  0  0
 19 20  1  0  0  0  0
 19 44  1  0  0  0  0
 19 45  1  0  0  0  0
 20 21  1  0  0  0  0
 20 55  1  0  0  0  0
 21 22  1  0  0  0  0
 21 46  1  0  0  0  0
 21 47  1  0  0  0  0
 22 23  1  0  0  0  0
 22 24  1  0  0  0  0
 22 48  1  0  0  0  0
 23 49  1  0  0  0  0
 23 50  1  0  0  0  0
 23 51  1  0  0  0  0
 24 52  1  0  0  0  0
 24 53  1  0  0  0  0
 24 54  1  0  0  0  0
M  CHG  1  20   1
M  END
> <s_m_source_file>
AV-unprocessed.smi

> <i_m_source_file_index>
2812

> <i_lp_mmshare_version>
43012

> <i_f3d_flags>
0

> <s_epik_input>
W0NIM11jMVtjSF1bY0hdbihbQ0gzXSljKD1PKWMxW05IXUMoPU8pW05IXVtDSDJdW0NAQEhdMltDSDJdW0NIMl1bQ0gyXVtDSDJdTjJbQ0gyXVtDSF0oW0NIM10pW0NIM10=

> <s_epik_cmdline>
J2VwaWtfcHl0aG9uJywgJy1waCcsICc3LjAnLCAnLXRuJywgJzgnLCAnLW1hJywgJzIwMCcsICctbWV0YWxfYmluZGluZycsICctaW1hZScsICc8aW5maWxlLm1hZT4nLCAnLW9tYWUnLCAnPG91dGZpbGUubWFlPic=

> <r_lp_tautomer_probability>
1

> <r_epik_Ionization_Penalty>
0.0010902

> <r_epik_Ionization_Penalty_Charging>
0.00107091

> <r_epik_Ionization_Penalty_Neutral>
1.92854e-05

> <r_epik_State_Penalty>
0.000697184

> <r_epik_Charging_Adjusted_Penalty>
0.0017681

> <i_epik_Tot_Q>
1

> <i_epik_Tot_abs_Q>
1

> <r_epik_Metal_State_Penalty>
-0

> <b_epik_Metal_Only>
0

> <s_lp_Force_Field>
OPLS_2005

> <r_lp_Energy>
39.8559

> <b_lp_Chiralities_Consistent>
1

> <s_lp_Variant>
AV-unprocessed.smi:2812-3

> <Gold.Version>
5.8.1

> <Gold.Id.Protein>
6NUR|6NUR_protein|mol2

> <Gold.PLP.Fitness>
46.4424

> <Gold.PLP.PLP>
-37.3229

> <Gold.PLP.part.hbond>
-3.2484

> <Gold.PLP.part.metal>
0.0000

> <Gold.PLP.part.buried>
2.0175

> <Gold.PLP.part.nonpolar>
-37.3641

> <Gold.PLP.part.repulsive>
0.2982

> <Gold.PLP.ligand.clash>
0.0000

> <Gold.PLP.ligand.torsion>
1.2126

> <Gold.PLP.Chemscore.Hbond>
3.5840

> <Gold.PLP.Chemscore.CHOScore>
0.0000

> <Gold.PLP.Chemscore.Metal>
0.0000

> <Gold.Chemscore.Hbonds>
donor molecule, donor type, donor heavy atom, donor atom, acceptor molecule, acceptor atom, score
      L1  H    10    33       P1  7948  0.73
      L1  H    13    34       P1  7948  0.94
      L1  H    20    55       P1  7948  1.81

> <Gold.PLP.Chemscore.Internal.Correction>
0.7925

> <Gold.Rescore>
     Score         DG    S(hbond)    S(metal)    S(lipo)     H(rot)  DE(clash)    DE(int)     intcor
     16.69     -19.48       1.97        0.00      96.49       1.52       1.66       1.13       ----

> <Gold.Chemscore.Fitness>
16.6880

> <Gold.Chemscore.DG>
-19.4818

> <Gold.Chemscore.ZeroCoef>
-5.4800

> <Gold.Chemscore.Hbond>
1.9738

> <Gold.Chemscore.Metal>
0.0000

> <Gold.Chemscore.Lipo>
96.4922

> <Gold.Chemscore.Internal_Hbond>
0.0000

> <Gold.Chemscore.DEClash>
1.6635

> <Gold.Chemscore.DEInternal>
1.1302

> <Gold.Chemscore.Rot>
1.5157

> <Gold.Chemscore.Internal.Correction>
   9.000000E+99

> <Gold.Chemscore.Hbonds>
donor molecule, donor type, donor heavy atom, donor atom, acceptor molecule, acceptor atom, score
      L1  H    10    33       P1  7948  0.16
      L1  H    13    34       P1  7948  0.83
      L1  H    20    55       P1  7948  0.83

> <Gold.Chemscore.Hbond.Weighted>
-6.5924

> <Gold.Chemscore.Metal.Weighted>
-0.0000

> <Gold.Chemscore.Lipo.Weighted>
-11.2896

> <Gold.Chemscore.Internal_Hbond.Weighted>
0.0000

> <Gold.Chemscore.DEClash.Weighted>
1.6635

> <Gold.Chemscore.DEInternal.Weighted>
1.1302

> <Gold.Chemscore.Rot.Weighted>
3.8803

> <Gold.Chemscore.Internal.Correction.Weighted>
   9.000000E+99

> <Gold.Protein.RotatedTorsions>
[ 6907 6896 6895 6894 ] final -135.15 input  -60.11 | X-H torsion
[ 7974 7965 7964 7962 ] final   80.39 input  175.53 | X-H torsion
[ 8008 7997 7996 7995 ] final  119.76 input   59.86 | X-H torsion
[ 10167 10162 10161 10158 ] final -123.74 input  -65.29 | X-H torsion
[ 10718 10713 10712 10709 ] final  107.05 input   66.30 | X-H torsion
[ 10763 10752 10751 10750 ] final  -95.45 input  -60.55 | X-H torsion
[ 11005 11000 10999 10996 ] final -151.72 input  -57.11 | X-H torsion

> <Gold.Protein.ActiveResidues>
 VAL166  LYS551  ARG553  GLY616  TRP617  ASP618  TYR619  PRO620  LYS621  CYS622 
 ASP623  PHE694  ASN695  SER759  ASP760  ASP761  ALA762  ILE779  LEU786  VAL792 
 PHE793  MET794  SER795  GLU796  ALA797  LYS798  CYS799  TRP800  GLU811  SER814 

> <Gold.Protein.RotatedAtoms>
  150.9944  133.6118  159.2703 H   0  0  0  0  0  0  0  0  0  0  0  0  # atno 6907 bound_to 6896
  151.3327  135.0844  159.9354 H   0  0  0  0  0  0  0  0  0  0  0  0  # atno 6908 bound_to 6896
  152.5255  133.9570  159.7753 H   0  0  0  0  0  0  0  0  0  0  0  0  # atno 6909 bound_to 6896
  145.6518  139.2449  143.1972 H   0  0  0  0  0  0  0  0  0  0  0  0  # atno 7974 bound_to 7965
  156.2611  140.2846  156.1042 H   0  0  0  0  0  0  0  0  0  0  0  0  # atno 8008 bound_to 7997
  155.1327  140.0394  157.2796 H   0  0  0  0  0  0  0  0  0  0  0  0  # atno 8009 bound_to 7997
  154.6588  140.2561  155.7138 H   0  0  0  0  0  0  0  0  0  0  0  0  # atno 8010 bound_to 7997
  140.0002  143.5548  152.2306 H   0  0  0  0  0  0  0  0  0  0  0  0  # atno 10167 bound_to 10162
  157.6644  131.0864  150.6098 H   0  0  0  0  0  0  0  0  0  0  0  0  # atno 10718 bound_to 10713
  154.7149  135.5120  153.8723 H   0  0  0  0  0  0  0  0  0  0  0  0  # atno 10763 bound_to 10752
  153.0812  135.6632  154.0050 H   0  0  0  0  0  0  0  0  0  0  0  0  # atno 10764 bound_to 10752
  153.9885  135.3022  155.3393 H   0  0  0  0  0  0  0  0  0  0  0  0  # atno 10765 bound_to 10752
  140.7266  134.3668  157.5174 H   0  0  0  0  0  0  0  0  0  0  0  0  # atno 11005 bound_to 11000
  146.1197  140.7324  142.9463 LP  0  0  0  0  0  0  0  0  0  0  0  0  # atno 17320 bound_to 7965
  144.7120  140.4073  143.7073 LP  0  0  0  0  0  0  0  0  0  0  0  0  # atno 17321 bound_to 7965
  139.6277  144.7639  151.2603 LP  0  0  0  0  0  0  0  0  0  0  0  0  # atno 17342 bound_to 10162
  140.7421  143.6535  150.8227 LP  0  0  0  0  0  0  0  0  0  0  0  0  # atno 17343 bound_to 10162
  156.6400  130.4455  149.5756 LP  0  0  0  0  0  0  0  0  0  0  0  0  # atno 17370 bound_to 10713
  156.2217  130.6741  151.1374 LP  0  0  0  0  0  0  0  0  0  0  0  0  # atno 17371 bound_to 10713
  139.8836  134.8990  156.2757 LP  0  0  0  0  0  0  0  0  0  0  0  0  # atno 17394 bound_to 11000
  140.9958  133.7181  156.0883 LP  0  0  0  0  0  0  0  0  0  0  0  0  # atno 17395 bound_to 11000

$$$$
