#       Name:                AV-unprocessed.smi:1641
#       Creating user name   scv26
#       Creation time:       Fri Mar 27 07:24:25 2020


#       File generated by GOLD software.
#

@<TRIPOS>MOLECULE
AV-unprocessed.smi:1641
    48    49     1
SMALL
NO_CHARGES


@<TRIPOS>ATOM
      1 ****        -5.2490   4.3697   1.5242 C.3            1 S1                 0.0000
      2 ****        -4.4095   3.2386   1.0370 C.2            1 S1                 0.0000
      3 ****        -3.7700   2.4048   1.8661 N.2            1 S1                 0.0000
      4 ****        -3.0542   1.4306   1.1839 N.2            1 S1                 0.0000
      5 ****        -3.1750   1.5603  -0.1445 C.2            1 S1                 0.0000
      6 ****        -2.5473   0.6989  -1.0826 N.am           1 S1                 0.0000
      7 ****        -1.7998  -0.3923  -0.8416 C.2            1 S1                 0.0000
      8 ****        -1.5467  -0.8484   0.2737 O.2            1 S1                 0.0000
      9 ****        -1.3563  -0.9368  -1.9844 N.am           1 S1                 0.0000
     10 ****        -0.5006  -2.1155  -2.0834 C.3            1 S1                 0.0000
     11 ****         0.9918  -1.7326  -2.1433 C.3            1 S1                 0.0000
     12 ****         1.5327  -1.1214  -0.9297 N.3            1 S1                 0.0000
     13 ****         1.6242  -2.0608   0.1835 C.3            1 S1                 0.0000
     14 ****         2.1478  -1.3806   1.4609 C.3            1 S1                 0.0000
     15 ****         2.3288  -2.3761   2.6112 C.3            1 S1                 0.0000
     16 ****         3.4116  -0.7744   1.1926 O.3            1 S1                 0.0000
     17 ****         3.4289   0.1362   0.0916 C.3            1 S1                 0.0000
     18 ****         2.7381   1.4658   0.4405 C.3            1 S1                 0.0000
     19 ****         2.8484  -0.5397  -1.1665 C.3            1 S1                 0.0000
     20 ****        -4.1767   2.9008  -0.6740 S.3            1 S1                 0.0000
     21 ****        -5.8055   4.0729   2.4137 H              1 S1                 0.0000
     22 ****        -5.9600   4.6717   0.7548 H              1 S1                 0.0000
     23 ****        -4.6173   5.2224   1.7727 H              1 S1                 0.0000
     24 ****        -2.6834   0.9429  -2.0523 H              1 S1                 0.0000
     25 ****        -1.6179  -0.4944  -2.8531 H              1 S1                 0.0000
     26 ****        -0.7096  -2.8253  -1.2827 H              1 S1                 0.0000
     27 ****        -0.7679  -2.6289  -3.0072 H              1 S1                 0.0000
     28 ****         1.5790  -2.6169  -2.3948 H              1 S1                 0.0000
     29 ****         1.1231  -1.0442  -2.9795 H              1 S1                 0.0000
     30 ****         0.6481  -2.4937   0.3978 H              1 S1                 0.0000
     31 ****         2.2799  -2.8902  -0.0862 H              1 S1                 0.0000
     32 ****         1.4393  -0.6155   1.7802 H              1 S1                 0.0000
     33 ****         1.3831  -2.8546   2.8670 H              1 S1                 0.0000
     34 ****         2.6999  -1.8749   3.5056 H              1 S1                 0.0000
     35 ****         3.0405  -3.1590   2.3473 H              1 S1                 0.0000
     36 ****         4.4776   0.3629  -0.1026 H              1 S1                 0.0000
     37 ****         2.8582   2.1879  -0.3671 H              1 S1                 0.0000
     38 ****         3.1687   1.9029   1.3415 H              1 S1                 0.0000
     39 ****         1.6681   1.3415   0.6076 H              1 S1                 0.0000
     40 ****         3.5349  -1.3204  -1.4983 H              1 S1                 0.0000
     41 ****         2.7957   0.1872  -1.9779 H              1 S1                 0.0000
     42 ****        -3.8040   2.4756   2.8630 LP             1 S1                 0.0000
     43 ****        -2.5134   0.7176   1.6300 LP             1 S1                 0.0000
     44 ****        -1.9078  -0.3996   1.0911 LP             1 S1                 0.0000
     45 ****        -0.9801  -1.6677   0.3620 LP             1 S1                 0.0000
     46 ****         0.8855  -0.4011  -0.6803 LP             1 S1                 0.0000
     47 ****         4.0696  -1.5028   1.0018 LP             1 S1                 0.0000
     48 ****         3.6951  -0.2751   2.0113 LP             1 S1                 0.0000
@<TRIPOS>BOND
    1    1    2 1     
    2    1   21 1     
    3    1   22 1     
    4    1   23 1     
    5    2   20 1     
    6    2    3 2     
    7    3    4 1     
    8    4    5 2     
    9    5    6 1     
   10    5   20 1     
   11    6    7 am    
   12    6   24 1     
   13    7    8 2     
   14    7    9 am    
   15    9   10 1     
   16    9   25 1     
   17   10   11 1     
   18   10   26 1     
   19   10   27 1     
   20   11   12 1     
   21   11   28 1     
   22   11   29 1     
   23   12   19 1     
   24   12   13 1     
   25   13   14 1     
   26   13   30 1     
   27   13   31 1     
   28   14   15 1     
   29   14   16 1     
   30   14   32 1     
   31   15   33 1     
   32   15   34 1     
   33   15   35 1     
   34   16   17 1     
   35   17   18 1     
   36   17   19 1     
   37   17   36 1     
   38   18   37 1     
   39   18   38 1     
   40   18   39 1     
   41   19   40 1     
   42   19   41 1     
   43    3   42 1     
   44    4   43 1     
   45    8   44 1     
   46    8   45 1     
   47   12   46 1     
   48   16   47 1     
   49   16   48 1     
@<TRIPOS>SUBSTRUCTURE
      1 S1             1
@<TRIPOS>SET
LONE_PAIRS      STATIC     ATOMS    <user>   **** ""
7 42 43 44 45 46 47 48
DONOR_HYDROGENS      STATIC     ATOMS    <user>   **** ""
2 24 25
ATOM$BLUE        STATIC     ATOMS    COLORGROUP SYSTEM
7 42 43 44 45 46 47 48
ATOM$RED        STATIC     ATOMS    COLORGROUP SYSTEM
2 24 25
