AV-unprocessed.smi:9|AV-procd|sdf|49|dock4
  -GOLD-   2262015163D 1   1.00000     0.00000
 Structure written by MMmdl.
 34 36  0  0  0  0  0  0  0  0  2 V2000
  148.5819  136.5532  161.0056 O   0  0  0  0  0  0  0  0  0  0  0  0
  148.0758  136.9255  159.9487 C   0  0  0  0  0  0  0  0  0  0  0  0
  146.8415  137.5072  159.8244 N   0  5  0  0  0  0  0  0  0  0  0  0
  146.3569  137.8982  158.5712 C   0  0  0  0  0  0  0  0  0  0  0  0
  144.9726  138.5382  158.5628 C   0  0  0  0  0  0  0  0  0  0  0  0
  144.9380  139.6492  159.3027 F   0  0  0  0  0  0  0  0  0  0  0  0
  144.6151  138.8642  157.3199 F   0  0  0  0  0  0  0  0  0  0  0  0
  144.0653  137.6919  159.0518 F   0  0  0  0  0  0  0  0  0  0  0  0
  146.9847  137.7606  157.4475 N   0  0  0  0  0  0  0  0  0  0  0  0
  148.2304  137.1792  157.5378 C   0  0  0  0  0  0  0  0  0  0  0  0
  148.8357  136.7459  158.6835 C   0  0  0  0  0  0  0  0  0  0  0  0
  150.0866  136.2008  158.4171 N   0  0  0  0  0  0  0  0  0  0  0  0
  150.1743  136.3369  157.0938 C   0  0  0  0  0  0  0  0  0  0  0  0
  149.1139  136.9192  156.4981 N   0  0  0  0  0  0  0  0  0  0  0  0
  148.9369  137.1918  155.0790 C   0  0  0  0  0  0  0  0  0  0  0  0
  149.2163  138.6614  154.6705 C   0  0  1  0  0  0  0  0  0  0  0  0
  149.0716  138.7444  153.2649 O   0  0  0  0  0  0  0  0  0  0  0  0
  148.2359  139.6483  155.3426 C   0  0  0  0  0  0  0  0  0  0  0  0
  148.6751  141.1037  155.1544 C   0  0  0  0  0  0  0  0  0  0  0  0
  150.1365  141.2738  155.5839 C   0  0  0  0  0  0  0  0  0  0  0  0
  150.9538  140.4117  154.8048 O   0  0  0  0  0  0  0  0  0  0  0  0
  150.6833  139.0258  155.0016 C   0  0  0  0  0  0  0  0  0  0  0  0
  151.0407  136.0074  156.5395 H   0  0  0  0  0  0  0  0  0  0  0  0
  149.6016  136.5238  154.5296 H   0  0  0  0  0  0  0  0  0  0  0  0
  147.9229  136.9039  154.7975 H   0  0  0  0  0  0  0  0  0  0  0  0
  149.1442  137.8737  152.9048 H   0  0  0  0  0  0  0  0  0  0  0  0
  147.2230  139.5167  154.9599 H   0  0  0  0  0  0  0  0  0  0  0  0
  148.1907  139.4357  156.4115 H   0  0  0  0  0  0  0  0  0  0  0  0
  148.5633  141.3951  154.1094 H   0  0  0  0  0  0  0  0  0  0  0  0
  148.0320  141.7664  155.7340 H   0  0  0  0  0  0  0  0  0  0  0  0
  150.4571  142.3031  155.4227 H   0  0  0  0  0  0  0  0  0  0  0  0
  150.2637  141.0604  156.6463 H   0  0  0  0  0  0  0  0  0  0  0  0
  150.9064  138.7784  156.0406 H   0  0  0  0  0  0  0  0  0  0  0  0
  151.3735  138.4408  154.3922 H   0  0  0  0  0  0  0  0  0  0  0  0
  1  2  2  0  0  0  0
  2 11  1  0  0  0  0
  2  3  1  0  0  0  0
  3  4  1  0  0  0  0
  4  5  1  0  0  0  0
  4  9  2  0  0  0  0
  5  6  1  0  0  0  0
  5  7  1  0  0  0  0
  5  8  1  0  0  0  0
  9 10  1  0  0  0  0
 10 14  1  0  0  0  0
 10 11  2  0  0  0  0
 11 12  1  0  0  0  0
 12 13  2  0  0  0  0
 13 14  1  0  0  0  0
 13 23  1  0  0  0  0
 14 15  1  0  0  0  0
 15 16  1  0  0  0  0
 15 24  1  0  0  0  0
 15 25  1  0  0  0  0
 16 22  1  0  0  0  0
 16 17  1  0  0  0  0
 16 18  1  0  0  0  0
 17 26  1  0  0  0  0
 18 19  1  0  0  0  0
 18 27  1  0  0  0  0
 18 28  1  0  0  0  0
 19 20  1  0  0  0  0
 19 29  1  0  0  0  0
 19 30  1  0  0  0  0
 20 21  1  0  0  0  0
 20 31  1  0  0  0  0
 20 32  1  0  0  0  0
 21 22  1  0  0  0  0
 22 33  1  0  0  0  0
 22 34  1  0  0  0  0
M  CHG  1   3  -1
M  END
> <s_m_source_file>
AV-unprocessed.smi

> <i_m_source_file_index>
9

> <i_lp_mmshare_version>
43012

> <i_f3d_flags>
0

> <s_epik_input>
RkMoRikoRiljKG4xKVtuSF1jKD1PKWMoYzEyKW5bY0hdbjJbQ0gyXVtDQEBdMyhbT0hdKVtDSDJdW0NIMl1bQ0gyXU9bQ0gyXTM=

> <s_epik_cmdline>
J2VwaWtfcHl0aG9uJywgJy1waCcsICc3LjAnLCAnLXRuJywgJzgnLCAnLW1hJywgJzIwMCcsICctbWV0YWxfYmluZGluZycsICctaW1hZScsICc8aW5maWxlLm1hZT4nLCAnLW9tYWUnLCAnPG91dGZpbGUubWFlPic=

> <r_lp_tautomer_probability>
1

> <r_epik_Ionization_Penalty>
0.188582

> <r_epik_Ionization_Penalty_Charging>
1.37005e-11

> <r_epik_Ionization_Penalty_Neutral>
0.188582

> <r_epik_State_Penalty>
0.012336

> <r_epik_Charging_Adjusted_Penalty>
0.012336

> <i_epik_Tot_Q>
-1

> <i_epik_Tot_abs_Q>
1

> <r_epik_Metal_State_Penalty>
0.0089237

> <b_epik_Metal_Only>
0

> <s_lp_Force_Field>
OPLS_2005

> <r_lp_Energy>
37.6166

> <b_lp_Chiralities_Consistent>
1

> <s_lp_Variant>
AV-unprocessed.smi:9-1

> <Gold.Version>
5.8.1

> <Gold.Id.Protein>
6NUR|6NUR_protein|mol2

> <Gold.PLP.Fitness>
37.7268

> <Gold.PLP.PLP>
-20.2918

> <Gold.PLP.part.hbond>
-5.7892

> <Gold.PLP.part.metal>
0.0000

> <Gold.PLP.part.buried>
-2.5080

> <Gold.PLP.part.nonpolar>
-12.4091

> <Gold.PLP.part.repulsive>
0.0719

> <Gold.PLP.ligand.clash>
0.0000

> <Gold.PLP.ligand.torsion>
0.2856

> <Gold.PLP.Chemscore.Hbond>
6.0000

> <Gold.PLP.Chemscore.CHOScore>
0.0000

> <Gold.PLP.Chemscore.Metal>
0.0000

> <Gold.Chemscore.Hbonds>
donor molecule, donor type, donor heavy atom, donor atom, acceptor molecule, acceptor atom, score
      L1  H    17    26       P1  7948  1.00
      P1  H  6896  6908       L1    12  0.99
      P1  H  6931  6943       L1     1  1.00
      P1  H  6934  6947       L1     3  1.80
      P1  H  7989  7998       L1    21  1.00

> <Gold.PLP.Chemscore.Internal.Correction>
0.0061

> <Gold.Rescore>
     Score         DG    S(hbond)    S(metal)    S(lipo)     H(rot)  DE(clash)    DE(int)     intcor
     15.89     -16.22       3.62        0.00      34.87       2.12       0.02       0.31       ----

> <Gold.Chemscore.Fitness>
15.8939

> <Gold.Chemscore.DG>
-16.2240

> <Gold.Chemscore.ZeroCoef>
-5.4800

> <Gold.Chemscore.Hbond>
3.6231

> <Gold.Chemscore.Metal>
0.0000

> <Gold.Chemscore.Lipo>
34.8724

> <Gold.Chemscore.Internal_Hbond>
0.0000

> <Gold.Chemscore.DEClash>
0.0187

> <Gold.Chemscore.DEInternal>
0.3114

> <Gold.Chemscore.Rot>
2.1239

> <Gold.Chemscore.Internal.Correction>
   9.000000E+99

> <Gold.Chemscore.Hbonds>
donor molecule, donor type, donor heavy atom, donor atom, acceptor molecule, acceptor atom, score
      L1  H    17    26       P1  7948  0.98
      P1  H  6896  6908       L1    12  0.87
      P1  H  6931  6943       L1     1  0.39
      P1  H  6934  6947       L1     3  0.13
      P1  H  7989  7998       L1    21  0.90

> <Gold.Chemscore.Hbond.Weighted>
-12.1012

> <Gold.Chemscore.Metal.Weighted>
-0.0000

> <Gold.Chemscore.Lipo.Weighted>
-4.0801

> <Gold.Chemscore.Internal_Hbond.Weighted>
0.0000

> <Gold.Chemscore.DEClash.Weighted>
0.0187

> <Gold.Chemscore.DEInternal.Weighted>
0.3114

> <Gold.Chemscore.Rot.Weighted>
5.4373

> <Gold.Chemscore.Internal.Correction.Weighted>
   9.000000E+99

> <Gold.Protein.RotatedTorsions>
[ 6907 6896 6895 6894 ] final  179.50 input  -60.11 | X-H torsion
[ 7974 7965 7964 7962 ] final  -49.91 input  175.53 | X-H torsion
[ 8008 7997 7996 7995 ] final  -90.39 input   59.86 | X-H torsion
[ 10167 10162 10161 10158 ] final   72.21 input  -65.29 | X-H torsion
[ 10718 10713 10712 10709 ] final -143.21 input   66.30 | X-H torsion
[ 10763 10752 10751 10750 ] final -112.26 input  -60.55 | X-H torsion
[ 11005 11000 10999 10996 ] final  -73.15 input  -57.11 | X-H torsion

> <Gold.Protein.ActiveResidues>
 VAL166  LYS551  ARG553  GLY616  TRP617  ASP618  TYR619  PRO620  LYS621  CYS622 
 ASP623  PHE694  ASN695  SER759  ASP760  ASP761  ALA762  ILE779  LEU786  VAL792 
 PHE793  MET794  SER795  GLU796  ALA797  LYS798  CYS799  TRP800  GLU811  SER814 

> <Gold.Protein.RotatedAtoms>
  151.6706  133.3314  159.3195 H   0  0  0  0  0  0  0  0  0  0  0  0  # atno 6907 bound_to 6896
  150.7869  134.6865  159.6482 H   0  0  0  0  0  0  0  0  0  0  0  0  # atno 6908 bound_to 6896
  152.3941  134.6397  160.0148 H   0  0  0  0  0  0  0  0  0  0  0  0  # atno 6909 bound_to 6896
  145.9355  140.7710  142.9578 H   0  0  0  0  0  0  0  0  0  0  0  0  # atno 7974 bound_to 7965
  154.6979  140.0531  157.0429 H   0  0  0  0  0  0  0  0  0  0  0  0  # atno 8008 bound_to 7997
  155.0725  140.3201  155.4607 H   0  0  0  0  0  0  0  0  0  0  0  0  # atno 8009 bound_to 7997
  156.2750  140.2079  156.5852 H   0  0  0  0  0  0  0  0  0  0  0  0  # atno 8010 bound_to 7997
  140.0377  144.5414  150.7458 H   0  0  0  0  0  0  0  0  0  0  0  0  # atno 10167 bound_to 10162
  156.3552  130.7709  151.1868 H   0  0  0  0  0  0  0  0  0  0  0  0  # atno 10718 bound_to 10713
  154.8341  135.4497  154.1166 H   0  0  0  0  0  0  0  0  0  0  0  0  # atno 10763 bound_to 10752
  153.2414  135.6916  153.7785 H   0  0  0  0  0  0  0  0  0  0  0  0  # atno 10764 bound_to 10752
  153.7132  135.3353  155.3227 H   0  0  0  0  0  0  0  0  0  0  0  0  # atno 10765 bound_to 10752
  141.1619  133.6869  156.7168 H   0  0  0  0  0  0  0  0  0  0  0  0  # atno 11005 bound_to 11000
  144.6771  140.2196  143.7368 LP  0  0  0  0  0  0  0  0  0  0  0  0  # atno 17320 bound_to 7965
  145.8369  139.2111  143.1850 LP  0  0  0  0  0  0  0  0  0  0  0  0  # atno 17321 bound_to 7965
  140.7274  143.2651  151.4073 LP  0  0  0  0  0  0  0  0  0  0  0  0  # atno 17342 bound_to 10162
  139.6034  144.1248  152.2223 LP  0  0  0  0  0  0  0  0  0  0  0  0  # atno 17343 bound_to 10162
  157.7466  131.0416  150.4653 LP  0  0  0  0  0  0  0  0  0  0  0  0  # atno 17370 bound_to 10713
  156.4855  130.4083  149.6437 LP  0  0  0  0  0  0  0  0  0  0  0  0  # atno 17371 bound_to 10713
  140.2846  134.8289  157.3963 LP  0  0  0  0  0  0  0  0  0  0  0  0  # atno 17394 bound_to 11000
  140.1402  134.4982  155.8037 LP  0  0  0  0  0  0  0  0  0  0  0  0  # atno 17395 bound_to 11000

$$$$
