AV-unprocessed.smi:92|AV-procd|sdf|841|dock9
  -GOLD-   2262017273D 1   1.00000     0.00000
 Structure written by MMmdl.
 61 64  0  0  0  0  0  0  0  0  2 V2000
  151.9731  141.0104  158.4666 C   0  0  0  0  0  0  0  0  0  0  0  0
  151.8532  140.5597  157.0037 C   0  0  0  0  0  0  0  0  0  0  0  0
  150.4432  140.4795  156.5455 N   0  3  2  0  0  0  0  0  0  0  0  0
  149.5504  139.7897  157.5113 C   0  0  0  0  0  0  0  0  0  0  0  0
  148.0845  139.8359  157.0519 C   0  0  0  0  0  0  0  0  0  0  0  0
  147.9129  139.2366  155.6324 C   0  0  1  0  0  0  0  0  0  0  0  0
  146.5229  139.2369  155.1465 N   0  0  0  0  0  0  0  0  0  0  0  0
  145.7683  140.4804  155.2836 C   0  0  0  0  0  0  0  0  0  0  0  0
  146.3515  138.6919  153.9208 C   0  0  0  0  0  0  0  0  0  0  0  0
  146.8232  139.3363  152.8213 N   0  0  0  0  0  0  0  0  0  0  0  0
  146.6825  138.7798  151.6143 C   0  0  0  0  0  0  0  0  0  0  0  0
  146.1223  137.6107  151.2938 N   0  0  0  0  0  0  0  0  0  0  0  0
  145.6507  136.9636  152.3991 C   0  0  0  0  0  0  0  0  0  0  0  0
  145.7229  137.4329  153.7395 C   0  0  0  0  0  0  0  0  0  0  0  0
  145.1549  136.5074  154.6042 N   0  0  0  0  0  0  0  0  0  0  0  0
  144.7715  135.5385  153.8180 C   0  0  0  0  0  0  0  0  0  0  0  0
  145.0241  135.7313  152.4768 N   0  0  0  0  0  0  0  0  0  0  0  0
  144.7395  134.8190  151.4060 C   0  0  0  0  0  0  0  0  0  0  0  0
  144.1134  133.4455  151.6609 C   0  0  0  0  0  0  0  0  0  0  0  0
  144.9170  132.8711  150.4708 C   0  0  0  0  0  0  0  0  0  0  0  0
  145.5046  131.4704  150.7170 C   0  0  0  0  0  0  0  0  0  0  0  0
  146.4168  131.4623  151.7958 O   0  0  0  0  0  0  0  0  0  0  0  0
  144.1414  132.8712  149.1363 C   0  0  0  0  0  0  0  0  0  0  0  0
  142.9476  132.1191  149.2101 O   0  0  0  0  0  0  0  0  0  0  0  0
  145.8712  134.0642  150.7102 C   0  0  0  0  0  0  0  0  0  0  0  0
  148.8805  139.9598  154.6567 C   0  0  1  0  0  0  0  0  0  0  0  0
  148.4750  141.4130  154.3301 C   0  0  0  0  0  0  0  0  0  0  0  0
  150.3270  139.8910  155.1865 C   0  0  0  0  0  0  0  0  0  0  0  0
  153.0197  141.1498  158.7383 H   0  0  0  0  0  0  0  0  0  0  0  0
  151.5568  140.2787  159.1583 H   0  0  0  0  0  0  0  0  0  0  0  0
  151.4612  141.9592  158.6301 H   0  0  0  0  0  0  0  0  0  0  0  0
  152.3883  141.2861  156.3905 H   0  0  0  0  0  0  0  0  0  0  0  0
  152.3525  139.6015  156.8522 H   0  0  0  0  0  0  0  0  0  0  0  0
  149.8715  138.7534  157.6285 H   0  0  0  0  0  0  0  0  0  0  0  0
  149.6228  140.2540  158.4941 H   0  0  0  0  0  0  0  0  0  0  0  0
  147.4915  139.2853  157.7827 H   0  0  0  0  0  0  0  0  0  0  0  0
  147.7197  140.8632  157.0782 H   0  0  0  0  0  0  0  0  0  0  0  0
  148.2211  138.1908  155.6834 H   0  0  0  0  0  0  0  0  0  0  0  0
  144.8365  140.4503  154.7162 H   0  0  0  0  0  0  0  0  0  0  0  0
  146.3540  141.3309  154.9326 H   0  0  0  0  0  0  0  0  0  0  0  0
  145.5037  140.6547  156.3263 H   0  0  0  0  0  0  0  0  0  0  0  0
  147.0785  139.3508  150.7874 H   0  0  0  0  0  0  0  0  0  0  0  0
  144.2987  134.6463  154.2020 H   0  0  0  0  0  0  0  0  0  0  0  0
  144.1451  135.3673  150.6733 H   0  0  0  0  0  0  0  0  0  0  0  0
  144.4039  133.0158  152.6208 H   0  0  0  0  0  0  0  0  0  0  0  0
  143.0301  133.4169  151.5388 H   0  0  0  0  0  0  0  0  0  0  0  0
  144.7161  130.7559  150.9555 H   0  0  0  0  0  0  0  0  0  0  0  0
  146.0051  131.0872  149.8273 H   0  0  0  0  0  0  0  0  0  0  0  0
  147.2952  131.4738  151.4477 H   0  0  0  0  0  0  0  0  0  0  0  0
  143.8957  133.8869  148.8249 H   0  0  0  0  0  0  0  0  0  0  0  0
  144.7434  132.4476  148.3320 H   0  0  0  0  0  0  0  0  0  0  0  0
  142.2176  132.7166  149.2660 H   0  0  0  0  0  0  0  0  0  0  0  0
  146.2446  134.5479  149.8070 H   0  0  0  0  0  0  0  0  0  0  0  0
  146.6917  133.8205  151.3876 H   0  0  0  0  0  0  0  0  0  0  0  0
  148.8778  139.4150  153.7123 H   0  0  0  0  0  0  0  0  0  0  0  0
  148.4887  142.0517  155.2128 H   0  0  0  0  0  0  0  0  0  0  0  0
  147.4740  141.4660  153.9019 H   0  0  0  0  0  0  0  0  0  0  0  0
  149.1574  141.8513  153.6014 H   0  0  0  0  0  0  0  0  0  0  0  0
  150.9903  140.4139  154.4960 H   0  0  0  0  0  0  0  0  0  0  0  0
  150.6646  138.8536  155.2155 H   0  0  0  0  0  0  0  0  0  0  0  0
  150.1143  141.4314  156.4669 H   0  0  0  0  0  0  0  0  0  0  0  0
  1  2  1  0  0  0  0
  1 29  1  0  0  0  0
  1 30  1  0  0  0  0
  1 31  1  0  0  0  0
  2  3  1  0  0  0  0
  2 32  1  0  0  0  0
  2 33  1  0  0  0  0
  3 28  1  0  0  0  0
  3  4  1  0  0  0  0
  3 61  1  0  0  0  0
  4  5  1  0  0  0  0
  4 34  1  0  0  0  0
  4 35  1  0  0  0  0
  5  6  1  0  0  0  0
  5 36  1  0  0  0  0
  5 37  1  0  0  0  0
  6  7  1  0  0  0  0
  6 26  1  0  0  0  0
  6 38  1  0  0  0  0
  7  8  1  0  0  0  0
  7  9  1  0  0  0  0
  8 39  1  0  0  0  0
  8 40  1  0  0  0  0
  8 41  1  0  0  0  0
  9 14  1  0  0  0  0
  9 10  2  0  0  0  0
 10 11  1  0  0  0  0
 11 12  2  0  0  0  0
 11 42  1  0  0  0  0
 12 13  1  0  0  0  0
 13 17  1  0  0  0  0
 13 14  2  0  0  0  0
 14 15  1  0  0  0  0
 15 16  2  0  0  0  0
 16 17  1  0  0  0  0
 16 43  1  0  0  0  0
 17 18  1  0  0  0  0
 18 25  1  0  0  0  0
 18 19  1  0  0  0  0
 18 44  1  0  0  0  0
 19 20  1  0  0  0  0
 19 45  1  0  0  0  0
 19 46  1  0  0  0  0
 20 21  1  0  0  0  0
 20 23  1  0  0  0  0
 20 25  1  0  0  0  0
 21 22  1  0  0  0  0
 21 47  1  0  0  0  0
 21 48  1  0  0  0  0
 22 49  1  0  0  0  0
 23 24  1  0  0  0  0
 23 50  1  0  0  0  0
 23 51  1  0  0  0  0
 24 52  1  0  0  0  0
 25 53  1  0  0  0  0
 25 54  1  0  0  0  0
 26 27  1  0  0  0  0
 26 28  1  0  0  0  0
 26 55  1  0  0  0  0
 27 56  1  0  0  0  0
 27 57  1  0  0  0  0
 27 58  1  0  0  0  0
 28 59  1  0  0  0  0
 28 60  1  0  0  0  0
M  CHG  1   3   1
M  END
> <s_m_source_file>
AV-unprocessed.smi

> <i_m_source_file_index>
92

> <i_lp_mmshare_version>
43012

> <i_f3d_flags>
0

> <s_epik_input>
W0NIM11bQ0gyXU4xW0NIMl1bQ0gyXVtDQEhdKFtDQEBIXShbQ0gzXSlbQ0gyXTEpTihbQ0gzXSljKG5bY0hdbjIpYyhjMjMpbltjSF1uM1tDSF0oW0NIMl00KVtDSDJdQzQoW0NIMl1bT0hdKVtDSDJdW09IXQ==

> <s_epik_cmdline>
J2VwaWtfcHl0aG9uJywgJy1waCcsICc3LjAnLCAnLXRuJywgJzgnLCAnLW1hJywgJzIwMCcsICctbWV0YWxfYmluZGluZycsICctaW1hZScsICc8aW5maWxlLm1hZT4nLCAnLW9tYWUnLCAnPG91dGZpbGUubWFlPic=

> <r_lp_tautomer_probability>
1

> <r_epik_Ionization_Penalty>
0.00235514

> <r_epik_Ionization_Penalty_Charging>
0.00137877

> <r_epik_Ionization_Penalty_Neutral>
0.000976366

> <r_epik_State_Penalty>
-0

> <r_epik_Charging_Adjusted_Penalty>
0.00137877

> <i_epik_Tot_Q>
1

> <i_epik_Tot_abs_Q>
1

> <r_epik_Metal_State_Penalty>
-0

> <b_epik_Metal_Only>
0

> <s_lp_Force_Field>
OPLS_2005

> <r_lp_Energy>
54.7459

> <b_lp_Chiralities_Consistent>
1

> <s_lp_Variant>
AV-unprocessed.smi:92-1

> <Gold.Version>
5.8.1

> <Gold.Id.Protein>
6NUR|6NUR_protein|mol2

> <Gold.PLP.Fitness>
49.9130

> <Gold.PLP.PLP>
-40.6168

> <Gold.PLP.part.hbond>
-4.0000

> <Gold.PLP.part.metal>
0.0000

> <Gold.PLP.part.buried>
-7.7213

> <Gold.PLP.part.nonpolar>
-32.0097

> <Gold.PLP.part.repulsive>
2.3803

> <Gold.PLP.ligand.clash>
0.0000

> <Gold.PLP.ligand.torsion>
0.7465

> <Gold.PLP.Chemscore.Hbond>
2.8200

> <Gold.PLP.Chemscore.CHOScore>
0.4739

> <Gold.PLP.Chemscore.Metal>
0.0000

> <Gold.Chemscore.Hbonds>
donor molecule, donor type, donor heavy atom, donor atom, acceptor molecule, acceptor atom, score
      L1  H    22    49       P1 10747  0.71
      L1  H    24    52       P1 10186  0.83
      P1  H 10785 10796       L1    24  0.96
      L1  C    11    42       P1  7957  0.58

> <Gold.PLP.Chemscore.Internal.Correction>
0.9074

> <Gold.Rescore>
     Score         DG    S(hbond)    S(metal)    S(lipo)     H(rot)  DE(clash)    DE(int)     intcor
     11.00     -15.44       2.58        0.00      88.35       3.51       1.07       3.37       ----

> <Gold.Chemscore.Fitness>
10.9980

> <Gold.Chemscore.DG>
-15.4429

> <Gold.Chemscore.ZeroCoef>
-5.4800

> <Gold.Chemscore.Hbond>
2.5819

> <Gold.Chemscore.Metal>
0.0000

> <Gold.Chemscore.Lipo>
88.3502

> <Gold.Chemscore.Internal_Hbond>
0.0000

> <Gold.Chemscore.DEClash>
1.0700

> <Gold.Chemscore.DEInternal>
3.3749

> <Gold.Chemscore.Rot>
3.5147

> <Gold.Chemscore.Internal.Correction>
   9.000000E+99

> <Gold.Chemscore.Hbonds>
donor molecule, donor type, donor heavy atom, donor atom, acceptor molecule, acceptor atom, score
      L1  H    22    49       P1 10747  0.72
      L1  H    24    52       P1 10186  0.82
      P1  H 10785 10796       L1    24  0.80

> <Gold.Chemscore.Hbond.Weighted>
-8.6237

> <Gold.Chemscore.Metal.Weighted>
-0.0000

> <Gold.Chemscore.Lipo.Weighted>
-10.3370

> <Gold.Chemscore.Internal_Hbond.Weighted>
0.0000

> <Gold.Chemscore.DEClash.Weighted>
1.0700

> <Gold.Chemscore.DEInternal.Weighted>
3.3749

> <Gold.Chemscore.Rot.Weighted>
8.9977

> <Gold.Chemscore.Internal.Correction.Weighted>
   9.000000E+99

> <Gold.Protein.RotatedTorsions>
[ 6907 6896 6895 6894 ] final -118.84 input  -60.11 | X-H torsion
[ 7974 7965 7964 7962 ] final  142.78 input  175.53 | X-H torsion
[ 8008 7997 7996 7995 ] final   31.73 input   59.86 | X-H torsion
[ 10167 10162 10161 10158 ] final -107.18 input  -65.29 | X-H torsion
[ 10718 10713 10712 10709 ] final  -77.47 input   66.30 | X-H torsion
[ 10763 10752 10751 10750 ] final  150.98 input  -60.55 | X-H torsion
[ 11005 11000 10999 10996 ] final  105.88 input  -57.11 | X-H torsion

> <Gold.Protein.ActiveResidues>
 VAL166  LYS551  ARG553  GLY616  TRP617  ASP618  TYR619  PRO620  LYS621  CYS622 
 ASP623  PHE694  ASN695  SER759  ASP760  ASP761  ALA762  ILE779  LEU786  VAL792 
 PHE793  MET794  SER795  GLU796  ALA797  LYS798  CYS799  TRP800  GLU811  SER814 

> <Gold.Protein.RotatedAtoms>
  150.8254  133.8182  159.3120 H   0  0  0  0  0  0  0  0  0  0  0  0  # atno 6907 bound_to 6896
  151.5928  135.1050  160.0052 H   0  0  0  0  0  0  0  0  0  0  0  0  # atno 6908 bound_to 6896
  152.4339  133.7285  159.6630 H   0  0  0  0  0  0  0  0  0  0  0  0  # atno 6909 bound_to 6896
  144.8978  139.5466  143.5768 H   0  0  0  0  0  0  0  0  0  0  0  0  # atno 7974 bound_to 7965
  155.1110  140.3239  155.4521 H   0  0  0  0  0  0  0  0  0  0  0  0  # atno 8008 bound_to 7997
  156.2690  140.2044  156.6182 H   0  0  0  0  0  0  0  0  0  0  0  0  # atno 8009 bound_to 7997
  154.6756  140.0532  157.0198 H   0  0  0  0  0  0  0  0  0  0  0  0  # atno 8010 bound_to 7997
  140.1797  143.3976  152.1291 H   0  0  0  0  0  0  0  0  0  0  0  0  # atno 10167 bound_to 10162
  156.0144  130.4492  150.3350 H   0  0  0  0  0  0  0  0  0  0  0  0  # atno 10718 bound_to 10713
  154.0964  135.2849  155.3261 H   0  0  0  0  0  0  0  0  0  0  0  0  # atno 10763 bound_to 10752
  154.6585  135.5343  153.7992 H   0  0  0  0  0  0  0  0  0  0  0  0  # atno 10764 bound_to 10752
  153.0395  135.6528  154.1130 H   0  0  0  0  0  0  0  0  0  0  0  0  # atno 10765 bound_to 10752
  139.8807  134.9351  156.5582 H   0  0  0  0  0  0  0  0  0  0  0  0  # atno 11005 bound_to 11000
  146.3091  139.7683  142.9033 LP  0  0  0  0  0  0  0  0  0  0  0  0  # atno 17320 bound_to 7965
  145.3669  141.0336  143.3253 LP  0  0  0  0  0  0  0  0  0  0  0  0  # atno 17321 bound_to 7965
  139.5301  144.7149  151.5086 LP  0  0  0  0  0  0  0  0  0  0  0  0  # atno 17342 bound_to 10162
  140.6527  143.8662  150.6803 LP  0  0  0  0  0  0  0  0  0  0  0  0  # atno 17343 bound_to 10162
  157.1447  131.0305  151.2912 LP  0  0  0  0  0  0  0  0  0  0  0  0  # atno 17370 bound_to 10713
  157.4443  130.7562  149.7096 LP  0  0  0  0  0  0  0  0  0  0  0  0  # atno 17371 bound_to 10713
  140.8189  133.8369  155.8877 LP  0  0  0  0  0  0  0  0  0  0  0  0  # atno 17394 bound_to 11000
  140.9437  134.1868  157.4779 LP  0  0  0  0  0  0  0  0  0  0  0  0  # atno 17395 bound_to 11000

$$$$
