#       Name:                AV-unprocessed.smi:1265
#       Creating user name   scv26
#       Creation time:       Fri Mar 27 04:44:25 2020


#       File generated by GOLD software.
#

@<TRIPOS>MOLECULE
AV-unprocessed.smi:1265
    50    52     1
SMALL
NO_CHARGES


@<TRIPOS>ATOM
      1 ****        -0.2482   2.5887  -0.4622 O.2            1 S1                 0.0000
      2 ****        -0.6562   1.4895  -0.8370 C.2            1 S1                 0.0000
      3 ****         0.1441   0.4392  -1.0672 N.am           1 S1                 0.0000
      4 ****         1.5985   0.4210  -0.9119 C.3            1 S1                 0.0000
      5 ****         2.0622  -0.3764   0.3523 C.3            1 S1                 0.0000
      6 ****         1.4434  -1.7382   0.3620 N.3            1 S1                 0.0000
      7 ****         1.6445  -2.5313   1.5834 C.3            1 S1                 0.0000
      8 ****         0.9078  -3.8810   1.5353 C.3            1 S1                 0.0000
      9 ****         1.3222  -4.6163   0.3921 O.3            1 S1                 0.0000
     10 ****         1.0700  -3.9135  -0.8167 C.3            1 S1                 0.0000
     11 ****         1.8097  -2.5656  -0.7959 C.3            1 S1                 0.0000
     12 ****         1.7140   0.4704   1.6111 C.3            1 S1                 0.0000
     13 ****         2.6328   1.6957   1.6662 C.3            1 S1                 0.0000
     14 ****         4.2224   1.2069   0.9570 S.3            1 S1                 0.0000
     15 ****         3.6123  -0.3976   0.3688 C.3            1 S1                 0.0000
     16 ****        -1.9456   1.1706  -1.0433 N.am           1 S1                 0.0000
     17 ****        -3.0919   2.0026  -0.9258 C.ar           1 S1                 0.0000
     18 ****        -4.3411   1.3718  -0.7330 C.ar           1 S1                 0.0000
     19 ****        -5.5079   2.1561  -0.6286 C.ar           1 S1                 0.0000
     20 ****        -5.4254   3.5004  -0.7245 N.pl3          1 S1                 1.0000
     21 ****        -4.2571   4.1475  -0.9242 C.ar           1 S1                 0.0000
     22 ****        -3.0567   3.4164  -1.0354 C.ar           1 S1                 0.0000
     23 ****        -0.2835  -0.4282  -1.3570 H              1 S1                 0.0000
     24 ****         2.0179  -0.0097  -1.8200 H              1 S1                 0.0000
     25 ****         1.9900   1.4380  -0.9161 H              1 S1                 0.0000
     26 ****         2.7046  -2.7177   1.7509 H              1 S1                 0.0000
     27 ****         1.2667  -2.0063   2.4574 H              1 S1                 0.0000
     28 ****         1.1265  -4.4626   2.4310 H              1 S1                 0.0000
     29 ****        -0.1725  -3.7304   1.5083 H              1 S1                 0.0000
     30 ****         1.4105  -4.5187  -1.6569 H              1 S1                 0.0000
     31 ****        -0.0033  -3.7637  -0.9441 H              1 S1                 0.0000
     32 ****         1.5785  -2.0586  -1.7299 H              1 S1                 0.0000
     33 ****         2.8843  -2.7514  -0.7968 H              1 S1                 0.0000
     34 ****         0.6622   0.7507   1.6588 H              1 S1                 0.0000
     35 ****         1.9238  -0.0794   2.5258 H              1 S1                 0.0000
     36 ****         2.2221   2.5172   1.0790 H              1 S1                 0.0000
     37 ****         2.7614   2.0596   2.6858 H              1 S1                 0.0000
     38 ****         3.9936  -1.1430   1.0646 H              1 S1                 0.0000
     39 ****         4.0400  -0.6282  -0.6074 H              1 S1                 0.0000
     40 ****        -2.1325   0.2022  -1.2591 H              1 S1                 0.0000
     41 ****        -4.4081   0.2958  -0.6597 H              1 S1                 0.0000
     42 ****        -6.4974   1.7507  -0.4753 H              1 S1                 0.0000
     43 ****        -4.3173   5.2238  -0.9961 H              1 S1                 0.0000
     44 ****        -2.1374   3.9525  -1.2156 H              1 S1                 0.0000
     45 ****        -6.2818   4.0498  -0.6479 H              1 S1                 0.0000
     46 ****         0.7297   2.7348  -0.3131 LP             1 S1                 0.0000
     47 ****        -0.8948   3.3356  -0.3069 LP             1 S1                 0.0000
     48 ****         0.4720  -1.5048   0.3178 LP             1 S1                 0.0000
     49 ****         0.8260  -5.4842   0.3698 LP             1 S1                 0.0000
     50 ****         2.3035  -4.7951   0.4622 LP             1 S1                 0.0000
@<TRIPOS>BOND
    1    1    2 2     
    2    2    3 am    
    3    2   16 am    
    4    3    4 1     
    5    3   23 1     
    6    4    5 1     
    7    4   24 1     
    8    4   25 1     
    9    5   15 1     
   10    5    6 1     
   11    5   12 1     
   12    6   11 1     
   13    6    7 1     
   14    7    8 1     
   15    7   26 1     
   16    7   27 1     
   17    8    9 1     
   18    8   28 1     
   19    8   29 1     
   20    9   10 1     
   21   10   11 1     
   22   10   30 1     
   23   10   31 1     
   24   11   32 1     
   25   11   33 1     
   26   12   13 1     
   27   12   34 1     
   28   12   35 1     
   29   13   14 1     
   30   13   36 1     
   31   13   37 1     
   32   14   15 1     
   33   15   38 1     
   34   15   39 1     
   35   16   17 1     
   36   16   40 1     
   37   17   22 ar    
   38   17   18 ar    
   39   18   19 ar    
   40   18   41 1     
   41   19   20 ar    
   42   19   42 1     
   43   20   21 ar    
   44   20   45 1     
   45   21   22 ar    
   46   21   43 1     
   47   22   44 1     
   48    1   46 1     
   49    1   47 1     
   50    6   48 1     
   51    9   49 1     
   52    9   50 1     
@<TRIPOS>SUBSTRUCTURE
      1 S1             1
@<TRIPOS>SET
LONE_PAIRS      STATIC     ATOMS    <user>   **** ""
5 46 47 48 49 50
DONOR_HYDROGENS      STATIC     ATOMS    <user>   **** ""
3 23 40 45
ATOM$BLUE        STATIC     ATOMS    COLORGROUP SYSTEM
5 46 47 48 49 50
ATOM$RED        STATIC     ATOMS    COLORGROUP SYSTEM
3 23 40 45
