AV-unprocessed.smi:102|AV-procd|sdf|964|dock3
  -GOLD-   2262017503D 1   1.00000     0.00000
 Structure written by MMmdl.
 43 44  0  0  0  0  0  0  0  0  2 V2000
  146.0771  130.8448  151.6928 C   0  0  0  0  0  0  0  0  0  0  0  0
  146.8059  130.7349  153.0261 C   0  0  0  0  0  0  0  0  0  0  0  0
  146.5272  129.8517  153.8373 O   0  0  0  0  0  0  0  0  0  0  0  0
  147.7431  131.6816  153.1825 O   0  0  0  0  0  0  0  0  0  0  0  0
  148.3660  131.8463  154.4452 C   0  0  0  0  0  0  0  0  0  0  0  0
  149.6152  132.7343  154.2876 C   0  0  1  0  0  0  0  0  0  0  0  0
  149.2074  134.0607  153.9711 O   0  0  0  0  0  0  0  0  0  0  0  0
  148.9323  134.7549  155.1507 C   0  0  2  0  0  0  0  0  0  0  0  0
  149.3144  136.2069  154.9716 N   0  0  0  0  0  0  0  0  0  0  0  0
  150.6450  136.5293  154.7713 C   0  0  0  0  0  0  0  0  0  0  0  0
  151.0449  137.8105  154.6391 C   0  0  0  0  0  0  0  0  0  0  0  0
  152.3448  138.0891  154.4399 F   0  0  0  0  0  0  0  0  0  0  0  0
  150.0590  138.8864  154.7162 C   0  0  0  0  0  0  0  0  0  0  0  0
  150.4265  140.0525  154.5805 O   0  0  0  0  0  0  0  0  0  0  0  0
  148.7578  138.5428  154.9404 N   0  5  0  0  0  0  0  0  0  0  0  0
  148.3498  137.2479  155.0848 C   0  0  0  0  0  0  0  0  0  0  0  0
  147.1816  136.9388  155.3128 O   0  0  0  0  0  0  0  0  0  0  0  0
  149.6839  134.0632  156.3034 C   0  0  1  0  0  0  0  0  0  0  0  0
  148.7251  133.5801  157.2405 O   0  0  0  0  0  0  0  0  0  0  0  0
  148.2896  134.3653  158.2414 C   0  0  0  0  0  0  0  0  0  0  0  0
  147.0854  133.7718  158.9599 C   0  0  0  0  0  0  0  0  0  0  0  0
  148.7769  135.4416  158.5865 O   0  0  0  0  0  0  0  0  0  0  0  0
  150.4191  132.9338  155.5804 C   0  0  1  0  0  0  0  0  0  0  0  0
  150.5554  131.7596  156.3753 O   0  0  0  0  0  0  0  0  0  0  0  0
  151.3230  131.7691  157.4780 C   0  0  0  0  0  0  0  0  0  0  0  0
  151.2963  130.4362  158.2140 C   0  0  0  0  0  0  0  0  0  0  0  0
  151.9988  132.7143  157.8842 O   0  0  0  0  0  0  0  0  0  0  0  0
  146.3992  131.7297  151.1434 H   0  0  0  0  0  0  0  0  0  0  0  0
  145.0014  130.9132  151.8554 H   0  0  0  0  0  0  0  0  0  0  0  0
  146.2788  129.9660  151.0802 H   0  0  0  0  0  0  0  0  0  0  0  0
  147.6669  132.2731  155.1651 H   0  0  0  0  0  0  0  0  0  0  0  0
  148.6509  130.8605  154.8147 H   0  0  0  0  0  0  0  0  0  0  0  0
  150.2558  132.3337  153.5011 H   0  0  0  0  0  0  0  0  0  0  0  0
  147.8525  134.7545  155.3071 H   0  0  0  0  0  0  0  0  0  0  0  0
  151.3852  135.7448  154.7145 H   0  0  0  0  0  0  0  0  0  0  0  0
  150.3810  134.7597  156.7713 H   0  0  0  0  0  0  0  0  0  0  0  0
  146.3649  133.3840  158.2395 H   0  0  0  0  0  0  0  0  0  0  0  0
  146.5908  134.5295  159.5680 H   0  0  0  0  0  0  0  0  0  0  0  0
  147.3997  132.9561  159.6112 H   0  0  0  0  0  0  0  0  0  0  0  0
  151.4096  133.3052  155.3149 H   0  0  0  0  0  0  0  0  0  0  0  0
  150.2971  130.0013  158.1827 H   0  0  0  0  0  0  0  0  0  0  0  0
  151.5819  130.5707  159.2574 H   0  0  0  0  0  0  0  0  0  0  0  0
  151.9936  129.7376  157.7515 H   0  0  0  0  0  0  0  0  0  0  0  0
  1  2  1  0  0  0  0
  1 28  1  0  0  0  0
  1 29  1  0  0  0  0
  1 30  1  0  0  0  0
  2  3  2  0  0  0  0
  2  4  1  0  0  0  0
  4  5  1  0  0  0  0
  5  6  1  0  0  0  0
  5 31  1  0  0  0  0
  5 32  1  0  0  0  0
  6 23  1  0  0  0  0
  6  7  1  0  0  0  0
  6 33  1  0  0  0  0
  7  8  1  0  0  0  0
  8  9  1  0  0  0  0
  8 18  1  0  0  0  0
  8 34  1  0  0  0  0
  9 16  1  0  0  0  0
  9 10  1  0  0  0  0
 10 11  2  0  0  0  0
 10 35  1  0  0  0  0
 11 12  1  0  0  0  0
 11 13  1  0  0  0  0
 13 14  2  0  0  0  0
 13 15  1  0  0  0  0
 15 16  1  0  0  0  0
 16 17  2  0  0  0  0
 18 19  1  0  0  0  0
 18 23  1  0  0  0  0
 18 36  1  0  0  0  0
 19 20  1  0  0  0  0
 20 21  1  0  0  0  0
 20 22  2  0  0  0  0
 21 37  1  0  0  0  0
 21 38  1  0  0  0  0
 21 39  1  0  0  0  0
 23 24  1  0  0  0  0
 23 40  1  0  0  0  0
 24 25  1  0  0  0  0
 25 26  1  0  0  0  0
 25 27  2  0  0  0  0
 26 41  1  0  0  0  0
 26 42  1  0  0  0  0
 26 43  1  0  0  0  0
M  CHG  1  15  -1
M  END
> <s_m_source_file>
AV-unprocessed.smi

> <i_m_source_file_index>
102

> <i_lp_mmshare_version>
43012

> <i_f3d_flags>
0

> <s_epik_input>
W0NIM11DKD1PKU9bQ0gyXVtDQEBIXTFPW0NASF0oW0NAQEhdKE9DKD1PKVtDSDNdKVtDQEhdMU9DKD1PKVtDSDNdKW4yW2NIXWMoRiljKD1PKVtuSF1jMj1P

> <s_epik_cmdline>
J2VwaWtfcHl0aG9uJywgJy1waCcsICc3LjAnLCAnLXRuJywgJzgnLCAnLW1hJywgJzIwMCcsICctbWV0YWxfYmluZGluZycsICctaW1hZScsICc8aW5maWxlLm1hZT4nLCAnLW9tYWUnLCAnPG91dGZpbGUubWFlPic=

> <r_epik_Ionization_Penalty>
1.40304

> <r_epik_Ionization_Penalty_Charging>
1.43915e-08

> <r_epik_Ionization_Penalty_Neutral>
1.40304

> <r_epik_State_Penalty>
1.48536

> <r_epik_Charging_Adjusted_Penalty>
1.48536

> <i_epik_Tot_Q>
-1

> <i_epik_Tot_abs_Q>
1

> <r_epik_Metal_State_Penalty>
0.00663881

> <b_epik_Metal_Only>
0

> <s_epik_Chemistry_Notes>
This compound has an ester and may undergo hydrolysis at high or low pH. This compound contains an acetal/aminal-like group ( X-CH(R)-Y where X, Y are N, S, or O) that may be acid/base labile, releasing an aldehyde.

> <s_lp_Force_Field>
OPLS_2005

> <r_lp_Energy>
22.8402

> <b_lp_Chiralities_Consistent>
1

> <s_lp_Variant>
AV-unprocessed.smi:102-20

> <Gold.Version>
5.8.1

> <Gold.Id.Protein>
6NUR|6NUR_protein|mol2

> <Gold.PLP.Fitness>
38.9587

> <Gold.PLP.PLP>
-30.9193

> <Gold.PLP.part.hbond>
-3.0000

> <Gold.PLP.part.metal>
0.0000

> <Gold.PLP.part.buried>
-5.9422

> <Gold.PLP.part.nonpolar>
-24.5140

> <Gold.PLP.part.repulsive>
1.8264

> <Gold.PLP.ligand.clash>
0.0000

> <Gold.PLP.ligand.torsion>
0.5885

> <Gold.PLP.Chemscore.Hbond>
3.0000

> <Gold.PLP.Chemscore.CHOScore>
0.0000

> <Gold.PLP.Chemscore.Metal>
0.0000

> <Gold.Chemscore.Hbonds>
donor molecule, donor type, donor heavy atom, donor atom, acceptor molecule, acceptor atom, score
      P1  H  6896  6908       L1    27  0.99
      P1  H  6896  6909       L1    22  0.26
      P1  H  7989  7998       L1    14  1.00

> <Gold.PLP.Chemscore.Internal.Correction>
0.2164

> <Gold.Rescore>
     Score         DG    S(hbond)    S(metal)    S(lipo)     H(rot)  DE(clash)    DE(int)     intcor
      8.32     -10.66       2.92        0.00      48.19       4.00       1.38       0.96       ----

> <Gold.Chemscore.Fitness>
8.3227

> <Gold.Chemscore.DG>
-10.6562

> <Gold.Chemscore.ZeroCoef>
-5.4800

> <Gold.Chemscore.Hbond>
2.9238

> <Gold.Chemscore.Metal>
0.0000

> <Gold.Chemscore.Lipo>
48.1899

> <Gold.Chemscore.Internal_Hbond>
0.0000

> <Gold.Chemscore.DEClash>
1.3761

> <Gold.Chemscore.DEInternal>
0.9573

> <Gold.Chemscore.Rot>
3.9951

> <Gold.Chemscore.Internal.Correction>
   9.000000E+99

> <Gold.Chemscore.Hbonds>
donor molecule, donor type, donor heavy atom, donor atom, acceptor molecule, acceptor atom, score
      P1  H  6896  6908       L1    27  0.87
      P1  H  6896  6909       L1    22  0.07
      P1  H  7989  7998       L1    14  1.00

> <Gold.Chemscore.Hbond.Weighted>
-9.7654

> <Gold.Chemscore.Metal.Weighted>
-0.0000

> <Gold.Chemscore.Lipo.Weighted>
-5.6382

> <Gold.Chemscore.Internal_Hbond.Weighted>
0.0000

> <Gold.Chemscore.DEClash.Weighted>
1.3761

> <Gold.Chemscore.DEInternal.Weighted>
0.9573

> <Gold.Chemscore.Rot.Weighted>
10.2274

> <Gold.Chemscore.Internal.Correction.Weighted>
   9.000000E+99

> <Gold.Protein.RotatedTorsions>
[ 6907 6896 6895 6894 ] final   59.66 input  -60.11 | X-H torsion
[ 7974 7965 7964 7962 ] final  -46.22 input  175.53 | X-H torsion
[ 8008 7997 7996 7995 ] final  -17.22 input   59.86 | X-H torsion
[ 10167 10162 10161 10158 ] final  -87.40 input  -65.29 | X-H torsion
[ 10718 10713 10712 10709 ] final -140.82 input   66.30 | X-H torsion
[ 10763 10752 10751 10750 ] final  -32.40 input  -60.55 | X-H torsion
[ 11005 11000 10999 10996 ] final   57.41 input  -57.11 | X-H torsion

> <Gold.Protein.ActiveResidues>
 VAL166  LYS551  ARG553  GLY616  TRP617  ASP618  TYR619  PRO620  LYS621  CYS622 
 ASP623  PHE694  ASN695  SER759  ASP760  ASP761  ALA762  ILE779  LEU786  VAL792 
 PHE793  MET794  SER795  GLU796  ALA797  LYS798  CYS799  TRP800  GLU811  SER814 

> <Gold.Protein.RotatedAtoms>
  152.3934  134.6404  160.0098 H   0  0  0  0  0  0  0  0  0  0  0  0  # atno 6907 bound_to 6896
  151.6631  133.3310  159.3186 H   0  0  0  0  0  0  0  0  0  0  0  0  # atno 6908 bound_to 6896
  150.7846  134.6864  159.6517 H   0  0  0  0  0  0  0  0  0  0  0  0  # atno 6909 bound_to 6896
  145.9741  140.7352  142.9396 H   0  0  0  0  0  0  0  0  0  0  0  0  # atno 7974 bound_to 7965
  154.4994  140.2148  155.9377 H   0  0  0  0  0  0  0  0  0  0  0  0  # atno 8008 bound_to 7997
  156.1414  140.3179  155.8469 H   0  0  0  0  0  0  0  0  0  0  0  0  # atno 8009 bound_to 7997
  155.4112  140.0490  157.3022 H   0  0  0  0  0  0  0  0  0  0  0  0  # atno 8010 bound_to 7997
  140.3848  143.2732  151.9339 H   0  0  0  0  0  0  0  0  0  0  0  0  # atno 10167 bound_to 10162
  156.3268  130.7564  151.1674 H   0  0  0  0  0  0  0  0  0  0  0  0  # atno 10718 bound_to 10713
  153.8131  135.6880  153.4838 H   0  0  0  0  0  0  0  0  0  0  0  0  # atno 10763 bound_to 10752
  153.1616  135.4578  154.9778 H   0  0  0  0  0  0  0  0  0  0  0  0  # atno 10764 bound_to 10752
  154.7959  135.3319  154.7610 H   0  0  0  0  0  0  0  0  0  0  0  0  # atno 10765 bound_to 10752
  140.0454  134.5812  155.9328 H   0  0  0  0  0  0  0  0  0  0  0  0  # atno 11005 bound_to 11000
  144.6844  140.2798  143.7294 LP  0  0  0  0  0  0  0  0  0  0  0  0  # atno 17320 bound_to 7965
  145.7864  139.1910  143.2128 LP  0  0  0  0  0  0  0  0  0  0  0  0  # atno 17321 bound_to 7965
  139.4793  144.5784  151.7973 LP  0  0  0  0  0  0  0  0  0  0  0  0  # atno 17342 bound_to 10162
  140.4901  144.1323  150.5948 LP  0  0  0  0  0  0  0  0  0  0  0  0  # atno 17343 bound_to 10162
  157.7423  131.0492  150.5037 LP  0  0  0  0  0  0  0  0  0  0  0  0  # atno 17370 bound_to 10713
  156.5197  130.4159  149.6257 LP  0  0  0  0  0  0  0  0  0  0  0  0  # atno 17371 bound_to 10713
  141.1904  133.6568  156.5412 LP  0  0  0  0  0  0  0  0  0  0  0  0  # atno 17394 bound_to 11000
  140.4001  134.7364  157.4774 LP  0  0  0  0  0  0  0  0  0  0  0  0  # atno 17395 bound_to 11000

$$$$
