AV-unprocessed.smi:568|AV-procd|sdf|2958|dock4
  -GOLD-   2262023463D 1   1.00000     0.00000
 Structure written by MMmdl.
 35 36  0  0  0  0  0  0  0  0  1 V2000
  145.9085  143.2723  153.7749 C   0  0  0  0  0  0  0  0  0  0  0  0
  146.2514  142.3922  154.9426 C   0  0  0  0  0  0  0  0  0  0  0  0
  145.3434  142.1828  155.8807 N   0  0  0  0  0  0  0  0  0  0  0  0
  145.9467  141.3381  156.8169 O   0  0  0  0  0  0  0  0  0  0  0  0
  147.2102  141.0692  156.4018 C   0  0  0  0  0  0  0  0  0  0  0  0
  148.0187  140.1733  157.2777 C   0  0  0  0  0  0  0  0  0  0  0  0
  147.4705  141.7076  155.2198 C   0  0  0  0  0  0  0  0  0  0  0  0
  148.7349  141.6941  154.3995 C   0  0  0  0  0  0  0  0  0  0  0  0
  149.9299  141.3997  155.3064 C   0  0  0  0  0  0  0  0  0  0  0  0
  150.6231  140.4027  155.1050 O   0  0  0  0  0  0  0  0  0  0  0  0
  150.1553  142.2707  156.3025 N   0  0  0  0  0  0  0  0  0  0  0  0
  151.2242  142.1710  157.2914 C   0  0  0  0  0  0  0  0  0  0  0  0
  151.1672  143.3154  158.3211 C   0  0  1  0  0  0  0  0  0  0  0  0
  152.1214  143.1394  159.4847 C   0  0  0  0  0  0  0  0  0  0  0  0
  152.1977  144.5534  160.0545 C   0  0  0  0  0  0  0  0  0  0  0  0
  151.9760  145.4322  158.9550 O   0  0  0  0  0  0  0  0  0  0  0  0
  151.6063  144.6851  157.8006 C   0  0  0  0  0  0  0  0  0  0  0  0
  146.6231  143.1528  152.9608 H   0  0  0  0  0  0  0  0  0  0  0  0
  145.9093  144.3231  154.0647 H   0  0  0  0  0  0  0  0  0  0  0  0
  144.9205  143.0358  153.3793 H   0  0  0  0  0  0  0  0  0  0  0  0
  148.9314  139.8519  156.7763 H   0  0  0  0  0  0  0  0  0  0  0  0
  147.4518  139.2819  157.5467 H   0  0  0  0  0  0  0  0  0  0  0  0
  148.3008  140.6858  158.1974 H   0  0  0  0  0  0  0  0  0  0  0  0
  148.6924  140.9361  153.6168 H   0  0  0  0  0  0  0  0  0  0  0  0
  148.8880  142.6441  153.8859 H   0  0  0  0  0  0  0  0  0  0  0  0
  149.5315  143.0600  156.3875 H   0  0  0  0  0  0  0  0  0  0  0  0
  151.1072  141.2163  157.8045 H   0  0  0  0  0  0  0  0  0  0  0  0
  152.2009  142.1358  156.8056 H   0  0  0  0  0  0  0  0  0  0  0  0
  150.1532  143.3985  158.7163 H   0  0  0  0  0  0  0  0  0  0  0  0
  151.7777  142.4067  160.2153 H   0  0  0  0  0  0  0  0  0  0  0  0
  153.1044  142.8291  159.1269 H   0  0  0  0  0  0  0  0  0  0  0  0
  151.4071  144.7117  160.7889 H   0  0  0  0  0  0  0  0  0  0  0  0
  153.1539  144.7543  160.5381 H   0  0  0  0  0  0  0  0  0  0  0  0
  152.4826  144.5910  157.1575 H   0  0  0  0  0  0  0  0  0  0  0  0
  150.8237  145.1907  157.2343 H   0  0  0  0  0  0  0  0  0  0  0  0
  1  2  1  0  0  0  0
  1 18  1  0  0  0  0
  1 19  1  0  0  0  0
  1 20  1  0  0  0  0
  2  7  1  0  0  0  0
  2  3  2  0  0  0  0
  3  4  1  0  0  0  0
  4  5  1  0  0  0  0
  5  6  1  0  0  0  0
  5  7  2  0  0  0  0
  6 21  1  0  0  0  0
  6 22  1  0  0  0  0
  6 23  1  0  0  0  0
  7  8  1  0  0  0  0
  8  9  1  0  0  0  0
  8 24  1  0  0  0  0
  8 25  1  0  0  0  0
  9 10  2  0  0  0  0
  9 11  1  0  0  0  0
 11 12  1  0  0  0  0
 11 26  1  0  0  0  0
 12 13  1  0  0  0  0
 12 27  1  0  0  0  0
 12 28  1  0  0  0  0
 13 17  1  0  0  0  0
 13 14  1  0  0  0  0
 13 29  1  0  0  0  0
 14 15  1  0  0  0  0
 14 30  1  0  0  0  0
 14 31  1  0  0  0  0
 15 16  1  0  0  0  0
 15 32  1  0  0  0  0
 15 33  1  0  0  0  0
 16 17  1  0  0  0  0
 17 34  1  0  0  0  0
 17 35  1  0  0  0  0
M  END
> <s_m_source_file>
AV-unprocessed.smi

> <i_m_source_file_index>
568

> <i_lp_mmshare_version>
43012

> <i_f3d_flags>
0

> <s_epik_input>
W0NIM11jMW5vYyhbQ0gzXSljMVtDSDJdQyg9TylbTkhdW0NIMl1bQ0BASF0yW0NIMl1bQ0gyXU9bQ0gyXTI=

> <s_epik_cmdline>
J2VwaWtfcHl0aG9uJywgJy1waCcsICc3LjAnLCAnLXRuJywgJzgnLCAnLW1hJywgJzIwMCcsICctbWV0YWxfYmluZGluZycsICctaW1hZScsICc8aW5maWxlLm1hZT4nLCAnLW9tYWUnLCAnPG91dGZpbGUubWFlPic=

> <r_lp_tautomer_probability>
1

> <r_epik_Ionization_Penalty>
2.07075e-08

> <r_epik_Ionization_Penalty_Charging>
0

> <r_epik_Ionization_Penalty_Neutral>
2.07075e-08

> <r_epik_State_Penalty>
-0

> <r_epik_Charging_Adjusted_Penalty>
0

> <i_epik_Tot_Q>
0

> <i_epik_Tot_abs_Q>
0

> <r_epik_Metal_State_Penalty>
-0

> <b_epik_Metal_Only>
0

> <s_lp_Force_Field>
OPLS_2005

> <r_lp_Energy>
12.1953

> <b_lp_Chiralities_Consistent>
1

> <s_lp_Variant>
AV-unprocessed.smi:568-2

> <Gold.Version>
5.8.1

> <Gold.Id.Protein>
6NUR|6NUR_protein|mol2

> <Gold.PLP.Fitness>
40.4878

> <Gold.PLP.PLP>
-35.3841

> <Gold.PLP.part.hbond>
-2.4193

> <Gold.PLP.part.metal>
0.0000

> <Gold.PLP.part.buried>
-4.7786

> <Gold.PLP.part.nonpolar>
-27.4193

> <Gold.PLP.part.repulsive>
0.3654

> <Gold.PLP.ligand.clash>
0.0000

> <Gold.PLP.ligand.torsion>
0.4196

> <Gold.PLP.Chemscore.Hbond>
1.9760

> <Gold.PLP.Chemscore.CHOScore>
0.0000

> <Gold.PLP.Chemscore.Metal>
0.0000

> <Gold.Chemscore.Hbonds>
donor molecule, donor type, donor heavy atom, donor atom, acceptor molecule, acceptor atom, score
      L1  H    11    26       P1  8028  0.98
      P1  H  7989  7998       L1    10  1.00

> <Gold.PLP.Chemscore.Internal.Correction>
0.0150

> <Gold.Rescore>
     Score         DG    S(hbond)    S(metal)    S(lipo)     H(rot)  DE(clash)    DE(int)     intcor
     15.85     -16.42       1.65        0.00      80.32       1.56       0.06       0.51       ----

> <Gold.Chemscore.Fitness>
15.8544

> <Gold.Chemscore.DG>
-16.4223

> <Gold.Chemscore.ZeroCoef>
-5.4800

> <Gold.Chemscore.Hbond>
1.6544

> <Gold.Chemscore.Metal>
0.0000

> <Gold.Chemscore.Lipo>
80.3225

> <Gold.Chemscore.Internal_Hbond>
0.0000

> <Gold.Chemscore.DEClash>
0.0620

> <Gold.Chemscore.DEInternal>
0.5060

> <Gold.Chemscore.Rot>
1.5551

> <Gold.Chemscore.Internal.Correction>
   9.000000E+99

> <Gold.Chemscore.Hbonds>
donor molecule, donor type, donor heavy atom, donor atom, acceptor molecule, acceptor atom, score
      L1  H    11    26       P1  8028  0.92
      P1  H  7989  7998       L1    10  0.38

> <Gold.Chemscore.Hbond.Weighted>
-5.5255

> <Gold.Chemscore.Metal.Weighted>
-0.0000

> <Gold.Chemscore.Lipo.Weighted>
-9.3977

> <Gold.Chemscore.Internal_Hbond.Weighted>
0.0000

> <Gold.Chemscore.DEClash.Weighted>
0.0620

> <Gold.Chemscore.DEInternal.Weighted>
0.5060

> <Gold.Chemscore.Rot.Weighted>
3.9809

> <Gold.Chemscore.Internal.Correction.Weighted>
   9.000000E+99

> <Gold.Protein.RotatedTorsions>
[ 6907 6896 6895 6894 ] final  132.83 input  -60.11 | X-H torsion
[ 7974 7965 7964 7962 ] final -106.49 input  175.53 | X-H torsion
[ 8008 7997 7996 7995 ] final -121.91 input   59.86 | X-H torsion
[ 10167 10162 10161 10158 ] final  -87.20 input  -65.29 | X-H torsion
[ 10718 10713 10712 10709 ] final   59.08 input   66.30 | X-H torsion
[ 10763 10752 10751 10750 ] final -109.52 input  -60.55 | X-H torsion
[ 11005 11000 10999 10996 ] final  112.20 input  -57.11 | X-H torsion

> <Gold.Protein.ActiveResidues>
 VAL166  LYS551  ARG553  GLY616  TRP617  ASP618  TYR619  PRO620  LYS621  CYS622 
 ASP623  PHE694  ASN695  SER759  ASP760  ASP761  ALA762  ILE779  LEU786  VAL792 
 PHE793  MET794  SER795  GLU796  ALA797  LYS798  CYS799  TRP800  GLU811  SER814 

> <Gold.Protein.RotatedAtoms>
  152.3283  133.5930  159.5791 H   0  0  0  0  0  0  0  0  0  0  0  0  # atno 6907 bound_to 6896
  150.7409  133.9907  159.3615 H   0  0  0  0  0  0  0  0  0  0  0  0  # atno 6908 bound_to 6896
  151.7784  135.0768  160.0421 H   0  0  0  0  0  0  0  0  0  0  0  0  # atno 6909 bound_to 6896
  145.2171  140.9119  143.3281 H   0  0  0  0  0  0  0  0  0  0  0  0  # atno 7974 bound_to 7965
  155.1557  140.0405  157.2831 H   0  0  0  0  0  0  0  0  0  0  0  0  # atno 8008 bound_to 7997
  154.6372  140.2538  155.7337 H   0  0  0  0  0  0  0  0  0  0  0  0  # atno 8009 bound_to 7997
  156.2514  140.2863  156.0750 H   0  0  0  0  0  0  0  0  0  0  0  0  # atno 8010 bound_to 7997
  140.3867  143.2723  151.9316 H   0  0  0  0  0  0  0  0  0  0  0  0  # atno 10167 bound_to 10162
  157.5647  130.8862  149.9168 H   0  0  0  0  0  0  0  0  0  0  0  0  # atno 10718 bound_to 10713
  154.8197  135.4598  154.0745 H   0  0  0  0  0  0  0  0  0  0  0  0  # atno 10763 bound_to 10752
  153.2108  135.6881  153.8123 H   0  0  0  0  0  0  0  0  0  0  0  0  # atno 10764 bound_to 10752
  153.7575  135.3289  155.3308 H   0  0  0  0  0  0  0  0  0  0  0  0  # atno 10765 bound_to 10752
  139.8921  134.9525  156.6549 H   0  0  0  0  0  0  0  0  0  0  0  0  # atno 11005 bound_to 11000
  144.9800  139.3793  143.6266 LP  0  0  0  0  0  0  0  0  0  0  0  0  # atno 17320 bound_to 7965
  146.3384  139.8937  142.8805 LP  0  0  0  0  0  0  0  0  0  0  0  0  # atno 17321 bound_to 7965
  139.4791  144.5767  151.8001 LP  0  0  0  0  0  0  0  0  0  0  0  0  # atno 17342 bound_to 10162
  140.4882  144.1350  150.5945 LP  0  0  0  0  0  0  0  0  0  0  0  0  # atno 17343 bound_to 10162
  156.0696  130.3687  150.0803 LP  0  0  0  0  0  0  0  0  0  0  0  0  # atno 17370 bound_to 10713
  156.8963  130.9605  151.3582 LP  0  0  0  0  0  0  0  0  0  0  0  0  # atno 17371 bound_to 10713
  140.7491  133.8912  155.8334 LP  0  0  0  0  0  0  0  0  0  0  0  0  # atno 17394 bound_to 11000
  141.0015  134.1144  157.4312 LP  0  0  0  0  0  0  0  0  0  0  0  0  # atno 17395 bound_to 11000

$$$$
