AV-unprocessed.smi:2173|AV-procd|sdf|8839|dock8
  -GOLD-   2272012 33D 1   1.00000     0.00000
 Structure written by MMmdl.
 35 36  0  0  0  0  0  0  0  0  1 V2000
  153.1107  140.1372  158.2884 O   0  0  0  0  0  0  0  0  0  0  0  0
  152.2802  141.0141  158.0476 C   0  0  0  0  0  0  0  0  0  0  0  0
  151.6099  141.0935  156.8882 N   0  0  0  0  0  0  0  0  0  0  0  0
  151.7025  140.1286  155.7973 C   0  0  0  0  0  0  0  0  0  0  0  0
  150.4759  139.1962  155.7089 C   0  0  0  0  0  0  0  0  0  0  0  0
  149.3149  139.7800  154.9192 C   0  0  0  0  0  0  0  0  0  0  0  0
  148.4343  138.9357  154.2101 C   0  0  0  0  0  0  0  0  0  0  0  0
  147.3878  139.5242  153.4736 C   0  0  0  0  0  0  0  0  0  0  0  0
  147.2632  140.9270  153.4727 C   0  0  0  0  0  0  0  0  0  0  0  0
  148.1932  141.6825  154.2139 C   0  0  0  0  0  0  0  0  0  0  0  0
  149.1990  141.1280  154.9235 N   0  0  0  0  0  0  0  0  0  0  0  0
  151.9467  142.0782  159.1010 C   0  0  1  0  0  0  0  0  0  0  0  0
  152.7553  141.8394  160.3967 C   0  0  0  0  0  0  0  0  0  0  0  0
  152.6414  143.0029  161.3654 C   0  0  0  0  0  0  0  0  0  0  0  0
  152.1915  144.2186  161.0104 C   0  0  0  0  0  0  0  0  0  0  0  0
  151.7515  144.5683  159.5994 C   0  0  0  0  0  0  0  0  0  0  0  0
  152.1862  143.5062  158.5709 C   0  0  0  0  0  0  0  0  0  0  0  0
  150.9478  141.8473  156.7749 H   0  0  0  0  0  0  0  0  0  0  0  0
  151.7918  140.6952  154.8701 H   0  0  0  0  0  0  0  0  0  0  0  0
  152.6186  139.5428  155.8881 H   0  0  0  0  0  0  0  0  0  0  0  0
  150.7709  138.2489  155.2566 H   0  0  0  0  0  0  0  0  0  0  0  0
  150.1289  138.9497  156.7135 H   0  0  0  0  0  0  0  0  0  0  0  0
  148.5598  137.8630  154.2263 H   0  0  0  0  0  0  0  0  0  0  0  0
  146.6942  138.9110  152.9177 H   0  0  0  0  0  0  0  0  0  0  0  0
  146.4740  141.4125  152.9180 H   0  0  0  0  0  0  0  0  0  0  0  0
  148.1290  142.7604  154.2362 H   0  0  0  0  0  0  0  0  0  0  0  0
  150.8857  141.9935  159.3443 H   0  0  0  0  0  0  0  0  0  0  0  0
  152.3961  140.9374  160.8935 H   0  0  0  0  0  0  0  0  0  0  0  0
  153.8131  141.6819  160.1813 H   0  0  0  0  0  0  0  0  0  0  0  0
  152.9548  142.8211  162.3829 H   0  0  0  0  0  0  0  0  0  0  0  0
  152.1205  145.0020  161.7507 H   0  0  0  0  0  0  0  0  0  0  0  0
  150.6660  144.6706  159.6007 H   0  0  0  0  0  0  0  0  0  0  0  0
  152.1615  145.5404  159.3248 H   0  0  0  0  0  0  0  0  0  0  0  0
  153.2466  143.6391  158.3494 H   0  0  0  0  0  0  0  0  0  0  0  0
  151.6542  143.6646  157.6318 H   0  0  0  0  0  0  0  0  0  0  0  0
  1  2  2  0  0  0  0
  2  3  1  0  0  0  0
  2 12  1  0  0  0  0
  3  4  1  0  0  0  0
  3 18  1  0  0  0  0
  4  5  1  0  0  0  0
  4 19  1  0  0  0  0
  4 20  1  0  0  0  0
  5  6  1  0  0  0  0
  5 21  1  0  0  0  0
  5 22  1  0  0  0  0
  6 11  1  0  0  0  0
  6  7  2  0  0  0  0
  7  8  1  0  0  0  0
  7 23  1  0  0  0  0
  8  9  2  0  0  0  0
  8 24  1  0  0  0  0
  9 10  1  0  0  0  0
  9 25  1  0  0  0  0
 10 11  2  0  0  0  0
 10 26  1  0  0  0  0
 12 17  1  0  0  0  0
 12 13  1  0  0  0  0
 12 27  1  0  0  0  0
 13 14  1  0  0  0  0
 13 28  1  0  0  0  0
 13 29  1  0  0  0  0
 14 15  2  0  0  0  0
 14 30  1  0  0  0  0
 15 16  1  0  0  0  0
 15 31  1  0  0  0  0
 16 17  1  0  0  0  0
 16 32  1  0  0  0  0
 16 33  1  0  0  0  0
 17 34  1  0  0  0  0
 17 35  1  0  0  0  0
M  END
> <s_m_source_file>
AV-unprocessed.smi

> <i_m_source_file_index>
2173

> <i_lp_mmshare_version>
43012

> <i_f3d_flags>
0

> <s_epik_input>
W0NIMl0xW0NIMl1bQ0hdPVtDSF1bQ0gyXVtDQEhdMUMoPU8pW05IXVtDSDJdW0NIMl1jMltjSF1bY0hdW2NIXVtjSF1uMg==

> <s_epik_cmdline>
J2VwaWtfcHl0aG9uJywgJy1waCcsICc3LjAnLCAnLXRuJywgJzgnLCAnLW1hJywgJzIwMCcsICctbWV0YWxfYmluZGluZycsICctaW1hZScsICc8aW5maWxlLm1hZT4nLCAnLW9tYWUnLCAnPG91dGZpbGUubWFlPic=

> <r_epik_Ionization_Penalty>
0.0268825

> <r_epik_Ionization_Penalty_Charging>
0

> <r_epik_Ionization_Penalty_Neutral>
0.0268825

> <r_epik_State_Penalty>
0.0219706

> <r_epik_Charging_Adjusted_Penalty>
0.0219706

> <i_epik_Tot_Q>
0

> <i_epik_Tot_abs_Q>
0

> <r_epik_Metal_State_Penalty>
0.0210138

> <b_epik_Metal_Only>
0

> <s_lp_Force_Field>
OPLS_2005

> <r_lp_Energy>
8.2635

> <b_lp_Chiralities_Consistent>
1

> <s_lp_Variant>
AV-unprocessed.smi:2173-2

> <Gold.Version>
5.8.1

> <Gold.Id.Protein>
6NUR|6NUR_protein|mol2

> <Gold.PLP.Fitness>
44.3979

> <Gold.PLP.PLP>
-39.6163

> <Gold.PLP.part.hbond>
-1.0000

> <Gold.PLP.part.metal>
0.0000

> <Gold.PLP.part.buried>
-3.0006

> <Gold.PLP.part.nonpolar>
-35.1864

> <Gold.PLP.part.repulsive>
0.2420

> <Gold.PLP.ligand.clash>
0.0000

> <Gold.PLP.ligand.torsion>
0.6227

> <Gold.PLP.Chemscore.Hbond>
1.0000

> <Gold.PLP.Chemscore.CHOScore>
1.0000

> <Gold.PLP.Chemscore.Metal>
0.0000

> <Gold.Chemscore.Hbonds>
donor molecule, donor type, donor heavy atom, donor atom, acceptor molecule, acceptor atom, score
      P1  H  7997  8008       L1     1  0.99
      L1  C    10    26       P1  8028  1.00

> <Gold.PLP.Chemscore.Internal.Correction>
0.0269

> <Gold.Rescore>
     Score         DG    S(hbond)    S(metal)    S(lipo)     H(rot)  DE(clash)    DE(int)     intcor
     17.57     -18.23       0.91        0.00     113.32       1.39       0.03       0.62       ----

> <Gold.Chemscore.Fitness>
17.5721

> <Gold.Chemscore.DG>
-18.2253

> <Gold.Chemscore.ZeroCoef>
-5.4800

> <Gold.Chemscore.Hbond>
0.9124

> <Gold.Chemscore.Metal>
0.0000

> <Gold.Chemscore.Lipo>
113.3162

> <Gold.Chemscore.Internal_Hbond>
0.0000

> <Gold.Chemscore.DEClash>
0.0285

> <Gold.Chemscore.DEInternal>
0.6246

> <Gold.Chemscore.Rot>
1.3907

> <Gold.Chemscore.Internal.Correction>
   9.000000E+99

> <Gold.Chemscore.Hbonds>
donor molecule, donor type, donor heavy atom, donor atom, acceptor molecule, acceptor atom, score
      P1  H  7997  8008       L1     1  0.85

> <Gold.Chemscore.Hbond.Weighted>
-3.0474

> <Gold.Chemscore.Metal.Weighted>
-0.0000

> <Gold.Chemscore.Lipo.Weighted>
-13.2580

> <Gold.Chemscore.Internal_Hbond.Weighted>
0.0000

> <Gold.Chemscore.DEClash.Weighted>
0.0285

> <Gold.Chemscore.DEInternal.Weighted>
0.6246

> <Gold.Chemscore.Rot.Weighted>
3.5601

> <Gold.Chemscore.Internal.Correction.Weighted>
   9.000000E+99

> <Gold.Protein.RotatedTorsions>
[ 6907 6896 6895 6894 ] final -133.26 input  -60.11 | X-H torsion
[ 7974 7965 7964 7962 ] final -108.36 input  175.53 | X-H torsion
[ 8008 7997 7996 7995 ] final  -87.91 input   59.86 | X-H torsion
[ 10167 10162 10161 10158 ] final  134.80 input  -65.29 | X-H torsion
[ 10718 10713 10712 10709 ] final  166.52 input   66.30 | X-H torsion
[ 10763 10752 10751 10750 ] final  124.54 input  -60.55 | X-H torsion
[ 11005 11000 10999 10996 ] final   58.97 input  -57.11 | X-H torsion

> <Gold.Protein.ActiveResidues>
 VAL166  LYS551  ARG553  GLY616  TRP617  ASP618  TYR619  PRO620  LYS621  CYS622 
 ASP623  PHE694  ASN695  SER759  ASP760  ASP761  ALA762  ILE779  LEU786  VAL792 
 PHE793  MET794  SER795  GLU796  ALA797  LYS798  CYS799  TRP800  GLU811  SER814 

> <Gold.Protein.RotatedAtoms>
  150.9720  133.6334  159.2736 H   0  0  0  0  0  0  0  0  0  0  0  0  # atno 6907 bound_to 6896
  151.3620  135.0904  159.9447 H   0  0  0  0  0  0  0  0  0  0  0  0  # atno 6908 bound_to 6896
  152.5186  133.9292  159.7626 H   0  0  0  0  0  0  0  0  0  0  0  0  # atno 6909 bound_to 6896
  145.1938  140.9026  143.3409 H   0  0  0  0  0  0  0  0  0  0  0  0  # atno 7974 bound_to 7965
  154.6686  140.0560  157.0141 H   0  0  0  0  0  0  0  0  0  0  0  0  # atno 8008 bound_to 7997
  155.1122  140.3239  155.4500 H   0  0  0  0  0  0  0  0  0  0  0  0  # atno 8009 bound_to 7997
  156.2648  140.2012  156.6246 H   0  0  0  0  0  0  0  0  0  0  0  0  # atno 8010 bound_to 7997
  139.5242  144.6549  151.5191 H   0  0  0  0  0  0  0  0  0  0  0  0  # atno 10167 bound_to 10162
  157.0647  131.0350  151.2634 H   0  0  0  0  0  0  0  0  0  0  0  0  # atno 10718 bound_to 10713
  153.6630  135.3343  155.3132 H   0  0  0  0  0  0  0  0  0  0  0  0  # atno 10763 bound_to 10752
  154.8510  135.4368  154.1784 H   0  0  0  0  0  0  0  0  0  0  0  0  # atno 10764 bound_to 10752
  153.2756  135.7004  153.7512 H   0  0  0  0  0  0  0  0  0  0  0  0  # atno 10765 bound_to 10752
  140.0338  134.5972  155.9471 H   0  0  0  0  0  0  0  0  0  0  0  0  # atno 11005 bound_to 11000
  145.0015  139.3594  143.6165 LP  0  0  0  0  0  0  0  0  0  0  0  0  # atno 17320 bound_to 7965
  146.3431  139.9240  142.8763 LP  0  0  0  0  0  0  0  0  0  0  0  0  # atno 17321 bound_to 7965
  140.6370  143.8964  150.6657 LP  0  0  0  0  0  0  0  0  0  0  0  0  # atno 17342 bound_to 10162
  140.2286  143.3753  152.1584 LP  0  0  0  0  0  0  0  0  0  0  0  0  # atno 17343 bound_to 10162
  157.4926  130.7831  149.7523 LP  0  0  0  0  0  0  0  0  0  0  0  0  # atno 17370 bound_to 10713
  155.9968  130.3904  150.2765 LP  0  0  0  0  0  0  0  0  0  0  0  0  # atno 17371 bound_to 10713
  141.1846  133.6553  156.5164 LP  0  0  0  0  0  0  0  0  0  0  0  0  # atno 17394 bound_to 11000
  140.4181  134.7212  157.4874 LP  0  0  0  0  0  0  0  0  0  0  0  0  # atno 17395 bound_to 11000

$$$$
