AV-unprocessed.smi:3268|AV-procd|sdf|12508|dock6
  -GOLD-   2272018413D 1   1.00000     0.00000
 Structure written by MMmdl.
 40 41  0  0  0  0  0  0  0  0  2 V2000
  150.4830  139.7016  155.6556 C   0  0  0  0  0  0  0  0  0  0  0  0
  150.2912  138.3162  155.0063 C   0  0  2  0  0  0  0  0  0  0  0  0
  148.9587  137.6733  155.4182 C   0  0  0  0  0  0  0  0  0  0  0  0
  148.3327  138.1013  156.3885 O   0  0  0  0  0  0  0  0  0  0  0  0
  148.5324  136.6420  154.6712 N   0  0  0  0  0  0  0  0  0  0  0  0
  147.2968  135.9005  154.8973 C   0  0  0  0  0  0  0  0  0  0  0  0
  146.1518  136.4181  154.0041 C   0  0  0  0  0  0  0  0  0  0  0  0
  146.1148  135.7420  152.6829 N   0  3  0  0  0  0  0  0  0  0  0  0
  145.7819  134.2976  152.8006 C   0  0  0  0  0  0  0  0  0  0  0  0
  145.8758  133.5887  151.4389 C   0  0  0  0  0  0  0  0  0  0  0  0
  144.9765  134.2709  150.4005 C   0  0  0  0  0  0  0  0  0  0  0  0
  145.3175  135.7639  150.3154 C   0  0  0  0  0  0  0  0  0  0  0  0
  145.2335  136.4286  151.6999 C   0  0  0  0  0  0  0  0  0  0  0  0
  151.3975  137.4102  155.2921 N   0  0  0  0  0  0  0  0  0  0  0  0
  151.5439  136.1170  154.9947 C   0  0  0  0  0  0  0  0  0  0  0  0
  152.6681  135.5824  155.4506 N   0  0  0  0  0  0  0  0  0  0  0  0
  153.2021  136.6733  156.0756 C   0  0  0  0  0  0  0  0  0  0  0  0
  152.4768  137.7901  156.0214 N   0  0  0  0  0  0  0  0  0  0  0  0
  149.6723  140.3779  155.3822 H   0  0  0  0  0  0  0  0  0  0  0  0
  151.4150  140.1601  155.3240 H   0  0  0  0  0  0  0  0  0  0  0  0
  150.5114  139.6468  156.7448 H   0  0  0  0  0  0  0  0  0  0  0  0
  150.2764  138.4662  153.9253 H   0  0  0  0  0  0  0  0  0  0  0  0
  149.1063  136.3502  153.8930 H   0  0  0  0  0  0  0  0  0  0  0  0
  147.5073  134.8516  154.6912 H   0  0  0  0  0  0  0  0  0  0  0  0
  147.0169  135.9602  155.9505 H   0  0  0  0  0  0  0  0  0  0  0  0
  145.2071  136.2373  154.5185 H   0  0  0  0  0  0  0  0  0  0  0  0
  146.2224  137.4984  153.8674 H   0  0  0  0  0  0  0  0  0  0  0  0
  146.4685  133.8159  153.4981 H   0  0  0  0  0  0  0  0  0  0  0  0
  144.7785  134.1866  153.2153 H   0  0  0  0  0  0  0  0  0  0  0  0
  146.9098  133.5980  151.0912 H   0  0  0  0  0  0  0  0  0  0  0  0
  145.5947  132.5402  151.5439 H   0  0  0  0  0  0  0  0  0  0  0  0
  145.0994  133.7992  149.4250 H   0  0  0  0  0  0  0  0  0  0  0  0
  143.9294  134.1460  150.6793 H   0  0  0  0  0  0  0  0  0  0  0  0
  146.3221  135.8887  149.9088 H   0  0  0  0  0  0  0  0  0  0  0  0
  144.6386  136.2611  149.6216 H   0  0  0  0  0  0  0  0  0  0  0  0
  144.2034  136.4113  152.0597 H   0  0  0  0  0  0  0  0  0  0  0  0
  145.5154  137.4763  151.6045 H   0  0  0  0  0  0  0  0  0  0  0  0
  150.8118  135.5540  154.4347 H   0  0  0  0  0  0  0  0  0  0  0  0
  154.1509  136.6421  156.5910 H   0  0  0  0  0  0  0  0  0  0  0  0
  147.0552  135.7814  152.3161 H   0  0  0  0  0  0  0  0  0  0  0  0
  1  2  1  0  0  0  0
  1 19  1  0  0  0  0
  1 20  1  0  0  0  0
  1 21  1  0  0  0  0
  2  3  1  0  0  0  0
  2 14  1  0  0  0  0
  2 22  1  0  0  0  0
  3  4  2  0  0  0  0
  3  5  1  0  0  0  0
  5  6  1  0  0  0  0
  5 23  1  0  0  0  0
  6  7  1  0  0  0  0
  6 24  1  0  0  0  0
  6 25  1  0  0  0  0
  7  8  1  0  0  0  0
  7 26  1  0  0  0  0
  7 27  1  0  0  0  0
  8 13  1  0  0  0  0
  8  9  1  0  0  0  0
  8 40  1  0  0  0  0
  9 10  1  0  0  0  0
  9 28  1  0  0  0  0
  9 29  1  0  0  0  0
 10 11  1  0  0  0  0
 10 30  1  0  0  0  0
 10 31  1  0  0  0  0
 11 12  1  0  0  0  0
 11 32  1  0  0  0  0
 11 33  1  0  0  0  0
 12 13  1  0  0  0  0
 12 34  1  0  0  0  0
 12 35  1  0  0  0  0
 13 36  1  0  0  0  0
 13 37  1  0  0  0  0
 14 18  1  0  0  0  0
 14 15  1  0  0  0  0
 15 16  2  0  0  0  0
 15 38  1  0  0  0  0
 16 17  1  0  0  0  0
 17 18  2  0  0  0  0
 17 39  1  0  0  0  0
M  CHG  1   8   1
M  END
> <s_m_source_file>
AV-unprocessed.smi

> <i_m_source_file_index>
3268

> <i_lp_mmshare_version>
43012

> <i_f3d_flags>
0

> <s_epik_input>
bjFbY0hdbltjSF1uMVtDQEhdKFtDSDNdKUMoPU8pW05IXVtDSDJdW0NIMl1OMltDSDJdW0NIMl1bQ0gyXVtDSDJdW0NIMl0y

> <s_epik_cmdline>
J2VwaWtfcHl0aG9uJywgJy1waCcsICc3LjAnLCAnLXRuJywgJzgnLCAnLW1hJywgJzIwMCcsICctbWV0YWxfYmluZGluZycsICctaW1hZScsICc8aW5maWxlLm1hZT4nLCAnLW9tYWUnLCAnPG91dGZpbGUubWFlPic=

> <r_lp_tautomer_probability>
1

> <r_epik_Ionization_Penalty>
0.00266407

> <r_epik_Ionization_Penalty_Charging>
0.00265606

> <r_epik_Ionization_Penalty_Neutral>
8.01095e-06

> <r_epik_State_Penalty>
0.00184955

> <r_epik_Charging_Adjusted_Penalty>
0.00450561

> <i_epik_Tot_Q>
1

> <i_epik_Tot_abs_Q>
1

> <r_epik_Metal_State_Penalty>
-0

> <b_epik_Metal_Only>
0

> <s_lp_Force_Field>
OPLS_2005

> <r_lp_Energy>
22.0187

> <b_lp_Chiralities_Consistent>
1

> <s_lp_Variant>
AV-unprocessed.smi:3268-1

> <Gold.Version>
5.8.1

> <Gold.Id.Protein>
6NUR|6NUR_protein|mol2

> <Gold.PLP.Fitness>
42.7432

> <Gold.PLP.PLP>
-30.9683

> <Gold.PLP.part.hbond>
-4.0000

> <Gold.PLP.part.metal>
0.0000

> <Gold.PLP.part.buried>
-0.6581

> <Gold.PLP.part.nonpolar>
-25.0102

> <Gold.PLP.part.repulsive>
0.1171

> <Gold.PLP.ligand.clash>
0.0000

> <Gold.PLP.ligand.torsion>
0.7920

> <Gold.PLP.Chemscore.Hbond>
3.3615

> <Gold.PLP.Chemscore.CHOScore>
1.0528

> <Gold.PLP.Chemscore.Metal>
0.0000

> <Gold.Chemscore.Hbonds>
donor molecule, donor type, donor heavy atom, donor atom, acceptor molecule, acceptor atom, score
      L1  H     5    23       P1  7948  0.78
      L1  H     8    40       P1  7948  2.00

> <Gold.PLP.Chemscore.Internal.Correction>
0.1160

> <Gold.Rescore>
     Score         DG    S(hbond)    S(metal)    S(lipo)     H(rot)  DE(clash)    DE(int)     intcor
      9.44     -11.74       2.25        0.00      45.56       2.57       0.59       1.71       ----

> <Gold.Chemscore.Fitness>
9.4439

> <Gold.Chemscore.DG>
-11.7423

> <Gold.Chemscore.ZeroCoef>
-5.4800

> <Gold.Chemscore.Hbond>
2.2479

> <Gold.Chemscore.Metal>
0.0000

> <Gold.Chemscore.Lipo>
45.5638

> <Gold.Chemscore.Internal_Hbond>
0.0000

> <Gold.Chemscore.DEClash>
0.5896

> <Gold.Chemscore.DEInternal>
1.7088

> <Gold.Chemscore.Rot>
2.5690

> <Gold.Chemscore.Internal.Correction>
   9.000000E+99

> <Gold.Chemscore.Hbonds>
donor molecule, donor type, donor heavy atom, donor atom, acceptor molecule, acceptor atom, score
      L1  H     5    23       P1  7948  0.72
      L1  H     8    40       P1  7948  0.97

> <Gold.Chemscore.Hbond.Weighted>
-7.5079

> <Gold.Chemscore.Metal.Weighted>
-0.0000

> <Gold.Chemscore.Lipo.Weighted>
-5.3310

> <Gold.Chemscore.Internal_Hbond.Weighted>
0.0000

> <Gold.Chemscore.DEClash.Weighted>
0.5896

> <Gold.Chemscore.DEInternal.Weighted>
1.7088

> <Gold.Chemscore.Rot.Weighted>
6.5766

> <Gold.Chemscore.Internal.Correction.Weighted>
   9.000000E+99

> <Gold.Protein.RotatedTorsions>
[ 6907 6896 6895 6894 ] final  -79.97 input  -60.11 | X-H torsion
[ 7974 7965 7964 7962 ] final -158.44 input  175.53 | X-H torsion
[ 8008 7997 7996 7995 ] final -141.33 input   59.86 | X-H torsion
[ 10167 10162 10161 10158 ] final   17.17 input  -65.29 | X-H torsion
[ 10718 10713 10712 10709 ] final   96.50 input   66.30 | X-H torsion
[ 10763 10752 10751 10750 ] final    6.97 input  -60.55 | X-H torsion
[ 11005 11000 10999 10996 ] final -156.72 input  -57.11 | X-H torsion

> <Gold.Protein.ActiveResidues>
 VAL166  LYS551  ARG553  GLY616  TRP617  ASP618  TYR619  PRO620  LYS621  CYS622 
 ASP623  PHE694  ASN695  SER759  ASP760  ASP761  ALA762  ILE779  LEU786  VAL792 
 PHE793  MET794  SER795  GLU796  ALA797  LYS798  CYS799  TRP800  GLU811  SER814 

> <Gold.Protein.RotatedAtoms>
  150.6939  134.4040  159.5131 H   0  0  0  0  0  0  0  0  0  0  0  0  # atno 6907 bound_to 6896
  152.1809  134.8752  160.0535 H   0  0  0  0  0  0  0  0  0  0  0  0  # atno 6908 bound_to 6896
  151.9743  133.3701  159.4120 H   0  0  0  0  0  0  0  0  0  0  0  0  # atno 6909 bound_to 6896
  144.7505  140.3827  143.6051 H   0  0  0  0  0  0  0  0  0  0  0  0  # atno 7974 bound_to 7965
  155.4761  140.0556  157.2973 H   0  0  0  0  0  0  0  0  0  0  0  0  # atno 8008 bound_to 7997
  154.4679  140.2027  156.0024 H   0  0  0  0  0  0  0  0  0  0  0  0  # atno 8009 bound_to 7997
  156.1005  140.3220  155.7941 H   0  0  0  0  0  0  0  0  0  0  0  0  # atno 8010 bound_to 7997
  140.5745  143.9098  150.6739 H   0  0  0  0  0  0  0  0  0  0  0  0  # atno 10167 bound_to 10162
  157.6926  131.0580  150.4501 H   0  0  0  0  0  0  0  0  0  0  0  0  # atno 10718 bound_to 10713
  153.2416  135.6904  153.7777 H   0  0  0  0  0  0  0  0  0  0  0  0  # atno 10763 bound_to 10752
  153.6904  135.3314  155.3201 H   0  0  0  0  0  0  0  0  0  0  0  0  # atno 10764 bound_to 10752
  154.8358  135.4544  154.1340 H   0  0  0  0  0  0  0  0  0  0  0  0  # atno 10765 bound_to 10752
  140.6725  134.4232  157.5231 H   0  0  0  0  0  0  0  0  0  0  0  0  # atno 11005 bound_to 11000
  145.6960  139.1650  143.2619 LP  0  0  0  0  0  0  0  0  0  0  0  0  # atno 17320 bound_to 7965
  146.1449  140.7006  142.9349 LP  0  0  0  0  0  0  0  0  0  0  0  0  # atno 17321 bound_to 7965
  140.2582  143.3543  152.1346 LP  0  0  0  0  0  0  0  0  0  0  0  0  # atno 17342 bound_to 10162
  139.5135  144.6934  151.5697 LP  0  0  0  0  0  0  0  0  0  0  0  0  # atno 17343 bound_to 10162
  156.4853  130.4083  149.6438 LP  0  0  0  0  0  0  0  0  0  0  0  0  # atno 17370 bound_to 10713
  156.3468  130.7411  151.2364 LP  0  0  0  0  0  0  0  0  0  0  0  0  # atno 17371 bound_to 10713
  139.8977  134.8630  156.2033 LP  0  0  0  0  0  0  0  0  0  0  0  0  # atno 17394 bound_to 11000
  141.0381  133.6952  156.1548 LP  0  0  0  0  0  0  0  0  0  0  0  0  # atno 17395 bound_to 11000

$$$$
