AV-unprocessed.smi:2991|AV-procd|sdf|11400|dock1
  -GOLD-   2272016323D 1   1.00000     0.00000
 Structure written by MMmdl.
 38 39  0  0  0  0  0  0  0  0  2 V2000
  150.4655  141.1450  155.6025 C   0  0  0  0  0  0  0  0  0  0  0  0
  149.1855  140.8785  154.8340 C   0  0  0  0  0  0  0  0  0  0  0  0
  148.3040  141.8949  154.7092 N   0  3  0  0  0  0  0  0  0  0  0  0
  147.1370  141.7785  154.0424 C   0  0  0  0  0  0  0  0  0  0  0  0
  146.7900  140.5525  153.4422 C   0  0  0  0  0  0  0  0  0  0  0  0
  147.6707  139.4469  153.5561 C   0  0  0  0  0  0  0  0  0  0  0  0
  147.4076  138.1800  152.9639 N   0  0  0  0  0  0  0  0  0  0  0  0
  146.2303  137.5482  152.8224 C   0  0  0  0  0  0  0  0  0  0  0  0
  145.1419  137.9778  153.2044 O   0  0  0  0  0  0  0  0  0  0  0  0
  146.3888  136.3623  152.2175 N   0  0  0  0  0  0  0  0  0  0  0  0
  145.3264  135.3967  151.9321 C   0  0  1  0  0  0  0  0  0  0  0  0
  145.7761  134.4281  150.8154 C   0  0  0  0  0  0  0  0  0  0  0  0
  144.6150  133.7510  150.0697 C   0  0  0  0  0  0  0  0  0  0  0  0
  143.7354  132.8392  150.9380 C   0  0  0  0  0  0  0  0  0  0  0  0
  142.9575  133.5914  152.0314 C   0  0  0  0  0  0  0  0  0  0  0  0
  143.7829  133.9062  153.1906 N   0  0  0  0  0  0  0  0  0  0  0  0
  144.8644  134.6996  153.2259 C   0  0  0  0  0  0  0  0  0  0  0  0
  145.4843  134.8636  154.2767 O   0  0  0  0  0  0  0  0  0  0  0  0
  148.8919  139.6222  154.2532 C   0  0  0  0  0  0  0  0  0  0  0  0
  150.0160  138.3132  154.4027 Cl  0  0  0  0  0  0  0  0  0  0  0  0
  150.5305  140.4881  156.4703 H   0  0  0  0  0  0  0  0  0  0  0  0
  150.5123  142.1761  155.9537 H   0  0  0  0  0  0  0  0  0  0  0  0
  151.3337  140.9647  154.9684 H   0  0  0  0  0  0  0  0  0  0  0  0
  146.5220  142.6659  154.0035 H   0  0  0  0  0  0  0  0  0  0  0  0
  145.8617  140.4881  152.8955 H   0  0  0  0  0  0  0  0  0  0  0  0
  148.2247  137.6589  152.6798 H   0  0  0  0  0  0  0  0  0  0  0  0
  147.3223  136.0861  151.9486 H   0  0  0  0  0  0  0  0  0  0  0  0
  144.4685  135.9672  151.5706 H   0  0  0  0  0  0  0  0  0  0  0  0
  146.3612  134.9728  150.0732 H   0  0  0  0  0  0  0  0  0  0  0  0
  146.4499  133.6732  151.2233 H   0  0  0  0  0  0  0  0  0  0  0  0
  143.9941  134.5122  149.5956 H   0  0  0  0  0  0  0  0  0  0  0  0
  145.0292  133.1572  149.2543 H   0  0  0  0  0  0  0  0  0  0  0  0
  143.0152  132.3464  150.2842 H   0  0  0  0  0  0  0  0  0  0  0  0
  144.3335  132.0402  151.3782 H   0  0  0  0  0  0  0  0  0  0  0  0
  142.4950  134.4965  151.6354 H   0  0  0  0  0  0  0  0  0  0  0  0
  142.1411  132.9613  152.3848 H   0  0  0  0  0  0  0  0  0  0  0  0
  143.5113  133.4681  154.0591 H   0  0  0  0  0  0  0  0  0  0  0  0
  148.5342  142.7934  155.1344 H   0  0  0  0  0  0  0  0  0  0  0  0
  1  2  1  0  0  0  0
  1 21  1  0  0  0  0
  1 22  1  0  0  0  0
  1 23  1  0  0  0  0
  2 19  1  0  0  0  0
  2  3  2  0  0  0  0
  3  4  1  0  0  0  0
  3 38  1  0  0  0  0
  4  5  2  0  0  0  0
  4 24  1  0  0  0  0
  5  6  1  0  0  0  0
  5 25  1  0  0  0  0
  6  7  1  0  0  0  0
  6 19  2  0  0  0  0
  7  8  1  0  0  0  0
  7 26  1  0  0  0  0
  8  9  2  0  0  0  0
  8 10  1  0  0  0  0
 10 11  1  0  0  0  0
 10 27  1  0  0  0  0
 11 17  1  0  0  0  0
 11 12  1  0  0  0  0
 11 28  1  0  0  0  0
 12 13  1  0  0  0  0
 12 29  1  0  0  0  0
 12 30  1  0  0  0  0
 13 14  1  0  0  0  0
 13 31  1  0  0  0  0
 13 32  1  0  0  0  0
 14 15  1  0  0  0  0
 14 33  1  0  0  0  0
 14 34  1  0  0  0  0
 15 16  1  0  0  0  0
 15 35  1  0  0  0  0
 15 36  1  0  0  0  0
 16 17  1  0  0  0  0
 16 37  1  0  0  0  0
 17 18  2  0  0  0  0
 19 20  1  0  0  0  0
M  CHG  1   3   1
M  END
> <s_m_source_file>
AV-unprocessed.smi

> <i_m_source_file_index>
2991

> <i_lp_mmshare_version>
43012

> <i_f3d_flags>
0

> <s_epik_input>
W0NIM11jMW5bY0hdW2NIXWMoYzFDbClbTkhdQyg9TylbTkhdW0NAQEhdMltDSDJdW0NIMl1bQ0gyXVtDSDJdW05IXUMyPU8=

> <s_epik_cmdline>
J2VwaWtfcHl0aG9uJywgJy1waCcsICc3LjAnLCAnLXRuJywgJzgnLCAnLW1hJywgJzIwMCcsICctbWV0YWxfYmluZGluZycsICctaW1hZScsICc8aW5maWxlLm1hZT4nLCAnLW9tYWUnLCAnPG91dGZpbGUubWFlPic=

> <r_epik_Ionization_Penalty>
2.55031

> <r_epik_Ionization_Penalty_Charging>
2.55029

> <r_epik_Ionization_Penalty_Neutral>
1.86001e-05

> <r_epik_State_Penalty>
2.71882

> <r_epik_Charging_Adjusted_Penalty>
5.26911

> <i_epik_Tot_Q>
1

> <i_epik_Tot_abs_Q>
1

> <r_epik_Metal_State_Penalty>
2.7268

> <b_epik_Metal_Only>
0

> <s_lp_Force_Field>
OPLS_2005

> <r_lp_Energy>
20.593

> <b_lp_Chiralities_Consistent>
1

> <s_lp_Variant>
AV-unprocessed.smi:2991-4

> <Gold.Version>
5.8.1

> <Gold.Id.Protein>
6NUR|6NUR_protein|mol2

> <Gold.PLP.Fitness>
45.8997

> <Gold.PLP.PLP>
-32.4159

> <Gold.PLP.part.hbond>
-4.0000

> <Gold.PLP.part.metal>
0.0000

> <Gold.PLP.part.buried>
-0.7077

> <Gold.PLP.part.nonpolar>
-29.0196

> <Gold.PLP.part.repulsive>
1.6196

> <Gold.PLP.ligand.clash>
0.0000

> <Gold.PLP.ligand.torsion>
0.4684

> <Gold.PLP.Chemscore.Hbond>
4.7977

> <Gold.PLP.Chemscore.CHOScore>
0.0000

> <Gold.PLP.Chemscore.Metal>
0.0000

> <Gold.Chemscore.Hbonds>
donor molecule, donor type, donor heavy atom, donor atom, acceptor molecule, acceptor atom, score
      L1  H     3    38       P1  8028  2.00
      L1  H     7    26       P1  7948  1.00
      L1  H    10    27       P1  7948  1.00
      L1  H    16    37       P1 10957  0.81

> <Gold.PLP.Chemscore.Internal.Correction>
0.0276

> <Gold.Rescore>
     Score         DG    S(hbond)    S(metal)    S(lipo)     H(rot)  DE(clash)    DE(int)     intcor
     22.77     -24.00       3.63        0.00      76.43       1.00       0.14       1.09       ----

> <Gold.Chemscore.Fitness>
22.7657

> <Gold.Chemscore.DG>
-23.9988

> <Gold.Chemscore.ZeroCoef>
-5.4800

> <Gold.Chemscore.Hbond>
3.6336

> <Gold.Chemscore.Metal>
0.0000

> <Gold.Chemscore.Lipo>
76.4313

> <Gold.Chemscore.Internal_Hbond>
0.0000

> <Gold.Chemscore.DEClash>
0.1403

> <Gold.Chemscore.DEInternal>
1.0928

> <Gold.Chemscore.Rot>
1.0000

> <Gold.Chemscore.Internal.Correction>
   9.000000E+99

> <Gold.Chemscore.Hbonds>
donor molecule, donor type, donor heavy atom, donor atom, acceptor molecule, acceptor atom, score
      L1  H     3    38       P1  8028  0.95
      L1  H     7    26       P1  7948  0.95
      L1  H    10    27       P1  7948  0.98
      L1  H    16    37       P1 10957  0.75

> <Gold.Chemscore.Hbond.Weighted>
-12.1363

> <Gold.Chemscore.Metal.Weighted>
-0.0000

> <Gold.Chemscore.Lipo.Weighted>
-8.9425

> <Gold.Chemscore.Internal_Hbond.Weighted>
0.0000

> <Gold.Chemscore.DEClash.Weighted>
0.1403

> <Gold.Chemscore.DEInternal.Weighted>
1.0928

> <Gold.Chemscore.Rot.Weighted>
2.5600

> <Gold.Chemscore.Internal.Correction.Weighted>
   9.000000E+99

> <Gold.Protein.RotatedTorsions>
[ 6907 6896 6895 6894 ] final  -56.40 input  -60.11 | X-H torsion
[ 7974 7965 7964 7962 ] final  -84.02 input  175.53 | X-H torsion
[ 8008 7997 7996 7995 ] final  160.39 input   59.86 | X-H torsion
[ 10167 10162 10161 10158 ] final  -97.93 input  -65.29 | X-H torsion
[ 10718 10713 10712 10709 ] final -124.40 input   66.30 | X-H torsion
[ 10763 10752 10751 10750 ] final   93.02 input  -60.55 | X-H torsion
[ 11005 11000 10999 10996 ] final   47.12 input  -57.11 | X-H torsion

> <Gold.Protein.ActiveResidues>
 VAL166  LYS551  ARG553  GLY616  TRP617  ASP618  TYR619  PRO620  LYS621  CYS622 
 ASP623  PHE694  ASN695  SER759  ASP760  ASP761  ALA762  ILE779  LEU786  VAL792 
 PHE793  MET794  SER795  GLU796  ALA797  LYS798  CYS799  TRP800  GLU811  SER814 

> <Gold.Protein.RotatedAtoms>
  150.8171  134.7358  159.6738 H   0  0  0  0  0  0  0  0  0  0  0  0  # atno 6907 bound_to 6896
  152.4289  134.5813  159.9958 H   0  0  0  0  0  0  0  0  0  0  0  0  # atno 6908 bound_to 6896
  151.6007  133.3319  159.3083 H   0  0  0  0  0  0  0  0  0  0  0  0  # atno 6909 bound_to 6896
  145.5122  140.9539  143.1701 H   0  0  0  0  0  0  0  0  0  0  0  0  # atno 7974 bound_to 7965
  156.2175  140.1805  156.7555 H   0  0  0  0  0  0  0  0  0  0  0  0  # atno 8008 bound_to 7997
  154.5814  140.0665  156.9138 H   0  0  0  0  0  0  0  0  0  0  0  0  # atno 8009 bound_to 7997
  155.2496  140.3328  155.4286 H   0  0  0  0  0  0  0  0  0  0  0  0  # atno 8010 bound_to 7997
  140.2783  143.3298  152.0466 H   0  0  0  0  0  0  0  0  0  0  0  0  # atno 10167 bound_to 10162
  156.1585  130.6585  151.0015 H   0  0  0  0  0  0  0  0  0  0  0  0  # atno 10718 bound_to 10713
  153.2256  135.4340  155.0538 H   0  0  0  0  0  0  0  0  0  0  0  0  # atno 10763 bound_to 10752
  154.8272  135.3367  154.6862 H   0  0  0  0  0  0  0  0  0  0  0  0  # atno 10764 bound_to 10752
  153.7292  135.7012  153.5049 H   0  0  0  0  0  0  0  0  0  0  0  0  # atno 10765 bound_to 10752
  140.1308  134.4709  155.8523 H   0  0  0  0  0  0  0  0  0  0  0  0  # atno 11005 bound_to 11000
  144.7721  139.6711  143.7190 LP  0  0  0  0  0  0  0  0  0  0  0  0  # atno 17320 bound_to 7965
  146.2159  139.5549  142.9650 LP  0  0  0  0  0  0  0  0  0  0  0  0  # atno 17321 bound_to 7965
  139.4969  144.6609  151.6466 LP  0  0  0  0  0  0  0  0  0  0  0  0  # atno 17342 bound_to 10162
  140.5833  143.9908  150.6281 LP  0  0  0  0  0  0  0  0  0  0  0  0  # atno 17343 bound_to 10162
  157.6714  131.0860  150.7604 LP  0  0  0  0  0  0  0  0  0  0  0  0  # atno 17370 bound_to 10713
  156.7667  130.4816  149.5426 LP  0  0  0  0  0  0  0  0  0  0  0  0  # atno 17371 bound_to 10713
  141.2170  133.6795  156.7065 LP  0  0  0  0  0  0  0  0  0  0  0  0  # atno 17394 bound_to 11000
  140.2845  134.8290  157.3963 LP  0  0  0  0  0  0  0  0  0  0  0  0  # atno 17395 bound_to 11000

$$$$
