AV-unprocessed.smi:2859|AV-procd|sdf|11004|dock5
  -GOLD-   2272015463D 1   1.00000     0.00000
 Structure written by MMmdl.
 51 52  0  0  0  0  0  0  0  0  1 V2000
  145.4998  135.6616  162.3880 C   0  0  0  0  0  0  0  0  0  0  0  0
  146.9194  135.4651  161.8102 C   0  0  0  0  0  0  0  0  0  0  0  0
  147.9123  136.1512  162.7713 C   0  0  0  0  0  0  0  0  0  0  0  0
  147.1975  133.9483  161.7642 C   0  0  0  0  0  0  0  0  0  0  0  0
  147.0681  136.0615  160.4001 C   0  0  0  0  0  0  0  0  0  0  0  0
  148.2168  135.8833  159.5919 C   0  0  0  0  0  0  0  0  0  0  0  0
  148.2033  136.4743  158.3038 C   0  0  0  0  0  0  0  0  0  0  0  0
  149.2843  136.3647  157.3993 N   0  0  0  0  0  0  0  0  0  0  0  0
  149.6973  135.0344  156.9626 C   0  0  0  0  0  0  0  0  0  0  0  0
  151.0672  135.0958  156.2700 C   0  0  0  0  0  0  0  0  0  0  0  0
  151.0250  136.0394  155.2069 O   0  0  0  0  0  0  0  0  0  0  0  0
  150.7614  137.3625  155.6731 C   0  0  1  0  0  0  0  0  0  0  0  0
  150.8441  138.3309  154.4837 C   0  0  0  0  0  0  0  0  0  0  0  0
  150.1603  138.0059  153.3826 N   0  0  0  0  0  0  0  0  0  0  0  0
  151.5277  139.3516  154.5430 O   0  0  0  0  0  0  0  0  0  0  0  0
  149.3787  137.3939  156.3631 C   0  0  0  0  0  0  0  0  0  0  0  0
  147.1260  137.1841  157.8958 N   0  0  0  0  0  0  0  0  0  0  0  0
  146.1005  137.3393  158.7391 C   0  0  0  0  0  0  0  0  0  0  0  0
  144.8353  138.0210  158.1922 C   0  0  0  0  0  0  0  0  0  0  0  0
  145.1038  138.5269  156.7632 C   0  0  0  0  0  0  0  0  0  0  0  0
  144.4102  139.2080  159.0888 C   0  0  0  0  0  0  0  0  0  0  0  0
  143.6386  137.0407  158.1816 C   0  0  0  0  0  0  0  0  0  0  0  0
  146.0149  136.7803  159.9499 N   0  0  0  0  0  0  0  0  0  0  0  0
  145.4169  135.2314  163.3867 H   0  0  0  0  0  0  0  0  0  0  0  0
  144.7425  135.1785  161.7693 H   0  0  0  0  0  0  0  0  0  0  0  0
  145.2423  136.7180  162.4747 H   0  0  0  0  0  0  0  0  0  0  0  0
  147.7403  137.2273  162.8148 H   0  0  0  0  0  0  0  0  0  0  0  0
  148.9470  135.9965  162.4633 H   0  0  0  0  0  0  0  0  0  0  0  0
  147.8181  135.7616  163.7855 H   0  0  0  0  0  0  0  0  0  0  0  0
  147.0827  133.4932  162.7485 H   0  0  0  0  0  0  0  0  0  0  0  0
  148.2117  133.7318  161.4269 H   0  0  0  0  0  0  0  0  0  0  0  0
  146.5106  133.4418  161.0850 H   0  0  0  0  0  0  0  0  0  0  0  0
  149.0587  135.3059  159.9365 H   0  0  0  0  0  0  0  0  0  0  0  0
  149.7710  134.3594  157.8157 H   0  0  0  0  0  0  0  0  0  0  0  0
  148.9478  134.6290  156.2816 H   0  0  0  0  0  0  0  0  0  0  0  0
  151.8511  135.3647  156.9798 H   0  0  0  0  0  0  0  0  0  0  0  0
  151.3263  134.1171  155.8659 H   0  0  0  0  0  0  0  0  0  0  0  0
  151.5353  137.6528  156.3858 H   0  0  0  0  0  0  0  0  0  0  0  0
  150.1955  138.6113  152.5751 H   0  0  0  0  0  0  0  0  0  0  0  0
  149.6197  137.1537  153.3594 H   0  0  0  0  0  0  0  0  0  0  0  0
  148.5852  137.2253  155.6335 H   0  0  0  0  0  0  0  0  0  0  0  0
  149.2209  138.3883  156.7816 H   0  0  0  0  0  0  0  0  0  0  0  0
  144.2261  139.0192  156.3433 H   0  0  0  0  0  0  0  0  0  0  0  0
  145.3718  137.7063  156.0966 H   0  0  0  0  0  0  0  0  0  0  0  0
  145.9246  139.2451  156.7462 H   0  0  0  0  0  0  0  0  0  0  0  0
  145.1639  139.9963  159.1082 H   0  0  0  0  0  0  0  0  0  0  0  0
  144.2402  138.8878  160.1176 H   0  0  0  0  0  0  0  0  0  0  0  0
  143.4870  139.6652  158.7315 H   0  0  0  0  0  0  0  0  0  0  0  0
  142.7269  137.5309  157.8385 H   0  0  0  0  0  0  0  0  0  0  0  0
  143.4421  136.6437  159.1783 H   0  0  0  0  0  0  0  0  0  0  0  0
  143.8093  136.1934  157.5162 H   0  0  0  0  0  0  0  0  0  0  0  0
  1  2  1  0  0  0  0
  1 24  1  0  0  0  0
  1 25  1  0  0  0  0
  1 26  1  0  0  0  0
  2  3  1  0  0  0  0
  2  4  1  0  0  0  0
  2  5  1  0  0  0  0
  3 27  1  0  0  0  0
  3 28  1  0  0  0  0
  3 29  1  0  0  0  0
  4 30  1  0  0  0  0
  4 31  1  0  0  0  0
  4 32  1  0  0  0  0
  5 23  1  0  0  0  0
  5  6  2  0  0  0  0
  6  7  1  0  0  0  0
  6 33  1  0  0  0  0
  7  8  1  0  0  0  0
  7 17  2  0  0  0  0
  8 16  1  0  0  0  0
  8  9  1  0  0  0  0
  9 10  1  0  0  0  0
  9 34  1  0  0  0  0
  9 35  1  0  0  0  0
 10 11  1  0  0  0  0
 10 36  1  0  0  0  0
 10 37  1  0  0  0  0
 11 12  1  0  0  0  0
 12 13  1  0  0  0  0
 12 16  1  0  0  0  0
 12 38  1  0  0  0  0
 13 14  1  0  0  0  0
 13 15  2  0  0  0  0
 14 39  1  0  0  0  0
 14 40  1  0  0  0  0
 16 41  1  0  0  0  0
 16 42  1  0  0  0  0
 17 18  1  0  0  0  0
 18 19  1  0  0  0  0
 18 23  2  0  0  0  0
 19 20  1  0  0  0  0
 19 21  1  0  0  0  0
 19 22  1  0  0  0  0
 20 43  1  0  0  0  0
 20 44  1  0  0  0  0
 20 45  1  0  0  0  0
 21 46  1  0  0  0  0
 21 47  1  0  0  0  0
 21 48  1  0  0  0  0
 22 49  1  0  0  0  0
 22 50  1  0  0  0  0
 22 51  1  0  0  0  0
M  END
> <s_m_source_file>
AV-unprocessed.smi

> <i_m_source_file_index>
2859

> <i_lp_mmshare_version>
43012

> <i_f3d_flags>
0

> <s_epik_input>
W0NIM11DKFtDSDNdKShbQ0gzXSljMVtjSF1jKG5jKG4xKUMoW0NIM10pKFtDSDNdKVtDSDNdKU4yW0NIMl1bQ0gyXU9bQ0BIXShbQ0gyXTIpQyg9TylbTkgyXQ==

> <s_epik_cmdline>
J2VwaWtfcHl0aG9uJywgJy1waCcsICc3LjAnLCAnLXRuJywgJzgnLCAnLW1hJywgJzIwMCcsICctbWV0YWxfYmluZGluZycsICctaW1hZScsICc8aW5maWxlLm1hZT4nLCAnLW9tYWUnLCAnPG91dGZpbGUubWFlPic=

> <r_lp_tautomer_probability>
1

> <r_epik_Ionization_Penalty>
0.0011326

> <r_epik_Ionization_Penalty_Charging>
0

> <r_epik_Ionization_Penalty_Neutral>
0.0011326

> <r_epik_State_Penalty>
0.000721507

> <r_epik_Charging_Adjusted_Penalty>
0.000721507

> <i_epik_Tot_Q>
0

> <i_epik_Tot_abs_Q>
0

> <r_epik_Metal_State_Penalty>
-0

> <b_epik_Metal_Only>
0

> <s_lp_Force_Field>
OPLS_2005

> <r_lp_Energy>
9.66703

> <b_lp_Chiralities_Consistent>
1

> <s_lp_Variant>
AV-unprocessed.smi:2859-1

> <Gold.Version>
5.8.1

> <Gold.Id.Protein>
6NUR|6NUR_protein|mol2

> <Gold.PLP.Fitness>
36.2416

> <Gold.PLP.PLP>
-27.5619

> <Gold.PLP.part.hbond>
-4.7555

> <Gold.PLP.part.metal>
0.0000

> <Gold.PLP.part.buried>
-4.9704

> <Gold.PLP.part.nonpolar>
-18.6513

> <Gold.PLP.part.repulsive>
0.2671

> <Gold.PLP.ligand.clash>
0.0000

> <Gold.PLP.ligand.torsion>
0.7588

> <Gold.PLP.Chemscore.Hbond>
3.1936

> <Gold.PLP.Chemscore.CHOScore>
0.0000

> <Gold.PLP.Chemscore.Metal>
0.0000

> <Gold.Chemscore.Hbonds>
donor molecule, donor type, donor heavy atom, donor atom, acceptor molecule, acceptor atom, score
      L1  H    14    39       P1  7957  0.82
      L1  H    14    40       P1  7948  0.54
      P1  H  7989  7998       L1    15  1.00
      P1  H 10752 10763       L1    11  0.69

> <Gold.PLP.Chemscore.Internal.Correction>
0.6165

> <Gold.Rescore>
     Score         DG    S(hbond)    S(metal)    S(lipo)     H(rot)  DE(clash)    DE(int)     intcor
     15.48     -16.38       2.62        0.00      58.39       1.83       0.07       0.83       ----

> <Gold.Chemscore.Fitness>
15.4826

> <Gold.Chemscore.DG>
-16.3827

> <Gold.Chemscore.ZeroCoef>
-5.4800

> <Gold.Chemscore.Hbond>
2.6232

> <Gold.Chemscore.Metal>
0.0000

> <Gold.Chemscore.Lipo>
58.3926

> <Gold.Chemscore.Internal_Hbond>
0.0000

> <Gold.Chemscore.DEClash>
0.0697

> <Gold.Chemscore.DEInternal>
0.8304

> <Gold.Chemscore.Rot>
1.8323

> <Gold.Chemscore.Internal.Correction>
   9.000000E+99

> <Gold.Chemscore.Hbonds>
donor molecule, donor type, donor heavy atom, donor atom, acceptor molecule, acceptor atom, score
      L1  H    14    39       P1  7957  0.16
      L1  H    14    40       P1  7948  0.40
      P1  H  7989  7998       L1    15  0.99
      P1  H 10752 10763       L1    11  0.10

> <Gold.Chemscore.Hbond.Weighted>
-8.7615

> <Gold.Chemscore.Metal.Weighted>
-0.0000

> <Gold.Chemscore.Lipo.Weighted>
-6.8319

> <Gold.Chemscore.Internal_Hbond.Weighted>
0.0000

> <Gold.Chemscore.DEClash.Weighted>
0.0697

> <Gold.Chemscore.DEInternal.Weighted>
0.8304

> <Gold.Chemscore.Rot.Weighted>
4.6907

> <Gold.Chemscore.Internal.Correction.Weighted>
   9.000000E+99

> <Gold.Protein.RotatedTorsions>
[ 6907 6896 6895 6894 ] final   42.65 input  -60.11 | X-H torsion
[ 7974 7965 7964 7962 ] final   16.71 input  175.53 | X-H torsion
[ 8008 7997 7996 7995 ] final  -56.80 input   59.86 | X-H torsion
[ 10167 10162 10161 10158 ] final -126.39 input  -65.29 | X-H torsion
[ 10718 10713 10712 10709 ] final  -32.02 input   66.30 | X-H torsion
[ 10763 10752 10751 10750 ] final   49.83 input  -60.55 | X-H torsion
[ 11005 11000 10999 10996 ] final   98.98 input  -57.11 | X-H torsion

> <Gold.Protein.ActiveResidues>
 VAL166  LYS551  ARG553  GLY616  TRP617  ASP618  TYR619  PRO620  LYS621  CYS622 
 ASP623  PHE694  ASN695  SER759  ASP760  ASP761  ALA762  ILE779  LEU786  VAL792 
 PHE793  MET794  SER795  GLU796  ALA797  LYS798  CYS799  TRP800  GLU811  SER814 

> <Gold.Protein.RotatedAtoms>
  152.2106  134.8505  160.0497 H   0  0  0  0  0  0  0  0  0  0  0  0  # atno 6907 bound_to 6896
  151.9325  133.3610  159.3944 H   0  0  0  0  0  0  0  0  0  0  0  0  # atno 6908 bound_to 6896
  150.6975  134.4447  159.5352 H   0  0  0  0  0  0  0  0  0  0  0  0  # atno 6909 bound_to 6896
  146.2241  139.8709  142.8588 H   0  0  0  0  0  0  0  0  0  0  0  0  # atno 7974 bound_to 7965
  154.4244  140.1121  156.5696 H   0  0  0  0  0  0  0  0  0  0  0  0  # atno 8008 bound_to 7997
  155.6226  140.3495  155.4638 H   0  0  0  0  0  0  0  0  0  0  0  0  # atno 8009 bound_to 7997
  156.0012  140.1199  157.0535 H   0  0  0  0  0  0  0  0  0  0  0  0  # atno 8010 bound_to 7997
  139.9720  143.5835  152.2409 H   0  0  0  0  0  0  0  0  0  0  0  0  # atno 10167 bound_to 10162
  156.3801  130.4354  149.7476 H   0  0  0  0  0  0  0  0  0  0  0  0  # atno 10718 bound_to 10713
  152.9786  135.5899  154.4153 H   0  0  0  0  0  0  0  0  0  0  0  0  # atno 10763 bound_to 10752
  154.3784  135.2767  155.2228 H   0  0  0  0  0  0  0  0  0  0  0  0  # atno 10764 bound_to 10752
  154.4152  135.6072  153.6031 H   0  0  0  0  0  0  0  0  0  0  0  0  # atno 10765 bound_to 10752
  139.8771  134.9074  156.4537 H   0  0  0  0  0  0  0  0  0  0  0  0  # atno 11005 bound_to 11000
  145.2609  141.0077  143.3827 LP  0  0  0  0  0  0  0  0  0  0  0  0  # atno 17320 bound_to 7965
  144.9299  139.4311  143.6500 LP  0  0  0  0  0  0  0  0  0  0  0  0  # atno 17321 bound_to 7965
  139.6474  144.7659  151.2216 LP  0  0  0  0  0  0  0  0  0  0  0  0  # atno 17342 bound_to 10162
  140.7519  143.6216  150.8507 LP  0  0  0  0  0  0  0  0  0  0  0  0  # atno 17343 bound_to 10162
  156.4570  130.7933  151.2954 LP  0  0  0  0  0  0  0  0  0  0  0  0  # atno 17370 bound_to 10713
  157.7491  131.0078  150.3202 LP  0  0  0  0  0  0  0  0  0  0  0  0  # atno 17371 bound_to 10713
  140.8913  133.7846  155.9575 LP  0  0  0  0  0  0  0  0  0  0  0  0  # atno 17394 bound_to 11000
  140.8750  134.2680  157.5172 LP  0  0  0  0  0  0  0  0  0  0  0  0  # atno 17395 bound_to 11000

$$$$
