AV-unprocessed.smi:2776|AV-procd|sdf|10707|dock7
  -GOLD-   2272015143D 1   1.00000     0.00000
 Structure written by MMmdl.
 26 27  0  0  0  0  0  0  0  0  2 V2000
  151.3992  137.3810  157.1562 O   0  0  0  0  0  0  0  0  0  0  0  0
  151.1224  138.5973  156.4880 C   0  0  1  0  0  0  0  0  0  0  0  0
  152.1858  139.6534  156.8546 C   0  0  0  0  0  0  0  0  0  0  0  0
  151.6212  141.0022  157.0088 N   0  0  0  0  0  0  0  0  0  0  0  0
  150.8203  141.7093  156.1662 C   0  0  0  0  0  0  0  0  0  0  0  0
  150.5623  142.9104  156.7540 N   0  3  0  0  0  0  0  0  0  0  0  0
  151.2066  142.9718  157.9915 C   0  0  0  0  0  0  0  0  0  0  0  0
  151.2421  143.9784  158.9512 C   0  0  0  0  0  0  0  0  0  0  0  0
  151.9965  143.7207  160.1147 C   0  0  0  0  0  0  0  0  0  0  0  0
  152.0638  144.6667  161.0811 F   0  0  0  0  0  0  0  0  0  0  0  0
  152.6795  142.4985  160.2906 C   0  0  0  0  0  0  0  0  0  0  0  0
  153.3905  142.2904  161.4240 F   0  0  0  0  0  0  0  0  0  0  0  0
  152.6370  141.4860  159.3096 C   0  0  0  0  0  0  0  0  0  0  0  0
  151.8896  141.7492  158.1623 C   0  0  0  0  0  0  0  0  0  0  0  0
  151.0387  138.3321  154.9725 C   0  0  0  0  0  0  0  0  0  0  0  0
  150.3979  137.1854  154.7452 F   0  0  0  0  0  0  0  0  0  0  0  0
  150.3510  139.3124  154.3873 F   0  0  0  0  0  0  0  0  0  0  0  0
  152.2553  138.2798  154.4292 F   0  0  0  0  0  0  0  0  0  0  0  0
  150.6059  136.8671  157.1806 H   0  0  0  0  0  0  0  0  0  0  0  0
  150.1481  138.9435  156.8357 H   0  0  0  0  0  0  0  0  0  0  0  0
  152.7193  139.3808  157.7654 H   0  0  0  0  0  0  0  0  0  0  0  0
  152.9386  139.7111  156.0678 H   0  0  0  0  0  0  0  0  0  0  0  0
  150.4546  141.3774  155.2049 H   0  0  0  0  0  0  0  0  0  0  0  0
  150.7197  144.9147  158.8214 H   0  0  0  0  0  0  0  0  0  0  0  0
  153.1592  140.5527  159.4585 H   0  0  0  0  0  0  0  0  0  0  0  0
  149.9873  143.6326  156.3389 H   0  0  0  0  0  0  0  0  0  0  0  0
  1  2  1  0  0  0  0
  1 19  1  0  0  0  0
  2  3  1  0  0  0  0
  2 15  1  0  0  0  0
  2 20  1  0  0  0  0
  3  4  1  0  0  0  0
  3 21  1  0  0  0  0
  3 22  1  0  0  0  0
  4 14  1  0  0  0  0
  4  5  1  0  0  0  0
  5  6  2  0  0  0  0
  5 23  1  0  0  0  0
  6  7  1  0  0  0  0
  6 26  1  0  0  0  0
  7 14  2  0  0  0  0
  7  8  1  0  0  0  0
  8  9  2  0  0  0  0
  8 24  1  0  0  0  0
  9 10  1  0  0  0  0
  9 11  1  0  0  0  0
 11 12  1  0  0  0  0
 11 13  2  0  0  0  0
 13 14  1  0  0  0  0
 13 25  1  0  0  0  0
 15 16  1  0  0  0  0
 15 17  1  0  0  0  0
 15 18  1  0  0  0  0
M  CHG  1   6   1
M  END
> <s_m_source_file>
AV-unprocessed.smi

> <i_m_source_file_index>
2776

> <i_lp_mmshare_version>
43012

> <i_f3d_flags>
0

> <s_epik_input>
RkMoRikoRilbQ0BIXShbT0hdKVtDSDJdbihbY0hdbjEpYyhjMTIpW2NIXWMoRiljKEYpW2NIXTI=

> <s_epik_cmdline>
J2VwaWtfcHl0aG9uJywgJy1waCcsICc3LjAnLCAnLXRuJywgJzgnLCAnLW1hJywgJzIwMCcsICctbWV0YWxfYmluZGluZycsICctaW1hZScsICc8aW5maWxlLm1hZT4nLCAnLW9tYWUnLCAnPG91dGZpbGUubWFlPic=

> <r_epik_Ionization_Penalty>
2.38424

> <r_epik_Ionization_Penalty_Charging>
2.37244

> <r_epik_Ionization_Penalty_Neutral>
0.0117937

> <r_epik_State_Penalty>
2.52832

> <r_epik_Charging_Adjusted_Penalty>
4.90076

> <i_epik_Tot_Q>
1

> <i_epik_Tot_abs_Q>
1

> <r_epik_Metal_State_Penalty>
6.61271

> <b_epik_Metal_Only>
0

> <s_lp_Force_Field>
OPLS_2005

> <r_lp_Energy>
13.8942

> <b_lp_Chiralities_Consistent>
1

> <s_lp_Variant>
AV-unprocessed.smi:2776-4

> <Gold.Version>
5.8.1

> <Gold.Id.Protein>
6NUR|6NUR_protein|mol2

> <Gold.PLP.Fitness>
46.1063

> <Gold.PLP.PLP>
-42.3296

> <Gold.PLP.part.hbond>
-1.0000

> <Gold.PLP.part.metal>
0.0000

> <Gold.PLP.part.buried>
-4.5267

> <Gold.PLP.part.nonpolar>
-36.4042

> <Gold.PLP.part.repulsive>
0.0447

> <Gold.PLP.ligand.clash>
0.0000

> <Gold.PLP.ligand.torsion>
1.1165

> <Gold.PLP.Chemscore.Hbond>
2.0000

> <Gold.PLP.Chemscore.CHOScore>
0.0000

> <Gold.PLP.Chemscore.Metal>
0.0000

> <Gold.Chemscore.Hbonds>
donor molecule, donor type, donor heavy atom, donor atom, acceptor molecule, acceptor atom, score
      L1  H     6    26       P1  8028  2.00

> <Gold.PLP.Chemscore.Internal.Correction>
0.0097

> <Gold.Rescore>
     Score         DG    S(hbond)    S(metal)    S(lipo)     H(rot)  DE(clash)    DE(int)     intcor
     11.61     -12.72       1.00        0.00      79.75       2.12       0.04       1.07       ----

> <Gold.Chemscore.Fitness>
11.6132

> <Gold.Chemscore.DG>
-12.7210

> <Gold.Chemscore.ZeroCoef>
-5.4800

> <Gold.Chemscore.Hbond>
0.9972

> <Gold.Chemscore.Metal>
0.0000

> <Gold.Chemscore.Lipo>
79.7475

> <Gold.Chemscore.Internal_Hbond>
0.0000

> <Gold.Chemscore.DEClash>
0.0376

> <Gold.Chemscore.DEInternal>
1.0702

> <Gold.Chemscore.Rot>
2.1173

> <Gold.Chemscore.Internal.Correction>
   9.000000E+99

> <Gold.Chemscore.Hbonds>
donor molecule, donor type, donor heavy atom, donor atom, acceptor molecule, acceptor atom, score
      L1  H     6    26       P1  8028  1.00

> <Gold.Chemscore.Hbond.Weighted>
-3.3307

> <Gold.Chemscore.Metal.Weighted>
-0.0000

> <Gold.Chemscore.Lipo.Weighted>
-9.3305

> <Gold.Chemscore.Internal_Hbond.Weighted>
0.0000

> <Gold.Chemscore.DEClash.Weighted>
0.0376

> <Gold.Chemscore.DEInternal.Weighted>
1.0702

> <Gold.Chemscore.Rot.Weighted>
5.4202

> <Gold.Chemscore.Internal.Correction.Weighted>
   9.000000E+99

> <Gold.Protein.RotatedTorsions>
[ 6907 6896 6895 6894 ] final  128.78 input  -60.11 | X-H torsion
[ 7974 7965 7964 7962 ] final   83.23 input  175.53 | X-H torsion
[ 8008 7997 7996 7995 ] final -172.12 input   59.86 | X-H torsion
[ 10167 10162 10161 10158 ] final  108.93 input  -65.29 | X-H torsion
[ 10718 10713 10712 10709 ] final  -92.51 input   66.30 | X-H torsion
[ 10763 10752 10751 10750 ] final  -17.96 input  -60.55 | X-H torsion
[ 11005 11000 10999 10996 ] final  -67.63 input  -57.11 | X-H torsion

> <Gold.Protein.ActiveResidues>
 VAL166  LYS551  ARG553  GLY616  TRP617  ASP618  TYR619  PRO620  LYS621  CYS622 
 ASP623  PHE694  ASN695  SER759  ASP760  ASP761  ALA762  ILE779  LEU786  VAL792 
 PHE793  MET794  SER795  GLU796  ALA797  LYS798  CYS799  TRP800  GLU811  SER814 

> <Gold.Protein.RotatedAtoms>
  152.3687  133.6390  159.6069 H   0  0  0  0  0  0  0  0  0  0  0  0  # atno 6907 bound_to 6896
  150.7652  133.9306  159.3434 H   0  0  0  0  0  0  0  0  0  0  0  0  # atno 6908 bound_to 6896
  151.7132  135.0910  160.0322 H   0  0  0  0  0  0  0  0  0  0  0  0  # atno 6909 bound_to 6896
  145.6146  139.2374  143.2173 H   0  0  0  0  0  0  0  0  0  0  0  0  # atno 7974 bound_to 7965
  155.9405  140.1107  157.1060 H   0  0  0  0  0  0  0  0  0  0  0  0  # atno 8008 bound_to 7997
  154.4088  140.1220  156.4986 H   0  0  0  0  0  0  0  0  0  0  0  0  # atno 8009 bound_to 7997
  155.6968  140.3472  155.4918 H   0  0  0  0  0  0  0  0  0  0  0  0  # atno 8010 bound_to 7997
  139.6807  144.7118  151.1521 H   0  0  0  0  0  0  0  0  0  0  0  0  # atno 10167 bound_to 10162
  156.0003  130.4990  150.5636 H   0  0  0  0  0  0  0  0  0  0  0  0  # atno 10718 bound_to 10713
  153.5818  135.7005  153.5460 H   0  0  0  0  0  0  0  0  0  0  0  0  # atno 10763 bound_to 10752
  153.3254  135.4062  155.1451 H   0  0  0  0  0  0  0  0  0  0  0  0  # atno 10764 bound_to 10752
  154.8616  135.3705  154.5346 H   0  0  0  0  0  0  0  0  0  0  0  0  # atno 10765 bound_to 10752
  141.1512  133.6723  156.6321 H   0  0  0  0  0  0  0  0  0  0  0  0  # atno 11005 bound_to 11000
  146.1478  140.6968  142.9336 LP  0  0  0  0  0  0  0  0  0  0  0  0  # atno 17320 bound_to 7965
  144.7256  140.4512  143.6976 LP  0  0  0  0  0  0  0  0  0  0  0  0  # atno 17321 bound_to 7965
  140.7651  143.5704  150.9002 LP  0  0  0  0  0  0  0  0  0  0  0  0  # atno 17342 bound_to 10162
  139.9376  143.6420  152.3061 LP  0  0  0  0  0  0  0  0  0  0  0  0  # atno 17343 bound_to 10162
  157.3541  131.0738  151.1689 LP  0  0  0  0  0  0  0  0  0  0  0  0  # atno 17370 bound_to 10713
  157.2496  130.6607  149.5925 LP  0  0  0  0  0  0  0  0  0  0  0  0  # atno 17371 bound_to 10713
  140.3458  134.7810  157.4431 LP  0  0  0  0  0  0  0  0  0  0  0  0  # atno 17394 bound_to 11000
  140.0900  134.5613  155.8453 LP  0  0  0  0  0  0  0  0  0  0  0  0  # atno 17395 bound_to 11000

$$$$
