#       Name:                AV-unprocessed.smi:3057
#       Creating user name   scv26
#       Creation time:       Fri Mar 27 17:07:12 2020


#       File generated by GOLD software.
#

@<TRIPOS>MOLECULE
AV-unprocessed.smi:3057
    45    47     1
SMALL
NO_CHARGES


@<TRIPOS>ATOM
      1 ****        -5.2522   0.7359   0.4241 C.3            1 S1                 0.0000
      2 ****        -3.9475   1.5335   0.6285 C.3            1 S1                 0.0000
      3 ****        -4.0163   2.9039  -0.0646 C.3            1 S1                 0.0000
      4 ****        -3.4335   2.6441  -1.4624 C.3            1 S1                 0.0000
      5 ****        -2.5674   1.4138  -1.2348 C.2            1 S1                 0.0000
      6 ****        -1.7153   1.0324  -2.0361 O.2            1 S1                 0.0000
      7 ****        -2.8326   0.8800  -0.0314 N.am           1 S1                 0.0000
      8 ****        -2.0416  -0.0619   0.7750 C.3            1 S1                 0.0000
      9 ****        -0.5353   0.2590   0.7839 C.2            1 S1                 0.0000
     10 ****        -0.1418   1.3878   1.0808 O.2            1 S1                 0.0000
     11 ****         0.2933  -0.7472   0.4688 N.am           1 S1                 0.0000
     12 ****         1.7441  -0.6341   0.4095 C.3            1 S1                 0.0000
     13 ****         2.3409  -1.7740  -0.4272 C.3            1 S1                 0.0000
     14 ****         3.8521  -1.6881  -0.5178 C.ar           1 S1                 0.0000
     15 ****         4.7002  -2.4931   0.2735 C.ar           1 S1                 0.0000
     16 ****         6.0981  -2.3559   0.1436 C.ar           1 S1                 0.0000
     17 ****         6.6177  -1.4180  -0.7726 C.ar           1 S1                 0.0000
     18 ****         5.7248  -0.6399  -1.5376 C.ar           1 S1                 0.0000
     19 ****         4.3919  -0.8005  -1.3846 N.pl3          1 S1                 1.0000
     20 ****        -2.6471  -0.0431   2.1962 C.3            1 S1                 0.0000
     21 ****        -3.4638   1.5674   2.3663 S.3            1 S1                 0.0000
     22 ****        -5.5141   0.6596  -0.6318 H              1 S1                 0.0000
     23 ****        -6.0867   1.2183   0.9339 H              1 S1                 0.0000
     24 ****        -5.1745  -0.2794   0.8125 H              1 S1                 0.0000
     25 ****        -5.0287   3.3072  -0.1031 H              1 S1                 0.0000
     26 ****        -3.3939   3.6308   0.4597 H              1 S1                 0.0000
     27 ****        -4.2152   2.4084  -2.1851 H              1 S1                 0.0000
     28 ****        -2.8518   3.4889  -1.8321 H              1 S1                 0.0000
     29 ****        -2.1786  -1.0575   0.3496 H              1 S1                 0.0000
     30 ****        -0.1103  -1.6451   0.2438 H              1 S1                 0.0000
     31 ****         2.0262   0.3272  -0.0242 H              1 S1                 0.0000
     32 ****         2.1427  -0.6596   1.4248 H              1 S1                 0.0000
     33 ****         2.0625  -2.7381   0.0010 H              1 S1                 0.0000
     34 ****         1.9269  -1.7537  -1.4365 H              1 S1                 0.0000
     35 ****         4.2878  -3.2059   0.9729 H              1 S1                 0.0000
     36 ****         6.7636  -2.9623   0.7406 H              1 S1                 0.0000
     37 ****         7.6851  -1.2966  -0.8864 H              1 S1                 0.0000
     38 ****         6.0338   0.1012  -2.2604 H              1 S1                 0.0000
     39 ****        -3.3968  -0.8281   2.2982 H              1 S1                 0.0000
     40 ****        -1.9102  -0.1918   2.9868 H              1 S1                 0.0000
     41 ****         3.7642  -0.2252  -1.9470 H              1 S1                 0.0000
     42 ****        -1.5657   1.5385  -2.8855 LP             1 S1                 0.0000
     43 ****        -1.1724   0.2163  -1.8380 LP             1 S1                 0.0000
     44 ****        -0.8015   2.1011   1.3176 LP             1 S1                 0.0000
     45 ****         0.8373   1.5909   1.0851 LP             1 S1                 0.0000
@<TRIPOS>BOND
    1    1    2 1     
    2    1   22 1     
    3    1   23 1     
    4    1   24 1     
    5    2    7 1     
    6    2   21 1     
    7    2    3 1     
    8    3    4 1     
    9    3   25 1     
   10    3   26 1     
   11    4    5 1     
   12    4   27 1     
   13    4   28 1     
   14    5    6 2     
   15    5    7 am    
   16    7    8 1     
   17    8    9 1     
   18    8   20 1     
   19    8   29 1     
   20    9   10 2     
   21    9   11 am    
   22   11   12 1     
   23   11   30 1     
   24   12   13 1     
   25   12   31 1     
   26   12   32 1     
   27   13   14 1     
   28   13   33 1     
   29   13   34 1     
   30   14   19 ar    
   31   14   15 ar    
   32   15   16 ar    
   33   15   35 1     
   34   16   17 ar    
   35   16   36 1     
   36   17   18 ar    
   37   17   37 1     
   38   18   19 ar    
   39   18   38 1     
   40   19   41 1     
   41   20   21 1     
   42   20   39 1     
   43   20   40 1     
   44    6   42 1     
   45    6   43 1     
   46   10   44 1     
   47   10   45 1     
@<TRIPOS>SUBSTRUCTURE
      1 S1             1
@<TRIPOS>SET
LONE_PAIRS      STATIC     ATOMS    <user>   **** ""
4 42 43 44 45
DONOR_HYDROGENS      STATIC     ATOMS    <user>   **** ""
2 30 41
ATOM$BLUE        STATIC     ATOMS    COLORGROUP SYSTEM
4 42 43 44 45
ATOM$RED        STATIC     ATOMS    COLORGROUP SYSTEM
2 30 41
