AV-unprocessed.smi:837|AV-procd|sdf|3901|dock2
  -GOLD-   22720 1363D 1   1.00000     0.00000
 Structure written by MMmdl.
 48 50  0  0  0  0  0  0  0  0  2 V2000
  149.9219  140.9142  155.1517 C   0  0  0  0  0  0  0  0  0  0  0  0
  150.8353  141.3121  156.3321 C   0  0  1  0  0  0  0  0  0  0  0  0
  150.0180  142.0839  157.3928 C   0  0  0  0  0  0  0  0  0  0  0  0
  150.8975  142.5701  158.5538 C   0  0  0  0  0  0  0  0  0  0  0  0
  151.6469  141.4040  159.2102 C   0  0  0  0  0  0  0  0  0  0  0  0
  152.4777  140.6290  158.1729 C   0  0  0  0  0  0  0  0  0  0  0  0
  151.6451  140.1289  156.9614 C   0  0  2  0  0  0  0  0  0  0  0  0
  152.5556  139.5607  155.9822 N   0  5  0  0  0  0  0  0  0  0  0  0
  152.2841  138.2432  155.8345 C   0  0  0  0  0  0  0  0  0  0  0  0
  152.8714  137.4489  155.1008 O   0  0  0  0  0  0  0  0  0  0  0  0
  151.2514  137.8726  156.6145 N   0  0  0  0  0  0  0  0  0  0  0  0
  150.7133  136.5083  156.7097 C   0  0  0  0  0  0  0  0  0  0  0  0
  149.6285  136.2017  155.6666 C   0  0  0  0  0  0  0  0  0  0  0  0
  149.2029  137.0762  154.9100 O   0  0  0  0  0  0  0  0  0  0  0  0
  149.1926  134.9331  155.6357 N   0  0  0  0  0  0  0  0  0  0  0  0
  148.1764  134.4210  154.7243 C   0  0  0  0  0  0  0  0  0  0  0  0
  148.6652  133.1694  153.9769 C   0  0  0  0  0  0  0  0  0  0  0  0
  147.5765  132.5608  153.1149 C   0  0  0  0  0  0  0  0  0  0  0  0
  147.1146  131.2504  153.3547 C   0  0  0  0  0  0  0  0  0  0  0  0
  146.0977  130.7287  152.5319 C   0  0  0  0  0  0  0  0  0  0  0  0
  145.5845  131.5429  151.5023 C   0  0  0  0  0  0  0  0  0  0  0  0
  146.0186  132.7995  151.2643 N   0  0  0  0  0  0  0  0  0  0  0  0
  146.9946  133.2919  152.0573 C   0  0  0  0  0  0  0  0  0  0  0  0
  150.7980  138.9109  157.3255 C   0  0  0  0  0  0  0  0  0  0  0  0
  149.8683  138.9079  158.1338 O   0  0  0  0  0  0  0  0  0  0  0  0
  149.1220  140.2430  155.4653 H   0  0  0  0  0  0  0  0  0  0  0  0
  150.4817  140.4188  154.3583 H   0  0  0  0  0  0  0  0  0  0  0  0
  149.4532  141.7943  154.7108 H   0  0  0  0  0  0  0  0  0  0  0  0
  151.5645  142.0173  155.9289 H   0  0  0  0  0  0  0  0  0  0  0  0
  149.5333  142.9439  156.9296 H   0  0  0  0  0  0  0  0  0  0  0  0
  149.2134  141.4587  157.7802 H   0  0  0  0  0  0  0  0  0  0  0  0
  151.6154  143.3041  158.1852 H   0  0  0  0  0  0  0  0  0  0  0  0
  150.2841  143.0822  159.2956 H   0  0  0  0  0  0  0  0  0  0  0  0
  152.3016  141.7822  159.9957 H   0  0  0  0  0  0  0  0  0  0  0  0
  150.9376  140.7390  159.7028 H   0  0  0  0  0  0  0  0  0  0  0  0
  153.2794  141.2791  157.8178 H   0  0  0  0  0  0  0  0  0  0  0  0
  152.9741  139.7914  158.6664 H   0  0  0  0  0  0  0  0  0  0  0  0
  151.5192  135.7816  156.5953 H   0  0  0  0  0  0  0  0  0  0  0  0
  150.3043  136.3389  157.7071 H   0  0  0  0  0  0  0  0  0  0  0  0
  149.5951  134.2771  156.2893 H   0  0  0  0  0  0  0  0  0  0  0  0
  147.2582  134.2052  155.2736 H   0  0  0  0  0  0  0  0  0  0  0  0
  147.9330  135.2088  154.0109 H   0  0  0  0  0  0  0  0  0  0  0  0
  149.5200  133.4193  153.3466 H   0  0  0  0  0  0  0  0  0  0  0  0
  149.0155  132.4166  154.6847 H   0  0  0  0  0  0  0  0  0  0  0  0
  147.5300  130.6556  154.1552 H   0  0  0  0  0  0  0  0  0  0  0  0
  145.7199  129.7289  152.6865 H   0  0  0  0  0  0  0  0  0  0  0  0
  144.8040  131.1748  150.8530 H   0  0  0  0  0  0  0  0  0  0  0  0
  147.3184  134.2997  151.8426 H   0  0  0  0  0  0  0  0  0  0  0  0
  1  2  1  0  0  0  0
  1 26  1  0  0  0  0
  1 27  1  0  0  0  0
  1 28  1  0  0  0  0
  2  7  1  0  0  0  0
  2  3  1  0  0  0  0
  2 29  1  0  0  0  0
  3  4  1  0  0  0  0
  3 30  1  0  0  0  0
  3 31  1  0  0  0  0
  4  5  1  0  0  0  0
  4 32  1  0  0  0  0
  4 33  1  0  0  0  0
  5  6  1  0  0  0  0
  5 34  1  0  0  0  0
  5 35  1  0  0  0  0
  6  7  1  0  0  0  0
  6 36  1  0  0  0  0
  6 37  1  0  0  0  0
  7 24  1  0  0  0  0
  7  8  1  0  0  0  0
  8  9  1  0  0  0  0
  9 10  2  0  0  0  0
  9 11  1  0  0  0  0
 11 12  1  0  0  0  0
 11 24  1  0  0  0  0
 12 13  1  0  0  0  0
 12 38  1  0  0  0  0
 12 39  1  0  0  0  0
 13 14  2  0  0  0  0
 13 15  1  0  0  0  0
 15 16  1  0  0  0  0
 15 40  1  0  0  0  0
 16 17  1  0  0  0  0
 16 41  1  0  0  0  0
 16 42  1  0  0  0  0
 17 18  1  0  0  0  0
 17 43  1  0  0  0  0
 17 44  1  0  0  0  0
 18 23  1  0  0  0  0
 18 19  2  0  0  0  0
 19 20  1  0  0  0  0
 19 45  1  0  0  0  0
 20 21  2  0  0  0  0
 20 46  1  0  0  0  0
 21 22  1  0  0  0  0
 21 47  1  0  0  0  0
 22 23  2  0  0  0  0
 23 48  1  0  0  0  0
 24 25  2  0  0  0  0
M  CHG  1   8  -1
M  END
> <s_m_source_file>
AV-unprocessed.smi

> <i_m_source_file_index>
837

> <i_lp_mmshare_version>
43012

> <i_f3d_flags>
0

> <s_epik_input>
W0NIMl0xW0NIMl1bQ0gyXVtDSDJdW0NAQEhdKFtDSDNdKVtDQEBdMTJbTkhdQyg9TylOKEMyPU8pW0NIMl1DKD1PKVtOSF1bQ0gyXVtDSDJdYzNbY0hdW2NIXVtjSF1uW2NIXTM=

> <s_epik_cmdline>
J2VwaWtfcHl0aG9uJywgJy1waCcsICc3LjAnLCAnLXRuJywgJzgnLCAnLW1hJywgJzIwMCcsICctbWV0YWxfYmluZGluZycsICctaW1hZScsICc8aW5maWxlLm1hZT4nLCAnLW9tYWUnLCAnPG91dGZpbGUubWFlPic=

> <r_lp_tautomer_probability>
1

> <r_epik_Ionization_Penalty>
6.03002

> <r_epik_Ionization_Penalty_Charging>
6.01728

> <r_epik_Ionization_Penalty_Neutral>
0.0127382

> <r_epik_State_Penalty>
6.02713

> <r_epik_Charging_Adjusted_Penalty>
12.0444

> <i_epik_Tot_Q>
-1

> <i_epik_Tot_abs_Q>
1

> <r_epik_Metal_State_Penalty>
1.99078

> <b_epik_Metal_Only>
1

> <s_lp_Force_Field>
OPLS_2005

> <r_lp_Energy>
14.5441

> <b_lp_Chiralities_Consistent>
1

> <s_lp_Variant>
AV-unprocessed.smi:837-10

> <Gold.Version>
5.8.1

> <Gold.Id.Protein>
6NUR|6NUR_protein|mol2

> <Gold.PLP.Fitness>
45.6932

> <Gold.PLP.PLP>
-36.5174

> <Gold.PLP.part.hbond>
-2.0000

> <Gold.PLP.part.metal>
0.0000

> <Gold.PLP.part.buried>
-5.5914

> <Gold.PLP.part.nonpolar>
-30.6746

> <Gold.PLP.part.repulsive>
0.7850

> <Gold.PLP.ligand.clash>
0.0000

> <Gold.PLP.ligand.torsion>
0.4343

> <Gold.PLP.Chemscore.Hbond>
2.3360

> <Gold.PLP.Chemscore.CHOScore>
0.9971

> <Gold.PLP.Chemscore.Metal>
0.0000

> <Gold.Chemscore.Hbonds>
donor molecule, donor type, donor heavy atom, donor atom, acceptor molecule, acceptor atom, score
      P1  H  7997  8010       L1     8  2.00
      P1  H 10752 10765       L1    10  0.40
      L1  C    23    48       P1  7948  1.00

> <Gold.PLP.Chemscore.Internal.Correction>
0.0450

> <Gold.Rescore>
     Score         DG    S(hbond)    S(metal)    S(lipo)     H(rot)  DE(clash)    DE(int)     intcor
     15.60     -16.37       1.38        0.00      93.23       1.81       0.34       0.43       ----

> <Gold.Chemscore.Fitness>
15.6032

> <Gold.Chemscore.DG>
-16.3699

> <Gold.Chemscore.ZeroCoef>
-5.4800

> <Gold.Chemscore.Hbond>
1.3811

> <Gold.Chemscore.Metal>
0.0000

> <Gold.Chemscore.Lipo>
93.2305

> <Gold.Chemscore.Internal_Hbond>
0.0000

> <Gold.Chemscore.DEClash>
0.3410

> <Gold.Chemscore.DEInternal>
0.4257

> <Gold.Chemscore.Rot>
1.8090

> <Gold.Chemscore.Internal.Correction>
   9.000000E+99

> <Gold.Chemscore.Hbonds>
donor molecule, donor type, donor heavy atom, donor atom, acceptor molecule, acceptor atom, score
      P1  H  7997  8010       L1     8  0.86
      P1  H 10752 10765       L1    10  0.40

> <Gold.Chemscore.Hbond.Weighted>
-4.6130

> <Gold.Chemscore.Metal.Weighted>
-0.0000

> <Gold.Chemscore.Lipo.Weighted>
-10.9080

> <Gold.Chemscore.Internal_Hbond.Weighted>
0.0000

> <Gold.Chemscore.DEClash.Weighted>
0.3410

> <Gold.Chemscore.DEInternal.Weighted>
0.4257

> <Gold.Chemscore.Rot.Weighted>
4.6310

> <Gold.Chemscore.Internal.Correction.Weighted>
   9.000000E+99

> <Gold.Protein.RotatedTorsions>
[ 6907 6896 6895 6894 ] final   41.75 input  -60.11 | X-H torsion
[ 7974 7965 7964 7962 ] final -120.89 input  175.53 | X-H torsion
[ 8008 7997 7996 7995 ] final   87.85 input   59.86 | X-H torsion
[ 10167 10162 10161 10158 ] final   20.43 input  -65.29 | X-H torsion
[ 10718 10713 10712 10709 ] final   85.27 input   66.30 | X-H torsion
[ 10763 10752 10751 10750 ] final -172.31 input  -60.55 | X-H torsion
[ 11005 11000 10999 10996 ] final  -93.73 input  -57.11 | X-H torsion

> <Gold.Protein.ActiveResidues>
 VAL166  LYS551  ARG553  GLY616  TRP617  ASP618  TYR619  PRO620  LYS621  CYS622 
 ASP623  PHE694  ASN695  SER759  ASP760  ASP761  ALA762  ILE779  LEU786  VAL792 
 PHE793  MET794  SER795  GLU796  ALA797  LYS798  CYS799  TRP800  GLU811  SER814 

> <Gold.Protein.RotatedAtoms>
  152.1992  134.8603  160.0509 H   0  0  0  0  0  0  0  0  0  0  0  0  # atno 6907 bound_to 6896
  151.9463  133.3647  159.3992 H   0  0  0  0  0  0  0  0  0  0  0  0  # atno 6908 bound_to 6896
  150.6951  134.4311  159.5292 H   0  0  0  0  0  0  0  0  0  0  0  0  # atno 6909 bound_to 6896
  145.0464  140.8185  143.4235 H   0  0  0  0  0  0  0  0  0  0  0  0  # atno 7974 bound_to 7965
  155.9804  140.3378  155.6658 H   0  0  0  0  0  0  0  0  0  0  0  0  # atno 8008 bound_to 7997
  155.6556  140.0710  157.2590 H   0  0  0  0  0  0  0  0  0  0  0  0  # atno 8009 bound_to 7997
  154.4190  140.1718  156.1708 H   0  0  0  0  0  0  0  0  0  0  0  0  # atno 8010 bound_to 7997
  140.5504  143.9519  150.6574 H   0  0  0  0  0  0  0  0  0  0  0  0  # atno 10167 bound_to 10162
  157.6912  131.0168  150.2797 H   0  0  0  0  0  0  0  0  0  0  0  0  # atno 10718 bound_to 10713
  154.6207  135.2875  155.0329 H   0  0  0  0  0  0  0  0  0  0  0  0  # atno 10763 bound_to 10752
  154.1525  135.6501  153.4970 H   0  0  0  0  0  0  0  0  0  0  0  0  # atno 10764 bound_to 10752
  153.0235  135.5359  154.6996 H   0  0  0  0  0  0  0  0  0  0  0  0  # atno 10765 bound_to 10752
  141.1489  133.7908  157.0201 H   0  0  0  0  0  0  0  0  0  0  0  0  # atno 11005 bound_to 11000
  145.1582  139.2474  143.5405 LP  0  0  0  0  0  0  0  0  0  0  0  0  # atno 17320 bound_to 7965
  146.3514  140.1303  142.8597 LP  0  0  0  0  0  0  0  0  0  0  0  0  # atno 17321 bound_to 7965
  140.2944  143.3303  152.1032 LP  0  0  0  0  0  0  0  0  0  0  0  0  # atno 17342 bound_to 10162
  139.5025  144.6736  151.6184 LP  0  0  0  0  0  0  0  0  0  0  0  0  # atno 17343 bound_to 10162
  156.3346  130.3805  149.7461 LP  0  0  0  0  0  0  0  0  0  0  0  0  # atno 17370 bound_to 10713
  156.4990  130.8120  151.3125 LP  0  0  0  0  0  0  0  0  0  0  0  0  # atno 17371 bound_to 10713
  140.0821  134.9642  157.1642 LP  0  0  0  0  0  0  0  0  0  0  0  0  # atno 17394 bound_to 11000
  140.3562  134.2545  155.7192 LP  0  0  0  0  0  0  0  0  0  0  0  0  # atno 17395 bound_to 11000

$$$$
