AV-unprocessed.smi:1022|AV-procd|sdf|4459|dock5
  -GOLD-   22720 2433D 1   1.00000     0.00000
 Structure written by MMmdl.
 33 34  0  0  0  0  0  0  0  0  1 V2000
  149.7707  141.4839  155.3097 C   0  0  0  0  0  0  0  0  0  0  0  0
  149.4326  141.2939  153.9470 O   0  0  0  0  0  0  0  0  0  0  0  0
  148.5529  140.1981  153.7523 C   0  0  0  0  0  0  0  0  0  0  0  0
  147.1425  140.5837  154.2242 C   0  0  1  0  0  0  0  0  0  0  0  0
  146.8661  142.0799  154.0039 C   0  0  0  0  0  0  0  0  0  0  0  0
  146.1528  139.7769  153.5143 N   0  0  0  0  0  0  0  0  0  0  0  0
  146.2097  138.4471  153.3510 C   0  0  0  0  0  0  0  0  0  0  0  0
  147.1142  137.7453  153.8043 O   0  0  0  0  0  0  0  0  0  0  0  0
  145.1615  138.0001  152.6370 N   0  0  0  0  0  0  0  0  0  0  0  0
  144.8539  136.6637  152.2680 C   0  0  0  0  0  0  0  0  0  0  0  0
  143.7562  136.0123  152.6762 N   0  0  0  0  0  0  0  0  0  0  0  0
  143.6980  134.7237  152.1639 N   0  0  0  0  0  0  0  0  0  0  0  0
  144.7506  134.4372  151.3883 C   0  0  0  0  0  0  0  0  0  0  0  0
  144.9118  133.1112  150.7227 C   0  0  0  0  0  0  0  0  0  0  0  0
  143.9900  132.6909  149.6006 C   0  0  0  0  0  0  0  0  0  0  0  0
  143.9143  131.9931  150.9346 C   0  0  0  0  0  0  0  0  0  0  0  0
  145.9165  135.7455  151.2152 S   0  0  0  0  0  0  0  0  0  0  0  0
  150.4448  142.3352  155.4044 H   0  0  0  0  0  0  0  0  0  0  0  0
  150.2760  140.6076  155.7178 H   0  0  0  0  0  0  0  0  0  0  0  0
  148.8839  141.6890  155.9111 H   0  0  0  0  0  0  0  0  0  0  0  0
  148.5312  139.9363  152.6931 H   0  0  0  0  0  0  0  0  0  0  0  0
  148.9104  139.3223  154.2969 H   0  0  0  0  0  0  0  0  0  0  0  0
  147.0767  140.3751  155.2938 H   0  0  0  0  0  0  0  0  0  0  0  0
  147.5931  142.6944  154.5355 H   0  0  0  0  0  0  0  0  0  0  0  0
  145.8765  142.3589  154.3672 H   0  0  0  0  0  0  0  0  0  0  0  0
  146.9187  142.3419  152.9468 H   0  0  0  0  0  0  0  0  0  0  0  0
  145.3763  140.2741  153.1033 H   0  0  0  0  0  0  0  0  0  0  0  0
  144.5040  138.6982  152.3227 H   0  0  0  0  0  0  0  0  0  0  0  0
  145.9643  132.8454  150.6453 H   0  0  0  0  0  0  0  0  0  0  0  0
  143.1743  133.3621  149.3378 H   0  0  0  0  0  0  0  0  0  0  0  0
  144.4292  132.1422  148.7698 H   0  0  0  0  0  0  0  0  0  0  0  0
  144.3044  130.9791  150.9944 H   0  0  0  0  0  0  0  0  0  0  0  0
  143.0385  132.1922  151.5493 H   0  0  0  0  0  0  0  0  0  0  0  0
  1  2  1  0  0  0  0
  1 18  1  0  0  0  0
  1 19  1  0  0  0  0
  1 20  1  0  0  0  0
  2  3  1  0  0  0  0
  3  4  1  0  0  0  0
  3 21  1  0  0  0  0
  3 22  1  0  0  0  0
  4  5  1  0  0  0  0
  4  6  1  0  0  0  0
  4 23  1  0  0  0  0
  5 24  1  0  0  0  0
  5 25  1  0  0  0  0
  5 26  1  0  0  0  0
  6  7  1  0  0  0  0
  6 27  1  0  0  0  0
  7  8  2  0  0  0  0
  7  9  1  0  0  0  0
  9 10  1  0  0  0  0
  9 28  1  0  0  0  0
 10 17  1  0  0  0  0
 10 11  2  0  0  0  0
 11 12  1  0  0  0  0
 12 13  2  0  0  0  0
 13 14  1  0  0  0  0
 13 17  1  0  0  0  0
 14 16  1  0  0  0  0
 14 15  1  0  0  0  0
 14 29  1  0  0  0  0
 15 16  1  0  0  0  0
 15 30  1  0  0  0  0
 15 31  1  0  0  0  0
 16 32  1  0  0  0  0
 16 33  1  0  0  0  0
M  END
> <s_m_source_file>
AV-unprocessed.smi

> <i_m_source_file_index>
1022

> <i_lp_mmshare_version>
43012

> <i_f3d_flags>
0

> <s_epik_input>
W0NIM11PW0NIMl1bQ0BIXShbQ0gzXSlbTkhdQyg9TylbTkhdYzFubmMoczEpW0NIXTJbQ0gyXVtDSDJdMg==

> <s_epik_cmdline>
J2VwaWtfcHl0aG9uJywgJy1waCcsICc3LjAnLCAnLXRuJywgJzgnLCAnLW1hJywgJzIwMCcsICctbWV0YWxfYmluZGluZycsICctaW1hZScsICc8aW5maWxlLm1hZT4nLCAnLW9tYWUnLCAnPG91dGZpbGUubWFlPic=

> <r_lp_tautomer_probability>
1

> <r_epik_Ionization_Penalty>
0.00129266

> <r_epik_Ionization_Penalty_Charging>
0

> <r_epik_Ionization_Penalty_Neutral>
0.00129266

> <r_epik_State_Penalty>
-0

> <r_epik_Charging_Adjusted_Penalty>
0

> <i_epik_Tot_Q>
0

> <i_epik_Tot_abs_Q>
0

> <r_epik_Metal_State_Penalty>
0.30857

> <b_epik_Metal_Only>
0

> <s_lp_Force_Field>
OPLS_2005

> <r_lp_Energy>
1.4297

> <b_lp_Chiralities_Consistent>
1

> <s_lp_Variant>
AV-unprocessed.smi:1022-2

> <Gold.Version>
5.8.1

> <Gold.Id.Protein>
6NUR|6NUR_protein|mol2

> <Gold.PLP.Fitness>
36.7021

> <Gold.PLP.PLP>
-30.1646

> <Gold.PLP.part.hbond>
-4.7766

> <Gold.PLP.part.metal>
0.0000

> <Gold.PLP.part.buried>
-1.9200

> <Gold.PLP.part.nonpolar>
-24.7847

> <Gold.PLP.part.repulsive>
1.8005

> <Gold.PLP.ligand.clash>
0.0000

> <Gold.PLP.ligand.torsion>
1.1462

> <Gold.PLP.Chemscore.Hbond>
2.8947

> <Gold.PLP.Chemscore.CHOScore>
0.0000

> <Gold.PLP.Chemscore.Metal>
0.0000

> <Gold.Chemscore.Hbonds>
donor molecule, donor type, donor heavy atom, donor atom, acceptor molecule, acceptor atom, score
      L1  H     6    27       P1 10175  1.00
      L1  H     9    28       P1 10175  1.00
      P1  H  7989  7998       L1     2  0.07
      P1  H  8011  8017       L1     2  0.78

> <Gold.PLP.Chemscore.Internal.Correction>
0.1459

> <Gold.Rescore>
     Score         DG    S(hbond)    S(metal)    S(lipo)     H(rot)  DE(clash)    DE(int)     intcor
     14.74     -17.71       2.68        0.00      65.91       1.73       0.49       2.48       ----

> <Gold.Chemscore.Fitness>
14.7400

> <Gold.Chemscore.DG>
-17.7081

> <Gold.Chemscore.ZeroCoef>
-5.4800

> <Gold.Chemscore.Hbond>
2.6797

> <Gold.Chemscore.Metal>
0.0000

> <Gold.Chemscore.Lipo>
65.9090

> <Gold.Chemscore.Internal_Hbond>
0.0000

> <Gold.Chemscore.DEClash>
0.4905

> <Gold.Chemscore.DEInternal>
2.4776

> <Gold.Chemscore.Rot>
1.7318

> <Gold.Chemscore.Internal.Correction>
   9.000000E+99

> <Gold.Chemscore.Hbonds>
donor molecule, donor type, donor heavy atom, donor atom, acceptor molecule, acceptor atom, score
      L1  H     6    27       P1 10175  0.97
      L1  H     9    28       P1 10175  0.96
      P1  H  8011  8017       L1     2  0.71

> <Gold.Chemscore.Hbond.Weighted>
-8.9502

> <Gold.Chemscore.Metal.Weighted>
-0.0000

> <Gold.Chemscore.Lipo.Weighted>
-7.7114

> <Gold.Chemscore.Internal_Hbond.Weighted>
0.0000

> <Gold.Chemscore.DEClash.Weighted>
0.4905

> <Gold.Chemscore.DEInternal.Weighted>
2.4776

> <Gold.Chemscore.Rot.Weighted>
4.4335

> <Gold.Chemscore.Internal.Correction.Weighted>
   9.000000E+99

> <Gold.Protein.RotatedTorsions>
[ 6907 6896 6895 6894 ] final   92.87 input  -60.11 | X-H torsion
[ 7974 7965 7964 7962 ] final  -37.95 input  175.53 | X-H torsion
[ 8008 7997 7996 7995 ] final   88.41 input   59.86 | X-H torsion
[ 10167 10162 10161 10158 ] final   13.85 input  -65.29 | X-H torsion
[ 10718 10713 10712 10709 ] final -161.15 input   66.30 | X-H torsion
[ 10763 10752 10751 10750 ] final -155.60 input  -60.55 | X-H torsion
[ 11005 11000 10999 10996 ] final  -84.52 input  -57.11 | X-H torsion

> <Gold.Protein.ActiveResidues>
 VAL166  LYS551  ARG553  GLY616  TRP617  ASP618  TYR619  PRO620  LYS621  CYS622 
 ASP623  PHE694  ASN695  SER759  ASP760  ASP761  ALA762  ILE779  LEU786  VAL792 
 PHE793  MET794  SER795  GLU796  ALA797  LYS798  CYS799  TRP800  GLU811  SER814 

> <Gold.Protein.RotatedAtoms>
  152.5453  134.1436  159.8488 H   0  0  0  0  0  0  0  0  0  0  0  0  # atno 6907 bound_to 6896
  151.1469  133.4926  159.2603 H   0  0  0  0  0  0  0  0  0  0  0  0  # atno 6908 bound_to 6896
  151.1513  135.0239  159.8724 H   0  0  0  0  0  0  0  0  0  0  0  0  # atno 6909 bound_to 6896
  146.0530  140.6455  142.9033 H   0  0  0  0  0  0  0  0  0  0  0  0  # atno 7974 bound_to 7965
  155.9874  140.3372  155.6720 H   0  0  0  0  0  0  0  0  0  0  0  0  # atno 8008 bound_to 7997
  155.6467  140.0701  157.2618 H   0  0  0  0  0  0  0  0  0  0  0  0  # atno 8009 bound_to 7997
  154.4209  140.1733  156.1618 H   0  0  0  0  0  0  0  0  0  0  0  0  # atno 8010 bound_to 7997
  140.5975  143.8672  150.6932 H   0  0  0  0  0  0  0  0  0  0  0  0  # atno 10167 bound_to 10162
  156.5922  130.8775  151.2892 H   0  0  0  0  0  0  0  0  0  0  0  0  # atno 10718 bound_to 10713
  154.7775  135.3164  154.8061 H   0  0  0  0  0  0  0  0  0  0  0  0  # atno 10763 bound_to 10752
  153.8781  135.6837  153.4773 H   0  0  0  0  0  0  0  0  0  0  0  0  # atno 10764 bound_to 10752
  153.1402  135.4742  154.9421 H   0  0  0  0  0  0  0  0  0  0  0  0  # atno 10765 bound_to 10752
  141.1650  133.7350  156.8880 H   0  0  0  0  0  0  0  0  0  0  0  0  # atno 11005 bound_to 11000
  144.7133  140.4117  143.7064 LP  0  0  0  0  0  0  0  0  0  0  0  0  # atno 17320 bound_to 7965
  145.6692  139.1596  143.2764 LP  0  0  0  0  0  0  0  0  0  0  0  0  # atno 17321 bound_to 7965
  140.2210  143.3809  152.1643 LP  0  0  0  0  0  0  0  0  0  0  0  0  # atno 17342 bound_to 10162
  139.5268  144.7112  151.5200 LP  0  0  0  0  0  0  0  0  0  0  0  0  # atno 17343 bound_to 10162
  157.7301  130.9680  150.1816 LP  0  0  0  0  0  0  0  0  0  0  0  0  # atno 17370 bound_to 10713
  156.2540  130.3703  149.8201 LP  0  0  0  0  0  0  0  0  0  0  0  0  # atno 17371 bound_to 10713
  140.1669  134.9127  157.2784 LP  0  0  0  0  0  0  0  0  0  0  0  0  # atno 17394 bound_to 11000
  140.2547  134.3641  155.7429 LP  0  0  0  0  0  0  0  0  0  0  0  0  # atno 17395 bound_to 11000

$$$$
