#       Name:                AV-unprocessed.smi:2971
#       Creating user name   scv26
#       Creation time:       Fri Mar 27 16:24:45 2020


#       File generated by GOLD software.
#

@<TRIPOS>MOLECULE
AV-unprocessed.smi:2971
    41    43     1
SMALL
NO_CHARGES


@<TRIPOS>ATOM
      1 ****        -0.6515  -1.7692  -2.0254 O.3            1 S1                 0.0000
      2 ****        -0.1695  -0.9634  -0.9681 C.3            1 S1                 0.0000
      3 ****         1.3644  -1.0274  -0.9586 C.3            1 S1                 0.0000
      4 ****         1.8411  -0.3664   0.2059 O.3            1 S1                 0.0000
      5 ****         3.2036  -0.2637   0.3896 C.ar           1 S1                 0.0000
      6 ****         4.1682  -0.8383  -0.4771 C.ar           1 S1                 0.0000
      7 ****         5.5437  -0.6845  -0.2157 C.ar           1 S1                 0.0000
      8 ****         5.9727   0.0427   0.9097 C.ar           1 S1                 0.0000
      9 ****         5.0231   0.6157   1.7756 C.ar           1 S1                 0.0000
     10 ****         3.6473   0.4613   1.5165 C.ar           1 S1                 0.0000
     11 ****         2.7433   1.0176   2.3581 F              1 S1                 0.0000
     12 ****        -0.6991   0.4759  -1.1295 C.3            1 S1                 0.0000
     13 ****        -2.1654   0.5482  -1.1061 N.pl3          1 S1                 0.0000
     14 ****        -3.0553   0.6605  -2.1294 C.2            1 S1                 0.0000
     15 ****        -4.3045   0.6846  -1.5867 N.pl3          1 S1                 1.0000
     16 ****        -4.2111   0.5876  -0.1964 C.ar           1 S1                 0.0000
     17 ****        -5.1969   0.5692   0.7854 C.ar           1 S1                 0.0000
     18 ****        -4.7577   0.4578   2.1212 C.ar           1 S1                 0.0000
     19 ****        -3.3865   0.3712   2.4394 C.ar           1 S1                 0.0000
     20 ****        -2.3953   0.3923   1.4360 C.ar           1 S1                 0.0000
     21 ****        -2.8387   0.5011   0.1186 C.ar           1 S1                 0.0000
     22 ****        -0.2931  -1.4450  -2.8376 H              1 S1                 0.0000
     23 ****        -0.5438  -1.3913  -0.0375 H              1 S1                 0.0000
     24 ****         1.6883  -2.0696  -0.9426 H              1 S1                 0.0000
     25 ****         1.7648  -0.5610  -1.8605 H              1 S1                 0.0000
     26 ****         3.8791  -1.4039  -1.3497 H              1 S1                 0.0000
     27 ****         6.2710  -1.1262  -0.8812 H              1 S1                 0.0000
     28 ****         7.0277   0.1607   1.1086 H              1 S1                 0.0000
     29 ****         5.3496   1.1751   2.6399 H              1 S1                 0.0000
     30 ****        -0.3138   1.1268  -0.3436 H              1 S1                 0.0000
     31 ****        -0.3634   0.9020  -2.0759 H              1 S1                 0.0000
     32 ****        -2.8148   0.7166  -3.1813 H              1 S1                 0.0000
     33 ****        -6.2479   0.6350   0.5448 H              1 S1                 0.0000
     34 ****        -5.4872   0.4379   2.9178 H              1 S1                 0.0000
     35 ****        -3.0883   0.2859   3.4743 H              1 S1                 0.0000
     36 ****        -1.3471   0.3240   1.6884 H              1 S1                 0.0000
     37 ****        -5.1562   0.7604  -2.1279 H              1 S1                 0.0000
     38 ****        -1.6500  -1.7240  -2.0556 LP             1 S1                 0.0000
     39 ****        -0.3649  -2.7169  -1.8848 LP             1 S1                 0.0000
     40 ****         1.4722  -0.8562   0.9959 LP             1 S1                 0.0000
     41 ****         1.4740   0.5636   0.1893 LP             1 S1                 0.0000
@<TRIPOS>BOND
    1    1    2 1     
    2    1   22 1     
    3    2    3 1     
    4    2   12 1     
    5    2   23 1     
    6    3    4 1     
    7    3   24 1     
    8    3   25 1     
    9    4    5 1     
   10    5   10 ar    
   11    5    6 ar    
   12    6    7 ar    
   13    6   26 1     
   14    7    8 ar    
   15    7   27 1     
   16    8    9 ar    
   17    8   28 1     
   18    9   10 ar    
   19    9   29 1     
   20   10   11 1     
   21   12   13 1     
   22   12   30 1     
   23   12   31 1     
   24   13   21 1     
   25   13   14 1     
   26   14   15 2     
   27   14   32 1     
   28   15   16 1     
   29   15   37 1     
   30   16   21 ar    
   31   16   17 ar    
   32   17   18 ar    
   33   17   33 1     
   34   18   19 ar    
   35   18   34 1     
   36   19   20 ar    
   37   19   35 1     
   38   20   21 ar    
   39   20   36 1     
   40    1   38 1     
   41    1   39 1     
   42    4   40 1     
   43    4   41 1     
@<TRIPOS>SUBSTRUCTURE
      1 S1             1
@<TRIPOS>SET
LONE_PAIRS      STATIC     ATOMS    <user>   **** ""
4 38 39 40 41
DONOR_HYDROGENS      STATIC     ATOMS    <user>   **** ""
2 22 37
ATOM$BLUE        STATIC     ATOMS    COLORGROUP SYSTEM
4 38 39 40 41
ATOM$RED        STATIC     ATOMS    COLORGROUP SYSTEM
2 22 37
