AV-unprocessed.smi:3036|AV-procd|sdf|11582|dock3
  -GOLD-   2272016553D 1   1.00000     0.00000
 Structure written by MMmdl.
 42 43  0  0  0  0  0  0  0  0  2 V2000
  146.5633  132.7965  154.1916 C   0  0  0  0  0  0  0  0  0  0  0  0
  147.2083  133.7124  153.1431 C   0  0  2  0  0  0  0  0  0  0  0  0
  147.3393  133.0033  151.7810 C   0  0  0  0  0  0  0  0  0  0  0  0
  146.0488  132.7566  151.1617 N   0  0  0  0  0  0  0  0  0  0  0  0
  145.7585  131.9655  150.0703 C   0  0  0  0  0  0  0  0  0  0  0  0
  144.4097  132.0314  149.8686 C   0  0  0  0  0  0  0  0  0  0  0  0
  143.9547  132.9001  150.8993 C   0  0  0  0  0  0  0  0  0  0  0  0
  144.9379  133.3309  151.6734 N   0  0  0  0  0  0  0  0  0  0  0  0
  148.5336  134.1631  153.6227 N   0  3  0  0  0  0  0  0  0  0  0  0
  148.5496  134.6720  155.0111 C   0  0  0  0  0  0  0  0  0  0  0  0
  148.9381  136.1623  155.0792 C   0  0  0  0  0  0  0  0  0  0  0  0
  150.4313  136.4562  154.8388 C   0  0  0  0  0  0  0  0  0  0  0  0
  151.2553  135.5632  155.0434 O   0  0  0  0  0  0  0  0  0  0  0  0
  150.7961  137.6880  154.4084 N   0  0  0  0  0  0  0  0  0  0  0  0
  149.8431  138.7843  154.2118 C   0  0  0  0  0  0  0  0  0  0  0  0
  150.1811  139.9078  155.2084 C   0  0  0  0  0  0  0  0  0  0  0  0
  151.5280  140.3328  155.0155 O   0  0  0  0  0  0  0  0  0  0  0  0
  152.4758  139.2802  155.1749 C   0  0  0  0  0  0  0  0  0  0  0  0
  152.1678  138.1518  154.1744 C   0  0  0  0  0  0  0  0  0  0  0  0
  145.5723  132.4721  153.8724 H   0  0  0  0  0  0  0  0  0  0  0  0
  146.4480  133.3118  155.1459 H   0  0  0  0  0  0  0  0  0  0  0  0
  147.1651  131.9036  154.3652 H   0  0  0  0  0  0  0  0  0  0  0  0
  146.5539  134.5764  153.0146 H   0  0  0  0  0  0  0  0  0  0  0  0
  147.9558  133.5884  151.0964 H   0  0  0  0  0  0  0  0  0  0  0  0
  147.8410  132.0428  151.9061 H   0  0  0  0  0  0  0  0  0  0  0  0
  146.5261  131.4260  149.5353 H   0  0  0  0  0  0  0  0  0  0  0  0
  143.8348  131.5351  149.1007 H   0  0  0  0  0  0  0  0  0  0  0  0
  142.9464  133.2264  151.1075 H   0  0  0  0  0  0  0  0  0  0  0  0
  149.1843  133.3930  153.5537 H   0  0  0  0  0  0  0  0  0  0  0  0
  147.5546  134.5463  155.4407 H   0  0  0  0  0  0  0  0  0  0  0  0
  149.2309  134.0687  155.6133 H   0  0  0  0  0  0  0  0  0  0  0  0
  148.3418  136.7156  154.3525 H   0  0  0  0  0  0  0  0  0  0  0  0
  148.6723  136.5427  156.0662 H   0  0  0  0  0  0  0  0  0  0  0  0
  149.9219  139.1519  153.1878 H   0  0  0  0  0  0  0  0  0  0  0  0
  148.8048  138.4772  154.3431 H   0  0  0  0  0  0  0  0  0  0  0  0
  149.5176  140.7592  155.0571 H   0  0  0  0  0  0  0  0  0  0  0  0
  150.0406  139.5704  156.2365 H   0  0  0  0  0  0  0  0  0  0  0  0
  153.4760  139.6775  155.0011 H   0  0  0  0  0  0  0  0  0  0  0  0
  152.4523  138.9087  156.2005 H   0  0  0  0  0  0  0  0  0  0  0  0
  152.9206  137.3705  154.2605 H   0  0  0  0  0  0  0  0  0  0  0  0
  152.2483  138.5276  153.1533 H   0  0  0  0  0  0  0  0  0  0  0  0
  148.8469  134.9053  153.0127 H   0  0  0  0  0  0  0  0  0  0  0  0
  1  2  1  0  0  0  0
  1 20  1  0  0  0  0
  1 21  1  0  0  0  0
  1 22  1  0  0  0  0
  2  3  1  0  0  0  0
  2  9  1  0  0  0  0
  2 23  1  0  0  0  0
  3  4  1  0  0  0  0
  3 24  1  0  0  0  0
  3 25  1  0  0  0  0
  4  8  1  0  0  0  0
  4  5  1  0  0  0  0
  5  6  2  0  0  0  0
  5 26  1  0  0  0  0
  6  7  1  0  0  0  0
  6 27  1  0  0  0  0
  7  8  2  0  0  0  0
  7 28  1  0  0  0  0
  9 10  1  0  0  0  0
  9 29  1  0  0  0  0
  9 42  1  0  0  0  0
 10 11  1  0  0  0  0
 10 30  1  0  0  0  0
 10 31  1  0  0  0  0
 11 12  1  0  0  0  0
 11 32  1  0  0  0  0
 11 33  1  0  0  0  0
 12 13  2  0  0  0  0
 12 14  1  0  0  0  0
 14 19  1  0  0  0  0
 14 15  1  0  0  0  0
 15 16  1  0  0  0  0
 15 34  1  0  0  0  0
 15 35  1  0  0  0  0
 16 17  1  0  0  0  0
 16 36  1  0  0  0  0
 16 37  1  0  0  0  0
 17 18  1  0  0  0  0
 18 19  1  0  0  0  0
 18 38  1  0  0  0  0
 18 39  1  0  0  0  0
 19 40  1  0  0  0  0
 19 41  1  0  0  0  0
M  CHG  1   9   1
M  END
> <s_m_source_file>
AV-unprocessed.smi

> <i_m_source_file_index>
3036

> <i_lp_mmshare_version>
43012

> <i_f3d_flags>
0

> <s_epik_input>
bjFbY0hdW2NIXVtjSF1uMVtDSDJdW0NAQEhdKFtDSDNdKVtOSF1bQ0gyXVtDSDJdQyg9TylOMltDSDJdW0NIMl1PW0NIMl1bQ0gyXTI=

> <s_epik_cmdline>
J2VwaWtfcHl0aG9uJywgJy1waCcsICc3LjAnLCAnLXRuJywgJzgnLCAnLW1hJywgJzIwMCcsICctbWV0YWxfYmluZGluZycsICctaW1hZScsICc8aW5maWxlLm1hZT4nLCAnLW9tYWUnLCAnPG91dGZpbGUubWFlPic=

> <r_lp_tautomer_probability>
1

> <r_epik_Ionization_Penalty>
0.00797109

> <r_epik_Ionization_Penalty_Charging>
0.0079672

> <r_epik_Ionization_Penalty_Neutral>
3.88864e-06

> <r_epik_State_Penalty>
0.00597998

> <r_epik_Charging_Adjusted_Penalty>
0.0139472

> <i_epik_Tot_Q>
1

> <i_epik_Tot_abs_Q>
1

> <r_epik_Metal_State_Penalty>
0.00598029

> <b_epik_Metal_Only>
0

> <s_lp_Force_Field>
OPLS_2005

> <r_lp_Energy>
23.8433

> <b_lp_Chiralities_Consistent>
1

> <s_lp_Variant>
AV-unprocessed.smi:3036-1

> <Gold.Version>
5.8.1

> <Gold.Id.Protein>
6NUR|6NUR_protein|mol2

> <Gold.PLP.Fitness>
52.6731

> <Gold.PLP.PLP>
-36.6225

> <Gold.PLP.part.hbond>
-3.0000

> <Gold.PLP.part.metal>
0.0000

> <Gold.PLP.part.buried>
-3.9044

> <Gold.PLP.part.nonpolar>
-30.6113

> <Gold.PLP.part.repulsive>
0.2542

> <Gold.PLP.ligand.clash>
0.0000

> <Gold.PLP.ligand.torsion>
0.9678

> <Gold.PLP.Chemscore.Hbond>
3.9440

> <Gold.PLP.Chemscore.CHOScore>
1.9964

> <Gold.PLP.Chemscore.Metal>
0.0000

> <Gold.Chemscore.Hbonds>
donor molecule, donor type, donor heavy atom, donor atom, acceptor molecule, acceptor atom, score
      L1  H     9    42       P1  7948  1.80
      P1  H  7989  7998       L1    17  0.96
      P1  H 10752 10763       L1    13  1.00
      L1  C     5    26       P1 10747  0.82
      L1  C     7    28       P1 10186  0.44

> <Gold.PLP.Chemscore.Internal.Correction>
0.1650

> <Gold.Rescore>
     Score         DG    S(hbond)    S(metal)    S(lipo)     H(rot)  DE(clash)    DE(int)     intcor
     15.44     -16.53       2.08        0.00      80.34       2.07       0.17       0.93       ----

> <Gold.Chemscore.Fitness>
15.4354

> <Gold.Chemscore.DG>
-16.5282

> <Gold.Chemscore.ZeroCoef>
-5.4800

> <Gold.Chemscore.Hbond>
2.0787

> <Gold.Chemscore.Metal>
0.0000

> <Gold.Chemscore.Lipo>
80.3374

> <Gold.Chemscore.Internal_Hbond>
0.0000

> <Gold.Chemscore.DEClash>
0.1664

> <Gold.Chemscore.DEInternal>
0.9265

> <Gold.Chemscore.Rot>
2.0680

> <Gold.Chemscore.Internal.Correction>
   9.000000E+99

> <Gold.Chemscore.Hbonds>
donor molecule, donor type, donor heavy atom, donor atom, acceptor molecule, acceptor atom, score
      L1  H     9    42       P1  7948  0.18
      P1  H  7989  7998       L1    17  0.39
      P1  H 10752 10763       L1    13  0.98

> <Gold.Chemscore.Hbond.Weighted>
-6.9428

> <Gold.Chemscore.Metal.Weighted>
-0.0000

> <Gold.Chemscore.Lipo.Weighted>
-9.3995

> <Gold.Chemscore.Internal_Hbond.Weighted>
0.0000

> <Gold.Chemscore.DEClash.Weighted>
0.1664

> <Gold.Chemscore.DEInternal.Weighted>
0.9265

> <Gold.Chemscore.Rot.Weighted>
5.2941

> <Gold.Chemscore.Internal.Correction.Weighted>
   9.000000E+99

> <Gold.Protein.RotatedTorsions>
[ 6907 6896 6895 6894 ] final -127.63 input  -60.11 | X-H torsion
[ 7974 7965 7964 7962 ] final  127.37 input  175.53 | X-H torsion
[ 8008 7997 7996 7995 ] final  -33.12 input   59.86 | X-H torsion
[ 10167 10162 10161 10158 ] final  143.15 input  -65.29 | X-H torsion
[ 10718 10713 10712 10709 ] final  -95.54 input   66.30 | X-H torsion
[ 10763 10752 10751 10750 ] final   71.88 input  -60.55 | X-H torsion
[ 11005 11000 10999 10996 ] final  160.00 input  -57.11 | X-H torsion

> <Gold.Protein.ActiveResidues>
 VAL166  LYS551  ARG553  GLY616  TRP617  ASP618  TYR619  PRO620  LYS621  CYS622 
 ASP623  PHE694  ASN695  SER759  ASP760  ASP761  ALA762  ILE779  LEU786  VAL792 
 PHE793  MET794  SER795  GLU796  ALA797  LYS798  CYS799  TRP800  GLU811  SER814 

> <Gold.Protein.RotatedAtoms>
  150.9093  133.7018  159.2858 H   0  0  0  0  0  0  0  0  0  0  0  0  # atno 6907 bound_to 6896
  151.4510  135.1028  159.9707 H   0  0  0  0  0  0  0  0  0  0  0  0  # atno 6908 bound_to 6896
  152.4921  133.8479  159.7241 H   0  0  0  0  0  0  0  0  0  0  0  0  # atno 6909 bound_to 6896
  145.0513  139.3880  143.5052 H   0  0  0  0  0  0  0  0  0  0  0  0  # atno 7974 bound_to 7965
  154.4158  140.1719  156.1837 H   0  0  0  0  0  0  0  0  0  0  0  0  # atno 8008 bound_to 7997
  155.9661  140.3389  155.6510 H   0  0  0  0  0  0  0  0  0  0  0  0  # atno 8009 bound_to 7997
  155.6686  140.0709  157.2519 H   0  0  0  0  0  0  0  0  0  0  0  0  # atno 8010 bound_to 7997
  139.4976  144.6060  151.6378 H   0  0  0  0  0  0  0  0  0  0  0  0  # atno 10167 bound_to 10162
  156.0045  130.5113  150.6091 H   0  0  0  0  0  0  0  0  0  0  0  0  # atno 10718 bound_to 10713
  153.0425  135.5121  154.7659 H   0  0  0  0  0  0  0  0  0  0  0  0  # atno 10763 bound_to 10752
  154.6585  135.2935  154.9899 H   0  0  0  0  0  0  0  0  0  0  0  0  # atno 10764 bound_to 10752
  154.0758  135.6671  153.4883 H   0  0  0  0  0  0  0  0  0  0  0  0  # atno 10765 bound_to 10752
  140.2017  134.8333  157.3025 H   0  0  0  0  0  0  0  0  0  0  0  0  # atno 11005 bound_to 11000
  146.3518  140.0165  142.8662 LP  0  0  0  0  0  0  0  0  0  0  0  0  # atno 17320 bound_to 7965
  145.1523  140.9630  143.4425 LP  0  0  0  0  0  0  0  0  0  0  0  0  # atno 17321 bound_to 7965
  140.5722  144.0090  150.6222 LP  0  0  0  0  0  0  0  0  0  0  0  0  # atno 17342 bound_to 10162
  140.3211  143.3136  152.0783 LP  0  0  0  0  0  0  0  0  0  0  0  0  # atno 17343 bound_to 10162
  157.3927  131.0798  151.1380 LP  0  0  0  0  0  0  0  0  0  0  0  0  # atno 17370 bound_to 10713
  157.2066  130.6419  149.5758 LP  0  0  0  0  0  0  0  0  0  0  0  0  # atno 17371 bound_to 10713
  140.2047  134.4211  155.7644 LP  0  0  0  0  0  0  0  0  0  0  0  0  # atno 17394 bound_to 11000
  141.2227  133.7089  156.8241 LP  0  0  0  0  0  0  0  0  0  0  0  0  # atno 17395 bound_to 11000

$$$$
