#       Name:                AV-unprocessed.smi:3297
#       Creating user name   scv26
#       Creation time:       Fri Mar 27 18:57:29 2020


#       File generated by GOLD software.
#

@<TRIPOS>MOLECULE
AV-unprocessed.smi:3297
    40    41     1
SMALL
NO_CHARGES


@<TRIPOS>ATOM
      1 ****        -2.7598   4.0331  -0.2385 O.3            1 S1                 0.0000
      2 ****        -3.4010   3.0226  -0.9876 C.3            1 S1                 0.0000
      3 ****        -2.7712   1.6582  -0.6826 C.3            1 S1                 0.0000
      4 ****        -1.6105   1.4951  -1.4853 O.3            1 S1                 0.0000
      5 ****        -0.9334   0.2598  -1.2955 C.3            1 S1                 0.0000
      6 ****        -0.0424   0.0264  -2.5270 C.3            1 S1                 0.0000
      7 ****         0.7975  -1.2465  -2.3446 C.3            1 S1                 0.0000
      8 ****         1.6142  -1.1814  -1.0438 C.3            1 S1                 0.0000
      9 ****         0.7479  -0.9124   0.1036 N.3            1 S1                 0.0000
     10 ****         1.3514  -1.1626   1.3530 C.ar           1 S1                 0.0000
     11 ****         1.5695  -0.1100   2.1808 N.ar           1 S1                 0.0000
     12 ****         2.1607  -0.3310   3.3741 C.ar           1 S1                 0.0000
     13 ****         2.5660  -1.6065   3.8101 C.ar           1 S1                 0.0000
     14 ****         2.3370  -2.7036   2.9596 C.ar           1 S1                 0.0000
     15 ****         1.7193  -2.4827   1.7132 C.ar           1 S1                 0.0000
     16 ****         1.4710  -3.5310   0.8908 F              1 S1                 0.0000
     17 ****        -0.0756   0.2931  -0.0125 C.3            1 S1                 0.0000
     18 ****        -3.1631   4.8621  -0.4457 H              1 S1                 0.0000
     19 ****        -4.4525   3.0163  -0.6994 H              1 S1                 0.0000
     20 ****        -3.3587   3.2511  -2.0530 H              1 S1                 0.0000
     21 ****        -2.5565   1.5590   0.3819 H              1 S1                 0.0000
     22 ****        -3.4831   0.8733  -0.9427 H              1 S1                 0.0000
     23 ****        -1.6562  -0.5561  -1.2358 H              1 S1                 0.0000
     24 ****        -0.6545  -0.0530  -3.4260 H              1 S1                 0.0000
     25 ****         0.6184   0.8821  -2.6728 H              1 S1                 0.0000
     26 ****         0.1423  -2.1184  -2.3218 H              1 S1                 0.0000
     27 ****         1.4639  -1.3812  -3.1969 H              1 S1                 0.0000
     28 ****         2.1659  -2.1123  -0.9172 H              1 S1                 0.0000
     29 ****         2.3580  -0.3865  -1.1121 H              1 S1                 0.0000
     30 ****         2.3155   0.5357   3.9995 H              1 S1                 0.0000
     31 ****         3.0365  -1.7396   4.7730 H              1 S1                 0.0000
     32 ****         2.6268  -3.6999   3.2593 H              1 S1                 0.0000
     33 ****         0.5724   1.1709  -0.0233 H              1 S1                 0.0000
     34 ****        -0.7171   0.3768   0.8650 H              1 S1                 0.0000
     35 ****        -1.7883   4.0624  -0.4740 LP             1 S1                 0.0000
     36 ****        -2.8603   3.8439   0.7383 LP             1 S1                 0.0000
     37 ****        -0.9747   2.2364  -1.2700 LP             1 S1                 0.0000
     38 ****        -1.8829   1.5580  -2.4454 LP             1 S1                 0.0000
     39 ****         0.0441  -1.6220   0.0691 LP             1 S1                 0.0000
     40 ****         1.2970   0.8137   1.9116 LP             1 S1                 0.0000
@<TRIPOS>BOND
    1    1    2 1     
    2    1   18 1     
    3    2    3 1     
    4    2   19 1     
    5    2   20 1     
    6    3    4 1     
    7    3   21 1     
    8    3   22 1     
    9    4    5 1     
   10    5   17 1     
   11    5    6 1     
   12    5   23 1     
   13    6    7 1     
   14    6   24 1     
   15    6   25 1     
   16    7    8 1     
   17    7   26 1     
   18    7   27 1     
   19    8    9 1     
   20    8   28 1     
   21    8   29 1     
   22    9   10 1     
   23    9   17 1     
   24   10   15 ar    
   25   10   11 ar    
   26   11   12 ar    
   27   12   13 ar    
   28   12   30 1     
   29   13   14 ar    
   30   13   31 1     
   31   14   15 ar    
   32   14   32 1     
   33   15   16 1     
   34   17   33 1     
   35   17   34 1     
   36    1   35 1     
   37    1   36 1     
   38    4   37 1     
   39    4   38 1     
   40    9   39 1     
   41   11   40 1     
@<TRIPOS>SUBSTRUCTURE
      1 S1             1
@<TRIPOS>SET
LONE_PAIRS      STATIC     ATOMS    <user>   **** ""
6 35 36 37 38 39 40
DONOR_HYDROGENS      STATIC     ATOMS    <user>   **** ""
1 18
ATOM$BLUE        STATIC     ATOMS    COLORGROUP SYSTEM
6 35 36 37 38 39 40
ATOM$RED        STATIC     ATOMS    COLORGROUP SYSTEM
1 18
