AV-unprocessed.smi:577|AV-procd|sdf|2980|dock10
  -GOLD-   2262023493D 1   1.00000     0.00000
 Structure written by MMmdl.
 41 42  0  0  0  0  0  0  0  0  1 V2000
  147.5083  133.5069  159.0279 C   0  0  0  0  0  0  0  0  0  0  0  0
  147.3966  134.2708  160.3362 C   0  0  0  0  0  0  0  0  0  0  0  0
  147.1977  133.7240  161.5400 C   0  0  0  0  0  0  0  0  0  0  0  0
  147.1626  134.9082  162.8234 S   0  0  0  0  0  0  0  0  0  0  0  0
  147.4431  136.2244  161.6280 C   0  0  0  0  0  0  0  0  0  0  0  0
  147.5286  137.4089  161.9483 O   0  0  0  0  0  0  0  0  0  0  0  0
  147.5327  135.6663  160.3531 N   0  0  0  0  0  0  0  0  0  0  0  0
  147.7433  136.4764  159.1459 C   0  0  0  0  0  0  0  0  0  0  0  0
  149.1570  137.0655  159.0470 C   0  0  0  0  0  0  0  0  0  0  0  0
  149.9803  136.8946  159.9472 O   0  0  0  0  0  0  0  0  0  0  0  0
  149.4189  137.7557  157.9264 N   0  0  0  0  0  0  0  0  0  0  0  0
  150.6848  138.4032  157.5856 C   0  0  0  0  0  0  0  0  0  0  0  0
  151.0177  139.4494  158.6696 C   0  0  0  0  0  0  0  0  0  0  0  0
  152.1941  140.3807  158.3219 C   0  0  0  0  0  0  0  0  0  0  0  0
  151.8070  141.8589  158.1298 C   0  0  0  0  0  0  0  0  0  0  0  0
  150.5351  142.1535  157.3069 C   0  0  0  0  0  0  0  0  0  0  0  0
  150.4583  141.5074  155.9121 C   0  0  0  0  0  0  0  0  0  0  0  0
  149.7404  140.1414  155.8537 C   0  0  0  0  0  0  0  0  0  0  0  0
  150.6344  138.9173  156.1273 C   0  0  0  0  0  0  0  0  0  0  0  0
  147.7509  132.4617  159.2215 H   0  0  0  0  0  0  0  0  0  0  0  0
  148.2932  133.9079  158.3871 H   0  0  0  0  0  0  0  0  0  0  0  0
  146.5620  133.5404  158.4882 H   0  0  0  0  0  0  0  0  0  0  0  0
  147.0786  132.6721  161.7539 H   0  0  0  0  0  0  0  0  0  0  0  0
  147.5270  135.8967  158.2484 H   0  0  0  0  0  0  0  0  0  0  0  0
  147.0280  137.3007  159.1339 H   0  0  0  0  0  0  0  0  0  0  0  0
  148.6782  137.8370  157.2450 H   0  0  0  0  0  0  0  0  0  0  0  0
  151.4873  137.6640  157.6121 H   0  0  0  0  0  0  0  0  0  0  0  0
  150.1304  140.0260  158.9279 H   0  0  0  0  0  0  0  0  0  0  0  0
  151.2643  138.9117  159.5864 H   0  0  0  0  0  0  0  0  0  0  0  0
  152.9298  140.3295  159.1253 H   0  0  0  0  0  0  0  0  0  0  0  0
  152.7304  140.0233  157.4442 H   0  0  0  0  0  0  0  0  0  0  0  0
  151.6790  142.3133  159.1130 H   0  0  0  0  0  0  0  0  0  0  0  0
  152.6527  142.3783  157.6775 H   0  0  0  0  0  0  0  0  0  0  0  0
  149.6375  141.9165  157.8775 H   0  0  0  0  0  0  0  0  0  0  0  0
  150.4936  143.2353  157.1743 H   0  0  0  0  0  0  0  0  0  0  0  0
  149.8833  142.1880  155.2828 H   0  0  0  0  0  0  0  0  0  0  0  0
  151.4447  141.4582  155.4495 H   0  0  0  0  0  0  0  0  0  0  0  0
  148.8518  140.1334  156.4855 H   0  0  0  0  0  0  0  0  0  0  0  0
  149.3643  140.0319  154.8359 H   0  0  0  0  0  0  0  0  0  0  0  0
  151.6398  139.1065  155.7519 H   0  0  0  0  0  0  0  0  0  0  0  0
  150.2744  138.0947  155.5074 H   0  0  0  0  0  0  0  0  0  0  0  0
  1  2  1  0  0  0  0
  1 20  1  0  0  0  0
  1 21  1  0  0  0  0
  1 22  1  0  0  0  0
  2  7  1  0  0  0  0
  2  3  2  0  0  0  0
  3  4  1  0  0  0  0
  3 23  1  0  0  0  0
  4  5  1  0  0  0  0
  5  6  2  0  0  0  0
  5  7  1  0  0  0  0
  7  8  1  0  0  0  0
  8  9  1  0  0  0  0
  8 24  1  0  0  0  0
  8 25  1  0  0  0  0
  9 10  2  0  0  0  0
  9 11  1  0  0  0  0
 11 12  1  0  0  0  0
 11 26  1  0  0  0  0
 12 19  1  0  0  0  0
 12 13  1  0  0  0  0
 12 27  1  0  0  0  0
 13 14  1  0  0  0  0
 13 28  1  0  0  0  0
 13 29  1  0  0  0  0
 14 15  1  0  0  0  0
 14 30  1  0  0  0  0
 14 31  1  0  0  0  0
 15 16  1  0  0  0  0
 15 32  1  0  0  0  0
 15 33  1  0  0  0  0
 16 17  1  0  0  0  0
 16 34  1  0  0  0  0
 16 35  1  0  0  0  0
 17 18  1  0  0  0  0
 17 36  1  0  0  0  0
 17 37  1  0  0  0  0
 18 19  1  0  0  0  0
 18 38  1  0  0  0  0
 18 39  1  0  0  0  0
 19 40  1  0  0  0  0
 19 41  1  0  0  0  0
M  END
> <s_m_source_file>
AV-unprocessed.smi

> <i_m_source_file_index>
577

> <i_lp_mmshare_version>
43012

> <i_f3d_flags>
0

> <s_epik_input>
W0NIM11jMVtjSF1zYyg9TyluMVtDSDJdQyg9TylbTkhdW0NIXTJbQ0gyXVtDSDJdW0NIMl1bQ0gyXVtDSDJdW0NIMl1bQ0gyXTI=

> <s_epik_cmdline>
J2VwaWtfcHl0aG9uJywgJy1waCcsICc3LjAnLCAnLXRuJywgJzgnLCAnLW1hJywgJzIwMCcsICctbWV0YWxfYmluZGluZycsICctaW1hZScsICc8aW5maWxlLm1hZT4nLCAnLW9tYWUnLCAnPG91dGZpbGUubWFlPic=

> <r_lp_tautomer_probability>
1

> <r_epik_Ionization_Penalty>
1.32564e-06

> <r_epik_Ionization_Penalty_Charging>
1.22505e-06

> <r_epik_Ionization_Penalty_Neutral>
1.00582e-07

> <r_epik_State_Penalty>
-0

> <r_epik_Charging_Adjusted_Penalty>
1.22505e-06

> <i_epik_Tot_Q>
0

> <i_epik_Tot_abs_Q>
0

> <r_epik_Metal_State_Penalty>
-0

> <b_epik_Metal_Only>
0

> <s_lp_Force_Field>
OPLS_2005

> <r_lp_Energy>
25.6493

> <b_lp_Chiralities_Consistent>
1

> <s_lp_Variant>
AV-unprocessed.smi:577-1

> <Gold.Version>
5.8.1

> <Gold.Id.Protein>
6NUR|6NUR_protein|mol2

> <Gold.PLP.Fitness>
41.3451

> <Gold.PLP.PLP>
-33.6685

> <Gold.PLP.part.hbond>
-3.8458

> <Gold.PLP.part.metal>
0.0000

> <Gold.PLP.part.buried>
-3.7380

> <Gold.PLP.part.nonpolar>
-26.5289

> <Gold.PLP.part.repulsive>
0.0937

> <Gold.PLP.ligand.clash>
0.0000

> <Gold.PLP.ligand.torsion>
0.1522

> <Gold.PLP.Chemscore.Hbond>
2.6480

> <Gold.PLP.Chemscore.CHOScore>
0.0000

> <Gold.PLP.Chemscore.Metal>
0.0000

> <Gold.Chemscore.Hbonds>
donor molecule, donor type, donor heavy atom, donor atom, acceptor molecule, acceptor atom, score
      P1  H  6896  6907       L1    10  0.73
      P1  H  6931  6943       L1     6  0.83
      P1  H  6934  6947       L1     6  0.64

> <Gold.PLP.Chemscore.Internal.Correction>
0.0370

> <Gold.Rescore>
     Score         DG    S(hbond)    S(metal)    S(lipo)     H(rot)  DE(clash)    DE(int)     intcor
     19.36     -19.61       2.68        0.00      74.45       1.39       0.00       0.25       ----

> <Gold.Chemscore.Fitness>
19.3567

> <Gold.Chemscore.DG>
-19.6063

> <Gold.Chemscore.ZeroCoef>
-5.4800

> <Gold.Chemscore.Hbond>
2.6836

> <Gold.Chemscore.Metal>
0.0000

> <Gold.Chemscore.Lipo>
74.4510

> <Gold.Chemscore.Internal_Hbond>
0.0000

> <Gold.Chemscore.DEClash>
0.0000

> <Gold.Chemscore.DEInternal>
0.2496

> <Gold.Chemscore.Rot>
1.3858

> <Gold.Chemscore.Internal.Correction>
   9.000000E+99

> <Gold.Chemscore.Hbonds>
donor molecule, donor type, donor heavy atom, donor atom, acceptor molecule, acceptor atom, score
      P1  H  6896  6907       L1    10  0.66
      P1  H  6931  6943       L1     6  0.83
      P1  H  6934  6947       L1     6  0.64

> <Gold.Chemscore.Hbond.Weighted>
-8.9632

> <Gold.Chemscore.Metal.Weighted>
-0.0000

> <Gold.Chemscore.Lipo.Weighted>
-8.7108

> <Gold.Chemscore.Internal_Hbond.Weighted>
0.0000

> <Gold.Chemscore.DEClash.Weighted>
0.0000

> <Gold.Chemscore.DEInternal.Weighted>
0.2496

> <Gold.Chemscore.Rot.Weighted>
3.5476

> <Gold.Chemscore.Internal.Correction.Weighted>
   9.000000E+99

> <Gold.Protein.RotatedTorsions>
[ 6907 6896 6895 6894 ] final  -31.11 input  -60.11 | X-H torsion
[ 7974 7965 7964 7962 ] final   58.05 input  175.53 | X-H torsion
[ 8008 7997 7996 7995 ] final   61.02 input   59.86 | X-H torsion
[ 10167 10162 10161 10158 ] final  -79.78 input  -65.29 | X-H torsion
[ 10718 10713 10712 10709 ] final   54.84 input   66.30 | X-H torsion
[ 10763 10752 10751 10750 ] final  154.11 input  -60.55 | X-H torsion
[ 11005 11000 10999 10996 ] final  162.39 input  -57.11 | X-H torsion

> <Gold.Protein.ActiveResidues>
 VAL166  LYS551  ARG553  GLY616  TRP617  ASP618  TYR619  PRO620  LYS621  CYS622 
 ASP623  PHE694  ASN695  SER759  ASP760  ASP761  ALA762  ILE779  LEU786  VAL792 
 PHE793  MET794  SER795  GLU796  ALA797  LYS798  CYS799  TRP800  GLU811  SER814 

> <Gold.Protein.RotatedAtoms>
  151.0965  134.9947  159.8427 H   0  0  0  0  0  0  0  0  0  0  0  0  # atno 6907 bound_to 6896
  152.5433  134.2001  159.8719 H   0  0  0  0  0  0  0  0  0  0  0  0  # atno 6908 bound_to 6896
  151.2041  133.4549  159.2630 H   0  0  0  0  0  0  0  0  0  0  0  0  # atno 6909 bound_to 6896
  145.9224  139.3740  143.0470 H   0  0  0  0  0  0  0  0  0  0  0  0  # atno 7974 bound_to 7965
  155.5917  140.3493  155.4568 H   0  0  0  0  0  0  0  0  0  0  0  0  # atno 8008 bound_to 7997
  156.0296  140.1271  157.0296 H   0  0  0  0  0  0  0  0  0  0  0  0  # atno 8009 bound_to 7997
  154.4347  140.1046  156.6067 H   0  0  0  0  0  0  0  0  0  0  0  0  # atno 8010 bound_to 7997
  140.4562  143.2467  151.8416 H   0  0  0  0  0  0  0  0  0  0  0  0  # atno 10167 bound_to 10162
  157.5293  130.8619  149.8665 H   0  0  0  0  0  0  0  0  0  0  0  0  # atno 10718 bound_to 10713
  154.1470  135.2817  155.3145 H   0  0  0  0  0  0  0  0  0  0  0  0  # atno 10763 bound_to 10752
  154.6245  135.5456  153.7615 H   0  0  0  0  0  0  0  0  0  0  0  0  # atno 10764 bound_to 10752
  153.0232  135.6447  154.1616 H   0  0  0  0  0  0  0  0  0  0  0  0  # atno 10765 bound_to 10752
  140.2253  134.8165  157.3262 H   0  0  0  0  0  0  0  0  0  0  0  0  # atno 11005 bound_to 11000
  145.8533  140.9517  143.0738 LP  0  0  0  0  0  0  0  0  0  0  0  0  # atno 17320 bound_to 7965
  144.6754  140.0435  143.7480 LP  0  0  0  0  0  0  0  0  0  0  0  0  # atno 17321 bound_to 7965
  139.4801  144.5062  151.8994 LP  0  0  0  0  0  0  0  0  0  0  0  0  # atno 17342 bound_to 10162
  140.4148  144.2321  150.5888 LP  0  0  0  0  0  0  0  0  0  0  0  0  # atno 17343 bound_to 10162
  156.0410  130.3739  150.1435 LP  0  0  0  0  0  0  0  0  0  0  0  0  # atno 17370 bound_to 10713
  156.9620  130.9808  151.3477 LP  0  0  0  0  0  0  0  0  0  0  0  0  # atno 17371 bound_to 10713
  140.1807  134.4493  155.7774 LP  0  0  0  0  0  0  0  0  0  0  0  0  # atno 17394 bound_to 11000
  141.2221  133.6982  156.7863 LP  0  0  0  0  0  0  0  0  0  0  0  0  # atno 17395 bound_to 11000

$$$$
