AV-unprocessed.smi:34|AV-procd|sdf|218|dock2
  -GOLD-   2262015533D 1   1.00000     0.00000
 Structure written by MMmdl.
 55 59  0  0  0  0  0  0  0  0  1 V2000
  153.2706  139.6751  158.4422 O   0  0  0  0  0  0  0  0  0  0  0  0
  152.4366  140.5184  158.1113 C   0  0  0  0  0  0  0  0  0  0  0  0
  151.6233  140.3766  156.9166 N   0  0  0  0  0  0  0  0  0  0  0  0
  151.5862  139.3394  156.0475 C   0  0  0  0  0  0  0  0  0  0  0  0
  151.8881  139.4806  154.7303 N   0  0  0  0  0  0  0  0  0  0  0  0
  151.8358  138.4258  153.9122 C   0  0  0  0  0  0  0  0  0  0  0  0
  151.5127  137.1638  154.2003 N   0  0  0  0  0  0  0  0  0  0  0  0
  151.2102  137.0100  155.5219 C   0  0  0  0  0  0  0  0  0  0  0  0
  151.2272  138.0432  156.5008 C   0  0  0  0  0  0  0  0  0  0  0  0
  150.8707  137.5253  157.7386 N   0  0  0  0  0  0  0  0  0  0  0  0
  150.6547  136.2601  157.5009 C   0  0  0  0  0  0  0  0  0  0  0  0
  150.8363  135.8618  156.1950 N   0  0  0  0  0  0  0  0  0  0  0  0
  150.6627  134.4771  155.6434 C   0  0  1  0  0  0  0  0  0  0  0  0
  150.1181  133.6425  156.6267 O   0  0  0  0  0  0  0  0  0  0  0  0
  148.8568  133.1357  156.1947 C   0  0  2  0  0  0  0  0  0  0  0  0
  148.5954  131.7600  156.8175 C   0  0  0  0  0  0  0  0  0  0  0  0
  149.7870  130.9923  156.7753 O   0  0  0  0  0  0  0  0  0  0  0  0
  150.2584  130.5388  155.5978 C   0  0  0  0  0  0  0  0  0  0  0  0
  149.5436  130.3080  154.6203 O   0  0  0  0  0  0  0  0  0  0  0  0
  151.7379  130.3489  155.6003 C   0  0  0  0  0  0  0  0  0  0  0  0
  152.3399  129.5768  154.5791 C   0  0  0  0  0  0  0  0  0  0  0  0
  153.7349  129.3840  154.5534 C   0  0  0  0  0  0  0  0  0  0  0  0
  154.5452  129.9599  155.5491 C   0  0  0  0  0  0  0  0  0  0  0  0
  153.9584  130.7283  156.5715 C   0  0  0  0  0  0  0  0  0  0  0  0
  152.5635  130.9226  156.5988 C   0  0  0  0  0  0  0  0  0  0  0  0
  148.9893  133.1299  154.6747 C   0  0  1  0  0  0  0  0  0  0  0  0
  147.8275  133.0476  154.0237 F   0  0  0  0  0  0  0  0  0  0  0  0
  149.7322  134.4274  154.4137 C   0  0  1  0  0  0  0  0  0  0  0  0
  148.8463  135.5316  154.3259 O   0  0  0  0  0  0  0  0  0  0  0  0
  152.2637  141.7992  158.8737 C   0  0  0  0  0  0  0  0  0  0  0  0
  151.3760  142.7905  158.3985 C   0  0  0  0  0  0  0  0  0  0  0  0
  151.2143  143.9992  159.1033 C   0  0  0  0  0  0  0  0  0  0  0  0
  151.9457  144.2304  160.2835 C   0  0  0  0  0  0  0  0  0  0  0  0
  152.8429  143.2541  160.7562 C   0  0  0  0  0  0  0  0  0  0  0  0
  153.0050  142.0446  160.0526 C   0  0  0  0  0  0  0  0  0  0  0  0
  151.0084  141.1495  156.7079 H   0  0  0  0  0  0  0  0  0  0  0  0
  152.0889  138.6210  152.8808 H   0  0  0  0  0  0  0  0  0  0  0  0
  150.3560  135.5747  158.2808 H   0  0  0  0  0  0  0  0  0  0  0  0
  151.6762  134.1414  155.4205 H   0  0  0  0  0  0  0  0  0  0  0  0
  148.0788  133.8373  156.4981 H   0  0  0  0  0  0  0  0  0  0  0  0
  148.2420  131.8640  157.8444 H   0  0  0  0  0  0  0  0  0  0  0  0
  147.8184  131.2427  156.2532 H   0  0  0  0  0  0  0  0  0  0  0  0
  151.7385  129.1253  153.8033 H   0  0  0  0  0  0  0  0  0  0  0  0
  154.1832  128.7937  153.7680 H   0  0  0  0  0  0  0  0  0  0  0  0
  155.6150  129.8124  155.5288 H   0  0  0  0  0  0  0  0  0  0  0  0
  154.5784  131.1702  157.3374 H   0  0  0  0  0  0  0  0  0  0  0  0
  152.1459  131.5172  157.3982 H   0  0  0  0  0  0  0  0  0  0  0  0
  149.5984  132.2835  154.3545 H   0  0  0  0  0  0  0  0  0  0  0  0
  150.3271  134.3825  153.5010 H   0  0  0  0  0  0  0  0  0  0  0  0
  148.7892  135.7993  153.4214 H   0  0  0  0  0  0  0  0  0  0  0  0
  150.8071  142.6273  157.4945 H   0  0  0  0  0  0  0  0  0  0  0  0
  150.5286  144.7492  158.7376 H   0  0  0  0  0  0  0  0  0  0  0  0
  151.8212  145.1572  160.8240 H   0  0  0  0  0  0  0  0  0  0  0  0
  153.4091  143.4336  161.6581 H   0  0  0  0  0  0  0  0  0  0  0  0
  153.7053  141.3117  160.4269 H   0  0  0  0  0  0  0  0  0  0  0  0
  1  2  2  0  0  0  0
  2  3  1  0  0  0  0
  2 30  1  0  0  0  0
  3  4  1  0  0  0  0
  3 36  1  0  0  0  0
  4  9  1  0  0  0  0
  4  5  2  0  0  0  0
  5  6  1  0  0  0  0
  6  7  2  0  0  0  0
  6 37  1  0  0  0  0
  7  8  1  0  0  0  0
  8 12  1  0  0  0  0
  8  9  2  0  0  0  0
  9 10  1  0  0  0  0
 10 11  2  0  0  0  0
 11 12  1  0  0  0  0
 11 38  1  0  0  0  0
 12 13  1  0  0  0  0
 13 28  1  0  0  0  0
 13 14  1  0  0  0  0
 13 39  1  0  0  0  0
 14 15  1  0  0  0  0
 15 16  1  0  0  0  0
 15 26  1  0  0  0  0
 15 40  1  0  0  0  0
 16 17  1  0  0  0  0
 16 41  1  0  0  0  0
 16 42  1  0  0  0  0
 17 18  1  0  0  0  0
 18 19  2  0  0  0  0
 18 20  1  0  0  0  0
 20 25  1  0  0  0  0
 20 21  2  0  0  0  0
 21 22  1  0  0  0  0
 21 43  1  0  0  0  0
 22 23  2  0  0  0  0
 22 44  1  0  0  0  0
 23 24  1  0  0  0  0
 23 45  1  0  0  0  0
 24 25  2  0  0  0  0
 24 46  1  0  0  0  0
 25 47  1  0  0  0  0
 26 27  1  0  0  0  0
 26 28  1  0  0  0  0
 26 48  1  0  0  0  0
 28 29  1  0  0  0  0
 28 49  1  0  0  0  0
 29 50  1  0  0  0  0
 30 35  1  0  0  0  0
 30 31  2  0  0  0  0
 31 32  1  0  0  0  0
 31 51  1  0  0  0  0
 32 33  2  0  0  0  0
 32 52  1  0  0  0  0
 33 34  1  0  0  0  0
 33 53  1  0  0  0  0
 34 35  2  0  0  0  0
 34 54  1  0  0  0  0
 35 55  1  0  0  0  0
M  END
> <s_m_source_file>
AV-unprocessed.smi

> <i_m_source_file_index>
34

> <i_lp_mmshare_version>
43012

> <i_f3d_flags>
0

> <s_epik_input>
W2NIXTFbY0hdW2NIXVtjSF1bY0hdYzFDKD1PKVtOSF1jKG5bY0hdbjIpYyhjMjMpbltjSF1uM1tDQEBIXTRPW0NASF0oW0NAQEhdKEYpW0NASF00W09IXSlbQ0gyXU9DKD1PKWM1W2NIXVtjSF1bY0hdW2NIXVtjSF01

> <s_epik_cmdline>
J2VwaWtfcHl0aG9uJywgJy1waCcsICc3LjAnLCAnLXRuJywgJzgnLCAnLW1hJywgJzIwMCcsICctbWV0YWxfYmluZGluZycsICctaW1hZScsICc8aW5maWxlLm1hZT4nLCAnLW9tYWUnLCAnPG91dGZpbGUubWFlPic=

> <r_lp_tautomer_probability>
1

> <r_epik_Ionization_Penalty>
0.00257489

> <r_epik_Ionization_Penalty_Charging>
0

> <r_epik_Ionization_Penalty_Neutral>
0.00257489

> <r_epik_State_Penalty>
0.00519398

> <r_epik_Charging_Adjusted_Penalty>
0.00519398

> <i_epik_Tot_Q>
0

> <i_epik_Tot_abs_Q>
0

> <r_epik_Metal_State_Penalty>
0.335891

> <b_epik_Metal_Only>
0

> <s_epik_Chemistry_Notes>
This compound has an ester and may undergo hydrolysis at high or low pH. This compound contains an acetal/aminal-like group ( X-CH(R)-Y where X, Y are N, S, or O) that may be acid/base labile, releasing an aldehyde.

> <s_lp_Force_Field>
OPLS_2005

> <r_lp_Energy>
55.7216

> <b_lp_Chiralities_Consistent>
1

> <s_lp_Variant>
AV-unprocessed.smi:34-4

> <Gold.Version>
5.8.1

> <Gold.Id.Protein>
6NUR|6NUR_protein|mol2

> <Gold.PLP.Fitness>
61.7263

> <Gold.PLP.PLP>
-51.8815

> <Gold.PLP.part.hbond>
-3.9501

> <Gold.PLP.part.metal>
0.0000

> <Gold.PLP.part.buried>
-7.4599

> <Gold.PLP.part.nonpolar>
-41.8593

> <Gold.PLP.part.repulsive>
1.2470

> <Gold.PLP.ligand.clash>
0.0000

> <Gold.PLP.ligand.torsion>
1.3036

> <Gold.PLP.Chemscore.Hbond>
3.9440

> <Gold.PLP.Chemscore.CHOScore>
0.0000

> <Gold.PLP.Chemscore.Metal>
0.0000

> <Gold.Chemscore.Hbonds>
donor molecule, donor type, donor heavy atom, donor atom, acceptor molecule, acceptor atom, score
      L1  H    29    50       P1  7948  1.00
      P1  H  7989  7998       L1     5  0.99
      P1  H  7997  8008       L1     1  1.00
      P1  H 10752 10763       L1     7  0.79

> <Gold.PLP.Chemscore.Internal.Correction>
0.6200

> <Gold.Rescore>
     Score         DG    S(hbond)    S(metal)    S(lipo)     H(rot)  DE(clash)    DE(int)     intcor
     17.13     -21.97       3.32        0.00     105.70       2.72       1.20       3.64       ----

> <Gold.Chemscore.Fitness>
17.1309

> <Gold.Chemscore.DG>
-21.9708

> <Gold.Chemscore.ZeroCoef>
-5.4800

> <Gold.Chemscore.Hbond>
3.3207

> <Gold.Chemscore.Metal>
0.0000

> <Gold.Chemscore.Lipo>
105.6981

> <Gold.Chemscore.Internal_Hbond>
0.0000

> <Gold.Chemscore.DEClash>
1.2040

> <Gold.Chemscore.DEInternal>
3.6359

> <Gold.Chemscore.Rot>
2.7215

> <Gold.Chemscore.Internal.Correction>
   9.000000E+99

> <Gold.Chemscore.Hbonds>
donor molecule, donor type, donor heavy atom, donor atom, acceptor molecule, acceptor atom, score
      L1  H    29    50       P1  7948  0.97
      P1  H  7989  7998       L1     5  0.24
      P1  H  7997  8008       L1     1  0.38
      P1  H 10752 10763       L1     7  0.16

> <Gold.Chemscore.Hbond.Weighted>
-11.0911

> <Gold.Chemscore.Metal.Weighted>
-0.0000

> <Gold.Chemscore.Lipo.Weighted>
-12.3667

> <Gold.Chemscore.Internal_Hbond.Weighted>
0.0000

> <Gold.Chemscore.DEClash.Weighted>
1.2040

> <Gold.Chemscore.DEInternal.Weighted>
3.6359

> <Gold.Chemscore.Rot.Weighted>
6.9670

> <Gold.Chemscore.Internal.Correction.Weighted>
   9.000000E+99

> <Gold.Protein.RotatedTorsions>
[ 6907 6896 6895 6894 ] final   81.55 input  -60.11 | X-H torsion
[ 7974 7965 7964 7962 ] final -140.34 input  175.53 | X-H torsion
[ 8008 7997 7996 7995 ] final -100.51 input   59.86 | X-H torsion
[ 10167 10162 10161 10158 ] final -151.19 input  -65.29 | X-H torsion
[ 10718 10713 10712 10709 ] final   55.98 input   66.30 | X-H torsion
[ 10763 10752 10751 10750 ] final   25.65 input  -60.55 | X-H torsion
[ 11005 11000 10999 10996 ] final  -31.39 input  -57.11 | X-H torsion

> <Gold.Protein.ActiveResidues>
 VAL166  LYS551  ARG553  GLY616  TRP617  ASP618  TYR619  PRO620  LYS621  CYS622 
 ASP623  PHE694  ASN695  SER759  ASP760  ASP761  ALA762  ILE779  LEU786  VAL792 
 PHE793  MET794  SER795  GLU796  ALA797  LYS798  CYS799  TRP800  GLU811  SER814 

> <Gold.Protein.RotatedAtoms>
  152.5272  134.3186  159.9139 H   0  0  0  0  0  0  0  0  0  0  0  0  # atno 6907 bound_to 6896
  151.3136  133.4063  159.2656 H   0  0  0  0  0  0  0  0  0  0  0  0  # atno 6908 bound_to 6896
  151.0018  134.9345  159.8015 H   0  0  0  0  0  0  0  0  0  0  0  0  # atno 6909 bound_to 6896
  144.8605  140.6212  143.5331 H   0  0  0  0  0  0  0  0  0  0  0  0  # atno 7974 bound_to 7965
  154.8297  140.0440  157.1468 H   0  0  0  0  0  0  0  0  0  0  0  0  # atno 8008 bound_to 7997
  154.9166  140.3021  155.5218 H   0  0  0  0  0  0  0  0  0  0  0  0  # atno 8009 bound_to 7997
  156.2986  140.2348  156.4212 H   0  0  0  0  0  0  0  0  0  0  0  0  # atno 8010 bound_to 7997
  139.7289  143.8840  152.2528 H   0  0  0  0  0  0  0  0  0  0  0  0  # atno 10167 bound_to 10162
  157.5392  130.8685  149.8797 H   0  0  0  0  0  0  0  0  0  0  0  0  # atno 10718 bound_to 10713
  153.0677  135.6578  154.0317 H   0  0  0  0  0  0  0  0  0  0  0  0  # atno 10763 bound_to 10752
  153.9970  135.2940  155.3408 H   0  0  0  0  0  0  0  0  0  0  0  0  # atno 10764 bound_to 10752
  154.7041  135.5232  153.8638 H   0  0  0  0  0  0  0  0  0  0  0  0  # atno 10765 bound_to 10752
  140.9464  133.7247  156.1153 H   0  0  0  0  0  0  0  0  0  0  0  0  # atno 11005 bound_to 11000
  145.4322  139.1547  143.4016 LP  0  0  0  0  0  0  0  0  0  0  0  0  # atno 17320 bound_to 7965
  146.2857  140.4438  142.8759 LP  0  0  0  0  0  0  0  0  0  0  0  0  # atno 17321 bound_to 7965
  139.8757  144.7044  150.8936 LP  0  0  0  0  0  0  0  0  0  0  0  0  # atno 17342 bound_to 10162
  140.7767  143.3702  151.1664 LP  0  0  0  0  0  0  0  0  0  0  0  0  # atno 17343 bound_to 10162
  156.0483  130.3723  150.1264 LP  0  0  0  0  0  0  0  0  0  0  0  0  # atno 17370 bound_to 10713
  156.9445  130.9755  151.3510 LP  0  0  0  0  0  0  0  0  0  0  0  0  # atno 17371 bound_to 10713
  140.7664  134.3882  157.5516 LP  0  0  0  0  0  0  0  0  0  0  0  0  # atno 17394 bound_to 11000
  139.8834  134.8994  156.2766 LP  0  0  0  0  0  0  0  0  0  0  0  0  # atno 17395 bound_to 11000

$$$$
