AV-unprocessed.smi:239|AV-procd|sdf|1822|dock5
  -GOLD-   2262020413D 1   1.00000     0.00000
 Structure written by MMmdl.
 54 58  0  0  0  0  0  0  0  0  1 V2000
  154.3830  140.1401  161.0721 C   0  0  0  0  0  0  0  0  0  0  0  0
  153.2007  140.7925  160.3483 C   0  0  2  0  0  0  0  0  0  0  0  0
  153.0864  140.3213  158.8863 C   0  0  0  0  0  0  0  0  0  0  0  0
  152.0243  141.0527  158.1993 N   0  0  0  0  0  0  0  0  0  0  0  0
  151.6240  140.6055  156.9811 C   0  0  0  0  0  0  0  0  0  0  0  0
  152.4033  139.7306  156.2896 N   0  0  0  0  0  0  0  0  0  0  0  0
  152.0250  139.2926  155.0853 C   0  0  0  0  0  0  0  0  0  0  0  0
  150.9217  139.5914  154.3978 N   0  0  0  0  0  0  0  0  0  0  0  0
  150.1286  140.4587  155.0893 C   0  0  0  0  0  0  0  0  0  0  0  0
  150.4017  141.0116  156.3728 C   0  0  0  0  0  0  0  0  0  0  0  0
  149.3597  141.8486  156.7554 N   0  0  0  0  0  0  0  0  0  0  0  0
  148.5275  141.8041  155.7513 C   0  0  0  0  0  0  0  0  0  0  0  0
  148.9036  140.9821  154.7132 N   0  0  0  0  0  0  0  0  0  0  0  0
  148.1704  140.7432  153.4797 C   0  0  0  0  0  0  0  0  0  0  0  0
  147.5111  139.3436  153.3839 C   0  0  0  0  0  0  0  0  0  0  0  0
  148.5789  138.4199  153.4976 O   0  0  0  0  0  0  0  0  0  0  0  0
  146.5045  139.0685  154.5221 C   0  0  0  0  0  0  0  0  0  0  0  0
  145.8013  137.7100  154.3494 C   0  0  0  0  0  0  0  0  0  0  0  0
  145.1664  137.6487  153.0772 O   0  0  0  0  0  0  0  0  0  0  0  0
  146.0848  137.7440  151.9945 C   0  0  0  0  0  0  0  0  0  0  0  0
  146.8050  139.1042  152.0318 C   0  0  0  0  0  0  0  0  0  0  0  0
  152.1673  142.5006  158.3083 C   0  0  0  0  0  0  0  0  0  0  0  0
  152.2947  142.9086  159.7866 C   0  0  2  0  0  0  0  0  0  0  0  0
  152.5474  144.3943  159.9416 C   0  0  0  0  0  0  0  0  0  0  0  0
  151.9088  145.1728  161.0682 C   0  0  0  0  0  0  0  0  0  0  0  0
  151.4561  145.3966  159.6454 C   0  0  0  0  0  0  0  0  0  0  0  0
  153.3874  142.2050  160.3702 O   0  0  0  0  0  0  0  0  0  0  0  0
  154.2763  139.0554  161.0992 H   0  0  0  0  0  0  0  0  0  0  0  0
  154.4525  140.4936  162.1012 H   0  0  0  0  0  0  0  0  0  0  0  0
  155.3258  140.3720  160.5758 H   0  0  0  0  0  0  0  0  0  0  0  0
  152.2841  140.5458  160.8869 H   0  0  0  0  0  0  0  0  0  0  0  0
  154.0314  140.4838  158.3656 H   0  0  0  0  0  0  0  0  0  0  0  0
  152.8794  139.2504  158.8618 H   0  0  0  0  0  0  0  0  0  0  0  0
  152.7049  138.6053  154.6039 H   0  0  0  0  0  0  0  0  0  0  0  0
  147.6054  142.3669  155.7442 H   0  0  0  0  0  0  0  0  0  0  0  0
  147.4120  141.5219  153.3840 H   0  0  0  0  0  0  0  0  0  0  0  0
  148.8592  140.8899  152.6462 H   0  0  0  0  0  0  0  0  0  0  0  0
  148.4376  137.7193  152.8793 H   0  0  0  0  0  0  0  0  0  0  0  0
  146.9993  139.1171  155.4929 H   0  0  0  0  0  0  0  0  0  0  0  0
  145.7353  139.8406  154.5312 H   0  0  0  0  0  0  0  0  0  0  0  0
  146.5052  136.8836  154.4577 H   0  0  0  0  0  0  0  0  0  0  0  0
  145.0450  137.5813  155.1238 H   0  0  0  0  0  0  0  0  0  0  0  0
  146.7967  136.9182  152.0323 H   0  0  0  0  0  0  0  0  0  0  0  0
  145.5341  137.6407  151.0595 H   0  0  0  0  0  0  0  0  0  0  0  0
  146.0585  139.8793  151.8606 H   0  0  0  0  0  0  0  0  0  0  0  0
  147.5174  139.1760  151.2090 H   0  0  0  0  0  0  0  0  0  0  0  0
  153.0559  142.8090  157.7556 H   0  0  0  0  0  0  0  0  0  0  0  0
  151.3224  143.0221  157.8612 H   0  0  0  0  0  0  0  0  0  0  0  0
  151.3757  142.6552  160.3188 H   0  0  0  0  0  0  0  0  0  0  0  0
  153.5553  144.6982  159.6646 H   0  0  0  0  0  0  0  0  0  0  0  0
  151.2311  144.6405  161.7329 H   0  0  0  0  0  0  0  0  0  0  0  0
  152.5034  145.9539  161.5371 H   0  0  0  0  0  0  0  0  0  0  0  0
  151.7473  146.3288  159.1657 H   0  0  0  0  0  0  0  0  0  0  0  0
  150.4776  145.0122  159.3636 H   0  0  0  0  0  0  0  0  0  0  0  0
  1  2  1  0  0  0  0
  1 28  1  0  0  0  0
  1 29  1  0  0  0  0
  1 30  1  0  0  0  0
  2 27  1  0  0  0  0
  2  3  1  0  0  0  0
  2 31  1  0  0  0  0
  3  4  1  0  0  0  0
  3 32  1  0  0  0  0
  3 33  1  0  0  0  0
  4  5  1  0  0  0  0
  4 22  1  0  0  0  0
  5 10  1  0  0  0  0
  5  6  2  0  0  0  0
  6  7  1  0  0  0  0
  7  8  2  0  0  0  0
  7 34  1  0  0  0  0
  8  9  1  0  0  0  0
  9 13  1  0  0  0  0
  9 10  2  0  0  0  0
 10 11  1  0  0  0  0
 11 12  2  0  0  0  0
 12 13  1  0  0  0  0
 12 35  1  0  0  0  0
 13 14  1  0  0  0  0
 14 15  1  0  0  0  0
 14 36  1  0  0  0  0
 14 37  1  0  0  0  0
 15 21  1  0  0  0  0
 15 16  1  0  0  0  0
 15 17  1  0  0  0  0
 16 38  1  0  0  0  0
 17 18  1  0  0  0  0
 17 39  1  0  0  0  0
 17 40  1  0  0  0  0
 18 19  1  0  0  0  0
 18 41  1  0  0  0  0
 18 42  1  0  0  0  0
 19 20  1  0  0  0  0
 20 21  1  0  0  0  0
 20 43  1  0  0  0  0
 20 44  1  0  0  0  0
 21 45  1  0  0  0  0
 21 46  1  0  0  0  0
 22 23  1  0  0  0  0
 22 47  1  0  0  0  0
 22 48  1  0  0  0  0
 23 24  1  0  0  0  0
 23 27  1  0  0  0  0
 23 49  1  0  0  0  0
 24 26  1  0  0  0  0
 24 25  1  0  0  0  0
 24 50  1  0  0  0  0
 25 26  1  0  0  0  0
 25 51  1  0  0  0  0
 25 52  1  0  0  0  0
 26 53  1  0  0  0  0
 26 54  1  0  0  0  0
M  END
> <s_m_source_file>
AV-unprocessed.smi

> <i_m_source_file_index>
239

> <i_lp_mmshare_version>
43012

> <i_f3d_flags>
0

> <s_epik_input>
W0NIMl0xW0NIMl1bQ0hdMVtDQEBIXShPMilbQ0gyXU4oW0NIMl1bQ0BIXTJbQ0gzXSljKG5bY0hdbjMpYyhjMzQpbltjSF1uNFtDSDJdQzUoW09IXSlbQ0gyXVtDSDJdT1tDSDJdW0NIMl01

> <s_epik_cmdline>
J2VwaWtfcHl0aG9uJywgJy1waCcsICc3LjAnLCAnLXRuJywgJzgnLCAnLW1hJywgJzIwMCcsICctbWV0YWxfYmluZGluZycsICctaW1hZScsICc8aW5maWxlLm1hZT4nLCAnLW9tYWUnLCAnPG91dGZpbGUubWFlPic=

> <r_lp_tautomer_probability>
1

> <r_epik_Ionization_Penalty>
9.13091e-05

> <r_epik_Ionization_Penalty_Charging>
0

> <r_epik_Ionization_Penalty_Neutral>
9.13091e-05

> <r_epik_State_Penalty>
-0

> <r_epik_Charging_Adjusted_Penalty>
0

> <i_epik_Tot_Q>
0

> <i_epik_Tot_abs_Q>
0

> <r_epik_Metal_State_Penalty>
-0

> <b_epik_Metal_Only>
0

> <s_lp_Force_Field>
OPLS_2005

> <r_lp_Energy>
38.8789

> <b_lp_Chiralities_Consistent>
1

> <s_lp_Variant>
AV-unprocessed.smi:239-3

> <Gold.Version>
5.8.1

> <Gold.Id.Protein>
6NUR|6NUR_protein|mol2

> <Gold.PLP.Fitness>
55.9126

> <Gold.PLP.PLP>
-48.4660

> <Gold.PLP.part.hbond>
-4.0000

> <Gold.PLP.part.metal>
0.0000

> <Gold.PLP.part.buried>
3.7303

> <Gold.PLP.part.nonpolar>
-46.9860

> <Gold.PLP.part.repulsive>
0.4582

> <Gold.PLP.ligand.clash>
0.0000

> <Gold.PLP.ligand.torsion>
0.9482

> <Gold.PLP.Chemscore.Hbond>
2.5250

> <Gold.PLP.Chemscore.CHOScore>
0.1293

> <Gold.PLP.Chemscore.Metal>
0.0000

> <Gold.Chemscore.Hbonds>
donor molecule, donor type, donor heavy atom, donor atom, acceptor molecule, acceptor atom, score
      L1  H    16    38       P1  7948  1.00
      P1  H  7989  7998       L1     8  0.49
      P1  H  7997  8009       L1     6  1.00
      L1  C    12    35       P1  8028  0.19

> <Gold.PLP.Chemscore.Internal.Correction>
1.3801

> <Gold.Rescore>
     Score         DG    S(hbond)    S(metal)    S(lipo)     H(rot)  DE(clash)    DE(int)     intcor
     16.61     -19.27       1.72        0.00     117.63       2.24       0.56       2.10       ----

> <Gold.Chemscore.Fitness>
16.6131

> <Gold.Chemscore.DG>
-19.2715

> <Gold.Chemscore.ZeroCoef>
-5.4800

> <Gold.Chemscore.Hbond>
1.7244

> <Gold.Chemscore.Metal>
0.0000

> <Gold.Chemscore.Lipo>
117.6341

> <Gold.Chemscore.Internal_Hbond>
0.0000

> <Gold.Chemscore.DEClash>
0.5551

> <Gold.Chemscore.DEInternal>
2.1034

> <Gold.Chemscore.Rot>
2.2387

> <Gold.Chemscore.Internal.Correction>
   9.000000E+99

> <Gold.Chemscore.Hbonds>
donor molecule, donor type, donor heavy atom, donor atom, acceptor molecule, acceptor atom, score
      L1  H    16    38       P1  7948  0.98
      P1  H  7989  7998       L1     8  0.01
      P1  H  7997  8009       L1     6  0.71

> <Gold.Chemscore.Hbond.Weighted>
-5.7594

> <Gold.Chemscore.Metal.Weighted>
-0.0000

> <Gold.Chemscore.Lipo.Weighted>
-13.7632

> <Gold.Chemscore.Internal_Hbond.Weighted>
0.0000

> <Gold.Chemscore.DEClash.Weighted>
0.5551

> <Gold.Chemscore.DEInternal.Weighted>
2.1034

> <Gold.Chemscore.Rot.Weighted>
5.7311

> <Gold.Chemscore.Internal.Correction.Weighted>
   9.000000E+99

> <Gold.Protein.RotatedTorsions>
[ 6907 6896 6895 6894 ] final  -86.22 input  -60.11 | X-H torsion
[ 7974 7965 7964 7962 ] final   14.78 input  175.53 | X-H torsion
[ 8008 7997 7996 7995 ] final -163.84 input   59.86 | X-H torsion
[ 10167 10162 10161 10158 ] final  -73.82 input  -65.29 | X-H torsion
[ 10718 10713 10712 10709 ] final -179.65 input   66.30 | X-H torsion
[ 10763 10752 10751 10750 ] final -149.71 input  -60.55 | X-H torsion
[ 11005 11000 10999 10996 ] final    4.44 input  -57.11 | X-H torsion

> <Gold.Protein.ActiveResidues>
 VAL166  LYS551  ARG553  GLY616  TRP617  ASP618  TYR619  PRO620  LYS621  CYS622 
 ASP623  PHE694  ASN695  SER759  ASP760  ASP761  ALA762  ILE779  LEU786  VAL792 
 PHE793  MET794  SER795  GLU796  ALA797  LYS798  CYS799  TRP800  GLU811  SER814 

> <Gold.Protein.RotatedAtoms>
  150.6867  134.3085  159.4735 H   0  0  0  0  0  0  0  0  0  0  0  0  # atno 6907 bound_to 6896
  152.0973  134.9363  160.0579 H   0  0  0  0  0  0  0  0  0  0  0  0  # atno 6908 bound_to 6896
  152.0656  133.4047  159.4474 H   0  0  0  0  0  0  0  0  0  0  0  0  # atno 6909 bound_to 6896
  146.2296  139.8991  142.8542 H   0  0  0  0  0  0  0  0  0  0  0  0  # atno 7974 bound_to 7965
  155.8271  140.0928  157.1814 H   0  0  0  0  0  0  0  0  0  0  0  0  # atno 8008 bound_to 7997
  154.3979  140.1426  156.3630 H   0  0  0  0  0  0  0  0  0  0  0  0  # atno 8009 bound_to 7997
  155.8205  140.3446  155.5514 H   0  0  0  0  0  0  0  0  0  0  0  0  # atno 8010 bound_to 7997
  140.5078  143.2350  151.7644 H   0  0  0  0  0  0  0  0  0  0  0  0  # atno 10167 bound_to 10162
  156.8623  130.9756  151.3082 H   0  0  0  0  0  0  0  0  0  0  0  0  # atno 10718 bound_to 10713
  154.8162  135.3302  154.7170 H   0  0  0  0  0  0  0  0  0  0  0  0  # atno 10763 bound_to 10752
  153.7811  135.6918  153.4893 H   0  0  0  0  0  0  0  0  0  0  0  0  # atno 10764 bound_to 10752
  153.1980  135.4526  155.0179 H   0  0  0  0  0  0  0  0  0  0  0  0  # atno 10765 bound_to 10752
  140.5819  134.0005  155.8051 H   0  0  0  0  0  0  0  0  0  0  0  0  # atno 11005 bound_to 11000
  145.2341  140.9984  143.3973 LP  0  0  0  0  0  0  0  0  0  0  0  0  # atno 17320 bound_to 7965
  144.9506  139.4087  143.6404 LP  0  0  0  0  0  0  0  0  0  0  0  0  # atno 17321 bound_to 7965
  139.4888  144.4432  151.9740 LP  0  0  0  0  0  0  0  0  0  0  0  0  # atno 17342 bound_to 10162
  140.3523  144.3073  150.5947 LP  0  0  0  0  0  0  0  0  0  0  0  0  # atno 17343 bound_to 10162
  157.6243  130.8679  149.9162 LP  0  0  0  0  0  0  0  0  0  0  0  0  # atno 17370 bound_to 10713
  156.0770  130.3677  150.0657 LP  0  0  0  0  0  0  0  0  0  0  0  0  # atno 17371 bound_to 10713
  141.0991  133.9797  157.3110 LP  0  0  0  0  0  0  0  0  0  0  0  0  # atno 17394 bound_to 11000
  139.9313  135.0199  156.8411 LP  0  0  0  0  0  0  0  0  0  0  0  0  # atno 17395 bound_to 11000

$$$$
