AV-unprocessed.smi:1949|AV-procd|sdf|7878|dock6
  -GOLD-   2272010 33D 1   1.00000     0.00000
 Structure written by MMmdl.
 28 29  0  0  0  0  0  0  0  0  2 V2000
  150.8814  135.8884  154.7668 C   0  0  0  0  0  0  0  0  0  0  0  0
  150.8459  137.3675  154.9451 C   0  0  0  0  0  0  0  0  0  0  0  0
  150.7810  138.2169  153.9169 N   0  0  0  0  0  0  0  0  0  0  0  0
  150.7592  139.5403  154.3330 N   0  0  0  0  0  0  0  0  0  0  0  0
  150.7939  139.6728  155.6667 C   0  0  0  0  0  0  0  0  0  0  0  0
  150.7719  140.8724  156.2770 N   0  5  0  0  0  0  0  0  0  0  0  0
  151.7038  141.2436  157.1944 C   0  0  0  0  0  0  0  0  0  0  0  0
  152.6247  140.5114  157.5546 O   0  0  0  0  0  0  0  0  0  0  0  0
  151.6062  142.4776  157.7266 N   0  0  0  0  0  0  0  0  0  0  0  0
  152.4978  143.0631  158.7248 C   0  0  0  0  0  0  0  0  0  0  0  0
  151.8973  142.9194  160.1373 C   0  0  0  0  0  0  0  0  0  0  0  0
  151.9482  144.3127  160.7681 C   0  0  0  0  0  0  0  0  0  0  0  0
  151.8731  145.2700  159.5832 C   0  0  0  0  0  0  0  0  0  0  0  0
  152.6886  144.5752  158.4936 C   0  0  0  0  0  0  0  0  0  0  0  0
  150.8829  138.1344  156.5238 S   0  0  0  0  0  0  0  0  0  0  0  0
  149.9039  135.5282  154.4458 H   0  0  0  0  0  0  0  0  0  0  0  0
  151.1438  135.3994  155.7052 H   0  0  0  0  0  0  0  0  0  0  0  0
  151.6215  135.6174  154.0137 H   0  0  0  0  0  0  0  0  0  0  0  0
  150.8467  143.0592  157.4047 H   0  0  0  0  0  0  0  0  0  0  0  0
  153.4660  142.5605  158.6866 H   0  0  0  0  0  0  0  0  0  0  0  0
  150.8577  142.5914  160.0833 H   0  0  0  0  0  0  0  0  0  0  0  0
  152.4335  142.1837  160.7377 H   0  0  0  0  0  0  0  0  0  0  0  0
  151.1480  144.4755  161.4908 H   0  0  0  0  0  0  0  0  0  0  0  0
  152.8985  144.4466  161.2866 H   0  0  0  0  0  0  0  0  0  0  0  0
  150.8371  145.3725  159.2574 H   0  0  0  0  0  0  0  0  0  0  0  0
  152.2502  146.2652  159.8204 H   0  0  0  0  0  0  0  0  0  0  0  0
  153.7426  144.8252  158.6212 H   0  0  0  0  0  0  0  0  0  0  0  0
  152.4017  144.9041  157.4939 H   0  0  0  0  0  0  0  0  0  0  0  0
  1  2  1  0  0  0  0
  1 16  1  0  0  0  0
  1 17  1  0  0  0  0
  1 18  1  0  0  0  0
  2 15  1  0  0  0  0
  2  3  2  0  0  0  0
  3  4  1  0  0  0  0
  4  5  2  0  0  0  0
  5  6  1  0  0  0  0
  5 15  1  0  0  0  0
  6  7  1  0  0  0  0
  7  8  2  0  0  0  0
  7  9  1  0  0  0  0
  9 10  1  0  0  0  0
  9 19  1  0  0  0  0
 10 14  1  0  0  0  0
 10 11  1  0  0  0  0
 10 20  1  0  0  0  0
 11 12  1  0  0  0  0
 11 21  1  0  0  0  0
 11 22  1  0  0  0  0
 12 13  1  0  0  0  0
 12 23  1  0  0  0  0
 12 24  1  0  0  0  0
 13 14  1  0  0  0  0
 13 25  1  0  0  0  0
 13 26  1  0  0  0  0
 14 27  1  0  0  0  0
 14 28  1  0  0  0  0
M  CHG  1   6  -1
M  END
> <s_m_source_file>
AV-unprocessed.smi

> <i_m_source_file_index>
1949

> <i_lp_mmshare_version>
43012

> <i_f3d_flags>
0

> <s_epik_input>
W0NIM11jMW5uYyhzMSlbTkhdQyg9TylbTkhdW0NIXTJbQ0gyXVtDSDJdW0NIMl1bQ0gyXTI=

> <s_epik_cmdline>
J2VwaWtfcHl0aG9uJywgJy1waCcsICc3LjAnLCAnLXRuJywgJzgnLCAnLW1hJywgJzIwMCcsICctbWV0YWxfYmluZGluZycsICctaW1hZScsICc8aW5maWxlLm1hZT4nLCAnLW9tYWUnLCAnPG91dGZpbGUubWFlPic=

> <r_lp_tautomer_probability>
1

> <r_epik_Ionization_Penalty>
4.54091

> <r_epik_Ionization_Penalty_Charging>
4.38642

> <r_epik_Ionization_Penalty_Neutral>
0.154484

> <r_epik_State_Penalty>
4.38606

> <r_epik_Charging_Adjusted_Penalty>
8.77248

> <i_epik_Tot_Q>
-1

> <i_epik_Tot_abs_Q>
1

> <r_epik_Metal_State_Penalty>
0.765318

> <b_epik_Metal_Only>
1

> <s_lp_Force_Field>
OPLS_2005

> <r_lp_Energy>
17.692

> <b_lp_Chiralities_Consistent>
1

> <s_lp_Variant>
AV-unprocessed.smi:1949-2

> <Gold.Version>
5.8.1

> <Gold.Id.Protein>
6NUR|6NUR_protein|mol2

> <Gold.PLP.Fitness>
33.3642

> <Gold.PLP.PLP>
-29.6301

> <Gold.PLP.part.hbond>
-2.0000

> <Gold.PLP.part.metal>
0.0000

> <Gold.PLP.part.buried>
-1.0020

> <Gold.PLP.part.nonpolar>
-25.0329

> <Gold.PLP.part.repulsive>
0.4827

> <Gold.PLP.ligand.clash>
0.0000

> <Gold.PLP.ligand.torsion>
0.8129

> <Gold.PLP.Chemscore.Hbond>
1.7842

> <Gold.PLP.Chemscore.CHOScore>
0.0000

> <Gold.PLP.Chemscore.Metal>
0.0000

> <Gold.Chemscore.Hbonds>
donor molecule, donor type, donor heavy atom, donor atom, acceptor molecule, acceptor atom, score
      P1  H  7989  7998       L1     4  1.00
      P1  H  7997  8009       L1     8  0.85

> <Gold.PLP.Chemscore.Internal.Correction>
0.0075

> <Gold.Rescore>
     Score         DG    S(hbond)    S(metal)    S(lipo)     H(rot)  DE(clash)    DE(int)     intcor
     15.97     -16.98       1.57        0.00      75.47       1.00       0.07       0.94       ----

> <Gold.Chemscore.Fitness>
15.9722

> <Gold.Chemscore.DG>
-16.9788

> <Gold.Chemscore.ZeroCoef>
-5.4800

> <Gold.Chemscore.Hbond>
1.5654

> <Gold.Chemscore.Metal>
0.0000

> <Gold.Chemscore.Lipo>
75.4742

> <Gold.Chemscore.Internal_Hbond>
0.0000

> <Gold.Chemscore.DEClash>
0.0687

> <Gold.Chemscore.DEInternal>
0.9378

> <Gold.Chemscore.Rot>
1.0000

> <Gold.Chemscore.Internal.Correction>
   9.000000E+99

> <Gold.Chemscore.Hbonds>
donor molecule, donor type, donor heavy atom, donor atom, acceptor molecule, acceptor atom, score
      P1  H  7989  7998       L1     4  0.85
      P1  H  7997  8009       L1     8  0.80

> <Gold.Chemscore.Hbond.Weighted>
-5.2283

> <Gold.Chemscore.Metal.Weighted>
-0.0000

> <Gold.Chemscore.Lipo.Weighted>
-8.8305

> <Gold.Chemscore.Internal_Hbond.Weighted>
0.0000

> <Gold.Chemscore.DEClash.Weighted>
0.0687

> <Gold.Chemscore.DEInternal.Weighted>
0.9378

> <Gold.Chemscore.Rot.Weighted>
2.5600

> <Gold.Chemscore.Internal.Correction.Weighted>
   9.000000E+99

> <Gold.Protein.RotatedTorsions>
[ 6907 6896 6895 6894 ] final   73.47 input  -60.11 | X-H torsion
[ 7974 7965 7964 7962 ] final   97.91 input  175.53 | X-H torsion
[ 8008 7997 7996 7995 ] final  176.95 input   59.86 | X-H torsion
[ 10167 10162 10161 10158 ] final  -67.64 input  -65.29 | X-H torsion
[ 10718 10713 10712 10709 ] final   26.04 input   66.30 | X-H torsion
[ 10763 10752 10751 10750 ] final  -70.03 input  -60.55 | X-H torsion
[ 11005 11000 10999 10996 ] final  100.22 input  -57.11 | X-H torsion

> <Gold.Protein.ActiveResidues>
 VAL166  LYS551  ARG553  GLY616  TRP617  ASP618  TYR619  PRO620  LYS621  CYS622 
 ASP623  PHE694  ASN695  SER759  ASP760  ASP761  ALA762  ILE779  LEU786  VAL792 
 PHE793  MET794  SER795  GLU796  ALA797  LYS798  CYS799  TRP800  GLU811  SER814 

> <Gold.Protein.RotatedAtoms>
  152.4925  134.4417  159.9545 H   0  0  0  0  0  0  0  0  0  0  0  0  # atno 6907 bound_to 6896
  151.4402  133.3639  159.2788 H   0  0  0  0  0  0  0  0  0  0  0  0  # atno 6908 bound_to 6896
  150.9093  134.8533  159.7474 H   0  0  0  0  0  0  0  0  0  0  0  0  # atno 6909 bound_to 6896
  145.4192  139.2323  143.3205 H   0  0  0  0  0  0  0  0  0  0  0  0  # atno 7974 bound_to 7965
  156.0710  140.1371  156.9828 H   0  0  0  0  0  0  0  0  0  0  0  0  # atno 8008 bound_to 7997
  154.4532  140.0972  156.6730 H   0  0  0  0  0  0  0  0  0  0  0  0  # atno 8009 bound_to 7997
  155.5228  140.3456  155.4412 H   0  0  0  0  0  0  0  0  0  0  0  0  # atno 8010 bound_to 7997
  140.5568  143.2312  151.6806 H   0  0  0  0  0  0  0  0  0  0  0  0  # atno 10167 bound_to 10162
  157.2015  130.6892  149.6190 H   0  0  0  0  0  0  0  0  0  0  0  0  # atno 10718 bound_to 10713
  154.4119  135.6007  153.5958 H   0  0  0  0  0  0  0  0  0  0  0  0  # atno 10763 bound_to 10752
  152.9790  135.5931  154.4059 H   0  0  0  0  0  0  0  0  0  0  0  0  # atno 10764 bound_to 10752
  154.3873  135.2841  155.2154 H   0  0  0  0  0  0  0  0  0  0  0  0  # atno 10765 bound_to 10752
  139.8771  134.9130  156.4723 H   0  0  0  0  0  0  0  0  0  0  0  0  # atno 11005 bound_to 11000
  146.2665  140.4914  142.8832 LP  0  0  0  0  0  0  0  0  0  0  0  0  # atno 17320 bound_to 7965
  144.8256  140.6623  143.6324 LP  0  0  0  0  0  0  0  0  0  0  0  0  # atno 17321 bound_to 7965
  139.5051  144.3728  152.0453 LP  0  0  0  0  0  0  0  0  0  0  0  0  # atno 17342 bound_to 10162
  140.2850  144.3817  150.6106 LP  0  0  0  0  0  0  0  0  0  0  0  0  # atno 17343 bound_to 10162
  155.9700  130.4581  150.5987 LP  0  0  0  0  0  0  0  0  0  0  0  0  # atno 17370 bound_to 10713
  157.3763  131.0773  151.1515 LP  0  0  0  0  0  0  0  0  0  0  0  0  # atno 17371 bound_to 10713
  140.8787  133.7934  155.9442 LP  0  0  0  0  0  0  0  0  0  0  0  0  # atno 17394 bound_to 11000
  140.8877  134.2533  157.5111 LP  0  0  0  0  0  0  0  0  0  0  0  0  # atno 17395 bound_to 11000

$$$$
