AV-unprocessed.smi:1005|AV-procd|sdf|4389|dock3
  -GOLD-   22720 2313D 1   1.00000     0.00000
 Structure written by MMmdl.
 55 57  0  0  0  0  0  0  0  0  1 V2000
  153.2057  142.9538  161.3372 C   0  0  0  0  0  0  0  0  0  0  0  0
  152.5463  142.6518  160.0032 C   0  0  0  0  0  0  0  0  0  0  0  0
  152.4698  141.3110  159.5615 C   0  0  0  0  0  0  0  0  0  0  0  0
  151.8704  140.9892  158.3238 C   0  0  0  0  0  0  0  0  0  0  0  0
  151.6896  139.7658  157.7006 N   0  0  0  0  0  0  0  0  0  0  0  0
  151.0815  140.1255  156.5732 C   0  0  0  0  0  0  0  0  0  0  0  0
  150.8468  141.4392  156.3937 N   0  0  0  0  0  0  0  0  0  0  0  0
  150.2182  142.0796  155.2544 C   0  0  0  0  0  0  0  0  0  0  0  0
  148.7874  141.5544  155.0199 C   0  0  1  0  0  0  0  0  0  0  0  0
  148.0768  142.4846  154.2280 O   0  0  0  0  0  0  0  0  0  0  0  0
  148.7522  140.1874  154.3078 C   0  0  0  0  0  0  0  0  0  0  0  0
  147.4447  139.5307  154.2775 N   0  0  0  0  0  0  0  0  0  0  0  0
  147.2020  138.7814  155.5042 C   0  0  0  0  0  0  0  0  0  0  0  0
  145.8261  138.0948  155.4922 C   0  0  0  0  0  0  0  0  0  0  0  0
  145.7197  137.2639  154.3407 O   0  0  0  0  0  0  0  0  0  0  0  0
  145.8854  137.9791  153.1178 C   0  0  2  0  0  0  0  0  0  0  0  0
  145.7231  137.0181  151.9244 C   0  0  0  0  0  0  0  0  0  0  0  0
  144.6474  136.0326  152.0468 N   0  0  0  0  0  0  0  0  0  0  0  0
  144.3909  135.3220  150.7999 C   0  0  0  0  0  0  0  0  0  0  0  0
  143.4258  136.6625  152.5277 C   0  0  0  0  0  0  0  0  0  0  0  0
  147.2794  138.6353  153.1348 C   0  0  0  0  0  0  0  0  0  0  0  0
  151.3478  142.0544  157.5346 C   0  0  0  0  0  0  0  0  0  0  0  0
  151.4116  143.3910  157.9655 C   0  0  0  0  0  0  0  0  0  0  0  0
  152.0125  143.6951  159.2043 C   0  0  0  0  0  0  0  0  0  0  0  0
  152.0766  145.1426  159.6586 C   0  0  0  0  0  0  0  0  0  0  0  0
  153.5714  142.0451  161.8161 H   0  0  0  0  0  0  0  0  0  0  0  0
  152.4956  143.4277  162.0152 H   0  0  0  0  0  0  0  0  0  0  0  0
  154.0548  143.6237  161.2004 H   0  0  0  0  0  0  0  0  0  0  0  0
  152.8745  140.5160  160.1703 H   0  0  0  0  0  0  0  0  0  0  0  0
  150.7961  139.3935  155.8320 H   0  0  0  0  0  0  0  0  0  0  0  0
  150.2198  143.1605  155.4025 H   0  0  0  0  0  0  0  0  0  0  0  0
  150.8447  141.8848  154.3834 H   0  0  0  0  0  0  0  0  0  0  0  0
  148.2578  141.4901  155.9702 H   0  0  0  0  0  0  0  0  0  0  0  0
  148.4040  143.3506  154.4168 H   0  0  0  0  0  0  0  0  0  0  0  0
  149.1183  140.3059  153.2867 H   0  0  0  0  0  0  0  0  0  0  0  0
  149.4650  139.5289  154.8065 H   0  0  0  0  0  0  0  0  0  0  0  0
  147.9792  138.0269  155.6361 H   0  0  0  0  0  0  0  0  0  0  0  0
  147.2647  139.4477  156.3652 H   0  0  0  0  0  0  0  0  0  0  0  0
  145.6983  137.4842  156.3861 H   0  0  0  0  0  0  0  0  0  0  0  0
  145.0241  138.8345  155.4909 H   0  0  0  0  0  0  0  0  0  0  0  0
  145.1274  138.7618  153.0479 H   0  0  0  0  0  0  0  0  0  0  0  0
  145.5142  137.6298  151.0455 H   0  0  0  0  0  0  0  0  0  0  0  0
  146.6716  136.5199  151.7179 H   0  0  0  0  0  0  0  0  0  0  0  0
  143.5489  134.6378  150.9108 H   0  0  0  0  0  0  0  0  0  0  0  0
  145.2504  134.7217  150.5040 H   0  0  0  0  0  0  0  0  0  0  0  0
  144.1586  136.0153  149.9905 H   0  0  0  0  0  0  0  0  0  0  0  0
  142.6376  135.9221  152.6684 H   0  0  0  0  0  0  0  0  0  0  0  0
  143.0655  137.4130  151.8227 H   0  0  0  0  0  0  0  0  0  0  0  0
  143.5927  137.1502  153.4887 H   0  0  0  0  0  0  0  0  0  0  0  0
  147.4077  139.1847  152.2038 H   0  0  0  0  0  0  0  0  0  0  0  0
  148.0504  137.8632  153.1521 H   0  0  0  0  0  0  0  0  0  0  0  0
  151.0020  144.1750  157.3462 H   0  0  0  0  0  0  0  0  0  0  0  0
  151.6199  145.8099  158.9270 H   0  0  0  0  0  0  0  0  0  0  0  0
  153.1120  145.4553  159.7954 H   0  0  0  0  0  0  0  0  0  0  0  0
  151.5474  145.2703  160.6033 H   0  0  0  0  0  0  0  0  0  0  0  0
  1  2  1  0  0  0  0
  1 26  1  0  0  0  0
  1 27  1  0  0  0  0
  1 28  1  0  0  0  0
  2 24  1  0  0  0  0
  2  3  2  0  0  0  0
  3  4  1  0  0  0  0
  3 29  1  0  0  0  0
  4 22  2  0  0  0  0
  4  5  1  0  0  0  0
  5  6  2  0  0  0  0
  6  7  1  0  0  0  0
  6 30  1  0  0  0  0
  7  8  1  0  0  0  0
  7 22  1  0  0  0  0
  8  9  1  0  0  0  0
  8 31  1  0  0  0  0
  8 32  1  0  0  0  0
  9 10  1  0  0  0  0
  9 11  1  0  0  0  0
  9 33  1  0  0  0  0
 10 34  1  0  0  0  0
 11 12  1  0  0  0  0
 11 35  1  0  0  0  0
 11 36  1  0  0  0  0
 12 21  1  0  0  0  0
 12 13  1  0  0  0  0
 13 14  1  0  0  0  0
 13 37  1  0  0  0  0
 13 38  1  0  0  0  0
 14 15  1  0  0  0  0
 14 39  1  0  0  0  0
 14 40  1  0  0  0  0
 15 16  1  0  0  0  0
 16 17  1  0  0  0  0
 16 21  1  0  0  0  0
 16 41  1  0  0  0  0
 17 18  1  0  0  0  0
 17 42  1  0  0  0  0
 17 43  1  0  0  0  0
 18 19  1  0  0  0  0
 18 20  1  0  0  0  0
 19 44  1  0  0  0  0
 19 45  1  0  0  0  0
 19 46  1  0  0  0  0
 20 47  1  0  0  0  0
 20 48  1  0  0  0  0
 20 49  1  0  0  0  0
 21 50  1  0  0  0  0
 21 51  1  0  0  0  0
 22 23  1  0  0  0  0
 23 24  2  0  0  0  0
 23 52  1  0  0  0  0
 24 25  1  0  0  0  0
 25 53  1  0  0  0  0
 25 54  1  0  0  0  0
 25 55  1  0  0  0  0
M  END
> <s_m_source_file>
AV-unprocessed.smi

> <i_m_source_file_index>
1005

> <i_lp_mmshare_version>
43012

> <i_f3d_flags>
0

> <s_epik_input>
W0NIM11jKFtjSF0xKWMoW0NIM10pW2NIXWMoYzEyKW4oW2NIXW4yKVtDSDJdW0NASF0oW09IXSlbQ0gyXU4zW0NIMl1bQ0gyXU9bQ0BIXShbQ0gyXTMpW0NIMl1OKFtDSDNdKVtDSDNd

> <s_epik_cmdline>
J2VwaWtfcHl0aG9uJywgJy1waCcsICc3LjAnLCAnLXRuJywgJzgnLCAnLW1hJywgJzIwMCcsICctbWV0YWxfYmluZGluZycsICctaW1hZScsICc8aW5maWxlLm1hZT4nLCAnLW9tYWUnLCAnPG91dGZpbGUubWFlPic=

> <r_epik_Ionization_Penalty>
2.78613

> <r_epik_Ionization_Penalty_Charging>
0

> <r_epik_Ionization_Penalty_Neutral>
2.78613

> <r_epik_State_Penalty>
2.57336

> <r_epik_Charging_Adjusted_Penalty>
2.57336

> <i_epik_Tot_Q>
0

> <i_epik_Tot_abs_Q>
0

> <r_epik_Metal_State_Penalty>
2.49087

> <b_epik_Metal_Only>
0

> <s_lp_Force_Field>
OPLS_2005

> <r_lp_Energy>
32.9837

> <b_lp_Chiralities_Consistent>
1

> <s_lp_Variant>
AV-unprocessed.smi:1005-28

> <Gold.Version>
5.8.1

> <Gold.Id.Protein>
6NUR|6NUR_protein|mol2

> <Gold.PLP.Fitness>
45.7003

> <Gold.PLP.PLP>
-44.1588

> <Gold.PLP.part.hbond>
-1.9028

> <Gold.PLP.part.metal>
0.0000

> <Gold.PLP.part.buried>
-1.4104

> <Gold.PLP.part.nonpolar>
-41.3425

> <Gold.PLP.part.repulsive>
0.3884

> <Gold.PLP.ligand.clash>
0.0000

> <Gold.PLP.ligand.torsion>
0.7720

> <Gold.PLP.Chemscore.Hbond>
1.0000

> <Gold.PLP.Chemscore.CHOScore>
0.0000

> <Gold.PLP.Chemscore.Metal>
0.0000

> <Gold.Chemscore.Hbonds>
donor molecule, donor type, donor heavy atom, donor atom, acceptor molecule, acceptor atom, score
      L1  H    10    34       P1  8028  1.00

> <Gold.PLP.Chemscore.Internal.Correction>
0.0856

> <Gold.Rescore>
     Score         DG    S(hbond)    S(metal)    S(lipo)     H(rot)  DE(clash)    DE(int)     intcor
     16.79     -17.62       1.00        0.00     125.42       2.29       0.21       0.62       ----

> <Gold.Chemscore.Fitness>
16.7856

> <Gold.Chemscore.DG>
-17.6202

> <Gold.Chemscore.ZeroCoef>
-5.4800

> <Gold.Chemscore.Hbond>
0.9961

> <Gold.Chemscore.Metal>
0.0000

> <Gold.Chemscore.Lipo>
125.4220

> <Gold.Chemscore.Internal_Hbond>
0.0000

> <Gold.Chemscore.DEClash>
0.2103

> <Gold.Chemscore.DEInternal>
0.6244

> <Gold.Chemscore.Rot>
2.2895

> <Gold.Chemscore.Internal.Correction>
   9.000000E+99

> <Gold.Chemscore.Hbonds>
donor molecule, donor type, donor heavy atom, donor atom, acceptor molecule, acceptor atom, score
      L1  H    10    34       P1  8028  0.96

> <Gold.Chemscore.Hbond.Weighted>
-3.3270

> <Gold.Chemscore.Metal.Weighted>
-0.0000

> <Gold.Chemscore.Lipo.Weighted>
-14.6744

> <Gold.Chemscore.Internal_Hbond.Weighted>
0.0000

> <Gold.Chemscore.DEClash.Weighted>
0.2103

> <Gold.Chemscore.DEInternal.Weighted>
0.6244

> <Gold.Chemscore.Rot.Weighted>
5.8612

> <Gold.Chemscore.Internal.Correction.Weighted>
   9.000000E+99

> <Gold.Protein.RotatedTorsions>
[ 6907 6896 6895 6894 ] final -142.20 input  -60.11 | X-H torsion
[ 7974 7965 7964 7962 ] final  127.53 input  175.53 | X-H torsion
[ 8008 7997 7996 7995 ] final  153.72 input   59.86 | X-H torsion
[ 10167 10162 10161 10158 ] final  116.44 input  -65.29 | X-H torsion
[ 10718 10713 10712 10709 ] final -123.09 input   66.30 | X-H torsion
[ 10763 10752 10751 10750 ] final  139.14 input  -60.55 | X-H torsion
[ 11005 11000 10999 10996 ] final   91.68 input  -57.11 | X-H torsion

> <Gold.Protein.ActiveResidues>
 VAL166  LYS551  ARG553  GLY616  TRP617  ASP618  TYR619  PRO620  LYS621  CYS622 
 ASP623  PHE694  ASN695  SER759  ASP760  ASP761  ALA762  ILE779  LEU786  VAL792 
 PHE793  MET794  SER795  GLU796  ALA797  LYS798  CYS799  TRP800  GLU811  SER814 

> <Gold.Protein.RotatedAtoms>
  151.0839  133.5368  159.2618 H   0  0  0  0  0  0  0  0  0  0  0  0  # atno 6907 bound_to 6896
  151.2261  135.0536  159.8979 H   0  0  0  0  0  0  0  0  0  0  0  0  # atno 6908 bound_to 6896
  152.5427  134.0635  159.8216 H   0  0  0  0  0  0  0  0  0  0  0  0  # atno 6909 bound_to 6896
  145.0496  139.3894  143.5061 H   0  0  0  0  0  0  0  0  0  0  0  0  # atno 7974 bound_to 7965
  156.2567  140.1986  156.6535 H   0  0  0  0  0  0  0  0  0  0  0  0  # atno 8008 bound_to 7997
  154.6519  140.0571  156.9990 H   0  0  0  0  0  0  0  0  0  0  0  0  # atno 8009 bound_to 7997
  155.1405  140.3242  155.4456 H   0  0  0  0  0  0  0  0  0  0  0  0  # atno 8010 bound_to 7997
  139.6247  144.7106  151.2559 H   0  0  0  0  0  0  0  0  0  0  0  0  # atno 10167 bound_to 10162
  156.1473  130.6509  150.9861 H   0  0  0  0  0  0  0  0  0  0  0  0  # atno 10718 bound_to 10713
  153.9012  135.3022  155.3448 H   0  0  0  0  0  0  0  0  0  0  0  0  # atno 10763 bound_to 10752
  154.7669  135.4906  153.9575 H   0  0  0  0  0  0  0  0  0  0  0  0  # atno 10764 bound_to 10752
  153.1244  135.6789  153.9382 H   0  0  0  0  0  0  0  0  0  0  0  0  # atno 10765 bound_to 10752
  139.8835  134.8688  156.3462 H   0  0  0  0  0  0  0  0  0  0  0  0  # atno 11005 bound_to 11000
  146.3517  140.0139  142.8664 LP  0  0  0  0  0  0  0  0  0  0  0  0  # atno 17320 bound_to 7965
  145.1544  140.9640  143.4414 LP  0  0  0  0  0  0  0  0  0  0  0  0  # atno 17321 bound_to 7965
  140.7404  143.6590  150.8181 LP  0  0  0  0  0  0  0  0  0  0  0  0  # atno 17342 bound_to 10162
  140.0206  143.5547  152.2802 LP  0  0  0  0  0  0  0  0  0  0  0  0  # atno 17343 bound_to 10162
  157.6627  131.0877  150.7801 LP  0  0  0  0  0  0  0  0  0  0  0  0  # atno 17370 bound_to 10713
  156.7871  130.4878  149.5391 LP  0  0  0  0  0  0  0  0  0  0  0  0  # atno 17371 bound_to 10713
  140.9625  133.7379  156.0421 LP  0  0  0  0  0  0  0  0  0  0  0  0  # atno 17394 bound_to 11000
  140.7972  134.3550  157.5449 LP  0  0  0  0  0  0  0  0  0  0  0  0  # atno 17395 bound_to 11000

$$$$
