AV-unprocessed.smi:229|AV-procd|sdf|1754|dock6
  -GOLD-   2262020283D 1   1.00000     0.00000
 Structure written by MMmdl.
 58 62  0  0  0  0  0  0  0  0  1 V2000
  145.3315  133.0675  156.2675 C   0  0  0  0  0  0  0  0  0  0  0  0
  145.8573  134.5040  156.1546 C   0  0  0  0  0  0  0  0  0  0  0  0
  147.1769  134.5977  155.3746 C   0  0  1  0  0  0  0  0  0  0  0  0
  147.9500  135.8840  155.7083 C   0  0  0  0  0  0  0  0  0  0  0  0
  149.2330  135.8739  155.0211 N   0  0  0  0  0  0  0  0  0  0  0  0
  149.9195  137.0353  155.0500 C   0  0  0  0  0  0  0  0  0  0  0  0
  151.1475  137.0347  154.4763 N   0  0  0  0  0  0  0  0  0  0  0  0
  151.8836  138.1503  154.4725 C   0  0  0  0  0  0  0  0  0  0  0  0
  151.5876  139.3480  154.9819 N   0  0  0  0  0  0  0  0  0  0  0  0
  150.3570  139.3468  155.5706 C   0  0  0  0  0  0  0  0  0  0  0  0
  149.4624  138.2425  155.6513 C   0  0  0  0  0  0  0  0  0  0  0  0
  148.3099  138.6166  156.3329 N   0  0  0  0  0  0  0  0  0  0  0  0
  148.5089  139.8715  156.6314 C   0  0  0  0  0  0  0  0  0  0  0  0
  149.7130  140.3896  156.2131 N   0  0  0  0  0  0  0  0  0  0  0  0
  150.1914  141.7456  156.4176 C   0  0  0  0  0  0  0  0  0  0  0  0
  150.3775  142.0831  157.9099 C   0  0  1  0  0  0  0  0  0  0  0  0
  151.3050  141.2008  158.5147 O   0  0  0  0  0  0  0  0  0  0  0  0
  150.7948  143.5491  158.1494 C   0  0  1  0  0  0  0  0  0  0  0  0
  151.4931  143.8314  159.4909 C   0  0  0  0  0  0  0  0  0  0  0  0
  152.8690  144.3204  159.0804 C   0  0  0  0  0  0  0  0  0  0  0  0
  152.6076  144.9080  157.7002 C   0  0  0  0  0  0  0  0  0  0  0  0
  151.6861  143.9932  157.1292 O   0  0  0  0  0  0  0  0  0  0  0  0
  150.0434  134.7163  155.3681 C   0  0  0  0  0  0  0  0  0  0  0  0
  149.2701  133.4094  155.0875 C   0  0  1  0  0  0  0  0  0  0  0  0
  149.1742  133.0395  153.6107 C   0  0  0  0  0  0  0  0  0  0  0  0
  148.9458  131.5372  153.6746 C   0  0  0  0  0  0  0  0  0  0  0  0
  149.7961  131.1083  154.7270 O   0  0  0  0  0  0  0  0  0  0  0  0
  149.9835  132.1730  155.6574 C   0  0  0  0  0  0  0  0  0  0  0  0
  147.9825  133.4669  155.7158 O   0  0  0  0  0  0  0  0  0  0  0  0
  144.3859  133.0428  156.8095 H   0  0  0  0  0  0  0  0  0  0  0  0
  146.0360  132.4280  156.8003 H   0  0  0  0  0  0  0  0  0  0  0  0
  145.1616  132.6313  155.2829 H   0  0  0  0  0  0  0  0  0  0  0  0
  145.1017  135.1149  155.6593 H   0  0  0  0  0  0  0  0  0  0  0  0
  145.9875  134.9252  157.1521 H   0  0  0  0  0  0  0  0  0  0  0  0
  146.9441  134.5876  154.3103 H   0  0  0  0  0  0  0  0  0  0  0  0
  147.3745  136.7608  155.4079 H   0  0  0  0  0  0  0  0  0  0  0  0
  148.1028  135.9482  156.7856 H   0  0  0  0  0  0  0  0  0  0  0  0
  152.8479  138.0723  153.9925 H   0  0  0  0  0  0  0  0  0  0  0  0
  147.7802  140.4573  157.1727 H   0  0  0  0  0  0  0  0  0  0  0  0
  151.1290  141.8698  155.8744 H   0  0  0  0  0  0  0  0  0  0  0  0
  149.4762  142.4318  155.9629 H   0  0  0  0  0  0  0  0  0  0  0  0
  149.4258  141.9227  158.4179 H   0  0  0  0  0  0  0  0  0  0  0  0
  152.1744  141.5512  158.3956 H   0  0  0  0  0  0  0  0  0  0  0  0
  149.9046  144.1773  158.0886 H   0  0  0  0  0  0  0  0  0  0  0  0
  150.9612  144.6201  160.0244 H   0  0  0  0  0  0  0  0  0  0  0  0
  151.5431  142.9662  160.1525 H   0  0  0  0  0  0  0  0  0  0  0  0
  153.2941  145.0412  159.7793 H   0  0  0  0  0  0  0  0  0  0  0  0
  153.5552  143.4764  158.9994 H   0  0  0  0  0  0  0  0  0  0  0  0
  152.1449  145.8932  157.7769 H   0  0  0  0  0  0  0  0  0  0  0  0
  153.5129  144.9953  157.0992 H   0  0  0  0  0  0  0  0  0  0  0  0
  150.9830  134.7310  154.8137 H   0  0  0  0  0  0  0  0  0  0  0  0
  150.2996  134.7727  156.4272 H   0  0  0  0  0  0  0  0  0  0  0  0
  148.4004  133.5636  153.0529 H   0  0  0  0  0  0  0  0  0  0  0  0
  150.1242  133.2382  153.1125 H   0  0  0  0  0  0  0  0  0  0  0  0
  147.9099  131.3156  153.9353 H   0  0  0  0  0  0  0  0  0  0  0  0
  149.1801  131.0328  152.7374 H   0  0  0  0  0  0  0  0  0  0  0  0
  151.0570  132.3443  155.7472 H   0  0  0  0  0  0  0  0  0  0  0  0
  149.6119  131.8999  156.6458 H   0  0  0  0  0  0  0  0  0  0  0  0
  1  2  1  0  0  0  0
  1 30  1  0  0  0  0
  1 31  1  0  0  0  0
  1 32  1  0  0  0  0
  2  3  1  0  0  0  0
  2 33  1  0  0  0  0
  2 34  1  0  0  0  0
  3 29  1  0  0  0  0
  3  4  1  0  0  0  0
  3 35  1  0  0  0  0
  4  5  1  0  0  0  0
  4 36  1  0  0  0  0
  4 37  1  0  0  0  0
  5  6  1  0  0  0  0
  5 23  1  0  0  0  0
  6 11  1  0  0  0  0
  6  7  2  0  0  0  0
  7  8  1  0  0  0  0
  8  9  2  0  0  0  0
  8 38  1  0  0  0  0
  9 10  1  0  0  0  0
 10 14  1  0  0  0  0
 10 11  2  0  0  0  0
 11 12  1  0  0  0  0
 12 13  2  0  0  0  0
 13 14  1  0  0  0  0
 13 39  1  0  0  0  0
 14 15  1  0  0  0  0
 15 16  1  0  0  0  0
 15 40  1  0  0  0  0
 15 41  1  0  0  0  0
 16 17  1  0  0  0  0
 16 18  1  0  0  0  0
 16 42  1  0  0  0  0
 17 43  1  0  0  0  0
 18 22  1  0  0  0  0
 18 19  1  0  0  0  0
 18 44  1  0  0  0  0
 19 20  1  0  0  0  0
 19 45  1  0  0  0  0
 19 46  1  0  0  0  0
 20 21  1  0  0  0  0
 20 47  1  0  0  0  0
 20 48  1  0  0  0  0
 21 22  1  0  0  0  0
 21 49  1  0  0  0  0
 21 50  1  0  0  0  0
 23 24  1  0  0  0  0
 23 51  1  0  0  0  0
 23 52  1  0  0  0  0
 24 28  1  0  0  0  0
 24 25  1  0  0  0  0
 24 29  1  0  0  0  0
 25 26  1  0  0  0  0
 25 53  1  0  0  0  0
 25 54  1  0  0  0  0
 26 27  1  0  0  0  0
 26 55  1  0  0  0  0
 26 56  1  0  0  0  0
 27 28  1  0  0  0  0
 28 57  1  0  0  0  0
 28 58  1  0  0  0  0
M  END
> <s_m_source_file>
AV-unprocessed.smi

> <i_m_source_file_index>
229

> <i_lp_mmshare_version>
43012

> <i_f3d_flags>
0

> <s_epik_input>
W0NIMl0xT1tDSDJdW0NIMl1bQ0BdMTJbQ0gyXU4oW0NIMl1bQ0BIXShPMilbQ0gyXVtDSDNdKWMobltjSF1uMyljKGMzNCluW2NIXW40W0NIMl1bQ0BIXShbT0hdKVtDQEBIXTVbQ0gyXVtDSDJdW0NIMl1PNQ==

> <s_epik_cmdline>
J2VwaWtfcHl0aG9uJywgJy1waCcsICc3LjAnLCAnLXRuJywgJzgnLCAnLW1hJywgJzIwMCcsICctbWV0YWxfYmluZGluZycsICctaW1hZScsICc8aW5maWxlLm1hZT4nLCAnLW9tYWUnLCAnPG91dGZpbGUubWFlPic=

> <r_lp_tautomer_probability>
1

> <r_epik_Ionization_Penalty>
0.00318402

> <r_epik_Ionization_Penalty_Charging>
0

> <r_epik_Ionization_Penalty_Neutral>
0.00318402

> <r_epik_State_Penalty>
0.00215642

> <r_epik_Charging_Adjusted_Penalty>
0.00215642

> <i_epik_Tot_Q>
0

> <i_epik_Tot_abs_Q>
0

> <r_epik_Metal_State_Penalty>
-0

> <b_epik_Metal_Only>
0

> <s_lp_Force_Field>
OPLS_2005

> <r_lp_Energy>
59.0026

> <b_lp_Chiralities_Consistent>
1

> <s_lp_Variant>
AV-unprocessed.smi:229-8

> <Gold.Version>
5.8.1

> <Gold.Id.Protein>
6NUR|6NUR_protein|mol2

> <Gold.PLP.Fitness>
41.3810

> <Gold.PLP.PLP>
-38.5082

> <Gold.PLP.part.hbond>
-1.4873

> <Gold.PLP.part.metal>
0.0000

> <Gold.PLP.part.buried>
-8.2130

> <Gold.PLP.part.nonpolar>
-29.3812

> <Gold.PLP.part.repulsive>
0.5670

> <Gold.PLP.ligand.clash>
0.0000

> <Gold.PLP.ligand.torsion>
0.9746

> <Gold.PLP.Chemscore.Hbond>
1.5438

> <Gold.PLP.Chemscore.CHOScore>
0.0000

> <Gold.PLP.Chemscore.Metal>
0.0000

> <Gold.Chemscore.Hbonds>
donor molecule, donor type, donor heavy atom, donor atom, acceptor molecule, acceptor atom, score
      P1  H  7989  7998       L1     9  0.78
      P1  H 10752 10763       L1     7  0.30

> <Gold.PLP.Chemscore.Internal.Correction>
0.1907

> <Gold.Rescore>
     Score         DG    S(hbond)    S(metal)    S(lipo)     H(rot)  DE(clash)    DE(int)     intcor
      8.98     -11.36       0.31        0.00      95.20       2.46       0.24       2.14       ----

> <Gold.Chemscore.Fitness>
8.9806

> <Gold.Chemscore.DG>
-11.3649

> <Gold.Chemscore.ZeroCoef>
-5.4800

> <Gold.Chemscore.Hbond>
0.3120

> <Gold.Chemscore.Metal>
0.0000

> <Gold.Chemscore.Lipo>
95.1968

> <Gold.Chemscore.Internal_Hbond>
0.0000

> <Gold.Chemscore.DEClash>
0.2444

> <Gold.Chemscore.DEInternal>
2.1399

> <Gold.Chemscore.Rot>
2.4591

> <Gold.Chemscore.Internal.Correction>
   9.000000E+99

> <Gold.Chemscore.Hbonds>
donor molecule, donor type, donor heavy atom, donor atom, acceptor molecule, acceptor atom, score
      P1  H  7989  7998       L1     9  0.44
      P1  H 10752 10763       L1     7  0.04

> <Gold.Chemscore.Hbond.Weighted>
-1.0422

> <Gold.Chemscore.Metal.Weighted>
-0.0000

> <Gold.Chemscore.Lipo.Weighted>
-11.1380

> <Gold.Chemscore.Internal_Hbond.Weighted>
0.0000

> <Gold.Chemscore.DEClash.Weighted>
0.2444

> <Gold.Chemscore.DEInternal.Weighted>
2.1399

> <Gold.Chemscore.Rot.Weighted>
6.2953

> <Gold.Chemscore.Internal.Correction.Weighted>
   9.000000E+99

> <Gold.Protein.RotatedTorsions>
[ 6907 6896 6895 6894 ] final  -52.73 input  -60.11 | X-H torsion
[ 7974 7965 7964 7962 ] final   93.47 input  175.53 | X-H torsion
[ 8008 7997 7996 7995 ] final   99.10 input   59.86 | X-H torsion
[ 10167 10162 10161 10158 ] final  106.83 input  -65.29 | X-H torsion
[ 10718 10713 10712 10709 ] final  -81.35 input   66.30 | X-H torsion
[ 10763 10752 10751 10750 ] final   51.01 input  -60.55 | X-H torsion
[ 11005 11000 10999 10996 ] final -157.90 input  -57.11 | X-H torsion

> <Gold.Protein.ActiveResidues>
 VAL166  LYS551  ARG553  GLY616  TRP617  ASP618  TYR619  PRO620  LYS621  CYS622 
 ASP623  PHE694  ASN695  SER759  ASP760  ASP761  ALA762  ILE779  LEU786  VAL792 
 PHE793  MET794  SER795  GLU796  ALA797  LYS798  CYS799  TRP800  GLU811  SER814 

> <Gold.Protein.RotatedAtoms>
  150.8491  134.7809  159.6993 H   0  0  0  0  0  0  0  0  0  0  0  0  # atno 6907 bound_to 6896
  152.4560  134.5287  159.9814 H   0  0  0  0  0  0  0  0  0  0  0  0  # atno 6908 bound_to 6896
  151.5411  133.3394  159.2971 H   0  0  0  0  0  0  0  0  0  0  0  0  # atno 6909 bound_to 6896
  145.4785  139.2279  143.2895 H   0  0  0  0  0  0  0  0  0  0  0  0  # atno 7974 bound_to 7965
  156.1071  140.3234  155.8021 H   0  0  0  0  0  0  0  0  0  0  0  0  # atno 8008 bound_to 7997
  155.4737  140.0548  157.2993 H   0  0  0  0  0  0  0  0  0  0  0  0  # atno 8009 bound_to 7997
  154.4735  140.2022  155.9950 H   0  0  0  0  0  0  0  0  0  0  0  0  # atno 8010 bound_to 7997
  139.6976  144.7099  151.1240 H   0  0  0  0  0  0  0  0  0  0  0  0  # atno 10167 bound_to 10162
  156.0052  130.4601  150.3939 H   0  0  0  0  0  0  0  0  0  0  0  0  # atno 10718 bound_to 10713
  152.9785  135.5860  154.4345 H   0  0  0  0  0  0  0  0  0  0  0  0  # atno 10763 bound_to 10752
  154.3954  135.2768  155.2131 H   0  0  0  0  0  0  0  0  0  0  0  0  # atno 10764 bound_to 10752
  154.3985  135.6109  153.5938 H   0  0  0  0  0  0  0  0  0  0  0  0  # atno 10765 bound_to 10752
  140.6595  134.4364  157.5234 H   0  0  0  0  0  0  0  0  0  0  0  0  # atno 11005 bound_to 11000
  146.2355  140.5569  142.8957 LP  0  0  0  0  0  0  0  0  0  0  0  0  # atno 17320 bound_to 7965
  144.7903  140.6018  143.6546 LP  0  0  0  0  0  0  0  0  0  0  0  0  # atno 17321 bound_to 7965
  140.7701  143.5469  150.9249 LP  0  0  0  0  0  0  0  0  0  0  0  0  # atno 17342 bound_to 10162
  139.9149  143.6675  152.3108 LP  0  0  0  0  0  0  0  0  0  0  0  0  # atno 17343 bound_to 10162
  157.2012  131.0438  151.2649 LP  0  0  0  0  0  0  0  0  0  0  0  0  # atno 17370 bound_to 10713
  157.3974  130.7315  149.6742 LP  0  0  0  0  0  0  0  0  0  0  0  0  # atno 17371 bound_to 10713
  139.9018  134.8539  156.1866 LP  0  0  0  0  0  0  0  0  0  0  0  0  # atno 17394 bound_to 11000
  141.0476  133.6905  156.1711 LP  0  0  0  0  0  0  0  0  0  0  0  0  # atno 17395 bound_to 11000

$$$$
