AV-unprocessed.smi:528|AV-procd|sdf|2836|dock4
  -GOLD-   2262023323D 1   1.00000     0.00000
 Structure written by MMmdl.
 45 47  0  0  0  0  0  0  0  0  1 V2000
  152.2191  137.7159  158.3771 C   0  0  0  0  0  0  0  0  0  0  0  0
  151.1190  138.1563  157.3968 C   0  0  1  0  0  0  0  0  0  0  0  0
  149.8240  137.9710  158.0503 N   0  0  0  0  0  0  0  0  0  0  0  0
  149.4427  136.8976  158.7600 C   0  0  0  0  0  0  0  0  0  0  0  0
  150.1795  135.9394  158.9957 O   0  0  0  0  0  0  0  0  0  0  0  0
  148.0027  136.9181  159.2886 C   0  0  0  0  0  0  0  0  0  0  0  0
  147.7406  135.8437  160.2607 N   0  0  0  0  0  0  0  0  0  0  0  0
  147.8922  134.5165  159.8122 C   0  0  0  0  0  0  0  0  0  0  0  0
  147.6669  133.4468  160.5992 C   0  0  0  0  0  0  0  0  0  0  0  0
  147.8908  132.0263  160.1042 C   0  0  0  0  0  0  0  0  0  0  0  0
  146.9994  131.6991  159.1684 F   0  0  0  0  0  0  0  0  0  0  0  0
  149.1079  131.9185  159.5731 F   0  0  0  0  0  0  0  0  0  0  0  0
  147.7931  131.1463  161.1014 F   0  0  0  0  0  0  0  0  0  0  0  0
  147.2841  133.7233  161.9700 C   0  0  0  0  0  0  0  0  0  0  0  0
  147.1412  134.9864  162.4169 C   0  0  0  0  0  0  0  0  0  0  0  0
  147.3678  136.1394  161.5425 C   0  0  0  0  0  0  0  0  0  0  0  0
  147.2324  137.2981  161.9374 O   0  0  0  0  0  0  0  0  0  0  0  0
  151.2661  139.6323  156.9470 C   0  0  2  0  0  0  0  0  0  0  0  0
  151.8070  140.5759  158.0526 C   0  0  0  0  0  0  0  0  0  0  0  0
  150.7673  141.7085  158.0947 C   0  0  1  0  0  0  0  0  0  0  0  0
  150.8600  142.5446  156.8056 C   0  0  0  0  0  0  0  0  0  0  0  0
  150.2573  141.6012  155.7481 C   0  0  0  0  0  0  0  0  0  0  0  0
  149.9377  140.3336  156.5645 C   0  0  2  0  0  0  0  0  0  0  0  0
  149.4715  140.9372  157.8857 C   0  0  0  0  0  0  0  0  0  0  0  0
  153.2070  137.7458  157.9194 H   0  0  0  0  0  0  0  0  0  0  0  0
  152.0548  136.6907  158.7113 H   0  0  0  0  0  0  0  0  0  0  0  0
  152.2420  138.3527  159.2620 H   0  0  0  0  0  0  0  0  0  0  0  0
  151.1873  137.5169  156.5154 H   0  0  0  0  0  0  0  0  0  0  0  0
  149.1469  138.7083  157.9197 H   0  0  0  0  0  0  0  0  0  0  0  0
  147.8187  137.8985  159.7297 H   0  0  0  0  0  0  0  0  0  0  0  0
  147.2995  136.8421  158.4568 H   0  0  0  0  0  0  0  0  0  0  0  0
  148.2015  134.4220  158.7814 H   0  0  0  0  0  0  0  0  0  0  0  0
  147.1025  132.9035  162.6493 H   0  0  0  0  0  0  0  0  0  0  0  0
  146.8507  135.1551  163.4435 H   0  0  0  0  0  0  0  0  0  0  0  0
  151.9453  139.6532  156.0929 H   0  0  0  0  0  0  0  0  0  0  0  0
  151.8424  140.0819  159.0243 H   0  0  0  0  0  0  0  0  0  0  0  0
  152.8115  140.9394  157.8331 H   0  0  0  0  0  0  0  0  0  0  0  0
  150.8078  142.3042  159.0071 H   0  0  0  0  0  0  0  0  0  0  0  0
  150.2680  143.4569  156.8887 H   0  0  0  0  0  0  0  0  0  0  0  0
  151.8866  142.8300  156.5727 H   0  0  0  0  0  0  0  0  0  0  0  0
  149.3462  142.0301  155.3291 H   0  0  0  0  0  0  0  0  0  0  0  0
  150.9425  141.4069  154.9220 H   0  0  0  0  0  0  0  0  0  0  0  0
  149.2057  139.6928  156.0750 H   0  0  0  0  0  0  0  0  0  0  0  0
  149.2783  140.1949  158.6619 H   0  0  0  0  0  0  0  0  0  0  0  0
  148.5967  141.5816  157.7827 H   0  0  0  0  0  0  0  0  0  0  0  0
  1  2  1  0  0  0  0
  1 25  1  0  0  0  0
  1 26  1  0  0  0  0
  1 27  1  0  0  0  0
  2  3  1  0  0  0  0
  2 18  1  0  0  0  0
  2 28  1  0  0  0  0
  3  4  1  0  0  0  0
  3 29  1  0  0  0  0
  4  5  2  0  0  0  0
  4  6  1  0  0  0  0
  6  7  1  0  0  0  0
  6 30  1  0  0  0  0
  6 31  1  0  0  0  0
  7 16  1  0  0  0  0
  7  8  1  0  0  0  0
  8  9  2  0  0  0  0
  8 32  1  0  0  0  0
  9 10  1  0  0  0  0
  9 14  1  0  0  0  0
 10 11  1  0  0  0  0
 10 12  1  0  0  0  0
 10 13  1  0  0  0  0
 14 15  2  0  0  0  0
 14 33  1  0  0  0  0
 15 16  1  0  0  0  0
 15 34  1  0  0  0  0
 16 17  2  0  0  0  0
 18 23  1  0  0  0  0
 18 19  1  0  0  0  0
 18 35  1  0  0  0  0
 19 20  1  0  0  0  0
 19 36  1  0  0  0  0
 19 37  1  0  0  0  0
 20 24  1  0  0  0  0
 20 21  1  0  0  0  0
 20 38  1  0  0  0  0
 21 22  1  0  0  0  0
 21 39  1  0  0  0  0
 21 40  1  0  0  0  0
 22 23  1  0  0  0  0
 22 41  1  0  0  0  0
 22 42  1  0  0  0  0
 23 24  1  0  0  0  0
 23 43  1  0  0  0  0
 24 44  1  0  0  0  0
 24 45  1  0  0  0  0
M  END
> <s_m_source_file>
AV-unprocessed.smi

> <i_m_source_file_index>
528

> <i_lp_mmshare_version>
43012

> <i_f3d_flags>
0

> <s_epik_input>
W0NIMl0xW0NIMl1bQ0BASF0oW0NIMl0yKVtDQEBIXShbQ0gyXVtDQEhdMTIpW0NASF0oW0NIM10pW05IXUMoPU8pW0NIMl1uM1tjSF1jKEMoRikoRilGKVtjSF1bY0hdYzM9Tw==

> <s_epik_cmdline>
J2VwaWtfcHl0aG9uJywgJy1waCcsICc3LjAnLCAnLXRuJywgJzgnLCAnLW1hJywgJzIwMCcsICctbWV0YWxfYmluZGluZycsICctaW1hZScsICc8aW5maWxlLm1hZT4nLCAnLW9tYWUnLCAnPG91dGZpbGUubWFlPic=

> <r_lp_tautomer_probability>
1

> <r_epik_Ionization_Penalty>
4.09479e-08

> <r_epik_Ionization_Penalty_Charging>
1.9321e-08

> <r_epik_Ionization_Penalty_Neutral>
2.16269e-08

> <r_epik_State_Penalty>
-0

> <r_epik_Charging_Adjusted_Penalty>
1.9321e-08

> <i_epik_Tot_Q>
0

> <i_epik_Tot_abs_Q>
0

> <r_epik_Metal_State_Penalty>
-0

> <b_epik_Metal_Only>
0

> <s_lp_Force_Field>
OPLS_2005

> <r_lp_Energy>
62.8614

> <b_lp_Chiralities_Consistent>
1

> <s_lp_Variant>
AV-unprocessed.smi:528-6

> <Gold.Version>
5.8.1

> <Gold.Id.Protein>
6NUR|6NUR_protein|mol2

> <Gold.PLP.Fitness>
44.0986

> <Gold.PLP.PLP>
-39.5179

> <Gold.PLP.part.hbond>
-2.8295

> <Gold.PLP.part.metal>
0.0000

> <Gold.PLP.part.buried>
-3.4130

> <Gold.PLP.part.nonpolar>
-32.2896

> <Gold.PLP.part.repulsive>
0.1095

> <Gold.PLP.ligand.clash>
0.2799

> <Gold.PLP.ligand.torsion>
1.0380

> <Gold.PLP.Chemscore.Hbond>
2.2755

> <Gold.PLP.Chemscore.CHOScore>
0.0000

> <Gold.PLP.Chemscore.Metal>
0.0000

> <Gold.Chemscore.Hbonds>
donor molecule, donor type, donor heavy atom, donor atom, acceptor molecule, acceptor atom, score
      P1  H  6896  6907       L1     5  0.86
      P1  H  6931  6943       L1    17  0.80
      P1  H  6934  6947       L1    17  0.77

> <Gold.PLP.Chemscore.Internal.Correction>
0.1101

> <Gold.Rescore>
     Score         DG    S(hbond)    S(metal)    S(lipo)     H(rot)  DE(clash)    DE(int)     intcor
     13.68     -18.33       2.27        0.00      82.50       1.71       0.21       4.44       ----

> <Gold.Chemscore.Fitness>
13.6822

> <Gold.Chemscore.DG>
-18.3253

> <Gold.Chemscore.ZeroCoef>
-5.4800

> <Gold.Chemscore.Hbond>
2.2686

> <Gold.Chemscore.Metal>
0.0000

> <Gold.Chemscore.Lipo>
82.4973

> <Gold.Chemscore.Internal_Hbond>
0.0000

> <Gold.Chemscore.DEClash>
0.2064

> <Gold.Chemscore.DEInternal>
4.4367

> <Gold.Chemscore.Rot>
1.7125

> <Gold.Chemscore.Internal.Correction>
   9.000000E+99

> <Gold.Chemscore.Hbonds>
donor molecule, donor type, donor heavy atom, donor atom, acceptor molecule, acceptor atom, score
      P1  H  6896  6907       L1     5  0.81
      P1  H  6931  6943       L1    17  0.58
      P1  H  6934  6947       L1    17  0.74

> <Gold.Chemscore.Hbond.Weighted>
-7.5771

> <Gold.Chemscore.Metal.Weighted>
-0.0000

> <Gold.Chemscore.Lipo.Weighted>
-9.6522

> <Gold.Chemscore.Internal_Hbond.Weighted>
0.0000

> <Gold.Chemscore.DEClash.Weighted>
0.2064

> <Gold.Chemscore.DEInternal.Weighted>
4.4367

> <Gold.Chemscore.Rot.Weighted>
4.3840

> <Gold.Chemscore.Internal.Correction.Weighted>
   9.000000E+99

> <Gold.Protein.RotatedTorsions>
[ 6907 6896 6895 6894 ] final  -34.69 input  -60.11 | X-H torsion
[ 7974 7965 7964 7962 ] final   75.79 input  175.53 | X-H torsion
[ 8008 7997 7996 7995 ] final  179.71 input   59.86 | X-H torsion
[ 10167 10162 10161 10158 ] final  176.82 input  -65.29 | X-H torsion
[ 10718 10713 10712 10709 ] final  123.58 input   66.30 | X-H torsion
[ 10763 10752 10751 10750 ] final  150.85 input  -60.55 | X-H torsion
[ 11005 11000 10999 10996 ] final  142.88 input  -57.11 | X-H torsion

> <Gold.Protein.ActiveResidues>
 VAL166  LYS551  ARG553  GLY616  TRP617  ASP618  TYR619  PRO620  LYS621  CYS622 
 ASP623  PHE694  ASN695  SER759  ASP760  ASP761  ALA762  ILE779  LEU786  VAL792 
 PHE793  MET794  SER795  GLU796  ALA797  LYS798  CYS799  TRP800  GLU811  SER814 

> <Gold.Protein.RotatedAtoms>
  151.0494  134.9662  159.8203 H   0  0  0  0  0  0  0  0  0  0  0  0  # atno 6907 bound_to 6896
  152.5378  134.2556  159.8925 H   0  0  0  0  0  0  0  0  0  0  0  0  # atno 6908 bound_to 6896
  151.2571  133.4278  159.2648 H   0  0  0  0  0  0  0  0  0  0  0  0  # atno 6909 bound_to 6896
  145.7111  139.2615  143.1650 H   0  0  0  0  0  0  0  0  0  0  0  0  # atno 7974 bound_to 7965
  156.0403  140.1302  157.0162 H   0  0  0  0  0  0  0  0  0  0  0  0  # atno 8008 bound_to 7997
  154.4388  140.1031  156.6298 H   0  0  0  0  0  0  0  0  0  0  0  0  # atno 8009 bound_to 7997
  155.5676  140.3466  155.4509 H   0  0  0  0  0  0  0  0  0  0  0  0  # atno 8010 bound_to 7997
  139.5229  144.2870  152.0497 H   0  0  0  0  0  0  0  0  0  0  0  0  # atno 10167 bound_to 10162
  157.5653  131.1087  150.8465 H   0  0  0  0  0  0  0  0  0  0  0  0  # atno 10718 bound_to 10713
  154.0942  135.2850  155.3265 H   0  0  0  0  0  0  0  0  0  0  0  0  # atno 10763 bound_to 10752
  154.6599  135.5338  153.8008 H   0  0  0  0  0  0  0  0  0  0  0  0  # atno 10764 bound_to 10752
  153.0402  135.6531  154.1110 H   0  0  0  0  0  0  0  0  0  0  0  0  # atno 10765 bound_to 10752
  140.0511  134.9255  157.1017 H   0  0  0  0  0  0  0  0  0  0  0  0  # atno 11005 bound_to 11000
  146.0711  140.7868  142.9687 LP  0  0  0  0  0  0  0  0  0  0  0  0  # atno 17320 bound_to 7965
  144.6941  140.3344  143.7210 LP  0  0  0  0  0  0  0  0  0  0  0  0  # atno 17321 bound_to 7965
  140.2323  144.4355  150.6295 LP  0  0  0  0  0  0  0  0  0  0  0  0  # atno 17342 bound_to 10162
  140.6347  143.2193  151.6421 LP  0  0  0  0  0  0  0  0  0  0  0  0  # atno 17343 bound_to 10162
  156.8951  130.5227  149.5284 LP  0  0  0  0  0  0  0  0  0  0  0  0  # atno 17370 bound_to 10713
  156.0702  130.5736  150.9368 LP  0  0  0  0  0  0  0  0  0  0  0  0  # atno 17371 bound_to 10713
  140.3917  134.2178  155.7166 LP  0  0  0  0  0  0  0  0  0  0  0  0  # atno 17394 bound_to 11000
  141.1930  133.8160  157.0815 LP  0  0  0  0  0  0  0  0  0  0  0  0  # atno 17395 bound_to 11000

$$$$
