AV-unprocessed.smi:1679|AV-procd|sdf|6732|dock8
  -GOLD-   22720 7483D 1   1.00000     0.00000
 Structure written by MMmdl.
 45 46  0  0  0  0  0  0  0  0  1 V2000
  153.4416  141.0904  160.0616 C   0  0  0  0  0  0  0  0  0  0  0  0
  152.3026  142.0104  159.5927 C   0  0  1  0  0  0  0  0  0  0  0  0
  152.6119  143.4794  159.9431 C   0  0  0  0  0  0  0  0  0  0  0  0
  151.4865  144.4208  159.4912 C   0  0  0  0  0  0  0  0  0  0  0  0
  151.2245  144.2768  157.9869 C   0  0  0  0  0  0  0  0  0  0  0  0
  150.9105  142.8204  157.6192 C   0  0  0  0  0  0  0  0  0  0  0  0
  152.0211  141.8495  158.0808 C   0  0  2  0  0  0  0  0  0  0  0  0
  151.5919  140.5100  157.8730 O   0  0  0  0  0  0  0  0  0  0  0  0
  151.6658  140.0534  156.5288 C   0  0  0  0  0  0  0  0  0  0  0  0
  152.0552  138.5655  156.5368 C   0  0  0  0  0  0  0  0  0  0  0  0
  150.8963  137.7060  156.3167 N   0  0  0  0  0  0  0  0  0  0  0  0
  150.9386  136.4093  155.9745 C   0  0  0  0  0  0  0  0  0  0  0  0
  151.9798  135.7564  155.9099 O   0  0  0  0  0  0  0  0  0  0  0  0
  149.5962  135.7549  155.6344 C   0  0  0  0  0  0  0  0  0  0  0  0
  149.7836  134.3423  155.2759 N   0  0  0  0  0  0  0  0  0  0  0  0
  149.3100  133.8692  154.0597 C   0  0  0  0  0  0  0  0  0  0  0  0
  149.4768  132.5934  153.6379 C   0  0  0  0  0  0  0  0  0  0  0  0
  150.1860  131.6279  154.4701 C   0  0  0  0  0  0  0  0  0  0  0  0
  150.3948  130.4540  154.1730 O   0  0  0  0  0  0  0  0  0  0  0  0
  150.6462  132.1404  155.6858 N   0  0  0  0  0  0  0  0  0  0  0  0
  150.4782  133.4543  156.1266 C   0  0  0  0  0  0  0  0  0  0  0  0
  150.9336  133.8023  157.2151 O   0  0  0  0  0  0  0  0  0  0  0  0
  151.1464  131.5094  156.2950 H   0  0  0  0  0  0  0  0  0  0  0  0
  154.3739  141.3197  159.5451 H   0  0  0  0  0  0  0  0  0  0  0  0
  153.2084  140.0416  159.8764 H   0  0  0  0  0  0  0  0  0  0  0  0
  153.6187  141.2000  161.1317 H   0  0  0  0  0  0  0  0  0  0  0  0
  151.4005  141.7233  160.1356 H   0  0  0  0  0  0  0  0  0  0  0  0
  152.7601  143.5829  161.0186 H   0  0  0  0  0  0  0  0  0  0  0  0
  153.5484  143.7820  159.4727 H   0  0  0  0  0  0  0  0  0  0  0  0
  150.5752  144.1972  160.0469 H   0  0  0  0  0  0  0  0  0  0  0  0
  151.7472  145.4530  159.7261 H   0  0  0  0  0  0  0  0  0  0  0  0
  150.3950  144.9199  157.6914 H   0  0  0  0  0  0  0  0  0  0  0  0
  152.0968  144.6164  157.4271 H   0  0  0  0  0  0  0  0  0  0  0  0
  149.9696  142.5296  158.0822 H   0  0  0  0  0  0  0  0  0  0  0  0
  150.7511  142.7547  156.5436 H   0  0  0  0  0  0  0  0  0  0  0  0
  152.9410  142.0412  157.5249 H   0  0  0  0  0  0  0  0  0  0  0  0
  150.7180  140.1790  156.0073 H   0  0  0  0  0  0  0  0  0  0  0  0
  152.4052  140.6400  155.9825 H   0  0  0  0  0  0  0  0  0  0  0  0
  152.8197  138.3648  155.7851 H   0  0  0  0  0  0  0  0  0  0  0  0
  152.4864  138.3043  157.5033 H   0  0  0  0  0  0  0  0  0  0  0  0
  149.9915  138.1530  156.3505 H   0  0  0  0  0  0  0  0  0  0  0  0
  148.9179  135.8605  156.4831 H   0  0  0  0  0  0  0  0  0  0  0  0
  149.1136  136.2938  154.8169 H   0  0  0  0  0  0  0  0  0  0  0  0
  148.7864  134.5526  153.4062 H   0  0  0  0  0  0  0  0  0  0  0  0
  149.0882  132.2874  152.6772 H   0  0  0  0  0  0  0  0  0  0  0  0
  1  2  1  0  0  0  0
  1 24  1  0  0  0  0
  1 25  1  0  0  0  0
  1 26  1  0  0  0  0
  2  7  1  0  0  0  0
  2  3  1  0  0  0  0
  2 27  1  0  0  0  0
  3  4  1  0  0  0  0
  3 28  1  0  0  0  0
  3 29  1  0  0  0  0
  4  5  1  0  0  0  0
  4 30  1  0  0  0  0
  4 31  1  0  0  0  0
  5  6  1  0  0  0  0
  5 32  1  0  0  0  0
  5 33  1  0  0  0  0
  6  7  1  0  0  0  0
  6 34  1  0  0  0  0
  6 35  1  0  0  0  0
  7  8  1  0  0  0  0
  7 36  1  0  0  0  0
  8  9  1  0  0  0  0
  9 10  1  0  0  0  0
  9 37  1  0  0  0  0
  9 38  1  0  0  0  0
 10 11  1  0  0  0  0
 10 39  1  0  0  0  0
 10 40  1  0  0  0  0
 11 12  1  0  0  0  0
 11 41  1  0  0  0  0
 12 13  2  0  0  0  0
 12 14  1  0  0  0  0
 14 15  1  0  0  0  0
 14 42  1  0  0  0  0
 14 43  1  0  0  0  0
 15 21  1  0  0  0  0
 15 16  1  0  0  0  0
 16 17  2  0  0  0  0
 16 44  1  0  0  0  0
 17 18  1  0  0  0  0
 17 45  1  0  0  0  0
 18 19  2  0  0  0  0
 18 20  1  0  0  0  0
 20 23  1  0  0  0  0
 20 21  1  0  0  0  0
 21 22  2  0  0  0  0
M  END
> <s_m_source_file>
AV-unprocessed.smi

> <i_m_source_file_index>
1679

> <i_lp_mmshare_version>
43012

> <i_f3d_flags>
0

> <s_epik_input>
W0NIM11bQ0BASF0xW0NIMl1bQ0gyXVtDSDJdW0NIMl1bQ0BIXTFPW0NIMl1bQ0gyXVtOSF1DKD1PKVtDSDJdbjJbY0hdW2NIXWMoPU8pW25IXWMyPU8=

> <s_epik_cmdline>
J2VwaWtfcHl0aG9uJywgJy1waCcsICc3LjAnLCAnLXRuJywgJzgnLCAnLW1hJywgJzIwMCcsICctbWV0YWxfYmluZGluZycsICctaW1hZScsICc8aW5maWxlLm1hZT4nLCAnLW9tYWUnLCAnPG91dGZpbGUubWFlPic=

> <r_lp_tautomer_probability>
0.999537

> <r_epik_Ionization_Penalty>
0.0033132

> <r_epik_Ionization_Penalty_Charging>
0.00331317

> <r_epik_Ionization_Penalty_Neutral>
2.78599e-08

> <r_epik_State_Penalty>
0.002342

> <r_epik_Charging_Adjusted_Penalty>
0.00565517

> <i_epik_Tot_Q>
0

> <i_epik_Tot_abs_Q>
0

> <r_epik_Metal_State_Penalty>
0.365595

> <b_epik_Metal_Only>
0

> <s_lp_Force_Field>
OPLS_2005

> <r_lp_Energy>
10.1003

> <b_lp_Chiralities_Consistent>
1

> <s_lp_Variant>
AV-unprocessed.smi:1679-4

> <Gold.Version>
5.8.1

> <Gold.Id.Protein>
6NUR|6NUR_protein|mol2

> <Gold.PLP.Fitness>
48.8646

> <Gold.PLP.PLP>
-42.0717

> <Gold.PLP.part.hbond>
-2.0000

> <Gold.PLP.part.metal>
0.0000

> <Gold.PLP.part.buried>
-5.8776

> <Gold.PLP.part.nonpolar>
-34.6404

> <Gold.PLP.part.repulsive>
0.1258

> <Gold.PLP.ligand.clash>
0.0000

> <Gold.PLP.ligand.torsion>
0.8214

> <Gold.PLP.Chemscore.Hbond>
1.8000

> <Gold.PLP.Chemscore.CHOScore>
1.0000

> <Gold.PLP.Chemscore.Metal>
0.0000

> <Gold.Chemscore.Hbonds>
donor molecule, donor type, donor heavy atom, donor atom, acceptor molecule, acceptor atom, score
      P1  H  6896  6907       L1    22  0.61
      P1  H 10752 10765       L1    13  0.84
      L1  C    16    44       P1  7948  0.98

> <Gold.PLP.Chemscore.Internal.Correction>
0.0358

> <Gold.Rescore>
     Score         DG    S(hbond)    S(metal)    S(lipo)     H(rot)  DE(clash)    DE(int)     intcor
     13.16     -17.46       1.95        0.00     101.91       2.52       0.07       4.24       ----

> <Gold.Chemscore.Fitness>
13.1586

> <Gold.Chemscore.DG>
-17.4641

> <Gold.Chemscore.ZeroCoef>
-5.4800

> <Gold.Chemscore.Hbond>
1.9484

> <Gold.Chemscore.Metal>
0.0000

> <Gold.Chemscore.Lipo>
101.9105

> <Gold.Chemscore.Internal_Hbond>
0.0000

> <Gold.Chemscore.DEClash>
0.0652

> <Gold.Chemscore.DEInternal>
4.2402

> <Gold.Chemscore.Rot>
2.5185

> <Gold.Chemscore.Internal.Correction>
   9.000000E+99

> <Gold.Chemscore.Hbonds>
donor molecule, donor type, donor heavy atom, donor atom, acceptor molecule, acceptor atom, score
      P1  H  6896  6907       L1    22  0.58
      P1  H 10752 10765       L1    13  0.82

> <Gold.Chemscore.Hbond.Weighted>
-6.5078

> <Gold.Chemscore.Metal.Weighted>
-0.0000

> <Gold.Chemscore.Lipo.Weighted>
-11.9235

> <Gold.Chemscore.Internal_Hbond.Weighted>
0.0000

> <Gold.Chemscore.DEClash.Weighted>
0.0652

> <Gold.Chemscore.DEInternal.Weighted>
4.2402

> <Gold.Chemscore.Rot.Weighted>
6.4472

> <Gold.Chemscore.Internal.Correction.Weighted>
   9.000000E+99

> <Gold.Protein.RotatedTorsions>
[ 6907 6896 6895 6894 ] final -126.90 input  -60.11 | X-H torsion
[ 7974 7965 7964 7962 ] final   35.56 input  175.53 | X-H torsion
[ 8008 7997 7996 7995 ] final   69.43 input   59.86 | X-H torsion
[ 10167 10162 10161 10158 ] final  -97.45 input  -65.29 | X-H torsion
[ 10718 10713 10712 10709 ] final -108.34 input   66.30 | X-H torsion
[ 10763 10752 10751 10750 ] final -154.54 input  -60.55 | X-H torsion
[ 11005 11000 10999 10996 ] final -125.57 input  -57.11 | X-H torsion

> <Gold.Protein.ActiveResidues>
 VAL166  LYS551  ARG553  GLY616  TRP617  ASP618  TYR619  PRO620  LYS621  CYS622 
 ASP623  PHE694  ASN695  SER759  ASP760  ASP761  ALA762  ILE779  LEU786  VAL792 
 PHE793  MET794  SER795  GLU796  ALA797  LYS798  CYS799  TRP800  GLU811  SER814 

> <Gold.Protein.RotatedAtoms>
  150.9016  133.7110  159.2877 H   0  0  0  0  0  0  0  0  0  0  0  0  # atno 6907 bound_to 6896
  151.4627  135.1038  159.9739 H   0  0  0  0  0  0  0  0  0  0  0  0  # atno 6908 bound_to 6896
  152.4880  133.8376  159.7191 H   0  0  0  0  0  0  0  0  0  0  0  0  # atno 6909 bound_to 6896
  146.1274  139.6127  142.9249 H   0  0  0  0  0  0  0  0  0  0  0  0  # atno 7974 bound_to 7965
  155.7234  140.3493  155.5026 H   0  0  0  0  0  0  0  0  0  0  0  0  # atno 8008 bound_to 7997
  155.9249  140.1073  157.1200 H   0  0  0  0  0  0  0  0  0  0  0  0  # atno 8009 bound_to 7997
  154.4075  140.1242  156.4714 H   0  0  0  0  0  0  0  0  0  0  0  0  # atno 8010 bound_to 7997
  140.2832  143.3268  152.0420 H   0  0  0  0  0  0  0  0  0  0  0  0  # atno 10167 bound_to 10162
  156.0481  130.5708  150.7948 H   0  0  0  0  0  0  0  0  0  0  0  0  # atno 10718 bound_to 10713
  154.7851  135.3187  154.7904 H   0  0  0  0  0  0  0  0  0  0  0  0  # atno 10763 bound_to 10752
  153.8606  135.6853  153.4787 H   0  0  0  0  0  0  0  0  0  0  0  0  # atno 10764 bound_to 10752
  153.1500  135.4703  154.9561 H   0  0  0  0  0  0  0  0  0  0  0  0  # atno 10765 bound_to 10752
  140.9751  134.0751  157.3827 H   0  0  0  0  0  0  0  0  0  0  0  0  # atno 11005 bound_to 11000
  145.5335  141.0425  143.2370 LP  0  0  0  0  0  0  0  0  0  0  0  0  # atno 17320 bound_to 7965
  144.7656  139.6853  143.7216 LP  0  0  0  0  0  0  0  0  0  0  0  0  # atno 17321 bound_to 7965
  139.4957  144.6577  151.6536 LP  0  0  0  0  0  0  0  0  0  0  0  0  # atno 17342 bound_to 10162
  140.5794  143.9972  150.6260 LP  0  0  0  0  0  0  0  0  0  0  0  0  # atno 17343 bound_to 10162
  157.5378  131.0939  150.9868 LP  0  0  0  0  0  0  0  0  0  0  0  0  # atno 17370 bound_to 10713
  157.0159  130.5655  149.5326 LP  0  0  0  0  0  0  0  0  0  0  0  0  # atno 17371 bound_to 10713
  139.8927  135.0126  156.6861 LP  0  0  0  0  0  0  0  0  0  0  0  0  # atno 17394 bound_to 11000
  140.7271  133.9091  155.8186 LP  0  0  0  0  0  0  0  0  0  0  0  0  # atno 17395 bound_to 11000

$$$$
