AV-unprocessed.smi:1717|AV-procd|sdf|6919|dock7
  -GOLD-   22720 8123D 1   1.00000     0.00000
 Structure written by MMmdl.
 41 42  0  0  0  0  0  0  0  0  2 V2000
  150.4858  138.7990  154.2597 C   0  0  0  0  0  0  0  0  0  0  0  0
  149.3170  139.3908  153.6267 N   0  0  0  0  0  0  0  0  0  0  0  0
  148.3625  140.0619  154.2861 C   0  0  0  0  0  0  0  0  0  0  0  0
  148.3800  140.2373  155.5050 O   0  0  0  0  0  0  0  0  0  0  0  0
  147.2044  140.6014  153.4407 C   0  0  0  0  0  0  0  0  0  0  0  0
  146.3056  139.5301  152.9391 N   0  3  2  0  0  0  0  0  0  0  0  0
  146.0123  138.5054  153.9734 C   0  0  0  0  0  0  0  0  0  0  0  0
  144.9665  137.4914  153.4740 C   0  0  0  0  0  0  0  0  0  0  0  0
  145.3885  136.8276  152.1516 C   0  0  2  0  0  0  0  0  0  0  0  0
  146.4916  135.8937  152.3779 N   0  0  0  0  0  0  0  0  0  0  0  0
  146.4155  134.7637  153.0956 C   0  0  0  0  0  0  0  0  0  0  0  0
  145.3835  134.3735  153.6407 O   0  0  0  0  0  0  0  0  0  0  0  0
  147.5977  134.1282  153.1324 N   0  0  0  0  0  0  0  0  0  0  0  0
  147.8952  132.9089  153.7911 C   0  0  0  0  0  0  0  0  0  0  0  0
  148.7805  131.8625  153.3974 C   0  0  0  0  0  0  0  0  0  0  0  0
  148.7844  130.8785  154.2855 N   0  0  0  0  0  0  0  0  0  0  0  0
  147.9136  131.2837  155.2371 N   0  0  0  0  0  0  0  0  0  0  0  0
  147.3493  132.5125  154.9754 C   0  0  0  0  0  0  0  0  0  0  0  0
  145.7545  137.9137  151.1201 C   0  0  0  0  0  0  0  0  0  0  0  0
  146.7864  138.9103  151.6755 C   0  0  0  0  0  0  0  0  0  0  0  0
  147.7173  130.7162  156.0495 H   0  0  0  0  0  0  0  0  0  0  0  0
  151.1144  138.3214  153.5082 H   0  0  0  0  0  0  0  0  0  0  0  0
  150.1919  138.0428  154.9889 H   0  0  0  0  0  0  0  0  0  0  0  0
  151.0808  139.5596  154.7674 H   0  0  0  0  0  0  0  0  0  0  0  0
  149.2300  139.2811  152.6264 H   0  0  0  0  0  0  0  0  0  0  0  0
  146.6295  141.3406  154.0012 H   0  0  0  0  0  0  0  0  0  0  0  0
  147.6546  141.1281  152.5983 H   0  0  0  0  0  0  0  0  0  0  0  0
  146.9351  137.9952  154.2539 H   0  0  0  0  0  0  0  0  0  0  0  0
  145.6337  138.9903  154.8740 H   0  0  0  0  0  0  0  0  0  0  0  0
  144.7832  136.7336  154.2369 H   0  0  0  0  0  0  0  0  0  0  0  0
  144.0163  138.0067  153.3260 H   0  0  0  0  0  0  0  0  0  0  0  0
  144.5387  136.2556  151.7743 H   0  0  0  0  0  0  0  0  0  0  0  0
  147.3846  136.1358  151.9740 H   0  0  0  0  0  0  0  0  0  0  0  0
  148.3649  134.5590  152.6377 H   0  0  0  0  0  0  0  0  0  0  0  0
  149.4074  131.7763  152.5223 H   0  0  0  0  0  0  0  0  0  0  0  0
  146.6327  132.9799  155.6348 H   0  0  0  0  0  0  0  0  0  0  0  0
  146.1272  137.4628  150.1997 H   0  0  0  0  0  0  0  0  0  0  0  0
  144.8516  138.4585  150.8409 H   0  0  0  0  0  0  0  0  0  0  0  0
  146.9736  139.6804  150.9267 H   0  0  0  0  0  0  0  0  0  0  0  0
  147.7391  138.4086  151.8521 H   0  0  0  0  0  0  0  0  0  0  0  0
  145.4260  139.9811  152.7291 H   0  0  0  0  0  0  0  0  0  0  0  0
  1  2  1  0  0  0  0
  1 22  1  0  0  0  0
  1 23  1  0  0  0  0
  1 24  1  0  0  0  0
  2  3  1  0  0  0  0
  2 25  1  0  0  0  0
  3  4  2  0  0  0  0
  3  5  1  0  0  0  0
  5  6  1  0  0  0  0
  5 26  1  0  0  0  0
  5 27  1  0  0  0  0
  6 20  1  0  0  0  0
  6  7  1  0  0  0  0
  6 41  1  0  0  0  0
  7  8  1  0  0  0  0
  7 28  1  0  0  0  0
  7 29  1  0  0  0  0
  8  9  1  0  0  0  0
  8 30  1  0  0  0  0
  8 31  1  0  0  0  0
  9 10  1  0  0  0  0
  9 19  1  0  0  0  0
  9 32  1  0  0  0  0
 10 11  1  0  0  0  0
 10 33  1  0  0  0  0
 11 12  2  0  0  0  0
 11 13  1  0  0  0  0
 13 14  1  0  0  0  0
 13 34  1  0  0  0  0
 14 18  2  0  0  0  0
 14 15  1  0  0  0  0
 15 16  2  0  0  0  0
 15 35  1  0  0  0  0
 16 17  1  0  0  0  0
 17 21  1  0  0  0  0
 17 18  1  0  0  0  0
 18 36  1  0  0  0  0
 19 20  1  0  0  0  0
 19 37  1  0  0  0  0
 19 38  1  0  0  0  0
 20 39  1  0  0  0  0
 20 40  1  0  0  0  0
M  CHG  1   6   1
M  END
> <s_m_source_file>
AV-unprocessed.smi

> <i_m_source_file_index>
1717

> <i_lp_mmshare_version>
43012

> <i_f3d_flags>
0

> <s_epik_input>
W0NIM11bTkhdQyg9TylbQ0gyXU4xW0NIMl1bQ0gyXVtDSF0oW0NIMl1bQ0gyXTEpW05IXUMoPU8pW05IXWMyW2NIXW5bbkhdW2NIXTI=

> <s_epik_cmdline>
J2VwaWtfcHl0aG9uJywgJy1waCcsICc3LjAnLCAnLXRuJywgJzgnLCAnLW1hJywgJzIwMCcsICctbWV0YWxfYmluZGluZycsICctaW1hZScsICc8aW5maWxlLm1hZT4nLCAnLW9tYWUnLCAnPG91dGZpbGUubWFlPic=

> <r_lp_tautomer_probability>
0.5

> <r_epik_Ionization_Penalty>
0.838906

> <r_epik_Ionization_Penalty_Charging>
0.838844

> <r_epik_Ionization_Penalty_Neutral>
6.24243e-05

> <r_epik_State_Penalty>
0.8734

> <r_epik_Charging_Adjusted_Penalty>
1.71224

> <i_epik_Tot_Q>
1

> <i_epik_Tot_abs_Q>
1

> <r_epik_Metal_State_Penalty>
0.877921

> <b_epik_Metal_Only>
0

> <s_lp_Force_Field>
OPLS_2005

> <r_lp_Energy>
16.7427

> <b_lp_Chiralities_Consistent>
1

> <s_lp_Variant>
AV-unprocessed.smi:1717-3

> <Gold.Version>
5.8.1

> <Gold.Id.Protein>
6NUR|6NUR_protein|mol2

> <Gold.PLP.Fitness>
41.7439

> <Gold.PLP.PLP>
-25.6459

> <Gold.PLP.part.hbond>
-3.9094

> <Gold.PLP.part.metal>
0.0000

> <Gold.PLP.part.buried>
1.8852

> <Gold.PLP.part.nonpolar>
-25.2932

> <Gold.PLP.part.repulsive>
0.3298

> <Gold.PLP.ligand.clash>
0.0000

> <Gold.PLP.ligand.torsion>
0.6287

> <Gold.PLP.Chemscore.Hbond>
4.7760

> <Gold.PLP.Chemscore.CHOScore>
1.0000

> <Gold.PLP.Chemscore.Metal>
0.0000

> <Gold.Chemscore.Hbonds>
donor molecule, donor type, donor heavy atom, donor atom, acceptor molecule, acceptor atom, score
      L1  H     2    25       P1  7957  0.86
      L1  H     6    41       P1 10175  2.00
      L1  H    10    33       P1  7948  1.00
      L1  H    13    34       P1  7948  0.85
      L1  C    15    35       P1 10747  1.00

> <Gold.PLP.Chemscore.Internal.Correction>
0.0274

> <Gold.Rescore>
     Score         DG    S(hbond)    S(metal)    S(lipo)     H(rot)  DE(clash)    DE(int)     intcor
     15.75     -19.35       3.48        0.00      58.73       1.81       1.97       1.63       ----

> <Gold.Chemscore.Fitness>
15.7490

> <Gold.Chemscore.DG>
-19.3507

> <Gold.Chemscore.ZeroCoef>
-5.4800

> <Gold.Chemscore.Hbond>
3.4826

> <Gold.Chemscore.Metal>
0.0000

> <Gold.Chemscore.Lipo>
58.7308

> <Gold.Chemscore.Internal_Hbond>
0.0000

> <Gold.Chemscore.DEClash>
1.9683

> <Gold.Chemscore.DEInternal>
1.6335

> <Gold.Chemscore.Rot>
1.8096

> <Gold.Chemscore.Internal.Correction>
   9.000000E+99

> <Gold.Chemscore.Hbonds>
donor molecule, donor type, donor heavy atom, donor atom, acceptor molecule, acceptor atom, score
      L1  H     2    25       P1  7957  0.85
      L1  H     6    41       P1 10175  0.99
      L1  H    10    33       P1  7948  0.95
      L1  H    13    34       P1  7948  0.19

> <Gold.Chemscore.Hbond.Weighted>
-11.6317

> <Gold.Chemscore.Metal.Weighted>
-0.0000

> <Gold.Chemscore.Lipo.Weighted>
-6.8715

> <Gold.Chemscore.Internal_Hbond.Weighted>
0.0000

> <Gold.Chemscore.DEClash.Weighted>
1.9683

> <Gold.Chemscore.DEInternal.Weighted>
1.6335

> <Gold.Chemscore.Rot.Weighted>
4.6325

> <Gold.Chemscore.Internal.Correction.Weighted>
   9.000000E+99

> <Gold.Protein.RotatedTorsions>
[ 6907 6896 6895 6894 ] final   72.85 input  -60.11 | X-H torsion
[ 7974 7965 7964 7962 ] final  -51.60 input  175.53 | X-H torsion
[ 8008 7997 7996 7995 ] final  -27.74 input   59.86 | X-H torsion
[ 10167 10162 10161 10158 ] final  -43.65 input  -65.29 | X-H torsion
[ 10718 10713 10712 10709 ] final   81.94 input   66.30 | X-H torsion
[ 10763 10752 10751 10750 ] final -106.13 input  -60.55 | X-H torsion
[ 11005 11000 10999 10996 ] final  -69.29 input  -57.11 | X-H torsion

> <Gold.Protein.ActiveResidues>
 VAL166  LYS551  ARG553  GLY616  TRP617  ASP618  TYR619  PRO620  LYS621  CYS622 
 ASP623  PHE694  ASN695  SER759  ASP760  ASP761  ALA762  ILE779  LEU786  VAL792 
 PHE793  MET794  SER795  GLU796  ALA797  LYS798  CYS799  TRP800  GLU811  SER814 

> <Gold.Protein.RotatedAtoms>
  152.4891  134.4510  159.9574 H   0  0  0  0  0  0  0  0  0  0  0  0  # atno 6907 bound_to 6896
  151.4501  133.3614  159.2802 H   0  0  0  0  0  0  0  0  0  0  0  0  # atno 6908 bound_to 6896
  150.9028  134.8465  159.7432 H   0  0  0  0  0  0  0  0  0  0  0  0  # atno 6909 bound_to 6896
  145.9172  140.7864  142.9665 H   0  0  0  0  0  0  0  0  0  0  0  0  # atno 7974 bound_to 7965
  154.4363  140.1864  156.0980 H   0  0  0  0  0  0  0  0  0  0  0  0  # atno 8008 bound_to 7997
  156.0314  140.3330  155.7118 H   0  0  0  0  0  0  0  0  0  0  0  0  # atno 8009 bound_to 7997
  155.5833  140.0624  157.2768 H   0  0  0  0  0  0  0  0  0  0  0  0  # atno 8010 bound_to 7997
  140.6926  143.2972  151.3382 H   0  0  0  0  0  0  0  0  0  0  0  0  # atno 10167 bound_to 10162
  157.6845  131.0026  150.2301 H   0  0  0  0  0  0  0  0  0  0  0  0  # atno 10718 bound_to 10713
  154.7992  135.4723  154.0234 H   0  0  0  0  0  0  0  0  0  0  0  0  # atno 10763 bound_to 10752
  153.1753  135.6832  153.8558 H   0  0  0  0  0  0  0  0  0  0  0  0  # atno 10764 bound_to 10752
  153.8127  135.3215  155.3380 H   0  0  0  0  0  0  0  0  0  0  0  0  # atno 10765 bound_to 10752
  141.1551  133.6761  156.6577 H   0  0  0  0  0  0  0  0  0  0  0  0  # atno 11005 bound_to 11000
  144.6749  140.1919  143.7396 LP  0  0  0  0  0  0  0  0  0  0  0  0  # atno 17320 bound_to 7965
  145.8596  139.2216  143.1724 LP  0  0  0  0  0  0  0  0  0  0  0  0  # atno 17321 bound_to 7965
  139.6345  144.0657  152.2504 LP  0  0  0  0  0  0  0  0  0  0  0  0  # atno 17342 bound_to 10162
  140.0142  144.6201  150.7621 LP  0  0  0  0  0  0  0  0  0  0  0  0  # atno 17343 bound_to 10162
  156.2935  130.3749  149.7818 LP  0  0  0  0  0  0  0  0  0  0  0  0  # atno 17370 bound_to 10713
  156.5470  130.8325  151.3287 LP  0  0  0  0  0  0  0  0  0  0  0  0  # atno 17371 bound_to 10713
  140.3271  134.7959  157.4298 LP  0  0  0  0  0  0  0  0  0  0  0  0  # atno 17394 bound_to 11000
  140.1047  134.5425  155.8320 LP  0  0  0  0  0  0  0  0  0  0  0  0  # atno 17395 bound_to 11000

$$$$
