AV-unprocessed.smi:605|AV-procd|sdf|3040|dock4
  -GOLD-   2262023563D 1   1.00000     0.00000
 Structure written by MMmdl.
 34 35  0  0  0  0  0  0  0  0  2 V2000
  154.3837  135.2718  162.2649 C   0  0  0  0  0  0  0  0  0  0  0  0
  154.6792  136.4517  163.2022 C   0  0  0  0  0  0  0  0  0  0  0  0
  153.5471  136.7251  164.2031 C   0  0  0  0  0  0  0  0  0  0  0  0
  155.0749  137.6840  162.4505 C   0  0  0  0  0  0  0  0  0  0  0  0
  156.2552  138.2904  162.6113 N   0  0  0  0  0  0  0  0  0  0  0  0
  156.3860  139.4076  161.8003 N   0  0  0  0  0  0  0  0  0  0  0  0
  155.3115  139.6265  161.0297 C   0  0  0  0  0  0  0  0  0  0  0  0
  155.2400  140.6533  160.1625 N   0  5  0  0  0  0  0  0  0  0  0  0
  154.0592  141.1175  159.6745 C   0  0  0  0  0  0  0  0  0  0  0  0
  153.4564  140.5824  158.7449 O   0  0  0  0  0  0  0  0  0  0  0  0
  153.5313  142.2178  160.2457 N   0  0  0  0  0  0  0  0  0  0  0  0
  152.2827  142.8744  159.8670 C   0  0  0  0  0  0  0  0  0  0  0  0
  152.4506  143.6310  158.5349 C   0  0  0  0  0  0  0  0  0  0  0  0
  151.8959  145.0371  158.7708 C   0  0  0  0  0  0  0  0  0  0  0  0
  152.1213  145.2882  160.2581 C   0  0  0  0  0  0  0  0  0  0  0  0
  151.8622  143.9297  160.9091 C   0  0  0  0  0  0  0  0  0  0  0  0
  154.0190  138.4536  161.2768 S   0  0  0  0  0  0  0  0  0  0  0  0
  155.2405  135.0543  161.6263 H   0  0  0  0  0  0  0  0  0  0  0  0
  153.5316  135.4833  161.6185 H   0  0  0  0  0  0  0  0  0  0  0  0
  154.1554  134.3678  162.8301 H   0  0  0  0  0  0  0  0  0  0  0  0
  155.5478  136.1618  163.7946 H   0  0  0  0  0  0  0  0  0  0  0  0
  153.8261  137.5121  164.9047 H   0  0  0  0  0  0  0  0  0  0  0  0
  153.3118  135.8328  164.7836 H   0  0  0  0  0  0  0  0  0  0  0  0
  152.6356  137.0402  163.6944 H   0  0  0  0  0  0  0  0  0  0  0  0
  154.0425  142.6298  161.0124 H   0  0  0  0  0  0  0  0  0  0  0  0
  151.4932  142.1280  159.7631 H   0  0  0  0  0  0  0  0  0  0  0  0
  153.5053  143.7067  158.2652 H   0  0  0  0  0  0  0  0  0  0  0  0
  151.9450  143.1280  157.7100 H   0  0  0  0  0  0  0  0  0  0  0  0
  152.3733  145.7879  158.1405 H   0  0  0  0  0  0  0  0  0  0  0  0
  150.8268  145.0513  158.5553 H   0  0  0  0  0  0  0  0  0  0  0  0
  153.1573  145.5847  160.4285 H   0  0  0  0  0  0  0  0  0  0  0  0
  151.4782  146.0740  160.6556 H   0  0  0  0  0  0  0  0  0  0  0  0
  150.7955  143.8256  161.1122 H   0  0  0  0  0  0  0  0  0  0  0  0
  152.3796  143.8290  161.8641 H   0  0  0  0  0  0  0  0  0  0  0  0
  1  2  1  0  0  0  0
  1 18  1  0  0  0  0
  1 19  1  0  0  0  0
  1 20  1  0  0  0  0
  2  3  1  0  0  0  0
  2  4  1  0  0  0  0
  2 21  1  0  0  0  0
  3 22  1  0  0  0  0
  3 23  1  0  0  0  0
  3 24  1  0  0  0  0
  4 17  1  0  0  0  0
  4  5  2  0  0  0  0
  5  6  1  0  0  0  0
  6  7  2  0  0  0  0
  7  8  1  0  0  0  0
  7 17  1  0  0  0  0
  8  9  1  0  0  0  0
  9 10  2  0  0  0  0
  9 11  1  0  0  0  0
 11 12  1  0  0  0  0
 11 25  1  0  0  0  0
 12 16  1  0  0  0  0
 12 13  1  0  0  0  0
 12 26  1  0  0  0  0
 13 14  1  0  0  0  0
 13 27  1  0  0  0  0
 13 28  1  0  0  0  0
 14 15  1  0  0  0  0
 14 29  1  0  0  0  0
 14 30  1  0  0  0  0
 15 16  1  0  0  0  0
 15 31  1  0  0  0  0
 15 32  1  0  0  0  0
 16 33  1  0  0  0  0
 16 34  1  0  0  0  0
M  CHG  1   8  -1
M  END
> <s_m_source_file>
AV-unprocessed.smi

> <i_m_source_file_index>
605

> <i_lp_mmshare_version>
43012

> <i_f3d_flags>
0

> <s_epik_input>
W0NIM11bQ0hdKFtDSDNdKWMxbm5jKHMxKVtOSF1DKD1PKVtOSF1bQ0hdMltDSDJdW0NIMl1bQ0gyXVtDSDJdMg==

> <s_epik_cmdline>
J2VwaWtfcHl0aG9uJywgJy1waCcsICc3LjAnLCAnLXRuJywgJzgnLCAnLW1hJywgJzIwMCcsICctbWV0YWxfYmluZGluZycsICctaW1hZScsICc8aW5maWxlLm1hZT4nLCAnLW9tYWUnLCAnPG91dGZpbGUubWFlPic=

> <r_lp_tautomer_probability>
1

> <r_epik_Ionization_Penalty>
4.57432

> <r_epik_Ionization_Penalty_Charging>
4.40687

> <r_epik_Ionization_Penalty_Neutral>
0.167446

> <r_epik_State_Penalty>
4.40652

> <r_epik_Charging_Adjusted_Penalty>
8.8134

> <i_epik_Tot_Q>
-1

> <i_epik_Tot_abs_Q>
1

> <r_epik_Metal_State_Penalty>
0.774635

> <b_epik_Metal_Only>
1

> <s_lp_Force_Field>
OPLS_2005

> <r_lp_Energy>
11.4858

> <b_lp_Chiralities_Consistent>
1

> <s_lp_Variant>
AV-unprocessed.smi:605-2

> <Gold.Version>
5.8.1

> <Gold.Id.Protein>
6NUR|6NUR_protein|mol2

> <Gold.PLP.Fitness>
38.3560

> <Gold.PLP.PLP>
-38.3866

> <Gold.PLP.part.hbond>
-2.1007

> <Gold.PLP.part.metal>
0.0000

> <Gold.PLP.part.buried>
-2.8896

> <Gold.PLP.part.nonpolar>
-33.0144

> <Gold.PLP.part.repulsive>
0.0295

> <Gold.PLP.ligand.clash>
0.0000

> <Gold.PLP.ligand.torsion>
1.0169

> <Gold.PLP.Chemscore.Hbond>
0.6406

> <Gold.PLP.Chemscore.CHOScore>
0.0000

> <Gold.PLP.Chemscore.Metal>
0.0000

> <Gold.Chemscore.Hbonds>
donor molecule, donor type, donor heavy atom, donor atom, acceptor molecule, acceptor atom, score
      P1  H  7997  8009       L1    10  0.57

> <Gold.PLP.Chemscore.Internal.Correction>
0.0813

> <Gold.Rescore>
     Score         DG    S(hbond)    S(metal)    S(lipo)     H(rot)  DE(clash)    DE(int)     intcor
     14.86     -16.49       0.74        0.00      98.74       1.18       0.65       0.98       ----

> <Gold.Chemscore.Fitness>
14.8591

> <Gold.Chemscore.DG>
-16.4860

> <Gold.Chemscore.ZeroCoef>
-5.4800

> <Gold.Chemscore.Hbond>
0.7434

> <Gold.Chemscore.Metal>
0.0000

> <Gold.Chemscore.Lipo>
98.7374

> <Gold.Chemscore.Internal_Hbond>
0.0000

> <Gold.Chemscore.DEClash>
0.6481

> <Gold.Chemscore.DEInternal>
0.9788

> <Gold.Chemscore.Rot>
1.1833

> <Gold.Chemscore.Internal.Correction>
   9.000000E+99

> <Gold.Chemscore.Hbonds>
donor molecule, donor type, donor heavy atom, donor atom, acceptor molecule, acceptor atom, score
      P1  H  7997  8009       L1    10  0.42

> <Gold.Chemscore.Hbond.Weighted>
-2.4830

> <Gold.Chemscore.Metal.Weighted>
-0.0000

> <Gold.Chemscore.Lipo.Weighted>
-11.5523

> <Gold.Chemscore.Internal_Hbond.Weighted>
0.0000

> <Gold.Chemscore.DEClash.Weighted>
0.6481

> <Gold.Chemscore.DEInternal.Weighted>
0.9788

> <Gold.Chemscore.Rot.Weighted>
3.0293

> <Gold.Chemscore.Internal.Correction.Weighted>
   9.000000E+99

> <Gold.Protein.RotatedTorsions>
[ 6907 6896 6895 6894 ] final   41.80 input  -60.11 | X-H torsion
[ 7974 7965 7964 7962 ] final -114.33 input  175.53 | X-H torsion
[ 8008 7997 7996 7995 ] final  137.36 input   59.86 | X-H torsion
[ 10167 10162 10161 10158 ] final -175.35 input  -65.29 | X-H torsion
[ 10718 10713 10712 10709 ] final  121.85 input   66.30 | X-H torsion
[ 10763 10752 10751 10750 ] final -147.61 input  -60.55 | X-H torsion
[ 11005 11000 10999 10996 ] final  -79.78 input  -57.11 | X-H torsion

> <Gold.Protein.ActiveResidues>
 VAL166  LYS551  ARG553  GLY616  TRP617  ASP618  TYR619  PRO620  LYS621  CYS622 
 ASP623  PHE694  ASN695  SER759  ASP760  ASP761  ALA762  ILE779  LEU786  VAL792 
 PHE793  MET794  SER795  GLU796  ALA797  LYS798  CYS799  TRP800  GLU811  SER814 

> <Gold.Protein.RotatedAtoms>
  152.1998  134.8597  160.0508 H   0  0  0  0  0  0  0  0  0  0  0  0  # atno 6907 bound_to 6896
  151.9455  133.3645  159.3989 H   0  0  0  0  0  0  0  0  0  0  0  0  # atno 6908 bound_to 6896
  150.6952  134.4319  159.5296 H   0  0  0  0  0  0  0  0  0  0  0  0  # atno 6909 bound_to 6896
  145.1214  140.8671  143.3812 H   0  0  0  0  0  0  0  0  0  0  0  0  # atno 7974 bound_to 7965
  156.3002  140.2421  156.3897 H   0  0  0  0  0  0  0  0  0  0  0  0  # atno 8008 bound_to 7997
  154.8625  140.0419  157.1694 H   0  0  0  0  0  0  0  0  0  0  0  0  # atno 8009 bound_to 7997
  154.8881  140.2959  155.5390 H   0  0  0  0  0  0  0  0  0  0  0  0  # atno 8010 bound_to 7997
  139.5586  144.1927  152.1200 H   0  0  0  0  0  0  0  0  0  0  0  0  # atno 10167 bound_to 10162
  157.5786  131.1077  150.8230 H   0  0  0  0  0  0  0  0  0  0  0  0  # atno 10718 bound_to 10713
  154.8277  135.3356  154.6845 H   0  0  0  0  0  0  0  0  0  0  0  0  # atno 10763 bound_to 10752
  153.7469  135.6942  153.4959 H   0  0  0  0  0  0  0  0  0  0  0  0  # atno 10764 bound_to 10752
  153.2204  135.4451  155.0433 H   0  0  0  0  0  0  0  0  0  0  0  0  # atno 10765 bound_to 10752
  141.1667  133.7121  156.8174 H   0  0  0  0  0  0  0  0  0  0  0  0  # atno 11005 bound_to 11000
  145.0736  139.3012  143.5819 LP  0  0  0  0  0  0  0  0  0  0  0  0  # atno 17320 bound_to 7965
  146.3520  140.0219  142.8658 LP  0  0  0  0  0  0  0  0  0  0  0  0  # atno 17321 bound_to 7965
  140.1436  144.5179  150.6729 LP  0  0  0  0  0  0  0  0  0  0  0  0  # atno 17342 bound_to 10162
  140.6862  143.2351  151.5253 LP  0  0  0  0  0  0  0  0  0  0  0  0  # atno 17343 bound_to 10162
  156.8682  130.5137  149.5298 LP  0  0  0  0  0  0  0  0  0  0  0  0  # atno 17370 bound_to 10713
  156.0832  130.5837  150.9600 LP  0  0  0  0  0  0  0  0  0  0  0  0  # atno 17371 bound_to 10713
  140.2143  134.8804  157.3309 LP  0  0  0  0  0  0  0  0  0  0  0  0  # atno 17394 bound_to 11000
  140.2053  134.4204  155.7641 LP  0  0  0  0  0  0  0  0  0  0  0  0  # atno 17395 bound_to 11000

$$$$
