AV-unprocessed.smi:2908|AV-procd|sdf|11169|dock1
  -GOLD-   2272016 63D 1   1.00000     0.00000
 Structure written by MMmdl.
 44 45  0  0  0  0  0  0  0  0  2 V2000
  151.5959  136.0229  155.3853 O   0  0  0  0  0  0  0  0  0  0  0  0
  150.9595  136.4432  154.4175 C   0  0  0  0  0  0  0  0  0  0  0  0
  150.0663  135.6795  153.7637 N   0  0  0  0  0  0  0  0  0  0  0  0
  149.7107  134.3019  154.0967 C   0  0  0  0  0  0  0  0  0  0  0  0
  148.1862  134.0829  154.1620 C   0  0  0  0  0  0  0  0  0  0  0  0
  147.6701  133.0694  153.1560 C   0  0  0  0  0  0  0  0  0  0  0  0
  147.0792  131.8492  153.5515 C   0  0  0  0  0  0  0  0  0  0  0  0
  146.5959  130.9663  152.5638 C   0  0  0  0  0  0  0  0  0  0  0  0
  146.7154  131.3196  151.2037 C   0  0  0  0  0  0  0  0  0  0  0  0
  147.3171  132.5486  150.8652 C   0  0  0  0  0  0  0  0  0  0  0  0
  147.7682  133.3675  151.8403 N   0  3  0  0  0  0  0  0  0  0  0  0
  151.1437  137.6783  153.8877 N   0  0  0  0  0  0  0  0  0  0  0  0
  150.2049  138.3983  153.0142 C   0  0  0  0  0  0  0  0  0  0  0  0
  149.5028  139.4893  153.8409 C   0  0  0  0  0  0  0  0  0  0  0  0
  150.5154  140.4687  154.4898 C   0  0  0  0  0  0  0  0  0  0  0  0
  149.7975  141.5062  155.3957 C   0  0  2  0  0  0  0  0  0  0  0  0
  148.7256  142.0740  154.6651 O   0  0  0  0  0  0  0  0  0  0  0  0
  150.6751  142.6720  155.9086 C   0  0  0  0  0  0  0  0  0  0  0  0
  149.9124  143.5635  156.5433 F   0  0  0  0  0  0  0  0  0  0  0  0
  151.5749  142.2329  156.7878 F   0  0  0  0  0  0  0  0  0  0  0  0
  151.3099  143.2731  154.9018 F   0  0  0  0  0  0  0  0  0  0  0  0
  151.6223  139.6728  155.2250 C   0  0  0  0  0  0  0  0  0  0  0  0
  152.2204  138.5649  154.3387 C   0  0  0  0  0  0  0  0  0  0  0  0
  149.5943  136.0896  152.9707 H   0  0  0  0  0  0  0  0  0  0  0  0
  150.1624  133.6068  153.3870 H   0  0  0  0  0  0  0  0  0  0  0  0
  150.1506  134.0693  155.0667 H   0  0  0  0  0  0  0  0  0  0  0  0
  147.9080  133.7533  155.1636 H   0  0  0  0  0  0  0  0  0  0  0  0
  147.6731  135.0324  154.0042 H   0  0  0  0  0  0  0  0  0  0  0  0
  146.9873  131.5961  154.5976 H   0  0  0  0  0  0  0  0  0  0  0  0
  146.1361  130.0305  152.8460 H   0  0  0  0  0  0  0  0  0  0  0  0
  146.3490  130.6586  150.4319 H   0  0  0  0  0  0  0  0  0  0  0  0
  147.4466  132.9006  149.8523 H   0  0  0  0  0  0  0  0  0  0  0  0
  150.7560  138.8535  152.1902 H   0  0  0  0  0  0  0  0  0  0  0  0
  149.4595  137.7584  152.5426 H   0  0  0  0  0  0  0  0  0  0  0  0
  148.8098  140.0309  153.1968 H   0  0  0  0  0  0  0  0  0  0  0  0
  148.8966  139.0185  154.6160 H   0  0  0  0  0  0  0  0  0  0  0  0
  151.0021  141.0136  153.6793 H   0  0  0  0  0  0  0  0  0  0  0  0
  149.3652  140.9938  156.2562 H   0  0  0  0  0  0  0  0  0  0  0  0
  149.0840  142.6653  154.0208 H   0  0  0  0  0  0  0  0  0  0  0  0
  152.4292  140.3384  155.5288 H   0  0  0  0  0  0  0  0  0  0  0  0
  151.2183  139.2307  156.1369 H   0  0  0  0  0  0  0  0  0  0  0  0
  153.0024  138.0325  154.8820 H   0  0  0  0  0  0  0  0  0  0  0  0
  152.7149  139.0052  153.4715 H   0  0  0  0  0  0  0  0  0  0  0  0
  148.1925  134.2559  151.5721 H   0  0  0  0  0  0  0  0  0  0  0  0
  1  2  2  0  0  0  0
  2  3  1  0  0  0  0
  2 12  1  0  0  0  0
  3  4  1  0  0  0  0
  3 24  1  0  0  0  0
  4  5  1  0  0  0  0
  4 25  1  0  0  0  0
  4 26  1  0  0  0  0
  5  6  1  0  0  0  0
  5 27  1  0  0  0  0
  5 28  1  0  0  0  0
  6 11  1  0  0  0  0
  6  7  2  0  0  0  0
  7  8  1  0  0  0  0
  7 29  1  0  0  0  0
  8  9  2  0  0  0  0
  8 30  1  0  0  0  0
  9 10  1  0  0  0  0
  9 31  1  0  0  0  0
 10 11  2  0  0  0  0
 10 32  1  0  0  0  0
 11 44  1  0  0  0  0
 12 23  1  0  0  0  0
 12 13  1  0  0  0  0
 13 14  1  0  0  0  0
 13 33  1  0  0  0  0
 13 34  1  0  0  0  0
 14 15  1  0  0  0  0
 14 35  1  0  0  0  0
 14 36  1  0  0  0  0
 15 16  1  0  0  0  0
 15 22  1  0  0  0  0
 15 37  1  0  0  0  0
 16 17  1  0  0  0  0
 16 18  1  0  0  0  0
 16 38  1  0  0  0  0
 17 39  1  0  0  0  0
 18 19  1  0  0  0  0
 18 20  1  0  0  0  0
 18 21  1  0  0  0  0
 22 23  1  0  0  0  0
 22 40  1  0  0  0  0
 22 41  1  0  0  0  0
 23 42  1  0  0  0  0
 23 43  1  0  0  0  0
M  CHG  1  11   1
M  END
> <s_m_source_file>
AV-unprocessed.smi

> <i_m_source_file_index>
2908

> <i_lp_mmshare_version>
43012

> <i_f3d_flags>
0

> <s_epik_input>
RkMoRikoRilbQ0BASF0oW09IXSlbQ0hdKFtDSDJdW0NIMl0xKVtDSDJdW0NIMl1OMUMoPU8pW05IXVtDSDJdW0NIMl1jMltjSF1bY0hdW2NIXVtjSF1uMg==

> <s_epik_cmdline>
J2VwaWtfcHl0aG9uJywgJy1waCcsICc3LjAnLCAnLXRuJywgJzgnLCAnLW1hJywgJzIwMCcsICctbWV0YWxfYmluZGluZycsICctaW1hZScsICc8aW5maWxlLm1hZT4nLCAnLW9tYWUnLCAnPG91dGZpbGUubWFlPic=

> <r_epik_Ionization_Penalty>
1.55054

> <r_epik_Ionization_Penalty_Charging>
1.55036

> <r_epik_Ionization_Penalty_Neutral>
0.00017404

> <r_epik_State_Penalty>
1.64453

> <r_epik_Charging_Adjusted_Penalty>
3.19489

> <i_epik_Tot_Q>
1

> <i_epik_Tot_abs_Q>
1

> <r_epik_Metal_State_Penalty>
1.68672

> <b_epik_Metal_Only>
0

> <s_lp_Force_Field>
OPLS_2005

> <r_lp_Energy>
42.7125

> <b_lp_Chiralities_Consistent>
1

> <s_lp_Variant>
AV-unprocessed.smi:2908-3

> <Gold.Version>
5.8.1

> <Gold.Id.Protein>
6NUR|6NUR_protein|mol2

> <Gold.PLP.Fitness>
51.9057

> <Gold.PLP.PLP>
-39.4097

> <Gold.PLP.part.hbond>
-4.7290

> <Gold.PLP.part.metal>
0.0000

> <Gold.PLP.part.buried>
-2.1018

> <Gold.PLP.part.nonpolar>
-32.8569

> <Gold.PLP.part.repulsive>
0.1124

> <Gold.PLP.ligand.clash>
0.0059

> <Gold.PLP.ligand.torsion>
0.7413

> <Gold.PLP.Chemscore.Hbond>
4.4518

> <Gold.PLP.Chemscore.CHOScore>
0.0000

> <Gold.PLP.Chemscore.Metal>
0.0000

> <Gold.Chemscore.Hbonds>
donor molecule, donor type, donor heavy atom, donor atom, acceptor molecule, acceptor atom, score
      L1  H     3    24       P1  7948  0.19
      L1  H    11    44       P1  7948  0.37
      P1  H 10752 10763       L1     1  0.95

> <Gold.PLP.Chemscore.Internal.Correction>
0.6292

> <Gold.Rescore>
     Score         DG    S(hbond)    S(metal)    S(lipo)     H(rot)  DE(clash)    DE(int)     intcor
     16.46     -19.13       3.02        0.00      83.18       2.40       0.80       1.88       ----

> <Gold.Chemscore.Fitness>
16.4572

> <Gold.Chemscore.DG>
-19.1341

> <Gold.Chemscore.ZeroCoef>
-5.4800

> <Gold.Chemscore.Hbond>
3.0160

> <Gold.Chemscore.Metal>
0.0000

> <Gold.Chemscore.Lipo>
83.1757

> <Gold.Chemscore.Internal_Hbond>
0.0000

> <Gold.Chemscore.DEClash>
0.7982

> <Gold.Chemscore.DEInternal>
1.8787

> <Gold.Chemscore.Rot>
2.4026

> <Gold.Chemscore.Internal.Correction>
   9.000000E+99

> <Gold.Chemscore.Hbonds>
donor molecule, donor type, donor heavy atom, donor atom, acceptor molecule, acceptor atom, score
      L1  H     3    24       P1  7948  0.02
      P1  H 10752 10763       L1     1  0.21

> <Gold.Chemscore.Hbond.Weighted>
-10.0733

> <Gold.Chemscore.Metal.Weighted>
-0.0000

> <Gold.Chemscore.Lipo.Weighted>
-9.7316

> <Gold.Chemscore.Internal_Hbond.Weighted>
0.0000

> <Gold.Chemscore.DEClash.Weighted>
0.7982

> <Gold.Chemscore.DEInternal.Weighted>
1.8787

> <Gold.Chemscore.Rot.Weighted>
6.1508

> <Gold.Chemscore.Internal.Correction.Weighted>
   9.000000E+99

> <Gold.Protein.RotatedTorsions>
[ 6907 6896 6895 6894 ] final  124.64 input  -60.11 | X-H torsion
[ 7974 7965 7964 7962 ] final  117.03 input  175.53 | X-H torsion
[ 8008 7997 7996 7995 ] final  121.24 input   59.86 | X-H torsion
[ 10167 10162 10161 10158 ] final -121.22 input  -65.29 | X-H torsion
[ 10718 10713 10712 10709 ] final -164.00 input   66.30 | X-H torsion
[ 10763 10752 10751 10750 ] final   61.64 input  -60.55 | X-H torsion
[ 11005 11000 10999 10996 ] final -146.82 input  -57.11 | X-H torsion

> <Gold.Protein.ActiveResidues>
 VAL166  LYS551  ARG553  GLY616  TRP617  ASP618  TYR619  PRO620  LYS621  CYS622 
 ASP623  PHE694  ASN695  SER759  ASP760  ASP761  ALA762  ILE779  LEU786  VAL792 
 PHE793  MET794  SER795  GLU796  ALA797  LYS798  CYS799  TRP800  GLU811  SER814 

> <Gold.Protein.RotatedAtoms>
  152.4060  133.6890  159.6356 H   0  0  0  0  0  0  0  0  0  0  0  0  # atno 6907 bound_to 6896
  150.7945  133.8708  159.3267 H   0  0  0  0  0  0  0  0  0  0  0  0  # atno 6908 bound_to 6896
  151.6462  135.1009  160.0203 H   0  0  0  0  0  0  0  0  0  0  0  0  # atno 6909 bound_to 6896
  145.1723  139.3094  143.4461 H   0  0  0  0  0  0  0  0  0  0  0  0  # atno 7974 bound_to 7965
  156.2678  140.2813  156.1277 H   0  0  0  0  0  0  0  0  0  0  0  0  # atno 8008 bound_to 7997
  155.1088  140.0390  157.2735 H   0  0  0  0  0  0  0  0  0  0  0  0  # atno 8009 bound_to 7997
  154.6759  140.2598  155.6965 H   0  0  0  0  0  0  0  0  0  0  0  0  # atno 8010 bound_to 7997
  140.0274  143.5283  152.2192 H   0  0  0  0  0  0  0  0  0  0  0  0  # atno 10167 bound_to 10162
  156.6328  130.8936  151.2981 H   0  0  0  0  0  0  0  0  0  0  0  0  # atno 10718 bound_to 10713
  152.9957  135.5493  154.6066 H   0  0  0  0  0  0  0  0  0  0  0  0  # atno 10763 bound_to 10752
  154.5396  135.2819  155.1110 H   0  0  0  0  0  0  0  0  0  0  0  0  # atno 10764 bound_to 10752
  154.2392  135.6419  153.5254 H   0  0  0  0  0  0  0  0  0  0  0  0  # atno 10765 bound_to 10752
  140.7780  134.3112  157.5054 H   0  0  0  0  0  0  0  0  0  0  0  0  # atno 11005 bound_to 11000
  146.3466  140.1873  142.8589 LP  0  0  0  0  0  0  0  0  0  0  0  0  # atno 17320 bound_to 7965
  145.0220  140.8801  143.5161 LP  0  0  0  0  0  0  0  0  0  0  0  0  # atno 17321 bound_to 7965
  139.6099  144.7606  151.2976 LP  0  0  0  0  0  0  0  0  0  0  0  0  # atno 17342 bound_to 10162
  140.7317  143.6845  150.7973 LP  0  0  0  0  0  0  0  0  0  0  0  0  # atno 17343 bound_to 10162
  157.7195  130.9540  150.1382 LP  0  0  0  0  0  0  0  0  0  0  0  0  # atno 17370 bound_to 10713
  156.2221  130.3675  149.8543 LP  0  0  0  0  0  0  0  0  0  0  0  0  # atno 17371 bound_to 10713
  139.8746  134.9301  156.3494 LP  0  0  0  0  0  0  0  0  0  0  0  0  # atno 17394 bound_to 11000
  140.9510  133.7451  156.0271 LP  0  0  0  0  0  0  0  0  0  0  0  0  # atno 17395 bound_to 11000

$$$$
