AV-unprocessed.smi:215|AV-procd|sdf|1652|dock9
  -GOLD-   2262020 43D 1   1.00000     0.00000
 Structure written by MMmdl.
 59 62  0  0  0  0  0  0  0  0  2 V2000
  146.1946  140.6322  156.8955 C   0  0  0  0  0  0  0  0  0  0  0  0
  147.2558  140.3763  155.8023 C   0  0  2  0  0  0  0  0  0  0  0  0
  147.9931  141.6533  155.3237 C   0  0  1  0  0  0  0  0  0  0  0  0
  149.2359  142.0070  156.0771 N   0  3  2  0  0  0  0  0  0  0  0  0
  150.4496  141.2563  155.6737 C   0  0  0  0  0  0  0  0  0  0  0  0
  149.0457  141.9745  157.5533 C   0  0  0  0  0  0  0  0  0  0  0  0
  150.2794  142.5047  158.3020 C   0  0  0  0  0  0  0  0  0  0  0  0
  150.4236  143.8911  158.0760 O   0  0  0  0  0  0  0  0  0  0  0  0
  148.3103  141.3091  153.8600 C   0  0  0  0  0  0  0  0  0  0  0  0
  147.1341  140.4558  153.4014 C   0  0  0  0  0  0  0  0  0  0  0  0
  146.6122  139.8312  154.6057 N   0  0  0  0  0  0  0  0  0  0  0  0
  146.1932  138.5395  154.5323 C   0  0  0  0  0  0  0  0  0  0  0  0
  146.0231  137.8246  155.6760 N   0  0  0  0  0  0  0  0  0  0  0  0
  145.6136  136.5540  155.6277 C   0  0  0  0  0  0  0  0  0  0  0  0
  145.3206  135.8133  154.5583 N   0  0  0  0  0  0  0  0  0  0  0  0
  145.4833  136.5225  153.4049 C   0  0  0  0  0  0  0  0  0  0  0  0
  145.9096  137.8775  153.3020 C   0  0  0  0  0  0  0  0  0  0  0  0
  145.9356  138.2600  151.9659 N   0  0  0  0  0  0  0  0  0  0  0  0
  145.5490  137.1947  151.3185 C   0  0  0  0  0  0  0  0  0  0  0  0
  145.2715  136.0980  152.1040 N   0  0  0  0  0  0  0  0  0  0  0  0
  144.8040  134.8118  151.6691 C   0  0  0  0  0  0  0  0  0  0  0  0
  145.6101  133.5286  151.8921 C   0  0  0  0  0  0  0  0  0  0  0  0
  145.0422  132.9597  150.5703 C   0  0  0  0  0  0  0  0  0  0  0  0
  146.0620  132.1852  149.7168 C   0  0  0  0  0  0  0  0  0  0  0  0
  146.4813  130.9937  150.3495 O   0  0  0  0  0  0  0  0  0  0  0  0
  143.7754  132.0969  150.7553 C   0  0  0  0  0  0  0  0  0  0  0  0
  142.9333  132.1314  149.6216 O   0  0  0  0  0  0  0  0  0  0  0  0
  144.8161  134.4414  150.1874 C   0  0  0  0  0  0  0  0  0  0  0  0
  147.9937  139.6548  156.1560 H   0  0  0  0  0  0  0  0  0  0  0  0
  147.2988  142.4956  155.3502 H   0  0  0  0  0  0  0  0  0  0  0  0
  146.6182  141.0301  157.8143 H   0  0  0  0  0  0  0  0  0  0  0  0
  145.6736  139.7142  157.1669 H   0  0  0  0  0  0  0  0  0  0  0  0
  145.4412  141.3411  156.5505 H   0  0  0  0  0  0  0  0  0  0  0  0
  150.3023  140.1822  155.7925 H   0  0  0  0  0  0  0  0  0  0  0  0
  151.3094  141.5407  156.2794 H   0  0  0  0  0  0  0  0  0  0  0  0
  150.7212  141.4664  154.6397 H   0  0  0  0  0  0  0  0  0  0  0  0
  148.1811  142.5616  157.8610 H   0  0  0  0  0  0  0  0  0  0  0  0
  148.8260  140.9528  157.8670 H   0  0  0  0  0  0  0  0  0  0  0  0
  150.1630  142.3439  159.3741 H   0  0  0  0  0  0  0  0  0  0  0  0
  151.1915  141.9893  158.0020 H   0  0  0  0  0  0  0  0  0  0  0  0
  150.0246  144.1068  157.2466 H   0  0  0  0  0  0  0  0  0  0  0  0
  148.4460  142.1832  153.2231 H   0  0  0  0  0  0  0  0  0  0  0  0
  149.2238  140.7146  153.8073 H   0  0  0  0  0  0  0  0  0  0  0  0
  146.3527  141.0789  152.9651 H   0  0  0  0  0  0  0  0  0  0  0  0
  147.4490  139.7288  152.6514 H   0  0  0  0  0  0  0  0  0  0  0  0
  145.5069  136.0596  156.5820 H   0  0  0  0  0  0  0  0  0  0  0  0
  145.4516  137.1868  150.2430 H   0  0  0  0  0  0  0  0  0  0  0  0
  143.8005  134.6911  152.0810 H   0  0  0  0  0  0  0  0  0  0  0  0
  146.6890  133.6866  151.8586 H   0  0  0  0  0  0  0  0  0  0  0  0
  145.3303  132.9724  152.7874 H   0  0  0  0  0  0  0  0  0  0  0  0
  145.6310  131.9061  148.7550 H   0  0  0  0  0  0  0  0  0  0  0  0
  146.9384  132.7945  149.4941 H   0  0  0  0  0  0  0  0  0  0  0  0
  147.4052  130.8767  150.1902 H   0  0  0  0  0  0  0  0  0  0  0  0
  144.0342  131.0589  150.9663 H   0  0  0  0  0  0  0  0  0  0  0  0
  143.1872  132.4378  151.6074 H   0  0  0  0  0  0  0  0  0  0  0  0
  142.3783  131.3669  149.6354 H   0  0  0  0  0  0  0  0  0  0  0  0
  143.8823  134.6487  149.6640 H   0  0  0  0  0  0  0  0  0  0  0  0
  145.6647  134.8760  149.6554 H   0  0  0  0  0  0  0  0  0  0  0  0
  149.4189  142.9736  155.8458 H   0  0  0  0  0  0  0  0  0  0  0  0
  1  2  1  0  0  0  0
  1 31  1  0  0  0  0
  1 32  1  0  0  0  0
  1 33  1  0  0  0  0
  2 29  1  0  0  0  0
  2 11  1  0  0  0  0
  2  3  1  0  0  0  0
  3 30  1  0  0  0  0
  3  4  1  0  0  0  0
  3  9  1  0  0  0  0
  4  5  1  0  0  0  0
  4  6  1  0  0  0  0
  4 59  1  0  0  0  0
  5 34  1  0  0  0  0
  5 35  1  0  0  0  0
  5 36  1  0  0  0  0
  6  7  1  0  0  0  0
  6 37  1  0  0  0  0
  6 38  1  0  0  0  0
  7  8  1  0  0  0  0
  7 39  1  0  0  0  0
  7 40  1  0  0  0  0
  8 41  1  0  0  0  0
  9 10  1  0  0  0  0
  9 42  1  0  0  0  0
  9 43  1  0  0  0  0
 10 11  1  0  0  0  0
 10 44  1  0  0  0  0
 10 45  1  0  0  0  0
 11 12  1  0  0  0  0
 12 17  1  0  0  0  0
 12 13  2  0  0  0  0
 13 14  1  0  0  0  0
 14 15  2  0  0  0  0
 14 46  1  0  0  0  0
 15 16  1  0  0  0  0
 16 20  1  0  0  0  0
 16 17  2  0  0  0  0
 17 18  1  0  0  0  0
 18 19  2  0  0  0  0
 19 20  1  0  0  0  0
 19 47  1  0  0  0  0
 20 21  1  0  0  0  0
 21 28  1  0  0  0  0
 21 22  1  0  0  0  0
 21 48  1  0  0  0  0
 22 23  1  0  0  0  0
 22 49  1  0  0  0  0
 22 50  1  0  0  0  0
 23 24  1  0  0  0  0
 23 26  1  0  0  0  0
 23 28  1  0  0  0  0
 24 25  1  0  0  0  0
 24 51  1  0  0  0  0
 24 52  1  0  0  0  0
 25 53  1  0  0  0  0
 26 27  1  0  0  0  0
 26 54  1  0  0  0  0
 26 55  1  0  0  0  0
 27 56  1  0  0  0  0
 28 57  1  0  0  0  0
 28 58  1  0  0  0  0
M  CHG  1   4   1
M  END
> <s_m_source_file>
AV-unprocessed.smi

> <i_m_source_file_index>
215

> <i_lp_mmshare_version>
43012

> <i_f3d_flags>
0

> <s_epik_input>
W09IXVtDSDJdW0NIMl1OKFtDSDNdKVtDQEBIXShbQ0BIXTFbQ0gzXSlbQ0gyXVtDSDJdTjFjKG5bY0hdbjIpYyhjMjMpbltjSF1uM1tDSF0oW0NIMl00KVtDSDJdQzQoW0NIMl1bT0hdKVtDSDJdW09IXQ==

> <s_epik_cmdline>
J2VwaWtfcHl0aG9uJywgJy1waCcsICc3LjAnLCAnLXRuJywgJzgnLCAnLW1hJywgJzIwMCcsICctbWV0YWxfYmluZGluZycsICctaW1hZScsICc8aW5maWxlLm1hZT4nLCAnLW9tYWUnLCAnPG91dGZpbGUubWFlPic=

> <r_lp_tautomer_probability>
1

> <r_epik_Ionization_Penalty>
0.0036237

> <r_epik_Ionization_Penalty_Charging>
0.0032725

> <r_epik_Ionization_Penalty_Neutral>
0.000351196

> <r_epik_State_Penalty>
-0

> <r_epik_Charging_Adjusted_Penalty>
0.0032725

> <i_epik_Tot_Q>
1

> <i_epik_Tot_abs_Q>
1

> <r_epik_Metal_State_Penalty>
-0

> <b_epik_Metal_Only>
0

> <s_lp_Force_Field>
OPLS_2005

> <r_lp_Energy>
64.69

> <b_lp_Chiralities_Consistent>
1

> <s_lp_Variant>
AV-unprocessed.smi:215-3

> <Gold.Version>
5.8.1

> <Gold.Id.Protein>
6NUR|6NUR_protein|mol2

> <Gold.PLP.Fitness>
54.1240

> <Gold.PLP.PLP>
-38.6576

> <Gold.PLP.part.hbond>
-5.6421

> <Gold.PLP.part.metal>
0.0000

> <Gold.PLP.part.buried>
-0.9957

> <Gold.PLP.part.nonpolar>
-32.7864

> <Gold.PLP.part.repulsive>
1.5559

> <Gold.PLP.ligand.clash>
0.0000

> <Gold.PLP.ligand.torsion>
0.9722

> <Gold.PLP.Chemscore.Hbond>
5.0000

> <Gold.PLP.Chemscore.CHOScore>
0.5053

> <Gold.PLP.Chemscore.Metal>
0.0000

> <Gold.Chemscore.Hbonds>
donor molecule, donor type, donor heavy atom, donor atom, acceptor molecule, acceptor atom, score
      L1  H     4    59       P1  8028  2.00
      L1  H     8    41       P1  8028  1.00
      L1  H    25    53       P1 10747  1.00
      L1  H    27    56       P1 10952  1.00
      L1  C    19    47       P1 10171  0.52

> <Gold.PLP.Chemscore.Internal.Correction>
0.8949

> <Gold.Rescore>
     Score         DG    S(hbond)    S(metal)    S(lipo)     H(rot)  DE(clash)    DE(int)     intcor
     12.36     -17.04       3.82        0.00      87.84       4.48       1.61       3.07       ----

> <Gold.Chemscore.Fitness>
12.3614

> <Gold.Chemscore.DG>
-17.0423

> <Gold.Chemscore.ZeroCoef>
-5.4800

> <Gold.Chemscore.Hbond>
3.8176

> <Gold.Chemscore.Metal>
0.0000

> <Gold.Chemscore.Lipo>
87.8363

> <Gold.Chemscore.Internal_Hbond>
0.0000

> <Gold.Chemscore.DEClash>
1.6062

> <Gold.Chemscore.DEInternal>
3.0747

> <Gold.Chemscore.Rot>
4.4787

> <Gold.Chemscore.Internal.Correction>
   9.000000E+99

> <Gold.Chemscore.Hbonds>
donor molecule, donor type, donor heavy atom, donor atom, acceptor molecule, acceptor atom, score
      L1  H     4    59       P1  8028  0.96
      L1  H     8    41       P1  8028  0.70
      L1  H    25    53       P1 10747  0.96
      L1  H    27    56       P1 10952  0.99

> <Gold.Chemscore.Hbond.Weighted>
-12.7509

> <Gold.Chemscore.Metal.Weighted>
-0.0000

> <Gold.Chemscore.Lipo.Weighted>
-10.2769

> <Gold.Chemscore.Internal_Hbond.Weighted>
0.0000

> <Gold.Chemscore.DEClash.Weighted>
1.6062

> <Gold.Chemscore.DEInternal.Weighted>
3.0747

> <Gold.Chemscore.Rot.Weighted>
11.4655

> <Gold.Chemscore.Internal.Correction.Weighted>
   9.000000E+99

> <Gold.Protein.RotatedTorsions>
[ 6907 6896 6895 6894 ] final  -45.98 input  -60.11 | X-H torsion
[ 7974 7965 7964 7962 ] final -100.94 input  175.53 | X-H torsion
[ 8008 7997 7996 7995 ] final -179.88 input   59.86 | X-H torsion
[ 10167 10162 10161 10158 ] final  167.59 input  -65.29 | X-H torsion
[ 10718 10713 10712 10709 ] final -176.51 input   66.30 | X-H torsion
[ 10763 10752 10751 10750 ] final  -82.29 input  -60.55 | X-H torsion
[ 11005 11000 10999 10996 ] final  -75.68 input  -57.11 | X-H torsion

> <Gold.Protein.ActiveResidues>
 VAL166  LYS551  ARG553  GLY616  TRP617  ASP618  TYR619  PRO620  LYS621  CYS622 
 ASP623  PHE694  ASN695  SER759  ASP760  ASP761  ALA762  ILE779  LEU786  VAL792 
 PHE793  MET794  SER795  GLU796  ALA797  LYS798  CYS799  TRP800  GLU811  SER814 

> <Gold.Protein.RotatedAtoms>
  150.9161  134.8579  159.7457 H   0  0  0  0  0  0  0  0  0  0  0  0  # atno 6907 bound_to 6896
  152.4969  134.4287  159.9515 H   0  0  0  0  0  0  0  0  0  0  0  0  # atno 6908 bound_to 6896
  151.4325  133.3627  159.2806 H   0  0  0  0  0  0  0  0  0  0  0  0  # atno 6909 bound_to 6896
  145.2880  140.9345  143.2894 H   0  0  0  0  0  0  0  0  0  0  0  0  # atno 7974 bound_to 7965
  156.0356  140.1292  157.0211 H   0  0  0  0  0  0  0  0  0  0  0  0  # atno 8008 bound_to 7997
  154.4368  140.1040  156.6233 H   0  0  0  0  0  0  0  0  0  0  0  0  # atno 8009 bound_to 7997
  155.5742  140.3467  155.4525 H   0  0  0  0  0  0  0  0  0  0  0  0  # atno 8010 bound_to 7997
  139.4949  144.3905  151.9522 H   0  0  0  0  0  0  0  0  0  0  0  0  # atno 10167 bound_to 10162
  156.8157  130.9602  151.3114 H   0  0  0  0  0  0  0  0  0  0  0  0  # atno 10718 bound_to 10713
  154.5740  135.5596  153.7122 H   0  0  0  0  0  0  0  0  0  0  0  0  # atno 10763 bound_to 10752
  153.0058  135.6304  154.2075 H   0  0  0  0  0  0  0  0  0  0  0  0  # atno 10764 bound_to 10752
  154.2015  135.2877  155.2969 H   0  0  0  0  0  0  0  0  0  0  0  0  # atno 10765 bound_to 10752
  141.1647  133.6955  156.7553 H   0  0  0  0  0  0  0  0  0  0  0  0  # atno 11005 bound_to 11000
  144.9197  139.4427  143.6547 LP  0  0  0  0  0  0  0  0  0  0  0  0  # atno 17320 bound_to 7965
  146.3194  139.8050  142.8957 LP  0  0  0  0  0  0  0  0  0  0  0  0  # atno 17321 bound_to 7965
  140.3343  144.3279  150.5980 LP  0  0  0  0  0  0  0  0  0  0  0  0  # atno 17342 bound_to 10162
  140.5619  143.2191  151.7750 LP  0  0  0  0  0  0  0  0  0  0  0  0  # atno 17343 bound_to 10162
  157.6483  130.8863  149.9582 LP  0  0  0  0  0  0  0  0  0  0  0  0  # atno 17370 bound_to 10713
  156.1018  130.3655  150.0204 LP  0  0  0  0  0  0  0  0  0  0  0  0  # atno 17371 bound_to 10713
  140.2574  134.8494  157.3725 LP  0  0  0  0  0  0  0  0  0  0  0  0  # atno 17394 bound_to 11000
  140.1644  134.4687  155.7873 LP  0  0  0  0  0  0  0  0  0  0  0  0  # atno 17395 bound_to 11000

$$$$
