#       Name:                AV-unprocessed.smi:290
#       Creating user name   scv26
#       Creation time:       Thu Mar 26 22:07:00 2020


#       File generated by GOLD software.
#

@<TRIPOS>MOLECULE
AV-unprocessed.smi:290
    69    72     1
SMALL
NO_CHARGES


@<TRIPOS>ATOM
      1 ****        -3.9715  -1.2069   2.9132 C.3            1 S1                 0.0000
      2 ****        -4.0160  -2.7423   2.8650 C.3            1 S1                 0.0000
      3 ****        -5.2109  -3.0996   3.5630 O.3            1 S1                 0.0000
      4 ****        -5.9247  -4.0964   2.8507 C.3            1 S1                 0.0000
      5 ****        -5.6001  -3.7897   1.3966 C.3            1 S1                 0.0000
      6 ****        -4.1304  -3.3981   1.4589 C.3            1 S1                 0.0000
      7 ****        -3.3801  -4.6008   1.4771 O.3            1 S1                 0.0000
      8 ****        -3.6908  -2.5743   0.2163 C.3            1 S1                 0.0000
      9 ****        -2.3263  -2.0557   0.2433 N.pl3          1 S1                 0.0000
     10 ****        -1.1489  -2.7680   0.3474 C.2            1 S1                 0.0000
     11 ****        -0.0564  -2.0544   0.3176 N.2            1 S1                 0.0000
     12 ****        -0.5108  -0.7546   0.1506 C.ar           1 S1                 0.0000
     13 ****         0.1319   0.5036   0.0237 C.ar           1 S1                 0.0000
     14 ****         1.4789   0.6174   0.0565 N.3            1 S1                 0.0000
     15 ****         1.9898   1.3324   1.2101 C.3            1 S1                 0.0000
     16 ****         3.4276   1.7108   0.8544 C.3            1 S1                 0.0000
     17 ****         3.5595   1.5091  -0.6705 C.3            1 S1                 0.0000
     18 ****         4.2273   2.6821  -1.3186 N.4            1 S1                 1.0000
     19 ****         5.6649   2.7499  -0.9471 C.3            1 S1                 0.0000
     20 ****         4.0151   2.8048  -2.7895 C.3            1 S1                 0.0000
     21 ****         4.5514   4.1161  -3.3943 C.3            1 S1                 0.0000
     22 ****         3.8780   5.2257  -2.8376 O.3            1 S1                 0.0000
     23 ****         2.1105   1.2011  -1.1206 C.3            1 S1                 0.0000
     24 ****         2.0090   0.2236  -2.3127 C.3            1 S1                 0.0000
     25 ****        -0.6474   1.6037  -0.1497 N.ar           1 S1                 0.0000
     26 ****        -1.9772   1.4765  -0.1947 C.ar           1 S1                 0.0000
     27 ****        -2.7134   0.3676  -0.0905 N.ar           1 S1                 0.0000
     28 ****        -1.9310  -0.7367   0.0857 C.ar           1 S1                 0.0000
     29 ****         4.1658   0.6188  -0.8498 H              1 S1                 0.0000
     30 ****         1.5997   2.1353  -1.3592 H              1 S1                 0.0000
     31 ****        -3.0188  -0.8195   2.5593 H              1 S1                 0.0000
     32 ****        -4.0887  -0.8527   3.9376 H              1 S1                 0.0000
     33 ****        -4.7696  -0.7622   2.3185 H              1 S1                 0.0000
     34 ****        -3.1561  -3.1346   3.4105 H              1 S1                 0.0000
     35 ****        -5.5556  -5.0825   3.1363 H              1 S1                 0.0000
     36 ****        -6.9930  -4.0540   3.0633 H              1 S1                 0.0000
     37 ****        -5.8055  -4.6256   0.7264 H              1 S1                 0.0000
     38 ****        -6.2035  -2.9428   1.0665 H              1 S1                 0.0000
     39 ****        -3.5563  -5.0763   0.6798 H              1 S1                 0.0000
     40 ****        -3.7953  -3.1798  -0.6849 H              1 S1                 0.0000
     41 ****        -4.3712  -1.7331   0.0821 H              1 S1                 0.0000
     42 ****        -1.1124  -3.8425   0.4435 H              1 S1                 0.0000
     43 ****         1.4013   2.2307   1.4034 H              1 S1                 0.0000
     44 ****         1.9504   0.7065   2.1023 H              1 S1                 0.0000
     45 ****         3.6234   2.7384   1.1636 H              1 S1                 0.0000
     46 ****         4.1371   1.0714   1.3811 H              1 S1                 0.0000
     47 ****         6.2402   1.9900  -1.4775 H              1 S1                 0.0000
     48 ****         5.8166   2.5945   0.1206 H              1 S1                 0.0000
     49 ****         6.0910   3.7264  -1.1729 H              1 S1                 0.0000
     50 ****         4.4780   1.9531  -3.2896 H              1 S1                 0.0000
     51 ****         2.9520   2.7731  -3.0209 H              1 S1                 0.0000
     52 ****         5.6272   4.2265  -3.2640 H              1 S1                 0.0000
     53 ****         4.3757   4.1201  -4.4704 H              1 S1                 0.0000
     54 ****         2.9700   5.1923  -3.0987 H              1 S1                 0.0000
     55 ****         2.5187   0.5838  -3.2034 H              1 S1                 0.0000
     56 ****         0.9695   0.0506  -2.5925 H              1 S1                 0.0000
     57 ****         2.4439  -0.7445  -2.0616 H              1 S1                 0.0000
     58 ****        -2.5311   2.3931  -0.3346 H              1 S1                 0.0000
     59 ****         3.7894   3.4992  -0.9168 H              1 S1                 0.0000
     60 ****        -5.7885  -2.2893   3.6623 LP             1 S1                 0.0000
     61 ****        -4.9706  -3.4507   4.4680 LP             1 S1                 0.0000
     62 ****        -3.6484  -5.1538   2.2659 LP             1 S1                 0.0000
     63 ****        -2.4045  -4.3889   1.5348 LP             1 S1                 0.0000
     64 ****         0.8888  -2.3712   0.3967 LP             1 S1                 0.0000
     65 ****         1.7305  -0.3495   0.0997 LP             1 S1                 0.0000
     66 ****         4.2927   6.0725  -3.1706 LP             1 S1                 0.0000
     67 ****         3.9426   5.1926  -1.8403 LP             1 S1                 0.0000
     68 ****        -0.2268   2.5061  -0.2434 LP             1 S1                 0.0000
     69 ****        -3.7122   0.3485  -0.1359 LP             1 S1                 0.0000
@<TRIPOS>BOND
    1    1    2 1     
    2    1   31 1     
    3    1   32 1     
    4    1   33 1     
    5    2    6 1     
    6    2    3 1     
    7    2   34 1     
    8    3    4 1     
    9    4    5 1     
   10    4   35 1     
   11    4   36 1     
   12    5    6 1     
   13    5   37 1     
   14    5   38 1     
   15    6    7 1     
   16    6    8 1     
   17    7   39 1     
   18    8    9 1     
   19    8   40 1     
   20    8   41 1     
   21    9   28 1     
   22    9   10 1     
   23   10   11 2     
   24   10   42 1     
   25   11   12 1     
   26   12   28 ar    
   27   12   13 ar    
   28   13   14 1     
   29   13   25 ar    
   30   14   23 1     
   31   14   15 1     
   32   15   16 1     
   33   15   43 1     
   34   15   44 1     
   35   16   17 1     
   36   16   45 1     
   37   16   46 1     
   38   17   29 1     
   39   17   18 1     
   40   17   23 1     
   41   18   19 1     
   42   18   20 1     
   43   18   59 1     
   44   19   47 1     
   45   19   48 1     
   46   19   49 1     
   47   20   21 1     
   48   20   50 1     
   49   20   51 1     
   50   21   22 1     
   51   21   52 1     
   52   21   53 1     
   53   22   54 1     
   54   23   30 1     
   55   23   24 1     
   56   24   55 1     
   57   24   56 1     
   58   24   57 1     
   59   25   26 ar    
   60   26   27 ar    
   61   26   58 1     
   62   27   28 ar    
   63    3   60 1     
   64    3   61 1     
   65    7   62 1     
   66    7   63 1     
   67   11   64 1     
   68   14   65 1     
   69   22   66 1     
   70   22   67 1     
   71   25   68 1     
   72   27   69 1     
@<TRIPOS>SUBSTRUCTURE
      1 S1             1
@<TRIPOS>SET
LONE_PAIRS      STATIC     ATOMS    <user>   **** ""
10 60 61 62 63 64 65 66 67 68 69
DONOR_HYDROGENS      STATIC     ATOMS    <user>   **** ""
3 39 59 54
ATOM$BLUE        STATIC     ATOMS    COLORGROUP SYSTEM
10 60 61 62 63 64 65 66 67 68 69
ATOM$RED        STATIC     ATOMS    COLORGROUP SYSTEM
3 39 59 54
