#       Name:                AV-unprocessed.smi:3335
#       Creating user name   scv26
#       Creation time:       Fri Mar 27 19:22:52 2020


#       File generated by GOLD software.
#

@<TRIPOS>MOLECULE
AV-unprocessed.smi:3335
    50    51     1
SMALL
NO_CHARGES


@<TRIPOS>ATOM
      1 ****        -3.7134  -1.5235   4.0348 C.3            1 S1                 0.0000
      2 ****        -3.0554  -0.4659   3.1961 C.2            1 S1                 0.0000
      3 ****        -1.9386   0.3490   3.5348 C.2            1 S1                 0.0000
      4 ****        -1.6068   1.1909   2.5701 N.2            1 S1                 0.0000
      5 ****        -2.4892   0.9384   1.5778 N.pl3          1 S1                 0.0000
      6 ****        -2.4400   1.6983   0.3333 C.3            1 S1                 0.0000
      7 ****        -2.9518   3.1286   0.5870 C.3            1 S1                 0.0000
      8 ****        -1.0278   1.6582  -0.3123 C.3            1 S1                 0.0000
      9 ****        -0.9969   2.3353  -1.6958 C.3            1 S1                 0.0000
     10 ****        -0.5701   0.2524  -0.4367 N.4            1 S1                 1.0000
     11 ****         0.8956   0.0317  -0.4167 C.3            1 S1                 0.0000
     12 ****         1.4321   0.0885   1.0264 C.3            1 S1                 0.0000
     13 ****         1.2357  -1.3325  -1.0473 C.2            1 S1                 0.0000
     14 ****         0.4193  -2.2508  -0.9505 O.2            1 S1                 0.0000
     15 ****         2.4229  -1.5021  -1.6710 N.am           1 S1                 0.0000
     16 ****         2.8435  -2.7789  -2.2473 C.3            1 S1                 0.0000
     17 ****         4.3339  -2.6292  -2.5497 C.3            1 S1                 0.0000
     18 ****         4.5193  -1.1341  -2.7596 C.3            1 S1                 0.0000
     19 ****         3.4663  -0.4913  -1.8554 C.3            1 S1                 0.0000
     20 ****        -3.3814  -0.0507   1.9362 C.2            1 S1                 0.0000
     21 ****        -3.5959  -1.3256   5.1004 H              1 S1                 0.0000
     22 ****        -3.2904  -2.5094   3.8419 H              1 S1                 0.0000
     23 ****        -4.7838  -1.5879   3.8378 H              1 S1                 0.0000
     24 ****        -1.3637   0.3553   4.4492 H              1 S1                 0.0000
     25 ****        -3.1379   1.2176  -0.3544 H              1 S1                 0.0000
     26 ****        -3.0957   3.6781  -0.3427 H              1 S1                 0.0000
     27 ****        -2.2584   3.6965   1.2083 H              1 S1                 0.0000
     28 ****        -3.9153   3.1130   1.0976 H              1 S1                 0.0000
     29 ****        -0.3422   2.1961   0.3426 H              1 S1                 0.0000
     30 ****        -1.2367   3.3960  -1.6298 H              1 S1                 0.0000
     31 ****        -1.7106   1.8738  -2.3788 H              1 S1                 0.0000
     32 ****        -0.0112   2.2681  -2.1556 H              1 S1                 0.0000
     33 ****        -0.9598  -0.2786   0.3293 H              1 S1                 0.0000
     34 ****         1.3553   0.8244  -1.0031 H              1 S1                 0.0000
     35 ****         2.5031  -0.1112   1.0644 H              1 S1                 0.0000
     36 ****         0.9376  -0.6461   1.6637 H              1 S1                 0.0000
     37 ****         1.2771   1.0688   1.4767 H              1 S1                 0.0000
     38 ****         2.6611  -3.6184  -1.5744 H              1 S1                 0.0000
     39 ****         2.2823  -2.9534  -3.1666 H              1 S1                 0.0000
     40 ****         4.9174  -2.9517  -1.6861 H              1 S1                 0.0000
     41 ****         4.6530  -3.2208  -3.4084 H              1 S1                 0.0000
     42 ****         5.5321  -0.7976  -2.5353 H              1 S1                 0.0000
     43 ****         4.3084  -0.8851  -3.8007 H              1 S1                 0.0000
     44 ****         3.0857   0.4222  -2.3131 H              1 S1                 0.0000
     45 ****         3.9014  -0.2369  -0.8884 H              1 S1                 0.0000
     46 ****        -4.1676  -0.3765   1.2708 H              1 S1                 0.0000
     47 ****        -0.9413  -0.1212  -1.2985 H              1 S1                 0.0000
     48 ****        -0.8676   1.8643   2.5740 LP             1 S1                 0.0000
     49 ****        -0.4449  -2.1029  -0.4696 LP             1 S1                 0.0000
     50 ****         0.6211  -3.1438  -1.3529 LP             1 S1                 0.0000
@<TRIPOS>BOND
    1    1    2 1     
    2    1   21 1     
    3    1   22 1     
    4    1   23 1     
    5    2   20 2     
    6    2    3 1     
    7    3    4 2     
    8    3   24 1     
    9    4    5 1     
   10    5    6 1     
   11    5   20 1     
   12    6    7 1     
   13    6    8 1     
   14    6   25 1     
   15    7   26 1     
   16    7   27 1     
   17    7   28 1     
   18    8    9 1     
   19    8   10 1     
   20    8   29 1     
   21    9   30 1     
   22    9   31 1     
   23    9   32 1     
   24   10   11 1     
   25   10   33 1     
   26   10   47 1     
   27   11   12 1     
   28   11   13 1     
   29   11   34 1     
   30   12   35 1     
   31   12   36 1     
   32   12   37 1     
   33   13   14 2     
   34   13   15 am    
   35   15   19 1     
   36   15   16 1     
   37   16   17 1     
   38   16   38 1     
   39   16   39 1     
   40   17   18 1     
   41   17   40 1     
   42   17   41 1     
   43   18   19 1     
   44   18   42 1     
   45   18   43 1     
   46   19   44 1     
   47   19   45 1     
   48   20   46 1     
   49    4   48 1     
   50   14   49 1     
   51   14   50 1     
@<TRIPOS>SUBSTRUCTURE
      1 S1             1
@<TRIPOS>SET
LONE_PAIRS      STATIC     ATOMS    <user>   **** ""
3 48 49 50
DONOR_HYDROGENS      STATIC     ATOMS    <user>   **** ""
2 33 47
ATOM$BLUE        STATIC     ATOMS    COLORGROUP SYSTEM
3 48 49 50
ATOM$RED        STATIC     ATOMS    COLORGROUP SYSTEM
2 33 47
