AV-unprocessed.smi:1220|AV-procd|sdf|5116|dock2
  -GOLD-   22720 4173D 1   1.00000     0.00000
 Structure written by MMmdl.
 35 36  0  0  0  0  0  0  0  0  1 V2000
  153.3603  141.9716  161.6983 C   0  0  0  0  0  0  0  0  0  0  0  0
  153.6953  141.8029  160.2103 C   0  0  2  0  0  0  0  0  0  0  0  0
  153.5545  143.1378  159.4468 C   0  0  0  0  0  0  0  0  0  0  0  0
  152.2317  143.7240  159.5816 N   0  0  0  0  0  0  0  0  0  0  0  0
  151.6261  144.2208  160.7165 C   0  0  0  0  0  0  0  0  0  0  0  0
  150.3992  144.6939  160.3484 C   0  0  0  0  0  0  0  0  0  0  0  0
  150.3412  144.4324  158.9510 C   0  0  0  0  0  0  0  0  0  0  0  0
  151.4372  143.8475  158.4957 N   0  0  0  0  0  0  0  0  0  0  0  0
  152.8200  140.7806  159.6375 N   0  0  0  0  0  0  0  0  0  0  0  0
  153.2240  139.7127  158.9304 C   0  0  0  0  0  0  0  0  0  0  0  0
  154.4095  139.4428  158.7338 O   0  0  0  0  0  0  0  0  0  0  0  0
  152.1170  138.8258  158.3398 C   0  0  1  0  0  0  0  0  0  0  0  0
  151.2497  139.6123  157.3298 C   0  0  0  0  0  0  0  0  0  0  0  0
  151.9312  139.6138  155.9578 C   0  0  0  0  0  0  0  0  0  0  0  0
  152.7549  137.9856  155.8284 S   0  0  0  0  0  0  0  0  0  0  0  0
  151.8702  137.0517  155.1151 O   0  0  0  0  0  0  0  0  0  0  0  0
  154.1490  138.1803  155.4026 O   0  0  0  0  0  0  0  0  0  0  0  0
  152.7021  137.5913  157.6215 C   0  0  0  0  0  0  0  0  0  0  0  0
  154.0160  142.7062  162.1665 H   0  0  0  0  0  0  0  0  0  0  0  0
  153.4824  141.0318  162.2377 H   0  0  0  0  0  0  0  0  0  0  0  0
  152.3318  142.3060  161.8397 H   0  0  0  0  0  0  0  0  0  0  0  0
  154.7350  141.4761  160.1507 H   0  0  0  0  0  0  0  0  0  0  0  0
  154.3019  143.8557  159.7894 H   0  0  0  0  0  0  0  0  0  0  0  0
  153.7408  142.9802  158.3837 H   0  0  0  0  0  0  0  0  0  0  0  0
  152.1178  144.2054  161.6779 H   0  0  0  0  0  0  0  0  0  0  0  0
  149.6571  145.1586  160.9804 H   0  0  0  0  0  0  0  0  0  0  0  0
  149.5412  144.6488  158.2585 H   0  0  0  0  0  0  0  0  0  0  0  0
  151.8266  140.9219  159.7495 H   0  0  0  0  0  0  0  0  0  0  0  0
  151.4874  138.4886  159.1649 H   0  0  0  0  0  0  0  0  0  0  0  0
  150.2832  139.1147  157.2411 H   0  0  0  0  0  0  0  0  0  0  0  0
  151.0415  140.6291  157.6656 H   0  0  0  0  0  0  0  0  0  0  0  0
  151.2352  139.7543  155.1307 H   0  0  0  0  0  0  0  0  0  0  0  0
  152.6972  140.3881  155.9051 H   0  0  0  0  0  0  0  0  0  0  0  0
  153.7012  137.3166  157.9628 H   0  0  0  0  0  0  0  0  0  0  0  0
  152.0547  136.7249  157.7562 H   0  0  0  0  0  0  0  0  0  0  0  0
  1  2  1  0  0  0  0
  1 19  1  0  0  0  0
  1 20  1  0  0  0  0
  1 21  1  0  0  0  0
  2  3  1  0  0  0  0
  2  9  1  0  0  0  0
  2 22  1  0  0  0  0
  3  4  1  0  0  0  0
  3 23  1  0  0  0  0
  3 24  1  0  0  0  0
  4  8  1  0  0  0  0
  4  5  1  0  0  0  0
  5  6  2  0  0  0  0
  5 25  1  0  0  0  0
  6  7  1  0  0  0  0
  6 26  1  0  0  0  0
  7  8  2  0  0  0  0
  7 27  1  0  0  0  0
  9 10  1  0  0  0  0
  9 28  1  0  0  0  0
 10 11  2  0  0  0  0
 10 12  1  0  0  0  0
 12 18  1  0  0  0  0
 12 13  1  0  0  0  0
 12 29  1  0  0  0  0
 13 14  1  0  0  0  0
 13 30  1  0  0  0  0
 13 31  1  0  0  0  0
 14 15  1  0  0  0  0
 14 32  1  0  0  0  0
 14 33  1  0  0  0  0
 15 16  2  0  0  0  0
 15 17  2  0  0  0  0
 15 18  1  0  0  0  0
 18 34  1  0  0  0  0
 18 35  1  0  0  0  0
M  END
> <s_m_source_file>
AV-unprocessed.smi

> <i_m_source_file_index>
1220

> <i_lp_mmshare_version>
43012

> <i_f3d_flags>
0

> <s_epik_input>
bjFbY0hdW2NIXVtjSF1uMVtDSDJdW0NAQEhdKFtDSDNdKVtOSF1DKD1PKVtDQEBIXShbQ0gyXTIpW0NIMl1bQ0gyXVMyKD1PKT1P

> <s_epik_cmdline>
J2VwaWtfcHl0aG9uJywgJy1waCcsICc3LjAnLCAnLXRuJywgJzgnLCAnLW1hJywgJzIwMCcsICctbWV0YWxfYmluZGluZycsICctaW1hZScsICc8aW5maWxlLm1hZT4nLCAnLW9tYWUnLCAnPG91dGZpbGUubWFlPic=

> <r_lp_tautomer_probability>
1

> <r_epik_Ionization_Penalty>
0.000293905

> <r_epik_Ionization_Penalty_Charging>
0

> <r_epik_Ionization_Penalty_Neutral>
0.000293905

> <r_epik_State_Penalty>
-0

> <r_epik_Charging_Adjusted_Penalty>
0

> <i_epik_Tot_Q>
0

> <i_epik_Tot_abs_Q>
0

> <r_epik_Metal_State_Penalty>
-0

> <b_epik_Metal_Only>
0

> <s_lp_Force_Field>
OPLS_2005

> <r_lp_Energy>
1.9569

> <b_lp_Chiralities_Consistent>
1

> <s_lp_Variant>
AV-unprocessed.smi:1220-3

> <Gold.Version>
5.8.1

> <Gold.Id.Protein>
6NUR|6NUR_protein|mol2

> <Gold.PLP.Fitness>
48.3233

> <Gold.PLP.PLP>
-38.7124

> <Gold.PLP.part.hbond>
-3.6573

> <Gold.PLP.part.metal>
0.0000

> <Gold.PLP.part.buried>
-6.8979

> <Gold.PLP.part.nonpolar>
-28.6975

> <Gold.PLP.part.repulsive>
0.3110

> <Gold.PLP.ligand.clash>
0.0000

> <Gold.PLP.ligand.torsion>
0.1460

> <Gold.PLP.Chemscore.Hbond>
2.3410

> <Gold.PLP.Chemscore.CHOScore>
0.9495

> <Gold.PLP.Chemscore.Metal>
0.0000

> <Gold.Chemscore.Hbonds>
donor molecule, donor type, donor heavy atom, donor atom, acceptor molecule, acceptor atom, score
      P1  H  7997  8008       L1    17  0.35
      P1  H  7997  8010       L1    11  1.00
      P1  H 10752 10764       L1    16  1.00
      L1  C     7    27       P1  8028  0.15
      L1  C     7    27       P1  8029  0.97

> <Gold.PLP.Chemscore.Internal.Correction>
0.0313

> <Gold.Rescore>
     Score         DG    S(hbond)    S(metal)    S(lipo)     H(rot)  DE(clash)    DE(int)     intcor
     16.75     -17.13       1.95        0.00      81.94       1.75       0.11       0.27       ----

> <Gold.Chemscore.Fitness>
16.7464

> <Gold.Chemscore.DG>
-17.1261

> <Gold.Chemscore.ZeroCoef>
-5.4800

> <Gold.Chemscore.Hbond>
1.9549

> <Gold.Chemscore.Metal>
0.0000

> <Gold.Chemscore.Lipo>
81.9368

> <Gold.Chemscore.Internal_Hbond>
0.0000

> <Gold.Chemscore.DEClash>
0.1103

> <Gold.Chemscore.DEInternal>
0.2695

> <Gold.Chemscore.Rot>
1.7460

> <Gold.Chemscore.Internal.Correction>
   9.000000E+99

> <Gold.Chemscore.Hbonds>
donor molecule, donor type, donor heavy atom, donor atom, acceptor molecule, acceptor atom, score
      P1  H  7997  8008       L1    17  0.23
      P1  H  7997  8010       L1    11  0.96
      P1  H 10752 10764       L1    16  0.53

> <Gold.Chemscore.Hbond.Weighted>
-6.5292

> <Gold.Chemscore.Metal.Weighted>
-0.0000

> <Gold.Chemscore.Lipo.Weighted>
-9.5866

> <Gold.Chemscore.Internal_Hbond.Weighted>
0.0000

> <Gold.Chemscore.DEClash.Weighted>
0.1103

> <Gold.Chemscore.DEInternal.Weighted>
0.2695

> <Gold.Chemscore.Rot.Weighted>
4.4697

> <Gold.Chemscore.Internal.Correction.Weighted>
   9.000000E+99

> <Gold.Protein.RotatedTorsions>
[ 6907 6896 6895 6894 ] final  -72.07 input  -60.11 | X-H torsion
[ 7974 7965 7964 7962 ] final   83.23 input  175.53 | X-H torsion
[ 8008 7997 7996 7995 ] final   -0.66 input   59.86 | X-H torsion
[ 10167 10162 10161 10158 ] final  131.27 input  -65.29 | X-H torsion
[ 10718 10713 10712 10709 ] final  -82.46 input   66.30 | X-H torsion
[ 10763 10752 10751 10750 ] final  -58.97 input  -60.55 | X-H torsion
[ 11005 11000 10999 10996 ] final -109.47 input  -57.11 | X-H torsion

> <Gold.Protein.ActiveResidues>
 VAL166  LYS551  ARG553  GLY616  TRP617  ASP618  TYR619  PRO620  LYS621  CYS622 
 ASP623  PHE694  ASN695  SER759  ASP760  ASP761  ALA762  ILE779  LEU786  VAL792 
 PHE793  MET794  SER795  GLU796  ALA797  LYS798  CYS799  TRP800  GLU811  SER814 

> <Gold.Protein.RotatedAtoms>
  150.7185  134.5216  159.5656 H   0  0  0  0  0  0  0  0  0  0  0  0  # atno 6907 bound_to 6896
  152.2770  134.7867  160.0413 H   0  0  0  0  0  0  0  0  0  0  0  0  # atno 6908 bound_to 6896
  151.8527  133.3407  159.3715 H   0  0  0  0  0  0  0  0  0  0  0  0  # atno 6909 bound_to 6896
  145.6147  139.2374  143.2172 H   0  0  0  0  0  0  0  0  0  0  0  0  # atno 7974 bound_to 7965
  154.6555  140.2578  155.7166 H   0  0  0  0  0  0  0  0  0  0  0  0  # atno 8008 bound_to 7997
  156.2595  140.2859  156.0927 H   0  0  0  0  0  0  0  0  0  0  0  0  # atno 8009 bound_to 7997
  155.1386  140.0380  157.2783 H   0  0  0  0  0  0  0  0  0  0  0  0  # atno 8010 bound_to 7997
  139.5391  144.6713  151.4683 H   0  0  0  0  0  0  0  0  0  0  0  0  # atno 10167 bound_to 10162
  156.0033  130.4635  150.4108 H   0  0  0  0  0  0  0  0  0  0  0  0  # atno 10718 bound_to 10713
  154.2464  135.6334  153.5225 H   0  0  0  0  0  0  0  0  0  0  0  0  # atno 10763 bound_to 10752
  152.9920  135.5554  154.5855 H   0  0  0  0  0  0  0  0  0  0  0  0  # atno 10764 bound_to 10752
  154.5372  135.2892  155.1102 H   0  0  0  0  0  0  0  0  0  0  0  0  # atno 10765 bound_to 10752
  141.0846  133.9162  157.2214 H   0  0  0  0  0  0  0  0  0  0  0  0  # atno 11005 bound_to 11000
  146.1477  140.6969  142.9337 LP  0  0  0  0  0  0  0  0  0  0  0  0  # atno 17320 bound_to 7965
  144.7255  140.4512  143.6976 LP  0  0  0  0  0  0  0  0  0  0  0  0  # atno 17321 bound_to 7965
  140.6613  143.8492  150.6891 LP  0  0  0  0  0  0  0  0  0  0  0  0  # atno 17342 bound_to 10162
  140.1887  143.4054  152.1879 LP  0  0  0  0  0  0  0  0  0  0  0  0  # atno 17343 bound_to 10162
  157.2171  131.0474  151.2567 LP  0  0  0  0  0  0  0  0  0  0  0  0  # atno 17370 bound_to 10713
  157.3835  130.7244  149.6647 LP  0  0  0  0  0  0  0  0  0  0  0  0  # atno 17371 bound_to 10713
  139.9662  135.0141  156.9394 LP  0  0  0  0  0  0  0  0  0  0  0  0  # atno 17394 bound_to 11000
  140.5393  134.0736  155.7337 LP  0  0  0  0  0  0  0  0  0  0  0  0  # atno 17395 bound_to 11000

$$$$
