#       Name:                AV-unprocessed.smi:2886
#       Creating user name   scv26
#       Creation time:       Fri Mar 27 15:56:26 2020


#       File generated by GOLD software.
#

@<TRIPOS>MOLECULE
AV-unprocessed.smi:2886
    33    35     1
SMALL
NO_CHARGES


@<TRIPOS>ATOM
      1 ****        -4.2055  -3.1056   0.9126 O.2            1 S1                 0.0000
      2 ****        -3.6722  -1.9993   0.9705 C.2            1 S1                 0.0000
      3 ****        -4.2947  -0.8934   1.4768 N.pl3          1 S1                -1.0000
      4 ****        -3.7007   0.2781   1.5244 N.pl3          1 S1                 1.0000
      5 ****        -2.4623   0.4938   1.0922 C.2            1 S1                 0.0000
      6 ****        -1.6991  -0.5767   0.5476 C.2            1 S1                 0.0000
      7 ****        -0.4016  -0.4053   0.0811 N.pl3          1 S1                 0.0000
      8 ****         0.4139   0.8019   0.0415 C.3            1 S1                 0.0000
      9 ****         0.6452   1.3332  -1.3737 C.3            1 S1                 0.0000
     10 ****         2.1772   1.4258  -1.4229 C.3            1 S1                 0.0000
     11 ****         2.8196   0.0404  -1.5684 C.3            1 S1                 0.0000
     12 ****         2.5958  -0.5528  -0.1786 C.3            1 S1                 0.0000
     13 ****         1.8533   0.5872   0.5400 C.3            1 S1                 0.0000
     14 ****         2.4780   1.7072  -0.0652 O.3            1 S1                 0.0000
     15 ****        -2.2945  -1.8026   0.4829 C.2            1 S1                 0.0000
     16 ****        -1.4482  -3.1662  -0.1712 Cl             1 S1                 0.0000
     17 ****        -4.1925   1.1003   1.9081 H              1 S1                 0.0000
     18 ****        -2.0844   1.5046   1.1750 H              1 S1                 0.0000
     19 ****         0.0942  -1.2486  -0.1720 H              1 S1                 0.0000
     20 ****        -0.0348   1.5875   0.6485 H              1 S1                 0.0000
     21 ****         0.2495   0.6833  -2.1559 H              1 S1                 0.0000
     22 ****         0.1889   2.3170  -1.4870 H              1 S1                 0.0000
     23 ****         2.5540   2.1640  -2.1313 H              1 S1                 0.0000
     24 ****         2.3602  -0.5509  -2.3613 H              1 S1                 0.0000
     25 ****         3.8862   0.1265  -1.7798 H              1 S1                 0.0000
     26 ****         2.0325  -1.4861  -0.1996 H              1 S1                 0.0000
     27 ****         3.5528  -0.7504   0.3055 H              1 S1                 0.0000
     28 ****         1.9434   0.5571   1.6262 H              1 S1                 0.0000
     29 ****        -5.1403  -3.2281   1.2460 LP             1 S1                 0.0000
     30 ****        -3.7045  -3.8829   0.5321 LP             1 S1                 0.0000
     31 ****        -5.2297  -0.9778   1.8212 LP             1 S1                 0.0000
     32 ****         2.0734   2.5704   0.2369 LP             1 S1                 0.0000
     33 ****         3.4633   1.7235   0.1045 LP             1 S1                 0.0000
@<TRIPOS>BOND
    1    1    2 2     
    2    2    3 1     
    3    2   15 1     
    4    3    4 1     
    5    4    5 2     
    6    4   17 1     
    7    5    6 1     
    8    5   18 1     
    9    6   15 2     
   10    6    7 1     
   11    7    8 1     
   12    7   19 1     
   13    8   13 1     
   14    8    9 1     
   15    8   20 1     
   16    9   10 1     
   17    9   21 1     
   18    9   22 1     
   19   10   14 1     
   20   10   11 1     
   21   10   23 1     
   22   11   12 1     
   23   11   24 1     
   24   11   25 1     
   25   12   13 1     
   26   12   26 1     
   27   12   27 1     
   28   13   14 1     
   29   13   28 1     
   30   15   16 1     
   31    1   29 1     
   32    1   30 1     
   33    3   31 1     
   34   14   32 1     
   35   14   33 1     
@<TRIPOS>SUBSTRUCTURE
      1 S1             1
@<TRIPOS>SET
LONE_PAIRS      STATIC     ATOMS    <user>   **** ""
5 29 30 31 32 33
DONOR_HYDROGENS      STATIC     ATOMS    <user>   **** ""
2 17 19
ATOM$BLUE        STATIC     ATOMS    COLORGROUP SYSTEM
5 29 30 31 32 33
ATOM$RED        STATIC     ATOMS    COLORGROUP SYSTEM
2 17 19
