AV-unprocessed.smi:2561|AV-procd|sdf|10041|dock2
  -GOLD-   2272014 83D 1   1.00000     0.00000
 Structure written by MMmdl.
 33 34  0  0  0  0  0  0  0  0  2 V2000
  146.4737  138.4854  151.6539 C   0  0  0  0  0  0  0  0  0  0  0  0
  147.6494  138.6326  152.4983 N   0  0  0  0  0  0  0  0  0  0  0  0
  147.8074  139.6068  153.4036 C   0  0  0  0  0  0  0  0  0  0  0  0
  146.9665  140.4816  153.6103 O   0  0  0  0  0  0  0  0  0  0  0  0
  148.9946  139.5066  154.0265 N   0  0  0  0  0  0  0  0  0  0  0  0
  149.5348  140.3464  155.0380 C   0  0  0  0  0  0  0  0  0  0  0  0
  150.3572  139.7508  156.0186 C   0  0  0  0  0  0  0  0  0  0  0  0
  150.9064  140.5429  157.0477 C   0  0  0  0  0  0  0  0  0  0  0  0
  150.6148  141.9264  157.0886 C   0  0  0  0  0  0  0  0  0  0  0  0
  151.1097  142.8013  158.0661 N   0  0  0  0  0  0  0  0  0  0  0  0
  152.1513  142.2516  158.9180 C   0  0  0  0  0  0  0  0  0  0  0  0
  152.8079  143.4588  159.5926 C   0  0  0  0  0  0  0  0  0  0  0  0
  152.4727  144.6481  158.6844 C   0  0  0  0  0  0  0  0  0  0  0  0
  151.6374  144.0522  157.5479 C   0  0  0  0  0  0  0  0  0  0  0  0
  149.8137  142.4566  156.1392 N   0  3  0  0  0  0  0  0  0  0  0  0
  149.2690  141.7342  155.1362 C   0  0  0  0  0  0  0  0  0  0  0  0
  146.5849  137.6122  151.0110 H   0  0  0  0  0  0  0  0  0  0  0  0
  146.3389  139.3619  151.0187 H   0  0  0  0  0  0  0  0  0  0  0  0
  145.5755  138.3519  152.2583 H   0  0  0  0  0  0  0  0  0  0  0  0
  148.3871  137.9530  152.3828 H   0  0  0  0  0  0  0  0  0  0  0  0
  149.6069  138.7754  153.6954 H   0  0  0  0  0  0  0  0  0  0  0  0
  150.5746  138.6932  155.9816 H   0  0  0  0  0  0  0  0  0  0  0  0
  151.5435  140.0880  157.7920 H   0  0  0  0  0  0  0  0  0  0  0  0
  151.7343  141.5606  159.6512 H   0  0  0  0  0  0  0  0  0  0  0  0
  152.8879  141.7083  158.3253 H   0  0  0  0  0  0  0  0  0  0  0  0
  152.3813  143.6177  160.5840 H   0  0  0  0  0  0  0  0  0  0  0  0
  153.8825  143.3168  159.7127 H   0  0  0  0  0  0  0  0  0  0  0  0
  151.8901  145.3851  159.2386 H   0  0  0  0  0  0  0  0  0  0  0  0
  153.3654  145.1474  158.3067 H   0  0  0  0  0  0  0  0  0  0  0  0
  152.2661  143.8693  156.6752 H   0  0  0  0  0  0  0  0  0  0  0  0
  150.8328  144.7239  157.2471 H   0  0  0  0  0  0  0  0  0  0  0  0
  148.6379  142.2964  154.4647 H   0  0  0  0  0  0  0  0  0  0  0  0
  149.6064  143.4548  156.1828 H   0  0  0  0  0  0  0  0  0  0  0  0
  1  2  1  0  0  0  0
  1 17  1  0  0  0  0
  1 18  1  0  0  0  0
  1 19  1  0  0  0  0
  2  3  1  0  0  0  0
  2 20  1  0  0  0  0
  3  4  2  0  0  0  0
  3  5  1  0  0  0  0
  5  6  1  0  0  0  0
  5 21  1  0  0  0  0
  6 16  1  0  0  0  0
  6  7  2  0  0  0  0
  7  8  1  0  0  0  0
  7 22  1  0  0  0  0
  8  9  2  0  0  0  0
  8 23  1  0  0  0  0
  9 10  1  0  0  0  0
  9 15  1  0  0  0  0
 10 14  1  0  0  0  0
 10 11  1  0  0  0  0
 11 12  1  0  0  0  0
 11 24  1  0  0  0  0
 11 25  1  0  0  0  0
 12 13  1  0  0  0  0
 12 26  1  0  0  0  0
 12 27  1  0  0  0  0
 13 14  1  0  0  0  0
 13 28  1  0  0  0  0
 13 29  1  0  0  0  0
 14 30  1  0  0  0  0
 14 31  1  0  0  0  0
 15 16  2  0  0  0  0
 15 33  1  0  0  0  0
 16 32  1  0  0  0  0
M  CHG  1  15   1
M  END
> <s_m_source_file>
AV-unprocessed.smi

> <i_m_source_file_index>
2561

> <i_lp_mmshare_version>
43012

> <i_f3d_flags>
0

> <s_epik_input>
W0NIM11bTkhdQyg9TylbTkhdYzFbY0hdW2NIXWMobltjSF0xKU4yW0NIMl1bQ0gyXVtDSDJdW0NIMl0y

> <s_epik_cmdline>
J2VwaWtfcHl0aG9uJywgJy1waCcsICc3LjAnLCAnLXRuJywgJzgnLCAnLW1hJywgJzIwMCcsICctbWV0YWxfYmluZGluZycsICctaW1hZScsICc8aW5maWxlLm1hZT4nLCAnLW9tYWUnLCAnPG91dGZpbGUubWFlPic=

> <r_lp_tautomer_probability>
0.999994

> <r_epik_Ionization_Penalty>
0.57702

> <r_epik_Ionization_Penalty_Charging>
0.577

> <r_epik_Ionization_Penalty_Neutral>
2.01329e-05

> <r_epik_State_Penalty>
0.589437

> <r_epik_Charging_Adjusted_Penalty>
1.16644

> <i_epik_Tot_Q>
1

> <i_epik_Tot_abs_Q>
1

> <r_epik_Metal_State_Penalty>
0.781142

> <b_epik_Metal_Only>
0

> <s_lp_Force_Field>
OPLS_2005

> <r_lp_Energy>
38.8589

> <b_lp_Chiralities_Consistent>
1

> <s_lp_Variant>
AV-unprocessed.smi:2561-2

> <Gold.Version>
5.8.1

> <Gold.Id.Protein>
6NUR|6NUR_protein|mol2

> <Gold.PLP.Fitness>
43.1782

> <Gold.PLP.PLP>
-35.2711

> <Gold.PLP.part.hbond>
-3.8142

> <Gold.PLP.part.metal>
0.0000

> <Gold.PLP.part.buried>
-1.1075

> <Gold.PLP.part.nonpolar>
-33.2110

> <Gold.PLP.part.repulsive>
0.5342

> <Gold.PLP.ligand.clash>
0.0000

> <Gold.PLP.ligand.torsion>
0.4900

> <Gold.PLP.Chemscore.Hbond>
2.9585

> <Gold.PLP.Chemscore.CHOScore>
0.0000

> <Gold.PLP.Chemscore.Metal>
0.0000

> <Gold.Chemscore.Hbonds>
donor molecule, donor type, donor heavy atom, donor atom, acceptor molecule, acceptor atom, score
      L1  H     2    20       P1  7948  1.00
      L1  H    15    33       P1  8028  2.00

> <Gold.PLP.Chemscore.Internal.Correction>
0.0116

> <Gold.Rescore>
     Score         DG    S(hbond)    S(metal)    S(lipo)     H(rot)  DE(clash)    DE(int)     intcor
     17.96     -19.31       1.91        0.00      85.47       1.00       0.22       1.12       ----

> <Gold.Chemscore.Fitness>
17.9645

> <Gold.Chemscore.DG>
-19.3076

> <Gold.Chemscore.ZeroCoef>
-5.4800

> <Gold.Chemscore.Hbond>
1.9126

> <Gold.Chemscore.Metal>
0.0000

> <Gold.Chemscore.Lipo>
85.4675

> <Gold.Chemscore.Internal_Hbond>
0.0000

> <Gold.Chemscore.DEClash>
0.2245

> <Gold.Chemscore.DEInternal>
1.1187

> <Gold.Chemscore.Rot>
1.0000

> <Gold.Chemscore.Internal.Correction>
   9.000000E+99

> <Gold.Chemscore.Hbonds>
donor molecule, donor type, donor heavy atom, donor atom, acceptor molecule, acceptor atom, score
      L1  H     2    20       P1  7948  0.95
      L1  H    15    33       P1  8028  0.91

> <Gold.Chemscore.Hbond.Weighted>
-6.3879

> <Gold.Chemscore.Metal.Weighted>
-0.0000

> <Gold.Chemscore.Lipo.Weighted>
-9.9997

> <Gold.Chemscore.Internal_Hbond.Weighted>
0.0000

> <Gold.Chemscore.DEClash.Weighted>
0.2245

> <Gold.Chemscore.DEInternal.Weighted>
1.1187

> <Gold.Chemscore.Rot.Weighted>
2.5600

> <Gold.Chemscore.Internal.Correction.Weighted>
   9.000000E+99

> <Gold.Protein.RotatedTorsions>
[ 6907 6896 6895 6894 ] final -163.03 input  -60.11 | X-H torsion
[ 7974 7965 7964 7962 ] final -174.10 input  175.53 | X-H torsion
[ 8008 7997 7996 7995 ] final  113.08 input   59.86 | X-H torsion
[ 10167 10162 10161 10158 ] final  -28.64 input  -65.29 | X-H torsion
[ 10718 10713 10712 10709 ] final   -2.41 input   66.30 | X-H torsion
[ 10763 10752 10751 10750 ] final -153.06 input  -60.55 | X-H torsion
[ 11005 11000 10999 10996 ] final  -43.46 input  -57.11 | X-H torsion

> <Gold.Protein.ActiveResidues>
 VAL166  LYS551  ARG553  GLY616  TRP617  ASP618  TYR619  PRO620  LYS621  CYS622 
 ASP623  PHE694  ASN695  SER759  ASP760  ASP761  ALA762  ILE779  LEU786  VAL792 
 PHE793  MET794  SER795  GLU796  ALA797  LYS798  CYS799  TRP800  GLU811  SER814 

> <Gold.Protein.RotatedAtoms>
  151.3896  133.3793  159.2719 H   0  0  0  0  0  0  0  0  0  0  0  0  # atno 6907 bound_to 6896
  150.9515  134.8916  159.7685 H   0  0  0  0  0  0  0  0  0  0  0  0  # atno 6908 bound_to 6896
  152.5114  134.3851  159.9417 H   0  0  0  0  0  0  0  0  0  0  0  0  # atno 6909 bound_to 6896
  144.7134  140.1523  143.6383 H   0  0  0  0  0  0  0  0  0  0  0  0  # atno 7974 bound_to 7965
  156.2235  140.2986  156.0009 H   0  0  0  0  0  0  0  0  0  0  0  0  # atno 8008 bound_to 7997
  155.2420  140.0422  157.2993 H   0  0  0  0  0  0  0  0  0  0  0  0  # atno 8009 bound_to 7997
  154.5877  140.2393  155.7972 H   0  0  0  0  0  0  0  0  0  0  0  0  # atno 8010 bound_to 7997
  140.7268  143.3993  151.1292 H   0  0  0  0  0  0  0  0  0  0  0  0  # atno 10167 bound_to 10162
  156.7913  130.5362  149.5735 H   0  0  0  0  0  0  0  0  0  0  0  0  # atno 10718 bound_to 10713
  154.7953  135.3221  154.7681 H   0  0  0  0  0  0  0  0  0  0  0  0  # atno 10763 bound_to 10752
  153.8361  135.6875  153.4813 H   0  0  0  0  0  0  0  0  0  0  0  0  # atno 10764 bound_to 10752
  153.1642  135.4649  154.9755 H   0  0  0  0  0  0  0  0  0  0  0  0  # atno 10765 bound_to 10752
  141.0385  133.6789  156.2737 H   0  0  0  0  0  0  0  0  0  0  0  0  # atno 11005 bound_to 11000
  145.9105  139.2484  143.1440 LP  0  0  0  0  0  0  0  0  0  0  0  0  # atno 17320 bound_to 7965
  145.9720  140.8752  143.0157 LP  0  0  0  0  0  0  0  0  0  0  0  0  # atno 17321 bound_to 7965
  139.7611  143.8635  152.3100 LP  0  0  0  0  0  0  0  0  0  0  0  0  # atno 17342 bound_to 10162
  139.8521  144.7159  150.9202 LP  0  0  0  0  0  0  0  0  0  0  0  0  # atno 17343 bound_to 10162
  156.1157  130.6073  151.0117 LP  0  0  0  0  0  0  0  0  0  0  0  0  # atno 17370 bound_to 10713
  157.6599  131.0882  150.7862 LP  0  0  0  0  0  0  0  0  0  0  0  0  # atno 17371 bound_to 10713
  140.6277  134.5296  157.5556 LP  0  0  0  0  0  0  0  0  0  0  0  0  # atno 17394 bound_to 11000
  139.9258  134.8058  156.1072 LP  0  0  0  0  0  0  0  0  0  0  0  0  # atno 17395 bound_to 11000

$$$$
