AV-unprocessed.smi:2789|AV-procd|sdf|10765|dock5
  -GOLD-   2272015203D 1   1.00000     0.00000
 Structure written by MMmdl.
 35 36  0  0  0  0  0  0  0  0  1 V2000
  146.0472  131.9356  152.8790 C   0  0  0  0  0  0  0  0  0  0  0  0
  145.7064  133.2279  153.3539 O   0  0  0  0  0  0  0  0  0  0  0  0
  145.7474  134.2334  152.3507 C   0  0  1  0  0  0  0  0  0  0  0  0
  144.6298  134.0607  151.3148 C   0  0  0  0  0  0  0  0  0  0  0  0
  144.3375  135.4785  150.8374 C   0  0  0  0  0  0  0  0  0  0  0  0
  144.4649  136.3268  152.1028 C   0  0  0  0  0  0  0  0  0  0  0  0
  145.5180  135.6258  152.9812 C   0  0  2  0  0  0  0  0  0  0  0  0
  146.7507  136.4082  153.0206 N   0  0  0  0  0  0  0  0  0  0  0  0
  146.9373  137.5020  153.7734 C   0  0  0  0  0  0  0  0  0  0  0  0
  146.0720  137.9706  154.5133 O   0  0  0  0  0  0  0  0  0  0  0  0
  148.1777  137.9957  153.6148 N   0  0  0  0  0  0  0  0  0  0  0  0
  148.7401  139.0827  154.2072 C   0  0  0  0  0  0  0  0  0  0  0  0
  148.1608  140.2772  154.5392 C   0  0  0  0  0  0  0  0  0  0  0  0
  149.2472  140.9974  155.1132 C   0  0  0  0  0  0  0  0  0  0  0  0
  150.3804  140.3064  155.1262 N   0  0  0  0  0  0  0  0  0  0  0  0
  150.0709  139.1182  154.5626 N   0  0  0  0  0  0  0  0  0  0  0  0
  151.0905  138.0984  154.4128 C   0  0  0  0  0  0  0  0  0  0  0  0
  146.0123  131.2240  153.7038 H   0  0  0  0  0  0  0  0  0  0  0  0
  147.0573  131.9214  152.4677 H   0  0  0  0  0  0  0  0  0  0  0  0
  145.3514  131.5930  152.1126 H   0  0  0  0  0  0  0  0  0  0  0  0
  146.7118  134.2188  151.8381 H   0  0  0  0  0  0  0  0  0  0  0  0
  144.9089  133.3919  150.5002 H   0  0  0  0  0  0  0  0  0  0  0  0
  143.7392  133.6501  151.7933 H   0  0  0  0  0  0  0  0  0  0  0  0
  145.0900  135.7847  150.1096 H   0  0  0  0  0  0  0  0  0  0  0  0
  143.3584  135.5707  150.3665 H   0  0  0  0  0  0  0  0  0  0  0  0
  144.7097  137.3655  151.8761 H   0  0  0  0  0  0  0  0  0  0  0  0
  143.5079  136.3325  152.6267 H   0  0  0  0  0  0  0  0  0  0  0  0
  145.1182  135.5306  153.9929 H   0  0  0  0  0  0  0  0  0  0  0  0
  147.5127  136.0885  152.4408 H   0  0  0  0  0  0  0  0  0  0  0  0
  148.7821  137.4866  152.9869 H   0  0  0  0  0  0  0  0  0  0  0  0
  147.1402  140.6018  154.4024 H   0  0  0  0  0  0  0  0  0  0  0  0
  149.2473  141.9987  155.5181 H   0  0  0  0  0  0  0  0  0  0  0  0
  150.8033  137.2093  154.9746 H   0  0  0  0  0  0  0  0  0  0  0  0
  152.0512  138.4565  154.7856 H   0  0  0  0  0  0  0  0  0  0  0  0
  151.1952  137.8376  153.3596 H   0  0  0  0  0  0  0  0  0  0  0  0
  1  2  1  0  0  0  0
  1 18  1  0  0  0  0
  1 19  1  0  0  0  0
  1 20  1  0  0  0  0
  2  3  1  0  0  0  0
  3  7  1  0  0  0  0
  3  4  1  0  0  0  0
  3 21  1  0  0  0  0
  4  5  1  0  0  0  0
  4 22  1  0  0  0  0
  4 23  1  0  0  0  0
  5  6  1  0  0  0  0
  5 24  1  0  0  0  0
  5 25  1  0  0  0  0
  6  7  1  0  0  0  0
  6 26  1  0  0  0  0
  6 27  1  0  0  0  0
  7  8  1  0  0  0  0
  7 28  1  0  0  0  0
  8  9  1  0  0  0  0
  8 29  1  0  0  0  0
  9 10  2  0  0  0  0
  9 11  1  0  0  0  0
 11 12  1  0  0  0  0
 11 30  1  0  0  0  0
 12 16  1  0  0  0  0
 12 13  2  0  0  0  0
 13 14  1  0  0  0  0
 13 31  1  0  0  0  0
 14 15  2  0  0  0  0
 14 32  1  0  0  0  0
 15 16  1  0  0  0  0
 16 17  1  0  0  0  0
 17 33  1  0  0  0  0
 17 34  1  0  0  0  0
 17 35  1  0  0  0  0
M  END
> <s_m_source_file>
AV-unprocessed.smi

> <i_m_source_file_index>
2789

> <i_lp_mmshare_version>
43012

> <i_f3d_flags>
0

> <s_epik_input>
W0NIM11PW0NAQEhdMVtDSDJdW0NIMl1bQ0gyXVtDQEhdMVtOSF1DKD1PKVtOSF1jMltjSF1bY0hdbm4yW0NIM10=

> <s_epik_cmdline>
J2VwaWtfcHl0aG9uJywgJy1waCcsICc3LjAnLCAnLXRuJywgJzgnLCAnLW1hJywgJzIwMCcsICctbWV0YWxfYmluZGluZycsICctaW1hZScsICc8aW5maWxlLm1hZT4nLCAnLW9tYWUnLCAnPG91dGZpbGUubWFlPic=

> <r_lp_tautomer_probability>
1

> <r_epik_Ionization_Penalty>
4.40608e-05

> <r_epik_Ionization_Penalty_Charging>
0

> <r_epik_Ionization_Penalty_Neutral>
4.40608e-05

> <r_epik_State_Penalty>
-0

> <r_epik_Charging_Adjusted_Penalty>
0

> <i_epik_Tot_Q>
0

> <i_epik_Tot_abs_Q>
0

> <r_epik_Metal_State_Penalty>
-0

> <b_epik_Metal_Only>
0

> <s_lp_Force_Field>
OPLS_2005

> <r_lp_Energy>
20.286

> <b_lp_Chiralities_Consistent>
1

> <s_lp_Variant>
AV-unprocessed.smi:2789-4

> <Gold.Version>
5.8.1

> <Gold.Id.Protein>
6NUR|6NUR_protein|mol2

> <Gold.PLP.Fitness>
36.3227

> <Gold.PLP.PLP>
-26.1017

> <Gold.PLP.part.hbond>
-3.0000

> <Gold.PLP.part.metal>
0.0000

> <Gold.PLP.part.buried>
-2.2867

> <Gold.PLP.part.nonpolar>
-21.3432

> <Gold.PLP.part.repulsive>
0.3404

> <Gold.PLP.ligand.clash>
0.0000

> <Gold.PLP.ligand.torsion>
0.5217

> <Gold.PLP.Chemscore.Hbond>
2.7600

> <Gold.PLP.Chemscore.CHOScore>
0.9926

> <Gold.PLP.Chemscore.Metal>
0.0000

> <Gold.Chemscore.Hbonds>
donor molecule, donor type, donor heavy atom, donor atom, acceptor molecule, acceptor atom, score
      L1  H     8    29       P1  7948  1.00
      L1  H    11    30       P1  7948  0.99
      P1  H  7989  7998       L1    15  0.50
      L1  C    14    32       P1  8028  0.46

> <Gold.PLP.Chemscore.Internal.Correction>
0.0065

> <Gold.Rescore>
     Score         DG    S(hbond)    S(metal)    S(lipo)     H(rot)  DE(clash)    DE(int)     intcor
     13.29     -14.70       2.06        0.00      47.75       1.27       0.14       1.27       ----

> <Gold.Chemscore.Fitness>
13.2872

> <Gold.Chemscore.DG>
-14.6963

> <Gold.Chemscore.ZeroCoef>
-5.4800

> <Gold.Chemscore.Hbond>
2.0610

> <Gold.Chemscore.Metal>
0.0000

> <Gold.Chemscore.Lipo>
47.7503

> <Gold.Chemscore.Internal_Hbond>
0.0000

> <Gold.Chemscore.DEClash>
0.1438

> <Gold.Chemscore.DEInternal>
1.2653

> <Gold.Chemscore.Rot>
1.2712

> <Gold.Chemscore.Internal.Correction>
   9.000000E+99

> <Gold.Chemscore.Hbonds>
donor molecule, donor type, donor heavy atom, donor atom, acceptor molecule, acceptor atom, score
      L1  H     8    29       P1  7948  0.92
      L1  H    11    30       P1  7948  0.93
      P1  H  7989  7998       L1    15  0.03

> <Gold.Chemscore.Hbond.Weighted>
-6.8839

> <Gold.Chemscore.Metal.Weighted>
-0.0000

> <Gold.Chemscore.Lipo.Weighted>
-5.5868

> <Gold.Chemscore.Internal_Hbond.Weighted>
0.0000

> <Gold.Chemscore.DEClash.Weighted>
0.1438

> <Gold.Chemscore.DEInternal.Weighted>
1.2653

> <Gold.Chemscore.Rot.Weighted>
3.2544

> <Gold.Chemscore.Internal.Correction.Weighted>
   9.000000E+99

> <Gold.Protein.RotatedTorsions>
[ 6907 6896 6895 6894 ] final   49.18 input  -60.11 | X-H torsion
[ 7974 7965 7964 7962 ] final  -57.06 input  175.53 | X-H torsion
[ 8008 7997 7996 7995 ] final  -37.62 input   59.86 | X-H torsion
[ 10167 10162 10161 10158 ] final  155.15 input  -65.29 | X-H torsion
[ 10718 10713 10712 10709 ] final   80.15 input   66.30 | X-H torsion
[ 10763 10752 10751 10750 ] final   -7.72 input  -60.55 | X-H torsion
[ 11005 11000 10999 10996 ] final -111.07 input  -57.11 | X-H torsion

> <Gold.Protein.ActiveResidues>
 VAL166  LYS551  ARG553  GLY616  TRP617  ASP618  TYR619  PRO620  LYS621  CYS622 
 ASP623  PHE694  ASN695  SER759  ASP760  ASP761  ALA762  ILE779  LEU786  VAL792 
 PHE793  MET794  SER795  GLU796  ALA797  LYS798  CYS799  TRP800  GLU811  SER814 

> <Gold.Protein.RotatedAtoms>
  152.2879  134.7755  160.0383 H   0  0  0  0  0  0  0  0  0  0  0  0  # atno 6907 bound_to 6896
  151.8311  133.3403  159.3622 H   0  0  0  0  0  0  0  0  0  0  0  0  # atno 6908 bound_to 6896
  150.7217  134.5411  159.5792 H   0  0  0  0  0  0  0  0  0  0  0  0  # atno 6909 bound_to 6896
  145.8555  140.8322  142.9964 H   0  0  0  0  0  0  0  0  0  0  0  0  # atno 7974 bound_to 7965
  154.4050  140.1599  156.2566 H   0  0  0  0  0  0  0  0  0  0  0  0  # atno 8008 bound_to 7997
  155.9073  140.3429  155.6049 H   0  0  0  0  0  0  0  0  0  0  0  0  # atno 8009 bound_to 7997
  155.7378  140.0788  157.2250 H   0  0  0  0  0  0  0  0  0  0  0  0  # atno 8010 bound_to 7997
  139.4822  144.5123  151.8005 H   0  0  0  0  0  0  0  0  0  0  0  0  # atno 10167 bound_to 10162
  157.6798  130.9946  150.2037 H   0  0  0  0  0  0  0  0  0  0  0  0  # atno 10718 bound_to 10713
  153.4303  135.7012  153.6235 H   0  0  0  0  0  0  0  0  0  0  0  0  # atno 10763 bound_to 10752
  153.4653  135.3727  155.2361 H   0  0  0  0  0  0  0  0  0  0  0  0  # atno 10764 bound_to 10752
  154.8725  135.4030  154.3685 H   0  0  0  0  0  0  0  0  0  0  0  0  # atno 10765 bound_to 10752
  141.0755  133.9308  157.2398 H   0  0  0  0  0  0  0  0  0  0  0  0  # atno 11005 bound_to 11000
  144.6728  140.1017  143.7460 LP  0  0  0  0  0  0  0  0  0  0  0  0  # atno 17320 bound_to 7965
  145.9309  139.2605  143.1326 LP  0  0  0  0  0  0  0  0  0  0  0  0  # atno 17321 bound_to 7965
  140.4628  144.1698  150.5908 LP  0  0  0  0  0  0  0  0  0  0  0  0  # atno 17342 bound_to 10162
  140.4466  143.2504  151.9403 LP  0  0  0  0  0  0  0  0  0  0  0  0  # atno 17343 bound_to 10162
  156.2723  130.3723  149.8019 LP  0  0  0  0  0  0  0  0  0  0  0  0  # atno 17370 bound_to 10713
  156.5733  130.8434  151.3362 LP  0  0  0  0  0  0  0  0  0  0  0  0  # atno 17371 bound_to 10713
  139.9568  135.0164  156.9150 LP  0  0  0  0  0  0  0  0  0  0  0  0  # atno 17394 bound_to 11000
  140.5582  134.0561  155.7390 LP  0  0  0  0  0  0  0  0  0  0  0  0  # atno 17395 bound_to 11000

$$$$
