AV-unprocessed.smi:103|AV-procd|sdf|981|dock4
  -GOLD-   2262017543D 1   1.00000     0.00000
 Structure written by MMmdl.
 53 55  0  0  0  0  0  0  0  0  1 V2000
  153.1952  142.1930  160.4439 C   0  0  0  0  0  0  0  0  0  0  0  0
  152.3872  142.9736  159.4159 C   0  0  0  0  0  0  0  0  0  0  0  0
  152.8452  143.9793  158.8733 O   0  0  0  0  0  0  0  0  0  0  0  0
  151.1773  142.4308  159.1946 O   0  0  0  0  0  0  0  0  0  0  0  0
  150.2691  143.0325  158.2830 C   0  0  0  0  0  0  0  0  0  0  0  0
  149.5189  141.9489  157.4924 C   0  0  2  0  0  0  0  0  0  0  0  0
  149.3798  140.7666  158.2733 O   0  0  0  0  0  0  0  0  0  0  0  0
  150.4145  139.8976  157.9703 C   0  0  1  0  0  0  0  0  0  0  0  0
  150.0486  138.5178  158.4687 N   0  0  0  0  0  0  0  0  0  0  0  0
  150.8975  137.4868  158.8478 C   0  0  0  0  0  0  0  0  0  0  0  0
  152.6935  137.4856  158.8626 S   0  0  0  0  0  0  0  0  0  0  0  0
  153.0941  139.0005  159.8261 C   0  0  0  0  0  0  0  0  0  0  0  0
  153.1327  136.2951  159.6038 O   0  0  0  0  0  0  0  0  0  0  0  0
  153.1296  137.6891  157.4717 O   0  0  0  0  0  0  0  0  0  0  0  0
  150.3401  136.3580  159.1883 N   0  0  0  0  0  0  0  0  0  0  0  0
  148.9893  136.6094  159.0377 C   0  0  0  0  0  0  0  0  0  0  0  0
  147.8245  135.8243  159.2310 C   0  0  0  0  0  0  0  0  0  0  0  0
  147.8619  134.5539  159.6559 N   0  0  0  0  0  0  0  0  0  0  0  0
  146.6189  136.3780  158.9711 N   0  0  0  0  0  0  0  0  0  0  0  0
  146.5582  137.6396  158.5394 C   0  0  0  0  0  0  0  0  0  0  0  0
  147.5611  138.4905  158.3138 N   0  0  0  0  0  0  0  0  0  0  0  0
  148.7854  137.9447  158.5814 C   0  0  0  0  0  0  0  0  0  0  0  0
  150.5885  140.0335  156.4572 C   0  0  2  0  0  0  0  0  0  0  0  0
  151.9220  139.7075  156.0846 O   0  0  0  0  0  0  0  0  0  0  0  0
  152.1694  139.1251  154.8984 C   0  0  0  0  0  0  0  0  0  0  0  0
  153.5514  138.4887  154.8422 C   0  0  0  0  0  0  0  0  0  0  0  0
  151.4006  139.0800  153.9382 O   0  0  0  0  0  0  0  0  0  0  0  0
  150.3033  141.5151  156.2420 C   0  0  1  0  0  0  0  0  0  0  0  0
  149.5324  141.6763  155.0583 O   0  0  0  0  0  0  0  0  0  0  0  0
  148.3166  141.1140  154.9601 C   0  0  0  0  0  0  0  0  0  0  0  0
  147.7321  141.2393  153.5598 C   0  0  0  0  0  0  0  0  0  0  0  0
  147.7044  140.5482  155.8660 O   0  0  0  0  0  0  0  0  0  0  0  0
  153.7956  141.4306  159.9472 H   0  0  0  0  0  0  0  0  0  0  0  0
  152.5369  141.7032  161.1620 H   0  0  0  0  0  0  0  0  0  0  0  0
  153.8638  142.8597  160.9885 H   0  0  0  0  0  0  0  0  0  0  0  0
  149.5552  143.6087  158.8721 H   0  0  0  0  0  0  0  0  0  0  0  0
  150.7493  143.7392  157.6047 H   0  0  0  0  0  0  0  0  0  0  0  0
  148.5247  142.3113  157.2269 H   0  0  0  0  0  0  0  0  0  0  0  0
  151.3152  140.1683  158.5203 H   0  0  0  0  0  0  0  0  0  0  0  0
  154.1748  139.1379  159.8436 H   0  0  0  0  0  0  0  0  0  0  0  0
  152.7341  138.9032  160.8477 H   0  0  0  0  0  0  0  0  0  0  0  0
  152.6272  139.8645  159.3543 H   0  0  0  0  0  0  0  0  0  0  0  0
  148.7502  134.1156  159.8535 H   0  0  0  0  0  0  0  0  0  0  0  0
  147.0026  134.0389  159.7814 H   0  0  0  0  0  0  0  0  0  0  0  0
  145.5669  138.0229  158.3478 H   0  0  0  0  0  0  0  0  0  0  0  0
  149.8296  139.4347  155.9532 H   0  0  0  0  0  0  0  0  0  0  0  0
  153.5964  137.6268  155.5079 H   0  0  0  0  0  0  0  0  0  0  0  0
  154.3129  139.2058  155.1491 H   0  0  0  0  0  0  0  0  0  0  0  0
  153.7787  138.1561  153.8293 H   0  0  0  0  0  0  0  0  0  0  0  0
  151.2457  142.0625  156.1761 H   0  0  0  0  0  0  0  0  0  0  0  0
  147.5105  142.2830  153.3357 H   0  0  0  0  0  0  0  0  0  0  0  0
  146.8103  140.6635  153.4761 H   0  0  0  0  0  0  0  0  0  0  0  0
  148.4396  140.8678  152.8182 H   0  0  0  0  0  0  0  0  0  0  0  0
  1  2  1  0  0  0  0
  1 33  1  0  0  0  0
  1 34  1  0  0  0  0
  1 35  1  0  0  0  0
  2  3  2  0  0  0  0
  2  4  1  0  0  0  0
  4  5  1  0  0  0  0
  5  6  1  0  0  0  0
  5 36  1  0  0  0  0
  5 37  1  0  0  0  0
  6 28  1  0  0  0  0
  6  7  1  0  0  0  0
  6 38  1  0  0  0  0
  7  8  1  0  0  0  0
  8  9  1  0  0  0  0
  8 23  1  0  0  0  0
  8 39  1  0  0  0  0
  9 22  1  0  0  0  0
  9 10  1  0  0  0  0
 10 11  1  0  0  0  0
 10 15  2  0  0  0  0
 11 12  1  0  0  0  0
 11 13  2  0  0  0  0
 11 14  2  0  0  0  0
 12 40  1  0  0  0  0
 12 41  1  0  0  0  0
 12 42  1  0  0  0  0
 15 16  1  0  0  0  0
 16 22  2  0  0  0  0
 16 17  1  0  0  0  0
 17 18  1  0  0  0  0
 17 19  2  0  0  0  0
 18 43  1  0  0  0  0
 18 44  1  0  0  0  0
 19 20  1  0  0  0  0
 20 21  2  0  0  0  0
 20 45  1  0  0  0  0
 21 22  1  0  0  0  0
 23 24  1  0  0  0  0
 23 28  1  0  0  0  0
 23 46  1  0  0  0  0
 24 25  1  0  0  0  0
 25 26  1  0  0  0  0
 25 27  2  0  0  0  0
 26 47  1  0  0  0  0
 26 48  1  0  0  0  0
 26 49  1  0  0  0  0
 28 29  1  0  0  0  0
 28 50  1  0  0  0  0
 29 30  1  0  0  0  0
 30 31  1  0  0  0  0
 30 32  2  0  0  0  0
 31 51  1  0  0  0  0
 31 52  1  0  0  0  0
 31 53  1  0  0  0  0
M  END
> <s_m_source_file>
AV-unprocessed.smi

> <i_m_source_file_index>
103

> <i_lp_mmshare_version>
43012

> <i_f3d_flags>
0

> <s_epik_input>
W0NIM11DKD1PKU9bQ0gyXVtDQEBIXTFPW0NASF0oW0NAQEhdKE9DKD1PKVtDSDNdKVtDQEhdMU9DKD1PKVtDSDNdKW4oYyhuMilTKD1PKSg9TylbQ0gzXSljKGMyMyluW2NIXW5jM1tOSDJd

> <s_epik_cmdline>
J2VwaWtfcHl0aG9uJywgJy1waCcsICc3LjAnLCAnLXRuJywgJzgnLCAnLW1hJywgJzIwMCcsICctbWV0YWxfYmluZGluZycsICctaW1hZScsICc8aW5maWxlLm1hZT4nLCAnLW9tYWUnLCAnPG91dGZpbGUubWFlPic=

> <r_lp_tautomer_probability>
1

> <r_epik_Ionization_Penalty>
1.51338e-05

> <r_epik_Ionization_Penalty_Charging>
0

> <r_epik_Ionization_Penalty_Neutral>
1.51338e-05

> <r_epik_State_Penalty>
-0

> <r_epik_Charging_Adjusted_Penalty>
0

> <i_epik_Tot_Q>
0

> <i_epik_Tot_abs_Q>
0

> <r_epik_Metal_State_Penalty>
-0

> <b_epik_Metal_Only>
0

> <s_epik_Chemistry_Notes>
This compound has an ester and may undergo hydrolysis at high or low pH. This compound contains an acetal/aminal-like group ( X-CH(R)-Y where X, Y are N, S, or O) that may be acid/base labile, releasing an aldehyde.

> <s_lp_Force_Field>
OPLS_2005

> <r_lp_Energy>
16.7775

> <b_lp_Chiralities_Consistent>
1

> <s_lp_Variant>
AV-unprocessed.smi:103-5

> <Gold.Version>
5.8.1

> <Gold.Id.Protein>
6NUR|6NUR_protein|mol2

> <Gold.PLP.Fitness>
43.5469

> <Gold.PLP.PLP>
-40.4204

> <Gold.PLP.part.hbond>
-4.0000

> <Gold.PLP.part.metal>
0.0000

> <Gold.PLP.part.buried>
-3.9002

> <Gold.PLP.part.nonpolar>
-33.5635

> <Gold.PLP.part.repulsive>
0.4921

> <Gold.PLP.ligand.clash>
0.0000

> <Gold.PLP.ligand.torsion>
3.2217

> <Gold.PLP.Chemscore.Hbond>
2.4224

> <Gold.PLP.Chemscore.CHOScore>
0.0000

> <Gold.PLP.Chemscore.Metal>
0.0000

> <Gold.Chemscore.Hbonds>
donor molecule, donor type, donor heavy atom, donor atom, acceptor molecule, acceptor atom, score
      P1  H  6896  6908       L1    15  0.75
      P1  H  6896  6909       L1    13  0.98
      P1  H  7989  7998       L1    27  0.72

> <Gold.PLP.Chemscore.Internal.Correction>
2.3027

> <Gold.Rescore>
     Score         DG    S(hbond)    S(metal)    S(lipo)     H(rot)  DE(clash)    DE(int)     intcor
     -1.92      -7.40       1.69        0.00      61.13       4.25       1.03       8.30       ----

> <Gold.Chemscore.Fitness>
-1.9225

> <Gold.Chemscore.DG>
-7.4032

> <Gold.Chemscore.ZeroCoef>
-5.4800

> <Gold.Chemscore.Hbond>
1.6884

> <Gold.Chemscore.Metal>
0.0000

> <Gold.Chemscore.Lipo>
61.1341

> <Gold.Chemscore.Internal_Hbond>
0.0000

> <Gold.Chemscore.DEClash>
1.0289

> <Gold.Chemscore.DEInternal>
8.2969

> <Gold.Chemscore.Rot>
4.2456

> <Gold.Chemscore.Internal.Correction>
   9.000000E+99

> <Gold.Chemscore.Hbonds>
donor molecule, donor type, donor heavy atom, donor atom, acceptor molecule, acceptor atom, score
      P1  H  6896  6908       L1    15  0.69
      P1  H  6896  6909       L1    13  0.93
      P1  H  7989  7998       L1    27  0.09

> <Gold.Chemscore.Hbond.Weighted>
-5.6392

> <Gold.Chemscore.Metal.Weighted>
-0.0000

> <Gold.Chemscore.Lipo.Weighted>
-7.1527

> <Gold.Chemscore.Internal_Hbond.Weighted>
0.0000

> <Gold.Chemscore.DEClash.Weighted>
1.0289

> <Gold.Chemscore.DEInternal.Weighted>
8.2969

> <Gold.Chemscore.Rot.Weighted>
10.8687

> <Gold.Chemscore.Internal.Correction.Weighted>
   9.000000E+99

> <Gold.Protein.RotatedTorsions>
[ 6907 6896 6895 6894 ] final  174.30 input  -60.11 | X-H torsion
[ 7974 7965 7964 7962 ] final -169.13 input  175.53 | X-H torsion
[ 8008 7997 7996 7995 ] final   59.44 input   59.86 | X-H torsion
[ 10167 10162 10161 10158 ] final   48.88 input  -65.29 | X-H torsion
[ 10718 10713 10712 10709 ] final  -19.72 input   66.30 | X-H torsion
[ 10763 10752 10751 10750 ] final -179.01 input  -60.55 | X-H torsion
[ 11005 11000 10999 10996 ] final   31.63 input  -57.11 | X-H torsion

> <Gold.Protein.ActiveResidues>
 VAL166  LYS551  ARG553  GLY616  TRP617  ASP618  TYR619  PRO620  LYS621  CYS622 
 ASP623  PHE694  ASN695  SER759  ASP760  ASP761  ALA762  ILE779  LEU786  VAL792 
 PHE793  MET794  SER795  GLU796  ALA797  LYS798  CYS799  TRP800  GLU811  SER814 

> <Gold.Protein.RotatedAtoms>
  151.7545  133.3329  159.3400 H   0  0  0  0  0  0  0  0  0  0  0  0  # atno 6907 bound_to 6896
  150.7522  134.6162  159.6121 H   0  0  0  0  0  0  0  0  0  0  0  0  # atno 6908 bound_to 6896
  152.3446  134.7090  160.0305 H   0  0  0  0  0  0  0  0  0  0  0  0  # atno 6909 bound_to 6896
  144.7191  140.2267  143.6309 H   0  0  0  0  0  0  0  0  0  0  0  0  # atno 7974 bound_to 7965
  155.5662  140.3489  155.4504 H   0  0  0  0  0  0  0  0  0  0  0  0  # atno 8008 bound_to 7997
  156.0477  140.1310  157.0110 H   0  0  0  0  0  0  0  0  0  0  0  0  # atno 8009 bound_to 7997
  154.4420  140.1011  156.6316 H   0  0  0  0  0  0  0  0  0  0  0  0  # atno 8010 bound_to 7997
  140.2887  144.3071  150.6246 H   0  0  0  0  0  0  0  0  0  0  0  0  # atno 10167 bound_to 10162
  156.5418  130.4680  149.6495 H   0  0  0  0  0  0  0  0  0  0  0  0  # atno 10718 bound_to 10713
  154.5405  135.2806  155.1100 H   0  0  0  0  0  0  0  0  0  0  0  0  # atno 10763 bound_to 10752
  154.2585  135.6326  153.5269 H   0  0  0  0  0  0  0  0  0  0  0  0  # atno 10764 bound_to 10752
  152.9977  135.5600  154.5942 H   0  0  0  0  0  0  0  0  0  0  0  0  # atno 10765 bound_to 10752
  140.2819  134.2963  155.7798 H   0  0  0  0  0  0  0  0  0  0  0  0  # atno 11005 bound_to 11000
  145.8450  139.2148  143.1805 LP  0  0  0  0  0  0  0  0  0  0  0  0  # atno 17320 bound_to 7965
  146.0313  140.8255  142.9875 LP  0  0  0  0  0  0  0  0  0  0  0  0  # atno 17321 bound_to 7965
  140.5750  143.2177  151.7531 LP  0  0  0  0  0  0  0  0  0  0  0  0  # atno 17342 bound_to 10162
  139.4943  144.4162  152.0027 LP  0  0  0  0  0  0  0  0  0  0  0  0  # atno 17343 bound_to 10162
  156.2965  130.7153  151.2014 LP  0  0  0  0  0  0  0  0  0  0  0  0  # atno 17370 bound_to 10713
  157.7404  131.0517  150.5169 LP  0  0  0  0  0  0  0  0  0  0  0  0  # atno 17371 bound_to 10713
  141.2161  133.7531  156.9493 LP  0  0  0  0  0  0  0  0  0  0  0  0  # atno 17394 bound_to 11000
  140.1275  134.9377  157.2291 LP  0  0  0  0  0  0  0  0  0  0  0  0  # atno 17395 bound_to 11000

$$$$
