AV-unprocessed.smi:232|AV-procd|sdf|1781|dock7
  -GOLD-   2262020333D 1   1.00000     0.00000
 Structure written by MMmdl.
 52 55  0  0  0  0  0  0  0  0  1 V2000
  153.5503  141.2576  159.3972 C   0  0  0  0  0  0  0  0  0  0  0  0
  152.0347  141.4647  159.2923 C   0  0  0  0  0  0  0  0  0  0  0  0
  151.6322  142.9495  159.1774 C   0  0  2  0  0  0  0  0  0  0  0  0
  152.4769  143.8975  160.0401 C   0  0  0  0  0  0  0  0  0  0  0  0
  151.5199  145.0324  160.4251 C   0  0  0  0  0  0  0  0  0  0  0  0
  150.1784  144.6434  159.7908 C   0  0  2  0  0  0  0  0  0  0  0  0
  148.9593  145.0811  160.6198 C   0  0  0  0  0  0  0  0  0  0  0  0
  150.2603  143.2003  159.6050 N   0  0  0  0  0  0  0  0  0  0  0  0
  149.2897  142.6672  158.8264 C   0  0  0  0  0  0  0  0  0  0  0  0
  148.0245  142.5187  159.3022 N   0  0  0  0  0  0  0  0  0  0  0  0
  147.0747  141.9980  158.5192 C   0  0  0  0  0  0  0  0  0  0  0  0
  147.1730  141.5701  157.2580 N   0  0  0  0  0  0  0  0  0  0  0  0
  148.4437  141.7162  156.7838 C   0  0  0  0  0  0  0  0  0  0  0  0
  149.5527  142.2495  157.4964 C   0  0  0  0  0  0  0  0  0  0  0  0
  150.6861  142.2434  156.6935 N   0  0  0  0  0  0  0  0  0  0  0  0
  150.2693  141.7359  155.5650 C   0  0  0  0  0  0  0  0  0  0  0  0
  148.9358  141.3940  155.5325 N   0  0  0  0  0  0  0  0  0  0  0  0
  148.2091  140.8227  154.4135 C   0  0  0  0  0  0  0  0  0  0  0  0
  148.4100  139.2991  154.3044 C   0  0  1  0  0  0  0  0  0  0  0  0
  148.2716  138.8724  152.9616 O   0  0  0  0  0  0  0  0  0  0  0  0
  149.7592  138.8335  154.8878 C   0  0  1  0  0  0  0  0  0  0  0  0
  150.0287  137.3202  154.8737 C   0  0  0  0  0  0  0  0  0  0  0  0
  151.4946  137.2124  154.4748 C   0  0  0  0  0  0  0  0  0  0  0  0
  152.0037  138.6499  154.5411 C   0  0  0  0  0  0  0  0  0  0  0  0
  150.8607  139.4188  154.2074 O   0  0  0  0  0  0  0  0  0  0  0  0
  153.7926  140.1957  159.4408 H   0  0  0  0  0  0  0  0  0  0  0  0
  153.9560  141.7260  160.2941 H   0  0  0  0  0  0  0  0  0  0  0  0
  154.0647  141.6810  158.5343 H   0  0  0  0  0  0  0  0  0  0  0  0
  151.6780  140.9185  158.4185 H   0  0  0  0  0  0  0  0  0  0  0  0
  151.5420  141.0119  160.1538 H   0  0  0  0  0  0  0  0  0  0  0  0
  151.7331  143.2623  158.1364 H   0  0  0  0  0  0  0  0  0  0  0  0
  152.8260  143.3956  160.9436 H   0  0  0  0  0  0  0  0  0  0  0  0
  153.3537  144.2583  159.5017 H   0  0  0  0  0  0  0  0  0  0  0  0
  151.4396  145.0892  161.5117 H   0  0  0  0  0  0  0  0  0  0  0  0
  151.8630  146.0034  160.0672 H   0  0  0  0  0  0  0  0  0  0  0  0
  150.1184  145.1131  158.8071 H   0  0  0  0  0  0  0  0  0  0  0  0
  148.9589  146.1610  160.7682 H   0  0  0  0  0  0  0  0  0  0  0  0
  148.9587  144.6092  161.6028 H   0  0  0  0  0  0  0  0  0  0  0  0
  148.0241  144.8192  160.1242 H   0  0  0  0  0  0  0  0  0  0  0  0
  146.0956  141.9126  158.9672 H   0  0  0  0  0  0  0  0  0  0  0  0
  150.9250  141.6021  154.7166 H   0  0  0  0  0  0  0  0  0  0  0  0
  147.1514  141.0652  154.5250 H   0  0  0  0  0  0  0  0  0  0  0  0
  148.5478  141.3145  153.5008 H   0  0  0  0  0  0  0  0  0  0  0  0
  147.6174  138.8061  154.8689 H   0  0  0  0  0  0  0  0  0  0  0  0
  148.7075  138.0395  152.8655 H   0  0  0  0  0  0  0  0  0  0  0  0
  149.8199  139.1765  155.9224 H   0  0  0  0  0  0  0  0  0  0  0  0
  149.8464  136.8886  155.8585 H   0  0  0  0  0  0  0  0  0  0  0  0
  149.4044  136.7817  154.1607 H   0  0  0  0  0  0  0  0  0  0  0  0
  152.0623  136.5393  155.1180 H   0  0  0  0  0  0  0  0  0  0  0  0
  151.5697  136.8423  153.4515 H   0  0  0  0  0  0  0  0  0  0  0  0
  152.3301  138.9012  155.5517 H   0  0  0  0  0  0  0  0  0  0  0  0
  152.8308  138.8368  153.8559 H   0  0  0  0  0  0  0  0  0  0  0  0
  1  2  1  0  0  0  0
  1 26  1  0  0  0  0
  1 27  1  0  0  0  0
  1 28  1  0  0  0  0
  2  3  1  0  0  0  0
  2 29  1  0  0  0  0
  2 30  1  0  0  0  0
  3  8  1  0  0  0  0
  3  4  1  0  0  0  0
  3 31  1  0  0  0  0
  4  5  1  0  0  0  0
  4 32  1  0  0  0  0
  4 33  1  0  0  0  0
  5  6  1  0  0  0  0
  5 34  1  0  0  0  0
  5 35  1  0  0  0  0
  6  7  1  0  0  0  0
  6  8  1  0  0  0  0
  6 36  1  0  0  0  0
  7 37  1  0  0  0  0
  7 38  1  0  0  0  0
  7 39  1  0  0  0  0
  8  9  1  0  0  0  0
  9 14  1  0  0  0  0
  9 10  2  0  0  0  0
 10 11  1  0  0  0  0
 11 12  2  0  0  0  0
 11 40  1  0  0  0  0
 12 13  1  0  0  0  0
 13 17  1  0  0  0  0
 13 14  2  0  0  0  0
 14 15  1  0  0  0  0
 15 16  2  0  0  0  0
 16 17  1  0  0  0  0
 16 41  1  0  0  0  0
 17 18  1  0  0  0  0
 18 19  1  0  0  0  0
 18 42  1  0  0  0  0
 18 43  1  0  0  0  0
 19 20  1  0  0  0  0
 19 21  1  0  0  0  0
 19 44  1  0  0  0  0
 20 45  1  0  0  0  0
 21 25  1  0  0  0  0
 21 22  1  0  0  0  0
 21 46  1  0  0  0  0
 22 23  1  0  0  0  0
 22 47  1  0  0  0  0
 22 48  1  0  0  0  0
 23 24  1  0  0  0  0
 23 49  1  0  0  0  0
 23 50  1  0  0  0  0
 24 25  1  0  0  0  0
 24 51  1  0  0  0  0
 24 52  1  0  0  0  0
M  END
> <s_m_source_file>
AV-unprocessed.smi

> <i_m_source_file_index>
232

> <i_lp_mmshare_version>
43012

> <i_f3d_flags>
0

> <s_epik_input>
W0NIM11bQ0gyXVtDQEBIXTFbQ0gyXVtDSDJdW0NAQEhdKFtDSDNdKU4xYyhuW2NIXW4yKWMoYzIzKW5bY0hdbjNbQ0gyXVtDQEhdKFtPSF0pW0NAQEhdNFtDSDJdW0NIMl1bQ0gyXU80

> <s_epik_cmdline>
J2VwaWtfcHl0aG9uJywgJy1waCcsICc3LjAnLCAnLXRuJywgJzgnLCAnLW1hJywgJzIwMCcsICctbWV0YWxfYmluZGluZycsICctaW1hZScsICc8aW5maWxlLm1hZT4nLCAnLW9tYWUnLCAnPG91dGZpbGUubWFlPic=

> <r_lp_tautomer_probability>
1

> <r_epik_Ionization_Penalty>
0.00258048

> <r_epik_Ionization_Penalty_Charging>
0

> <r_epik_Ionization_Penalty_Neutral>
0.00258048

> <r_epik_State_Penalty>
0.00168551

> <r_epik_Charging_Adjusted_Penalty>
0.00168551

> <i_epik_Tot_Q>
0

> <i_epik_Tot_abs_Q>
0

> <r_epik_Metal_State_Penalty>
-0

> <b_epik_Metal_Only>
0

> <s_lp_Force_Field>
OPLS_2005

> <r_lp_Energy>
54.2714

> <b_lp_Chiralities_Consistent>
1

> <s_lp_Variant>
AV-unprocessed.smi:232-15

> <Gold.Version>
5.8.1

> <Gold.Id.Protein>
6NUR|6NUR_protein|mol2

> <Gold.PLP.Fitness>
47.3836

> <Gold.PLP.PLP>
-43.8714

> <Gold.PLP.part.hbond>
-4.9024

> <Gold.PLP.part.metal>
0.0000

> <Gold.PLP.part.buried>
-3.2378

> <Gold.PLP.part.nonpolar>
-35.9877

> <Gold.PLP.part.repulsive>
0.5540

> <Gold.PLP.ligand.clash>
0.0047

> <Gold.PLP.ligand.torsion>
1.3472

> <Gold.PLP.Chemscore.Hbond>
2.0341

> <Gold.PLP.Chemscore.CHOScore>
0.0000

> <Gold.PLP.Chemscore.Metal>
0.0000

> <Gold.Chemscore.Hbonds>
donor molecule, donor type, donor heavy atom, donor atom, acceptor molecule, acceptor atom, score
      L1  H    20    45       P1  7948  0.93
      P1  H  6933  6944       L1    10  0.23
      P1  H  7989  7998       L1    25  1.00

> <Gold.PLP.Chemscore.Internal.Correction>
0.1092

> <Gold.Rescore>
     Score         DG    S(hbond)    S(metal)    S(lipo)     H(rot)  DE(clash)    DE(int)     intcor
     10.53     -15.14       1.43        0.00      94.71       2.43       0.02       4.60       ----

> <Gold.Chemscore.Fitness>
10.5264

> <Gold.Chemscore.DG>
-15.1429

> <Gold.Chemscore.ZeroCoef>
-5.4800

> <Gold.Chemscore.Hbond>
1.4348

> <Gold.Chemscore.Metal>
0.0000

> <Gold.Chemscore.Lipo>
94.7114

> <Gold.Chemscore.Internal_Hbond>
0.0000

> <Gold.Chemscore.DEClash>
0.0195

> <Gold.Chemscore.DEInternal>
4.5970

> <Gold.Chemscore.Rot>
2.4260

> <Gold.Chemscore.Internal.Correction>
   9.000000E+99

> <Gold.Chemscore.Hbonds>
donor molecule, donor type, donor heavy atom, donor atom, acceptor molecule, acceptor atom, score
      L1  H    20    45       P1  7948  0.84
      P1  H  6933  6944       L1    10  0.05
      P1  H  7989  7998       L1    25  0.26

> <Gold.Chemscore.Hbond.Weighted>
-4.7923

> <Gold.Chemscore.Metal.Weighted>
-0.0000

> <Gold.Chemscore.Lipo.Weighted>
-11.0812

> <Gold.Chemscore.Internal_Hbond.Weighted>
0.0000

> <Gold.Chemscore.DEClash.Weighted>
0.0195

> <Gold.Chemscore.DEInternal.Weighted>
4.5970

> <Gold.Chemscore.Rot.Weighted>
6.2107

> <Gold.Chemscore.Internal.Correction.Weighted>
   9.000000E+99

> <Gold.Protein.RotatedTorsions>
[ 6907 6896 6895 6894 ] final -169.76 input  -60.11 | X-H torsion
[ 7974 7965 7964 7962 ] final   75.20 input  175.53 | X-H torsion
[ 8008 7997 7996 7995 ] final  129.12 input   59.86 | X-H torsion
[ 10167 10162 10161 10158 ] final   -7.20 input  -65.29 | X-H torsion
[ 10718 10713 10712 10709 ] final -120.82 input   66.30 | X-H torsion
[ 10763 10752 10751 10750 ] final   81.62 input  -60.55 | X-H torsion
[ 11005 11000 10999 10996 ] final  -28.81 input  -57.11 | X-H torsion

> <Gold.Protein.ActiveResidues>
 VAL166  LYS551  ARG553  GLY616  TRP617  ASP618  TYR619  PRO620  LYS621  CYS622 
 ASP623  PHE694  ASN695  SER759  ASP760  ASP761  ALA762  ILE779  LEU786  VAL792 
 PHE793  MET794  SER795  GLU796  ALA797  LYS798  CYS799  TRP800  GLU811  SER814 

> <Gold.Protein.RotatedAtoms>
  151.4969  133.3513  159.2862 H   0  0  0  0  0  0  0  0  0  0  0  0  # atno 6907 bound_to 6896
  150.8798  134.8190  159.7228 H   0  0  0  0  0  0  0  0  0  0  0  0  # atno 6908 bound_to 6896
  152.4755  134.4865  159.9733 H   0  0  0  0  0  0  0  0  0  0  0  0  # atno 6909 bound_to 6896
  145.7186  139.2640  143.1609 H   0  0  0  0  0  0  0  0  0  0  0  0  # atno 7974 bound_to 7965
  156.2929  140.2628  156.2547 H   0  0  0  0  0  0  0  0  0  0  0  0  # atno 8008 bound_to 7997
  154.9848  140.0389  157.2312 H   0  0  0  0  0  0  0  0  0  0  0  0  # atno 8009 bound_to 7997
  154.7739  140.2783  155.6121 H   0  0  0  0  0  0  0  0  0  0  0  0  # atno 8010 bound_to 7997
  140.7021  143.6108  150.8706 H   0  0  0  0  0  0  0  0  0  0  0  0  # atno 10167 bound_to 10162
  156.1288  130.6379  150.9587 H   0  0  0  0  0  0  0  0  0  0  0  0  # atno 10718 bound_to 10713
  153.1132  135.4758  154.9071 H   0  0  0  0  0  0  0  0  0  0  0  0  # atno 10763 bound_to 10752
  154.7502  135.3104  154.8573 H   0  0  0  0  0  0  0  0  0  0  0  0  # atno 10764 bound_to 10752
  153.9157  135.6860  153.4803 H   0  0  0  0  0  0  0  0  0  0  0  0  # atno 10765 bound_to 10752
  140.9241  133.7380  156.0843 H   0  0  0  0  0  0  0  0  0  0  0  0  # atno 11005 bound_to 11000
  146.0647  140.7934  142.9717 LP  0  0  0  0  0  0  0  0  0  0  0  0  # atno 17320 bound_to 7965
  144.6923  140.3250  143.7226 LP  0  0  0  0  0  0  0  0  0  0  0  0  # atno 17321 bound_to 7965
  139.9830  143.5930  152.2936 LP  0  0  0  0  0  0  0  0  0  0  0  0  # atno 17342 bound_to 10162
  139.6558  144.7662  151.2059 LP  0  0  0  0  0  0  0  0  0  0  0  0  # atno 17343 bound_to 10162
  157.6468  131.0903  150.8137 LP  0  0  0  0  0  0  0  0  0  0  0  0  # atno 17370 bound_to 10713
  156.8224  130.4988  149.5341 LP  0  0  0  0  0  0  0  0  0  0  0  0  # atno 17371 bound_to 10713
  140.7949  134.3575  157.5455 LP  0  0  0  0  0  0  0  0  0  0  0  0  # atno 17394 bound_to 11000
  139.8781  134.9163  156.3151 LP  0  0  0  0  0  0  0  0  0  0  0  0  # atno 17395 bound_to 11000

$$$$
