#       Name:                AV-unprocessed.smi:1185
#       Creating user name   scv26
#       Creation time:       Fri Mar 27 03:56:56 2020


#       File generated by GOLD software.
#

@<TRIPOS>MOLECULE
AV-unprocessed.smi:1185
    43    45     1
SMALL
NO_CHARGES


@<TRIPOS>ATOM
      1 ****         0.6008  -3.2844  -1.0048 O.2            1 S1                 0.0000
      2 ****        -0.0213  -2.2273  -1.1153 C.2            1 S1                 0.0000
      3 ****        -1.4889  -2.1393  -1.0745 C.2            1 S1                 0.0000
      4 ****        -2.2779  -3.4317  -0.8825 C.3            1 S1                 0.0000
      5 ****        -3.5909  -3.2043  -0.8242 F              1 S1                 0.0000
      6 ****        -2.0532  -4.2708  -1.8942 F              1 S1                 0.0000
      7 ****        -1.9190  -4.0381   0.2497 F              1 S1                 0.0000
      8 ****        -2.1010  -0.9357  -1.1924 C.2            1 S1                 0.0000
      9 ****        -1.3165   0.2698  -1.3679 C.2            1 S1                 0.0000
     10 ****        -1.9288   1.6351  -1.4887 C.3            1 S1                 0.0000
     11 ****        -1.6814   2.7100  -0.4553 C.3            1 S1                 0.0000
     12 ****        -3.0520   2.0881  -0.5838 C.3            1 S1                 0.0000
     13 ****        -0.0301   0.1887  -1.4167 N.2            1 S1                 0.0000
     14 ****         0.6099  -1.0271  -1.2743 N.am           1 S1                 0.0000
     15 ****         2.0760  -0.9348  -1.2567 C.3            1 S1                 0.0000
     16 ****         2.6536  -0.9577   0.1778 C.3            1 S1                 0.0000
     17 ****         4.0594  -0.8380   0.0924 O.3            1 S1                 0.0000
     18 ****         2.0349   0.1067   1.0797 C.ar           1 S1                 0.0000
     19 ****         2.4242   1.4586   0.9490 C.ar           1 S1                 0.0000
     20 ****         1.8369   2.4512   1.7565 C.ar           1 S1                 0.0000
     21 ****         0.8530   2.1000   2.6998 C.ar           1 S1                 0.0000
     22 ****         0.4559   0.7560   2.8323 C.ar           1 S1                 0.0000
     23 ****         1.0425  -0.2388   2.0261 C.ar           1 S1                 0.0000
     24 ****         0.6366  -1.5243   2.1597 F              1 S1                 0.0000
     25 ****        -3.1767  -0.8493  -1.1601 H              1 S1                 0.0000
     26 ****        -1.9750   1.9480  -2.5301 H              1 S1                 0.0000
     27 ****        -1.0937   2.4484   0.4225 H              1 S1                 0.0000
     28 ****        -1.5558   3.7300  -0.8124 H              1 S1                 0.0000
     29 ****        -3.8394   2.6946  -1.0264 H              1 S1                 0.0000
     30 ****        -3.3710   1.4213   0.2152 H              1 S1                 0.0000
     31 ****         2.5097  -1.7419  -1.8501 H              1 S1                 0.0000
     32 ****         2.3859  -0.0151  -1.7571 H              1 S1                 0.0000
     33 ****         2.4644  -1.9381   0.6153 H              1 S1                 0.0000
     34 ****         4.4239  -0.9809   0.9525 H              1 S1                 0.0000
     35 ****         3.1705   1.7406   0.2209 H              1 S1                 0.0000
     36 ****         2.1387   3.4826   1.6492 H              1 S1                 0.0000
     37 ****         0.3998   2.8613   3.3174 H              1 S1                 0.0000
     38 ****        -0.3036   0.4873   3.5515 H              1 S1                 0.0000
     39 ****         1.6004  -3.2813  -1.0302 LP             1 S1                 0.0000
     40 ****         0.1062  -4.1459  -0.8896 LP             1 S1                 0.0000
     41 ****         0.5113   1.0172  -1.5596 LP             1 S1                 0.0000
     42 ****         4.3014   0.0774  -0.2291 LP             1 S1                 0.0000
     43 ****         4.4183  -1.5206  -0.5442 LP             1 S1                 0.0000
@<TRIPOS>BOND
    1    1    2 2     
    2    2   14 am    
    3    2    3 1     
    4    3    4 1     
    5    3    8 2     
    6    4    5 1     
    7    4    6 1     
    8    4    7 1     
    9    8    9 1     
   10    8   25 1     
   11    9   10 1     
   12    9   13 2     
   13   10   12 1     
   14   10   11 1     
   15   10   26 1     
   16   11   12 1     
   17   11   27 1     
   18   11   28 1     
   19   12   29 1     
   20   12   30 1     
   21   13   14 1     
   22   14   15 1     
   23   15   16 1     
   24   15   31 1     
   25   15   32 1     
   26   16   17 1     
   27   16   18 1     
   28   16   33 1     
   29   17   34 1     
   30   18   23 ar    
   31   18   19 ar    
   32   19   20 ar    
   33   19   35 1     
   34   20   21 ar    
   35   20   36 1     
   36   21   22 ar    
   37   21   37 1     
   38   22   23 ar    
   39   22   38 1     
   40   23   24 1     
   41    1   39 1     
   42    1   40 1     
   43   13   41 1     
   44   17   42 1     
   45   17   43 1     
@<TRIPOS>SUBSTRUCTURE
      1 S1             1
@<TRIPOS>SET
LONE_PAIRS      STATIC     ATOMS    <user>   **** ""
5 39 40 41 42 43
DONOR_HYDROGENS      STATIC     ATOMS    <user>   **** ""
1 34
ATOM$BLUE        STATIC     ATOMS    COLORGROUP SYSTEM
5 39 40 41 42 43
ATOM$RED        STATIC     ATOMS    COLORGROUP SYSTEM
1 34
