AV-unprocessed.smi:653|AV-procd|sdf|3207|dock9
  -GOLD-   22720 0143D 1   1.00000     0.00000
 Structure written by MMmdl.
 44 45  0  0  0  0  0  0  0  0  1 V2000
  154.9811  140.5685  162.4048 C   0  0  0  0  0  0  0  0  0  0  0  0
  154.0809  141.5530  161.6877 C   0  0  0  0  0  0  0  0  0  0  0  0
  153.3345  142.5080  162.4097 C   0  0  0  0  0  0  0  0  0  0  0  0
  152.5139  143.3996  161.6925 C   0  0  0  0  0  0  0  0  0  0  0  0
  152.4705  143.3028  160.2862 C   0  0  0  0  0  0  0  0  0  0  0  0
  151.5944  144.2344  159.4676 C   0  0  0  0  0  0  0  0  0  0  0  0
  150.4798  143.4499  158.7743 C   0  0  0  0  0  0  0  0  0  0  0  0
  149.3038  143.6557  159.0737 O   0  0  0  0  0  0  0  0  0  0  0  0
  150.8621  142.5560  157.8489 N   0  0  0  0  0  0  0  0  0  0  0  0
  149.9609  141.7014  157.0844 C   0  0  0  0  0  0  0  0  0  0  0  0
  150.6788  141.0032  155.9126 C   0  0  1  0  0  0  0  0  0  0  0  0
  151.9154  140.2211  156.3120 C   0  0  0  0  0  0  0  0  0  0  0  0
  152.0994  139.3031  155.1095 C   0  0  0  0  0  0  0  0  0  0  0  0
  150.7835  138.9965  154.6616 O   0  0  0  0  0  0  0  0  0  0  0  0
  149.8445  139.9077  155.2316 C   0  0  2  0  0  0  0  0  0  0  0  0
  148.8196  140.3886  154.1789 C   0  0  0  0  0  0  0  0  0  0  0  0
  148.0374  141.6067  154.6949 C   0  0  0  0  0  0  0  0  0  0  0  0
  147.8538  139.2832  153.7142 C   0  0  0  0  0  0  0  0  0  0  0  0
  153.2597  142.3140  159.6608 C   0  0  0  0  0  0  0  0  0  0  0  0
  154.0485  141.4545  160.3403 N   0  0  0  0  0  0  0  0  0  0  0  0
  154.7533  140.5313  163.4704 H   0  0  0  0  0  0  0  0  0  0  0  0
  156.0253  140.8591  162.2877 H   0  0  0  0  0  0  0  0  0  0  0  0
  154.8552  139.5647  161.9975 H   0  0  0  0  0  0  0  0  0  0  0  0
  153.3862  142.5575  163.4874 H   0  0  0  0  0  0  0  0  0  0  0  0
  151.9253  144.1407  162.2135 H   0  0  0  0  0  0  0  0  0  0  0  0
  151.1635  144.9972  160.1178 H   0  0  0  0  0  0  0  0  0  0  0  0
  152.1944  144.7574  158.7218 H   0  0  0  0  0  0  0  0  0  0  0  0
  151.8505  142.4534  157.6687 H   0  0  0  0  0  0  0  0  0  0  0  0
  149.5422  140.9600  157.7657 H   0  0  0  0  0  0  0  0  0  0  0  0
  149.1187  142.2902  156.7176 H   0  0  0  0  0  0  0  0  0  0  0  0
  150.9813  141.7490  155.1783 H   0  0  0  0  0  0  0  0  0  0  0  0
  152.7838  140.8537  156.4977 H   0  0  0  0  0  0  0  0  0  0  0  0
  151.7227  139.6301  157.2085 H   0  0  0  0  0  0  0  0  0  0  0  0
  152.6244  139.8264  154.3095 H   0  0  0  0  0  0  0  0  0  0  0  0
  152.6613  138.4009  155.3518 H   0  0  0  0  0  0  0  0  0  0  0  0
  149.3184  139.3543  156.0116 H   0  0  0  0  0  0  0  0  0  0  0  0
  149.3780  140.7228  153.3037 H   0  0  0  0  0  0  0  0  0  0  0  0
  147.4442  141.3536  155.5742 H   0  0  0  0  0  0  0  0  0  0  0  0
  147.3568  141.9887  153.9335 H   0  0  0  0  0  0  0  0  0  0  0  0
  148.7094  142.4202  154.9699 H   0  0  0  0  0  0  0  0  0  0  0  0
  147.2823  138.8765  154.5492 H   0  0  0  0  0  0  0  0  0  0  0  0
  148.3771  138.4576  153.2336 H   0  0  0  0  0  0  0  0  0  0  0  0
  147.1404  139.6717  152.9872 H   0  0  0  0  0  0  0  0  0  0  0  0
  153.2542  142.2048  158.5862 H   0  0  0  0  0  0  0  0  0  0  0  0
  1  2  1  0  0  0  0
  1 21  1  0  0  0  0
  1 22  1  0  0  0  0
  1 23  1  0  0  0  0
  2 20  1  0  0  0  0
  2  3  2  0  0  0  0
  3  4  1  0  0  0  0
  3 24  1  0  0  0  0
  4  5  2  0  0  0  0
  4 25  1  0  0  0  0
  5  6  1  0  0  0  0
  5 19  1  0  0  0  0
  6  7  1  0  0  0  0
  6 26  1  0  0  0  0
  6 27  1  0  0  0  0
  7  8  2  0  0  0  0
  7  9  1  0  0  0  0
  9 10  1  0  0  0  0
  9 28  1  0  0  0  0
 10 11  1  0  0  0  0
 10 29  1  0  0  0  0
 10 30  1  0  0  0  0
 11 15  1  0  0  0  0
 11 12  1  0  0  0  0
 11 31  1  0  0  0  0
 12 13  1  0  0  0  0
 12 32  1  0  0  0  0
 12 33  1  0  0  0  0
 13 14  1  0  0  0  0
 13 34  1  0  0  0  0
 13 35  1  0  0  0  0
 14 15  1  0  0  0  0
 15 16  1  0  0  0  0
 15 36  1  0  0  0  0
 16 17  1  0  0  0  0
 16 18  1  0  0  0  0
 16 37  1  0  0  0  0
 17 38  1  0  0  0  0
 17 39  1  0  0  0  0
 17 40  1  0  0  0  0
 18 41  1  0  0  0  0
 18 42  1  0  0  0  0
 18 43  1  0  0  0  0
 19 20  2  0  0  0  0
 19 44  1  0  0  0  0
M  END
> <s_m_source_file>
AV-unprocessed.smi

> <i_m_source_file_index>
653

> <i_lp_mmshare_version>
43012

> <i_f3d_flags>
0

> <s_epik_input>
W0NIM11jMVtjSF1bY0hdYyhbY0hdbjEpW0NIMl1DKD1PKVtOSF1bQ0gyXVtDQEBIXTJbQ0gyXVtDSDJdT1tDQEhdMltDSF0oW0NIM10pW0NIM10=

> <s_epik_cmdline>
J2VwaWtfcHl0aG9uJywgJy1waCcsICc3LjAnLCAnLXRuJywgJzgnLCAnLW1hJywgJzIwMCcsICctbWV0YWxfYmluZGluZycsICctaW1hZScsICc8aW5maWxlLm1hZT4nLCAnLW9tYWUnLCAnPG91dGZpbGUubWFlPic=

> <r_epik_Ionization_Penalty>
0.0166429

> <r_epik_Ionization_Penalty_Charging>
0

> <r_epik_Ionization_Penalty_Neutral>
0.0166429

> <r_epik_State_Penalty>
0.0131478

> <r_epik_Charging_Adjusted_Penalty>
0.0131478

> <i_epik_Tot_Q>
0

> <i_epik_Tot_abs_Q>
0

> <r_epik_Metal_State_Penalty>
0.012786

> <b_epik_Metal_Only>
0

> <s_lp_Force_Field>
OPLS_2005

> <r_lp_Energy>
17.7281

> <b_lp_Chiralities_Consistent>
1

> <s_lp_Variant>
AV-unprocessed.smi:653-4

> <Gold.Version>
5.8.1

> <Gold.Id.Protein>
6NUR|6NUR_protein|mol2

> <Gold.PLP.Fitness>
47.5066

> <Gold.PLP.PLP>
-48.0703

> <Gold.PLP.part.hbond>
0.0000

> <Gold.PLP.part.metal>
0.0000

> <Gold.PLP.part.buried>
-2.6002

> <Gold.PLP.part.nonpolar>
-44.6794

> <Gold.PLP.part.repulsive>
0.3340

> <Gold.PLP.ligand.clash>
0.0000

> <Gold.PLP.ligand.torsion>
0.2961

> <Gold.PLP.Chemscore.Hbond>
0.0000

> <Gold.PLP.Chemscore.CHOScore>
0.0000

> <Gold.PLP.Chemscore.Metal>
0.0000

> <Gold.PLP.Chemscore.Internal.Correction>
0.0286

> <Gold.Rescore>
     Score         DG    S(hbond)    S(metal)    S(lipo)     H(rot)  DE(clash)    DE(int)     intcor
     16.37     -16.72       0.00        0.00     128.54       1.48       0.04       0.30       ----

> <Gold.Chemscore.Fitness>
16.3748

> <Gold.Chemscore.DG>
-16.7178

> <Gold.Chemscore.ZeroCoef>
-5.4800

> <Gold.Chemscore.Hbond>
0.0000

> <Gold.Chemscore.Metal>
0.0000

> <Gold.Chemscore.Lipo>
128.5409

> <Gold.Chemscore.Internal_Hbond>
0.0000

> <Gold.Chemscore.DEClash>
0.0418

> <Gold.Chemscore.DEInternal>
0.3012

> <Gold.Chemscore.Rot>
1.4850

> <Gold.Chemscore.Internal.Correction>
   9.000000E+99

> <Gold.Chemscore.Hbond.Weighted>
-0.0000

> <Gold.Chemscore.Metal.Weighted>
-0.0000

> <Gold.Chemscore.Lipo.Weighted>
-15.0393

> <Gold.Chemscore.Internal_Hbond.Weighted>
0.0000

> <Gold.Chemscore.DEClash.Weighted>
0.0418

> <Gold.Chemscore.DEInternal.Weighted>
0.3012

> <Gold.Chemscore.Rot.Weighted>
3.8015

> <Gold.Chemscore.Internal.Correction.Weighted>
   9.000000E+99

> <Gold.Protein.RotatedTorsions>
[ 6907 6896 6895 6894 ] final  -54.53 input  -60.11 | X-H torsion
[ 7974 7965 7964 7962 ] final   74.65 input  175.53 | X-H torsion
[ 8008 7997 7996 7995 ] final  -13.29 input   59.86 | X-H torsion
[ 10167 10162 10161 10158 ] final   64.52 input  -65.29 | X-H torsion
[ 10718 10713 10712 10709 ] final -138.71 input   66.30 | X-H torsion
[ 10763 10752 10751 10750 ] final   78.71 input  -60.55 | X-H torsion
[ 11005 11000 10999 10996 ] final   26.99 input  -57.11 | X-H torsion

> <Gold.Protein.ActiveResidues>
 VAL166  LYS551  ARG553  GLY616  TRP617  ASP618  TYR619  PRO620  LYS621  CYS622 
 ASP623  PHE694  ASN695  SER759  ASP760  ASP761  ALA762  ILE779  LEU786  VAL792 
 PHE793  MET794  SER795  GLU796  ALA797  LYS798  CYS799  TRP800  GLU811  SER814 

> <Gold.Protein.RotatedAtoms>
  150.8330  134.7591  159.6868 H   0  0  0  0  0  0  0  0  0  0  0  0  # atno 6907 bound_to 6896
  152.4431  134.5547  159.9886 H   0  0  0  0  0  0  0  0  0  0  0  0  # atno 6908 bound_to 6896
  151.5703  133.3353  159.3024 H   0  0  0  0  0  0  0  0  0  0  0  0  # atno 6909 bound_to 6896
  145.7256  139.2664  143.1571 H   0  0  0  0  0  0  0  0  0  0  0  0  # atno 7974 bound_to 7965
  154.5305  140.2253  155.8813 H   0  0  0  0  0  0  0  0  0  0  0  0  # atno 8008 bound_to 7997
  156.1758  140.3111  155.9021 H   0  0  0  0  0  0  0  0  0  0  0  0  # atno 8009 bound_to 7997
  155.3462  140.0453  157.3036 H   0  0  0  0  0  0  0  0  0  0  0  0  # atno 8010 bound_to 7997
  140.1212  144.4729  150.6919 H   0  0  0  0  0  0  0  0  0  0  0  0  # atno 10167 bound_to 10162
  156.3025  130.7436  151.1492 H   0  0  0  0  0  0  0  0  0  0  0  0  # atno 10718 bound_to 10713
  153.0895  135.4867  154.8663 H   0  0  0  0  0  0  0  0  0  0  0  0  # atno 10763 bound_to 10752
  154.7252  135.3048  154.8985 H   0  0  0  0  0  0  0  0  0  0  0  0  # atno 10764 bound_to 10752
  153.9637  135.6809  153.4799 H   0  0  0  0  0  0  0  0  0  0  0  0  # atno 10765 bound_to 10752
  140.3311  134.2437  155.7702 H   0  0  0  0  0  0  0  0  0  0  0  0  # atno 11005 bound_to 11000
  146.0585  140.7995  142.9746 LP  0  0  0  0  0  0  0  0  0  0  0  0  # atno 17320 bound_to 7965
  144.6905  140.3160  143.7240 LP  0  0  0  0  0  0  0  0  0  0  0  0  # atno 17321 bound_to 7965
  140.6871  143.2355  151.5232 LP  0  0  0  0  0  0  0  0  0  0  0  0  # atno 17342 bound_to 10162
  139.5567  144.2257  152.1625 LP  0  0  0  0  0  0  0  0  0  0  0  0  # atno 17343 bound_to 10162
  157.7371  131.0555  150.5373 LP  0  0  0  0  0  0  0  0  0  0  0  0  # atno 17370 bound_to 10713
  156.5502  130.4230  149.6111 LP  0  0  0  0  0  0  0  0  0  0  0  0  # atno 17371 bound_to 10713
  141.2063  133.7837  157.0184 LP  0  0  0  0  0  0  0  0  0  0  0  0  # atno 17394 bound_to 11000
  140.0860  134.9620  157.1700 LP  0  0  0  0  0  0  0  0  0  0  0  0  # atno 17395 bound_to 11000

$$$$
