#       Name:                AV-unprocessed.smi:2999
#       Creating user name   scv26
#       Creation time:       Fri Mar 27 16:34:22 2020


#       File generated by GOLD software.
#

@<TRIPOS>MOLECULE
AV-unprocessed.smi:2999
    43    45     1
SMALL
NO_CHARGES


@<TRIPOS>ATOM
      1 ****        -0.9650   2.1667   1.8719 O.2            1 S1                 0.0000
      2 ****        -1.3768   1.0166   2.0238 C.2            1 S1                 0.0000
      3 ****        -0.5707  -0.0505   2.1160 N.am           1 S1                 0.0000
      4 ****         0.8879  -0.0122   2.0484 C.3            1 S1                 0.0000
      5 ****         1.4320  -0.0335   0.6050 C.3            1 S1                 0.0000
      6 ****         0.8784  -1.1972  -0.2502 C.3            1 S1                 0.0000
      7 ****         1.3925  -1.1416  -1.6391 N.4            1 S1                 1.0000
      8 ****         2.7895  -1.6168  -1.7712 C.3            1 S1                 0.0000
      9 ****         3.0772  -2.2795  -3.0978 C.3            1 S1                 0.0000
     10 ****         2.9128  -3.1205  -1.8514 C.3            1 S1                 0.0000
     11 ****         1.1672   0.1968  -2.2345 C.3            1 S1                 0.0000
     12 ****         1.7102   1.3135  -1.3241 C.3            1 S1                 0.0000
     13 ****         1.1286   1.2039  -0.0312 O.3            1 S1                 0.0000
     14 ****        -2.6694   0.6586   2.1152 N.am           1 S1                 0.0000
     15 ****        -3.8169   1.4922   2.0534 C.2            1 S1                 0.0000
     16 ****        -3.7776   2.8185   1.8803 N.2            1 S1                 0.0000
     17 ****        -5.0559   3.3820   1.8579 C.2            1 S1                 0.0000
     18 ****        -6.0636   2.4632   2.0146 C.2            1 S1                 0.0000
     19 ****        -5.4440   0.8441   2.1987 S.3            1 S1                 0.0000
     20 ****        -0.9962  -0.9566   2.2465 H              1 S1                 0.0000
     21 ****         1.2722   0.8555   2.5870 H              1 S1                 0.0000
     22 ****         1.2585  -0.8870   2.5831 H              1 S1                 0.0000
     23 ****         2.5173  -0.1199   0.6750 H              1 S1                 0.0000
     24 ****         1.1192  -2.1595   0.2028 H              1 S1                 0.0000
     25 ****        -0.2096  -1.1420  -0.3008 H              1 S1                 0.0000
     26 ****         3.5594  -1.0301  -1.2741 H              1 S1                 0.0000
     27 ****         2.2800  -2.3175  -3.8383 H              1 S1                 0.0000
     28 ****         4.0825  -2.1787  -3.5019 H              1 S1                 0.0000
     29 ****         3.8100  -3.5732  -1.4340 H              1 S1                 0.0000
     30 ****         2.0074  -3.7187  -1.7654 H              1 S1                 0.0000
     31 ****         1.6188   0.2513  -3.2256 H              1 S1                 0.0000
     32 ****         0.0942   0.3345  -2.3741 H              1 S1                 0.0000
     33 ****         2.7979   1.2749  -1.2524 H              1 S1                 0.0000
     34 ****         1.4579   2.2893  -1.7398 H              1 S1                 0.0000
     35 ****        -2.8559  -0.3247   2.2442 H              1 S1                 0.0000
     36 ****        -5.1571   4.4488   1.7247 H              1 S1                 0.0000
     37 ****        -7.1286   2.6406   2.0326 H              1 S1                 0.0000
     38 ****         0.8371  -1.7915  -2.1769 H              1 S1                 0.0000
     39 ****         0.0176   2.3420   1.8111 LP             1 S1                 0.0000
     40 ****        -1.6131   2.9257   1.8094 LP             1 S1                 0.0000
     41 ****         1.4733   1.9497   0.5389 LP             1 S1                 0.0000
     42 ****         0.1356   1.2833  -0.1193 LP             1 S1                 0.0000
     43 ****        -2.9331   3.3443   1.7790 LP             1 S1                 0.0000
@<TRIPOS>BOND
    1    1    2 2     
    2    2    3 am    
    3    2   14 am    
    4    3    4 1     
    5    3   20 1     
    6    4    5 1     
    7    4   21 1     
    8    4   22 1     
    9    5   13 1     
   10    5    6 1     
   11    5   23 1     
   12    6    7 1     
   13    6   24 1     
   14    6   25 1     
   15    7    8 1     
   16    7   11 1     
   17    7   38 1     
   18    8   10 1     
   19    8    9 1     
   20    8   26 1     
   21    9   10 1     
   22    9   27 1     
   23    9   28 1     
   24   10   29 1     
   25   10   30 1     
   26   11   12 1     
   27   11   31 1     
   28   11   32 1     
   29   12   13 1     
   30   12   33 1     
   31   12   34 1     
   32   14   15 1     
   33   14   35 1     
   34   15   19 1     
   35   15   16 2     
   36   16   17 1     
   37   17   18 2     
   38   17   36 1     
   39   18   19 1     
   40   18   37 1     
   41    1   39 1     
   42    1   40 1     
   43   13   41 1     
   44   13   42 1     
   45   16   43 1     
@<TRIPOS>SUBSTRUCTURE
      1 S1             1
@<TRIPOS>SET
LONE_PAIRS      STATIC     ATOMS    <user>   **** ""
5 39 40 41 42 43
DONOR_HYDROGENS      STATIC     ATOMS    <user>   **** ""
3 20 38 35
ATOM$BLUE        STATIC     ATOMS    COLORGROUP SYSTEM
5 39 40 41 42 43
ATOM$RED        STATIC     ATOMS    COLORGROUP SYSTEM
3 20 38 35
