#       Name:                AV-unprocessed.smi:2724
#       Creating user name   scv26
#       Creation time:       Fri Mar 27 14:55:15 2020


#       File generated by GOLD software.
#

@<TRIPOS>MOLECULE
AV-unprocessed.smi:2724
    28    29     1
SMALL
NO_CHARGES


@<TRIPOS>ATOM
      1 ****        -2.1938  -0.0473  -1.6051 O.3            1 S1                 0.0000
      2 ****        -0.7818  -0.0240  -1.5804 C.3            1 S1                 0.0000
      3 ****        -0.1954  -0.7966  -2.7608 C.3            1 S1                 0.0000
      4 ****         1.2299  -1.1219  -2.3167 C.3            1 S1                 0.0000
      5 ****         1.1615  -1.2930  -0.7922 C.3            1 S1                 0.0000
      6 ****        -0.2088  -0.7416  -0.3468 C.3            1 S1                 0.0000
      7 ****        -0.1382   0.1307   0.9002 C.ar           1 S1                 0.0000
      8 ****         0.6395   1.3120   0.9285 C.ar           1 S1                 0.0000
      9 ****         0.6732   2.0940   2.1016 C.ar           1 S1                 0.0000
     10 ****        -0.0713   1.6793   3.2242 C.ar           1 S1                 0.0000
     11 ****        -0.8019   0.5447   3.1636 N.pl3          1 S1                 1.0000
     12 ****        -0.8600  -0.2314   2.0590 C.ar           1 S1                 0.0000
     13 ****        -2.5180   0.4600  -0.8766 H              1 S1                 0.0000
     14 ****        -0.4328   1.0080  -1.6315 H              1 S1                 0.0000
     15 ****        -0.7469  -1.7260  -2.9136 H              1 S1                 0.0000
     16 ****        -0.2284  -0.2329  -3.6937 H              1 S1                 0.0000
     17 ****         1.6277  -2.0049  -2.8177 H              1 S1                 0.0000
     18 ****         1.8849  -0.2840  -2.5595 H              1 S1                 0.0000
     19 ****         1.2579  -2.3412  -0.5068 H              1 S1                 0.0000
     20 ****         1.9948  -0.7628  -0.3297 H              1 S1                 0.0000
     21 ****        -0.8440  -1.6034  -0.1316 H              1 S1                 0.0000
     22 ****         1.2068   1.6182   0.0615 H              1 S1                 0.0000
     23 ****         1.2616   2.9992   2.1392 H              1 S1                 0.0000
     24 ****        -0.1042   2.2161   4.1612 H              1 S1                 0.0000
     25 ****        -1.4797  -1.1130   2.1366 H              1 S1                 0.0000
     26 ****        -1.3330   0.2614   3.9876 H              1 S1                 0.0000
     27 ****        -2.5162  -0.9908  -1.5281 LP             1 S1                 0.0000
     28 ****        -2.5219   0.3481  -2.4630 LP             1 S1                 0.0000
@<TRIPOS>BOND
    1    1    2 1     
    2    1   13 1     
    3    2    6 1     
    4    2    3 1     
    5    2   14 1     
    6    3    4 1     
    7    3   15 1     
    8    3   16 1     
    9    4    5 1     
   10    4   17 1     
   11    4   18 1     
   12    5    6 1     
   13    5   19 1     
   14    5   20 1     
   15    6    7 1     
   16    6   21 1     
   17    7   12 ar    
   18    7    8 ar    
   19    8    9 ar    
   20    8   22 1     
   21    9   10 ar    
   22    9   23 1     
   23   10   11 ar    
   24   10   24 1     
   25   11   12 ar    
   26   11   26 1     
   27   12   25 1     
   28    1   27 1     
   29    1   28 1     
@<TRIPOS>SUBSTRUCTURE
      1 S1             1
@<TRIPOS>SET
LONE_PAIRS      STATIC     ATOMS    <user>   **** ""
2 27 28
DONOR_HYDROGENS      STATIC     ATOMS    <user>   **** ""
2 13 26
ATOM$BLUE        STATIC     ATOMS    COLORGROUP SYSTEM
2 27 28
ATOM$RED        STATIC     ATOMS    COLORGROUP SYSTEM
2 13 26
