AV-unprocessed.smi:2009|AV-procd|sdf|8148|dock1
  -GOLD-   2272010383D 1   1.00000     0.00000
 Structure written by MMmdl.
 37 38  0  0  0  0  0  0  0  0  2 V2000
  155.2896  140.1651  159.9980 C   0  0  0  0  0  0  0  0  0  0  0  0
  153.8486  140.0619  159.4803 C   0  0  1  0  0  0  0  0  0  0  0  0
  153.2096  141.4561  159.2614 C   0  0  0  0  0  0  0  0  0  0  0  0
  153.0300  142.2313  160.4862 N   0  0  0  0  0  0  0  0  0  0  0  0
  152.4806  143.4911  160.6342 C   0  0  0  0  0  0  0  0  0  0  0  0
  152.5357  143.8102  161.9603 C   0  0  0  0  0  0  0  0  0  0  0  0
  153.1538  142.6752  162.5545 C   0  0  0  0  0  0  0  0  0  0  0  0
  153.4572  141.7370  161.6723 N   0  0  0  0  0  0  0  0  0  0  0  0
  153.8510  139.3177  158.2284 N   0  5  0  0  0  0  0  0  0  0  0  0
  152.8902  138.0212  158.0702 S   0  0  0  0  0  0  0  0  0  0  0  0
  153.4953  136.9284  157.2916 O   0  0  0  0  0  0  0  0  0  0  0  0
  152.1953  137.6710  159.3200 O   0  0  0  0  0  0  0  0  0  0  0  0
  151.7003  138.7480  157.0307 N   0  0  0  0  0  0  0  0  0  0  0  0
  152.0806  138.9520  155.6172 C   0  0  0  0  0  0  0  0  0  0  0  0
  150.8514  139.2231  154.7333 C   0  0  0  0  0  0  0  0  0  0  0  0
  150.0301  140.3995  155.2664 C   0  0  0  0  0  0  0  0  0  0  0  0
  149.6398  140.1213  156.7199 C   0  0  0  0  0  0  0  0  0  0  0  0
  150.8804  139.8496  157.5864 C   0  0  0  0  0  0  0  0  0  0  0  0
  155.3264  140.7069  160.9433 H   0  0  0  0  0  0  0  0  0  0  0  0
  155.9318  140.6894  159.2894 H   0  0  0  0  0  0  0  0  0  0  0  0
  155.7180  139.1768  160.1701 H   0  0  0  0  0  0  0  0  0  0  0  0
  153.2691  139.5503  160.2503 H   0  0  0  0  0  0  0  0  0  0  0  0
  153.8305  142.0399  158.5800 H   0  0  0  0  0  0  0  0  0  0  0  0
  152.2386  141.3568  158.7738 H   0  0  0  0  0  0  0  0  0  0  0  0
  152.0910  144.0418  159.7904 H   0  0  0  0  0  0  0  0  0  0  0  0
  152.1860  144.7158  162.4329 H   0  0  0  0  0  0  0  0  0  0  0  0
  153.3920  142.5075  163.5944 H   0  0  0  0  0  0  0  0  0  0  0  0
  152.7854  139.7822  155.5570 H   0  0  0  0  0  0  0  0  0  0  0  0
  152.5977  138.0702  155.2400 H   0  0  0  0  0  0  0  0  0  0  0  0
  151.1677  139.4237  153.7095 H   0  0  0  0  0  0  0  0  0  0  0  0
  150.2276  138.3289  154.6937 H   0  0  0  0  0  0  0  0  0  0  0  0
  150.6122  141.3198  155.2052 H   0  0  0  0  0  0  0  0  0  0  0  0
  149.1387  140.5465  154.6562 H   0  0  0  0  0  0  0  0  0  0  0  0
  149.0834  140.9671  157.1245 H   0  0  0  0  0  0  0  0  0  0  0  0
  148.9706  139.2609  156.7631 H   0  0  0  0  0  0  0  0  0  0  0  0
  150.5596  139.6138  158.6004 H   0  0  0  0  0  0  0  0  0  0  0  0
  151.4969  140.7464  157.6570 H   0  0  0  0  0  0  0  0  0  0  0  0
  1  2  1  0  0  0  0
  1 19  1  0  0  0  0
  1 20  1  0  0  0  0
  1 21  1  0  0  0  0
  2  3  1  0  0  0  0
  2  9  1  0  0  0  0
  2 22  1  0  0  0  0
  3  4  1  0  0  0  0
  3 23  1  0  0  0  0
  3 24  1  0  0  0  0
  4  8  1  0  0  0  0
  4  5  1  0  0  0  0
  5  6  2  0  0  0  0
  5 25  1  0  0  0  0
  6  7  1  0  0  0  0
  6 26  1  0  0  0  0
  7  8  2  0  0  0  0
  7 27  1  0  0  0  0
  9 10  1  0  0  0  0
 10 11  2  0  0  0  0
 10 12  2  0  0  0  0
 10 13  1  0  0  0  0
 13 18  1  0  0  0  0
 13 14  1  0  0  0  0
 14 15  1  0  0  0  0
 14 28  1  0  0  0  0
 14 29  1  0  0  0  0
 15 16  1  0  0  0  0
 15 30  1  0  0  0  0
 15 31  1  0  0  0  0
 16 17  1  0  0  0  0
 16 32  1  0  0  0  0
 16 33  1  0  0  0  0
 17 18  1  0  0  0  0
 17 34  1  0  0  0  0
 17 35  1  0  0  0  0
 18 36  1  0  0  0  0
 18 37  1  0  0  0  0
M  CHG  1   9  -1
M  END
> <s_m_source_file>
AV-unprocessed.smi

> <i_m_source_file_index>
2009

> <i_lp_mmshare_version>
43012

> <i_f3d_flags>
0

> <s_epik_input>
bjFbY0hdW2NIXVtjSF1uMVtDSDJdW0NAQEhdKFtDSDNdKVtOSF1TKD1PKSg9TylOMltDSDJdW0NIMl1bQ0gyXVtDSDJdW0NIMl0y

> <s_epik_cmdline>
J2VwaWtfcHl0aG9uJywgJy1waCcsICc3LjAnLCAnLXRuJywgJzgnLCAnLW1hJywgJzIwMCcsICctbWV0YWxfYmluZGluZycsICctaW1hZScsICc8aW5maWxlLm1hZT4nLCAnLW9tYWUnLCAnPG91dGZpbGUubWFlPic=

> <r_lp_tautomer_probability>
1

> <r_epik_Ionization_Penalty>
1.75622

> <r_epik_Ionization_Penalty_Charging>
1.7562

> <r_epik_Ionization_Penalty_Neutral>
2.38826e-05

> <r_epik_State_Penalty>
1.86645

> <r_epik_Charging_Adjusted_Penalty>
3.62264

> <i_epik_Tot_Q>
-1

> <i_epik_Tot_abs_Q>
1

> <r_epik_Metal_State_Penalty>
0.460135

> <b_epik_Metal_Only>
0

> <s_lp_Force_Field>
OPLS_2005

> <r_lp_Energy>
6.21629

> <b_lp_Chiralities_Consistent>
1

> <s_lp_Variant>
AV-unprocessed.smi:2009-4

> <Gold.Version>
5.8.1

> <Gold.Id.Protein>
6NUR|6NUR_protein|mol2

> <Gold.PLP.Fitness>
42.4709

> <Gold.PLP.PLP>
-36.6588

> <Gold.PLP.part.hbond>
-1.0000

> <Gold.PLP.part.metal>
0.0000

> <Gold.PLP.part.buried>
-4.2599

> <Gold.PLP.part.nonpolar>
-30.3928

> <Gold.PLP.part.repulsive>
0.0183

> <Gold.PLP.ligand.clash>
0.0000

> <Gold.PLP.ligand.torsion>
0.8938

> <Gold.PLP.Chemscore.Hbond>
2.0000

> <Gold.PLP.Chemscore.CHOScore>
0.0000

> <Gold.PLP.Chemscore.Metal>
0.0000

> <Gold.Chemscore.Hbonds>
donor molecule, donor type, donor heavy atom, donor atom, acceptor molecule, acceptor atom, score
      P1  H  7997  8009       L1     9  2.00

> <Gold.PLP.Chemscore.Internal.Correction>
1.5996

> <Gold.Rescore>
     Score         DG    S(hbond)    S(metal)    S(lipo)     H(rot)  DE(clash)    DE(int)     intcor
     14.33     -15.33       0.92        0.00      92.04       1.57       0.07       0.92       ----

> <Gold.Chemscore.Fitness>
14.3299

> <Gold.Chemscore.DG>
-15.3250

> <Gold.Chemscore.ZeroCoef>
-5.4800

> <Gold.Chemscore.Hbond>
0.9246

> <Gold.Chemscore.Metal>
0.0000

> <Gold.Chemscore.Lipo>
92.0394

> <Gold.Chemscore.Internal_Hbond>
0.0000

> <Gold.Chemscore.DEClash>
0.0736

> <Gold.Chemscore.DEInternal>
0.9215

> <Gold.Chemscore.Rot>
1.5672

> <Gold.Chemscore.Internal.Correction>
   9.000000E+99

> <Gold.Chemscore.Hbonds>
donor molecule, donor type, donor heavy atom, donor atom, acceptor molecule, acceptor atom, score
      P1  H  7997  8009       L1     9  0.90
      P1  H 10752 10765       L1    11  0.01

> <Gold.Chemscore.Hbond.Weighted>
-3.0883

> <Gold.Chemscore.Metal.Weighted>
-0.0000

> <Gold.Chemscore.Lipo.Weighted>
-10.7686

> <Gold.Chemscore.Internal_Hbond.Weighted>
0.0000

> <Gold.Chemscore.DEClash.Weighted>
0.0736

> <Gold.Chemscore.DEInternal.Weighted>
0.9215

> <Gold.Chemscore.Rot.Weighted>
4.0119

> <Gold.Chemscore.Internal.Correction.Weighted>
   9.000000E+99

> <Gold.Protein.RotatedTorsions>
[ 6907 6896 6895 6894 ] final  -52.55 input  -60.11 | X-H torsion
[ 7974 7965 7964 7962 ] final   74.70 input  175.53 | X-H torsion
[ 8008 7997 7996 7995 ] final  158.18 input   59.86 | X-H torsion
[ 10167 10162 10161 10158 ] final   46.84 input  -65.29 | X-H torsion
[ 10718 10713 10712 10709 ] final  138.26 input   66.30 | X-H torsion
[ 10763 10752 10751 10750 ] final  -94.15 input  -60.55 | X-H torsion
[ 11005 11000 10999 10996 ] final  109.80 input  -57.11 | X-H torsion

> <Gold.Protein.ActiveResidues>
 VAL166  LYS551  ARG553  GLY616  TRP617  ASP618  TYR619  PRO620  LYS621  CYS622 
 ASP623  PHE694  ASN695  SER759  ASP760  ASP761  ALA762  ILE779  LEU786  VAL792 
 PHE793  MET794  SER795  GLU796  ALA797  LYS798  CYS799  TRP800  GLU811  SER814 

> <Gold.Protein.RotatedAtoms>
  150.8508  134.7832  159.7006 H   0  0  0  0  0  0  0  0  0  0  0  0  # atno 6907 bound_to 6896
  152.4573  134.5260  159.9806 H   0  0  0  0  0  0  0  0  0  0  0  0  # atno 6908 bound_to 6896
  151.5381  133.3399  159.2966 H   0  0  0  0  0  0  0  0  0  0  0  0  # atno 6909 bound_to 6896
  145.7249  139.2662  143.1575 H   0  0  0  0  0  0  0  0  0  0  0  0  # atno 7974 bound_to 7965
  156.2318  140.1865  156.7221 H   0  0  0  0  0  0  0  0  0  0  0  0  # atno 8008 bound_to 7997
  154.6037  140.0632  156.9429 H   0  0  0  0  0  0  0  0  0  0  0  0  # atno 8009 bound_to 7997
  155.2132  140.3301  155.4328 H   0  0  0  0  0  0  0  0  0  0  0  0  # atno 8010 bound_to 7997
  140.3098  144.2834  150.6202 H   0  0  0  0  0  0  0  0  0  0  0  0  # atno 10167 bound_to 10162
  157.4272  131.1045  151.0289 H   0  0  0  0  0  0  0  0  0  0  0  0  # atno 10718 bound_to 10713
  154.7027  135.5168  153.8551 H   0  0  0  0  0  0  0  0  0  0  0  0  # atno 10763 bound_to 10752
  153.0717  135.6603  154.0242 H   0  0  0  0  0  0  0  0  0  0  0  0  # atno 10764 bound_to 10752
  154.0098  135.3003  155.3373 H   0  0  0  0  0  0  0  0  0  0  0  0  # atno 10765 bound_to 10752
  139.8869  134.9467  156.6180 H   0  0  0  0  0  0  0  0  0  0  0  0  # atno 11005 bound_to 11000
  146.0592  140.7989  142.9743 LP  0  0  0  0  0  0  0  0  0  0  0  0  # atno 17320 bound_to 7965
  144.6907  140.3170  143.7238 LP  0  0  0  0  0  0  0  0  0  0  0  0  # atno 17321 bound_to 7965
  140.5578  143.2196  151.7818 LP  0  0  0  0  0  0  0  0  0  0  0  0  # atno 17342 bound_to 10162
  139.4896  144.4390  151.9786 LP  0  0  0  0  0  0  0  0  0  0  0  0  # atno 17343 bound_to 10162
  157.1198  130.6057  149.5502 LP  0  0  0  0  0  0  0  0  0  0  0  0  # atno 17370 bound_to 10713
  155.9900  130.4950  150.7241 LP  0  0  0  0  0  0  0  0  0  0  0  0  # atno 17371 bound_to 10713
  140.7761  133.8699  155.8530 LP  0  0  0  0  0  0  0  0  0  0  0  0  # atno 17394 bound_to 11000
  140.9801  134.1417  157.4502 LP  0  0  0  0  0  0  0  0  0  0  0  0  # atno 17395 bound_to 11000

$$$$
