#       Name:                AV-unprocessed.smi:1355
#       Creating user name   scv26
#       Creation time:       Fri Mar 27 05:12:57 2020


#       File generated by GOLD software.
#

@<TRIPOS>MOLECULE
AV-unprocessed.smi:1355
    37    38     1
SMALL
NO_CHARGES


@<TRIPOS>ATOM
      1 ****        -3.9287   0.8982   1.1781 C.3            1 S1                 0.0000
      2 ****        -3.2842   1.2743  -0.0287 O.3            1 S1                 0.0000
      3 ****        -1.8654   1.2573   0.0401 C.3            1 S1                 0.0000
      4 ****        -1.3073  -0.1750  -0.0170 C.3            1 S1                 0.0000
      5 ****         0.1436  -0.1777  -0.1197 N.pl3          1 S1                 0.0000
      6 ****         0.9123  -0.1838  -1.2394 C.2            1 S1                 0.0000
      7 ****         0.3172  -0.2005  -2.6213 C.3            1 S1                 0.0000
      8 ****         0.1258  -1.6301  -3.1455 C.3            1 S1                 0.0000
      9 ****         1.1076   0.5059  -3.5564 O.3            1 S1                 0.0000
     10 ****         2.2310  -0.2062  -1.0305 N.2            1 S1                 0.0000
     11 ****         2.3254  -0.1885   0.3467 C.ar           1 S1                 0.0000
     12 ****         3.4594  -0.1873   1.1901 C.ar           1 S1                 0.0000
     13 ****         3.3061  -0.1651   2.5918 C.ar           1 S1                 0.0000
     14 ****         2.0198  -0.1441   3.1689 C.ar           1 S1                 0.0000
     15 ****         0.8769  -0.1459   2.3464 C.ar           1 S1                 0.0000
     16 ****         1.0356  -0.1683   0.9477 C.ar           1 S1                 0.0000
     17 ****        -5.0077   0.9898   1.0546 H              1 S1                 0.0000
     18 ****        -3.6308   1.5447   2.0044 H              1 S1                 0.0000
     19 ****        -3.7154  -0.1360   1.4476 H              1 S1                 0.0000
     20 ****        -1.4964   1.8210  -0.8172 H              1 S1                 0.0000
     21 ****        -1.5132   1.7834   0.9291 H              1 S1                 0.0000
     22 ****        -1.5855  -0.7357   0.8750 H              1 S1                 0.0000
     23 ****        -1.7315  -0.7196  -0.8602 H              1 S1                 0.0000
     24 ****        -0.6470   0.3064  -2.6022 H              1 S1                 0.0000
     25 ****        -0.5249  -2.2064  -2.4875 H              1 S1                 0.0000
     26 ****         1.0777  -2.1577  -3.2149 H              1 S1                 0.0000
     27 ****        -0.3280  -1.6280  -4.1370 H              1 S1                 0.0000
     28 ****         1.1968   1.3980  -3.2578 H              1 S1                 0.0000
     29 ****         4.4489  -0.2026   0.7577 H              1 S1                 0.0000
     30 ****         4.1795  -0.1646   3.2274 H              1 S1                 0.0000
     31 ****         1.9114  -0.1268   4.2436 H              1 S1                 0.0000
     32 ****        -0.1094  -0.1297   2.7859 H              1 S1                 0.0000
     33 ****        -3.5758   2.2013  -0.2644 LP             1 S1                 0.0000
     34 ****        -3.5711   0.6416  -0.7480 LP             1 S1                 0.0000
     35 ****         0.6637   0.4924  -4.4524 LP             1 S1                 0.0000
     36 ****         2.0102   0.0809  -3.6251 LP             1 S1                 0.0000
     37 ****         2.9685  -0.2299  -1.7054 LP             1 S1                 0.0000
@<TRIPOS>BOND
    1    1    2 1     
    2    1   17 1     
    3    1   18 1     
    4    1   19 1     
    5    2    3 1     
    6    3    4 1     
    7    3   20 1     
    8    3   21 1     
    9    4    5 1     
   10    4   22 1     
   11    4   23 1     
   12    5   16 1     
   13    5    6 1     
   14    6    7 1     
   15    6   10 2     
   16    7    8 1     
   17    7    9 1     
   18    7   24 1     
   19    8   25 1     
   20    8   26 1     
   21    8   27 1     
   22    9   28 1     
   23   10   11 1     
   24   11   16 ar    
   25   11   12 ar    
   26   12   13 ar    
   27   12   29 1     
   28   13   14 ar    
   29   13   30 1     
   30   14   15 ar    
   31   14   31 1     
   32   15   16 ar    
   33   15   32 1     
   34    2   33 1     
   35    2   34 1     
   36    9   35 1     
   37    9   36 1     
   38   10   37 1     
@<TRIPOS>SUBSTRUCTURE
      1 S1             1
@<TRIPOS>SET
LONE_PAIRS      STATIC     ATOMS    <user>   **** ""
5 33 34 35 36 37
DONOR_HYDROGENS      STATIC     ATOMS    <user>   **** ""
1 28
ATOM$BLUE        STATIC     ATOMS    COLORGROUP SYSTEM
5 33 34 35 36 37
ATOM$RED        STATIC     ATOMS    COLORGROUP SYSTEM
1 28
