AV-unprocessed.smi:276|AV-procd|sdf|2085|dock5
  -GOLD-   2262021363D 1   1.00000     0.00000
 Structure written by MMmdl.
 57 61  0  0  0  0  0  0  0  0  1 V2000
  151.2034  129.3341  153.8653 C   0  0  0  0  0  0  0  0  0  0  0  0
  151.0581  129.9940  155.1102 O   0  0  0  0  0  0  0  0  0  0  0  0
  150.6056  131.3314  154.9698 C   0  0  1  0  0  0  0  0  0  0  0  0
  149.1148  131.4674  154.6378 C   0  0  0  0  0  0  0  0  0  0  0  0
  149.0418  132.6407  155.6348 C   0  0  2  0  0  0  0  0  0  0  0  0
  149.2420  133.9331  154.9640 N   0  0  0  0  0  0  0  0  0  0  0  0
  148.6248  134.0780  153.6490 C   0  0  0  0  0  0  0  0  0  0  0  0
  149.0027  135.0346  155.7103 C   0  0  0  0  0  0  0  0  0  0  0  0
  147.7165  135.2588  156.0783 N   0  0  0  0  0  0  0  0  0  0  0  0
  147.4074  136.3341  156.8090 C   0  0  0  0  0  0  0  0  0  0  0  0
  148.2159  137.2894  157.2730 N   0  0  0  0  0  0  0  0  0  0  0  0
  149.5117  137.0574  156.9171 C   0  0  0  0  0  0  0  0  0  0  0  0
  149.9932  135.9609  156.1479 C   0  0  0  0  0  0  0  0  0  0  0  0
  151.3718  136.0600  155.9983 N   0  0  0  0  0  0  0  0  0  0  0  0
  151.6851  137.1559  156.6341 C   0  0  0  0  0  0  0  0  0  0  0  0
  150.6277  137.8174  157.2151 N   0  0  0  0  0  0  0  0  0  0  0  0
  150.6819  139.0504  157.9794 C   0  0  0  0  0  0  0  0  0  0  0  0
  152.1253  139.4595  158.3292 C   0  0  1  0  0  0  0  0  0  0  0  0
  152.8172  139.8848  157.1702 O   0  0  0  0  0  0  0  0  0  0  0  0
  152.1884  140.5413  159.4260 C   0  0  1  0  0  0  0  0  0  0  0  0
  153.4999  140.6458  160.2085 C   0  0  0  0  0  0  0  0  0  0  0  0
  153.4188  142.0643  160.7264 C   0  0  0  0  0  0  0  0  0  0  0  0
  152.7825  142.7938  159.5452 C   0  0  0  0  0  0  0  0  0  0  0  0
  151.9326  141.8441  158.9068 O   0  0  0  0  0  0  0  0  0  0  0  0
  150.3017  132.0307  156.3071 C   0  0  0  0  0  0  0  0  0  0  0  0
  150.1427  131.1955  157.5909 C   0  0  0  0  0  0  0  0  0  0  0  0
  151.5728  131.5964  157.9629 C   0  0  0  0  0  0  0  0  0  0  0  0
  151.3945  132.8170  157.0567 C   0  0  0  0  0  0  0  0  0  0  0  0
  151.5569  128.3163  154.0301 H   0  0  0  0  0  0  0  0  0  0  0  0
  151.9299  129.8449  153.2322 H   0  0  0  0  0  0  0  0  0  0  0  0
  150.2534  129.2772  153.3326 H   0  0  0  0  0  0  0  0  0  0  0  0
  151.2422  131.9436  154.3272 H   0  0  0  0  0  0  0  0  0  0  0  0
  148.9088  131.6989  153.5932 H   0  0  0  0  0  0  0  0  0  0  0  0
  148.5323  130.6062  154.9695 H   0  0  0  0  0  0  0  0  0  0  0  0
  148.1471  132.5935  156.2554 H   0  0  0  0  0  0  0  0  0  0  0  0
  148.4869  135.1231  153.3654 H   0  0  0  0  0  0  0  0  0  0  0  0
  147.6487  133.5922  153.6270 H   0  0  0  0  0  0  0  0  0  0  0  0
  149.2517  133.6175  152.8859 H   0  0  0  0  0  0  0  0  0  0  0  0
  146.3620  136.4460  157.0561 H   0  0  0  0  0  0  0  0  0  0  0  0
  152.7027  137.5122  156.7007 H   0  0  0  0  0  0  0  0  0  0  0  0
  150.1851  139.8364  157.4088 H   0  0  0  0  0  0  0  0  0  0  0  0
  150.0987  138.9105  158.8904 H   0  0  0  0  0  0  0  0  0  0  0  0
  152.6536  138.5800  158.6997 H   0  0  0  0  0  0  0  0  0  0  0  0
  152.6548  140.8080  157.0490 H   0  0  0  0  0  0  0  0  0  0  0  0
  151.3904  140.3455  160.1444 H   0  0  0  0  0  0  0  0  0  0  0  0
  153.5812  139.9037  161.0031 H   0  0  0  0  0  0  0  0  0  0  0  0
  154.3683  140.5445  159.5570 H   0  0  0  0  0  0  0  0  0  0  0  0
  152.7603  142.1087  161.5951 H   0  0  0  0  0  0  0  0  0  0  0  0
  154.3882  142.4748  161.0099 H   0  0  0  0  0  0  0  0  0  0  0  0
  152.2288  143.6811  159.8528 H   0  0  0  0  0  0  0  0  0  0  0  0
  153.5486  143.1030  158.8332 H   0  0  0  0  0  0  0  0  0  0  0  0
  149.4012  131.6137  158.2739 H   0  0  0  0  0  0  0  0  0  0  0  0
  149.9879  130.1265  157.4434 H   0  0  0  0  0  0  0  0  0  0  0  0
  151.7245  131.8261  159.0179 H   0  0  0  0  0  0  0  0  0  0  0  0
  152.3203  130.8957  157.5868 H   0  0  0  0  0  0  0  0  0  0  0  0
  152.2686  133.0756  156.4585 H   0  0  0  0  0  0  0  0  0  0  0  0
  151.0234  133.6730  157.6197 H   0  0  0  0  0  0  0  0  0  0  0  0
  1  2  1  0  0  0  0
  1 29  1  0  0  0  0
  1 30  1  0  0  0  0
  1 31  1  0  0  0  0
  2  3  1  0  0  0  0
  3 25  1  0  0  0  0
  3  4  1  0  0  0  0
  3 32  1  0  0  0  0
  4  5  1  0  0  0  0
  4 33  1  0  0  0  0
  4 34  1  0  0  0  0
  5  6  1  0  0  0  0
  5 25  1  0  0  0  0
  5 35  1  0  0  0  0
  6  7  1  0  0  0  0
  6  8  1  0  0  0  0
  7 36  1  0  0  0  0
  7 37  1  0  0  0  0
  7 38  1  0  0  0  0
  8 13  1  0  0  0  0
  8  9  2  0  0  0  0
  9 10  1  0  0  0  0
 10 11  2  0  0  0  0
 10 39  1  0  0  0  0
 11 12  1  0  0  0  0
 12 16  1  0  0  0  0
 12 13  2  0  0  0  0
 13 14  1  0  0  0  0
 14 15  2  0  0  0  0
 15 16  1  0  0  0  0
 15 40  1  0  0  0  0
 16 17  1  0  0  0  0
 17 18  1  0  0  0  0
 17 41  1  0  0  0  0
 17 42  1  0  0  0  0
 18 19  1  0  0  0  0
 18 20  1  0  0  0  0
 18 43  1  0  0  0  0
 19 44  1  0  0  0  0
 20 24  1  0  0  0  0
 20 21  1  0  0  0  0
 20 45  1  0  0  0  0
 21 22  1  0  0  0  0
 21 46  1  0  0  0  0
 21 47  1  0  0  0  0
 22 23  1  0  0  0  0
 22 48  1  0  0  0  0
 22 49  1  0  0  0  0
 23 24  1  0  0  0  0
 23 50  1  0  0  0  0
 23 51  1  0  0  0  0
 25 28  1  0  0  0  0
 25 26  1  0  0  0  0
 26 27  1  0  0  0  0
 26 52  1  0  0  0  0
 26 53  1  0  0  0  0
 27 28  1  0  0  0  0
 27 54  1  0  0  0  0
 27 55  1  0  0  0  0
 28 56  1  0  0  0  0
 28 57  1  0  0  0  0
M  END
> <s_m_source_file>
AV-unprocessed.smi

> <i_m_source_file_index>
276

> <i_lp_mmshare_version>
43012

> <i_f3d_flags>
0

> <s_epik_input>
W0NIMl0xW0NIMl1bQ0gyXUMxMltDQEhdKE9bQ0gzXSlbQ0gyXVtDQEhdMk4oW0NIM10pYyhuW2NIXW4zKWMoYzM0KW5bY0hdbjRbQ0gyXVtDQEhdKFtPSF0pW0NAQEhdNVtDSDJdW0NIMl1bQ0gyXU81

> <s_epik_cmdline>
J2VwaWtfcHl0aG9uJywgJy1waCcsICc3LjAnLCAnLXRuJywgJzgnLCAnLW1hJywgJzIwMCcsICctbWV0YWxfYmluZGluZycsICctaW1hZScsICc8aW5maWxlLm1hZT4nLCAnLW9tYWUnLCAnPG91dGZpbGUubWFlPic=

> <r_lp_tautomer_probability>
1

> <r_epik_Ionization_Penalty>
0.00204117

> <r_epik_Ionization_Penalty_Charging>
0

> <r_epik_Ionization_Penalty_Neutral>
0.00204117

> <r_epik_State_Penalty>
0.00127401

> <r_epik_Charging_Adjusted_Penalty>
0.00127401

> <i_epik_Tot_Q>
0

> <i_epik_Tot_abs_Q>
0

> <r_epik_Metal_State_Penalty>
-0

> <b_epik_Metal_Only>
0

> <s_lp_Force_Field>
OPLS_2005

> <r_lp_Energy>
58.9981

> <b_lp_Chiralities_Consistent>
1

> <s_lp_Variant>
AV-unprocessed.smi:276-16

> <Gold.Version>
5.8.1

> <Gold.Id.Protein>
6NUR|6NUR_protein|mol2

> <Gold.PLP.Fitness>
41.6682

> <Gold.PLP.PLP>
-37.5573

> <Gold.PLP.part.hbond>
-2.0000

> <Gold.PLP.part.metal>
0.0000

> <Gold.PLP.part.buried>
-4.9138

> <Gold.PLP.part.nonpolar>
-30.0789

> <Gold.PLP.part.repulsive>
0.0192

> <Gold.PLP.ligand.clash>
0.0000

> <Gold.PLP.ligand.torsion>
1.3451

> <Gold.PLP.Chemscore.Hbond>
2.0000

> <Gold.PLP.Chemscore.CHOScore>
0.0000

> <Gold.PLP.Chemscore.Metal>
0.0000

> <Gold.Chemscore.Hbonds>
donor molecule, donor type, donor heavy atom, donor atom, acceptor molecule, acceptor atom, score
      P1  H  7997  8008       L1    19  0.45
      P1  H 10752 10763       L1    14  0.91

> <Gold.PLP.Chemscore.Internal.Correction>
0.8012

> <Gold.Rescore>
     Score         DG    S(hbond)    S(metal)    S(lipo)     H(rot)  DE(clash)    DE(int)     intcor
     13.77     -15.36       1.77        0.00      93.30       2.72       0.04       1.54       ----

> <Gold.Chemscore.Fitness>
13.7742

> <Gold.Chemscore.DG>
-15.3600

> <Gold.Chemscore.ZeroCoef>
-5.4800

> <Gold.Chemscore.Hbond>
1.7725

> <Gold.Chemscore.Metal>
0.0000

> <Gold.Chemscore.Lipo>
93.2990

> <Gold.Chemscore.Internal_Hbond>
0.0000

> <Gold.Chemscore.DEClash>
0.0408

> <Gold.Chemscore.DEInternal>
1.5450

> <Gold.Chemscore.Rot>
2.7172

> <Gold.Chemscore.Internal.Correction>
   9.000000E+99

> <Gold.Chemscore.Hbonds>
donor molecule, donor type, donor heavy atom, donor atom, acceptor molecule, acceptor atom, score
      P1  H  7997  8008       L1    19  0.02
      P1  H 10752 10763       L1    14  0.53

> <Gold.Chemscore.Hbond.Weighted>
-5.9200

> <Gold.Chemscore.Metal.Weighted>
-0.0000

> <Gold.Chemscore.Lipo.Weighted>
-10.9160

> <Gold.Chemscore.Internal_Hbond.Weighted>
0.0000

> <Gold.Chemscore.DEClash.Weighted>
0.0408

> <Gold.Chemscore.DEInternal.Weighted>
1.5450

> <Gold.Chemscore.Rot.Weighted>
6.9560

> <Gold.Chemscore.Internal.Correction.Weighted>
   9.000000E+99

> <Gold.Protein.RotatedTorsions>
[ 6907 6896 6895 6894 ] final  -41.77 input  -60.11 | X-H torsion
[ 7974 7965 7964 7962 ] final   94.79 input  175.53 | X-H torsion
[ 8008 7997 7996 7995 ] final  -52.68 input   59.86 | X-H torsion
[ 10167 10162 10161 10158 ] final  109.83 input  -65.29 | X-H torsion
[ 10718 10713 10712 10709 ] final  -47.52 input   66.30 | X-H torsion
[ 10763 10752 10751 10750 ] final   77.70 input  -60.55 | X-H torsion
[ 11005 11000 10999 10996 ] final  168.56 input  -57.11 | X-H torsion

> <Gold.Protein.ActiveResidues>
 VAL166  LYS551  ARG553  GLY616  TRP617  ASP618  TYR619  PRO620  LYS621  CYS622 
 ASP623  PHE694  ASN695  SER759  ASP760  ASP761  ALA762  ILE779  LEU786  VAL792 
 PHE793  MET794  SER795  GLU796  ALA797  LYS798  CYS799  TRP800  GLU811  SER814 

> <Gold.Protein.RotatedAtoms>
  150.9628  134.9014  159.7740 H   0  0  0  0  0  0  0  0  0  0  0  0  # atno 6907 bound_to 6896
  152.5162  134.3648  159.9307 H   0  0  0  0  0  0  0  0  0  0  0  0  # atno 6908 bound_to 6896
  151.3660  133.3831  159.2729 H   0  0  0  0  0  0  0  0  0  0  0  0  # atno 6909 bound_to 6896
  145.4609  139.2287  143.2988 H   0  0  0  0  0  0  0  0  0  0  0  0  # atno 7974 bound_to 7965
  154.4113  140.1218  156.5031 H   0  0  0  0  0  0  0  0  0  0  0  0  # atno 8008 bound_to 7997
  155.6874  140.3495  155.4860 H   0  0  0  0  0  0  0  0  0  0  0  0  # atno 8009 bound_to 7997
  155.9498  140.1103  157.0976 H   0  0  0  0  0  0  0  0  0  0  0  0  # atno 8010 bound_to 7997
  139.6736  144.7124  151.1643 H   0  0  0  0  0  0  0  0  0  0  0  0  # atno 10167 bound_to 10162
  156.2076  130.4159  149.9157 H   0  0  0  0  0  0  0  0  0  0  0  0  # atno 10718 bound_to 10713
  153.0818  135.4904  154.8518 H   0  0  0  0  0  0  0  0  0  0  0  0  # atno 10763 bound_to 10752
  154.7161  135.3029  154.9124 H   0  0  0  0  0  0  0  0  0  0  0  0  # atno 10764 bound_to 10752
  153.9803  135.6790  153.4803 H   0  0  0  0  0  0  0  0  0  0  0  0  # atno 10765 bound_to 10752
  140.2886  134.7692  157.3819 H   0  0  0  0  0  0  0  0  0  0  0  0  # atno 11005 bound_to 11000
  146.2451  140.5378  142.8917 LP  0  0  0  0  0  0  0  0  0  0  0  0  # atno 17320 bound_to 7965
  144.8003  140.6201  143.6482 LP  0  0  0  0  0  0  0  0  0  0  0  0  # atno 17321 bound_to 7965
  140.7627  143.5806  150.8898 LP  0  0  0  0  0  0  0  0  0  0  0  0  # atno 17342 bound_to 10162
  139.9474  143.6312  152.3038 LP  0  0  0  0  0  0  0  0  0  0  0  0  # atno 17343 bound_to 10162
  156.6846  130.8872  151.3580 LP  0  0  0  0  0  0  0  0  0  0  0  0  # atno 17370 bound_to 10713
  157.7021  130.9344  150.0816 LP  0  0  0  0  0  0  0  0  0  0  0  0  # atno 17371 bound_to 10713
  140.1217  134.5211  155.8178 LP  0  0  0  0  0  0  0  0  0  0  0  0  # atno 17394 bound_to 11000
  141.2150  133.6758  156.6877 LP  0  0  0  0  0  0  0  0  0  0  0  0  # atno 17395 bound_to 11000

$$$$
