AV-unprocessed.smi:1626|AV-procd|sdf|6514|dock4
  -GOLD-   22720 7183D 1   1.00000     0.00000
 Structure written by MMmdl.
 47 49  0  0  0  0  0  0  0  0  1 V2000
  152.9814  142.7803  161.2333 C   0  0  0  0  0  0  0  0  0  0  0  0
  152.2107  142.5244  159.9500 C   0  0  0  0  0  0  0  0  0  0  0  0
  152.3053  141.2562  159.3329 C   0  0  0  0  0  0  0  0  0  0  0  0
  151.6004  140.9758  158.1418 C   0  0  0  0  0  0  0  0  0  0  0  0
  151.5442  139.8216  157.3785 N   0  0  0  0  0  0  0  0  0  0  0  0
  150.7167  140.1855  156.4025 C   0  0  0  0  0  0  0  0  0  0  0  0
  150.2307  141.4410  156.4437 N   0  0  0  0  0  0  0  0  0  0  0  0
  149.3128  142.0652  155.5095 C   0  0  0  0  0  0  0  0  0  0  0  0
  148.7961  141.0677  154.4537 C   0  0  2  0  0  0  0  0  0  0  0  0
  149.8311  140.7940  153.5309 O   0  0  0  0  0  0  0  0  0  0  0  0
  147.5846  141.6033  153.6650 C   0  0  0  0  0  0  0  0  0  0  0  0
  146.6779  142.4767  154.4132 N   0  0  0  0  0  0  0  0  0  0  0  0
  145.8058  141.7302  155.3270 C   0  0  0  0  0  0  0  0  0  0  0  0
  144.8839  142.6477  156.1487 C   0  0  0  0  0  0  0  0  0  0  0  0
  144.0367  143.5287  155.2174 C   0  0  0  0  0  0  0  0  0  0  0  0
  143.2865  144.4540  155.9759 O   0  0  0  0  0  0  0  0  0  0  0  0
  144.9499  144.2738  154.2313 C   0  0  0  0  0  0  0  0  0  0  0  0
  145.8644  143.2785  153.4971 C   0  0  0  0  0  0  0  0  0  0  0  0
  150.7928  142.0076  157.5811 C   0  0  0  0  0  0  0  0  0  0  0  0
  150.6937  143.2744  158.1822 C   0  0  0  0  0  0  0  0  0  0  0  0
  151.4053  143.5382  159.3712 C   0  0  0  0  0  0  0  0  0  0  0  0
  151.2915  144.9101  160.0116 C   0  0  0  0  0  0  0  0  0  0  0  0
  153.4712  141.8740  161.5906 H   0  0  0  0  0  0  0  0  0  0  0  0
  152.3125  143.1288  162.0207 H   0  0  0  0  0  0  0  0  0  0  0  0
  153.7500  143.5363  161.0707 H   0  0  0  0  0  0  0  0  0  0  0  0
  152.9209  140.4851  159.7718 H   0  0  0  0  0  0  0  0  0  0  0  0
  150.4432  139.4985  155.6149 H   0  0  0  0  0  0  0  0  0  0  0  0
  148.4813  142.4747  156.0845 H   0  0  0  0  0  0  0  0  0  0  0  0
  149.8095  142.9124  155.0344 H   0  0  0  0  0  0  0  0  0  0  0  0
  148.5475  140.1205  154.9311 H   0  0  0  0  0  0  0  0  0  0  0  0
  149.5135  140.1648  152.9018 H   0  0  0  0  0  0  0  0  0  0  0  0
  147.9653  142.1460  152.7984 H   0  0  0  0  0  0  0  0  0  0  0  0
  147.0178  140.7623  153.2622 H   0  0  0  0  0  0  0  0  0  0  0  0
  145.2023  141.0168  154.7635 H   0  0  0  0  0  0  0  0  0  0  0  0
  146.4015  141.1463  156.0268 H   0  0  0  0  0  0  0  0  0  0  0  0
  144.2393  142.0492  156.7930 H   0  0  0  0  0  0  0  0  0  0  0  0
  145.4904  143.2721  156.8066 H   0  0  0  0  0  0  0  0  0  0  0  0
  143.3392  142.9010  154.6611 H   0  0  0  0  0  0  0  0  0  0  0  0
  142.4414  144.0741  156.1621 H   0  0  0  0  0  0  0  0  0  0  0  0
  144.3523  144.8339  153.5110 H   0  0  0  0  0  0  0  0  0  0  0  0
  145.5628  145.0023  154.7645 H   0  0  0  0  0  0  0  0  0  0  0  0
  146.5148  143.8358  152.8218 H   0  0  0  0  0  0  0  0  0  0  0  0
  145.2585  142.6226  152.8696 H   0  0  0  0  0  0  0  0  0  0  0  0
  150.0738  144.0353  157.7311 H   0  0  0  0  0  0  0  0  0  0  0  0
  150.7104  145.5920  159.3900 H   0  0  0  0  0  0  0  0  0  0  0  0
  152.2786  145.3502  160.1551 H   0  0  0  0  0  0  0  0  0  0  0  0
  150.7992  144.8374  160.9817 H   0  0  0  0  0  0  0  0  0  0  0  0
  1  2  1  0  0  0  0
  1 23  1  0  0  0  0
  1 24  1  0  0  0  0
  1 25  1  0  0  0  0
  2 21  1  0  0  0  0
  2  3  2  0  0  0  0
  3  4  1  0  0  0  0
  3 26  1  0  0  0  0
  4 19  2  0  0  0  0
  4  5  1  0  0  0  0
  5  6  2  0  0  0  0
  6  7  1  0  0  0  0
  6 27  1  0  0  0  0
  7  8  1  0  0  0  0
  7 19  1  0  0  0  0
  8  9  1  0  0  0  0
  8 28  1  0  0  0  0
  8 29  1  0  0  0  0
  9 10  1  0  0  0  0
  9 11  1  0  0  0  0
  9 30  1  0  0  0  0
 10 31  1  0  0  0  0
 11 12  1  0  0  0  0
 11 32  1  0  0  0  0
 11 33  1  0  0  0  0
 12 18  1  0  0  0  0
 12 13  1  0  0  0  0
 13 14  1  0  0  0  0
 13 34  1  0  0  0  0
 13 35  1  0  0  0  0
 14 15  1  0  0  0  0
 14 36  1  0  0  0  0
 14 37  1  0  0  0  0
 15 16  1  0  0  0  0
 15 17  1  0  0  0  0
 15 38  1  0  0  0  0
 16 39  1  0  0  0  0
 17 18  1  0  0  0  0
 17 40  1  0  0  0  0
 17 41  1  0  0  0  0
 18 42  1  0  0  0  0
 18 43  1  0  0  0  0
 19 20  1  0  0  0  0
 20 21  2  0  0  0  0
 20 44  1  0  0  0  0
 21 22  1  0  0  0  0
 22 45  1  0  0  0  0
 22 46  1  0  0  0  0
 22 47  1  0  0  0  0
M  END
> <s_m_source_file>
AV-unprocessed.smi

> <i_m_source_file_index>
1626

> <i_lp_mmshare_version>
43012

> <i_f3d_flags>
0

> <s_epik_input>
W0NIM11jKFtjSF0xKWMoW0NIM10pW2NIXWMoYzEyKW4oW2NIXW4yKVtDSDJdW0NASF0oW09IXSlbQ0gyXU4zW0NIMl1bQ0gyXVtDSF0oW09IXSlbQ0gyXVtDSDJdMw==

> <s_epik_cmdline>
J2VwaWtfcHl0aG9uJywgJy1waCcsICc3LjAnLCAnLXRuJywgJzgnLCAnLW1hJywgJzIwMCcsICctbWV0YWxfYmluZGluZycsICctaW1hZScsICc8aW5maWxlLm1hZT4nLCAnLW9tYWUnLCAnPG91dGZpbGUubWFlPic=

> <r_epik_Ionization_Penalty>
2.14395

> <r_epik_Ionization_Penalty_Charging>
0

> <r_epik_Ionization_Penalty_Neutral>
2.14395

> <r_epik_State_Penalty>
2.24477

> <r_epik_Charging_Adjusted_Penalty>
2.24477

> <i_epik_Tot_Q>
0

> <i_epik_Tot_abs_Q>
0

> <r_epik_Metal_State_Penalty>
2.17429

> <b_epik_Metal_Only>
0

> <s_lp_Force_Field>
OPLS_2005

> <r_lp_Energy>
28.7152

> <b_lp_Chiralities_Consistent>
1

> <s_lp_Variant>
AV-unprocessed.smi:1626-9

> <Gold.Version>
5.8.1

> <Gold.Id.Protein>
6NUR|6NUR_protein|mol2

> <Gold.PLP.Fitness>
50.3436

> <Gold.PLP.PLP>
-45.4996

> <Gold.PLP.part.hbond>
-2.4215

> <Gold.PLP.part.metal>
0.0000

> <Gold.PLP.part.buried>
-4.1354

> <Gold.PLP.part.nonpolar>
-38.7941

> <Gold.PLP.part.repulsive>
0.1727

> <Gold.PLP.ligand.clash>
0.0000

> <Gold.PLP.ligand.torsion>
0.5894

> <Gold.PLP.Chemscore.Hbond>
1.9760

> <Gold.PLP.Chemscore.CHOScore>
0.0000

> <Gold.PLP.Chemscore.Metal>
0.0000

> <Gold.Chemscore.Hbonds>
donor molecule, donor type, donor heavy atom, donor atom, acceptor molecule, acceptor atom, score
      L1  H    10    31       P1  7957  0.67
      P1  H  7989  7998       L1    10  0.37
      P1  H  8011  8017       L1    10  0.90

> <Gold.PLP.Chemscore.Internal.Correction>
0.0947

> <Gold.Rescore>
     Score         DG    S(hbond)    S(metal)    S(lipo)     H(rot)  DE(clash)    DE(int)     intcor
     15.11     -17.15       1.22        0.00     121.62       2.59       1.37       0.67       ----

> <Gold.Chemscore.Fitness>
15.1065

> <Gold.Chemscore.DG>
-17.1507

> <Gold.Chemscore.ZeroCoef>
-5.4800

> <Gold.Chemscore.Hbond>
1.2225

> <Gold.Chemscore.Metal>
0.0000

> <Gold.Chemscore.Lipo>
121.6240

> <Gold.Chemscore.Internal_Hbond>
0.0000

> <Gold.Chemscore.DEClash>
1.3717

> <Gold.Chemscore.DEInternal>
0.6724

> <Gold.Chemscore.Rot>
2.5947

> <Gold.Chemscore.Internal.Correction>
   9.000000E+99

> <Gold.Chemscore.Hbonds>
donor molecule, donor type, donor heavy atom, donor atom, acceptor molecule, acceptor atom, score
      L1  H    10    31       P1  7957  0.66
      P1  H  7989  7998       L1    10  0.27
      P1  H  8011  8017       L1    10  0.07

> <Gold.Chemscore.Hbond.Weighted>
-4.0831

> <Gold.Chemscore.Metal.Weighted>
-0.0000

> <Gold.Chemscore.Lipo.Weighted>
-14.2300

> <Gold.Chemscore.Internal_Hbond.Weighted>
0.0000

> <Gold.Chemscore.DEClash.Weighted>
1.3717

> <Gold.Chemscore.DEInternal.Weighted>
0.6724

> <Gold.Chemscore.Rot.Weighted>
6.6424

> <Gold.Chemscore.Internal.Correction.Weighted>
   9.000000E+99

> <Gold.Protein.RotatedTorsions>
[ 6907 6896 6895 6894 ] final  163.42 input  -60.11 | X-H torsion
[ 7974 7965 7964 7962 ] final  161.56 input  175.53 | X-H torsion
[ 8008 7997 7996 7995 ] final -156.90 input   59.86 | X-H torsion
[ 10167 10162 10161 10158 ] final  140.82 input  -65.29 | X-H torsion
[ 10718 10713 10712 10709 ] final -119.00 input   66.30 | X-H torsion
[ 10763 10752 10751 10750 ] final  -50.20 input  -60.55 | X-H torsion
[ 11005 11000 10999 10996 ] final -115.54 input  -57.11 | X-H torsion

> <Gold.Protein.ActiveResidues>
 VAL166  LYS551  ARG553  GLY616  TRP617  ASP618  TYR619  PRO620  LYS621  CYS622 
 ASP623  PHE694  ASN695  SER759  ASP760  ASP761  ALA762  ILE779  LEU786  VAL792 
 PHE793  MET794  SER795  GLU796  ALA797  LYS798  CYS799  TRP800  GLU811  SER814 

> <Gold.Protein.RotatedAtoms>
  151.9255  133.3597  159.3911 H   0  0  0  0  0  0  0  0  0  0  0  0  # atno 6907 bound_to 6896
  150.7028  134.4591  159.5381 H   0  0  0  0  0  0  0  0  0  0  0  0  # atno 6908 bound_to 6896
  152.2222  134.8402  160.0535 H   0  0  0  0  0  0  0  0  0  0  0  0  # atno 6909 bound_to 6896
  144.7680  139.7915  143.6308 H   0  0  0  0  0  0  0  0  0  0  0  0  # atno 7974 bound_to 7965
  155.7242  140.0794  157.2317 H   0  0  0  0  0  0  0  0  0  0  0  0  # atno 8008 bound_to 7997
  154.4041  140.1607  156.2491 H   0  0  0  0  0  0  0  0  0  0  0  0  # atno 8009 bound_to 7997
  155.9168  140.3400  155.6144 H   0  0  0  0  0  0  0  0  0  0  0  0  # atno 8010 bound_to 7997
  139.5038  144.6210  151.6050 H   0  0  0  0  0  0  0  0  0  0  0  0  # atno 10167 bound_to 10162
  156.1148  130.6277  150.9362 H   0  0  0  0  0  0  0  0  0  0  0  0  # atno 10718 bound_to 10713
  154.1065  135.6555  153.4877 H   0  0  0  0  0  0  0  0  0  0  0  0  # atno 10763 bound_to 10752
  153.0271  135.5237  154.7234 H   0  0  0  0  0  0  0  0  0  0  0  0  # atno 10764 bound_to 10752
  154.6402  135.2987  155.0082 H   0  0  0  0  0  0  0  0  0  0  0  0  # atno 10765 bound_to 10752
  141.0481  133.9731  157.2883 H   0  0  0  0  0  0  0  0  0  0  0  0  # atno 11005 bound_to 11000
  146.1803  139.4993  142.9870 LP  0  0  0  0  0  0  0  0  0  0  0  0  # atno 17320 bound_to 7965
  145.6411  141.0284  143.1811 LP  0  0  0  0  0  0  0  0  0  0  0  0  # atno 17321 bound_to 7965
  140.5912  143.9775  150.6326 LP  0  0  0  0  0  0  0  0  0  0  0  0  # atno 17342 bound_to 10162
  140.2957  143.3294  152.1020 LP  0  0  0  0  0  0  0  0  0  0  0  0  # atno 17343 bound_to 10162
  157.6331  131.0919  150.8401 LP  0  0  0  0  0  0  0  0  0  0  0  0  # atno 17370 bound_to 10713
  156.8507  130.5079  149.5312 LP  0  0  0  0  0  0  0  0  0  0  0  0  # atno 17371 bound_to 10713
  139.9328  135.0199  156.8457 LP  0  0  0  0  0  0  0  0  0  0  0  0  # atno 17394 bound_to 11000
  140.6108  134.0084  155.7576 LP  0  0  0  0  0  0  0  0  0  0  0  0  # atno 17395 bound_to 11000

$$$$
