AV-unprocessed.smi:1400|AV-procd|sdf|5687|dock4
  -GOLD-   22720 5313D 1   1.00000     0.00000
 Structure written by MMmdl.
 33 34  0  0  0  0  0  0  0  0  2 V2000
  152.9200  142.7115  162.3218 C   0  0  0  0  0  0  0  0  0  0  0  0
  152.5882  143.5551  161.0887 C   0  0  0  0  0  0  0  0  0  0  0  0
  152.0689  144.6574  161.2657 O   0  0  0  0  0  0  0  0  0  0  0  0
  152.8763  143.0700  159.8568 N   0  0  0  0  0  0  0  0  0  0  0  0
  153.4208  141.7242  159.6408 C   0  0  0  0  0  0  0  0  0  0  0  0
  152.3409  140.8508  158.9766 C   0  0  0  0  0  0  0  0  0  0  0  0
  151.8341  141.4858  157.6640 C   0  0  0  0  0  0  0  0  0  0  0  0
  150.6970  140.7226  157.1559 N   0  0  0  0  0  0  0  0  0  0  0  0
  150.6477  140.0605  155.9905 C   0  0  0  0  0  0  0  0  0  0  0  0
  151.6231  140.0687  155.2360 O   0  0  0  0  0  0  0  0  0  0  0  0
  149.4713  139.4295  155.7720 N   0  5  0  0  0  0  0  0  0  0  0  0
  148.5257  140.0132  155.0176 C   0  0  0  0  0  0  0  0  0  0  0  0
  147.5030  139.3385  154.4797 N   0  0  0  0  0  0  0  0  0  0  0  0
  146.6422  140.1409  153.7283 C   0  0  0  0  0  0  0  0  0  0  0  0
  147.0229  141.4560  153.6858 C   0  0  0  0  0  0  0  0  0  0  0  0
  148.4840  141.7270  154.5923 S   0  0  0  0  0  0  0  0  0  0  0  0
  151.4501  142.9691  157.8702 C   0  0  0  0  0  0  0  0  0  0  0  0
  152.5723  143.7412  158.5863 C   0  0  0  0  0  0  0  0  0  0  0  0
  153.9847  142.4785  162.3565 H   0  0  0  0  0  0  0  0  0  0  0  0
  152.3521  141.7808  162.3172 H   0  0  0  0  0  0  0  0  0  0  0  0
  152.6679  143.2510  163.2354 H   0  0  0  0  0  0  0  0  0  0  0  0
  154.2994  141.7883  158.9973 H   0  0  0  0  0  0  0  0  0  0  0  0
  153.7623  141.2523  160.5629 H   0  0  0  0  0  0  0  0  0  0  0  0
  152.7367  139.8535  158.7813 H   0  0  0  0  0  0  0  0  0  0  0  0
  151.5090  140.7227  159.6711 H   0  0  0  0  0  0  0  0  0  0  0  0
  152.6494  141.4370  156.9396 H   0  0  0  0  0  0  0  0  0  0  0  0
  149.8742  140.6893  157.7394 H   0  0  0  0  0  0  0  0  0  0  0  0
  145.7811  139.6911  153.2567 H   0  0  0  0  0  0  0  0  0  0  0  0
  146.5380  142.2765  153.1792 H   0  0  0  0  0  0  0  0  0  0  0  0
  151.2323  143.4390  156.9105 H   0  0  0  0  0  0  0  0  0  0  0  0
  150.5351  143.0359  158.4609 H   0  0  0  0  0  0  0  0  0  0  0  0
  152.2881  144.7862  158.6999 H   0  0  0  0  0  0  0  0  0  0  0  0
  153.4691  143.7515  157.9651 H   0  0  0  0  0  0  0  0  0  0  0  0
  1  2  1  0  0  0  0
  1 19  1  0  0  0  0
  1 20  1  0  0  0  0
  1 21  1  0  0  0  0
  2  3  2  0  0  0  0
  2  4  1  0  0  0  0
  4 18  1  0  0  0  0
  4  5  1  0  0  0  0
  5  6  1  0  0  0  0
  5 22  1  0  0  0  0
  5 23  1  0  0  0  0
  6  7  1  0  0  0  0
  6 24  1  0  0  0  0
  6 25  1  0  0  0  0
  7  8  1  0  0  0  0
  7 17  1  0  0  0  0
  7 26  1  0  0  0  0
  8  9  1  0  0  0  0
  8 27  1  0  0  0  0
  9 10  2  0  0  0  0
  9 11  1  0  0  0  0
 11 12  1  0  0  0  0
 12 16  1  0  0  0  0
 12 13  2  0  0  0  0
 13 14  1  0  0  0  0
 14 15  2  0  0  0  0
 14 28  1  0  0  0  0
 15 16  1  0  0  0  0
 15 29  1  0  0  0  0
 17 18  1  0  0  0  0
 17 30  1  0  0  0  0
 17 31  1  0  0  0  0
 18 32  1  0  0  0  0
 18 33  1  0  0  0  0
M  CHG  1  11  -1
M  END
> <s_m_source_file>
AV-unprocessed.smi

> <i_m_source_file_index>
1400

> <i_lp_mmshare_version>
43012

> <i_f3d_flags>
0

> <s_epik_input>
W0NIM11DKD1PKU4xW0NIMl1bQ0gyXVtDSF0oW0NIMl1bQ0gyXTEpW05IXUMoPU8pW05IXWMybltjSF1bY0hdczI=

> <s_epik_cmdline>
J2VwaWtfcHl0aG9uJywgJy1waCcsICc3LjAnLCAnLXRuJywgJzgnLCAnLW1hJywgJzIwMCcsICctbWV0YWxfYmluZGluZycsICctaW1hZScsICc8aW5maWxlLm1hZT4nLCAnLW9tYWUnLCAnPG91dGZpbGUubWFlPic=

> <r_lp_tautomer_probability>
1

> <r_epik_Ionization_Penalty>
6.84544

> <r_epik_Ionization_Penalty_Charging>
5.78648

> <r_epik_Ionization_Penalty_Neutral>
1.05897

> <r_epik_State_Penalty>
5.78644

> <r_epik_Charging_Adjusted_Penalty>
11.5729

> <i_epik_Tot_Q>
-1

> <i_epik_Tot_abs_Q>
1

> <r_epik_Metal_State_Penalty>
1.75808

> <b_epik_Metal_Only>
1

> <s_lp_Force_Field>
OPLS_2005

> <r_lp_Energy>
18.2538

> <b_lp_Chiralities_Consistent>
1

> <s_lp_Variant>
AV-unprocessed.smi:1400-2

> <Gold.Version>
5.8.1

> <Gold.Id.Protein>
6NUR|6NUR_protein|mol2

> <Gold.PLP.Fitness>
43.3713

> <Gold.PLP.PLP>
-39.1958

> <Gold.PLP.part.hbond>
-1.0000

> <Gold.PLP.part.metal>
0.0000

> <Gold.PLP.part.buried>
-6.0253

> <Gold.PLP.part.nonpolar>
-32.1342

> <Gold.PLP.part.repulsive>
0.5891

> <Gold.PLP.ligand.clash>
0.0000

> <Gold.PLP.ligand.torsion>
0.8120

> <Gold.PLP.Chemscore.Hbond>
0.9280

> <Gold.PLP.Chemscore.CHOScore>
1.0000

> <Gold.PLP.Chemscore.Metal>
0.0000

> <Gold.Chemscore.Hbonds>
donor molecule, donor type, donor heavy atom, donor atom, acceptor molecule, acceptor atom, score
      P1  H  7989  7998       L1    10  0.99
      L1  C    14    28       P1 10175  1.00

> <Gold.PLP.Chemscore.Internal.Correction>
0.0155

> <Gold.Rescore>
     Score         DG    S(hbond)    S(metal)    S(lipo)     H(rot)  DE(clash)    DE(int)     intcor
     14.72     -15.49       0.92        0.00      81.08       1.00       0.01       0.76       ----

> <Gold.Chemscore.Fitness>
14.7188

> <Gold.Chemscore.DG>
-15.4896

> <Gold.Chemscore.ZeroCoef>
-5.4800

> <Gold.Chemscore.Hbond>
0.9231

> <Gold.Chemscore.Metal>
0.0000

> <Gold.Chemscore.Lipo>
81.0795

> <Gold.Chemscore.Internal_Hbond>
0.0000

> <Gold.Chemscore.DEClash>
0.0092

> <Gold.Chemscore.DEInternal>
0.7615

> <Gold.Chemscore.Rot>
1.0000

> <Gold.Chemscore.Internal.Correction>
   9.000000E+99

> <Gold.Chemscore.Hbonds>
donor molecule, donor type, donor heavy atom, donor atom, acceptor molecule, acceptor atom, score
      P1  H  7989  7998       L1    10  0.93

> <Gold.Chemscore.Hbond.Weighted>
-3.0833

> <Gold.Chemscore.Metal.Weighted>
-0.0000

> <Gold.Chemscore.Lipo.Weighted>
-9.4863

> <Gold.Chemscore.Internal_Hbond.Weighted>
0.0000

> <Gold.Chemscore.DEClash.Weighted>
0.0092

> <Gold.Chemscore.DEInternal.Weighted>
0.7615

> <Gold.Chemscore.Rot.Weighted>
2.5600

> <Gold.Chemscore.Internal.Correction.Weighted>
   9.000000E+99

> <Gold.Protein.RotatedTorsions>
[ 6907 6896 6895 6894 ] final -102.69 input  -60.11 | X-H torsion
[ 7974 7965 7964 7962 ] final   95.11 input  175.53 | X-H torsion
[ 8008 7997 7996 7995 ] final  162.04 input   59.86 | X-H torsion
[ 10167 10162 10161 10158 ] final  -18.39 input  -65.29 | X-H torsion
[ 10718 10713 10712 10709 ] final  140.26 input   66.30 | X-H torsion
[ 10763 10752 10751 10750 ] final   -5.55 input  -60.55 | X-H torsion
[ 11005 11000 10999 10996 ] final    8.51 input  -57.11 | X-H torsion

> <Gold.Protein.ActiveResidues>
 VAL166  LYS551  ARG553  GLY616  TRP617  ASP618  TYR619  PRO620  LYS621  CYS622 
 ASP623  PHE694  ASN695  SER759  ASP760  ASP761  ALA762  ILE779  LEU786  VAL792 
 PHE793  MET794  SER795  GLU796  ALA797  LYS798  CYS799  TRP800  GLU811  SER814 

> <Gold.Protein.RotatedAtoms>
  150.7207  134.0544  159.3809 H   0  0  0  0  0  0  0  0  0  0  0  0  # atno 6907 bound_to 6896
  151.8521  135.0552  160.0469 H   0  0  0  0  0  0  0  0  0  0  0  0  # atno 6908 bound_to 6896
  152.2782  133.5409  159.5517 H   0  0  0  0  0  0  0  0  0  0  0  0  # atno 6909 bound_to 6896
  145.4566  139.2289  143.3010 H   0  0  0  0  0  0  0  0  0  0  0  0  # atno 7974 bound_to 7965
  156.2060  140.1761  156.7799 H   0  0  0  0  0  0  0  0  0  0  0  0  # atno 8008 bound_to 7997
  154.5655  140.0692  156.8915 H   0  0  0  0  0  0  0  0  0  0  0  0  # atno 8009 bound_to 7997
  155.2768  140.3346  155.4263 H   0  0  0  0  0  0  0  0  0  0  0  0  # atno 8010 bound_to 7997
  140.7258  143.4921  150.9978 H   0  0  0  0  0  0  0  0  0  0  0  0  # atno 10167 bound_to 10162
  157.4052  131.1021  151.0510 H   0  0  0  0  0  0  0  0  0  0  0  0  # atno 10718 bound_to 10713
  153.4001  135.7004  153.6432 H   0  0  0  0  0  0  0  0  0  0  0  0  # atno 10763 bound_to 10752
  153.4969  135.3660  155.2520 H   0  0  0  0  0  0  0  0  0  0  0  0  # atno 10764 bound_to 10752
  154.8710  135.4102  154.3335 H   0  0  0  0  0  0  0  0  0  0  0  0  # atno 10765 bound_to 10752
  140.5361  134.0419  155.7889 H   0  0  0  0  0  0  0  0  0  0  0  0  # atno 11005 bound_to 11000
  146.2474  140.5331  142.8908 LP  0  0  0  0  0  0  0  0  0  0  0  0  # atno 17320 bound_to 7965
  144.8028  140.6245  143.6466 LP  0  0  0  0  0  0  0  0  0  0  0  0  # atno 17321 bound_to 7965
  139.8626  143.7295  152.3172 LP  0  0  0  0  0  0  0  0  0  0  0  0  # atno 17342 bound_to 10162
  139.7515  144.7532  151.0499 LP  0  0  0  0  0  0  0  0  0  0  0  0  # atno 17343 bound_to 10162
  157.1495  130.6178  149.5578 LP  0  0  0  0  0  0  0  0  0  0  0  0  # atno 17370 bound_to 10713
  155.9834  130.4854  150.6933 LP  0  0  0  0  0  0  0  0  0  0  0  0  # atno 17371 bound_to 10713
  141.1253  133.9392  157.2647 LP  0  0  0  0  0  0  0  0  0  0  0  0  # atno 17394 bound_to 11000
  139.9528  135.0172  156.9043 LP  0  0  0  0  0  0  0  0  0  0  0  0  # atno 17395 bound_to 11000

$$$$
