AV-unprocessed.smi:1288|AV-procd|sdf|5381|dock7
  -GOLD-   22720 4533D 1   1.00000     0.00000
 Structure written by MMmdl.
 42 44  0  0  0  0  0  0  0  0  1 V2000
  150.1037  141.2403  155.3800 C   0  0  0  0  0  0  0  0  0  0  0  0
  150.8012  141.6837  156.6268 C   0  0  0  0  0  0  0  0  0  0  0  0
  150.8860  142.9674  156.9762 N   0  0  0  0  0  0  0  0  0  0  0  0
  151.6020  142.9134  158.1565 C   0  0  0  0  0  0  0  0  0  0  0  0
  152.0224  143.9472  159.0235 C   0  0  0  0  0  0  0  0  0  0  0  0
  152.7541  143.6464  160.1909 C   0  0  0  0  0  0  0  0  0  0  0  0
  153.0764  142.3107  160.5071 C   0  0  0  0  0  0  0  0  0  0  0  0
  152.6668  141.2653  159.6573 C   0  0  0  0  0  0  0  0  0  0  0  0
  151.9360  141.5707  158.4933 C   0  0  0  0  0  0  0  0  0  0  0  0
  151.3910  140.8007  157.4698 N   0  0  0  0  0  0  0  0  0  0  0  0
  151.4556  139.3503  157.3453 C   0  0  0  0  0  0  0  0  0  0  0  0
  150.5825  138.6203  158.3863 C   0  0  2  0  0  0  0  0  0  0  0  0
  151.2719  138.5812  159.6207 O   0  0  0  0  0  0  0  0  0  0  0  0
  150.2673  137.1783  157.9582 C   0  0  0  0  0  0  0  0  0  0  0  0
  149.8048  136.4483  159.0831 O   0  0  0  0  0  0  0  0  0  0  0  0
  148.4028  136.5509  159.2659 C   0  0  0  0  0  0  0  0  0  0  0  0
  147.9546  135.8280  160.5209 C   0  0  0  0  0  0  0  0  0  0  0  0
  147.6798  136.5586  161.6963 C   0  0  0  0  0  0  0  0  0  0  0  0
  147.2641  135.8908  162.8648 C   0  0  0  0  0  0  0  0  0  0  0  0
  147.1202  134.4900  162.8622 C   0  0  0  0  0  0  0  0  0  0  0  0
  147.3908  133.7576  161.6901 C   0  0  0  0  0  0  0  0  0  0  0  0
  147.8065  134.4239  160.5205 C   0  0  0  0  0  0  0  0  0  0  0  0
  148.0621  133.7097  159.3980 F   0  0  0  0  0  0  0  0  0  0  0  0
  149.6810  142.0967  154.8535 H   0  0  0  0  0  0  0  0  0  0  0  0
  149.2927  140.5534  155.6204 H   0  0  0  0  0  0  0  0  0  0  0  0
  150.8053  140.7407  154.7118 H   0  0  0  0  0  0  0  0  0  0  0  0
  151.7806  144.9736  158.7901 H   0  0  0  0  0  0  0  0  0  0  0  0
  153.0696  144.4444  160.8469 H   0  0  0  0  0  0  0  0  0  0  0  0
  153.6377  142.0889  161.4031 H   0  0  0  0  0  0  0  0  0  0  0  0
  152.9096  140.2413  159.8990 H   0  0  0  0  0  0  0  0  0  0  0  0
  151.1528  139.0735  156.3352 H   0  0  0  0  0  0  0  0  0  0  0  0
  152.4968  139.0395  157.4413 H   0  0  0  0  0  0  0  0  0  0  0  0
  149.6505  139.1697  158.5220 H   0  0  0  0  0  0  0  0  0  0  0  0
  151.6619  139.4286  159.7724 H   0  0  0  0  0  0  0  0  0  0  0  0
  149.4741  137.1838  157.2086 H   0  0  0  0  0  0  0  0  0  0  0  0
  151.1379  136.7028  157.5027 H   0  0  0  0  0  0  0  0  0  0  0  0
  148.1090  137.5995  159.3352 H   0  0  0  0  0  0  0  0  0  0  0  0
  147.8842  136.1328  158.4015 H   0  0  0  0  0  0  0  0  0  0  0  0
  147.7857  137.6336  161.7055 H   0  0  0  0  0  0  0  0  0  0  0  0
  147.0554  136.4537  163.7627 H   0  0  0  0  0  0  0  0  0  0  0  0
  146.8012  133.9779  163.7581 H   0  0  0  0  0  0  0  0  0  0  0  0
  147.2790  132.6835  161.6875 H   0  0  0  0  0  0  0  0  0  0  0  0
  1  2  1  0  0  0  0
  1 24  1  0  0  0  0
  1 25  1  0  0  0  0
  1 26  1  0  0  0  0
  2 10  1  0  0  0  0
  2  3  2  0  0  0  0
  3  4  1  0  0  0  0
  4  9  2  0  0  0  0
  4  5  1  0  0  0  0
  5  6  2  0  0  0  0
  5 27  1  0  0  0  0
  6  7  1  0  0  0  0
  6 28  1  0  0  0  0
  7  8  2  0  0  0  0
  7 29  1  0  0  0  0
  8  9  1  0  0  0  0
  8 30  1  0  0  0  0
  9 10  1  0  0  0  0
 10 11  1  0  0  0  0
 11 12  1  0  0  0  0
 11 31  1  0  0  0  0
 11 32  1  0  0  0  0
 12 13  1  0  0  0  0
 12 14  1  0  0  0  0
 12 33  1  0  0  0  0
 13 34  1  0  0  0  0
 14 15  1  0  0  0  0
 14 35  1  0  0  0  0
 14 36  1  0  0  0  0
 15 16  1  0  0  0  0
 16 17  1  0  0  0  0
 16 37  1  0  0  0  0
 16 38  1  0  0  0  0
 17 22  1  0  0  0  0
 17 18  2  0  0  0  0
 18 19  1  0  0  0  0
 18 39  1  0  0  0  0
 19 20  2  0  0  0  0
 19 40  1  0  0  0  0
 20 21  1  0  0  0  0
 20 41  1  0  0  0  0
 21 22  2  0  0  0  0
 21 42  1  0  0  0  0
 22 23  1  0  0  0  0
M  END
> <s_m_source_file>
AV-unprocessed.smi

> <i_m_source_file_index>
1288

> <i_lp_mmshare_version>
43012

> <i_f3d_flags>
0

> <s_epik_input>
W2NIXTFbY0hdW2NIXVtjSF1jKGMxMiluKGMobjIpW0NIM10pW0NIMl1bQ0BIXShbT0hdKVtDSDJdT1tDSDJdYzNbY0hdW2NIXVtjSF1bY0hdYzNG

> <s_epik_cmdline>
J2VwaWtfcHl0aG9uJywgJy1waCcsICc3LjAnLCAnLXRuJywgJzgnLCAnLW1hJywgJzIwMCcsICctbWV0YWxfYmluZGluZycsICctaW1hZScsICc8aW5maWxlLm1hZT4nLCAnLW9tYWUnLCAnPG91dGZpbGUubWFlPic=

> <r_epik_Ionization_Penalty>
0.132603

> <r_epik_Ionization_Penalty_Charging>
0

> <r_epik_Ionization_Penalty_Neutral>
0.132603

> <r_epik_State_Penalty>
0.121982

> <r_epik_Charging_Adjusted_Penalty>
0.121982

> <i_epik_Tot_Q>
0

> <i_epik_Tot_abs_Q>
0

> <r_epik_Metal_State_Penalty>
0.000135431

> <b_epik_Metal_Only>
0

> <s_lp_Force_Field>
OPLS_2005

> <r_lp_Energy>
16.1737

> <b_lp_Chiralities_Consistent>
1

> <s_lp_Variant>
AV-unprocessed.smi:1288-1

> <Gold.Version>
5.8.1

> <Gold.Id.Protein>
6NUR|6NUR_protein|mol2

> <Gold.PLP.Fitness>
51.5641

> <Gold.PLP.PLP>
-50.1350

> <Gold.PLP.part.hbond>
-1.8920

> <Gold.PLP.part.metal>
0.0000

> <Gold.PLP.part.buried>
-4.0632

> <Gold.PLP.part.nonpolar>
-45.1003

> <Gold.PLP.part.repulsive>
0.1446

> <Gold.PLP.ligand.clash>
0.0000

> <Gold.PLP.ligand.torsion>
0.8593

> <Gold.PLP.Chemscore.Hbond>
1.0000

> <Gold.PLP.Chemscore.CHOScore>
0.0000

> <Gold.PLP.Chemscore.Metal>
0.0000

> <Gold.Chemscore.Hbonds>
donor molecule, donor type, donor heavy atom, donor atom, acceptor molecule, acceptor atom, score
      P1  H  6896  6909       L1    15  1.00

> <Gold.PLP.Chemscore.Internal.Correction>
0.1477

> <Gold.Rescore>
     Score         DG    S(hbond)    S(metal)    S(lipo)     H(rot)  DE(clash)    DE(int)     intcor
     17.29     -18.32       0.95        0.00     132.66       2.29       0.10       0.93       ----

> <Gold.Chemscore.Fitness>
17.2897

> <Gold.Chemscore.DG>
-18.3242

> <Gold.Chemscore.ZeroCoef>
-5.4800

> <Gold.Chemscore.Hbond>
0.9508

> <Gold.Chemscore.Metal>
0.0000

> <Gold.Chemscore.Lipo>
132.6632

> <Gold.Chemscore.Internal_Hbond>
0.0000

> <Gold.Chemscore.DEClash>
0.1022

> <Gold.Chemscore.DEInternal>
0.9323

> <Gold.Chemscore.Rot>
2.2863

> <Gold.Chemscore.Internal.Correction>
   9.000000E+99

> <Gold.Chemscore.Hbonds>
donor molecule, donor type, donor heavy atom, donor atom, acceptor molecule, acceptor atom, score
      P1  H  6896  6909       L1    15  0.92

> <Gold.Chemscore.Hbond.Weighted>
-3.1756

> <Gold.Chemscore.Metal.Weighted>
-0.0000

> <Gold.Chemscore.Lipo.Weighted>
-15.5216

> <Gold.Chemscore.Internal_Hbond.Weighted>
0.0000

> <Gold.Chemscore.DEClash.Weighted>
0.1022

> <Gold.Chemscore.DEInternal.Weighted>
0.9323

> <Gold.Chemscore.Rot.Weighted>
5.8530

> <Gold.Chemscore.Internal.Correction.Weighted>
   9.000000E+99

> <Gold.Protein.RotatedTorsions>
[ 6907 6896 6895 6894 ] final   67.11 input  -60.11 | X-H torsion
[ 7974 7965 7964 7962 ] final -153.78 input  175.53 | X-H torsion
[ 8008 7997 7996 7995 ] final -168.20 input   59.86 | X-H torsion
[ 10167 10162 10161 10158 ] final  -38.75 input  -65.29 | X-H torsion
[ 10718 10713 10712 10709 ] final -126.16 input   66.30 | X-H torsion
[ 10763 10752 10751 10750 ] final  -74.96 input  -60.55 | X-H torsion
[ 11005 11000 10999 10996 ] final  -17.88 input  -57.11 | X-H torsion

> <Gold.Protein.ActiveResidues>
 VAL166  LYS551  ARG553  GLY616  TRP617  ASP618  TYR619  PRO620  LYS621  CYS622 
 ASP623  PHE694  ASN695  SER759  ASP760  ASP761  ALA762  ILE779  LEU786  VAL792 
 PHE793  MET794  SER795  GLU796  ALA797  LYS798  CYS799  TRP800  GLU811  SER814 

> <Gold.Protein.RotatedAtoms>
  152.4529  134.5355  159.9823 H   0  0  0  0  0  0  0  0  0  0  0  0  # atno 6907 bound_to 6896
  151.5423  133.3425  159.2945 H   0  0  0  0  0  0  0  0  0  0  0  0  # atno 6908 bound_to 6896
  150.8463  134.7804  159.7036 H   0  0  0  0  0  0  0  0  0  0  0  0  # atno 6909 bound_to 6896
  144.7723  140.4478  143.5898 H   0  0  0  0  0  0  0  0  0  0  0  0  # atno 7974 bound_to 7965
  155.8881  140.1020  157.1438 H   0  0  0  0  0  0  0  0  0  0  0  0  # atno 8008 bound_to 7997
  154.4012  140.1316  156.4345 H   0  0  0  0  0  0  0  0  0  0  0  0  # atno 8009 bound_to 7997
  155.7565  140.3464  155.5179 H   0  0  0  0  0  0  0  0  0  0  0  0  # atno 8010 bound_to 7997
  140.7083  143.3257  151.2685 H   0  0  0  0  0  0  0  0  0  0  0  0  # atno 10167 bound_to 10162
  156.1740  130.6687  151.0218 H   0  0  0  0  0  0  0  0  0  0  0  0  # atno 10718 bound_to 10713
  154.4801  135.5847  153.6383 H   0  0  0  0  0  0  0  0  0  0  0  0  # atno 10763 bound_to 10752
  152.9846  135.6088  154.3257 H   0  0  0  0  0  0  0  0  0  0  0  0  # atno 10764 bound_to 10752
  154.3147  135.2844  155.2528 H   0  0  0  0  0  0  0  0  0  0  0  0  # atno 10765 bound_to 10752
  140.8212  133.8066  155.9662 H   0  0  0  0  0  0  0  0  0  0  0  0  # atno 11005 bound_to 11000
  145.6289  139.1533  143.2980 LP  0  0  0  0  0  0  0  0  0  0  0  0  # atno 17320 bound_to 7965
  146.1878  140.6394  142.9159 LP  0  0  0  0  0  0  0  0  0  0  0  0  # atno 17321 bound_to 7965
  139.6725  143.9995  152.2761 LP  0  0  0  0  0  0  0  0  0  0  0  0  # atno 17342 bound_to 10162
  139.9598  144.6565  150.8090 LP  0  0  0  0  0  0  0  0  0  0  0  0  # atno 17343 bound_to 10162
  157.6823  131.0834  150.7337 LP  0  0  0  0  0  0  0  0  0  0  0  0  # atno 17370 bound_to 10713
  156.7395  130.4734  149.5481 LP  0  0  0  0  0  0  0  0  0  0  0  0  # atno 17371 bound_to 10713
  140.9096  134.2277  157.4993 LP  0  0  0  0  0  0  0  0  0  0  0  0  # atno 17394 bound_to 11000
  139.8708  134.9744  156.4845 LP  0  0  0  0  0  0  0  0  0  0  0  0  # atno 17395 bound_to 11000

$$$$
