AV-unprocessed.smi:1114|AV-procd|sdf|4800|dock5
  -GOLD-   22720 3343D 1   1.00000     0.00000
 Structure written by MMmdl.
 52 54  0  0  0  0  0  0  0  0  1 V2000
  143.3884  132.8665  152.1524 C   0  0  0  0  0  0  0  0  0  0  0  0
  143.0981  134.1617  152.9142 C   0  0  0  0  0  0  0  0  0  0  0  0
  142.5455  134.0758  154.0109 O   0  0  0  0  0  0  0  0  0  0  0  0
  143.4584  135.3473  152.3667 N   0  0  0  0  0  0  0  0  0  0  0  0
  143.2961  136.6268  153.0665 C   0  0  0  0  0  0  0  0  0  0  0  0
  144.6859  137.1458  153.4781 C   0  0  0  0  0  0  0  0  0  0  0  0
  145.6285  137.2626  152.2606 C   0  0  0  0  0  0  0  0  0  0  0  0
  146.9807  137.5685  152.7173 N   0  0  0  0  0  0  0  0  0  0  0  0
  147.3020  138.5148  153.6109 C   0  0  0  0  0  0  0  0  0  0  0  0
  146.4708  139.2367  154.1605 O   0  0  0  0  0  0  0  0  0  0  0  0
  148.6302  138.5501  153.8162 N   0  0  0  0  0  0  0  0  0  0  0  0
  149.3921  139.4042  154.6608 C   0  0  0  0  0  0  0  0  0  0  0  0
  148.7683  140.5736  155.1369 C   0  0  0  0  0  0  0  0  0  0  0  0
  149.4813  141.4424  155.9838 C   0  0  0  0  0  0  0  0  0  0  0  0
  150.8117  141.1204  156.3396 C   0  0  0  0  0  0  0  0  0  0  0  0
  151.5491  141.9783  157.1852 N   0  0  0  0  0  0  0  0  0  0  0  0
  151.9920  141.3876  158.4501 C   0  0  0  0  0  0  0  0  0  0  0  0
  153.1072  142.2273  159.0957 C   0  0  0  0  0  0  0  0  0  0  0  0
  152.6765  143.6934  159.2496 C   0  0  0  0  0  0  0  0  0  0  0  0
  152.2328  144.2547  157.8911 C   0  0  0  0  0  0  0  0  0  0  0  0
  151.1328  143.3813  157.2641 C   0  0  0  0  0  0  0  0  0  0  0  0
  151.4087  139.9889  155.8919 N   0  0  0  0  0  0  0  0  0  0  0  0
  150.7217  139.1576  155.0799 C   0  0  0  0  0  0  0  0  0  0  0  0
  145.6212  135.9693  151.4126 C   0  0  0  0  0  0  0  0  0  0  0  0
  144.1848  135.5131  151.1018 C   0  0  0  0  0  0  0  0  0  0  0  0
  144.4557  132.7649  151.9540 H   0  0  0  0  0  0  0  0  0  0  0  0
  142.8468  132.8451  151.2064 H   0  0  0  0  0  0  0  0  0  0  0  0
  143.0748  131.9996  152.7349 H   0  0  0  0  0  0  0  0  0  0  0  0
  142.8079  137.3432  152.4045 H   0  0  0  0  0  0  0  0  0  0  0  0
  142.6536  136.5497  153.9447 H   0  0  0  0  0  0  0  0  0  0  0  0
  144.5898  138.1137  153.9715 H   0  0  0  0  0  0  0  0  0  0  0  0
  145.1147  136.4644  154.2148 H   0  0  0  0  0  0  0  0  0  0  0  0
  145.2643  138.0837  151.6398 H   0  0  0  0  0  0  0  0  0  0  0  0
  147.7280  137.0193  152.3182 H   0  0  0  0  0  0  0  0  0  0  0  0
  149.1679  137.8598  153.3129 H   0  0  0  0  0  0  0  0  0  0  0  0
  147.7501  140.8057  154.8599 H   0  0  0  0  0  0  0  0  0  0  0  0
  148.9980  142.3314  156.3604 H   0  0  0  0  0  0  0  0  0  0  0  0
  151.1361  141.3293  159.1236 H   0  0  0  0  0  0  0  0  0  0  0  0
  152.3519  140.3684  158.3176 H   0  0  0  0  0  0  0  0  0  0  0  0
  153.3718  141.8109  160.0677 H   0  0  0  0  0  0  0  0  0  0  0  0
  154.0060  142.1730  158.4800 H   0  0  0  0  0  0  0  0  0  0  0  0
  151.8551  143.7639  159.9637 H   0  0  0  0  0  0  0  0  0  0  0  0
  153.4962  144.2878  159.6540 H   0  0  0  0  0  0  0  0  0  0  0  0
  151.8755  145.2782  158.0065 H   0  0  0  0  0  0  0  0  0  0  0  0
  153.0900  144.2999  157.2178 H   0  0  0  0  0  0  0  0  0  0  0  0
  150.9020  143.7632  156.2689 H   0  0  0  0  0  0  0  0  0  0  0  0
  150.2193  143.4501  157.8565 H   0  0  0  0  0  0  0  0  0  0  0  0
  151.2697  138.2778  154.7848 H   0  0  0  0  0  0  0  0  0  0  0  0
  146.1693  136.1247  150.4826 H   0  0  0  0  0  0  0  0  0  0  0  0
  146.1407  135.1722  151.9470 H   0  0  0  0  0  0  0  0  0  0  0  0
  144.2047  134.6137  150.4879 H   0  0  0  0  0  0  0  0  0  0  0  0
  143.6800  136.2662  150.4945 H   0  0  0  0  0  0  0  0  0  0  0  0
  1  2  1  0  0  0  0
  1 26  1  0  0  0  0
  1 27  1  0  0  0  0
  1 28  1  0  0  0  0
  2  3  2  0  0  0  0
  2  4  1  0  0  0  0
  4 25  1  0  0  0  0
  4  5  1  0  0  0  0
  5  6  1  0  0  0  0
  5 29  1  0  0  0  0
  5 30  1  0  0  0  0
  6  7  1  0  0  0  0
  6 31  1  0  0  0  0
  6 32  1  0  0  0  0
  7  8  1  0  0  0  0
  7 24  1  0  0  0  0
  7 33  1  0  0  0  0
  8  9  1  0  0  0  0
  8 34  1  0  0  0  0
  9 10  2  0  0  0  0
  9 11  1  0  0  0  0
 11 12  1  0  0  0  0
 11 35  1  0  0  0  0
 12 23  1  0  0  0  0
 12 13  2  0  0  0  0
 13 14  1  0  0  0  0
 13 36  1  0  0  0  0
 14 15  2  0  0  0  0
 14 37  1  0  0  0  0
 15 16  1  0  0  0  0
 15 22  1  0  0  0  0
 16 21  1  0  0  0  0
 16 17  1  0  0  0  0
 17 18  1  0  0  0  0
 17 38  1  0  0  0  0
 17 39  1  0  0  0  0
 18 19  1  0  0  0  0
 18 40  1  0  0  0  0
 18 41  1  0  0  0  0
 19 20  1  0  0  0  0
 19 42  1  0  0  0  0
 19 43  1  0  0  0  0
 20 21  1  0  0  0  0
 20 44  1  0  0  0  0
 20 45  1  0  0  0  0
 21 46  1  0  0  0  0
 21 47  1  0  0  0  0
 22 23  2  0  0  0  0
 23 48  1  0  0  0  0
 24 25  1  0  0  0  0
 24 49  1  0  0  0  0
 24 50  1  0  0  0  0
 25 51  1  0  0  0  0
 25 52  1  0  0  0  0
M  END
> <s_m_source_file>
AV-unprocessed.smi

> <i_m_source_file_index>
1114

> <i_lp_mmshare_version>
43012

> <i_f3d_flags>
0

> <s_epik_input>
W0NIM11DKD1PKU4xW0NIMl1bQ0gyXVtDSF0oW0NIMl1bQ0gyXTEpW05IXUMoPU8pW05IXWMyW2NIXVtjSF1jKG5bY0hdMilOM1tDSDJdW0NIMl1bQ0gyXVtDSDJdW0NIMl0z

> <s_epik_cmdline>
J2VwaWtfcHl0aG9uJywgJy1waCcsICc3LjAnLCAnLXRuJywgJzgnLCAnLW1hJywgJzIwMCcsICctbWV0YWxfYmluZGluZycsICctaW1hZScsICc8aW5maWxlLm1hZT4nLCAnLW9tYWUnLCAnPG91dGZpbGUubWFlPic=

> <r_lp_tautomer_probability>
1

> <r_epik_Ionization_Penalty>
0.108876

> <r_epik_Ionization_Penalty_Charging>
0

> <r_epik_Ionization_Penalty_Neutral>
0.108876

> <r_epik_State_Penalty>
0.0925502

> <r_epik_Charging_Adjusted_Penalty>
0.0925502

> <i_epik_Tot_Q>
0

> <i_epik_Tot_abs_Q>
0

> <r_epik_Metal_State_Penalty>
0.0787426

> <b_epik_Metal_Only>
0

> <s_lp_Force_Field>
OPLS_2005

> <r_lp_Energy>
37.4481

> <b_lp_Chiralities_Consistent>
1

> <s_lp_Variant>
AV-unprocessed.smi:1114-1

> <Gold.Version>
5.8.1

> <Gold.Id.Protein>
6NUR|6NUR_protein|mol2

> <Gold.PLP.Fitness>
48.5237

> <Gold.PLP.PLP>
-45.8799

> <Gold.PLP.part.hbond>
-2.4082

> <Gold.PLP.part.metal>
0.0000

> <Gold.PLP.part.buried>
2.1724

> <Gold.PLP.part.nonpolar>
-46.9339

> <Gold.PLP.part.repulsive>
0.8013

> <Gold.PLP.ligand.clash>
0.0000

> <Gold.PLP.ligand.torsion>
0.5003

> <Gold.PLP.Chemscore.Hbond>
1.0659

> <Gold.PLP.Chemscore.CHOScore>
0.0000

> <Gold.PLP.Chemscore.Metal>
0.0000

> <Gold.Chemscore.Hbonds>
donor molecule, donor type, donor heavy atom, donor atom, acceptor molecule, acceptor atom, score
      L1  H     8    34       P1  7948  0.96
      L1  H    11    35       P1  7948  0.58

> <Gold.PLP.Chemscore.Internal.Correction>
0.4466

> <Gold.Rescore>
     Score         DG    S(hbond)    S(metal)    S(lipo)     H(rot)  DE(clash)    DE(int)     intcor
     14.91     -20.02       0.99        0.00     122.37       1.20       2.17       2.94       ----

> <Gold.Chemscore.Fitness>
14.9069

> <Gold.Chemscore.DG>
-20.0170

> <Gold.Chemscore.ZeroCoef>
-5.4800

> <Gold.Chemscore.Hbond>
0.9858

> <Gold.Chemscore.Metal>
0.0000

> <Gold.Chemscore.Lipo>
122.3693

> <Gold.Chemscore.Internal_Hbond>
0.0000

> <Gold.Chemscore.DEClash>
2.1658

> <Gold.Chemscore.DEInternal>
2.9444

> <Gold.Chemscore.Rot>
1.2003

> <Gold.Chemscore.Internal.Correction>
   9.000000E+99

> <Gold.Chemscore.Hbonds>
donor molecule, donor type, donor heavy atom, donor atom, acceptor molecule, acceptor atom, score
      L1  H     8    34       P1  7948  0.91
      L1  H    11    35       P1  7948  0.56

> <Gold.Chemscore.Hbond.Weighted>
-3.2926

> <Gold.Chemscore.Metal.Weighted>
-0.0000

> <Gold.Chemscore.Lipo.Weighted>
-14.3172

> <Gold.Chemscore.Internal_Hbond.Weighted>
0.0000

> <Gold.Chemscore.DEClash.Weighted>
2.1658

> <Gold.Chemscore.DEInternal.Weighted>
2.9444

> <Gold.Chemscore.Rot.Weighted>
3.0728

> <Gold.Chemscore.Internal.Correction.Weighted>
   9.000000E+99

> <Gold.Protein.RotatedTorsions>
[ 6907 6896 6895 6894 ] final  -87.60 input  -60.11 | X-H torsion
[ 7974 7965 7964 7962 ] final  -50.71 input  175.53 | X-H torsion
[ 8008 7997 7996 7995 ] final   10.75 input   59.86 | X-H torsion
[ 10167 10162 10161 10158 ] final  169.84 input  -65.29 | X-H torsion
[ 10718 10713 10712 10709 ] final  -82.00 input   66.30 | X-H torsion
[ 10763 10752 10751 10750 ] final  175.26 input  -60.55 | X-H torsion
[ 11005 11000 10999 10996 ] final   10.98 input  -57.11 | X-H torsion

> <Gold.Protein.ActiveResidues>
 VAL166  LYS551  ARG553  GLY616  TRP617  ASP618  TYR619  PRO620  LYS621  CYS622 
 ASP623  PHE694  ASN695  SER759  ASP760  ASP761  ALA762  ILE779  LEU786  VAL792 
 PHE793  MET794  SER795  GLU796  ALA797  LYS798  CYS799  TRP800  GLU811  SER814 

> <Gold.Protein.RotatedAtoms>
  150.6866  134.2871  159.4650 H   0  0  0  0  0  0  0  0  0  0  0  0  # atno 6907 bound_to 6896
  152.0779  134.9488  160.0583 H   0  0  0  0  0  0  0  0  0  0  0  0  # atno 6908 bound_to 6896
  152.0852  133.4138  159.4556 H   0  0  0  0  0  0  0  0  0  0  0  0  # atno 6909 bound_to 6896
  145.9269  140.7784  142.9619 H   0  0  0  0  0  0  0  0  0  0  0  0  # atno 7974 bound_to 7965
  154.7977  140.2846  155.5945 H   0  0  0  0  0  0  0  0  0  0  0  0  # atno 8008 bound_to 7997
  156.2973  140.2592  156.2767 H   0  0  0  0  0  0  0  0  0  0  0  0  # atno 8009 bound_to 7997
  154.9595  140.0378  157.2173 H   0  0  0  0  0  0  0  0  0  0  0  0  # atno 8010 bound_to 7997
  139.5003  144.3662  151.9773 H   0  0  0  0  0  0  0  0  0  0  0  0  # atno 10167 bound_to 10162
  156.0040  130.4621  150.4038 H   0  0  0  0  0  0  0  0  0  0  0  0  # atno 10718 bound_to 10713
  154.4651  135.2769  155.1684 H   0  0  0  0  0  0  0  0  0  0  0  0  # atno 10763 bound_to 10752
  154.3456  135.6161  153.5621 H   0  0  0  0  0  0  0  0  0  0  0  0  # atno 10764 bound_to 10752
  152.9858  135.5799  154.5021 H   0  0  0  0  0  0  0  0  0  0  0  0  # atno 10765 bound_to 10752
  140.5083  134.0677  155.7811 H   0  0  0  0  0  0  0  0  0  0  0  0  # atno 11005 bound_to 11000
  144.6760  140.2065  143.7381 LP  0  0  0  0  0  0  0  0  0  0  0  0  # atno 17320 bound_to 7965
  145.8477  139.2160  143.1790 LP  0  0  0  0  0  0  0  0  0  0  0  0  # atno 17321 bound_to 7965
  140.3098  144.3551  150.6037 LP  0  0  0  0  0  0  0  0  0  0  0  0  # atno 17342 bound_to 10162
  140.5808  143.2173  151.7432 LP  0  0  0  0  0  0  0  0  0  0  0  0  # atno 17343 bound_to 10162
  157.2106  131.0459  151.2601 LP  0  0  0  0  0  0  0  0  0  0  0  0  # atno 17370 bound_to 10713
  157.3892  130.7273  149.6685 LP  0  0  0  0  0  0  0  0  0  0  0  0  # atno 17371 bound_to 10713
  141.1399  133.9157  157.2350 LP  0  0  0  0  0  0  0  0  0  0  0  0  # atno 17394 bound_to 11000
  139.9673  135.0138  156.9421 LP  0  0  0  0  0  0  0  0  0  0  0  0  # atno 17395 bound_to 11000

$$$$
