AV-unprocessed.smi:2802|AV-procd|sdf|10806|dock1
  -GOLD-   2272015243D 1   1.00000     0.00000
 Structure written by MMmdl.
 47 48  0  0  0  0  0  0  0  0  1 V2000
  147.5256  139.9454  154.0652 C   0  0  0  0  0  0  0  0  0  0  0  0
  148.6300  139.3223  154.9312 C   0  0  1  0  0  0  0  0  0  0  0  0
  148.5805  137.7844  154.8708 C   0  0  0  0  0  0  0  0  0  0  0  0
  149.6721  137.0992  155.7249 C   0  0  0  0  0  0  0  0  0  0  0  0
  149.3342  137.2036  157.2280 C   0  0  0  0  0  0  0  0  0  0  0  0
  149.6994  135.5975  155.3738 C   0  0  0  0  0  0  0  0  0  0  0  0
  151.0672  137.7009  155.3908 C   0  0  0  0  0  0  0  0  0  0  0  0
  151.1826  139.2580  155.3609 C   0  0  2  0  0  0  0  0  0  0  0  0
  152.5137  139.7350  154.7058 C   0  0  0  0  0  0  0  0  0  0  0  0
  153.6531  139.0239  155.1474 O   0  0  0  0  0  0  0  0  0  0  0  0
  151.0527  139.8809  156.6862 N   0  0  0  0  0  0  0  0  0  0  0  0
  151.8879  139.8179  157.7394 C   0  0  0  0  0  0  0  0  0  0  0  0
  152.9405  139.1823  157.7521 O   0  0  0  0  0  0  0  0  0  0  0  0
  151.4598  140.5980  158.9838 C   0  0  0  0  0  0  0  0  0  0  0  0
  151.7852  142.0722  158.8235 C   0  0  0  0  0  0  0  0  0  0  0  0
  151.3448  142.7948  157.6948 C   0  0  0  0  0  0  0  0  0  0  0  0
  151.6484  144.1667  157.6071 C   0  0  0  0  0  0  0  0  0  0  0  0
  152.3840  144.7588  158.6530 C   0  0  0  0  0  0  0  0  0  0  0  0
  152.8142  144.0767  159.7361 N   0  0  0  0  0  0  0  0  0  0  0  0
  152.5197  142.7611  159.8127 C   0  0  0  0  0  0  0  0  0  0  0  0
  150.0227  139.8205  154.5004 C   0  0  0  0  0  0  0  0  0  0  0  0
  147.6413  139.6721  153.0158 H   0  0  0  0  0  0  0  0  0  0  0  0
  147.5432  141.0336  154.1298 H   0  0  0  0  0  0  0  0  0  0  0  0
  146.5389  139.6131  154.3890 H   0  0  0  0  0  0  0  0  0  0  0  0
  148.4425  139.6444  155.9552 H   0  0  0  0  0  0  0  0  0  0  0  0
  147.5949  137.4331  155.1796 H   0  0  0  0  0  0  0  0  0  0  0  0
  148.6925  137.4770  153.8298 H   0  0  0  0  0  0  0  0  0  0  0  0
  150.1326  136.7893  157.8446 H   0  0  0  0  0  0  0  0  0  0  0  0
  148.4216  136.6569  157.4668 H   0  0  0  0  0  0  0  0  0  0  0  0
  149.1710  138.2282  157.5502 H   0  0  0  0  0  0  0  0  0  0  0  0
  150.4564  135.0684  155.9540 H   0  0  0  0  0  0  0  0  0  0  0  0
  149.9242  135.4342  154.3191 H   0  0  0  0  0  0  0  0  0  0  0  0
  148.7391  135.1223  155.5770 H   0  0  0  0  0  0  0  0  0  0  0  0
  151.8131  137.2683  156.0577 H   0  0  0  0  0  0  0  0  0  0  0  0
  151.3465  137.3473  154.3967 H   0  0  0  0  0  0  0  0  0  0  0  0
  152.4786  139.5865  153.6261 H   0  0  0  0  0  0  0  0  0  0  0  0
  152.6698  140.8040  154.8581 H   0  0  0  0  0  0  0  0  0  0  0  0
  153.9606  138.4775  154.4406 H   0  0  0  0  0  0  0  0  0  0  0  0
  150.2174  140.4322  156.8173 H   0  0  0  0  0  0  0  0  0  0  0  0
  150.3883  140.4760  159.1490 H   0  0  0  0  0  0  0  0  0  0  0  0
  151.9642  140.1935  159.8623 H   0  0  0  0  0  0  0  0  0  0  0  0
  150.7743  142.3111  156.9154 H   0  0  0  0  0  0  0  0  0  0  0  0
  151.3227  144.7525  156.7604 H   0  0  0  0  0  0  0  0  0  0  0  0
  152.6325  145.8093  158.6190 H   0  0  0  0  0  0  0  0  0  0  0  0
  152.8691  142.2463  160.6955 H   0  0  0  0  0  0  0  0  0  0  0  0
  150.1730  139.5395  153.4566 H   0  0  0  0  0  0  0  0  0  0  0  0
  150.0446  140.9115  154.5191 H   0  0  0  0  0  0  0  0  0  0  0  0
  1  2  1  0  0  0  0
  1 22  1  0  0  0  0
  1 23  1  0  0  0  0
  1 24  1  0  0  0  0
  2 21  1  0  0  0  0
  2  3  1  0  0  0  0
  2 25  1  0  0  0  0
  3  4  1  0  0  0  0
  3 26  1  0  0  0  0
  3 27  1  0  0  0  0
  4  5  1  0  0  0  0
  4  6  1  0  0  0  0
  4  7  1  0  0  0  0
  5 28  1  0  0  0  0
  5 29  1  0  0  0  0
  5 30  1  0  0  0  0
  6 31  1  0  0  0  0
  6 32  1  0  0  0  0
  6 33  1  0  0  0  0
  7  8  1  0  0  0  0
  7 34  1  0  0  0  0
  7 35  1  0  0  0  0
  8  9  1  0  0  0  0
  8 11  1  0  0  0  0
  8 21  1  0  0  0  0
  9 10  1  0  0  0  0
  9 36  1  0  0  0  0
  9 37  1  0  0  0  0
 10 38  1  0  0  0  0
 11 12  1  0  0  0  0
 11 39  1  0  0  0  0
 12 13  2  0  0  0  0
 12 14  1  0  0  0  0
 14 15  1  0  0  0  0
 14 40  1  0  0  0  0
 14 41  1  0  0  0  0
 15 20  1  0  0  0  0
 15 16  2  0  0  0  0
 16 17  1  0  0  0  0
 16 42  1  0  0  0  0
 17 18  2  0  0  0  0
 17 43  1  0  0  0  0
 18 19  1  0  0  0  0
 18 44  1  0  0  0  0
 19 20  2  0  0  0  0
 20 45  1  0  0  0  0
 21 46  1  0  0  0  0
 21 47  1  0  0  0  0
M  END
> <s_m_source_file>
AV-unprocessed.smi

> <i_m_source_file_index>
2802

> <i_lp_mmshare_version>
43012

> <i_f3d_flags>
0

> <s_epik_input>
W0NIM11DMShbQ0gzXSlbQ0gyXVtDQEBIXShbQ0gzXSlbQ0gyXVtDQF0oW0NIMl0xKShbQ0gyXVtPSF0pW05IXUMoPU8pW0NIMl1jMltjSF1bY0hdW2NIXW5bY0hdMg==

> <s_epik_cmdline>
J2VwaWtfcHl0aG9uJywgJy1waCcsICc3LjAnLCAnLXRuJywgJzgnLCAnLW1hJywgJzIwMCcsICctbWV0YWxfYmluZGluZycsICctaW1hZScsICc8aW5maWxlLm1hZT4nLCAnLW9tYWUnLCAnPG91dGZpbGUubWFlPic=

> <r_epik_Ionization_Penalty>
0.004793

> <r_epik_Ionization_Penalty_Charging>
0

> <r_epik_Ionization_Penalty_Neutral>
0.004793

> <r_epik_State_Penalty>
0.00347421

> <r_epik_Charging_Adjusted_Penalty>
0.00347421

> <i_epik_Tot_Q>
0

> <i_epik_Tot_abs_Q>
0

> <r_epik_Metal_State_Penalty>
-0

> <b_epik_Metal_Only>
0

> <s_lp_Force_Field>
OPLS_2005

> <r_lp_Energy>
17.3779

> <b_lp_Chiralities_Consistent>
1

> <s_lp_Variant>
AV-unprocessed.smi:2802-4

> <Gold.Version>
5.8.1

> <Gold.Id.Protein>
6NUR|6NUR_protein|mol2

> <Gold.PLP.Fitness>
38.0811

> <Gold.PLP.PLP>
-34.7695

> <Gold.PLP.part.hbond>
-1.9023

> <Gold.PLP.part.metal>
0.0000

> <Gold.PLP.part.buried>
-0.7080

> <Gold.PLP.part.nonpolar>
-31.8762

> <Gold.PLP.part.repulsive>
0.0796

> <Gold.PLP.ligand.clash>
0.0000

> <Gold.PLP.ligand.torsion>
0.6114

> <Gold.PLP.Chemscore.Hbond>
1.4873

> <Gold.PLP.Chemscore.CHOScore>
0.0000

> <Gold.PLP.Chemscore.Metal>
0.0000

> <Gold.Chemscore.Hbonds>
donor molecule, donor type, donor heavy atom, donor atom, acceptor molecule, acceptor atom, score
      P1  H  7997  8008       L1    10  0.48
      P1  H  7997  8010       L1    13  0.94

> <Gold.PLP.Chemscore.Internal.Correction>
0.0726

> <Gold.Rescore>
     Score         DG    S(hbond)    S(metal)    S(lipo)     H(rot)  DE(clash)    DE(int)     intcor
     14.64     -18.54       1.45        0.00     114.14       2.00       1.84       2.06       ----

> <Gold.Chemscore.Fitness>
14.6390

> <Gold.Chemscore.DG>
-18.5443

> <Gold.Chemscore.ZeroCoef>
-5.4800

> <Gold.Chemscore.Hbond>
1.4481

> <Gold.Chemscore.Metal>
0.0000

> <Gold.Chemscore.Lipo>
114.1383

> <Gold.Chemscore.Internal_Hbond>
0.0000

> <Gold.Chemscore.DEClash>
1.8407

> <Gold.Chemscore.DEInternal>
2.0646

> <Gold.Chemscore.Rot>
2.0026

> <Gold.Chemscore.Internal.Correction>
   9.000000E+99

> <Gold.Chemscore.Hbonds>
donor molecule, donor type, donor heavy atom, donor atom, acceptor molecule, acceptor atom, score
      P1  H  7997  8008       L1    10  0.19
      P1  H  7997  8010       L1    13  0.85

> <Gold.Chemscore.Hbond.Weighted>
-4.8367

> <Gold.Chemscore.Metal.Weighted>
-0.0000

> <Gold.Chemscore.Lipo.Weighted>
-13.3542

> <Gold.Chemscore.Internal_Hbond.Weighted>
0.0000

> <Gold.Chemscore.DEClash.Weighted>
1.8407

> <Gold.Chemscore.DEInternal.Weighted>
2.0646

> <Gold.Chemscore.Rot.Weighted>
5.1267

> <Gold.Chemscore.Internal.Correction.Weighted>
   9.000000E+99

> <Gold.Protein.RotatedTorsions>
[ 6907 6896 6895 6894 ] final   68.87 input  -60.11 | X-H torsion
[ 7974 7965 7964 7962 ] final  117.45 input  175.53 | X-H torsion
[ 8008 7997 7996 7995 ] final   23.90 input   59.86 | X-H torsion
[ 10167 10162 10161 10158 ] final  174.28 input  -65.29 | X-H torsion
[ 10718 10713 10712 10709 ] final  -62.81 input   66.30 | X-H torsion
[ 10763 10752 10751 10750 ] final  174.14 input  -60.55 | X-H torsion
[ 11005 11000 10999 10996 ] final -169.81 input  -57.11 | X-H torsion

> <Gold.Protein.ActiveResidues>
 VAL166  LYS551  ARG553  GLY616  TRP617  ASP618  TYR619  PRO620  LYS621  CYS622 
 ASP623  PHE694  ASN695  SER759  ASP760  ASP761  ALA762  ILE779  LEU786  VAL792 
 PHE793  MET794  SER795  GLU796  ALA797  LYS798  CYS799  TRP800  GLU811  SER814 

> <Gold.Protein.RotatedAtoms>
  152.4649  134.5098  159.9750 H   0  0  0  0  0  0  0  0  0  0  0  0  # atno 6907 bound_to 6896
  151.5138  133.3474  159.2897 H   0  0  0  0  0  0  0  0  0  0  0  0  # atno 6908 bound_to 6896
  150.8629  134.8014  159.7158 H   0  0  0  0  0  0  0  0  0  0  0  0  # atno 6909 bound_to 6896
  145.1672  139.3122  143.4486 H   0  0  0  0  0  0  0  0  0  0  0  0  # atno 7974 bound_to 7965
  154.9880  140.3110  155.4918 H   0  0  0  0  0  0  0  0  0  0  0  0  # atno 8008 bound_to 7997
  156.2944  140.2254  156.4923 H   0  0  0  0  0  0  0  0  0  0  0  0  # atno 8009 bound_to 7997
  154.7729  140.0451  157.1054 H   0  0  0  0  0  0  0  0  0  0  0  0  # atno 8010 bound_to 7997
  139.5136  144.3164  152.0243 H   0  0  0  0  0  0  0  0  0  0  0  0  # atno 10167 bound_to 10162
  156.0831  130.4213  150.1188 H   0  0  0  0  0  0  0  0  0  0  0  0  # atno 10718 bound_to 10713
  154.4498  135.2764  155.1789 H   0  0  0  0  0  0  0  0  0  0  0  0  # atno 10763 bound_to 10752
  154.3620  135.6127  153.5699 H   0  0  0  0  0  0  0  0  0  0  0  0  # atno 10764 bound_to 10752
  152.9846  135.5836  154.4841 H   0  0  0  0  0  0  0  0  0  0  0  0  # atno 10765 bound_to 10752
  140.5266  134.5657  157.5063 H   0  0  0  0  0  0  0  0  0  0  0  0  # atno 11005 bound_to 11000
  146.3474  140.1804  142.8589 LP  0  0  0  0  0  0  0  0  0  0  0  0  # atno 17320 bound_to 7965
  145.0270  140.8840  143.5132 LP  0  0  0  0  0  0  0  0  0  0  0  0  # atno 17321 bound_to 7965
  140.2607  144.4070  150.6186 LP  0  0  0  0  0  0  0  0  0  0  0  0  # atno 17342 bound_to 10162
  140.6159  143.2172  151.6793 LP  0  0  0  0  0  0  0  0  0  0  0  0  # atno 17343 bound_to 10162
  156.9214  130.9684  151.3548 LP  0  0  0  0  0  0  0  0  0  0  0  0  # atno 17370 bound_to 10713
  157.5956  130.8475  149.8723 LP  0  0  0  0  0  0  0  0  0  0  0  0  # atno 17371 bound_to 10713
  139.9577  134.7506  156.0305 LP  0  0  0  0  0  0  0  0  0  0  0  0  # atno 17394 bound_to 11000
  141.1305  133.6588  156.3451 LP  0  0  0  0  0  0  0  0  0  0  0  0  # atno 17395 bound_to 11000

$$$$
