AV-unprocessed.smi:221|AV-procd|sdf|1696|dock5
  -GOLD-   2262020143D 1   1.00000     0.00000
 Structure written by MMmdl.
 50 53  0  0  0  0  0  0  0  0  1 V2000
  153.0734  144.1450  158.3361 N   0  0  0  0  0  0  0  0  0  0  0  0
  152.2286  144.4562  159.3249 C   0  0  0  0  0  0  0  0  0  0  0  0
  151.6036  145.5143  159.3269 O   0  0  0  0  0  0  0  0  0  0  0  0
  152.0366  143.4555  160.4817 C   0  0  2  0  0  0  0  0  0  0  0  0
  152.4600  144.0777  161.8229 C   0  0  0  0  0  0  0  0  0  0  0  0
  152.8140  142.8661  162.6755 C   0  0  2  0  0  0  0  0  0  0  0  0
  153.6190  143.1708  163.6931 F   0  0  0  0  0  0  0  0  0  0  0  0
  153.4639  141.9152  161.6741 C   0  0  0  0  0  0  0  0  0  0  0  0
  152.8523  142.2353  160.3886 N   0  0  0  0  0  0  0  0  0  0  0  0
  152.5565  141.2221  159.5295 C   0  0  0  0  0  0  0  0  0  0  0  0
  153.4468  140.2094  159.3569 N   0  0  0  0  0  0  0  0  0  0  0  0
  153.1792  139.2034  158.5197 C   0  0  0  0  0  0  0  0  0  0  0  0
  152.0939  139.0106  157.7688 N   0  0  0  0  0  0  0  0  0  0  0  0
  151.1889  140.0151  157.9434 C   0  0  0  0  0  0  0  0  0  0  0  0
  151.3362  141.1463  158.7964 C   0  0  0  0  0  0  0  0  0  0  0  0
  150.1970  141.9407  158.7213 N   0  0  0  0  0  0  0  0  0  0  0  0
  149.4278  141.3220  157.8682 C   0  0  0  0  0  0  0  0  0  0  0  0
  149.9439  140.1547  157.3551 N   0  0  0  0  0  0  0  0  0  0  0  0
  149.3009  139.2739  156.3958 C   0  0  0  0  0  0  0  0  0  0  0  0
  150.2539  138.1741  155.8616 C   0  0  2  0  0  0  0  0  0  0  0  0
  151.1750  138.7203  154.7459 C   0  0  0  0  0  0  0  0  0  0  0  0
  150.5115  139.6894  153.9615 O   0  0  0  0  0  0  0  0  0  0  0  0
  149.5124  136.8828  155.4176 C   0  0  1  0  0  0  0  0  0  0  0  0
  150.4054  135.6994  155.0414 C   0  0  0  0  0  0  0  0  0  0  0  0
  149.7373  134.4961  155.7114 C   0  0  0  0  0  0  0  0  0  0  0  0
  148.4189  134.9341  156.0011 O   0  0  0  0  0  0  0  0  0  0  0  0
  148.5225  136.2833  156.4230 C   0  0  0  0  0  0  0  0  0  0  0  0
  150.9817  143.1820  160.5438 H   0  0  0  0  0  0  0  0  0  0  0  0
  151.9081  142.4205  163.0892 H   0  0  0  0  0  0  0  0  0  0  0  0
  153.2093  144.7893  157.5707 H   0  0  0  0  0  0  0  0  0  0  0  0
  153.5708  143.2667  158.3587 H   0  0  0  0  0  0  0  0  0  0  0  0
  153.3436  144.7072  161.6990 H   0  0  0  0  0  0  0  0  0  0  0  0
  151.6750  144.6880  162.2707 H   0  0  0  0  0  0  0  0  0  0  0  0
  154.5362  142.1006  161.6017 H   0  0  0  0  0  0  0  0  0  0  0  0
  153.3160  140.8775  161.9767 H   0  0  0  0  0  0  0  0  0  0  0  0
  153.9437  138.4447  158.4411 H   0  0  0  0  0  0  0  0  0  0  0  0
  148.4537  141.6990  157.5914 H   0  0  0  0  0  0  0  0  0  0  0  0
  148.4303  138.8405  156.8862 H   0  0  0  0  0  0  0  0  0  0  0  0
  148.9176  139.8828  155.5770 H   0  0  0  0  0  0  0  0  0  0  0  0
  150.9004  137.8859  156.6923 H   0  0  0  0  0  0  0  0  0  0  0  0
  152.0820  139.1540  155.1676 H   0  0  0  0  0  0  0  0  0  0  0  0
  151.4889  137.9255  154.0699 H   0  0  0  0  0  0  0  0  0  0  0  0
  150.3097  139.3087  153.1203 H   0  0  0  0  0  0  0  0  0  0  0  0
  148.9384  137.1114  154.5185 H   0  0  0  0  0  0  0  0  0  0  0  0
  150.4226  135.5767  153.9575 H   0  0  0  0  0  0  0  0  0  0  0  0
  151.4397  135.8046  155.3675 H   0  0  0  0  0  0  0  0  0  0  0  0
  149.7343  133.6090  155.0774 H   0  0  0  0  0  0  0  0  0  0  0  0
  150.2444  134.2465  156.6451 H   0  0  0  0  0  0  0  0  0  0  0  0
  148.9001  136.3007  157.4453 H   0  0  0  0  0  0  0  0  0  0  0  0
  147.5534  136.7826  156.4075 H   0  0  0  0  0  0  0  0  0  0  0  0
  1  2  1  0  0  0  0
  1 30  1  0  0  0  0
  1 31  1  0  0  0  0
  2  3  2  0  0  0  0
  2  4  1  0  0  0  0
  4 28  1  0  0  0  0
  4  9  1  0  0  0  0
  4  5  1  0  0  0  0
  5  6  1  0  0  0  0
  5 32  1  0  0  0  0
  5 33  1  0  0  0  0
  6 29  1  0  0  0  0
  6  7  1  0  0  0  0
  6  8  1  0  0  0  0
  8  9  1  0  0  0  0
  8 34  1  0  0  0  0
  8 35  1  0  0  0  0
  9 10  1  0  0  0  0
 10 15  1  0  0  0  0
 10 11  2  0  0  0  0
 11 12  1  0  0  0  0
 12 13  2  0  0  0  0
 12 36  1  0  0  0  0
 13 14  1  0  0  0  0
 14 18  1  0  0  0  0
 14 15  2  0  0  0  0
 15 16  1  0  0  0  0
 16 17  2  0  0  0  0
 17 18  1  0  0  0  0
 17 37  1  0  0  0  0
 18 19  1  0  0  0  0
 19 20  1  0  0  0  0
 19 38  1  0  0  0  0
 19 39  1  0  0  0  0
 20 21  1  0  0  0  0
 20 23  1  0  0  0  0
 20 40  1  0  0  0  0
 21 22  1  0  0  0  0
 21 41  1  0  0  0  0
 21 42  1  0  0  0  0
 22 43  1  0  0  0  0
 23 27  1  0  0  0  0
 23 24  1  0  0  0  0
 23 44  1  0  0  0  0
 24 25  1  0  0  0  0
 24 45  1  0  0  0  0
 24 46  1  0  0  0  0
 25 26  1  0  0  0  0
 25 47  1  0  0  0  0
 25 48  1  0  0  0  0
 26 27  1  0  0  0  0
 27 49  1  0  0  0  0
 27 50  1  0  0  0  0
M  END
> <s_m_source_file>
AV-unprocessed.smi

> <i_m_source_file_index>
221

> <i_lp_mmshare_version>
43012

> <i_f3d_flags>
0

> <s_epik_input>
W05IMl1DKD1PKVtDQEBIXTFbQ0gyXVtDQEBIXShGKVtDSDJdTjFjKG5bY0hdbjIpYyhjMjMpbltjSF1uM1tDSDJdW0NASF0oW0NIMl1bT0hdKVtDQEBIXTRbQ0gyXVtDSDJdT1tDSDJdNA==

> <s_epik_cmdline>
J2VwaWtfcHl0aG9uJywgJy1waCcsICc3LjAnLCAnLXRuJywgJzgnLCAnLW1hJywgJzIwMCcsICctbWV0YWxfYmluZGluZycsICctaW1hZScsICc8aW5maWxlLm1hZT4nLCAnLW9tYWUnLCAnPG91dGZpbGUubWFlPic=

> <r_lp_tautomer_probability>
1

> <r_epik_Ionization_Penalty>
0.000818822

> <r_epik_Ionization_Penalty_Charging>
0

> <r_epik_Ionization_Penalty_Neutral>
0.000818822

> <r_epik_State_Penalty>
0.000440551

> <r_epik_Charging_Adjusted_Penalty>
0.000440551

> <i_epik_Tot_Q>
0

> <i_epik_Tot_abs_Q>
0

> <r_epik_Metal_State_Penalty>
-0

> <b_epik_Metal_Only>
0

> <s_lp_Force_Field>
OPLS_2005

> <r_lp_Energy>
49.7935

> <b_lp_Chiralities_Consistent>
1

> <s_lp_Variant>
AV-unprocessed.smi:221-11

> <Gold.Version>
5.8.1

> <Gold.Id.Protein>
6NUR|6NUR_protein|mol2

> <Gold.PLP.Fitness>
53.1358

> <Gold.PLP.PLP>
-49.4534

> <Gold.PLP.part.hbond>
-3.2539

> <Gold.PLP.part.metal>
0.0000

> <Gold.PLP.part.buried>
-6.6059

> <Gold.PLP.part.nonpolar>
-39.0935

> <Gold.PLP.part.repulsive>
0.2615

> <Gold.PLP.ligand.clash>
0.0000

> <Gold.PLP.ligand.torsion>
1.1121

> <Gold.PLP.Chemscore.Hbond>
1.8564

> <Gold.PLP.Chemscore.CHOScore>
0.0000

> <Gold.PLP.Chemscore.Metal>
0.0000

> <Gold.Chemscore.Hbonds>
donor molecule, donor type, donor heavy atom, donor atom, acceptor molecule, acceptor atom, score
      L1  H    22    43       P1  7957  0.43
      P1  H  7989  7998       L1    22  0.95

> <Gold.PLP.Chemscore.Internal.Correction>
0.3373

> <Gold.Rescore>
     Score         DG    S(hbond)    S(metal)    S(lipo)     H(rot)  DE(clash)    DE(int)     intcor
      6.12     -10.03       0.95        0.00      84.17       3.31       0.15       3.77       ----

> <Gold.Chemscore.Fitness>
6.1156

> <Gold.Chemscore.DG>
-10.0340

> <Gold.Chemscore.ZeroCoef>
-5.4800

> <Gold.Chemscore.Hbond>
0.9510

> <Gold.Chemscore.Metal>
0.0000

> <Gold.Chemscore.Lipo>
84.1744

> <Gold.Chemscore.Internal_Hbond>
0.0000

> <Gold.Chemscore.DEClash>
0.1467

> <Gold.Chemscore.DEInternal>
3.7717

> <Gold.Chemscore.Rot>
3.3089

> <Gold.Chemscore.Internal.Correction>
   9.000000E+99

> <Gold.Chemscore.Hbonds>
donor molecule, donor type, donor heavy atom, donor atom, acceptor molecule, acceptor atom, score
      L1  H    22    43       P1  7957  0.39
      P1  H  7989  7998       L1    22  0.15

> <Gold.Chemscore.Hbond.Weighted>
-3.1765

> <Gold.Chemscore.Metal.Weighted>
-0.0000

> <Gold.Chemscore.Lipo.Weighted>
-9.8484

> <Gold.Chemscore.Internal_Hbond.Weighted>
0.0000

> <Gold.Chemscore.DEClash.Weighted>
0.1467

> <Gold.Chemscore.DEInternal.Weighted>
3.7717

> <Gold.Chemscore.Rot.Weighted>
8.4709

> <Gold.Chemscore.Internal.Correction.Weighted>
   9.000000E+99

> <Gold.Protein.RotatedTorsions>
[ 6907 6896 6895 6894 ] final -105.49 input  -60.11 | X-H torsion
[ 7974 7965 7964 7962 ] final  117.73 input  175.53 | X-H torsion
[ 8008 7997 7996 7995 ] final  149.36 input   59.86 | X-H torsion
[ 10167 10162 10161 10158 ] final   58.24 input  -65.29 | X-H torsion
[ 10718 10713 10712 10709 ] final  -30.41 input   66.30 | X-H torsion
[ 10763 10752 10751 10750 ] final  165.95 input  -60.55 | X-H torsion
[ 11005 11000 10999 10996 ] final  167.47 input  -57.11 | X-H torsion

> <Gold.Protein.ActiveResidues>
 VAL166  LYS551  ARG553  GLY616  TRP617  ASP618  TYR619  PRO620  LYS621  CYS622 
 ASP623  PHE694  ASN695  SER759  ASP760  ASP761  ALA762  ILE779  LEU786  VAL792 
 PHE793  MET794  SER795  GLU796  ALA797  LYS798  CYS799  TRP800  GLU811  SER814 

> <Gold.Protein.RotatedAtoms>
  150.7339  134.0119  159.3672 H   0  0  0  0  0  0  0  0  0  0  0  0  # atno 6907 bound_to 6896
  151.8079  135.0687  160.0418 H   0  0  0  0  0  0  0  0  0  0  0  0  # atno 6908 bound_to 6896
  152.3094  133.5700  159.5707 H   0  0  0  0  0  0  0  0  0  0  0  0  # atno 6909 bound_to 6896
  145.1638  139.3140  143.4503 H   0  0  0  0  0  0  0  0  0  0  0  0  # atno 7974 bound_to 7965
  156.2758  140.2104  156.5845 H   0  0  0  0  0  0  0  0  0  0  0  0  # atno 8008 bound_to 7997
  154.7032  140.0519  157.0501 H   0  0  0  0  0  0  0  0  0  0  0  0  # atno 8009 bound_to 7997
  155.0706  140.3176  155.4634 H   0  0  0  0  0  0  0  0  0  0  0  0  # atno 8010 bound_to 7997
  140.1893  144.4102  150.6578 H   0  0  0  0  0  0  0  0  0  0  0  0  # atno 10167 bound_to 10162
  156.4002  130.4389  149.7328 H   0  0  0  0  0  0  0  0  0  0  0  0  # atno 10718 bound_to 10713
  154.3317  135.2754  155.2468 H   0  0  0  0  0  0  0  0  0  0  0  0  # atno 10763 bound_to 10752
  154.4777  135.5866  153.6370 H   0  0  0  0  0  0  0  0  0  0  0  0  # atno 10764 bound_to 10752
  152.9866  135.6103  154.3510 H   0  0  0  0  0  0  0  0  0  0  0  0  # atno 10765 bound_to 10752
  140.2771  134.7780  157.3726 H   0  0  0  0  0  0  0  0  0  0  0  0  # atno 11005 bound_to 11000
  146.3478  140.1758  142.8589 LP  0  0  0  0  0  0  0  0  0  0  0  0  # atno 17320 bound_to 7965
  145.0304  140.8866  143.5113 LP  0  0  0  0  0  0  0  0  0  0  0  0  # atno 17321 bound_to 7965
  140.6467  143.2215  151.6170 LP  0  0  0  0  0  0  0  0  0  0  0  0  # atno 17342 bound_to 10162
  139.5263  144.3050  152.1041 LP  0  0  0  0  0  0  0  0  0  0  0  0  # atno 17343 bound_to 10162
  156.4347  130.7832  151.2852 LP  0  0  0  0  0  0  0  0  0  0  0  0  # atno 17370 bound_to 10713
  157.7503  131.0143  150.3459 LP  0  0  0  0  0  0  0  0  0  0  0  0  # atno 17371 bound_to 10713
  140.1318  134.5085  155.8099 LP  0  0  0  0  0  0  0  0  0  0  0  0  # atno 17394 bound_to 11000
  141.2168  133.6793  156.7053 LP  0  0  0  0  0  0  0  0  0  0  0  0  # atno 17395 bound_to 11000

$$$$
