AV-unprocessed.smi:1920|AV-procd|sdf|7781|dock5
  -GOLD-   22720 9523D 1   1.00000     0.00000
 Structure written by MMmdl.
 36 37  0  0  0  0  0  0  0  0  1 V2000
  151.2928  139.4511  155.0654 C   0  0  0  0  0  0  0  0  0  0  0  0
  150.5214  140.3170  156.0751 C   0  0  2  0  0  0  0  0  0  0  0  0
  149.9056  141.5827  155.4385 C   0  0  0  0  0  0  0  0  0  0  0  0
  148.6720  141.3075  154.7261 N   0  0  0  0  0  0  0  0  0  0  0  0
  147.4494  141.9441  154.8964 C   0  0  0  0  0  0  0  0  0  0  0  0
  146.5750  141.3599  154.0079 C   0  0  0  0  0  0  0  0  0  0  0  0
  147.2358  140.3729  153.2803 N   0  0  0  0  0  0  0  0  0  0  0  0
  148.4734  140.4024  153.7579 C   0  0  0  0  0  0  0  0  0  0  0  0
  151.4144  140.6824  157.1711 N   0  0  0  0  0  0  0  0  0  0  0  0
  151.0603  141.3762  158.2642 C   0  0  0  0  0  0  0  0  0  0  0  0
  149.9179  141.7905  158.4619 O   0  0  0  0  0  0  0  0  0  0  0  0
  152.1651  141.6426  159.2925 C   0  0  0  0  0  0  0  0  0  0  0  0
  152.6642  143.1041  159.2995 C   0  0  2  0  0  0  0  0  0  0  0  0
  152.4364  143.8147  160.6121 C   0  0  0  0  0  0  0  0  0  0  0  0
  151.7688  144.9573  160.4696 C   0  0  0  0  0  0  0  0  0  0  0  0
  151.4143  145.2426  159.0367 C   0  0  0  0  0  0  0  0  0  0  0  0
  151.9302  144.0033  158.2715 C   0  0  0  0  0  0  0  0  0  0  0  0
  150.6398  139.0785  154.2759 H   0  0  0  0  0  0  0  0  0  0  0  0
  151.7369  138.5824  155.5526 H   0  0  0  0  0  0  0  0  0  0  0  0
  152.0973  140.0157  154.5930 H   0  0  0  0  0  0  0  0  0  0  0  0
  149.7151  139.7033  156.4815 H   0  0  0  0  0  0  0  0  0  0  0  0
  149.6895  142.3312  156.2018 H   0  0  0  0  0  0  0  0  0  0  0  0
  150.6136  142.0401  154.7455 H   0  0  0  0  0  0  0  0  0  0  0  0
  147.3072  142.7357  155.6173 H   0  0  0  0  0  0  0  0  0  0  0  0
  145.5303  141.5740  153.8361 H   0  0  0  0  0  0  0  0  0  0  0  0
  149.2526  139.7474  153.3966 H   0  0  0  0  0  0  0  0  0  0  0  0
  152.3753  140.3819  157.0939 H   0  0  0  0  0  0  0  0  0  0  0  0
  151.7740  141.3858  160.2775 H   0  0  0  0  0  0  0  0  0  0  0  0
  153.0040  140.9689  159.1100 H   0  0  0  0  0  0  0  0  0  0  0  0
  153.7358  143.1283  159.0955 H   0  0  0  0  0  0  0  0  0  0  0  0
  152.8003  143.4247  161.5516 H   0  0  0  0  0  0  0  0  0  0  0  0
  151.5070  145.6303  161.2727 H   0  0  0  0  0  0  0  0  0  0  0  0
  150.3369  145.3683  158.9262 H   0  0  0  0  0  0  0  0  0  0  0  0
  151.9087  146.1564  158.7061 H   0  0  0  0  0  0  0  0  0  0  0  0
  152.5976  144.2937  157.4594 H   0  0  0  0  0  0  0  0  0  0  0  0
  151.0905  143.4752  157.8174 H   0  0  0  0  0  0  0  0  0  0  0  0
  1  2  1  0  0  0  0
  1 18  1  0  0  0  0
  1 19  1  0  0  0  0
  1 20  1  0  0  0  0
  2  3  1  0  0  0  0
  2  9  1  0  0  0  0
  2 21  1  0  0  0  0
  3  4  1  0  0  0  0
  3 22  1  0  0  0  0
  3 23  1  0  0  0  0
  4  8  1  0  0  0  0
  4  5  1  0  0  0  0
  5  6  2  0  0  0  0
  5 24  1  0  0  0  0
  6  7  1  0  0  0  0
  6 25  1  0  0  0  0
  7  8  2  0  0  0  0
  8 26  1  0  0  0  0
  9 10  1  0  0  0  0
  9 27  1  0  0  0  0
 10 11  2  0  0  0  0
 10 12  1  0  0  0  0
 12 13  1  0  0  0  0
 12 28  1  0  0  0  0
 12 29  1  0  0  0  0
 13 17  1  0  0  0  0
 13 14  1  0  0  0  0
 13 30  1  0  0  0  0
 14 15  2  0  0  0  0
 14 31  1  0  0  0  0
 15 16  1  0  0  0  0
 15 32  1  0  0  0  0
 16 17  1  0  0  0  0
 16 33  1  0  0  0  0
 16 34  1  0  0  0  0
 17 35  1  0  0  0  0
 17 36  1  0  0  0  0
M  END
> <s_m_source_file>
AV-unprocessed.smi

> <i_m_source_file_index>
1920

> <i_lp_mmshare_version>
43012

> <i_f3d_flags>
0

> <s_epik_input>
W2NIXTFuW2NIXVtjSF1uMVtDSDJdW0NAQEhdKFtDSDNdKVtOSF1DKD1PKVtDSDJdW0NAQEhdMltDSF09W0NIXVtDSDJdW0NIMl0y

> <s_epik_cmdline>
J2VwaWtfcHl0aG9uJywgJy1waCcsICc3LjAnLCAnLXRuJywgJzgnLCAnLW1hJywgJzIwMCcsICctbWV0YWxfYmluZGluZycsICctaW1hZScsICc8aW5maWxlLm1hZT4nLCAnLW9tYWUnLCAnPG91dGZpbGUubWFlPic=

> <r_lp_tautomer_probability>
1

> <r_epik_Ionization_Penalty>
0.635367

> <r_epik_Ionization_Penalty_Charging>
0.635367

> <r_epik_Ionization_Penalty_Neutral>
2.1249e-08

> <r_epik_State_Penalty>
0.65258

> <r_epik_Charging_Adjusted_Penalty>
1.28795

> <i_epik_Tot_Q>
0

> <i_epik_Tot_abs_Q>
0

> <r_epik_Metal_State_Penalty>
0.310403

> <b_epik_Metal_Only>
0

> <s_lp_Force_Field>
OPLS_2005

> <r_lp_Energy>
18.8766

> <b_lp_Chiralities_Consistent>
1

> <s_lp_Variant>
AV-unprocessed.smi:1920-5

> <Gold.Version>
5.8.1

> <Gold.Id.Protein>
6NUR|6NUR_protein|mol2

> <Gold.PLP.Fitness>
45.9760

> <Gold.PLP.PLP>
-41.0997

> <Gold.PLP.part.hbond>
0.0000

> <Gold.PLP.part.metal>
0.0000

> <Gold.PLP.part.buried>
-1.9355

> <Gold.PLP.part.nonpolar>
-40.0096

> <Gold.PLP.part.repulsive>
0.3283

> <Gold.PLP.ligand.clash>
0.0000

> <Gold.PLP.ligand.torsion>
1.1656

> <Gold.PLP.Chemscore.Hbond>
0.0000

> <Gold.PLP.Chemscore.CHOScore>
2.3844

> <Gold.PLP.Chemscore.Metal>
0.0000

> <Gold.Chemscore.Hbonds>
donor molecule, donor type, donor heavy atom, donor atom, acceptor molecule, acceptor atom, score
      L1  C     5    24       P1  8028  0.81
      L1  C     6    25       P1 10175  0.98
      L1  C     8    26       P1  7957  0.63

> <Gold.PLP.Chemscore.Internal.Correction>
0.0541

> <Gold.Rescore>
     Score         DG    S(hbond)    S(metal)    S(lipo)     H(rot)  DE(clash)    DE(int)     intcor
     10.22     -12.67       0.00        0.00     103.70       1.93       0.04       2.42       ----

> <Gold.Chemscore.Fitness>
10.2172

> <Gold.Chemscore.DG>
-12.6710

> <Gold.Chemscore.ZeroCoef>
-5.4800

> <Gold.Chemscore.Hbond>
0.0000

> <Gold.Chemscore.Metal>
0.0000

> <Gold.Chemscore.Lipo>
103.7049

> <Gold.Chemscore.Internal_Hbond>
0.0000

> <Gold.Chemscore.DEClash>
0.0369

> <Gold.Chemscore.DEInternal>
2.4169

> <Gold.Chemscore.Rot>
1.9306

> <Gold.Chemscore.Internal.Correction>
   9.000000E+99

> <Gold.Chemscore.Hbond.Weighted>
-0.0000

> <Gold.Chemscore.Metal.Weighted>
-0.0000

> <Gold.Chemscore.Lipo.Weighted>
-12.1335

> <Gold.Chemscore.Internal_Hbond.Weighted>
0.0000

> <Gold.Chemscore.DEClash.Weighted>
0.0369

> <Gold.Chemscore.DEInternal.Weighted>
2.4169

> <Gold.Chemscore.Rot.Weighted>
4.9424

> <Gold.Chemscore.Internal.Correction.Weighted>
   9.000000E+99

> <Gold.Protein.RotatedTorsions>
[ 6907 6896 6895 6894 ] final  -37.56 input  -60.11 | X-H torsion
[ 7974 7965 7964 7962 ] final  162.37 input  175.53 | X-H torsion
[ 8008 7997 7996 7995 ] final -137.62 input   59.86 | X-H torsion
[ 10167 10162 10161 10158 ] final -159.90 input  -65.29 | X-H torsion
[ 10718 10713 10712 10709 ] final  169.49 input   66.30 | X-H torsion
[ 10763 10752 10751 10750 ] final -159.99 input  -60.55 | X-H torsion
[ 11005 11000 10999 10996 ] final -160.76 input  -57.11 | X-H torsion

> <Gold.Protein.ActiveResidues>
 VAL166  LYS551  ARG553  GLY616  TRP617  ASP618  TYR619  PRO620  LYS621  CYS622 
 ASP623  PHE694  ASN695  SER759  ASP760  ASP761  ALA762  ILE779  LEU786  VAL792 
 PHE793  MET794  SER795  GLU796  ALA797  LYS798  CYS799  TRP800  GLU811  SER814 

> <Gold.Protein.RotatedAtoms>
  151.0132  134.9413  159.8018 H   0  0  0  0  0  0  0  0  0  0  0  0  # atno 6907 bound_to 6896
  152.5307  134.3000  159.9085 H   0  0  0  0  0  0  0  0  0  0  0  0  # atno 6908 bound_to 6896
  151.3007  133.4082  159.2674 H   0  0  0  0  0  0  0  0  0  0  0  0  # atno 6909 bound_to 6896
  144.7640  139.8031  143.6322 H   0  0  0  0  0  0  0  0  0  0  0  0  # atno 7974 bound_to 7965
  155.4149  140.0514  157.3029 H   0  0  0  0  0  0  0  0  0  0  0  0  # atno 8008 bound_to 7997
  154.4929  140.2127  155.9468 H   0  0  0  0  0  0  0  0  0  0  0  0  # atno 8009 bound_to 7997
  156.1367  140.3162  155.8436 H   0  0  0  0  0  0  0  0  0  0  0  0  # atno 8010 bound_to 7997
  139.6580  143.9964  152.2206 H   0  0  0  0  0  0  0  0  0  0  0  0  # atno 10167 bound_to 10162
  157.0219  131.0234  151.2772 H   0  0  0  0  0  0  0  0  0  0  0  0  # atno 10718 bound_to 10713
  154.7428  135.3073  154.8698 H   0  0  0  0  0  0  0  0  0  0  0  0  # atno 10763 bound_to 10752
  153.9507  135.6764  153.4748 H   0  0  0  0  0  0  0  0  0  0  0  0  # atno 10764 bound_to 10752
  153.1026  135.4904  154.8819 H   0  0  0  0  0  0  0  0  0  0  0  0  # atno 10765 bound_to 10752
  140.6279  134.4682  157.5228 H   0  0  0  0  0  0  0  0  0  0  0  0  # atno 11005 bound_to 11000
  146.1730  139.4888  142.9915 LP  0  0  0  0  0  0  0  0  0  0  0  0  # atno 17320 bound_to 7965
  145.6529  141.0259  143.1750 LP  0  0  0  0  0  0  0  0  0  0  0  0  # atno 17321 bound_to 7965
  139.9696  144.6503  150.8002 LP  0  0  0  0  0  0  0  0  0  0  0  0  # atno 17342 bound_to 10162
  140.7567  143.3072  151.2933 LP  0  0  0  0  0  0  0  0  0  0  0  0  # atno 17343 bound_to 10162
  157.5243  130.8018  149.7844 LP  0  0  0  0  0  0  0  0  0  0  0  0  # atno 17370 bound_to 10713
  156.0099  130.3838  150.2300 LP  0  0  0  0  0  0  0  0  0  0  0  0  # atno 17371 bound_to 10713
  139.9127  134.8310  156.1471 LP  0  0  0  0  0  0  0  0  0  0  0  0  # atno 17394 bound_to 11000
  141.0696  133.6803  156.2114 LP  0  0  0  0  0  0  0  0  0  0  0  0  # atno 17395 bound_to 11000

$$$$
