AV-unprocessed.smi:1912|AV-procd|sdf|7750|dock8
  -GOLD-   22720 9493D 1   1.00000     0.00000
 Structure written by MMmdl.
 44 46  0  0  0  0  0  0  0  0  2 V2000
  155.1027  139.9539  161.4269 C   0  0  0  0  0  0  0  0  0  0  0  0
  154.1179  139.6449  160.4516 O   0  0  0  0  0  0  0  0  0  0  0  0
  153.3831  140.6827  159.9201 C   0  0  0  0  0  0  0  0  0  0  0  0
  153.5153  142.0352  160.3125 C   0  0  0  0  0  0  0  0  0  0  0  0
  152.7295  143.0331  159.7077 C   0  0  0  0  0  0  0  0  0  0  0  0
  151.7900  142.7065  158.6984 C   0  0  0  0  0  0  0  0  0  0  0  0
  151.0111  143.6485  158.0569 O   0  0  0  0  0  0  0  0  0  0  0  0
  151.1458  145.0099  158.4359 C   0  0  0  0  0  0  0  0  0  0  0  0
  151.6480  141.3512  158.3102 C   0  0  0  0  0  0  0  0  0  0  0  0
  150.6676  140.9582  157.2055 C   0  0  2  0  0  0  0  0  0  0  0  0
  149.7175  140.0042  157.6357 O   0  0  0  0  0  0  0  0  0  0  0  0
  151.3784  140.3909  155.9586 C   0  0  0  0  0  0  0  0  0  0  0  0
  150.4405  139.7885  154.9977 N   0  0  0  0  0  0  0  0  0  0  0  0
  150.4849  138.5746  154.3786 C   0  0  0  0  0  0  0  0  0  0  0  0
  151.5473  137.5380  154.5247 C   0  0  0  0  0  0  0  0  0  0  0  0
  149.3672  138.4731  153.6059 N   0  3  0  0  0  0  0  0  0  0  0  0
  148.5996  139.6315  153.7318 C   0  0  0  0  0  0  0  0  0  0  0  0
  147.3855  139.9858  153.1518 C   0  0  0  0  0  0  0  0  0  0  0  0
  146.8625  141.2484  153.4998 C   0  0  0  0  0  0  0  0  0  0  0  0
  147.5434  142.1051  154.3885 C   0  0  0  0  0  0  0  0  0  0  0  0
  148.7762  141.7372  154.9658 C   0  0  0  0  0  0  0  0  0  0  0  0
  149.2853  140.4850  154.6206 C   0  0  0  0  0  0  0  0  0  0  0  0
  152.4474  140.3588  158.9200 C   0  0  0  0  0  0  0  0  0  0  0  0
  155.5902  139.0337  161.7489 H   0  0  0  0  0  0  0  0  0  0  0  0
  154.6587  140.4180  162.3087 H   0  0  0  0  0  0  0  0  0  0  0  0
  155.8736  140.6107  161.0215 H   0  0  0  0  0  0  0  0  0  0  0  0
  154.2173  142.3356  161.0753 H   0  0  0  0  0  0  0  0  0  0  0  0
  152.8711  144.0504  160.0389 H   0  0  0  0  0  0  0  0  0  0  0  0
  150.5127  145.6239  157.7952 H   0  0  0  0  0  0  0  0  0  0  0  0
  152.1726  145.3579  158.3137 H   0  0  0  0  0  0  0  0  0  0  0  0
  150.8271  145.1709  159.4664 H   0  0  0  0  0  0  0  0  0  0  0  0
  150.0842  141.8321  156.9156 H   0  0  0  0  0  0  0  0  0  0  0  0
  149.5581  140.1350  158.5582 H   0  0  0  0  0  0  0  0  0  0  0  0
  151.9821  141.1493  155.4598 H   0  0  0  0  0  0  0  0  0  0  0  0
  152.0709  139.6020  156.2551 H   0  0  0  0  0  0  0  0  0  0  0  0
  151.3386  136.6821  153.8825 H   0  0  0  0  0  0  0  0  0  0  0  0
  151.5967  137.1927  155.5574 H   0  0  0  0  0  0  0  0  0  0  0  0
  152.5175  137.9504  154.2470 H   0  0  0  0  0  0  0  0  0  0  0  0
  146.8616  139.3307  152.4713 H   0  0  0  0  0  0  0  0  0  0  0  0
  145.9202  141.5657  153.0773 H   0  0  0  0  0  0  0  0  0  0  0  0
  147.1112  143.0642  154.6346 H   0  0  0  0  0  0  0  0  0  0  0  0
  149.2835  142.4009  155.6498 H   0  0  0  0  0  0  0  0  0  0  0  0
  152.3533  139.3277  158.6121 H   0  0  0  0  0  0  0  0  0  0  0  0
  149.1453  137.6660  153.0375 H   0  0  0  0  0  0  0  0  0  0  0  0
  1  2  1  0  0  0  0
  1 24  1  0  0  0  0
  1 25  1  0  0  0  0
  1 26  1  0  0  0  0
  2  3  1  0  0  0  0
  3 23  1  0  0  0  0
  3  4  2  0  0  0  0
  4  5  1  0  0  0  0
  4 27  1  0  0  0  0
  5  6  2  0  0  0  0
  5 28  1  0  0  0  0
  6  7  1  0  0  0  0
  6  9  1  0  0  0  0
  7  8  1  0  0  0  0
  8 29  1  0  0  0  0
  8 30  1  0  0  0  0
  8 31  1  0  0  0  0
  9 10  1  0  0  0  0
  9 23  2  0  0  0  0
 10 11  1  0  0  0  0
 10 12  1  0  0  0  0
 10 32  1  0  0  0  0
 11 33  1  0  0  0  0
 12 13  1  0  0  0  0
 12 34  1  0  0  0  0
 12 35  1  0  0  0  0
 13 22  1  0  0  0  0
 13 14  1  0  0  0  0
 14 15  1  0  0  0  0
 14 16  2  0  0  0  0
 15 36  1  0  0  0  0
 15 37  1  0  0  0  0
 15 38  1  0  0  0  0
 16 17  1  0  0  0  0
 16 44  1  0  0  0  0
 17 22  2  0  0  0  0
 17 18  1  0  0  0  0
 18 19  2  0  0  0  0
 18 39  1  0  0  0  0
 19 20  1  0  0  0  0
 19 40  1  0  0  0  0
 20 21  2  0  0  0  0
 20 41  1  0  0  0  0
 21 22  1  0  0  0  0
 21 42  1  0  0  0  0
 23 43  1  0  0  0  0
M  CHG  1  16   1
M  END
> <s_m_source_file>
AV-unprocessed.smi

> <i_m_source_file_index>
1912

> <i_lp_mmshare_version>
43012

> <i_f3d_flags>
0

> <s_epik_input>
W0NIM11PYzFbY0hdW2NIXWMoT1tDSDNdKWMoW2NIXTEpW0NASF0oW09IXSlbQ0gyXW4oYyhuMilbQ0gzXSljKGMyMylbY0hdW2NIXVtjSF1bY0hdMw==

> <s_epik_cmdline>
J2VwaWtfcHl0aG9uJywgJy1waCcsICc3LjAnLCAnLXRuJywgJzgnLCAnLW1hJywgJzIwMCcsICctbWV0YWxfYmluZGluZycsICctaW1hZScsICc8aW5maWxlLm1hZT4nLCAnLW9tYWUnLCAnPG91dGZpbGUubWFlPic=

> <r_lp_tautomer_probability>
1

> <r_epik_Ionization_Penalty>
0.963869

> <r_epik_Ionization_Penalty_Charging>
0.963868

> <r_epik_Ionization_Penalty_Neutral>
1.34362e-06

> <r_epik_State_Penalty>
1.00924

> <r_epik_Charging_Adjusted_Penalty>
1.9731

> <i_epik_Tot_Q>
1

> <i_epik_Tot_abs_Q>
1

> <r_epik_Metal_State_Penalty>
4.98304

> <b_epik_Metal_Only>
0

> <s_lp_Force_Field>
OPLS_2005

> <r_lp_Energy>
21.5299

> <b_lp_Chiralities_Consistent>
1

> <s_lp_Variant>
AV-unprocessed.smi:1912-3

> <Gold.Version>
5.8.1

> <Gold.Id.Protein>
6NUR|6NUR_protein|mol2

> <Gold.PLP.Fitness>
56.0153

> <Gold.PLP.PLP>
-50.4503

> <Gold.PLP.part.hbond>
-2.0000

> <Gold.PLP.part.metal>
0.0000

> <Gold.PLP.part.buried>
0.7807

> <Gold.PLP.part.nonpolar>
-49.2776

> <Gold.PLP.part.repulsive>
0.2164

> <Gold.PLP.ligand.clash>
0.0000

> <Gold.PLP.ligand.torsion>
0.2341

> <Gold.PLP.Chemscore.Hbond>
2.0000

> <Gold.PLP.Chemscore.CHOScore>
0.0000

> <Gold.PLP.Chemscore.Metal>
0.0000

> <Gold.Chemscore.Hbonds>
donor molecule, donor type, donor heavy atom, donor atom, acceptor molecule, acceptor atom, score
      L1  H    16    44       P1  7948  2.00

> <Gold.PLP.Chemscore.Internal.Correction>
0.0332

> <Gold.Rescore>
     Score         DG    S(hbond)    S(metal)    S(lipo)     H(rot)  DE(clash)    DE(int)     intcor
     18.16     -18.58       0.91        0.00     134.99       2.24       0.26       0.16       ----

> <Gold.Chemscore.Fitness>
18.1572

> <Gold.Chemscore.DG>
-18.5756

> <Gold.Chemscore.ZeroCoef>
-5.4800

> <Gold.Chemscore.Hbond>
0.9129

> <Gold.Chemscore.Metal>
0.0000

> <Gold.Chemscore.Lipo>
134.9858

> <Gold.Chemscore.Internal_Hbond>
0.0000

> <Gold.Chemscore.DEClash>
0.2625

> <Gold.Chemscore.DEInternal>
0.1559

> <Gold.Chemscore.Rot>
2.2448

> <Gold.Chemscore.Internal.Correction>
   9.000000E+99

> <Gold.Chemscore.Hbonds>
donor molecule, donor type, donor heavy atom, donor atom, acceptor molecule, acceptor atom, score
      L1  H    16    44       P1  7948  0.99

> <Gold.Chemscore.Hbond.Weighted>
-3.0490

> <Gold.Chemscore.Metal.Weighted>
-0.0000

> <Gold.Chemscore.Lipo.Weighted>
-15.7933

> <Gold.Chemscore.Internal_Hbond.Weighted>
0.0000

> <Gold.Chemscore.DEClash.Weighted>
0.2625

> <Gold.Chemscore.DEInternal.Weighted>
0.1559

> <Gold.Chemscore.Rot.Weighted>
5.7467

> <Gold.Chemscore.Internal.Correction.Weighted>
   9.000000E+99

> <Gold.Protein.RotatedTorsions>
[ 6907 6896 6895 6894 ] final   -6.22 input  -60.11 | X-H torsion
[ 7974 7965 7964 7962 ] final  140.05 input  175.53 | X-H torsion
[ 8008 7997 7996 7995 ] final  150.21 input   59.86 | X-H torsion
[ 10167 10162 10161 10158 ] final   53.97 input  -65.29 | X-H torsion
[ 10718 10713 10712 10709 ] final -123.85 input   66.30 | X-H torsion
[ 10763 10752 10751 10750 ] final    4.18 input  -60.55 | X-H torsion
[ 11005 11000 10999 10996 ] final   56.27 input  -57.11 | X-H torsion

> <Gold.Protein.ActiveResidues>
 VAL166  LYS551  ARG553  GLY616  TRP617  ASP618  TYR619  PRO620  LYS621  CYS622 
 ASP623  PHE694  ASN695  SER759  ASP760  ASP761  ALA762  ILE779  LEU786  VAL792 
 PHE793  MET794  SER795  GLU796  ALA797  LYS798  CYS799  TRP800  GLU811  SER814 

> <Gold.Protein.RotatedAtoms>
  151.4691  135.1044  159.9746 H   0  0  0  0  0  0  0  0  0  0  0  0  # atno 6907 bound_to 6896
  152.4823  133.8282  159.7100 H   0  0  0  0  0  0  0  0  0  0  0  0  # atno 6908 bound_to 6896
  150.8905  133.7189  159.2933 H   0  0  0  0  0  0  0  0  0  0  0  0  # atno 6909 bound_to 6896
  144.9222  139.5153  143.5658 H   0  0  0  0  0  0  0  0  0  0  0  0  # atno 7974 bound_to 7965
  156.2724  140.2081  156.5982 H   0  0  0  0  0  0  0  0  0  0  0  0  # atno 8008 bound_to 7997
  154.6928  140.0528  157.0404 H   0  0  0  0  0  0  0  0  0  0  0  0  # atno 8009 bound_to 7997
  155.0843  140.3190  155.4595 H   0  0  0  0  0  0  0  0  0  0  0  0  # atno 8010 bound_to 7997
  140.2351  144.3644  150.6400 H   0  0  0  0  0  0  0  0  0  0  0  0  # atno 10167 bound_to 10162
  156.1537  130.6553  150.9951 H   0  0  0  0  0  0  0  0  0  0  0  0  # atno 10718 bound_to 10713
  153.2744  135.6935  153.7448 H   0  0  0  0  0  0  0  0  0  0  0  0  # atno 10763 bound_to 10752
  153.6459  135.3385  155.3086 H   0  0  0  0  0  0  0  0  0  0  0  0  # atno 10764 bound_to 10752
  154.8474  135.4443  154.1777 H   0  0  0  0  0  0  0  0  0  0  0  0  # atno 10765 bound_to 10752
  140.0542  134.5693  155.9227 H   0  0  0  0  0  0  0  0  0  0  0  0  # atno 11005 bound_to 11000
  146.3210  139.8111  142.8946 LP  0  0  0  0  0  0  0  0  0  0  0  0  # atno 17320 bound_to 7965
  145.3277  141.0259  143.3464 LP  0  0  0  0  0  0  0  0  0  0  0  0  # atno 17321 bound_to 7965
  140.6156  143.2172  151.6799 LP  0  0  0  0  0  0  0  0  0  0  0  0  # atno 17342 bound_to 10162
  139.5096  144.3570  152.0598 LP  0  0  0  0  0  0  0  0  0  0  0  0  # atno 17343 bound_to 10162
  157.6678  131.0868  150.7686 LP  0  0  0  0  0  0  0  0  0  0  0  0  # atno 17370 bound_to 10713
  156.7753  130.4842  149.5411 LP  0  0  0  0  0  0  0  0  0  0  0  0  # atno 17371 bound_to 10713
  141.1944  133.6583  156.5595 LP  0  0  0  0  0  0  0  0  0  0  0  0  # atno 17394 bound_to 11000
  140.3870  134.7474  157.4697 LP  0  0  0  0  0  0  0  0  0  0  0  0  # atno 17395 bound_to 11000

$$$$
