AV-unprocessed.smi:1929|AV-procd|sdf|7804|dock2
  -GOLD-   22720 9543D 1   1.00000     0.00000
 Structure written by MMmdl.
 44 45  0  0  0  0  0  0  0  0  3 V2000
  142.0506  138.1881  154.8028 C   0  0  0  0  0  0  0  0  0  0  0  0
  142.7844  139.4440  154.8473 N   0  0  0  0  0  0  0  0  0  0  0  0
  143.3224  139.9626  155.9599 C   0  0  0  0  0  0  0  0  0  0  0  0
  143.2541  139.4153  157.0611 O   0  0  0  0  0  0  0  0  0  0  0  0
  144.0641  141.2934  155.7991 C   0  0  0  0  0  0  0  0  0  0  0  0
  145.2640  141.1868  154.9294 N   0  3  2  0  0  0  0  0  0  0  0  0
  146.3518  140.3737  155.5359 C   0  0  0  0  0  0  0  0  0  0  0  0
  147.5109  140.1720  154.5447 C   0  0  0  0  0  0  0  0  0  0  0  0
  148.0641  141.5129  154.0216 C   0  0  2  0  0  0  0  0  0  0  0  0
  148.7953  142.2467  155.0550 N   0  0  0  0  0  0  0  0  0  0  0  0
  149.7989  141.7506  155.7941 C   0  0  0  0  0  0  0  0  0  0  0  0
  150.1987  140.5909  155.6996 O   0  0  0  0  0  0  0  0  0  0  0  0
  150.2806  142.6738  156.6447 N   0  0  0  0  0  0  0  0  0  0  0  0
  151.3466  142.5552  157.5790 C   0  0  0  0  0  0  0  0  0  0  0  0
  151.9370  143.7506  158.0468 C   0  0  0  0  0  0  0  0  0  0  0  0
  153.0073  143.6873  158.9622 C   0  0  0  0  0  0  0  0  0  0  0  0
  153.4658  142.4876  159.3787 N   0  3  0  0  0  0  0  0  0  0  0  0
  152.9434  141.3185  158.9507 C   0  0  0  0  0  0  0  0  0  0  0  0
  151.8717  141.3185  158.0348 C   0  0  0  0  0  0  0  0  0  0  0  0
  146.9105  142.3676  153.4684 C   0  0  0  0  0  0  0  0  0  0  0  0
  145.7585  142.5133  154.4803 C   0  0  0  0  0  0  0  0  0  0  0  0
  141.6936  138.0016  153.7900 H   0  0  0  0  0  0  0  0  0  0  0  0
  141.1867  138.2180  155.4683 H   0  0  0  0  0  0  0  0  0  0  0  0
  142.6892  137.3547  155.0985 H   0  0  0  0  0  0  0  0  0  0  0  0
  142.8883  139.9476  153.9780 H   0  0  0  0  0  0  0  0  0  0  0  0
  143.3528  141.9936  155.3593 H   0  0  0  0  0  0  0  0  0  0  0  0
  144.3426  141.6997  156.7731 H   0  0  0  0  0  0  0  0  0  0  0  0
  146.7109  140.8618  156.4433 H   0  0  0  0  0  0  0  0  0  0  0  0
  145.9693  139.3980  155.8370 H   0  0  0  0  0  0  0  0  0  0  0  0
  148.3014  139.5812  155.0088 H   0  0  0  0  0  0  0  0  0  0  0  0
  147.1541  139.5811  153.6999 H   0  0  0  0  0  0  0  0  0  0  0  0
  148.7571  141.3115  153.2025 H   0  0  0  0  0  0  0  0  0  0  0  0
  148.5333  143.2110  155.1993 H   0  0  0  0  0  0  0  0  0  0  0  0
  149.7966  143.5595  156.6548 H   0  0  0  0  0  0  0  0  0  0  0  0
  151.5730  144.7116  157.7130 H   0  0  0  0  0  0  0  0  0  0  0  0
  153.5075  144.5539  159.3693 H   0  0  0  0  0  0  0  0  0  0  0  0
  153.3992  140.4226  159.3465 H   0  0  0  0  0  0  0  0  0  0  0  0
  151.4861  140.3704  157.6940 H   0  0  0  0  0  0  0  0  0  0  0  0
  147.2763  143.3512  153.1710 H   0  0  0  0  0  0  0  0  0  0  0  0
  146.5265  141.9015  152.5597 H   0  0  0  0  0  0  0  0  0  0  0  0
  144.9448  143.0697  154.0136 H   0  0  0  0  0  0  0  0  0  0  0  0
  146.0819  143.0942  155.3456 H   0  0  0  0  0  0  0  0  0  0  0  0
  144.9619  140.6998  154.0970 H   0  0  0  0  0  0  0  0  0  0  0  0
  154.2421  142.4632  160.0404 H   0  0  0  0  0  0  0  0  0  0  0  0
  1  2  1  0  0  0  0
  1 22  1  0  0  0  0
  1 23  1  0  0  0  0
  1 24  1  0  0  0  0
  2  3  1  0  0  0  0
  2 25  1  0  0  0  0
  3  4  2  0  0  0  0
  3  5  1  0  0  0  0
  5  6  1  0  0  0  0
  5 26  1  0  0  0  0
  5 27  1  0  0  0  0
  6 21  1  0  0  0  0
  6  7  1  0  0  0  0
  6 43  1  0  0  0  0
  7  8  1  0  0  0  0
  7 28  1  0  0  0  0
  7 29  1  0  0  0  0
  8  9  1  0  0  0  0
  8 30  1  0  0  0  0
  8 31  1  0  0  0  0
  9 10  1  0  0  0  0
  9 20  1  0  0  0  0
  9 32  1  0  0  0  0
 10 11  1  0  0  0  0
 10 33  1  0  0  0  0
 11 12  2  0  0  0  0
 11 13  1  0  0  0  0
 13 14  1  0  0  0  0
 13 34  1  0  0  0  0
 14 19  1  0  0  0  0
 14 15  2  0  0  0  0
 15 16  1  0  0  0  0
 15 35  1  0  0  0  0
 16 17  2  0  0  0  0
 16 36  1  0  0  0  0
 17 18  1  0  0  0  0
 17 44  1  0  0  0  0
 18 19  2  0  0  0  0
 18 37  1  0  0  0  0
 19 38  1  0  0  0  0
 20 21  1  0  0  0  0
 20 39  1  0  0  0  0
 20 40  1  0  0  0  0
 21 41  1  0  0  0  0
 21 42  1  0  0  0  0
M  CHG  1   6   1
M  CHG  1  17   1
M  END
> <s_m_source_file>
AV-unprocessed.smi

> <i_m_source_file_index>
1929

> <i_lp_mmshare_version>
43012

> <i_f3d_flags>
0

> <s_epik_input>
W0NIM11bTkhdQyg9TylbQ0gyXU4xW0NIMl1bQ0gyXVtDSF0oW0NIMl1bQ0gyXTEpW05IXUMoPU8pW05IXWMyW2NIXVtjSF1uW2NIXVtjSF0y

> <s_epik_cmdline>
J2VwaWtfcHl0aG9uJywgJy1waCcsICc3LjAnLCAnLXRuJywgJzgnLCAnLW1hJywgJzIwMCcsICctbWV0YWxfYmluZGluZycsICctaW1hZScsICc8aW5maWxlLm1hZT4nLCAnLW9tYWUnLCAnPG91dGZpbGUubWFlPic=

> <r_epik_Ionization_Penalty>
1.97435

> <r_epik_Ionization_Penalty_Charging>
1.97431

> <r_epik_Ionization_Penalty_Neutral>
3.89585e-05

> <r_epik_State_Penalty>
2.00691

> <r_epik_Charging_Adjusted_Penalty>
3.98122

> <i_epik_Tot_Q>
2

> <i_epik_Tot_abs_Q>
2

> <r_epik_Metal_State_Penalty>
2.11022

> <b_epik_Metal_Only>
0

> <s_lp_Force_Field>
OPLS_2005

> <r_lp_Energy>
26.8992

> <b_lp_Chiralities_Consistent>
1

> <s_lp_Variant>
AV-unprocessed.smi:1929-6

> <Gold.Version>
5.8.1

> <Gold.Id.Protein>
6NUR|6NUR_protein|mol2

> <Gold.PLP.Fitness>
47.3156

> <Gold.PLP.PLP>
-32.8647

> <Gold.PLP.part.hbond>
-4.0000

> <Gold.PLP.part.metal>
0.0000

> <Gold.PLP.part.buried>
-6.4915

> <Gold.PLP.part.nonpolar>
-23.5510

> <Gold.PLP.part.repulsive>
0.3602

> <Gold.PLP.ligand.clash>
0.0000

> <Gold.PLP.ligand.torsion>
0.2076

> <Gold.PLP.Chemscore.Hbond>
4.9440

> <Gold.PLP.Chemscore.CHOScore>
0.0000

> <Gold.PLP.Chemscore.Metal>
0.0000

> <Gold.Chemscore.Hbonds>
donor molecule, donor type, donor heavy atom, donor atom, acceptor molecule, acceptor atom, score
      L1  H     2    25       P1 10175  1.00
      L1  H     6    43       P1 10175  1.82
      L1  H    10    33       P1  8028  1.00
      L1  H    13    34       P1  8028  0.90

> <Gold.PLP.Chemscore.Internal.Correction>
0.0340

> <Gold.Rescore>
     Score         DG    S(hbond)    S(metal)    S(lipo)     H(rot)  DE(clash)    DE(int)     intcor
     20.40     -23.60       3.82        0.00      83.42       1.71       1.33       1.87       ----

> <Gold.Chemscore.Fitness>
20.3965

> <Gold.Chemscore.DG>
-23.5989

> <Gold.Chemscore.ZeroCoef>
-5.4800

> <Gold.Chemscore.Hbond>
3.8150

> <Gold.Chemscore.Metal>
0.0000

> <Gold.Chemscore.Lipo>
83.4234

> <Gold.Chemscore.Internal_Hbond>
0.0000

> <Gold.Chemscore.DEClash>
1.3293

> <Gold.Chemscore.DEInternal>
1.8732

> <Gold.Chemscore.Rot>
1.7124

> <Gold.Chemscore.Internal.Correction>
   9.000000E+99

> <Gold.Chemscore.Hbonds>
donor molecule, donor type, donor heavy atom, donor atom, acceptor molecule, acceptor atom, score
      L1  H     2    25       P1 10175  0.99
      L1  H     6    43       P1 10175  0.81
      L1  H    10    33       P1  8028  0.96
      L1  H    13    34       P1  8028  0.88

> <Gold.Chemscore.Hbond.Weighted>
-12.7422

> <Gold.Chemscore.Metal.Weighted>
-0.0000

> <Gold.Chemscore.Lipo.Weighted>
-9.7605

> <Gold.Chemscore.Internal_Hbond.Weighted>
0.0000

> <Gold.Chemscore.DEClash.Weighted>
1.3293

> <Gold.Chemscore.DEInternal.Weighted>
1.8732

> <Gold.Chemscore.Rot.Weighted>
4.3838

> <Gold.Chemscore.Internal.Correction.Weighted>
   9.000000E+99

> <Gold.Protein.RotatedTorsions>
[ 6907 6896 6895 6894 ] final  144.49 input  -60.11 | X-H torsion
[ 7974 7965 7964 7962 ] final   70.21 input  175.53 | X-H torsion
[ 8008 7997 7996 7995 ] final   38.37 input   59.86 | X-H torsion
[ 10167 10162 10161 10158 ] final   21.96 input  -65.29 | X-H torsion
[ 10718 10713 10712 10709 ] final -169.50 input   66.30 | X-H torsion
[ 10763 10752 10751 10750 ] final  117.03 input  -60.55 | X-H torsion
[ 11005 11000 10999 10996 ] final   53.91 input  -57.11 | X-H torsion

> <Gold.Protein.ActiveResidues>
 VAL166  LYS551  ARG553  GLY616  TRP617  ASP618  TYR619  PRO620  LYS621  CYS622 
 ASP623  PHE694  ASN695  SER759  ASP760  ASP761  ALA762  ILE779  LEU786  VAL792 
 PHE793  MET794  SER795  GLU796  ALA797  LYS798  CYS799  TRP800  GLU811  SER814 

> <Gold.Protein.RotatedAtoms>
  152.1930  133.4786  159.5017 H   0  0  0  0  0  0  0  0  0  0  0  0  # atno 6907 bound_to 6896
  150.6954  134.1689  159.4213 H   0  0  0  0  0  0  0  0  0  0  0  0  # atno 6908 bound_to 6896
  151.9604  135.0126  160.0598 H   0  0  0  0  0  0  0  0  0  0  0  0  # atno 6909 bound_to 6896
  145.7810  139.2887  143.1266 H   0  0  0  0  0  0  0  0  0  0  0  0  # atno 7974 bound_to 7965
  155.2191  140.3329  155.4318 H   0  0  0  0  0  0  0  0  0  0  0  0  # atno 8008 bound_to 7997
  156.2340  140.1864  156.7215 H   0  0  0  0  0  0  0  0  0  0  0  0  # atno 8009 bound_to 7997
  154.6027  140.0620  156.9376 H   0  0  0  0  0  0  0  0  0  0  0  0  # atno 8010 bound_to 7997
  140.5386  143.9717  150.6506 H   0  0  0  0  0  0  0  0  0  0  0  0  # atno 10167 bound_to 10162
  156.7125  130.9239  151.3090 H   0  0  0  0  0  0  0  0  0  0  0  0  # atno 10718 bound_to 10713
  153.5462  135.3549  155.2739 H   0  0  0  0  0  0  0  0  0  0  0  0  # atno 10763 bound_to 10752
  154.8712  135.4103  154.2988 H   0  0  0  0  0  0  0  0  0  0  0  0  # atno 10764 bound_to 10752
  153.3705  135.7064  153.6710 H   0  0  0  0  0  0  0  0  0  0  0  0  # atno 10765 bound_to 10752
  140.0729  134.5445  155.9027 H   0  0  0  0  0  0  0  0  0  0  0  0  # atno 11005 bound_to 11000
  146.0074  140.8466  142.9988 LP  0  0  0  0  0  0  0  0  0  0  0  0  # atno 17320 bound_to 7965
  144.6796  140.2441  143.7340 LP  0  0  0  0  0  0  0  0  0  0  0  0  # atno 17321 bound_to 7965
  140.3111  143.3197  152.0877 LP  0  0  0  0  0  0  0  0  0  0  0  0  # atno 17342 bound_to 10162
  139.4980  144.6635  151.6410 LP  0  0  0  0  0  0  0  0  0  0  0  0  # atno 17343 bound_to 10162
  157.6930  130.9253  150.0567 LP  0  0  0  0  0  0  0  0  0  0  0  0  # atno 17370 bound_to 10713
  156.1651  130.3645  149.9244 LP  0  0  0  0  0  0  0  0  0  0  0  0  # atno 17371 bound_to 10713
  141.2018  133.6621  156.5974 LP  0  0  0  0  0  0  0  0  0  0  0  0  # atno 17394 bound_to 11000
  140.3600  134.7695  157.4527 LP  0  0  0  0  0  0  0  0  0  0  0  0  # atno 17395 bound_to 11000

$$$$
