AV-unprocessed.smi:3338|AV-procd|sdf|12873|dock9
  -GOLD-   2272019273D 1   1.00000     0.00000
 Structure written by MMmdl.
 44 45  0  0  0  0  0  0  0  0  2 V2000
  149.9856  141.0784  157.0623 C   0  0  0  0  0  0  0  0  0  0  0  0
  150.5396  142.2173  157.9301 C   0  0  2  0  0  0  0  0  0  0  0  0
  151.3762  143.2026  157.0962 C   0  0  0  0  0  0  0  0  0  0  0  0
  151.9447  144.3107  157.9919 C   0  0  0  0  0  0  0  0  0  0  0  0
  152.7379  143.7171  159.1669 C   0  0  0  0  0  0  0  0  0  0  0  0
  151.8992  142.7790  159.9565 N   0  3  2  0  0  0  0  0  0  0  0  0
  152.5901  142.2940  161.1771 C   0  0  0  0  0  0  0  0  0  0  0  0
  153.6972  141.2723  160.8534 C   0  0  0  0  0  0  0  0  0  0  0  0
  154.2746  140.7169  162.0711 N   0  0  0  0  0  0  0  0  0  0  0  0
  155.3711  139.9431  162.1124 C   0  0  0  0  0  0  0  0  0  0  0  0
  155.9853  139.6004  161.1011 O   0  0  0  0  0  0  0  0  0  0  0  0
  155.8444  139.5035  163.5074 C   0  0  1  0  0  0  0  0  0  0  0  0
  156.1691  140.6949  164.4305 C   0  0  0  0  0  0  0  0  0  0  0  0
  154.8748  138.5969  164.1121 N   0  0  0  0  0  0  0  0  0  0  0  0
  154.8491  138.1205  165.4073 C   0  0  0  0  0  0  0  0  0  0  0  0
  153.7744  137.2854  165.5169 C   0  0  0  0  0  0  0  0  0  0  0  0
  153.1971  137.3052  164.2171 C   0  0  0  0  0  0  0  0  0  0  0  0
  153.8600  138.0835  163.3778 N   0  0  0  0  0  0  0  0  0  0  0  0
  151.3717  141.6750  159.1097 C   0  0  0  0  0  0  0  0  0  0  0  0
  150.7895  140.4923  156.6152 H   0  0  0  0  0  0  0  0  0  0  0  0
  149.3675  141.4670  156.2522 H   0  0  0  0  0  0  0  0  0  0  0  0
  149.3676  140.4002  157.6512 H   0  0  0  0  0  0  0  0  0  0  0  0
  149.6876  142.7608  158.3419 H   0  0  0  0  0  0  0  0  0  0  0  0
  152.1942  142.6738  156.6047 H   0  0  0  0  0  0  0  0  0  0  0  0
  150.7676  143.6411  156.3041 H   0  0  0  0  0  0  0  0  0  0  0  0
  152.5848  144.9711  157.4056 H   0  0  0  0  0  0  0  0  0  0  0  0
  151.1300  144.9275  158.3738 H   0  0  0  0  0  0  0  0  0  0  0  0
  153.6239  143.1960  158.8006 H   0  0  0  0  0  0  0  0  0  0  0  0
  153.0876  144.5288  159.8061 H   0  0  0  0  0  0  0  0  0  0  0  0
  152.9856  143.1443  161.7354 H   0  0  0  0  0  0  0  0  0  0  0  0
  151.8687  141.8068  161.8351 H   0  0  0  0  0  0  0  0  0  0  0  0
  153.2845  140.4503  160.2674 H   0  0  0  0  0  0  0  0  0  0  0  0
  154.4887  141.7153  160.2480 H   0  0  0  0  0  0  0  0  0  0  0  0
  153.8225  140.9500  162.9437 H   0  0  0  0  0  0  0  0  0  0  0  0
  156.7702  138.9419  163.3714 H   0  0  0  0  0  0  0  0  0  0  0  0
  156.9273  141.3416  163.9874 H   0  0  0  0  0  0  0  0  0  0  0  0
  156.5565  140.3481  165.3889 H   0  0  0  0  0  0  0  0  0  0  0  0
  155.2899  141.3076  164.6340 H   0  0  0  0  0  0  0  0  0  0  0  0
  155.5887  138.4137  166.1375 H   0  0  0  0  0  0  0  0  0  0  0  0
  153.4500  136.7425  166.3924 H   0  0  0  0  0  0  0  0  0  0  0  0
  152.3239  136.7792  163.8599 H   0  0  0  0  0  0  0  0  0  0  0  0
  150.7486  141.0105  159.7079 H   0  0  0  0  0  0  0  0  0  0  0  0
  152.2033  141.0730  158.7389 H   0  0  0  0  0  0  0  0  0  0  0  0
  151.1037  143.3147  160.2729 H   0  0  0  0  0  0  0  0  0  0  0  0
  1  2  1  0  0  0  0
  1 20  1  0  0  0  0
  1 21  1  0  0  0  0
  1 22  1  0  0  0  0
  2 19  1  0  0  0  0
  2  3  1  0  0  0  0
  2 23  1  0  0  0  0
  3  4  1  0  0  0  0
  3 24  1  0  0  0  0
  3 25  1  0  0  0  0
  4  5  1  0  0  0  0
  4 26  1  0  0  0  0
  4 27  1  0  0  0  0
  5  6  1  0  0  0  0
  5 28  1  0  0  0  0
  5 29  1  0  0  0  0
  6  7  1  0  0  0  0
  6 19  1  0  0  0  0
  6 44  1  0  0  0  0
  7  8  1  0  0  0  0
  7 30  1  0  0  0  0
  7 31  1  0  0  0  0
  8  9  1  0  0  0  0
  8 32  1  0  0  0  0
  8 33  1  0  0  0  0
  9 10  1  0  0  0  0
  9 34  1  0  0  0  0
 10 11  2  0  0  0  0
 10 12  1  0  0  0  0
 12 13  1  0  0  0  0
 12 14  1  0  0  0  0
 12 35  1  0  0  0  0
 13 36  1  0  0  0  0
 13 37  1  0  0  0  0
 13 38  1  0  0  0  0
 14 18  1  0  0  0  0
 14 15  1  0  0  0  0
 15 16  2  0  0  0  0
 15 39  1  0  0  0  0
 16 17  1  0  0  0  0
 16 40  1  0  0  0  0
 17 18  2  0  0  0  0
 17 41  1  0  0  0  0
 19 42  1  0  0  0  0
 19 43  1  0  0  0  0
M  CHG  1   6   1
M  END
> <s_m_source_file>
AV-unprocessed.smi

> <i_m_source_file_index>
3338

> <i_lp_mmshare_version>
43012

> <i_f3d_flags>
0

> <s_epik_input>
W0NIM11bQ0BASF0xW0NIMl1bQ0gyXVtDSDJdTihbQ0gyXTEpW0NIMl1bQ0gyXVtOSF1DKD1PKVtDQEhdKFtDSDNdKW4yW2NIXVtjSF1bY0hdbjI=

> <s_epik_cmdline>
J2VwaWtfcHl0aG9uJywgJy1waCcsICc3LjAnLCAnLXRuJywgJzgnLCAnLW1hJywgJzIwMCcsICctbWV0YWxfYmluZGluZycsICctaW1hZScsICc8aW5maWxlLm1hZT4nLCAnLW9tYWUnLCAnPG91dGZpbGUubWFlPic=

> <r_lp_tautomer_probability>
1

> <r_epik_Ionization_Penalty>
0.00225707

> <r_epik_Ionization_Penalty_Charging>
0.00223709

> <r_epik_Ionization_Penalty_Neutral>
1.99775e-05

> <r_epik_State_Penalty>
0.00153978

> <r_epik_Charging_Adjusted_Penalty>
0.00377687

> <i_epik_Tot_Q>
1

> <i_epik_Tot_abs_Q>
1

> <r_epik_Metal_State_Penalty>
-0

> <b_epik_Metal_Only>
0

> <s_lp_Force_Field>
OPLS_2005

> <r_lp_Energy>
19.822

> <b_lp_Chiralities_Consistent>
1

> <s_lp_Variant>
AV-unprocessed.smi:3338-5

> <Gold.Version>
5.8.1

> <Gold.Id.Protein>
6NUR|6NUR_protein|mol2

> <Gold.PLP.Fitness>
43.8385

> <Gold.PLP.PLP>
-44.6279

> <Gold.PLP.part.hbond>
-1.1143

> <Gold.PLP.part.metal>
0.0000

> <Gold.PLP.part.buried>
-5.1561

> <Gold.PLP.part.nonpolar>
-37.0441

> <Gold.PLP.part.repulsive>
0.0719

> <Gold.PLP.ligand.clash>
0.0000

> <Gold.PLP.ligand.torsion>
0.4509

> <Gold.PLP.Chemscore.Hbond>
0.0000

> <Gold.PLP.Chemscore.CHOScore>
0.0000

> <Gold.PLP.Chemscore.Metal>
0.0000

> <Gold.PLP.Chemscore.Internal.Correction>
0.1125

> <Gold.Rescore>
     Score         DG    S(hbond)    S(metal)    S(lipo)     H(rot)  DE(clash)    DE(int)     intcor
     14.36     -15.10       0.00        0.00     120.65       1.76       0.10       0.64       ----

> <Gold.Chemscore.Fitness>
14.3550

> <Gold.Chemscore.DG>
-15.0980

> <Gold.Chemscore.ZeroCoef>
-5.4800

> <Gold.Chemscore.Hbond>
0.0000

> <Gold.Chemscore.Metal>
0.0000

> <Gold.Chemscore.Lipo>
120.6485

> <Gold.Chemscore.Internal_Hbond>
0.0000

> <Gold.Chemscore.DEClash>
0.0998

> <Gold.Chemscore.DEInternal>
0.6432

> <Gold.Chemscore.Rot>
1.7570

> <Gold.Chemscore.Internal.Correction>
   9.000000E+99

> <Gold.Chemscore.Hbond.Weighted>
-0.0000

> <Gold.Chemscore.Metal.Weighted>
-0.0000

> <Gold.Chemscore.Lipo.Weighted>
-14.1159

> <Gold.Chemscore.Internal_Hbond.Weighted>
0.0000

> <Gold.Chemscore.DEClash.Weighted>
0.0998

> <Gold.Chemscore.DEInternal.Weighted>
0.6432

> <Gold.Chemscore.Rot.Weighted>
4.4979

> <Gold.Chemscore.Internal.Correction.Weighted>
   9.000000E+99

> <Gold.Protein.RotatedTorsions>
[ 6907 6896 6895 6894 ] final  -22.07 input  -60.11 | X-H torsion
[ 7974 7965 7964 7962 ] final  -74.81 input  175.53 | X-H torsion
[ 8008 7997 7996 7995 ] final  -46.77 input   59.86 | X-H torsion
[ 10167 10162 10161 10158 ] final -175.03 input  -65.29 | X-H torsion
[ 10718 10713 10712 10709 ] final   35.41 input   66.30 | X-H torsion
[ 10763 10752 10751 10750 ] final  -89.12 input  -60.55 | X-H torsion
[ 11005 11000 10999 10996 ] final  -95.39 input  -57.11 | X-H torsion

> <Gold.Protein.ActiveResidues>
 VAL166  LYS551  ARG553  GLY616  TRP617  ASP618  TYR619  PRO620  LYS621  CYS622 
 ASP623  PHE694  ASN695  SER759  ASP760  ASP761  ALA762  ILE779  LEU786  VAL792 
 PHE793  MET794  SER795  GLU796  ALA797  LYS798  CYS799  TRP800  GLU811  SER814 

> <Gold.Protein.RotatedAtoms>
  151.2239  135.0529  159.8960 H   0  0  0  0  0  0  0  0  0  0  0  0  # atno 6907 bound_to 6896
  152.5412  134.0610  159.8162 H   0  0  0  0  0  0  0  0  0  0  0  0  # atno 6908 bound_to 6896
  151.0780  133.5364  159.2654 H   0  0  0  0  0  0  0  0  0  0  0  0  # atno 6909 bound_to 6896
  145.6342  140.9329  143.1070 H   0  0  0  0  0  0  0  0  0  0  0  0  # atno 7974 bound_to 7965
  154.4010  140.1363  156.4065 H   0  0  0  0  0  0  0  0  0  0  0  0  # atno 8008 bound_to 7997
  155.7774  140.3482  155.5259 H   0  0  0  0  0  0  0  0  0  0  0  0  # atno 8009 bound_to 7997
  155.8707  140.0971  157.1542 H   0  0  0  0  0  0  0  0  0  0  0  0  # atno 8010 bound_to 7997
  139.5602  144.1888  152.1227 H   0  0  0  0  0  0  0  0  0  0  0  0  # atno 10167 bound_to 10162
  157.3223  130.7455  149.6793 H   0  0  0  0  0  0  0  0  0  0  0  0  # atno 10718 bound_to 10713
  154.6519  135.5352  153.7912 H   0  0  0  0  0  0  0  0  0  0  0  0  # atno 10763 bound_to 10752
  153.0391  135.6484  154.1003 H   0  0  0  0  0  0  0  0  0  0  0  0  # atno 10764 bound_to 10752
  154.0920  135.2939  155.3249 H   0  0  0  0  0  0  0  0  0  0  0  0  # atno 10765 bound_to 10752
  141.1443  133.8023  157.0429 H   0  0  0  0  0  0  0  0  0  0  0  0  # atno 11005 bound_to 11000
  144.7182  139.8123  143.7391 LP  0  0  0  0  0  0  0  0  0  0  0  0  # atno 17320 bound_to 7965
  146.1332  139.4372  143.0155 LP  0  0  0  0  0  0  0  0  0  0  0  0  # atno 17321 bound_to 7965
  140.1400  144.5211  150.6750 LP  0  0  0  0  0  0  0  0  0  0  0  0  # atno 17342 bound_to 10162
  140.6881  143.2361  151.5205 LP  0  0  0  0  0  0  0  0  0  0  0  0  # atno 17343 bound_to 10162
  155.9687  130.4219  150.4492 LP  0  0  0  0  0  0  0  0  0  0  0  0  # atno 17370 bound_to 10713
  157.2510  131.0546  151.2379 LP  0  0  0  0  0  0  0  0  0  0  0  0  # atno 17371 bound_to 10713
  140.0681  134.9717  157.1421 LP  0  0  0  0  0  0  0  0  0  0  0  0  # atno 17394 bound_to 11000
  140.3750  134.2349  155.7175 LP  0  0  0  0  0  0  0  0  0  0  0  0  # atno 17395 bound_to 11000

$$$$
