AV-unprocessed.smi:3199|AV-procd|sdf|12232|dock8
  -GOLD-   2272018 63D 1   1.00000     0.00000
 Structure written by MMmdl.
 35 36  0  0  0  0  0  0  0  0  1 V2000
  154.6267  142.3714  164.0768 C   0  0  0  0  0  0  0  0  0  0  0  0
  153.9840  142.6042  162.7255 C   0  0  0  0  0  0  0  0  0  0  0  0
  154.2457  141.7411  161.6405 C   0  0  0  0  0  0  0  0  0  0  0  0
  153.6184  142.0046  160.4077 C   0  0  0  0  0  0  0  0  0  0  0  0
  152.7574  143.1164  160.3069 C   0  0  0  0  0  0  0  0  0  0  0  0
  152.0511  143.4379  159.0048 C   0  0  0  0  0  0  0  0  0  0  0  0
  150.6581  142.7986  158.9317 C   0  0  0  0  0  0  0  0  0  0  0  0
  150.2366  142.6435  157.5468 N   0  0  0  0  0  0  0  0  0  0  0  0
  150.3706  141.5149  156.8354 C   0  0  0  0  0  0  0  0  0  0  0  0
  150.8632  140.4835  157.2946 O   0  0  0  0  0  0  0  0  0  0  0  0
  149.8561  141.5583  155.3919 C   0  0  1  0  0  0  0  0  0  0  0  0
  149.8726  140.1990  154.6652 C   0  0  0  0  0  0  0  0  0  0  0  0
  148.4055  139.8997  154.4180 C   0  0  0  0  0  0  0  0  0  0  0  0
  147.7949  141.2934  154.3817 C   0  0  0  0  0  0  0  0  0  0  0  0
  148.4903  141.9653  155.4185 O   0  0  0  0  0  0  0  0  0  0  0  0
  152.5632  143.9171  161.4523 C   0  0  0  0  0  0  0  0  0  0  0  0
  153.1607  143.6723  162.6384 N   0  0  0  0  0  0  0  0  0  0  0  0
  155.2468  141.4744  164.0709 H   0  0  0  0  0  0  0  0  0  0  0  0
  153.8620  142.2504  164.8448 H   0  0  0  0  0  0  0  0  0  0  0  0
  155.2565  143.2191  164.3479 H   0  0  0  0  0  0  0  0  0  0  0  0
  154.9096  140.8959  161.7473 H   0  0  0  0  0  0  0  0  0  0  0  0
  153.7946  141.3623  159.5574 H   0  0  0  0  0  0  0  0  0  0  0  0
  151.9726  144.5214  158.9027 H   0  0  0  0  0  0  0  0  0  0  0  0
  152.6665  143.0934  158.1725 H   0  0  0  0  0  0  0  0  0  0  0  0
  150.6673  141.8198  159.4140 H   0  0  0  0  0  0  0  0  0  0  0  0
  149.9354  143.4169  159.4670 H   0  0  0  0  0  0  0  0  0  0  0  0
  149.8142  143.4442  157.0995 H   0  0  0  0  0  0  0  0  0  0  0  0
  150.4267  142.2859  154.8120 H   0  0  0  0  0  0  0  0  0  0  0  0
  150.3988  140.2984  153.7150 H   0  0  0  0  0  0  0  0  0  0  0  0
  150.3603  139.3970  155.2211 H   0  0  0  0  0  0  0  0  0  0  0  0
  148.2321  139.3332  153.5027 H   0  0  0  0  0  0  0  0  0  0  0  0
  147.9928  139.3352  155.2552 H   0  0  0  0  0  0  0  0  0  0  0  0
  147.9925  141.7839  153.4271 H   0  0  0  0  0  0  0  0  0  0  0  0
  146.7186  141.2890  154.5552 H   0  0  0  0  0  0  0  0  0  0  0  0
  151.9086  144.7758  161.4182 H   0  0  0  0  0  0  0  0  0  0  0  0
  1  2  1  0  0  0  0
  1 18  1  0  0  0  0
  1 19  1  0  0  0  0
  1 20  1  0  0  0  0
  2 17  1  0  0  0  0
  2  3  2  0  0  0  0
  3  4  1  0  0  0  0
  3 21  1  0  0  0  0
  4  5  2  0  0  0  0
  4 22  1  0  0  0  0
  5  6  1  0  0  0  0
  5 16  1  0  0  0  0
  6  7  1  0  0  0  0
  6 23  1  0  0  0  0
  6 24  1  0  0  0  0
  7  8  1  0  0  0  0
  7 25  1  0  0  0  0
  7 26  1  0  0  0  0
  8  9  1  0  0  0  0
  8 27  1  0  0  0  0
  9 10  2  0  0  0  0
  9 11  1  0  0  0  0
 11 15  1  0  0  0  0
 11 12  1  0  0  0  0
 11 28  1  0  0  0  0
 12 13  1  0  0  0  0
 12 29  1  0  0  0  0
 12 30  1  0  0  0  0
 13 14  1  0  0  0  0
 13 31  1  0  0  0  0
 13 32  1  0  0  0  0
 14 15  1  0  0  0  0
 14 33  1  0  0  0  0
 14 34  1  0  0  0  0
 16 17  2  0  0  0  0
 16 35  1  0  0  0  0
M  END
> <s_m_source_file>
AV-unprocessed.smi

> <i_m_source_file_index>
3199

> <i_lp_mmshare_version>
43012

> <i_f3d_flags>
0

> <s_epik_input>
W0NIM11jMVtjSF1bY0hdYyhbY0hdbjEpW0NIMl1bQ0gyXVtOSF1DKD1PKVtDQEBIXTJbQ0gyXVtDSDJdW0NIMl1PMg==

> <s_epik_cmdline>
J2VwaWtfcHl0aG9uJywgJy1waCcsICc3LjAnLCAnLXRuJywgJzgnLCAnLW1hJywgJzIwMCcsICctbWV0YWxfYmluZGluZycsICctaW1hZScsICc8aW5maWxlLm1hZT4nLCAnLW9tYWUnLCAnPG91dGZpbGUubWFlPic=

> <r_epik_Ionization_Penalty>
0.0519155

> <r_epik_Ionization_Penalty_Charging>
0

> <r_epik_Ionization_Penalty_Neutral>
0.0519155

> <r_epik_State_Penalty>
0.0445047

> <r_epik_Charging_Adjusted_Penalty>
0.0445047

> <i_epik_Tot_Q>
0

> <i_epik_Tot_abs_Q>
0

> <r_epik_Metal_State_Penalty>
0.0408967

> <b_epik_Metal_Only>
0

> <s_lp_Force_Field>
OPLS_2005

> <r_lp_Energy>
16.9644

> <b_lp_Chiralities_Consistent>
1

> <s_lp_Variant>
AV-unprocessed.smi:3199-2

> <Gold.Version>
5.8.1

> <Gold.Id.Protein>
6NUR|6NUR_protein|mol2

> <Gold.PLP.Fitness>
42.7450

> <Gold.PLP.PLP>
-41.1677

> <Gold.PLP.part.hbond>
-1.0000

> <Gold.PLP.part.metal>
0.0000

> <Gold.PLP.part.buried>
-3.2252

> <Gold.PLP.part.nonpolar>
-36.5540

> <Gold.PLP.part.repulsive>
0.3428

> <Gold.PLP.ligand.clash>
0.0000

> <Gold.PLP.ligand.torsion>
0.7181

> <Gold.PLP.Chemscore.Hbond>
1.0000

> <Gold.PLP.Chemscore.CHOScore>
0.0000

> <Gold.PLP.Chemscore.Metal>
0.0000

> <Gold.Chemscore.Hbonds>
donor molecule, donor type, donor heavy atom, donor atom, acceptor molecule, acceptor atom, score
      L1  H     8    27       P1  8028  0.76

> <Gold.PLP.Chemscore.Internal.Correction>
0.0134

> <Gold.Rescore>
     Score         DG    S(hbond)    S(metal)    S(lipo)     H(rot)  DE(clash)    DE(int)     intcor
     17.40     -18.10       0.98        0.00     112.53       1.49       0.04       0.66       ----

> <Gold.Chemscore.Fitness>
17.4033

> <Gold.Chemscore.DG>
-18.1019

> <Gold.Chemscore.ZeroCoef>
-5.4800

> <Gold.Chemscore.Hbond>
0.9758

> <Gold.Chemscore.Metal>
0.0000

> <Gold.Chemscore.Lipo>
112.5345

> <Gold.Chemscore.Internal_Hbond>
0.0000

> <Gold.Chemscore.DEClash>
0.0383

> <Gold.Chemscore.DEInternal>
0.6603

> <Gold.Chemscore.Rot>
1.4859

> <Gold.Chemscore.Internal.Correction>
   9.000000E+99

> <Gold.Chemscore.Hbonds>
donor molecule, donor type, donor heavy atom, donor atom, acceptor molecule, acceptor atom, score
      L1  H     8    27       P1  8028  0.73

> <Gold.Chemscore.Hbond.Weighted>
-3.2593

> <Gold.Chemscore.Metal.Weighted>
-0.0000

> <Gold.Chemscore.Lipo.Weighted>
-13.1665

> <Gold.Chemscore.Internal_Hbond.Weighted>
0.0000

> <Gold.Chemscore.DEClash.Weighted>
0.0383

> <Gold.Chemscore.DEInternal.Weighted>
0.6603

> <Gold.Chemscore.Rot.Weighted>
3.8039

> <Gold.Chemscore.Internal.Correction.Weighted>
   9.000000E+99

> <Gold.Protein.RotatedTorsions>
[ 6907 6896 6895 6894 ] final   39.05 input  -60.11 | X-H torsion
[ 7974 7965 7964 7962 ] final   69.51 input  175.53 | X-H torsion
[ 8008 7997 7996 7995 ] final   88.01 input   59.86 | X-H torsion
[ 10167 10162 10161 10158 ] final -121.61 input  -65.29 | X-H torsion
[ 10718 10713 10712 10709 ] final  153.33 input   66.30 | X-H torsion
[ 10763 10752 10751 10750 ] final  -78.68 input  -60.55 | X-H torsion
[ 11005 11000 10999 10996 ] final   95.32 input  -57.11 | X-H torsion

> <Gold.Protein.ActiveResidues>
 VAL166  LYS551  ARG553  GLY616  TRP617  ASP618  TYR619  PRO620  LYS621  CYS622 
 ASP623  PHE694  ASN695  SER759  ASP760  ASP761  ALA762  ILE779  LEU786  VAL792 
 PHE793  MET794  SER795  GLU796  ALA797  LYS798  CYS799  TRP800  GLU811  SER814 

> <Gold.Protein.RotatedAtoms>
  152.1645  134.8885  160.0538 H   0  0  0  0  0  0  0  0  0  0  0  0  # atno 6907 bound_to 6896
  151.9868  133.3772  159.4137 H   0  0  0  0  0  0  0  0  0  0  0  0  # atno 6908 bound_to 6896
  150.6892  134.3903  159.5117 H   0  0  0  0  0  0  0  0  0  0  0  0  # atno 6909 bound_to 6896
  145.7895  139.2927  143.1219 H   0  0  0  0  0  0  0  0  0  0  0  0  # atno 7974 bound_to 7965
  155.9825  140.3376  155.6676 H   0  0  0  0  0  0  0  0  0  0  0  0  # atno 8008 bound_to 7997
  155.6530  140.0707  157.2598 H   0  0  0  0  0  0  0  0  0  0  0  0  # atno 8009 bound_to 7997
  154.4196  140.1722  156.1682 H   0  0  0  0  0  0  0  0  0  0  0  0  # atno 8010 bound_to 7997
  140.0231  143.5323  152.2211 H   0  0  0  0  0  0  0  0  0  0  0  0  # atno 10167 bound_to 10162
  157.2461  131.0769  151.1761 H   0  0  0  0  0  0  0  0  0  0  0  0  # atno 10718 bound_to 10713
  154.5289  135.5721  153.6743 H   0  0  0  0  0  0  0  0  0  0  0  0  # atno 10763 bound_to 10752
  152.9934  135.6200  154.2655 H   0  0  0  0  0  0  0  0  0  0  0  0  # atno 10764 bound_to 10752
  154.2580  135.2857  155.2769 H   0  0  0  0  0  0  0  0  0  0  0  0  # atno 10765 bound_to 10752
  139.8790  134.8893  156.3994 H   0  0  0  0  0  0  0  0  0  0  0  0  # atno 11005 bound_to 11000
  145.9992  140.8535  143.0027 LP  0  0  0  0  0  0  0  0  0  0  0  0  # atno 17320 bound_to 7965
  144.6784  140.2327  143.7353 LP  0  0  0  0  0  0  0  0  0  0  0  0  # atno 17321 bound_to 7965
  139.6126  144.7612  151.2918 LP  0  0  0  0  0  0  0  0  0  0  0  0  # atno 17342 bound_to 10162
  140.7334  143.6796  150.8012 LP  0  0  0  0  0  0  0  0  0  0  0  0  # atno 17343 bound_to 10162
  157.3327  130.6993  149.6334 LP  0  0  0  0  0  0  0  0  0  0  0  0  # atno 17370 bound_to 10713
  155.9668  130.4302  150.4869 LP  0  0  0  0  0  0  0  0  0  0  0  0  # atno 17371 bound_to 10713
  140.9277  133.7600  155.9986 LP  0  0  0  0  0  0  0  0  0  0  0  0  # atno 17394 bound_to 11000
  140.8366  134.3115  157.5329 LP  0  0  0  0  0  0  0  0  0  0  0  0  # atno 17395 bound_to 11000

$$$$
