AV-unprocessed.smi:2492|AV-procd|sdf|9811|dock5
  -GOLD-   2272013443D 1   1.00000     0.00000
 Structure written by MMmdl.
 33 34  0  0  0  0  0  0  0  0  1 V2000
  145.3223  132.3464  150.1054 C   0  0  0  0  0  0  0  0  0  0  0  0
  143.9048  133.1458  150.9028 S   0  0  0  0  0  0  0  0  0  0  0  0
  144.7615  134.3971  151.9015 C   0  0  2  0  0  0  0  0  0  0  0  0
  143.8599  135.0076  152.9713 C   0  0  0  0  0  0  0  0  0  0  0  0
  144.5497  136.3213  153.3418 C   0  0  0  0  0  0  0  0  0  0  0  0
  145.2878  136.7860  152.0716 C   0  0  1  0  0  0  0  0  0  0  0  0
  146.6736  137.1389  152.3746 N   0  0  0  0  0  0  0  0  0  0  0  0
  147.0759  138.2245  153.0514 C   0  0  0  0  0  0  0  0  0  0  0  0
  146.3068  139.0727  153.5040 O   0  0  0  0  0  0  0  0  0  0  0  0
  148.4147  138.2575  153.1630 N   0  0  0  0  0  0  0  0  0  0  0  0
  149.2045  139.2236  153.8364 C   0  0  0  0  0  0  0  0  0  0  0  0
  148.7668  140.3361  154.4263 N   0  0  0  0  0  0  0  0  0  0  0  0
  149.9344  140.8523  154.8987 C   0  0  0  0  0  0  0  0  0  0  0  0
  149.9962  142.1315  155.6615 C   0  0  0  0  0  0  0  0  0  0  0  0
  151.0290  140.1452  154.6413 N   0  0  0  0  0  0  0  0  0  0  0  0
  150.5427  139.0422  153.9237 O   0  0  0  0  0  0  0  0  0  0  0  0
  145.2289  135.6056  151.0845 C   0  0  0  0  0  0  0  0  0  0  0  0
  144.9815  131.5305  149.4680 H   0  0  0  0  0  0  0  0  0  0  0  0
  146.0009  131.9387  150.8548 H   0  0  0  0  0  0  0  0  0  0  0  0
  145.8696  133.0592  149.4887 H   0  0  0  0  0  0  0  0  0  0  0  0
  145.6209  133.9345  152.3891 H   0  0  0  0  0  0  0  0  0  0  0  0
  142.8747  135.2201  152.5533 H   0  0  0  0  0  0  0  0  0  0  0  0
  143.7227  134.3501  153.8304 H   0  0  0  0  0  0  0  0  0  0  0  0
  143.8386  137.0667  153.6995 H   0  0  0  0  0  0  0  0  0  0  0  0
  145.2555  136.1351  154.1530 H   0  0  0  0  0  0  0  0  0  0  0  0
  144.7539  137.6332  151.6369 H   0  0  0  0  0  0  0  0  0  0  0  0
  147.3820  136.5016  152.0415 H   0  0  0  0  0  0  0  0  0  0  0  0
  148.9260  137.5025  152.7305 H   0  0  0  0  0  0  0  0  0  0  0  0
  151.0239  142.3755  155.9335 H   0  0  0  0  0  0  0  0  0  0  0  0
  149.4070  142.0530  156.5754 H   0  0  0  0  0  0  0  0  0  0  0  0
  149.5956  142.9478  155.0601 H   0  0  0  0  0  0  0  0  0  0  0  0
  146.1784  135.4185  150.5811 H   0  0  0  0  0  0  0  0  0  0  0  0
  144.4966  135.8303  150.3075 H   0  0  0  0  0  0  0  0  0  0  0  0
  1  2  1  0  0  0  0
  1 18  1  0  0  0  0
  1 19  1  0  0  0  0
  1 20  1  0  0  0  0
  2  3  1  0  0  0  0
  3 17  1  0  0  0  0
  3  4  1  0  0  0  0
  3 21  1  0  0  0  0
  4  5  1  0  0  0  0
  4 22  1  0  0  0  0
  4 23  1  0  0  0  0
  5  6  1  0  0  0  0
  5 24  1  0  0  0  0
  5 25  1  0  0  0  0
  6  7  1  0  0  0  0
  6 17  1  0  0  0  0
  6 26  1  0  0  0  0
  7  8  1  0  0  0  0
  7 27  1  0  0  0  0
  8  9  2  0  0  0  0
  8 10  1  0  0  0  0
 10 11  1  0  0  0  0
 10 28  1  0  0  0  0
 11 16  1  0  0  0  0
 11 12  2  0  0  0  0
 12 13  1  0  0  0  0
 13 14  1  0  0  0  0
 13 15  2  0  0  0  0
 14 29  1  0  0  0  0
 14 30  1  0  0  0  0
 14 31  1  0  0  0  0
 15 16  1  0  0  0  0
 17 32  1  0  0  0  0
 17 33  1  0  0  0  0
M  END
> <s_m_source_file>
AV-unprocessed.smi

> <i_m_source_file_index>
2492

> <i_lp_mmshare_version>
43012

> <i_f3d_flags>
0

> <s_epik_input>
W0NIM11TW0NAQEhdMVtDSDJdW0NIMl1bQ0BIXShbQ0gyXTEpW05IXUMoPU8pW05IXWMybmMoW0NIM10pbm8y

> <s_epik_cmdline>
J2VwaWtfcHl0aG9uJywgJy1waCcsICc3LjAnLCAnLXRuJywgJzgnLCAnLW1hJywgJzIwMCcsICctbWV0YWxfYmluZGluZycsICctaW1hZScsICc8aW5maWxlLm1hZT4nLCAnLW9tYWUnLCAnPG91dGZpbGUubWFlPic=

> <r_lp_tautomer_probability>
1

> <r_epik_Ionization_Penalty>
3.56659e-05

> <r_epik_Ionization_Penalty_Charging>
0

> <r_epik_Ionization_Penalty_Neutral>
3.56659e-05

> <r_epik_State_Penalty>
-0

> <r_epik_Charging_Adjusted_Penalty>
0

> <i_epik_Tot_Q>
0

> <i_epik_Tot_abs_Q>
0

> <r_epik_Metal_State_Penalty>
0.0146047

> <b_epik_Metal_Only>
0

> <s_lp_Force_Field>
OPLS_2005

> <r_lp_Energy>
14.5779

> <b_lp_Chiralities_Consistent>
1

> <s_lp_Variant>
AV-unprocessed.smi:2492-1

> <Gold.Version>
5.8.1

> <Gold.Id.Protein>
6NUR|6NUR_protein|mol2

> <Gold.PLP.Fitness>
32.5095

> <Gold.PLP.PLP>
-25.1037

> <Gold.PLP.part.hbond>
-3.8347

> <Gold.PLP.part.metal>
0.0000

> <Gold.PLP.part.buried>
-1.7342

> <Gold.PLP.part.nonpolar>
-20.7599

> <Gold.PLP.part.repulsive>
0.6127

> <Gold.PLP.ligand.clash>
0.0000

> <Gold.PLP.ligand.torsion>
0.2388

> <Gold.PLP.Chemscore.Hbond>
2.6260

> <Gold.PLP.Chemscore.CHOScore>
0.0000

> <Gold.PLP.Chemscore.Metal>
0.0000

> <Gold.Chemscore.Hbonds>
donor molecule, donor type, donor heavy atom, donor atom, acceptor molecule, acceptor atom, score
      L1  H     7    27       P1  7948  0.94
      L1  H    10    28       P1  7948  0.96
      P1  H  7989  7998       L1    15  0.79

> <Gold.PLP.Chemscore.Internal.Correction>
0.0053

> <Gold.Rescore>
     Score         DG    S(hbond)    S(metal)    S(lipo)     H(rot)  DE(clash)    DE(int)     intcor
     12.61     -14.29       1.95        0.00      47.54       1.28       0.12       1.56       ----

> <Gold.Chemscore.Fitness>
12.6067

> <Gold.Chemscore.DG>
-14.2853

> <Gold.Chemscore.ZeroCoef>
-5.4800

> <Gold.Chemscore.Hbond>
1.9532

> <Gold.Chemscore.Metal>
0.0000

> <Gold.Chemscore.Lipo>
47.5406

> <Gold.Chemscore.Internal_Hbond>
0.0000

> <Gold.Chemscore.DEClash>
0.1204

> <Gold.Chemscore.DEInternal>
1.5581

> <Gold.Chemscore.Rot>
1.2815

> <Gold.Chemscore.Internal.Correction>
   9.000000E+99

> <Gold.Chemscore.Hbonds>
donor molecule, donor type, donor heavy atom, donor atom, acceptor molecule, acceptor atom, score
      L1  H     7    27       P1  7948  0.89
      L1  H    10    28       P1  7948  0.88
      P1  H  7989  7998       L1    15  0.06

> <Gold.Chemscore.Hbond.Weighted>
-6.5238

> <Gold.Chemscore.Metal.Weighted>
-0.0000

> <Gold.Chemscore.Lipo.Weighted>
-5.5623

> <Gold.Chemscore.Internal_Hbond.Weighted>
0.0000

> <Gold.Chemscore.DEClash.Weighted>
0.1204

> <Gold.Chemscore.DEInternal.Weighted>
1.5581

> <Gold.Chemscore.Rot.Weighted>
3.2808

> <Gold.Chemscore.Internal.Correction.Weighted>
   9.000000E+99

> <Gold.Protein.RotatedTorsions>
[ 6907 6896 6895 6894 ] final  -54.16 input  -60.11 | X-H torsion
[ 7974 7965 7964 7962 ] final  103.98 input  175.53 | X-H torsion
[ 8008 7997 7996 7995 ] final -140.98 input   59.86 | X-H torsion
[ 10167 10162 10161 10158 ] final   61.31 input  -65.29 | X-H torsion
[ 10718 10713 10712 10709 ] final   47.73 input   66.30 | X-H torsion
[ 10763 10752 10751 10750 ] final -141.17 input  -60.55 | X-H torsion
[ 11005 11000 10999 10996 ] final -102.67 input  -57.11 | X-H torsion

> <Gold.Protein.ActiveResidues>
 VAL166  LYS551  ARG553  GLY616  TRP617  ASP618  TYR619  PRO620  LYS621  CYS622 
 ASP623  PHE694  ASN695  SER759  ASP760  ASP761  ALA762  ILE779  LEU786  VAL792 
 PHE793  MET794  SER795  GLU796  ALA797  LYS798  CYS799  TRP800  GLU811  SER814 

> <Gold.Protein.RotatedAtoms>
  150.8363  134.7637  159.6895 H   0  0  0  0  0  0  0  0  0  0  0  0  # atno 6907 bound_to 6896
  152.4459  134.5492  159.9872 H   0  0  0  0  0  0  0  0  0  0  0  0  # atno 6908 bound_to 6896
  151.5642  133.3361  159.3013 H   0  0  0  0  0  0  0  0  0  0  0  0  # atno 6909 bound_to 6896
  145.3388  139.2467  143.3620 H   0  0  0  0  0  0  0  0  0  0  0  0  # atno 7974 bound_to 7965
  155.4703  140.0552  157.2980 H   0  0  0  0  0  0  0  0  0  0  0  0  # atno 8008 bound_to 7997
  154.4701  140.2036  155.9971 H   0  0  0  0  0  0  0  0  0  0  0  0  # atno 8009 bound_to 7997
  156.1041  140.3214  155.7986 H   0  0  0  0  0  0  0  0  0  0  0  0  # atno 8010 bound_to 7997
  140.1562  144.4415  150.6733 H   0  0  0  0  0  0  0  0  0  0  0  0  # atno 10167 bound_to 10162
  157.4614  130.8199  149.7890 H   0  0  0  0  0  0  0  0  0  0  0  0  # atno 10718 bound_to 10713
  154.8554  135.3532  154.5825 H   0  0  0  0  0  0  0  0  0  0  0  0  # atno 10763 bound_to 10752
  153.6436  135.6997  153.5238 H   0  0  0  0  0  0  0  0  0  0  0  0  # atno 10764 bound_to 10752
  153.2951  135.4223  155.1161 H   0  0  0  0  0  0  0  0  0  0  0  0  # atno 10765 bound_to 10752
  141.1179  133.8577  157.1389 H   0  0  0  0  0  0  0  0  0  0  0  0  # atno 11005 bound_to 11000
  146.3016  140.3982  142.8702 LP  0  0  0  0  0  0  0  0  0  0  0  0  # atno 17320 bound_to 7965
  144.8806  140.7395  143.5989 LP  0  0  0  0  0  0  0  0  0  0  0  0  # atno 17321 bound_to 7965
  140.6672  143.2272  151.5715 LP  0  0  0  0  0  0  0  0  0  0  0  0  # atno 17342 bound_to 10162
  139.5402  144.2668  152.1336 LP  0  0  0  0  0  0  0  0  0  0  0  0  # atno 17343 bound_to 10162
  156.0030  130.3870  150.2533 LP  0  0  0  0  0  0  0  0  0  0  0  0  # atno 17370 bound_to 10713
  157.0711  131.0117  151.3190 LP  0  0  0  0  0  0  0  0  0  0  0  0  # atno 17371 bound_to 10713
  140.0114  134.9986  157.0403 LP  0  0  0  0  0  0  0  0  0  0  0  0  # atno 17394 bound_to 11000
  140.4593  134.1501  155.7189 LP  0  0  0  0  0  0  0  0  0  0  0  0  # atno 17395 bound_to 11000

$$$$
