AV-unprocessed.smi:104|AV-procd|sdf|994|dock1
  -GOLD-   2262017573D 1   1.00000     0.00000
 Structure written by MMmdl.
 47 49  0  0  0  0  0  0  0  0  1 V2000
  147.2684  134.7764  162.1807 C   0  0  0  0  0  0  0  0  0  0  0  0
  147.4353  136.0145  161.3088 C   0  0  0  0  0  0  0  0  0  0  0  0
  147.3075  137.1470  161.7737 O   0  0  0  0  0  0  0  0  0  0  0  0
  147.7317  135.7112  160.0359 O   0  0  0  0  0  0  0  0  0  0  0  0
  147.7517  136.7320  159.0507 C   0  0  0  0  0  0  0  0  0  0  0  0
  148.2325  136.1534  157.7076 C   0  0  1  0  0  0  0  0  0  0  0  0
  147.1808  135.3336  157.1954 O   0  0  0  0  0  0  0  0  0  0  0  0
  146.7332  135.8227  155.9676 C   0  0  1  0  0  0  0  0  0  0  0  0
  145.2458  135.6698  155.8757 N   0  0  0  0  0  0  0  0  0  0  0  0
  144.4139  134.9380  156.6908 C   0  0  0  0  0  0  0  0  0  0  0  0
  145.0742  133.9359  158.1687 Br  0  0  0  0  0  0  0  0  0  0  0  0
  143.1440  134.9314  156.3979 N   0  0  0  0  0  0  0  0  0  0  0  0
  143.0902  135.7257  155.2595 C   0  0  0  0  0  0  0  0  0  0  0  0
  142.0430  136.1395  154.3981 C   0  0  0  0  0  0  0  0  0  0  0  0
  140.7632  135.7849  154.5799 N   0  0  0  0  0  0  0  0  0  0  0  0
  142.3487  136.9249  153.3392 N   0  0  0  0  0  0  0  0  0  0  0  0
  143.6183  137.2893  153.1329 C   0  0  0  0  0  0  0  0  0  0  0  0
  144.7021  136.9843  153.8510 N   0  0  0  0  0  0  0  0  0  0  0  0
  144.3944  136.1941  154.9215 C   0  0  0  0  0  0  0  0  0  0  0  0
  147.1925  137.2825  155.8642 C   0  0  1  0  0  0  0  0  0  0  0  0
  146.2838  138.1682  156.5193 O   0  0  0  0  0  0  0  0  0  0  0  0
  146.4289  139.5018  156.4228 C   0  0  0  0  0  0  0  0  0  0  0  0
  145.3508  140.2565  157.1883 C   0  0  0  0  0  0  0  0  0  0  0  0
  147.2991  140.0938  155.7848 O   0  0  0  0  0  0  0  0  0  0  0  0
  148.5137  137.1901  156.6032 C   0  0  1  0  0  0  0  0  0  0  0  0
  148.9577  138.4672  157.0500 O   0  0  0  0  0  0  0  0  0  0  0  0
  150.0780  138.5778  157.7837 C   0  0  0  0  0  0  0  0  0  0  0  0
  150.4393  140.0281  158.0740 C   0  0  0  0  0  0  0  0  0  0  0  0
  150.7595  137.6463  158.2114 O   0  0  0  0  0  0  0  0  0  0  0  0
  147.2403  133.8713  161.5730 H   0  0  0  0  0  0  0  0  0  0  0  0
  146.3404  134.8380  162.7493 H   0  0  0  0  0  0  0  0  0  0  0  0
  148.0994  134.6958  162.8814 H   0  0  0  0  0  0  0  0  0  0  0  0
  146.7361  137.1151  158.9456 H   0  0  0  0  0  0  0  0  0  0  0  0
  148.3803  137.5698  159.3545 H   0  0  0  0  0  0  0  0  0  0  0  0
  149.1102  135.5279  157.8744 H   0  0  0  0  0  0  0  0  0  0  0  0
  147.1390  135.1972  155.1723 H   0  0  0  0  0  0  0  0  0  0  0  0
  140.5100  135.1960  155.3605 H   0  0  0  0  0  0  0  0  0  0  0  0
  140.0545  136.1063  153.9365 H   0  0  0  0  0  0  0  0  0  0  0  0
  143.7910  137.9145  152.2694 H   0  0  0  0  0  0  0  0  0  0  0  0
  147.3430  137.5539  154.8185 H   0  0  0  0  0  0  0  0  0  0  0  0
  144.3859  139.7612  157.0753 H   0  0  0  0  0  0  0  0  0  0  0  0
  145.2597  141.2760  156.8127 H   0  0  0  0  0  0  0  0  0  0  0  0
  145.5985  140.2977  158.2489 H   0  0  0  0  0  0  0  0  0  0  0  0
  149.2389  136.7643  155.9073 H   0  0  0  0  0  0  0  0  0  0  0  0
  150.3616  140.6295  157.1682 H   0  0  0  0  0  0  0  0  0  0  0  0
  151.4601  140.1004  158.4499 H   0  0  0  0  0  0  0  0  0  0  0  0
  149.7644  140.4411  158.8236 H   0  0  0  0  0  0  0  0  0  0  0  0
  1  2  1  0  0  0  0
  1 30  1  0  0  0  0
  1 31  1  0  0  0  0
  1 32  1  0  0  0  0
  2  3  2  0  0  0  0
  2  4  1  0  0  0  0
  4  5  1  0  0  0  0
  5  6  1  0  0  0  0
  5 33  1  0  0  0  0
  5 34  1  0  0  0  0
  6 25  1  0  0  0  0
  6  7  1  0  0  0  0
  6 35  1  0  0  0  0
  7  8  1  0  0  0  0
  8  9  1  0  0  0  0
  8 20  1  0  0  0  0
  8 36  1  0  0  0  0
  9 19  1  0  0  0  0
  9 10  1  0  0  0  0
 10 11  1  0  0  0  0
 10 12  2  0  0  0  0
 12 13  1  0  0  0  0
 13 19  2  0  0  0  0
 13 14  1  0  0  0  0
 14 15  1  0  0  0  0
 14 16  2  0  0  0  0
 15 37  1  0  0  0  0
 15 38  1  0  0  0  0
 16 17  1  0  0  0  0
 17 18  2  0  0  0  0
 17 39  1  0  0  0  0
 18 19  1  0  0  0  0
 20 21  1  0  0  0  0
 20 25  1  0  0  0  0
 20 40  1  0  0  0  0
 21 22  1  0  0  0  0
 22 23  1  0  0  0  0
 22 24  2  0  0  0  0
 23 41  1  0  0  0  0
 23 42  1  0  0  0  0
 23 43  1  0  0  0  0
 25 26  1  0  0  0  0
 25 44  1  0  0  0  0
 26 27  1  0  0  0  0
 27 28  1  0  0  0  0
 27 29  2  0  0  0  0
 28 45  1  0  0  0  0
 28 46  1  0  0  0  0
 28 47  1  0  0  0  0
M  END
> <s_m_source_file>
AV-unprocessed.smi

> <i_m_source_file_index>
104

> <i_lp_mmshare_version>
43012

> <i_f3d_flags>
0

> <s_epik_input>
W0NIM11DKD1PKU9bQ0gyXVtDQEBIXTFPW0NASF0oW0NAQEhdKE9DKD1PKVtDSDNdKVtDQEhdMU9DKD1PKVtDSDNdKW4oYyhCciluMiljKGMyMyluW2NIXW5jM1tOSDJd

> <s_epik_cmdline>
J2VwaWtfcHl0aG9uJywgJy1waCcsICc3LjAnLCAnLXRuJywgJzgnLCAnLW1hJywgJzIwMCcsICctbWV0YWxfYmluZGluZycsICctaW1hZScsICc8aW5maWxlLm1hZT4nLCAnLW9tYWUnLCAnPG91dGZpbGUubWFlPic=

> <r_lp_tautomer_probability>
1

> <r_epik_Ionization_Penalty>
7.36622e-05

> <r_epik_Ionization_Penalty_Charging>
0

> <r_epik_Ionization_Penalty_Neutral>
7.36622e-05

> <r_epik_State_Penalty>
-0

> <r_epik_Charging_Adjusted_Penalty>
0

> <i_epik_Tot_Q>
0

> <i_epik_Tot_abs_Q>
0

> <r_epik_Metal_State_Penalty>
-0

> <b_epik_Metal_Only>
0

> <s_epik_Chemistry_Notes>
This compound has an ester and may undergo hydrolysis at high or low pH. This compound contains an acetal/aminal-like group ( X-CH(R)-Y where X, Y are N, S, or O) that may be acid/base labile, releasing an aldehyde.

> <s_lp_Force_Field>
OPLS_2005

> <r_lp_Energy>
22.6214

> <b_lp_Chiralities_Consistent>
1

> <s_lp_Variant>
AV-unprocessed.smi:104-2

> <Gold.Version>
5.8.1

> <Gold.Id.Protein>
6NUR|6NUR_protein|mol2

> <Gold.PLP.Fitness>
34.0791

> <Gold.PLP.PLP>
-21.1442

> <Gold.PLP.part.hbond>
-3.7773

> <Gold.PLP.part.metal>
0.0000

> <Gold.PLP.part.buried>
-4.9436

> <Gold.PLP.part.nonpolar>
-11.9673

> <Gold.PLP.part.repulsive>
0.4114

> <Gold.PLP.ligand.clash>
0.0000

> <Gold.PLP.ligand.torsion>
0.4631

> <Gold.PLP.Chemscore.Hbond>
2.6960

> <Gold.PLP.Chemscore.CHOScore>
1.7839

> <Gold.PLP.Chemscore.Metal>
0.0000

> <Gold.Chemscore.Hbonds>
donor molecule, donor type, donor heavy atom, donor atom, acceptor molecule, acceptor atom, score
      L1  H    15    37       P1 11000  1.00
      P1  H  6931  6943       L1     3  0.87
      P1  H  6934  6947       L1     3  0.78
      P1  H 11000 11005       L1    12  0.04
      L1  C    17    39       P1 10171  0.98
      L1  C    17    39       P1 10175  0.82

> <Gold.PLP.Chemscore.Internal.Correction>
0.4214

> <Gold.Rescore>
     Score         DG    S(hbond)    S(metal)    S(lipo)     H(rot)  DE(clash)    DE(int)     intcor
      2.05      -6.81       2.95        0.00      21.38       4.31       0.01       4.76       ----

> <Gold.Chemscore.Fitness>
2.0460

> <Gold.Chemscore.DG>
-6.8129

> <Gold.Chemscore.ZeroCoef>
-5.4800

> <Gold.Chemscore.Hbond>
2.9512

> <Gold.Chemscore.Metal>
0.0000

> <Gold.Chemscore.Lipo>
21.3825

> <Gold.Chemscore.Internal_Hbond>
0.0000

> <Gold.Chemscore.DEClash>
0.0096

> <Gold.Chemscore.DEInternal>
4.7573

> <Gold.Chemscore.Rot>
4.3070

> <Gold.Chemscore.Internal.Correction>
   9.000000E+99

> <Gold.Chemscore.Hbonds>
donor molecule, donor type, donor heavy atom, donor atom, acceptor molecule, acceptor atom, score
      L1  H    15    37       P1 11000  0.94
      P1  H  6931  6943       L1     3  0.74
      P1  H  6934  6947       L1     3  0.75
      P1  H 11000 11005       L1    12  0.05

> <Gold.Chemscore.Hbond.Weighted>
-9.8570

> <Gold.Chemscore.Metal.Weighted>
-0.0000

> <Gold.Chemscore.Lipo.Weighted>
-2.5018

> <Gold.Chemscore.Internal_Hbond.Weighted>
0.0000

> <Gold.Chemscore.DEClash.Weighted>
0.0096

> <Gold.Chemscore.DEInternal.Weighted>
4.7573

> <Gold.Chemscore.Rot.Weighted>
11.0259

> <Gold.Chemscore.Internal.Correction.Weighted>
   9.000000E+99

> <Gold.Protein.RotatedTorsions>
[ 6907 6896 6895 6894 ] final -156.02 input  -60.11 | X-H torsion
[ 7974 7965 7964 7962 ] final   61.26 input  175.53 | X-H torsion
[ 8008 7997 7996 7995 ] final   29.02 input   59.86 | X-H torsion
[ 10167 10162 10161 10158 ] final  -49.90 input  -65.29 | X-H torsion
[ 10718 10713 10712 10709 ] final -127.54 input   66.30 | X-H torsion
[ 10763 10752 10751 10750 ] final  145.94 input  -60.55 | X-H torsion
[ 11005 11000 10999 10996 ] final -110.67 input  -57.11 | X-H torsion

> <Gold.Protein.ActiveResidues>
 VAL166  LYS551  ARG553  GLY616  TRP617  ASP618  TYR619  PRO620  LYS621  CYS622 
 ASP623  PHE694  ASN695  SER759  ASP760  ASP761  ALA762  ILE779  LEU786  VAL792 
 PHE793  MET794  SER795  GLU796  ALA797  LYS798  CYS799  TRP800  GLU811  SER814 

> <Gold.Protein.RotatedAtoms>
  151.2812  133.4208  159.2626 H   0  0  0  0  0  0  0  0  0  0  0  0  # atno 6907 bound_to 6896
  151.0359  134.9573  159.8146 H   0  0  0  0  0  0  0  0  0  0  0  0  # atno 6908 bound_to 6896
  152.5355  134.2772  159.9046 H   0  0  0  0  0  0  0  0  0  0  0  0  # atno 6909 bound_to 6896
  145.8868  139.3482  143.0673 H   0  0  0  0  0  0  0  0  0  0  0  0  # atno 7974 bound_to 7965
  155.0678  140.3197  155.4640 H   0  0  0  0  0  0  0  0  0  0  0  0  # atno 8008 bound_to 7997
  156.2798  140.2117  156.5751 H   0  0  0  0  0  0  0  0  0  0  0  0  # atno 8009 bound_to 7997
  154.7079  140.0501  157.0509 H   0  0  0  0  0  0  0  0  0  0  0  0  # atno 8010 bound_to 7997
  140.6663  143.2679  151.4282 H   0  0  0  0  0  0  0  0  0  0  0  0  # atno 10167 bound_to 10162
  156.1867  130.6768  151.0373 H   0  0  0  0  0  0  0  0  0  0  0  0  # atno 10718 bound_to 10713
  154.0136  135.2912  155.3389 H   0  0  0  0  0  0  0  0  0  0  0  0  # atno 10763 bound_to 10752
  154.7088  135.5158  153.8639 H   0  0  0  0  0  0  0  0  0  0  0  0  # atno 10764 bound_to 10752
  153.0712  135.6648  154.0365 H   0  0  0  0  0  0  0  0  0  0  0  0  # atno 10765 bound_to 10752
  141.0778  133.9271  157.2352 H   0  0  0  0  0  0  0  0  0  0  0  0  # atno 11005 bound_to 11000
  145.8957  140.9275  143.0529 LP  0  0  0  0  0  0  0  0  0  0  0  0  # atno 17320 bound_to 7965
  144.6729  140.0965  143.7462 LP  0  0  0  0  0  0  0  0  0  0  0  0  # atno 17321 bound_to 7965
  139.5913  144.1493  152.2091 LP  0  0  0  0  0  0  0  0  0  0  0  0  # atno 17342 bound_to 10162
  140.0848  144.5670  150.7096 LP  0  0  0  0  0  0  0  0  0  0  0  0  # atno 17343 bound_to 10162
  157.6903  131.0812  150.7126 LP  0  0  0  0  0  0  0  0  0  0  0  0  # atno 17370 bound_to 10713
  156.7183  130.4673  149.5529 LP  0  0  0  0  0  0  0  0  0  0  0  0  # atno 17371 bound_to 10713
  139.9591  135.0158  156.9211 LP  0  0  0  0  0  0  0  0  0  0  0  0  # atno 17394 bound_to 11000
  140.5534  134.0605  155.7376 LP  0  0  0  0  0  0  0  0  0  0  0  0  # atno 17395 bound_to 11000

$$$$
