AV-unprocessed.smi:1578|AV-procd|sdf|6353|dock6
  -GOLD-   22720 6573D 1   1.00000     0.00000
 Structure written by MMmdl.
 45 46  0  0  0  0  0  0  0  0  2 V2000
  149.5808  137.4880  156.0666 C   0  0  0  0  0  0  0  0  0  0  0  0
  149.4505  138.3171  154.7820 C   0  0  1  0  0  0  0  0  0  0  0  0
  147.9677  138.5376  154.3996 C   0  0  0  0  0  0  0  0  0  0  0  0
  147.3306  137.3362  153.8006 N   0  3  0  0  0  0  0  0  0  0  0  0
  147.0467  136.2638  154.7844 C   0  0  0  0  0  0  0  0  0  0  0  0
  146.4718  135.0307  154.0689 C   0  0  0  0  0  0  0  0  0  0  0  0
  145.2888  135.4003  153.3712 O   0  0  0  0  0  0  0  0  0  0  0  0
  145.5435  136.3779  152.3699 C   0  0  0  0  0  0  0  0  0  0  0  0
  146.1138  137.6532  153.0162 C   0  0  0  0  0  0  0  0  0  0  0  0
  150.1365  139.5965  154.9622 N   0  0  0  0  0  0  0  0  0  0  0  0
  149.7764  140.5702  155.8132 C   0  0  0  0  0  0  0  0  0  0  0  0
  148.7603  140.5254  156.5065 O   0  0  0  0  0  0  0  0  0  0  0  0
  150.7260  141.7701  155.9119 C   0  0  0  0  0  0  0  0  0  0  0  0
  151.3830  141.8513  157.2275 N   0  0  0  0  0  0  0  0  0  0  0  0
  151.0918  142.9729  158.0282 C   0  0  0  0  0  0  0  0  0  0  0  0
  151.6287  143.1610  159.2485 C   0  0  0  0  0  0  0  0  0  0  0  0
  151.2724  144.3800  160.0843 C   0  0  0  0  0  0  0  0  0  0  0  0
  149.9689  144.4223  160.3597 F   0  0  0  0  0  0  0  0  0  0  0  0
  151.9437  144.3576  161.2351 F   0  0  0  0  0  0  0  0  0  0  0  0
  151.6019  145.4981  159.4375 F   0  0  0  0  0  0  0  0  0  0  0  0
  152.5336  142.1316  159.7233 C   0  0  0  0  0  0  0  0  0  0  0  0
  152.8188  141.0501  158.9722 C   0  0  0  0  0  0  0  0  0  0  0  0
  152.2330  140.8637  157.6434 C   0  0  0  0  0  0  0  0  0  0  0  0
  152.4841  139.8780  156.9486 O   0  0  0  0  0  0  0  0  0  0  0  0
  149.0993  136.5161  155.9552 H   0  0  0  0  0  0  0  0  0  0  0  0
  149.1185  137.9927  156.9158 H   0  0  0  0  0  0  0  0  0  0  0  0
  150.6275  137.3094  156.3150 H   0  0  0  0  0  0  0  0  0  0  0  0
  149.9411  137.7497  153.9901 H   0  0  0  0  0  0  0  0  0  0  0  0
  147.3899  138.8693  155.2638 H   0  0  0  0  0  0  0  0  0  0  0  0
  147.9249  139.3528  153.6755 H   0  0  0  0  0  0  0  0  0  0  0  0
  147.9540  135.9833  155.3181 H   0  0  0  0  0  0  0  0  0  0  0  0
  146.3385  136.6267  155.5308 H   0  0  0  0  0  0  0  0  0  0  0  0
  147.2020  134.6046  153.3785 H   0  0  0  0  0  0  0  0  0  0  0  0
  146.2270  134.2550  154.7945 H   0  0  0  0  0  0  0  0  0  0  0  0
  146.2297  135.9748  151.6242 H   0  0  0  0  0  0  0  0  0  0  0  0
  144.6113  136.6045  151.8522 H   0  0  0  0  0  0  0  0  0  0  0  0
  145.3672  138.1101  153.6675 H   0  0  0  0  0  0  0  0  0  0  0  0
  146.3521  138.3798  152.2386 H   0  0  0  0  0  0  0  0  0  0  0  0
  150.9811  139.7341  154.4257 H   0  0  0  0  0  0  0  0  0  0  0  0
  151.4841  141.7164  155.1277 H   0  0  0  0  0  0  0  0  0  0  0  0
  150.1533  142.6736  155.6992 H   0  0  0  0  0  0  0  0  0  0  0  0
  150.3967  143.6751  157.5911 H   0  0  0  0  0  0  0  0  0  0  0  0
  152.9924  142.2260  160.6963 H   0  0  0  0  0  0  0  0  0  0  0  0
  153.4969  140.3028  159.3573 H   0  0  0  0  0  0  0  0  0  0  0  0
  147.9980  136.9612  153.1411 H   0  0  0  0  0  0  0  0  0  0  0  0
  1  2  1  0  0  0  0
  1 25  1  0  0  0  0
  1 26  1  0  0  0  0
  1 27  1  0  0  0  0
  2  3  1  0  0  0  0
  2 10  1  0  0  0  0
  2 28  1  0  0  0  0
  3  4  1  0  0  0  0
  3 29  1  0  0  0  0
  3 30  1  0  0  0  0
  4  9  1  0  0  0  0
  4  5  1  0  0  0  0
  4 45  1  0  0  0  0
  5  6  1  0  0  0  0
  5 31  1  0  0  0  0
  5 32  1  0  0  0  0
  6  7  1  0  0  0  0
  6 33  1  0  0  0  0
  6 34  1  0  0  0  0
  7  8  1  0  0  0  0
  8  9  1  0  0  0  0
  8 35  1  0  0  0  0
  8 36  1  0  0  0  0
  9 37  1  0  0  0  0
  9 38  1  0  0  0  0
 10 11  1  0  0  0  0
 10 39  1  0  0  0  0
 11 12  2  0  0  0  0
 11 13  1  0  0  0  0
 13 14  1  0  0  0  0
 13 40  1  0  0  0  0
 13 41  1  0  0  0  0
 14 23  1  0  0  0  0
 14 15  1  0  0  0  0
 15 16  2  0  0  0  0
 15 42  1  0  0  0  0
 16 17  1  0  0  0  0
 16 21  1  0  0  0  0
 17 18  1  0  0  0  0
 17 19  1  0  0  0  0
 17 20  1  0  0  0  0
 21 22  2  0  0  0  0
 21 43  1  0  0  0  0
 22 23  1  0  0  0  0
 22 44  1  0  0  0  0
 23 24  2  0  0  0  0
M  CHG  1   4   1
M  END
> <s_m_source_file>
AV-unprocessed.smi

> <i_m_source_file_index>
1578

> <i_lp_mmshare_version>
43012

> <i_f3d_flags>
0

> <s_epik_input>
W0NIMl0xW0NIMl1PW0NIMl1bQ0gyXU4xW0NIMl1bQ0BASF0oW0NIM10pW05IXUMoPU8pW0NIMl1uMltjSF1jKEMoRikoRilGKVtjSF1bY0hdYzI9Tw==

> <s_epik_cmdline>
J2VwaWtfcHl0aG9uJywgJy1waCcsICc3LjAnLCAnLXRuJywgJzgnLCAnLW1hJywgJzIwMCcsICctbWV0YWxfYmluZGluZycsICctaW1hZScsICc8aW5maWxlLm1hZT4nLCAnLW9tYWUnLCAnPG91dGZpbGUubWFlPic=

> <r_lp_tautomer_probability>
1

> <r_epik_Ionization_Penalty>
0.656654

> <r_epik_Ionization_Penalty_Charging>
0.656653

> <r_epik_Ionization_Penalty_Neutral>
9.12373e-08

> <r_epik_State_Penalty>
0.675641

> <r_epik_Charging_Adjusted_Penalty>
1.33229

> <i_epik_Tot_Q>
1

> <i_epik_Tot_abs_Q>
1

> <r_epik_Metal_State_Penalty>
0.675695

> <b_epik_Metal_Only>
0

> <s_lp_Force_Field>
OPLS_2005

> <r_lp_Energy>
32.4409

> <b_lp_Chiralities_Consistent>
1

> <s_lp_Variant>
AV-unprocessed.smi:1578-4

> <Gold.Version>
5.8.1

> <Gold.Id.Protein>
6NUR|6NUR_protein|mol2

> <Gold.PLP.Fitness>
50.8695

> <Gold.PLP.PLP>
-40.4498

> <Gold.PLP.part.hbond>
-2.0000

> <Gold.PLP.part.metal>
0.0000

> <Gold.PLP.part.buried>
-5.0725

> <Gold.PLP.part.nonpolar>
-32.9404

> <Gold.PLP.part.repulsive>
0.2815

> <Gold.PLP.ligand.clash>
0.0000

> <Gold.PLP.ligand.torsion>
0.3684

> <Gold.PLP.Chemscore.Hbond>
2.9913

> <Gold.PLP.Chemscore.CHOScore>
0.6651

> <Gold.PLP.Chemscore.Metal>
0.0000

> <Gold.Chemscore.Hbonds>
donor molecule, donor type, donor heavy atom, donor atom, acceptor molecule, acceptor atom, score
      L1  H     4    45       P1  7948  2.00
      P1  H  7997  8009       L1    24  1.00
      L1  C    15    42       P1  8028  0.71

> <Gold.PLP.Chemscore.Internal.Correction>
0.1875

> <Gold.Rescore>
     Score         DG    S(hbond)    S(metal)    S(lipo)     H(rot)  DE(clash)    DE(int)     intcor
     14.08     -15.69       1.78        0.00      83.94       2.17       0.09       1.53       ----

> <Gold.Chemscore.Fitness>
14.0756

> <Gold.Chemscore.DG>
-15.6939

> <Gold.Chemscore.ZeroCoef>
-5.4800

> <Gold.Chemscore.Hbond>
1.7820

> <Gold.Chemscore.Metal>
0.0000

> <Gold.Chemscore.Lipo>
83.9420

> <Gold.Chemscore.Internal_Hbond>
0.0000

> <Gold.Chemscore.DEClash>
0.0875

> <Gold.Chemscore.DEInternal>
1.5307

> <Gold.Chemscore.Rot>
2.1716

> <Gold.Chemscore.Internal.Correction>
   9.000000E+99

> <Gold.Chemscore.Hbonds>
donor molecule, donor type, donor heavy atom, donor atom, acceptor molecule, acceptor atom, score
      L1  H     4    45       P1  7948  1.00
      P1  H  7997  8009       L1    24  0.30

> <Gold.Chemscore.Hbond.Weighted>
-5.9519

> <Gold.Chemscore.Metal.Weighted>
-0.0000

> <Gold.Chemscore.Lipo.Weighted>
-9.8212

> <Gold.Chemscore.Internal_Hbond.Weighted>
0.0000

> <Gold.Chemscore.DEClash.Weighted>
0.0875

> <Gold.Chemscore.DEInternal.Weighted>
1.5307

> <Gold.Chemscore.Rot.Weighted>
5.5592

> <Gold.Chemscore.Internal.Correction.Weighted>
   9.000000E+99

> <Gold.Protein.RotatedTorsions>
[ 6907 6896 6895 6894 ] final  -87.37 input  -60.11 | X-H torsion
[ 7974 7965 7964 7962 ] final    8.76 input  175.53 | X-H torsion
[ 8008 7997 7996 7995 ] final  175.42 input   59.86 | X-H torsion
[ 10167 10162 10161 10158 ] final   69.74 input  -65.29 | X-H torsion
[ 10718 10713 10712 10709 ] final   77.36 input   66.30 | X-H torsion
[ 10763 10752 10751 10750 ] final   36.31 input  -60.55 | X-H torsion
[ 11005 11000 10999 10996 ] final  -13.37 input  -57.11 | X-H torsion

> <Gold.Protein.ActiveResidues>
 VAL166  LYS551  ARG553  GLY616  TRP617  ASP618  TYR619  PRO620  LYS621  CYS622 
 ASP623  PHE694  ASN695  SER759  ASP760  ASP761  ALA762  ILE779  LEU786  VAL792 
 PHE793  MET794  SER795  GLU796  ALA797  LYS798  CYS799  TRP800  GLU811  SER814 

> <Gold.Protein.RotatedAtoms>
  150.6866  134.2906  159.4664 H   0  0  0  0  0  0  0  0  0  0  0  0  # atno 6907 bound_to 6896
  152.0812  134.9467  160.0582 H   0  0  0  0  0  0  0  0  0  0  0  0  # atno 6908 bound_to 6896
  152.0820  133.4122  159.4542 H   0  0  0  0  0  0  0  0  0  0  0  0  # atno 6909 bound_to 6896
  146.2412  139.9885  142.8428 H   0  0  0  0  0  0  0  0  0  0  0  0  # atno 7974 bound_to 7965
  156.0872  140.1409  156.9638 H   0  0  0  0  0  0  0  0  0  0  0  0  # atno 8008 bound_to 7997
  154.4620  140.0940  156.6966 H   0  0  0  0  0  0  0  0  0  0  0  0  # atno 8009 bound_to 7997
  155.4980  140.3450  155.4368 H   0  0  0  0  0  0  0  0  0  0  0  0  # atno 8010 bound_to 7997
  140.0645  144.5205  150.7271 H   0  0  0  0  0  0  0  0  0  0  0  0  # atno 10167 bound_to 10162
  157.6707  130.9818  150.1630 H   0  0  0  0  0  0  0  0  0  0  0  0  # atno 10718 bound_to 10713
  153.0082  135.6309  154.1964 H   0  0  0  0  0  0  0  0  0  0  0  0  # atno 10763 bound_to 10752
  154.1707  135.2818  155.3083 H   0  0  0  0  0  0  0  0  0  0  0  0  # atno 10764 bound_to 10752
  154.5910  135.5617  153.7339 H   0  0  0  0  0  0  0  0  0  0  0  0  # atno 10765 bound_to 10752
  140.7754  133.8405  155.9244 H   0  0  0  0  0  0  0  0  0  0  0  0  # atno 11005 bound_to 11000
  145.1525  140.9631  143.4424 LP  0  0  0  0  0  0  0  0  0  0  0  0  # atno 17320 bound_to 7965
  145.0191  139.3440  143.6081 LP  0  0  0  0  0  0  0  0  0  0  0  0  # atno 17321 bound_to 7965
  140.7156  143.2541  151.4445 LP  0  0  0  0  0  0  0  0  0  0  0  0  # atno 17342 bound_to 10162
  139.5874  144.1575  152.2045 LP  0  0  0  0  0  0  0  0  0  0  0  0  # atno 17343 bound_to 10162
  156.2402  130.3690  149.8346 LP  0  0  0  0  0  0  0  0  0  0  0  0  # atno 17370 bound_to 10713
  156.6148  130.8601  151.3462 LP  0  0  0  0  0  0  0  0  0  0  0  0  # atno 17371 bound_to 10713
  140.9533  134.1750  157.4711 LP  0  0  0  0  0  0  0  0  0  0  0  0  # atno 17394 bound_to 11000
  139.8750  134.9917  156.5564 LP  0  0  0  0  0  0  0  0  0  0  0  0  # atno 17395 bound_to 11000

$$$$
