AV-unprocessed.smi:252|AV-procd|sdf|1943|dock8
  -GOLD-   2262021 73D 1   1.00000     0.00000
 Structure written by MMmdl.
 56 59  0  0  0  0  0  0  0  0  1 V2000
  148.2099  144.8317  161.0410 C   0  0  0  0  0  0  0  0  0  0  0  0
  146.7045  144.6253  160.8097 C   0  0  0  0  0  0  0  0  0  0  0  0
  146.3831  143.4987  159.8225 C   0  0  0  0  0  0  0  0  0  0  0  0
  145.7966  142.4804  160.1913 O   0  0  0  0  0  0  0  0  0  0  0  0
  146.7810  143.6997  158.5567 N   0  0  0  0  0  0  0  0  0  0  0  0
  146.5937  142.7608  157.4554 C   0  0  1  0  0  0  0  0  0  0  0  0
  145.8862  143.4662  156.2845 C   0  0  0  0  0  0  0  0  0  0  0  0
  145.7608  142.5169  155.0833 C   0  0  0  0  0  0  0  0  0  0  0  0
  147.1328  141.9533  154.6811 C   0  0  0  0  0  0  0  0  0  0  0  0
  147.7931  141.3260  155.8254 N   0  0  0  0  0  0  0  0  0  0  0  0
  148.8265  140.5069  155.5037 C   0  0  0  0  0  0  0  0  0  0  0  0
  148.8596  139.9016  154.2860 N   0  0  0  0  0  0  0  0  0  0  0  0
  149.8679  139.0863  153.9639 C   0  0  0  0  0  0  0  0  0  0  0  0
  150.9281  138.7412  154.6963 N   0  0  0  0  0  0  0  0  0  0  0  0
  150.9045  139.3476  155.9175 C   0  0  0  0  0  0  0  0  0  0  0  0
  149.9037  140.2405  156.3957 C   0  0  0  0  0  0  0  0  0  0  0  0
  150.2313  140.6754  157.6746 N   0  0  0  0  0  0  0  0  0  0  0  0
  151.3557  140.0689  157.9398 C   0  0  0  0  0  0  0  0  0  0  0  0
  151.8247  139.2398  156.9458 N   0  0  0  0  0  0  0  0  0  0  0  0
  153.0436  138.4465  156.9764 C   0  0  0  0  0  0  0  0  0  0  0  0
  152.8170  136.9505  157.3315 C   0  0  2  0  0  0  0  0  0  0  0  0
  153.9042  136.1787  156.8573 O   0  0  0  0  0  0  0  0  0  0  0  0
  151.5215  136.3710  156.7756 C   0  0  0  0  0  0  0  0  0  0  0  0
  150.4916  136.8107  157.8117 C   0  0  0  0  0  0  0  0  0  0  0  0
  151.1940  136.8706  159.0498 O   0  0  0  0  0  0  0  0  0  0  0  0
  152.5915  136.6892  158.8336 C   0  0  2  0  0  0  0  0  0  0  0  0
  153.4093  137.5420  159.8149 C   0  0  0  0  0  0  0  0  0  0  0  0
  147.9504  142.1854  157.0002 C   0  0  0  0  0  0  0  0  0  0  0  0
  148.3838  145.6579  161.7306 H   0  0  0  0  0  0  0  0  0  0  0  0
  148.7272  145.0654  160.1097 H   0  0  0  0  0  0  0  0  0  0  0  0
  148.6725  143.9426  161.4711 H   0  0  0  0  0  0  0  0  0  0  0  0
  146.2145  144.4060  161.7589 H   0  0  0  0  0  0  0  0  0  0  0  0
  146.2670  145.5522  160.4365 H   0  0  0  0  0  0  0  0  0  0  0  0
  147.2548  144.5646  158.3412 H   0  0  0  0  0  0  0  0  0  0  0  0
  145.9565  141.9402  157.7913 H   0  0  0  0  0  0  0  0  0  0  0  0
  144.8979  143.8108  156.5911 H   0  0  0  0  0  0  0  0  0  0  0  0
  146.4491  144.3529  155.9889 H   0  0  0  0  0  0  0  0  0  0  0  0
  145.0896  141.6949  155.3354 H   0  0  0  0  0  0  0  0  0  0  0  0
  145.3103  143.0382  154.2385 H   0  0  0  0  0  0  0  0  0  0  0  0
  147.0054  141.2510  153.8580 H   0  0  0  0  0  0  0  0  0  0  0  0
  147.7691  142.7569  154.3086 H   0  0  0  0  0  0  0  0  0  0  0  0
  149.8173  138.6464  152.9788 H   0  0  0  0  0  0  0  0  0  0  0  0
  151.8745  140.2049  158.8777 H   0  0  0  0  0  0  0  0  0  0  0  0
  153.5238  138.5365  156.0014 H   0  0  0  0  0  0  0  0  0  0  0  0
  153.7252  138.9078  157.6920 H   0  0  0  0  0  0  0  0  0  0  0  0
  154.6920  136.4719  157.2890 H   0  0  0  0  0  0  0  0  0  0  0  0
  151.2744  136.6859  155.7627 H   0  0  0  0  0  0  0  0  0  0  0  0
  151.5683  135.2805  156.7691 H   0  0  0  0  0  0  0  0  0  0  0  0
  150.1112  137.8052  157.5768 H   0  0  0  0  0  0  0  0  0  0  0  0
  149.6428  136.1285  157.8674 H   0  0  0  0  0  0  0  0  0  0  0  0
  152.7935  135.6365  159.0405 H   0  0  0  0  0  0  0  0  0  0  0  0
  154.4786  137.4349  159.6305 H   0  0  0  0  0  0  0  0  0  0  0  0
  153.2176  137.2346  160.8431 H   0  0  0  0  0  0  0  0  0  0  0  0
  153.1563  138.5995  159.7395 H   0  0  0  0  0  0  0  0  0  0  0  0
  148.6386  142.9970  156.7586 H   0  0  0  0  0  0  0  0  0  0  0  0
  148.3977  141.6158  157.8163 H   0  0  0  0  0  0  0  0  0  0  0  0
  1  2  1  0  0  0  0
  1 29  1  0  0  0  0
  1 30  1  0  0  0  0
  1 31  1  0  0  0  0
  2  3  1  0  0  0  0
  2 32  1  0  0  0  0
  2 33  1  0  0  0  0
  3  4  2  0  0  0  0
  3  5  1  0  0  0  0
  5  6  1  0  0  0  0
  5 34  1  0  0  0  0
  6 28  1  0  0  0  0
  6  7  1  0  0  0  0
  6 35  1  0  0  0  0
  7  8  1  0  0  0  0
  7 36  1  0  0  0  0
  7 37  1  0  0  0  0
  8  9  1  0  0  0  0
  8 38  1  0  0  0  0
  8 39  1  0  0  0  0
  9 10  1  0  0  0  0
  9 40  1  0  0  0  0
  9 41  1  0  0  0  0
 10 11  1  0  0  0  0
 10 28  1  0  0  0  0
 11 16  1  0  0  0  0
 11 12  2  0  0  0  0
 12 13  1  0  0  0  0
 13 14  2  0  0  0  0
 13 42  1  0  0  0  0
 14 15  1  0  0  0  0
 15 19  1  0  0  0  0
 15 16  2  0  0  0  0
 16 17  1  0  0  0  0
 17 18  2  0  0  0  0
 18 19  1  0  0  0  0
 18 43  1  0  0  0  0
 19 20  1  0  0  0  0
 20 21  1  0  0  0  0
 20 44  1  0  0  0  0
 20 45  1  0  0  0  0
 21 26  1  0  0  0  0
 21 22  1  0  0  0  0
 21 23  1  0  0  0  0
 22 46  1  0  0  0  0
 23 24  1  0  0  0  0
 23 47  1  0  0  0  0
 23 48  1  0  0  0  0
 24 25  1  0  0  0  0
 24 49  1  0  0  0  0
 24 50  1  0  0  0  0
 25 26  1  0  0  0  0
 26 27  1  0  0  0  0
 26 51  1  0  0  0  0
 27 52  1  0  0  0  0
 27 53  1  0  0  0  0
 27 54  1  0  0  0  0
 28 55  1  0  0  0  0
 28 56  1  0  0  0  0
M  END
> <s_m_source_file>
AV-unprocessed.smi

> <i_m_source_file_index>
252

> <i_lp_mmshare_version>
43012

> <i_f3d_flags>
0

> <s_epik_input>
W0NIM11bQ0gyXUMoPU8pW05IXVtDQEBIXTFbQ0gyXVtDSDJdW0NIMl1OKFtDSDJdMSljKG5bY0hdbjIpYyhjMjMpbltjSF1uM1tDSDJdW0NAQF00KFtPSF0pW0NIMl1bQ0gyXU9bQ0BIXTRbQ0gzXQ==

> <s_epik_cmdline>
J2VwaWtfcHl0aG9uJywgJy1waCcsICc3LjAnLCAnLXRuJywgJzgnLCAnLW1hJywgJzIwMCcsICctbWV0YWxfYmluZGluZycsICctaW1hZScsICc8aW5maWxlLm1hZT4nLCAnLW9tYWUnLCAnPG91dGZpbGUubWFlPic=

> <r_lp_tautomer_probability>
1

> <r_epik_Ionization_Penalty>
0.00182575

> <r_epik_Ionization_Penalty_Charging>
0

> <r_epik_Ionization_Penalty_Neutral>
0.00182575

> <r_epik_State_Penalty>
0.00104524

> <r_epik_Charging_Adjusted_Penalty>
0.00104524

> <i_epik_Tot_Q>
0

> <i_epik_Tot_abs_Q>
0

> <r_epik_Metal_State_Penalty>
-0

> <b_epik_Metal_Only>
0

> <s_lp_Force_Field>
OPLS_2005

> <r_lp_Energy>
35.9235

> <b_lp_Chiralities_Consistent>
1

> <s_lp_Variant>
AV-unprocessed.smi:252-8

> <Gold.Version>
5.8.1

> <Gold.Id.Protein>
6NUR|6NUR_protein|mol2

> <Gold.PLP.Fitness>
44.2906

> <Gold.PLP.PLP>
-30.7849

> <Gold.PLP.part.hbond>
-4.0000

> <Gold.PLP.part.metal>
0.0000

> <Gold.PLP.part.buried>
-4.1417

> <Gold.PLP.part.nonpolar>
-23.2501

> <Gold.PLP.part.repulsive>
0.3922

> <Gold.PLP.ligand.clash>
0.0000

> <Gold.PLP.ligand.torsion>
1.2293

> <Gold.PLP.Chemscore.Hbond>
3.6244

> <Gold.PLP.Chemscore.CHOScore>
1.5595

> <Gold.PLP.Chemscore.Metal>
0.0000

> <Gold.Chemscore.Hbonds>
donor molecule, donor type, donor heavy atom, donor atom, acceptor molecule, acceptor atom, score
      L1  H     5    34       P1  8029  1.00
      P1  H  6896  6908       L1    25  0.05
      P1  H  6934  6946       L1     4  0.99
      P1  H 10752 10765       L1    22  1.00
      L1  C    13    42       P1  7948  0.45
      L1  C    13    42       P1  7957  0.79

> <Gold.PLP.Chemscore.Internal.Correction>
0.4127

> <Gold.Rescore>
     Score         DG    S(hbond)    S(metal)    S(lipo)     H(rot)  DE(clash)    DE(int)     intcor
      8.95     -13.06       2.36        0.00      56.54       2.70       0.21       3.90       ----

> <Gold.Chemscore.Fitness>
8.9530

> <Gold.Chemscore.DG>
-13.0625

> <Gold.Chemscore.ZeroCoef>
-5.4800

> <Gold.Chemscore.Hbond>
2.3621

> <Gold.Chemscore.Metal>
0.0000

> <Gold.Chemscore.Lipo>
56.5429

> <Gold.Chemscore.Internal_Hbond>
0.0000

> <Gold.Chemscore.DEClash>
0.2090

> <Gold.Chemscore.DEInternal>
3.9005

> <Gold.Chemscore.Rot>
2.7041

> <Gold.Chemscore.Internal.Correction>
   9.000000E+99

> <Gold.Chemscore.Hbonds>
donor molecule, donor type, donor heavy atom, donor atom, acceptor molecule, acceptor atom, score
      L1  H     5    34       P1  8029  0.87
      P1  H  6934  6946       L1     4  0.89
      P1  H 10752 10765       L1    22  0.97

> <Gold.Chemscore.Hbond.Weighted>
-7.8895

> <Gold.Chemscore.Metal.Weighted>
-0.0000

> <Gold.Chemscore.Lipo.Weighted>
-6.6155

> <Gold.Chemscore.Internal_Hbond.Weighted>
0.0000

> <Gold.Chemscore.DEClash.Weighted>
0.2090

> <Gold.Chemscore.DEInternal.Weighted>
3.9005

> <Gold.Chemscore.Rot.Weighted>
6.9225

> <Gold.Chemscore.Internal.Correction.Weighted>
   9.000000E+99

> <Gold.Protein.RotatedTorsions>
[ 6907 6896 6895 6894 ] final -129.47 input  -60.11 | X-H torsion
[ 7974 7965 7964 7962 ] final  -93.80 input  175.53 | X-H torsion
[ 8008 7997 7996 7995 ] final -124.72 input   59.86 | X-H torsion
[ 10167 10162 10161 10158 ] final   83.01 input  -65.29 | X-H torsion
[ 10718 10713 10712 10709 ] final -143.09 input   66.30 | X-H torsion
[ 10763 10752 10751 10750 ] final -108.09 input  -60.55 | X-H torsion
[ 11005 11000 10999 10996 ] final  137.02 input  -57.11 | X-H torsion

> <Gold.Protein.ActiveResidues>
 VAL166  LYS551  ARG553  GLY616  TRP617  ASP618  TYR619  PRO620  LYS621  CYS622 
 ASP623  PHE694  ASN695  SER759  ASP760  ASP761  ALA762  ILE779  LEU786  VAL792 
 PHE793  MET794  SER795  GLU796  ALA797  LYS798  CYS799  TRP800  GLU811  SER814 

> <Gold.Protein.RotatedAtoms>
  150.9291  133.6788  159.2814 H   0  0  0  0  0  0  0  0  0  0  0  0  # atno 6907 bound_to 6896
  151.4216  135.0997  159.9625 H   0  0  0  0  0  0  0  0  0  0  0  0  # atno 6908 bound_to 6896
  152.5017  133.8741  159.7368 H   0  0  0  0  0  0  0  0  0  0  0  0  # atno 6909 bound_to 6896
  145.3817  140.9518  143.2390 H   0  0  0  0  0  0  0  0  0  0  0  0  # atno 7974 bound_to 7965
  155.2015  140.0416  157.2918 H   0  0  0  0  0  0  0  0  0  0  0  0  # atno 8008 bound_to 7997
  154.6072  140.2467  155.7687 H   0  0  0  0  0  0  0  0  0  0  0  0  # atno 8009 bound_to 7997
  156.2357  140.2922  156.0316 H   0  0  0  0  0  0  0  0  0  0  0  0  # atno 8010 bound_to 7997
  139.9228  144.6202  150.8423 H   0  0  0  0  0  0  0  0  0  0  0  0  # atno 10167 bound_to 10162
  156.3538  130.7702  151.1859 H   0  0  0  0  0  0  0  0  0  0  0  0  # atno 10718 bound_to 10713
  154.8115  135.4650  154.0528 H   0  0  0  0  0  0  0  0  0  0  0  0  # atno 10763 bound_to 10752
  153.1956  135.6861  153.8303 H   0  0  0  0  0  0  0  0  0  0  0  0  # atno 10764 bound_to 10752
  153.7806  135.3257  155.3342 H   0  0  0  0  0  0  0  0  0  0  0  0  # atno 10765 bound_to 10752
  140.0086  134.9449  157.0228 H   0  0  0  0  0  0  0  0  0  0  0  0  # atno 11005 bound_to 11000
  144.8503  139.5332  143.6859 LP  0  0  0  0  0  0  0  0  0  0  0  0  # atno 17320 bound_to 7965
  146.2839  139.6951  142.9209 LP  0  0  0  0  0  0  0  0  0  0  0  0  # atno 17321 bound_to 7965
  140.7658  143.3285  151.2463 LP  0  0  0  0  0  0  0  0  0  0  0  0  # atno 17342 bound_to 10162
  139.6847  143.9794  152.2828 LP  0  0  0  0  0  0  0  0  0  0  0  0  # atno 17343 bound_to 10162
  157.7465  131.0420  150.4672 LP  0  0  0  0  0  0  0  0  0  0  0  0  # atno 17370 bound_to 10713
  156.4872  130.4087  149.6427 LP  0  0  0  0  0  0  0  0  0  0  0  0  # atno 17371 bound_to 10713
  140.4596  134.1497  155.7190 LP  0  0  0  0  0  0  0  0  0  0  0  0  # atno 17394 bound_to 11000
  141.1694  133.8638  157.1615 LP  0  0  0  0  0  0  0  0  0  0  0  0  # atno 17395 bound_to 11000

$$$$
