AV-unprocessed.smi:2449|AV-procd|sdf|9663|dock1
  -GOLD-   2272013303D 1   1.00000     0.00000
 Structure written by MMmdl.
 37 37  0  0  0  0  0  0  0  0  1 V2000
  153.3182  141.9717  161.8097 C   0  0  0  0  0  0  0  0  0  0  0  0
  152.7317  143.0551  160.8988 C   0  0  0  0  0  0  0  0  0  0  0  0
  152.2518  142.4872  159.5471 C   0  0  0  0  0  0  0  0  0  0  0  0
  151.6403  143.5174  158.5560 C   0  0  0  0  0  0  0  0  0  0  0  0
  150.3056  144.0586  159.1052 C   0  0  0  0  0  0  0  0  0  0  0  0
  152.6040  144.7118  158.3833 C   0  0  0  0  0  0  0  0  0  0  0  0
  151.3516  142.9088  157.2508 N   0  0  0  0  0  0  0  0  0  0  0  0
  150.3679  142.0497  156.9293 C   0  0  0  0  0  0  0  0  0  0  0  0
  149.5551  141.6040  157.7399 O   0  0  0  0  0  0  0  0  0  0  0  0
  150.3053  141.6221  155.4566 C   0  0  0  0  0  0  0  0  0  0  0  0
  150.5910  140.1918  155.2712 N   0  0  0  0  0  0  0  0  0  0  0  0
  149.7450  139.3992  154.5085 C   0  0  0  0  0  0  0  0  0  0  0  0
  149.9577  138.0802  154.2873 C   0  0  0  0  0  0  0  0  0  0  0  0
  151.1230  137.4135  154.8586 C   0  0  0  0  0  0  0  0  0  0  0  0
  151.4007  136.2249  154.7165 O   0  0  0  0  0  0  0  0  0  0  0  0
  151.9510  138.2449  155.6176 N   0  0  0  0  0  0  0  0  0  0  0  0
  151.7380  139.6045  155.8492 C   0  0  0  0  0  0  0  0  0  0  0  0
  152.5339  140.2474  156.5333 O   0  0  0  0  0  0  0  0  0  0  0  0
  152.7726  137.8277  156.0306 H   0  0  0  0  0  0  0  0  0  0  0  0
  153.6530  142.4000  162.7548 H   0  0  0  0  0  0  0  0  0  0  0  0
  154.1745  141.4849  161.3422 H   0  0  0  0  0  0  0  0  0  0  0  0
  152.5772  141.2046  162.0363 H   0  0  0  0  0  0  0  0  0  0  0  0
  151.9068  143.5389  161.4218 H   0  0  0  0  0  0  0  0  0  0  0  0
  153.4878  143.8228  160.7374 H   0  0  0  0  0  0  0  0  0  0  0  0
  153.0890  141.9833  159.0620 H   0  0  0  0  0  0  0  0  0  0  0  0
  151.5248  141.6993  159.7459 H   0  0  0  0  0  0  0  0  0  0  0  0
  150.4312  144.4939  160.0973 H   0  0  0  0  0  0  0  0  0  0  0  0
  149.5481  143.2785  159.1815 H   0  0  0  0  0  0  0  0  0  0  0  0
  149.8985  144.8361  158.4576 H   0  0  0  0  0  0  0  0  0  0  0  0
  152.7521  145.2356  159.3283 H   0  0  0  0  0  0  0  0  0  0  0  0
  152.2161  145.4362  157.6661 H   0  0  0  0  0  0  0  0  0  0  0  0
  153.5888  144.4002  158.0351 H   0  0  0  0  0  0  0  0  0  0  0  0
  151.9603  143.1947  156.4976 H   0  0  0  0  0  0  0  0  0  0  0  0
  149.3273  141.8624  155.0342 H   0  0  0  0  0  0  0  0  0  0  0  0
  151.0185  142.2304  154.8988 H   0  0  0  0  0  0  0  0  0  0  0  0
  148.8712  139.8512  154.0612 H   0  0  0  0  0  0  0  0  0  0  0  0
  149.2623  137.5155  153.6833 H   0  0  0  0  0  0  0  0  0  0  0  0
  1  2  1  0  0  0  0
  1 20  1  0  0  0  0
  1 21  1  0  0  0  0
  1 22  1  0  0  0  0
  2  3  1  0  0  0  0
  2 23  1  0  0  0  0
  2 24  1  0  0  0  0
  3  4  1  0  0  0  0
  3 25  1  0  0  0  0
  3 26  1  0  0  0  0
  4  5  1  0  0  0  0
  4  6  1  0  0  0  0
  4  7  1  0  0  0  0
  5 27  1  0  0  0  0
  5 28  1  0  0  0  0
  5 29  1  0  0  0  0
  6 30  1  0  0  0  0
  6 31  1  0  0  0  0
  6 32  1  0  0  0  0
  7  8  1  0  0  0  0
  7 33  1  0  0  0  0
  8  9  2  0  0  0  0
  8 10  1  0  0  0  0
 10 11  1  0  0  0  0
 10 34  1  0  0  0  0
 10 35  1  0  0  0  0
 11 17  1  0  0  0  0
 11 12  1  0  0  0  0
 12 13  2  0  0  0  0
 12 36  1  0  0  0  0
 13 14  1  0  0  0  0
 13 37  1  0  0  0  0
 14 15  2  0  0  0  0
 14 16  1  0  0  0  0
 16 19  1  0  0  0  0
 16 17  1  0  0  0  0
 17 18  2  0  0  0  0
M  END
> <s_m_source_file>
AV-unprocessed.smi

> <i_m_source_file_index>
2449

> <i_lp_mmshare_version>
43012

> <i_f3d_flags>
0

> <s_epik_input>
W0NIM11bQ0gyXVtDSDJdQyhbQ0gzXSkoW0NIM10pW05IXUMoPU8pW0NIMl1uMVtjSF1bY0hdYyg9TylbbkhdYzE9Tw==

> <s_epik_cmdline>
J2VwaWtfcHl0aG9uJywgJy1waCcsICc3LjAnLCAnLXRuJywgJzgnLCAnLW1hJywgJzIwMCcsICctbWV0YWxfYmluZGluZycsICctaW1hZScsICc8aW5maWxlLm1hZT4nLCAnLW9tYWUnLCAnPG91dGZpbGUubWFlPic=

> <r_lp_tautomer_probability>
0.999537

> <r_epik_Ionization_Penalty>
0.00292856

> <r_epik_Ionization_Penalty_Charging>
0.00292854

> <r_epik_Ionization_Penalty_Neutral>
1.95902e-08

> <r_epik_State_Penalty>
0.00205284

> <r_epik_Charging_Adjusted_Penalty>
0.00498138

> <i_epik_Tot_Q>
0

> <i_epik_Tot_abs_Q>
0

> <r_epik_Metal_State_Penalty>
0.360056

> <b_epik_Metal_Only>
0

> <s_lp_Force_Field>
OPLS_2005

> <r_lp_Energy>
5.67084

> <b_lp_Chiralities_Consistent>
1

> <s_lp_Variant>
AV-unprocessed.smi:2449-1

> <Gold.Version>
5.8.1

> <Gold.Id.Protein>
6NUR|6NUR_protein|mol2

> <Gold.PLP.Fitness>
43.7311

> <Gold.PLP.PLP>
-38.5118

> <Gold.PLP.part.hbond>
-2.0000

> <Gold.PLP.part.metal>
0.0000

> <Gold.PLP.part.buried>
-3.0737

> <Gold.PLP.part.nonpolar>
-33.9163

> <Gold.PLP.part.repulsive>
0.3650

> <Gold.PLP.ligand.clash>
0.0000

> <Gold.PLP.ligand.torsion>
0.4088

> <Gold.PLP.Chemscore.Hbond>
2.0000

> <Gold.PLP.Chemscore.CHOScore>
0.0000

> <Gold.PLP.Chemscore.Metal>
0.0000

> <Gold.Chemscore.Hbonds>
donor molecule, donor type, donor heavy atom, donor atom, acceptor molecule, acceptor atom, score
      P1  H  7997  8009       L1    18  1.00
      P1  H 10752 10764       L1    15  1.00

> <Gold.PLP.Chemscore.Internal.Correction>
0.0370

> <Gold.Rescore>
     Score         DG    S(hbond)    S(metal)    S(lipo)     H(rot)  DE(clash)    DE(int)     intcor
     13.69     -16.34       1.93        0.00      84.48       2.14       0.62       2.04       ----

> <Gold.Chemscore.Fitness>
13.6874

> <Gold.Chemscore.DG>
-16.3435

> <Gold.Chemscore.ZeroCoef>
-5.4800

> <Gold.Chemscore.Hbond>
1.9333

> <Gold.Chemscore.Metal>
0.0000

> <Gold.Chemscore.Lipo>
84.4776

> <Gold.Chemscore.Internal_Hbond>
0.0000

> <Gold.Chemscore.DEClash>
0.6193

> <Gold.Chemscore.DEInternal>
2.0368

> <Gold.Chemscore.Rot>
2.1397

> <Gold.Chemscore.Internal.Correction>
   9.000000E+99

> <Gold.Chemscore.Hbonds>
donor molecule, donor type, donor heavy atom, donor atom, acceptor molecule, acceptor atom, score
      P1  H  7997  8009       L1    18  0.96
      P1  H 10752 10764       L1    15  1.00

> <Gold.Chemscore.Hbond.Weighted>
-6.4573

> <Gold.Chemscore.Metal.Weighted>
-0.0000

> <Gold.Chemscore.Lipo.Weighted>
-9.8839

> <Gold.Chemscore.Internal_Hbond.Weighted>
0.0000

> <Gold.Chemscore.DEClash.Weighted>
0.6193

> <Gold.Chemscore.DEInternal.Weighted>
2.0368

> <Gold.Chemscore.Rot.Weighted>
5.4777

> <Gold.Chemscore.Internal.Correction.Weighted>
   9.000000E+99

> <Gold.Protein.RotatedTorsions>
[ 6907 6896 6895 6894 ] final -104.99 input  -60.11 | X-H torsion
[ 7974 7965 7964 7962 ] final  123.46 input  175.53 | X-H torsion
[ 8008 7997 7996 7995 ] final -159.69 input   59.86 | X-H torsion
[ 10167 10162 10161 10158 ] final  166.71 input  -65.29 | X-H torsion
[ 10718 10713 10712 10709 ] final  157.60 input   66.30 | X-H torsion
[ 10763 10752 10751 10750 ] final  -65.78 input  -60.55 | X-H torsion
[ 11005 11000 10999 10996 ] final -113.15 input  -57.11 | X-H torsion

> <Gold.Protein.ActiveResidues>
 VAL166  LYS551  ARG553  GLY616  TRP617  ASP618  TYR619  PRO620  LYS621  CYS622 
 ASP623  PHE694  ASN695  SER759  ASP760  ASP761  ALA762  ILE779  LEU786  VAL792 
 PHE793  MET794  SER795  GLU796  ALA797  LYS798  CYS799  TRP800  GLU811  SER814 

> <Gold.Protein.RotatedAtoms>
  150.7314  134.0194  159.3695 H   0  0  0  0  0  0  0  0  0  0  0  0  # atno 6907 bound_to 6896
  151.8158  135.0665  160.0428 H   0  0  0  0  0  0  0  0  0  0  0  0  # atno 6908 bound_to 6896
  152.3040  133.5648  159.5673 H   0  0  0  0  0  0  0  0  0  0  0  0  # atno 6909 bound_to 6896
  145.0957  139.3555  143.4838 H   0  0  0  0  0  0  0  0  0  0  0  0  # atno 7974 bound_to 7965
  155.7663  140.0846  157.2130 H   0  0  0  0  0  0  0  0  0  0  0  0  # atno 8008 bound_to 7997
  154.3999  140.1533  156.2947 H   0  0  0  0  0  0  0  0  0  0  0  0  # atno 8009 bound_to 7997
  155.8790  140.3421  155.5877 H   0  0  0  0  0  0  0  0  0  0  0  0  # atno 8010 bound_to 7997
  139.4930  144.3998  151.9422 H   0  0  0  0  0  0  0  0  0  0  0  0  # atno 10167 bound_to 10162
  157.1893  131.0651  151.2088 H   0  0  0  0  0  0  0  0  0  0  0  0  # atno 10718 bound_to 10713
  154.3501  135.6138  153.5638 H   0  0  0  0  0  0  0  0  0  0  0  0  # atno 10763 bound_to 10752
  152.9799  135.5790  154.4753 H   0  0  0  0  0  0  0  0  0  0  0  0  # atno 10764 bound_to 10752
  154.4473  135.2852  155.1783 H   0  0  0  0  0  0  0  0  0  0  0  0  # atno 10765 bound_to 10752
  141.0632  133.9501  157.2628 H   0  0  0  0  0  0  0  0  0  0  0  0  # atno 11005 bound_to 11000
  146.3531  140.0811  142.8617 LP  0  0  0  0  0  0  0  0  0  0  0  0  # atno 17320 bound_to 7965
  145.1014  140.9348  143.4710 LP  0  0  0  0  0  0  0  0  0  0  0  0  # atno 17321 bound_to 7965
  140.3437  144.3172  150.5962 LP  0  0  0  0  0  0  0  0  0  0  0  0  # atno 17342 bound_to 10162
  140.5544  143.2201  151.7872 LP  0  0  0  0  0  0  0  0  0  0  0  0  # atno 17343 bound_to 10162
  157.3877  130.7265  149.6675 LP  0  0  0  0  0  0  0  0  0  0  0  0  # atno 17370 bound_to 10713
  155.9714  130.4155  150.4185 LP  0  0  0  0  0  0  0  0  0  0  0  0  # atno 17371 bound_to 10713
  139.9452  135.0185  156.8829 LP  0  0  0  0  0  0  0  0  0  0  0  0  # atno 17394 bound_to 11000
  140.5826  134.0337  155.7470 LP  0  0  0  0  0  0  0  0  0  0  0  0  # atno 17395 bound_to 11000

$$$$
