AV-unprocessed.smi:136|AV-procd|sdf|1172|dock7
  -GOLD-   2262018323D 1   1.00000     0.00000
 Structure written by MMmdl.
 54 58  0  0  0  0  0  0  0  0  1 V2000
  149.6051  138.1547  159.5650 O   0  0  0  0  0  0  0  0  0  0  0  0
  150.0106  137.2130  158.8810 C   0  0  0  0  0  0  0  0  0  0  0  0
  151.5016  137.1340  158.4880 C   0  0  0  0  0  0  0  0  0  0  0  0
  152.3329  138.1893  159.1071 N   0  0  0  0  0  0  0  0  0  0  0  0
  153.2661  137.8206  160.1073 C   0  0  0  0  0  0  0  0  0  0  0  0
  153.3959  136.6472  160.4588 O   0  0  0  0  0  0  0  0  0  0  0  0
  154.0406  138.9159  160.6798 C   0  0  0  0  0  0  0  0  0  0  0  0
  154.9647  138.6565  161.6205 F   0  0  0  0  0  0  0  0  0  0  0  0
  153.8472  140.1889  160.2779 C   0  0  0  0  0  0  0  0  0  0  0  0
  152.9148  140.5381  159.3168 N   0  0  0  0  0  0  0  0  0  0  0  0
  152.7092  141.9731  158.8757 C   0  0  1  0  0  0  0  0  0  0  0  0
  151.2366  142.3936  159.0547 C   0  0  0  0  0  0  0  0  0  0  0  0
  151.3438  143.6623  159.8780 C   0  0  0  0  0  0  0  0  0  0  0  0
  152.6344  143.4318  160.6490 C   0  0  0  0  0  0  0  0  0  0  0  0
  153.4749  142.8310  159.6731 O   0  0  0  0  0  0  0  0  0  0  0  0
  152.1404  139.5310  158.7004 C   0  0  0  0  0  0  0  0  0  0  0  0
  151.3119  139.8198  157.8338 O   0  0  0  0  0  0  0  0  0  0  0  0
  149.1831  136.2350  158.4498 N   0  0  0  0  0  0  0  0  0  0  0  0
  149.5777  135.2448  157.6106 N   0  0  0  0  0  0  0  0  0  0  0  0
  148.5650  134.5390  157.2668 C   0  0  0  0  0  0  0  0  0  0  0  0
  148.6273  133.3719  156.3596 C   0  0  0  0  0  0  0  0  0  0  0  0
  149.8010  133.1396  155.6071 C   0  0  0  0  0  0  0  0  0  0  0  0
  149.8611  132.0292  154.7425 C   0  0  0  0  0  0  0  0  0  0  0  0
  148.7584  131.1587  154.6299 C   0  0  0  0  0  0  0  0  0  0  0  0
  148.8382  129.8008  153.5684 Cl  0  0  0  0  0  0  0  0  0  0  0  0
  147.5905  131.3955  155.3823 C   0  0  0  0  0  0  0  0  0  0  0  0
  147.5183  132.5030  156.2500 C   0  0  0  0  0  0  0  0  0  0  0  0
  147.2807  134.9928  157.8748 C   0  0  0  0  0  0  0  0  0  0  0  0
  147.7455  136.1663  158.7412 C   0  0  1  0  0  0  0  0  0  0  0  0
  147.4451  135.9729  160.1984 C   0  0  0  0  0  0  0  0  0  0  0  0
  146.9635  134.9191  160.9247 C   0  0  0  0  0  0  0  0  0  0  0  0
  146.9147  135.3528  162.2784 C   0  0  0  0  0  0  0  0  0  0  0  0
  147.3763  136.6381  162.2789 C   0  0  0  0  0  0  0  0  0  0  0  0
  147.7085  137.0302  161.0195 O   0  0  0  0  0  0  0  0  0  0  0  0
  151.8778  136.1433  158.7482 H   0  0  0  0  0  0  0  0  0  0  0  0
  151.5835  137.1720  157.4005 H   0  0  0  0  0  0  0  0  0  0  0  0
  154.4572  140.9504  160.7390 H   0  0  0  0  0  0  0  0  0  0  0  0
  153.0653  142.0151  157.8449 H   0  0  0  0  0  0  0  0  0  0  0  0
  150.7555  142.5502  158.0889 H   0  0  0  0  0  0  0  0  0  0  0  0
  150.6867  141.6280  159.6045 H   0  0  0  0  0  0  0  0  0  0  0  0
  151.4504  144.5277  159.2228 H   0  0  0  0  0  0  0  0  0  0  0  0
  150.4821  143.8261  160.5257 H   0  0  0  0  0  0  0  0  0  0  0  0
  153.0656  144.3541  161.0381 H   0  0  0  0  0  0  0  0  0  0  0  0
  152.4727  142.7467  161.4822 H   0  0  0  0  0  0  0  0  0  0  0  0
  150.6574  133.7943  155.6804 H   0  0  0  0  0  0  0  0  0  0  0  0
  150.7557  131.8463  154.1656 H   0  0  0  0  0  0  0  0  0  0  0  0
  146.7466  130.7269  155.2942 H   0  0  0  0  0  0  0  0  0  0  0  0
  146.6116  132.6637  156.8141 H   0  0  0  0  0  0  0  0  0  0  0  0
  146.5735  135.3161  157.1100 H   0  0  0  0  0  0  0  0  0  0  0  0
  146.8215  134.1976  158.4640 H   0  0  0  0  0  0  0  0  0  0  0  0
  147.2729  137.0859  158.3913 H   0  0  0  0  0  0  0  0  0  0  0  0
  146.6787  133.9554  160.5291 H   0  0  0  0  0  0  0  0  0  0  0  0
  146.5851  134.7952  163.1426 H   0  0  0  0  0  0  0  0  0  0  0  0
  147.5280  137.3811  163.0480 H   0  0  0  0  0  0  0  0  0  0  0  0
  1  2  2  0  0  0  0
  2  3  1  0  0  0  0
  2 18  1  0  0  0  0
  3  4  1  0  0  0  0
  3 35  1  0  0  0  0
  3 36  1  0  0  0  0
  4 16  1  0  0  0  0
  4  5  1  0  0  0  0
  5  6  2  0  0  0  0
  5  7  1  0  0  0  0
  7  8  1  0  0  0  0
  7  9  2  0  0  0  0
  9 10  1  0  0  0  0
  9 37  1  0  0  0  0
 10 11  1  0  0  0  0
 10 16  1  0  0  0  0
 11 15  1  0  0  0  0
 11 12  1  0  0  0  0
 11 38  1  0  0  0  0
 12 13  1  0  0  0  0
 12 39  1  0  0  0  0
 12 40  1  0  0  0  0
 13 14  1  0  0  0  0
 13 41  1  0  0  0  0
 13 42  1  0  0  0  0
 14 15  1  0  0  0  0
 14 43  1  0  0  0  0
 14 44  1  0  0  0  0
 16 17  2  0  0  0  0
 18 29  1  0  0  0  0
 18 19  1  0  0  0  0
 19 20  2  0  0  0  0
 20 21  1  0  0  0  0
 20 28  1  0  0  0  0
 21 27  1  0  0  0  0
 21 22  2  0  0  0  0
 22 23  1  0  0  0  0
 22 45  1  0  0  0  0
 23 24  2  0  0  0  0
 23 46  1  0  0  0  0
 24 25  1  0  0  0  0
 24 26  1  0  0  0  0
 26 27  2  0  0  0  0
 26 47  1  0  0  0  0
 27 48  1  0  0  0  0
 28 29  1  0  0  0  0
 28 49  1  0  0  0  0
 28 50  1  0  0  0  0
 29 30  1  0  0  0  0
 29 51  1  0  0  0  0
 30 34  1  0  0  0  0
 30 31  2  0  0  0  0
 31 32  1  0  0  0  0
 31 52  1  0  0  0  0
 32 33  2  0  0  0  0
 32 53  1  0  0  0  0
 33 34  1  0  0  0  0
 33 54  1  0  0  0  0
M  END
> <s_m_source_file>
AV-unprocessed.smi

> <i_m_source_file_index>
136

> <i_lp_mmshare_version>
43012

> <i_f3d_flags>
0

> <s_epik_input>
bzFbY0hdW2NIXVtjSF1jMVtDQEBIXTJbQ0gyXUMoYzNbY0hdW2NIXWMoQ2wpW2NIXVtjSF0zKT1OTjJDKD1PKVtDSDJdbjRjKD1PKWMoRilbY0hdbihjND1PKVtDQEBIXTVbQ0gyXVtDSDJdW0NIMl1PNQ==

> <s_epik_cmdline>
J2VwaWtfcHl0aG9uJywgJy1waCcsICc3LjAnLCAnLXRuJywgJzgnLCAnLW1hJywgJzIwMCcsICctbWV0YWxfYmluZGluZycsICctaW1hZScsICc8aW5maWxlLm1hZT4nLCAnLW9tYWUnLCAnPG91dGZpbGUubWFlPic=

> <r_lp_tautomer_probability>
1

> <r_epik_Ionization_Penalty>
2.55467e-08

> <r_epik_Ionization_Penalty_Charging>
4.85705e-09

> <r_epik_Ionization_Penalty_Neutral>
2.06897e-08

> <r_epik_State_Penalty>
-0

> <r_epik_Charging_Adjusted_Penalty>
4.85705e-09

> <i_epik_Tot_Q>
0

> <i_epik_Tot_abs_Q>
0

> <r_epik_Metal_State_Penalty>
-0

> <b_epik_Metal_Only>
0

> <s_epik_Chemistry_Notes>
This compound has an imine and may undergo hydrolysis. This compound contains an acetal/aminal-like group ( X-CH(R)-Y where X, Y are N, S, or O) that may be acid/base labile, releasing an aldehyde.

> <s_lp_Force_Field>
OPLS_2005

> <r_lp_Energy>
41.711

> <b_lp_Chiralities_Consistent>
1

> <s_lp_Variant>
AV-unprocessed.smi:136-2

> <Gold.Version>
5.8.1

> <Gold.Id.Protein>
6NUR|6NUR_protein|mol2

> <Gold.PLP.Fitness>
55.2417

> <Gold.PLP.PLP>
-49.3823

> <Gold.PLP.part.hbond>
-4.8374

> <Gold.PLP.part.metal>
0.0000

> <Gold.PLP.part.buried>
-6.0209

> <Gold.PLP.part.nonpolar>
-39.5182

> <Gold.PLP.part.repulsive>
0.0000

> <Gold.PLP.ligand.clash>
0.0000

> <Gold.PLP.ligand.torsion>
0.3739

> <Gold.PLP.Chemscore.Hbond>
2.1786

> <Gold.PLP.Chemscore.CHOScore>
0.0000

> <Gold.PLP.Chemscore.Metal>
0.0000

> <Gold.Chemscore.Hbonds>
donor molecule, donor type, donor heavy atom, donor atom, acceptor molecule, acceptor atom, score
      P1  H  6896  6908       L1    19  0.09
      P1  H  6896  6909       L1     6  0.80
      P1  H  6931  6943       L1    34  0.29
      P1  H  6934  6947       L1    34  0.84

> <Gold.PLP.Chemscore.Internal.Correction>
0.0714

> <Gold.Rescore>
     Score         DG    S(hbond)    S(metal)    S(lipo)     H(rot)  DE(clash)    DE(int)     intcor
     15.70     -19.64       1.73        0.00     111.29       1.81       0.32       3.62       ----

> <Gold.Chemscore.Fitness>
15.7040

> <Gold.Chemscore.DG>
-19.6422

> <Gold.Chemscore.ZeroCoef>
-5.4800

> <Gold.Chemscore.Hbond>
1.7258

> <Gold.Chemscore.Metal>
0.0000

> <Gold.Chemscore.Lipo>
111.2861

> <Gold.Chemscore.Internal_Hbond>
0.0000

> <Gold.Chemscore.DEClash>
0.3177

> <Gold.Chemscore.DEInternal>
3.6206

> <Gold.Chemscore.Rot>
1.8056

> <Gold.Chemscore.Internal.Correction>
   9.000000E+99

> <Gold.Chemscore.Hbonds>
donor molecule, donor type, donor heavy atom, donor atom, acceptor molecule, acceptor atom, score
      P1  H  6896  6909       L1     6  0.79
      P1  H  6934  6947       L1    34  0.39

> <Gold.Chemscore.Hbond.Weighted>
-5.7641

> <Gold.Chemscore.Metal.Weighted>
-0.0000

> <Gold.Chemscore.Lipo.Weighted>
-13.0205

> <Gold.Chemscore.Internal_Hbond.Weighted>
0.0000

> <Gold.Chemscore.DEClash.Weighted>
0.3177

> <Gold.Chemscore.DEInternal.Weighted>
3.6206

> <Gold.Chemscore.Rot.Weighted>
4.6223

> <Gold.Chemscore.Internal.Correction.Weighted>
   9.000000E+99

> <Gold.Protein.RotatedTorsions>
[ 6907 6896 6895 6894 ] final  157.21 input  -60.11 | X-H torsion
[ 7974 7965 7964 7962 ] final  177.44 input  175.53 | X-H torsion
[ 8008 7997 7996 7995 ] final   26.23 input   59.86 | X-H torsion
[ 10167 10162 10161 10158 ] final -173.96 input  -65.29 | X-H torsion
[ 10718 10713 10712 10709 ] final  119.00 input   66.30 | X-H torsion
[ 10763 10752 10751 10750 ] final -102.32 input  -60.55 | X-H torsion
[ 11005 11000 10999 10996 ] final -103.68 input  -57.11 | X-H torsion

> <Gold.Protein.ActiveResidues>
 VAL166  LYS551  ARG553  GLY616  TRP617  ASP618  TYR619  PRO620  LYS621  CYS622 
 ASP623  PHE694  ASN695  SER759  ASP760  ASP761  ALA762  ILE779  LEU786  VAL792 
 PHE793  MET794  SER795  GLU796  ALA797  LYS798  CYS799  TRP800  GLU811  SER814 

> <Gold.Protein.RotatedAtoms>
  152.0184  133.3889  159.4247 H   0  0  0  0  0  0  0  0  0  0  0  0  # atno 6907 bound_to 6896
  150.6892  134.3653  159.4977 H   0  0  0  0  0  0  0  0  0  0  0  0  # atno 6908 bound_to 6896
  152.1423  134.9052  160.0603 H   0  0  0  0  0  0  0  0  0  0  0  0  # atno 6909 bound_to 6896
  144.7169  140.0247  143.6439 H   0  0  0  0  0  0  0  0  0  0  0  0  # atno 7974 bound_to 7965
  155.0241  140.3151  155.4782 H   0  0  0  0  0  0  0  0  0  0  0  0  # atno 8008 bound_to 7997
  156.2886  140.2192  156.5302 H   0  0  0  0  0  0  0  0  0  0  0  0  # atno 8009 bound_to 7997
  154.7427  140.0472  157.0813 H   0  0  0  0  0  0  0  0  0  0  0  0  # atno 8010 bound_to 7997
  139.5659  144.1756  152.1312 H   0  0  0  0  0  0  0  0  0  0  0  0  # atno 10167 bound_to 10162
  157.5992  131.1053  150.7835 H   0  0  0  0  0  0  0  0  0  0  0  0  # atno 10718 bound_to 10713
  154.7725  135.4865  153.9677 H   0  0  0  0  0  0  0  0  0  0  0  0  # atno 10763 bound_to 10752
  153.1385  135.6768  153.9071 H   0  0  0  0  0  0  0  0  0  0  0  0  # atno 10764 bound_to 10752
  153.8753  135.3138  155.3422 H   0  0  0  0  0  0  0  0  0  0  0  0  # atno 10765 bound_to 10752
  141.1135  133.8660  157.1516 H   0  0  0  0  0  0  0  0  0  0  0  0  # atno 11005 bound_to 11000
  146.0152  139.3203  143.0846 LP  0  0  0  0  0  0  0  0  0  0  0  0  # atno 17320 bound_to 7965
  145.8635  140.9462  143.0688 LP  0  0  0  0  0  0  0  0  0  0  0  0  # atno 17321 bound_to 7965
  140.1279  144.5315  150.6821 LP  0  0  0  0  0  0  0  0  0  0  0  0  # atno 17342 bound_to 10162
  140.6943  143.2394  151.5045 LP  0  0  0  0  0  0  0  0  0  0  0  0  # atno 17343 bound_to 10162
  156.8238  130.4993  149.5340 LP  0  0  0  0  0  0  0  0  0  0  0  0  # atno 17370 bound_to 10713
  156.1061  130.6005  150.9973 LP  0  0  0  0  0  0  0  0  0  0  0  0  # atno 17371 bound_to 10713
  140.0043  135.0015  157.0257 LP  0  0  0  0  0  0  0  0  0  0  0  0  # atno 17394 bound_to 11000
  140.4710  134.1386  155.7203 LP  0  0  0  0  0  0  0  0  0  0  0  0  # atno 17395 bound_to 11000

$$$$
