#       Name:                AV-unprocessed.smi:1703
#       Creating user name   scv26
#       Creation time:       Fri Mar 27 08:07:23 2020


#       File generated by GOLD software.
#

@<TRIPOS>MOLECULE
AV-unprocessed.smi:1703
    56    58     1
SMALL
NO_CHARGES


@<TRIPOS>ATOM
      1 ****        -5.4191   2.4972  -0.7058 C.3            1 S1                 0.0000
      2 ****        -3.9554   2.3896  -0.2646 C.3            1 S1                 0.0000
      3 ****        -3.4534   0.9343  -0.2773 C.3            1 S1                 0.0000
      4 ****        -2.0669   0.8628   0.2372 N.4            1 S1                 1.0000
      5 ****        -1.4861  -0.5001   0.1331 C.3            1 S1                 0.0000
      6 ****         0.0548  -0.4830   0.0893 C.3            1 S1                 0.0000
      7 ****         0.4705   0.2060  -1.0747 O.3            1 S1                 0.0000
      8 ****         0.6443  -1.9075   0.0846 C.3            1 S1                 0.0000
      9 ****         2.1171  -1.9142   0.0729 N.pl3          1 S1                 0.0000
     10 ****         3.0011  -1.7748   1.1035 C.2            1 S1                 0.0000
     11 ****         2.6639  -1.5740   2.5471 C.3            1 S1                 0.0000
     12 ****         3.7434  -1.8484   3.4150 O.3            1 S1                 0.0000
     13 ****         4.2545  -1.8359   0.5697 N.pl3          1 S1                 1.0000
     14 ****         4.1742  -2.0206  -0.8104 C.ar           1 S1                 0.0000
     15 ****         5.1731  -2.1394  -1.7716 C.ar           1 S1                 0.0000
     16 ****         4.7503  -2.3169  -3.1051 C.ar           1 S1                 0.0000
     17 ****         3.3818  -2.3705  -3.4395 C.ar           1 S1                 0.0000
     18 ****         2.3781  -2.2491  -2.4559 C.ar           1 S1                 0.0000
     19 ****         2.8036  -2.0738  -1.1386 C.ar           1 S1                 0.0000
     20 ****        -1.9952   1.4405   1.6016 C.3            1 S1                 0.0000
     21 ****        -2.5445   2.8805   1.6204 C.3            1 S1                 0.0000
     22 ****        -1.5998   3.9049   0.9669 C.3            1 S1                 0.0000
     23 ****        -3.8558   2.9149   1.0566 O.3            1 S1                 0.0000
     24 ****        -5.5538   2.1159  -1.7181 H              1 S1                 0.0000
     25 ****        -5.7537   3.5349  -0.6952 H              1 S1                 0.0000
     26 ****        -6.0745   1.9299  -0.0443 H              1 S1                 0.0000
     27 ****        -3.3530   2.9902  -0.9464 H              1 S1                 0.0000
     28 ****        -4.1013   0.3005   0.3308 H              1 S1                 0.0000
     29 ****        -3.4896   0.5468  -1.2964 H              1 S1                 0.0000
     30 ****        -1.8402  -1.1066   0.9683 H              1 S1                 0.0000
     31 ****        -1.8520  -0.9879  -0.7719 H              1 S1                 0.0000
     32 ****         0.4502   0.0497   0.9536 H              1 S1                 0.0000
     33 ****         0.1709  -0.2707  -1.8336 H              1 S1                 0.0000
     34 ****         0.3256  -2.4434   0.9790 H              1 S1                 0.0000
     35 ****         0.2711  -2.4890  -0.7583 H              1 S1                 0.0000
     36 ****         2.3443  -0.5424   2.6953 H              1 S1                 0.0000
     37 ****         1.8267  -2.2159   2.8208 H              1 S1                 0.0000
     38 ****         3.9321  -2.7740   3.3796 H              1 S1                 0.0000
     39 ****         6.2223  -2.0976  -1.5179 H              1 S1                 0.0000
     40 ****         5.4900  -2.4131  -3.8868 H              1 S1                 0.0000
     41 ****         3.0958  -2.5068  -4.4724 H              1 S1                 0.0000
     42 ****         1.3347  -2.2896  -2.7295 H              1 S1                 0.0000
     43 ****        -2.5796   0.8189   2.2818 H              1 S1                 0.0000
     44 ****        -0.9717   1.4350   1.9749 H              1 S1                 0.0000
     45 ****        -2.6578   3.1782   2.6633 H              1 S1                 0.0000
     46 ****        -0.6502   3.9490   1.5005 H              1 S1                 0.0000
     47 ****        -2.0351   4.9044   0.9885 H              1 S1                 0.0000
     48 ****        -1.3748   3.6597  -0.0706 H              1 S1                 0.0000
     49 ****        -1.5117   1.4543  -0.3650 H              1 S1                 0.0000
     50 ****         5.1025  -1.7525   1.1159 H              1 S1                 0.0000
     51 ****         1.4684   0.2691  -1.0897 LP             1 S1                 0.0000
     52 ****         0.0782   1.1258  -1.0790 LP             1 S1                 0.0000
     53 ****         3.4981  -1.5903   4.3495 LP             1 S1                 0.0000
     54 ****         4.5479  -1.3295   3.1261 LP             1 S1                 0.0000
     55 ****        -4.4624   2.3840   1.6484 LP             1 S1                 0.0000
     56 ****        -4.1601   3.8673   1.0359 LP             1 S1                 0.0000
@<TRIPOS>BOND
    1    1    2 1     
    2    1   24 1     
    3    1   25 1     
    4    1   26 1     
    5    2   23 1     
    6    2    3 1     
    7    2   27 1     
    8    3    4 1     
    9    3   28 1     
   10    3   29 1     
   11    4    5 1     
   12    4   20 1     
   13    4   49 1     
   14    5    6 1     
   15    5   30 1     
   16    5   31 1     
   17    6    7 1     
   18    6    8 1     
   19    6   32 1     
   20    7   33 1     
   21    8    9 1     
   22    8   34 1     
   23    8   35 1     
   24    9   19 1     
   25    9   10 1     
   26   10   11 1     
   27   10   13 2     
   28   11   12 1     
   29   11   36 1     
   30   11   37 1     
   31   12   38 1     
   32   13   14 1     
   33   13   50 1     
   34   14   19 ar    
   35   14   15 ar    
   36   15   16 ar    
   37   15   39 1     
   38   16   17 ar    
   39   16   40 1     
   40   17   18 ar    
   41   17   41 1     
   42   18   19 ar    
   43   18   42 1     
   44   20   21 1     
   45   20   43 1     
   46   20   44 1     
   47   21   22 1     
   48   21   23 1     
   49   21   45 1     
   50   22   46 1     
   51   22   47 1     
   52   22   48 1     
   53    7   51 1     
   54    7   52 1     
   55   12   53 1     
   56   12   54 1     
   57   23   55 1     
   58   23   56 1     
@<TRIPOS>SUBSTRUCTURE
      1 S1             1
@<TRIPOS>SET
LONE_PAIRS      STATIC     ATOMS    <user>   **** ""
6 51 52 53 54 55 56
DONOR_HYDROGENS      STATIC     ATOMS    <user>   **** ""
4 49 33 38 50
ATOM$BLUE        STATIC     ATOMS    COLORGROUP SYSTEM
6 51 52 53 54 55 56
ATOM$RED        STATIC     ATOMS    COLORGROUP SYSTEM
4 49 33 38 50
