AV-unprocessed.smi:1033|AV-procd|sdf|4498|dock6
  -GOLD-   22720 2493D 1   1.00000     0.00000
 Structure written by MMmdl.
 57 59  0  0  0  0  0  0  0  0  3 V2000
  152.3118  144.3014  160.6459 C   0  0  0  0  0  0  0  0  0  0  0  0
  152.0831  143.2274  159.5960 C   0  0  0  0  0  0  0  0  0  0  0  0
  151.2075  143.5087  158.5232 C   0  0  0  0  0  0  0  0  0  0  0  0
  151.0183  142.5068  157.5789 C   0  0  0  0  0  0  0  0  0  0  0  0
  150.2306  142.4750  156.4267 N   0  3  0  0  0  0  0  0  0  0  0  0
  150.3685  141.2666  155.8148 C   0  0  0  0  0  0  0  0  0  0  0  0
  151.2319  140.5239  156.5602 N   0  0  0  0  0  0  0  0  0  0  0  0
  151.7231  139.1556  156.3380 C   0  0  0  0  0  0  0  0  0  0  0  0
  150.5857  138.1233  156.2095 C   0  0  2  0  0  0  0  0  0  0  0  0
  149.9767  137.9332  157.4720 O   0  0  0  0  0  0  0  0  0  0  0  0
  151.1066  136.7633  155.7020 C   0  0  0  0  0  0  0  0  0  0  0  0
  150.1000  135.6775  155.8219 N   0  3  0  0  0  0  0  0  0  0  0  0
  150.6439  134.3549  155.4185 C   0  0  0  0  0  0  0  0  0  0  0  0
  149.5892  133.2501  155.6330 C   0  0  0  0  0  0  0  0  0  0  0  0
  148.3369  133.5004  154.9203 N   0  0  0  0  0  0  0  0  0  0  0  0
  148.4635  133.3195  153.4692 C   0  0  0  0  0  0  0  0  0  0  0  0
  147.1525  133.4459  152.6682 C   0  0  2  0  0  0  0  0  0  0  0  0
  146.1147  132.3797  153.0478 C   0  0  0  0  0  0  0  0  0  0  0  0
  147.4624  133.2901  151.2997 O   0  0  0  0  0  0  0  0  0  0  0  0
  147.8222  134.8090  155.3319 C   0  0  0  0  0  0  0  0  0  0  0  0
  148.8251  135.9595  155.1093 C   0  0  0  0  0  0  0  0  0  0  0  0
  151.6653  141.2587  157.6715 C   0  0  0  0  0  0  0  0  0  0  0  0
  152.5315  140.9658  158.7231 C   0  0  0  0  0  0  0  0  0  0  0  0
  152.7365  141.9718  159.6945 C   0  0  0  0  0  0  0  0  0  0  0  0
  153.6740  141.6797  160.8537 C   0  0  0  0  0  0  0  0  0  0  0  0
  151.7132  145.1903  160.4449 H   0  0  0  0  0  0  0  0  0  0  0  0
  153.3597  144.6019  160.6628 H   0  0  0  0  0  0  0  0  0  0  0  0
  152.0402  143.9352  161.6363 H   0  0  0  0  0  0  0  0  0  0  0  0
  150.7065  144.4625  158.4417 H   0  0  0  0  0  0  0  0  0  0  0  0
  149.8815  140.9556  154.9017 H   0  0  0  0  0  0  0  0  0  0  0  0
  152.3102  139.1744  155.4190 H   0  0  0  0  0  0  0  0  0  0  0  0
  152.4172  138.8864  157.1347 H   0  0  0  0  0  0  0  0  0  0  0  0
  149.8363  138.5231  155.5270 H   0  0  0  0  0  0  0  0  0  0  0  0
  150.4038  137.2097  157.9057 H   0  0  0  0  0  0  0  0  0  0  0  0
  151.4288  136.8397  154.6624 H   0  0  0  0  0  0  0  0  0  0  0  0
  151.9964  136.4996  156.2764 H   0  0  0  0  0  0  0  0  0  0  0  0
  150.9702  134.3872  154.3781 H   0  0  0  0  0  0  0  0  0  0  0  0
  151.5264  134.1262  156.0171 H   0  0  0  0  0  0  0  0  0  0  0  0
  149.9986  132.2839  155.3356 H   0  0  0  0  0  0  0  0  0  0  0  0
  149.3792  133.1659  156.7003 H   0  0  0  0  0  0  0  0  0  0  0  0
  149.1931  134.0222  153.0674 H   0  0  0  0  0  0  0  0  0  0  0  0
  148.8770  132.3289  153.2738 H   0  0  0  0  0  0  0  0  0  0  0  0
  146.7202  134.4390  152.7855 H   0  0  0  0  0  0  0  0  0  0  0  0
  145.8116  132.4800  154.0903 H   0  0  0  0  0  0  0  0  0  0  0  0
  146.5108  131.3724  152.9130 H   0  0  0  0  0  0  0  0  0  0  0  0
  145.2162  132.4692  152.4363 H   0  0  0  0  0  0  0  0  0  0  0  0
  148.0427  132.5500  151.2047 H   0  0  0  0  0  0  0  0  0  0  0  0
  146.8836  135.0290  154.8253 H   0  0  0  0  0  0  0  0  0  0  0  0
  147.5712  134.7682  156.3928 H   0  0  0  0  0  0  0  0  0  0  0  0
  148.3833  136.8833  155.4802 H   0  0  0  0  0  0  0  0  0  0  0  0
  149.0144  136.1105  154.0459 H   0  0  0  0  0  0  0  0  0  0  0  0
  153.0277  140.0102  158.8038 H   0  0  0  0  0  0  0  0  0  0  0  0
  154.1187  140.6878  160.7681 H   0  0  0  0  0  0  0  0  0  0  0  0
  153.1356  141.7229  161.8007 H   0  0  0  0  0  0  0  0  0  0  0  0
  154.4863  142.4065  160.8831 H   0  0  0  0  0  0  0  0  0  0  0  0
  149.8786  135.6001  156.8047 H   0  0  0  0  0  0  0  0  0  0  0  0
  149.6432  143.2228  156.0799 H   0  0  0  0  0  0  0  0  0  0  0  0
  1  2  1  0  0  0  0
  1 26  1  0  0  0  0
  1 27  1  0  0  0  0
  1 28  1  0  0  0  0
  2 24  1  0  0  0  0
  2  3  2  0  0  0  0
  3  4  1  0  0  0  0
  3 29  1  0  0  0  0
  4 22  2  0  0  0  0
  4  5  1  0  0  0  0
  5  6  2  0  0  0  0
  5 57  1  0  0  0  0
  6  7  1  0  0  0  0
  6 30  1  0  0  0  0
  7  8  1  0  0  0  0
  7 22  1  0  0  0  0
  8  9  1  0  0  0  0
  8 31  1  0  0  0  0
  8 32  1  0  0  0  0
  9 10  1  0  0  0  0
  9 11  1  0  0  0  0
  9 33  1  0  0  0  0
 10 34  1  0  0  0  0
 11 12  1  0  0  0  0
 11 35  1  0  0  0  0
 11 36  1  0  0  0  0
 12 21  1  0  0  0  0
 12 13  1  0  0  0  0
 12 56  1  0  0  0  0
 13 14  1  0  0  0  0
 13 37  1  0  0  0  0
 13 38  1  0  0  0  0
 14 15  1  0  0  0  0
 14 39  1  0  0  0  0
 14 40  1  0  0  0  0
 15 16  1  0  0  0  0
 15 20  1  0  0  0  0
 16 17  1  0  0  0  0
 16 41  1  0  0  0  0
 16 42  1  0  0  0  0
 17 18  1  0  0  0  0
 17 19  1  0  0  0  0
 17 43  1  0  0  0  0
 18 44  1  0  0  0  0
 18 45  1  0  0  0  0
 18 46  1  0  0  0  0
 19 47  1  0  0  0  0
 20 21  1  0  0  0  0
 20 48  1  0  0  0  0
 20 49  1  0  0  0  0
 21 50  1  0  0  0  0
 21 51  1  0  0  0  0
 22 23  1  0  0  0  0
 23 24  2  0  0  0  0
 23 52  1  0  0  0  0
 24 25  1  0  0  0  0
 25 53  1  0  0  0  0
 25 54  1  0  0  0  0
 25 55  1  0  0  0  0
M  CHG  1   5   1
M  CHG  1  12   1
M  END
> <s_m_source_file>
AV-unprocessed.smi

> <i_m_source_file_index>
1033

> <i_lp_mmshare_version>
43012

> <i_f3d_flags>
0

> <s_epik_input>
W0NIM11jKFtjSF0xKWMoW0NIM10pW2NIXWMoYzEyKW4oW2NIXW4yKVtDSDJdW0NASF0oW09IXSlbQ0gyXU4zW0NIMl1bQ0gyXU4oW0NIMl1bQ0gyXTMpW0NIMl1bQ0BIXShbQ0gzXSlbT0hd

> <s_epik_cmdline>
J2VwaWtfcHl0aG9uJywgJy1waCcsICc3LjAnLCAnLXRuJywgJzgnLCAnLW1hJywgJzIwMCcsICctbWV0YWxfYmluZGluZycsICctaW1hZScsICc8aW5maWxlLm1hZT4nLCAnLW9tYWUnLCAnPG91dGZpbGUubWFlPic=

> <r_epik_Ionization_Penalty>
1.22049

> <r_epik_Ionization_Penalty_Charging>
1.17952

> <r_epik_Ionization_Penalty_Neutral>
0.0409743

> <r_epik_State_Penalty>
1.61468

> <r_epik_Charging_Adjusted_Penalty>
2.7942

> <i_epik_Tot_Q>
2

> <i_epik_Tot_abs_Q>
2

> <r_epik_Metal_State_Penalty>
5.63169

> <b_epik_Metal_Only>
0

> <s_lp_Force_Field>
OPLS_2005

> <r_lp_Energy>
42.2447

> <b_lp_Chiralities_Consistent>
1

> <s_lp_Variant>
AV-unprocessed.smi:1033-9

> <Gold.Version>
5.8.1

> <Gold.Id.Protein>
6NUR|6NUR_protein|mol2

> <Gold.PLP.Fitness>
53.4882

> <Gold.PLP.PLP>
-44.8480

> <Gold.PLP.part.hbond>
-2.0000

> <Gold.PLP.part.metal>
0.0000

> <Gold.PLP.part.buried>
-5.4982

> <Gold.PLP.part.nonpolar>
-37.2929

> <Gold.PLP.part.repulsive>
0.2275

> <Gold.PLP.ligand.clash>
0.0000

> <Gold.PLP.ligand.torsion>
0.1635

> <Gold.PLP.Chemscore.Hbond>
2.9440

> <Gold.PLP.Chemscore.CHOScore>
0.0000

> <Gold.PLP.Chemscore.Metal>
0.0000

> <Gold.Chemscore.Hbonds>
donor molecule, donor type, donor heavy atom, donor atom, acceptor molecule, acceptor atom, score
      L1  H     5    57       P1  8028  2.00
      L1  H    19    47       P1 10747  0.73

> <Gold.PLP.Chemscore.Internal.Correction>
0.1351

> <Gold.Rescore>
     Score         DG    S(hbond)    S(metal)    S(lipo)     H(rot)  DE(clash)    DE(int)     intcor
     17.04     -17.29       1.63        0.00     123.25       3.15       0.04       0.20       ----

> <Gold.Chemscore.Fitness>
17.0445

> <Gold.Chemscore.DG>
-17.2914

> <Gold.Chemscore.ZeroCoef>
-5.4800

> <Gold.Chemscore.Hbond>
1.6320

> <Gold.Chemscore.Metal>
0.0000

> <Gold.Chemscore.Lipo>
123.2506

> <Gold.Chemscore.Internal_Hbond>
0.0000

> <Gold.Chemscore.DEClash>
0.0440

> <Gold.Chemscore.DEInternal>
0.2029

> <Gold.Chemscore.Rot>
3.1483

> <Gold.Chemscore.Internal.Correction>
   9.000000E+99

> <Gold.Chemscore.Hbonds>
donor molecule, donor type, donor heavy atom, donor atom, acceptor molecule, acceptor atom, score
      L1  H     5    57       P1  8028  1.00
      L1  H    19    47       P1 10747  0.72

> <Gold.Chemscore.Hbond.Weighted>
-5.4508

> <Gold.Chemscore.Metal.Weighted>
-0.0000

> <Gold.Chemscore.Lipo.Weighted>
-14.4203

> <Gold.Chemscore.Internal_Hbond.Weighted>
0.0000

> <Gold.Chemscore.DEClash.Weighted>
0.0440

> <Gold.Chemscore.DEInternal.Weighted>
0.2029

> <Gold.Chemscore.Rot.Weighted>
8.0597

> <Gold.Chemscore.Internal.Correction.Weighted>
   9.000000E+99

> <Gold.Protein.RotatedTorsions>
[ 6907 6896 6895 6894 ] final  -33.20 input  -60.11 | X-H torsion
[ 7974 7965 7964 7962 ] final  -76.55 input  175.53 | X-H torsion
[ 8008 7997 7996 7995 ] final   25.05 input   59.86 | X-H torsion
[ 10167 10162 10161 10158 ] final   76.56 input  -65.29 | X-H torsion
[ 10718 10713 10712 10709 ] final  161.49 input   66.30 | X-H torsion
[ 10763 10752 10751 10750 ] final  111.85 input  -60.55 | X-H torsion
[ 11005 11000 10999 10996 ] final   11.33 input  -57.11 | X-H torsion

> <Gold.Protein.ActiveResidues>
 VAL166  LYS551  ARG553  GLY616  TRP617  ASP618  TYR619  PRO620  LYS621  CYS622 
 ASP623  PHE694  ASN695  SER759  ASP760  ASP761  ALA762  ILE779  LEU786  VAL792 
 PHE793  MET794  SER795  GLU796  ALA797  LYS798  CYS799  TRP800  GLU811  SER814 

> <Gold.Protein.RotatedAtoms>
  151.0687  134.9784  159.8297 H   0  0  0  0  0  0  0  0  0  0  0  0  # atno 6907 bound_to 6896
  152.5405  134.2327  159.8841 H   0  0  0  0  0  0  0  0  0  0  0  0  # atno 6908 bound_to 6896
  151.2350  133.4386  159.2639 H   0  0  0  0  0  0  0  0  0  0  0  0  # atno 6909 bound_to 6896
  145.6114  140.9385  143.1187 H   0  0  0  0  0  0  0  0  0  0  0  0  # atno 7974 bound_to 7965
  155.0057  140.3130  155.4849 H   0  0  0  0  0  0  0  0  0  0  0  0  # atno 8008 bound_to 7997
  156.2917  140.2224  156.5110 H   0  0  0  0  0  0  0  0  0  0  0  0  # atno 8009 bound_to 7997
  154.7579  140.0461  157.0936 H   0  0  0  0  0  0  0  0  0  0  0  0  # atno 8010 bound_to 7997
  139.9909  144.5757  150.7818 H   0  0  0  0  0  0  0  0  0  0  0  0  # atno 10167 bound_to 10162
  157.1357  131.0528  151.2350 H   0  0  0  0  0  0  0  0  0  0  0  0  # atno 10718 bound_to 10713
  153.4693  135.3704  155.2382 H   0  0  0  0  0  0  0  0  0  0  0  0  # atno 10763 bound_to 10752
  154.8757  135.3927  154.3831 H   0  0  0  0  0  0  0  0  0  0  0  0  # atno 10764 bound_to 10752
  153.4417  135.7084  153.6230 H   0  0  0  0  0  0  0  0  0  0  0  0  # atno 10765 bound_to 10752
  140.5045  134.0713  155.7802 H   0  0  0  0  0  0  0  0  0  0  0  0  # atno 11005 bound_to 11000
  144.7268  139.7850  143.7362 LP  0  0  0  0  0  0  0  0  0  0  0  0  # atno 17320 bound_to 7965
  146.1501  139.4582  143.0054 LP  0  0  0  0  0  0  0  0  0  0  0  0  # atno 17321 bound_to 7965
  140.7455  143.2876  151.3419 LP  0  0  0  0  0  0  0  0  0  0  0  0  # atno 17342 bound_to 10162
  139.6340  144.0665  152.2500 LP  0  0  0  0  0  0  0  0  0  0  0  0  # atno 17343 bound_to 10162
  157.4352  130.7513  149.7023 LP  0  0  0  0  0  0  0  0  0  0  0  0  # atno 17370 bound_to 10713
  155.9798  130.4035  150.3562 LP  0  0  0  0  0  0  0  0  0  0  0  0  # atno 17371 bound_to 10713
  141.1418  133.9124  157.2308 LP  0  0  0  0  0  0  0  0  0  0  0  0  # atno 17394 bound_to 11000
  139.9694  135.0132  156.9473 LP  0  0  0  0  0  0  0  0  0  0  0  0  # atno 17395 bound_to 11000

$$$$
