AV-unprocessed.smi:1757|AV-procd|sdf|7077|dock9
  -GOLD-   22720 8293D 1   1.00000     0.00000
 Structure written by MMmdl.
 39 40  0  0  0  0  0  0  0  0  3 V2000
  148.4454  133.4200  153.7655 C   0  0  0  0  0  0  0  0  0  0  0  0
  148.8835  134.7611  154.2077 N   0  3  2  0  0  0  0  0  0  0  0  0
  150.2276  134.7374  154.8367 C   0  0  0  0  0  0  0  0  0  0  0  0
  150.7081  136.1602  155.1683 C   0  0  0  0  0  0  0  0  0  0  0  0
  149.6961  136.8942  156.0638 C   0  0  1  0  0  0  0  0  0  0  0  0
  150.1221  138.2762  156.2691 N   0  0  0  0  0  0  0  0  0  0  0  0
  150.7784  138.7465  157.3400 C   0  0  0  0  0  0  0  0  0  0  0  0
  151.1043  138.0442  158.2968 O   0  0  0  0  0  0  0  0  0  0  0  0
  151.0007  140.0677  157.2187 N   0  0  0  0  0  0  0  0  0  0  0  0
  151.6759  140.9403  158.0890 C   0  0  0  0  0  0  0  0  0  0  0  0
  151.2212  142.1682  158.4631 C   0  0  0  0  0  0  0  0  0  0  0  0
  151.9597  143.0241  159.3835 C   0  0  0  0  0  0  0  0  0  0  0  0
  151.5080  144.4070  159.8157 C   0  0  0  0  0  0  0  0  0  0  0  0
  152.2087  145.3412  159.1737 F   0  0  0  0  0  0  0  0  0  0  0  0
  150.2201  144.5838  159.5227 F   0  0  0  0  0  0  0  0  0  0  0  0
  151.6701  144.5862  161.1267 F   0  0  0  0  0  0  0  0  0  0  0  0
  153.1320  142.4396  159.8194 C   0  0  0  0  0  0  0  0  0  0  0  0
  153.6458  141.2290  159.5098 N   0  5  0  0  0  0  0  0  0  0  0  0
  152.9504  140.4385  158.6440 C   0  0  0  0  0  0  0  0  0  0  0  0
  153.3600  139.3236  158.3180 O   0  0  0  0  0  0  0  0  0  0  0  0
  148.3045  136.8659  155.4094 C   0  0  0  0  0  0  0  0  0  0  0  0
  147.8772  135.4277  155.0712 C   0  0  0  0  0  0  0  0  0  0  0  0
  148.3317  132.7455  154.6154 H   0  0  0  0  0  0  0  0  0  0  0  0
  149.1712  132.9851  153.0776 H   0  0  0  0  0  0  0  0  0  0  0  0
  147.4889  133.4794  153.2451 H   0  0  0  0  0  0  0  0  0  0  0  0
  150.1964  134.1305  155.7431 H   0  0  0  0  0  0  0  0  0  0  0  0
  150.9394  134.2621  154.1607 H   0  0  0  0  0  0  0  0  0  0  0  0
  151.6801  136.1158  155.6616 H   0  0  0  0  0  0  0  0  0  0  0  0
  150.8568  136.7162  154.2415 H   0  0  0  0  0  0  0  0  0  0  0  0
  149.6377  136.3648  157.0165 H   0  0  0  0  0  0  0  0  0  0  0  0
  149.8955  138.9334  155.5369 H   0  0  0  0  0  0  0  0  0  0  0  0
  150.6010  140.5200  156.4095 H   0  0  0  0  0  0  0  0  0  0  0  0
  150.2774  142.5395  158.0995 H   0  0  0  0  0  0  0  0  0  0  0  0
  153.7494  143.0377  160.5235 H   0  0  0  0  0  0  0  0  0  0  0  0
  147.5696  137.3225  156.0737 H   0  0  0  0  0  0  0  0  0  0  0  0
  148.3103  137.4646  154.4972 H   0  0  0  0  0  0  0  0  0  0  0  0
  146.9130  135.4459  154.5616 H   0  0  0  0  0  0  0  0  0  0  0  0
  147.7411  134.8506  155.9873 H   0  0  0  0  0  0  0  0  0  0  0  0
  148.9659  135.3244  153.3734 H   0  0  0  0  0  0  0  0  0  0  0  0
  1  2  1  0  0  0  0
  1 23  1  0  0  0  0
  1 24  1  0  0  0  0
  1 25  1  0  0  0  0
  2 22  1  0  0  0  0
  2  3  1  0  0  0  0
  2 39  1  0  0  0  0
  3  4  1  0  0  0  0
  3 26  1  0  0  0  0
  3 27  1  0  0  0  0
  4  5  1  0  0  0  0
  4 28  1  0  0  0  0
  4 29  1  0  0  0  0
  5  6  1  0  0  0  0
  5 21  1  0  0  0  0
  5 30  1  0  0  0  0
  6  7  1  0  0  0  0
  6 31  1  0  0  0  0
  7  8  2  0  0  0  0
  7  9  1  0  0  0  0
  9 10  1  0  0  0  0
  9 32  1  0  0  0  0
 10 19  1  0  0  0  0
 10 11  2  0  0  0  0
 11 12  1  0  0  0  0
 11 33  1  0  0  0  0
 12 13  1  0  0  0  0
 12 17  2  0  0  0  0
 13 14  1  0  0  0  0
 13 15  1  0  0  0  0
 13 16  1  0  0  0  0
 17 18  1  0  0  0  0
 17 34  1  0  0  0  0
 18 19  1  0  0  0  0
 19 20  2  0  0  0  0
 21 22  1  0  0  0  0
 21 35  1  0  0  0  0
 21 36  1  0  0  0  0
 22 37  1  0  0  0  0
 22 38  1  0  0  0  0
M  CHG  1   2   1
M  CHG  1  18  -1
M  END
> <s_m_source_file>
AV-unprocessed.smi

> <i_m_source_file_index>
1757

> <i_lp_mmshare_version>
43012

> <i_f3d_flags>
0

> <s_epik_input>
W0NIM11OMVtDSDJdW0NIMl1bQ0hdKFtDSDJdW0NIMl0xKVtOSF1DKD1PKVtOSF1jMltjSF1jKEMoRikoRilGKVtjSF1bbkhdYzI9Tw==

> <s_epik_cmdline>
J2VwaWtfcHl0aG9uJywgJy1waCcsICc3LjAnLCAnLXRuJywgJzgnLCAnLW1hJywgJzIwMCcsICctbWV0YWxfYmluZGluZycsICctaW1hZScsICc8aW5maWxlLm1hZT4nLCAnLW9tYWUnLCAnPG91dGZpbGUubWFlPic=

> <r_lp_tautomer_probability>
1

> <r_epik_Ionization_Penalty>
3.04759

> <r_epik_Ionization_Penalty_Charging>
0.155898

> <r_epik_Ionization_Penalty_Neutral>
2.89169

> <r_epik_State_Penalty>
2.88714

> <r_epik_Charging_Adjusted_Penalty>
3.04304

> <i_epik_Tot_Q>
0

> <i_epik_Tot_abs_Q>
2

> <r_epik_Metal_State_Penalty>
0.445786

> <b_epik_Metal_Only>
1

> <s_lp_Force_Field>
OPLS_2005

> <r_lp_Energy>
29.3736

> <b_lp_Chiralities_Consistent>
1

> <s_lp_Variant>
AV-unprocessed.smi:1757-3

> <Gold.Version>
5.8.1

> <Gold.Id.Protein>
6NUR|6NUR_protein|mol2

> <Gold.PLP.Fitness>
42.3079

> <Gold.PLP.PLP>
-36.7870

> <Gold.PLP.part.hbond>
-2.0000

> <Gold.PLP.part.metal>
0.0000

> <Gold.PLP.part.buried>
-4.3643

> <Gold.PLP.part.nonpolar>
-30.2189

> <Gold.PLP.part.repulsive>
0.0433

> <Gold.PLP.ligand.clash>
0.0000

> <Gold.PLP.ligand.torsion>
1.2912

> <Gold.PLP.Chemscore.Hbond>
2.7000

> <Gold.PLP.Chemscore.CHOScore>
0.0000

> <Gold.PLP.Chemscore.Metal>
0.0000

> <Gold.Chemscore.Hbonds>
donor molecule, donor type, donor heavy atom, donor atom, acceptor molecule, acceptor atom, score
      L1  H     2    39       P1  7948  2.00
      P1  H  7997  8009       L1    20  0.65

> <Gold.PLP.Chemscore.Internal.Correction>
0.0034

> <Gold.Rescore>
     Score         DG    S(hbond)    S(metal)    S(lipo)     H(rot)  DE(clash)    DE(int)     intcor
     10.31     -15.00       1.18        0.00      69.66       1.00       0.97       3.71       ----

> <Gold.Chemscore.Fitness>
10.3129

> <Gold.Chemscore.DG>
-14.9961

> <Gold.Chemscore.ZeroCoef>
-5.4800

> <Gold.Chemscore.Hbond>
1.1752

> <Gold.Chemscore.Metal>
0.0000

> <Gold.Chemscore.Lipo>
69.6646

> <Gold.Chemscore.Internal_Hbond>
0.0000

> <Gold.Chemscore.DEClash>
0.9727

> <Gold.Chemscore.DEInternal>
3.7105

> <Gold.Chemscore.Rot>
1.0000

> <Gold.Chemscore.Internal.Correction>
   9.000000E+99

> <Gold.Chemscore.Hbonds>
donor molecule, donor type, donor heavy atom, donor atom, acceptor molecule, acceptor atom, score
      L1  H     2    39       P1  7948  0.55
      P1  H  7997  8009       L1    20  0.06

> <Gold.Chemscore.Hbond.Weighted>
-3.9253

> <Gold.Chemscore.Metal.Weighted>
-0.0000

> <Gold.Chemscore.Lipo.Weighted>
-8.1508

> <Gold.Chemscore.Internal_Hbond.Weighted>
0.0000

> <Gold.Chemscore.DEClash.Weighted>
0.9727

> <Gold.Chemscore.DEInternal.Weighted>
3.7105

> <Gold.Chemscore.Rot.Weighted>
2.5600

> <Gold.Chemscore.Internal.Correction.Weighted>
   9.000000E+99

> <Gold.Protein.RotatedTorsions>
[ 6907 6896 6895 6894 ] final  151.88 input  -60.11 | X-H torsion
[ 7974 7965 7964 7962 ] final   33.74 input  175.53 | X-H torsion
[ 8008 7997 7996 7995 ] final  155.54 input   59.86 | X-H torsion
[ 10167 10162 10161 10158 ] final  -19.05 input  -65.29 | X-H torsion
[ 10718 10713 10712 10709 ] final   74.41 input   66.30 | X-H torsion
[ 10763 10752 10751 10750 ] final   57.24 input  -60.55 | X-H torsion
[ 11005 11000 10999 10996 ] final    1.62 input  -57.11 | X-H torsion

> <Gold.Protein.ActiveResidues>
 VAL166  LYS551  ARG553  GLY616  TRP617  ASP618  TYR619  PRO620  LYS621  CYS622 
 ASP623  PHE694  ASN695  SER759  ASP760  ASP761  ALA762  ILE779  LEU786  VAL792 
 PHE793  MET794  SER795  GLU796  ALA797  LYS798  CYS799  TRP800  GLU811  SER814 

> <Gold.Protein.RotatedAtoms>
  152.0945  133.4217  159.4558 H   0  0  0  0  0  0  0  0  0  0  0  0  # atno 6907 bound_to 6896
  150.6863  134.2833  159.4645 H   0  0  0  0  0  0  0  0  0  0  0  0  # atno 6908 bound_to 6896
  152.0688  134.9547  160.0625 H   0  0  0  0  0  0  0  0  0  0  0  0  # atno 6909 bound_to 6896
  146.1400  139.6358  142.9169 H   0  0  0  0  0  0  0  0  0  0  0  0  # atno 7974 bound_to 7965
  156.2473  140.1937  156.6816 H   0  0  0  0  0  0  0  0  0  0  0  0  # atno 8008 bound_to 7997
  154.6317  140.0595  156.9766 H   0  0  0  0  0  0  0  0  0  0  0  0  # atno 8009 bound_to 7997
  155.1700  140.3267  155.4397 H   0  0  0  0  0  0  0  0  0  0  0  0  # atno 8010 bound_to 7997
  140.7265  143.4857  151.0059 H   0  0  0  0  0  0  0  0  0  0  0  0  # atno 10167 bound_to 10162
  157.6591  130.9676  150.1207 H   0  0  0  0  0  0  0  0  0  0  0  0  # atno 10718 bound_to 10713
  152.9846  135.5648  154.5358 H   0  0  0  0  0  0  0  0  0  0  0  0  # atno 10763 bound_to 10752
  154.4821  135.2789  155.1564 H   0  0  0  0  0  0  0  0  0  0  0  0  # atno 10764 bound_to 10752
  154.3068  135.6296  153.5501 H   0  0  0  0  0  0  0  0  0  0  0  0  # atno 10765 bound_to 10752
  140.6134  133.9727  155.8188 H   0  0  0  0  0  0  0  0  0  0  0  0  # atno 11005 bound_to 11000
  145.5068  141.0436  143.2510 LP  0  0  0  0  0  0  0  0  0  0  0  0  # atno 17320 bound_to 7965
  144.7782  139.6584  143.7166 LP  0  0  0  0  0  0  0  0  0  0  0  0  # atno 17321 bound_to 7965
  139.8558  143.7379  152.3176 LP  0  0  0  0  0  0  0  0  0  0  0  0  # atno 17342 bound_to 10162
  139.7577  144.7516  151.0411 LP  0  0  0  0  0  0  0  0  0  0  0  0  # atno 17343 bound_to 10162
  156.2079  130.3664  149.8707 LP  0  0  0  0  0  0  0  0  0  0  0  0  # atno 17370 bound_to 10713
  156.6593  130.8775  151.3544 LP  0  0  0  0  0  0  0  0  0  0  0  0  # atno 17371 bound_to 10713
  141.0792  134.0088  157.3411 LP  0  0  0  0  0  0  0  0  0  0  0  0  # atno 17394 bound_to 11000
  139.9183  135.0198  156.7965 LP  0  0  0  0  0  0  0  0  0  0  0  0  # atno 17395 bound_to 11000

$$$$
