#       Name:                AV-unprocessed.smi:582
#       Creating user name   scv26
#       Creation time:       Thu Mar 26 23:50:11 2020


#       File generated by GOLD software.
#

@<TRIPOS>MOLECULE
AV-unprocessed.smi:582
    34    35     1
SMALL
NO_CHARGES


@<TRIPOS>ATOM
      1 ****        -5.3566   0.7372   0.0037 O.co2          1 S1                 0.0000
      2 ****        -4.7004  -0.3278   0.0050 C.2            1 S1                 0.0000
      3 ****        -5.2440  -1.4543   0.0053 O.co2          1 S1                -1.0000
      4 ****        -3.2000  -0.2518   0.0059 C.ar           1 S1                 0.0000
      5 ****        -2.5351   0.9967   0.0051 C.ar           1 S1                 0.0000
      6 ****        -1.1256   1.0367   0.0053 C.ar           1 S1                 0.0000
      7 ****        -0.3977  -0.1752   0.0067 C.ar           1 S1                 0.0000
      8 ****         1.0017  -0.2353   0.0056 N.3            1 S1                 0.0000
      9 ****         1.5950   0.2902  -1.2172 C.3            1 S1                 0.0000
     10 ****         3.1204   0.0940  -1.1877 C.3            1 S1                 0.0000
     11 ****         3.6557   0.7034  -0.0165 O.3            1 S1                 0.0000
     12 ****         3.1272   0.1298   1.1758 C.3            1 S1                 0.0000
     13 ****         1.6022   0.3280   1.2080 C.3            1 S1                 0.0000
     14 ****        -1.0678  -1.3477   0.0073 N.pl3          1 S1                 1.0000
     15 ****        -2.4167  -1.4285   0.0072 C.ar           1 S1                 0.0000
     16 ****        -3.0930   1.9220   0.0040 H              1 S1                 0.0000
     17 ****        -0.6160   1.9888   0.0037 H              1 S1                 0.0000
     18 ****         1.1691  -0.2184  -2.0832 H              1 S1                 0.0000
     19 ****         1.3611   1.3510  -1.3169 H              1 S1                 0.0000
     20 ****         3.3774  -0.9663  -1.2095 H              1 S1                 0.0000
     21 ****         3.5761   0.5506  -2.0664 H              1 S1                 0.0000
     22 ****         3.3840  -0.9294   1.2280 H              1 S1                 0.0000
     23 ****         3.5883   0.6126   2.0375 H              1 S1                 0.0000
     24 ****         1.3701   1.3916   1.2762 H              1 S1                 0.0000
     25 ****         1.1809  -0.1532   2.0917 H              1 S1                 0.0000
     26 ****        -2.8240  -2.4296   0.0079 H              1 S1                 0.0000
     27 ****        -0.5313  -2.2152   0.0080 H              1 S1                 0.0000
     28 ****        -6.3562   0.7086   0.0028 LP             1 S1                 0.0000
     29 ****        -4.8816   1.6172   0.0035 LP             1 S1                 0.0000
     30 ****        -6.2413  -1.5282   0.0045 LP             1 S1                 0.0000
     31 ****        -4.6814  -2.2810   0.0063 LP             1 S1                 0.0000
     32 ****         1.2236  -1.2102   0.0220 LP             1 S1                 0.0000
     33 ****         3.4345   1.6785  -0.0307 LP             1 S1                 0.0000
     34 ****         4.6488   0.5868  -0.0176 LP             1 S1                 0.0000
@<TRIPOS>BOND
    1    1    2 ar    
    2    2    3 ar    
    3    2    4 1     
    4    4   15 ar    
    5    4    5 ar    
    6    5    6 ar    
    7    5   16 1     
    8    6    7 ar    
    9    6   17 1     
   10    7    8 1     
   11    7   14 ar    
   12    8   13 1     
   13    8    9 1     
   14    9   10 1     
   15    9   18 1     
   16    9   19 1     
   17   10   11 1     
   18   10   20 1     
   19   10   21 1     
   20   11   12 1     
   21   12   13 1     
   22   12   22 1     
   23   12   23 1     
   24   13   24 1     
   25   13   25 1     
   26   14   15 ar    
   27   14   27 1     
   28   15   26 1     
   29    1   28 1     
   30    1   29 1     
   31    3   30 1     
   32    3   31 1     
   33    8   32 1     
   34   11   33 1     
   35   11   34 1     
@<TRIPOS>SUBSTRUCTURE
      1 S1             1
@<TRIPOS>SET
LONE_PAIRS      STATIC     ATOMS    <user>   **** ""
7 28 29 30 31 32 33 34
DONOR_HYDROGENS      STATIC     ATOMS    <user>   **** ""
1 27
ATOM$BLUE        STATIC     ATOMS    COLORGROUP SYSTEM
7 28 29 30 31 32 33 34
ATOM$RED        STATIC     ATOMS    COLORGROUP SYSTEM
1 27
