AV-unprocessed.smi:2881|AV-procd|sdf|11059|dock1
  -GOLD-   2272015533D 1   1.00000     0.00000
 Structure written by MMmdl.
 40 42  0  0  0  0  0  0  0  0  1 V2000
  146.8326  139.3148  153.4072 C   0  0  0  0  0  0  0  0  0  0  0  0
  148.1883  139.2130  154.0193 C   0  0  0  0  0  0  0  0  0  0  0  0
  148.8426  140.0203  154.9063 C   0  0  0  0  0  0  0  0  0  0  0  0
  150.1068  139.3872  155.0955 C   0  0  0  0  0  0  0  0  0  0  0  0
  151.2469  139.8404  155.9670 C   0  0  0  0  0  0  0  0  0  0  0  0
  150.7267  140.7773  157.0570 C   0  0  0  0  0  0  0  0  0  0  0  0
  149.5854  140.6385  157.4967 O   0  0  0  0  0  0  0  0  0  0  0  0
  151.5741  141.7276  157.4816 N   0  0  0  0  0  0  0  0  0  0  0  0
  151.2618  142.7680  158.4618 C   0  0  2  0  0  0  0  0  0  0  0  0
  151.5760  144.1600  157.8721 C   0  0  1  0  0  0  0  0  0  0  0  0
  150.8896  145.2383  158.7303 C   0  0  0  0  0  0  0  0  0  0  0  0
  151.7305  145.2230  160.0210 C   0  0  0  0  0  0  0  0  0  0  0  0
  152.7883  144.1400  159.7292 C   0  0  2  0  0  0  0  0  0  0  0  0
  153.0412  144.3562  158.2425 C   0  0  0  0  0  0  0  0  0  0  0  0
  152.1186  142.7439  159.7647 C   0  0  2  0  0  0  0  0  0  0  0  0
  153.1314  141.5840  159.8989 C   0  0  0  0  0  0  0  0  0  0  0  0
  153.9319  141.7586  161.0494 O   0  0  0  0  0  0  0  0  0  0  0  0
  150.2232  138.2717  154.3872 N   0  0  0  0  0  0  0  0  0  0  0  0
  149.0495  138.1781  153.7349 N   0  0  0  0  0  0  0  0  0  0  0  0
  148.8524  137.4125  153.1061 H   0  0  0  0  0  0  0  0  0  0  0  0
  146.2730  140.1463  153.8364 H   0  0  0  0  0  0  0  0  0  0  0  0
  146.2604  138.4022  153.5752 H   0  0  0  0  0  0  0  0  0  0  0  0
  146.9048  139.4776  152.3315 H   0  0  0  0  0  0  0  0  0  0  0  0
  148.4765  140.9335  155.3519 H   0  0  0  0  0  0  0  0  0  0  0  0
  151.7320  138.9820  156.4330 H   0  0  0  0  0  0  0  0  0  0  0  0
  152.0144  140.3466  155.3790 H   0  0  0  0  0  0  0  0  0  0  0  0
  152.4919  141.7619  157.0616 H   0  0  0  0  0  0  0  0  0  0  0  0
  150.1992  142.7075  158.7056 H   0  0  0  0  0  0  0  0  0  0  0  0
  151.3529  144.2530  156.8083 H   0  0  0  0  0  0  0  0  0  0  0  0
  150.9487  146.2143  158.2472 H   0  0  0  0  0  0  0  0  0  0  0  0
  149.8373  145.0194  158.9142 H   0  0  0  0  0  0  0  0  0  0  0  0
  152.2026  146.1932  160.1805 H   0  0  0  0  0  0  0  0  0  0  0  0
  151.1340  144.9949  160.9050 H   0  0  0  0  0  0  0  0  0  0  0  0
  153.6731  144.2284  160.3603 H   0  0  0  0  0  0  0  0  0  0  0  0
  153.7059  143.6136  157.7988 H   0  0  0  0  0  0  0  0  0  0  0  0
  153.4171  145.3535  158.0075 H   0  0  0  0  0  0  0  0  0  0  0  0
  151.4467  142.6847  160.6227 H   0  0  0  0  0  0  0  0  0  0  0  0
  152.6111  140.6321  160.0034 H   0  0  0  0  0  0  0  0  0  0  0  0
  153.7758  141.5102  159.0229 H   0  0  0  0  0  0  0  0  0  0  0  0
  153.3640  141.8834  161.7945 H   0  0  0  0  0  0  0  0  0  0  0  0
  1  2  1  0  0  0  0
  1 21  1  0  0  0  0
  1 22  1  0  0  0  0
  1 23  1  0  0  0  0
  2 19  1  0  0  0  0
  2  3  2  0  0  0  0
  3  4  1  0  0  0  0
  3 24  1  0  0  0  0
  4  5  1  0  0  0  0
  4 18  2  0  0  0  0
  5  6  1  0  0  0  0
  5 25  1  0  0  0  0
  5 26  1  0  0  0  0
  6  7  2  0  0  0  0
  6  8  1  0  0  0  0
  8  9  1  0  0  0  0
  8 27  1  0  0  0  0
  9 15  1  0  0  0  0
  9 10  1  0  0  0  0
  9 28  1  0  0  0  0
 10 14  1  0  0  0  0
 10 11  1  0  0  0  0
 10 29  1  0  0  0  0
 11 12  1  0  0  0  0
 11 30  1  0  0  0  0
 11 31  1  0  0  0  0
 12 13  1  0  0  0  0
 12 32  1  0  0  0  0
 12 33  1  0  0  0  0
 13 14  1  0  0  0  0
 13 15  1  0  0  0  0
 13 34  1  0  0  0  0
 14 35  1  0  0  0  0
 14 36  1  0  0  0  0
 15 16  1  0  0  0  0
 15 37  1  0  0  0  0
 16 17  1  0  0  0  0
 16 38  1  0  0  0  0
 16 39  1  0  0  0  0
 17 40  1  0  0  0  0
 18 19  1  0  0  0  0
 19 20  1  0  0  0  0
M  END
> <s_m_source_file>
AV-unprocessed.smi

> <i_m_source_file_index>
2881

> <i_lp_mmshare_version>
43012

> <i_f3d_flags>
0

> <s_epik_input>
W0NIM11jMVtjSF1jKG5bbkhdMSlbQ0gyXUMoPU8pW05IXVtDQEhdKFtDQEBIXTIzKVtDQEhdKFtDSDJdW09IXSlbQ0BASF0oW0NIMl0zKVtDSDJdW0NIMl0y

> <s_epik_cmdline>
J2VwaWtfcHl0aG9uJywgJy1waCcsICc3LjAnLCAnLXRuJywgJzgnLCAnLW1hJywgJzIwMCcsICctbWV0YWxfYmluZGluZycsICctaW1hZScsICc8aW5maWxlLm1hZT4nLCAnLW9tYWUnLCAnPG91dGZpbGUubWFlPic=

> <r_lp_tautomer_probability>
0.5

> <r_epik_Ionization_Penalty>
9.4349e-05

> <r_epik_Ionization_Penalty_Charging>
0

> <r_epik_Ionization_Penalty_Neutral>
9.4349e-05

> <r_epik_State_Penalty>
0.41068

> <r_epik_Charging_Adjusted_Penalty>
0.41068

> <i_epik_Tot_Q>
0

> <i_epik_Tot_abs_Q>
0

> <r_epik_Metal_State_Penalty>
0.4107

> <b_epik_Metal_Only>
0

> <s_lp_Force_Field>
OPLS_2005

> <r_lp_Energy>
48.9716

> <b_lp_Chiralities_Consistent>
1

> <s_lp_Variant>
AV-unprocessed.smi:2881-5

> <Gold.Version>
5.8.1

> <Gold.Id.Protein>
6NUR|6NUR_protein|mol2

> <Gold.PLP.Fitness>
44.8286

> <Gold.PLP.PLP>
-43.2492

> <Gold.PLP.part.hbond>
-2.0000

> <Gold.PLP.part.metal>
0.0000

> <Gold.PLP.part.buried>
-3.7983

> <Gold.PLP.part.nonpolar>
-37.7994

> <Gold.PLP.part.repulsive>
0.4171

> <Gold.PLP.ligand.clash>
0.0000

> <Gold.PLP.ligand.torsion>
0.7176

> <Gold.PLP.Chemscore.Hbond>
1.0000

> <Gold.PLP.Chemscore.CHOScore>
0.0000

> <Gold.PLP.Chemscore.Metal>
0.0000

> <Gold.Chemscore.Hbonds>
donor molecule, donor type, donor heavy atom, donor atom, acceptor molecule, acceptor atom, score
      L1  H    19    20       P1  7948  1.00

> <Gold.PLP.Chemscore.Internal.Correction>
0.0146

> <Gold.Rescore>
     Score         DG    S(hbond)    S(metal)    S(lipo)     H(rot)  DE(clash)    DE(int)     intcor
     15.34     -17.57       0.99        0.00     124.76       2.28       0.10       2.13       ----

> <Gold.Chemscore.Fitness>
15.3390

> <Gold.Chemscore.DG>
-17.5703

> <Gold.Chemscore.ZeroCoef>
-5.4800

> <Gold.Chemscore.Hbond>
0.9937

> <Gold.Chemscore.Metal>
0.0000

> <Gold.Chemscore.Lipo>
124.7563

> <Gold.Chemscore.Internal_Hbond>
0.0000

> <Gold.Chemscore.DEClash>
0.1031

> <Gold.Chemscore.DEInternal>
2.1282

> <Gold.Chemscore.Rot>
2.2755

> <Gold.Chemscore.Internal.Correction>
   9.000000E+99

> <Gold.Chemscore.Hbonds>
donor molecule, donor type, donor heavy atom, donor atom, acceptor molecule, acceptor atom, score
      L1  H    19    20       P1  7948  1.00

> <Gold.Chemscore.Hbond.Weighted>
-3.3190

> <Gold.Chemscore.Metal.Weighted>
-0.0000

> <Gold.Chemscore.Lipo.Weighted>
-14.5965

> <Gold.Chemscore.Internal_Hbond.Weighted>
0.0000

> <Gold.Chemscore.DEClash.Weighted>
0.1031

> <Gold.Chemscore.DEInternal.Weighted>
2.1282

> <Gold.Chemscore.Rot.Weighted>
5.8252

> <Gold.Chemscore.Internal.Correction.Weighted>
   9.000000E+99

> <Gold.Protein.RotatedTorsions>
[ 6907 6896 6895 6894 ] final   81.45 input  -60.11 | X-H torsion
[ 7974 7965 7964 7962 ] final -117.20 input  175.53 | X-H torsion
[ 8008 7997 7996 7995 ] final -147.79 input   59.86 | X-H torsion
[ 10167 10162 10161 10158 ] final  -57.79 input  -65.29 | X-H torsion
[ 10718 10713 10712 10709 ] final   55.51 input   66.30 | X-H torsion
[ 10763 10752 10751 10750 ] final   29.65 input  -60.55 | X-H torsion
[ 11005 11000 10999 10996 ] final   29.28 input  -57.11 | X-H torsion

> <Gold.Protein.ActiveResidues>
 VAL166  LYS551  ARG553  GLY616  TRP617  ASP618  TYR619  PRO620  LYS621  CYS622 
 ASP623  PHE694  ASN695  SER759  ASP760  ASP761  ALA762  ILE779  LEU786  VAL792 
 PHE793  MET794  SER795  GLU796  ALA797  LYS798  CYS799  TRP800  GLU811  SER814 

> <Gold.Protein.RotatedAtoms>
  152.5268  134.3202  159.9145 H   0  0  0  0  0  0  0  0  0  0  0  0  # atno 6907 bound_to 6896
  151.3151  133.4057  159.2657 H   0  0  0  0  0  0  0  0  0  0  0  0  # atno 6908 bound_to 6896
  151.0005  134.9335  159.8008 H   0  0  0  0  0  0  0  0  0  0  0  0  # atno 6909 bound_to 6896
  145.0880  140.8470  143.3999 H   0  0  0  0  0  0  0  0  0  0  0  0  # atno 7974 bound_to 7965
  155.5811  140.0643  157.2783 H   0  0  0  0  0  0  0  0  0  0  0  0  # atno 8008 bound_to 7997
  154.4332  140.1852  156.1024 H   0  0  0  0  0  0  0  0  0  0  0  0  # atno 8009 bound_to 7997
  156.0304  140.3307  155.7137 H   0  0  0  0  0  0  0  0  0  0  0  0  # atno 8010 bound_to 7997
  140.6236  143.2429  151.5418 H   0  0  0  0  0  0  0  0  0  0  0  0  # atno 10167 bound_to 10162
  157.5351  130.8657  149.8741 H   0  0  0  0  0  0  0  0  0  0  0  0  # atno 10718 bound_to 10713
  153.0418  135.6484  154.0923 H   0  0  0  0  0  0  0  0  0  0  0  0  # atno 10763 bound_to 10752
  154.0628  135.2886  155.3323 H   0  0  0  0  0  0  0  0  0  0  0  0  # atno 10764 bound_to 10752
  154.6646  135.5379  153.8126 H   0  0  0  0  0  0  0  0  0  0  0  0  # atno 10765 bound_to 10752
  140.3066  134.2696  155.7742 H   0  0  0  0  0  0  0  0  0  0  0  0  # atno 11005 bound_to 11000
  145.1100  139.2764  143.5642 LP  0  0  0  0  0  0  0  0  0  0  0  0  # atno 17320 bound_to 7965
  146.3531  140.0693  142.8624 LP  0  0  0  0  0  0  0  0  0  0  0  0  # atno 17321 bound_to 7965
  139.5460  144.2519  152.1444 LP  0  0  0  0  0  0  0  0  0  0  0  0  # atno 17342 bound_to 10162
  140.1745  144.4904  150.6561 LP  0  0  0  0  0  0  0  0  0  0  0  0  # atno 17343 bound_to 10162
  156.0452  130.3729  150.1335 LP  0  0  0  0  0  0  0  0  0  0  0  0  # atno 17370 bound_to 10713
  156.9518  130.9777  151.3496 LP  0  0  0  0  0  0  0  0  0  0  0  0  # atno 17371 bound_to 10713
  141.2117  133.7681  156.9846 LP  0  0  0  0  0  0  0  0  0  0  0  0  # atno 17394 bound_to 11000
  140.1061  134.9505  157.1997 LP  0  0  0  0  0  0  0  0  0  0  0  0  # atno 17395 bound_to 11000

$$$$
