AV-unprocessed.smi:1335|AV-procd|sdf|5495|dock2
  -GOLD-   22720 5 73D 1   1.00000     0.00000
 Structure written by MMmdl.
 47 49  0  0  0  0  0  0  0  0  1 V2000
  153.5389  141.1541  161.1670 C   0  0  0  0  0  0  0  0  0  0  0  0
  153.0690  141.1152  159.8276 O   0  0  0  0  0  0  0  0  0  0  0  0
  152.2091  142.1078  159.4035 C   0  0  0  0  0  0  0  0  0  0  0  0
  152.1564  143.3981  159.9912 C   0  0  0  0  0  0  0  0  0  0  0  0
  151.2477  144.3651  159.5209 C   0  0  0  0  0  0  0  0  0  0  0  0
  150.3774  144.0585  158.4607 C   0  0  0  0  0  0  0  0  0  0  0  0
  150.4208  142.7839  157.8684 C   0  0  0  0  0  0  0  0  0  0  0  0
  151.3321  141.8116  158.3306 C   0  0  0  0  0  0  0  0  0  0  0  0
  151.3422  140.4474  157.6558 C   0  0  0  0  0  0  0  0  0  0  0  0
  150.4248  139.5400  158.2465 O   0  0  0  0  0  0  0  0  0  0  0  0
  150.0828  138.4426  157.4117 C   0  0  0  0  0  0  0  0  0  0  0  0
  149.7377  137.2420  158.3043 C   0  0  1  0  0  0  0  0  0  0  0  0
  150.6647  137.2259  159.3708 O   0  0  0  0  0  0  0  0  0  0  0  0
  148.3115  137.3427  158.8855 C   0  0  0  0  0  0  0  0  0  0  0  0
  147.9923  136.1850  159.7163 N   0  0  0  0  0  0  0  0  0  0  0  0
  147.6220  136.2062  161.0179 C   0  0  0  0  0  0  0  0  0  0  0  0
  147.4879  137.2128  161.7133 O   0  0  0  0  0  0  0  0  0  0  0  0
  147.4441  134.9270  161.4232 N   0  0  0  0  0  0  0  0  0  0  0  0
  147.0476  134.4749  162.7512 C   0  0  0  0  0  0  0  0  0  0  0  0
  147.7360  134.0630  160.3599 C   0  0  0  0  0  0  0  0  0  0  0  0
  147.7246  132.6601  160.2811 C   0  0  0  0  0  0  0  0  0  0  0  0
  148.0857  132.0802  159.0422 C   0  0  0  0  0  0  0  0  0  0  0  0
  148.4437  132.8936  157.9353 C   0  0  0  0  0  0  0  0  0  0  0  0
  148.4480  134.3042  158.0432 C   0  0  0  0  0  0  0  0  0  0  0  0
  148.0824  134.8539  159.2845 C   0  0  0  0  0  0  0  0  0  0  0  0
  154.1836  140.2938  161.3462 H   0  0  0  0  0  0  0  0  0  0  0  0
  152.7151  141.1017  161.8803 H   0  0  0  0  0  0  0  0  0  0  0  0
  154.1280  142.0519  161.3577 H   0  0  0  0  0  0  0  0  0  0  0  0
  152.8042  143.6738  160.8090 H   0  0  0  0  0  0  0  0  0  0  0  0
  151.2181  145.3436  159.9768 H   0  0  0  0  0  0  0  0  0  0  0  0
  149.6782  144.7994  158.1017 H   0  0  0  0  0  0  0  0  0  0  0  0
  149.7496  142.5511  157.0547 H   0  0  0  0  0  0  0  0  0  0  0  0
  151.0409  140.5886  156.6174 H   0  0  0  0  0  0  0  0  0  0  0  0
  152.3417  140.0132  157.6163 H   0  0  0  0  0  0  0  0  0  0  0  0
  149.2242  138.7205  156.7982 H   0  0  0  0  0  0  0  0  0  0  0  0
  150.8988  138.1854  156.7348 H   0  0  0  0  0  0  0  0  0  0  0  0
  149.8625  136.3255  157.7254 H   0  0  0  0  0  0  0  0  0  0  0  0
  151.3131  137.8959  159.2153 H   0  0  0  0  0  0  0  0  0  0  0  0
  148.1717  138.2713  159.4422 H   0  0  0  0  0  0  0  0  0  0  0  0
  147.5779  137.3828  158.0797 H   0  0  0  0  0  0  0  0  0  0  0  0
  147.8997  134.0297  163.2658 H   0  0  0  0  0  0  0  0  0  0  0  0
  146.2610  133.7234  162.6775 H   0  0  0  0  0  0  0  0  0  0  0  0
  146.6695  135.2934  163.3652 H   0  0  0  0  0  0  0  0  0  0  0  0
  147.4546  132.0483  161.1290 H   0  0  0  0  0  0  0  0  0  0  0  0
  148.0904  131.0051  158.9385 H   0  0  0  0  0  0  0  0  0  0  0  0
  148.7176  132.4302  156.9991 H   0  0  0  0  0  0  0  0  0  0  0  0
  148.7231  134.9267  157.2047 H   0  0  0  0  0  0  0  0  0  0  0  0
  1  2  1  0  0  0  0
  1 26  1  0  0  0  0
  1 27  1  0  0  0  0
  1 28  1  0  0  0  0
  2  3  1  0  0  0  0
  3  8  1  0  0  0  0
  3  4  2  0  0  0  0
  4  5  1  0  0  0  0
  4 29  1  0  0  0  0
  5  6  2  0  0  0  0
  5 30  1  0  0  0  0
  6  7  1  0  0  0  0
  6 31  1  0  0  0  0
  7  8  2  0  0  0  0
  7 32  1  0  0  0  0
  8  9  1  0  0  0  0
  9 10  1  0  0  0  0
  9 33  1  0  0  0  0
  9 34  1  0  0  0  0
 10 11  1  0  0  0  0
 11 12  1  0  0  0  0
 11 35  1  0  0  0  0
 11 36  1  0  0  0  0
 12 13  1  0  0  0  0
 12 14  1  0  0  0  0
 12 37  1  0  0  0  0
 13 38  1  0  0  0  0
 14 15  1  0  0  0  0
 14 39  1  0  0  0  0
 14 40  1  0  0  0  0
 15 25  1  0  0  0  0
 15 16  1  0  0  0  0
 16 17  2  0  0  0  0
 16 18  1  0  0  0  0
 18 19  1  0  0  0  0
 18 20  1  0  0  0  0
 19 41  1  0  0  0  0
 19 42  1  0  0  0  0
 19 43  1  0  0  0  0
 20 25  2  0  0  0  0
 20 21  1  0  0  0  0
 21 22  2  0  0  0  0
 21 44  1  0  0  0  0
 22 23  1  0  0  0  0
 22 45  1  0  0  0  0
 23 24  2  0  0  0  0
 23 46  1  0  0  0  0
 24 25  1  0  0  0  0
 24 47  1  0  0  0  0
M  END
> <s_m_source_file>
AV-unprocessed.smi

> <i_m_source_file_index>
1335

> <i_lp_mmshare_version>
43012

> <i_f3d_flags>
0

> <s_epik_input>
W0NIM11PYzFbY0hdW2NIXVtjSF1bY0hdYzFbQ0gyXU9bQ0gyXVtDQEhdKFtPSF0pW0NIMl1uKGMoPU8pbjJbQ0gzXSljKGMyMylbY0hdW2NIXVtjSF1bY0hdMw==

> <s_epik_cmdline>
J2VwaWtfcHl0aG9uJywgJy1waCcsICc3LjAnLCAnLXRuJywgJzgnLCAnLW1hJywgJzIwMCcsICctbWV0YWxfYmluZGluZycsICctaW1hZScsICc8aW5maWxlLm1hZT4nLCAnLW9tYWUnLCAnPG91dGZpbGUubWFlPic=

> <r_lp_tautomer_probability>
1

> <r_epik_Ionization_Penalty>
1.07897e-06

> <r_epik_Ionization_Penalty_Charging>
2.2947e-09

> <r_epik_Ionization_Penalty_Neutral>
1.07667e-06

> <r_epik_State_Penalty>
-0

> <r_epik_Charging_Adjusted_Penalty>
2.2947e-09

> <i_epik_Tot_Q>
0

> <i_epik_Tot_abs_Q>
0

> <r_epik_Metal_State_Penalty>
-0

> <b_epik_Metal_Only>
0

> <s_lp_Force_Field>
OPLS_2005

> <r_lp_Energy>
49.5291

> <b_lp_Chiralities_Consistent>
1

> <s_lp_Variant>
AV-unprocessed.smi:1335-2

> <Gold.Version>
5.8.1

> <Gold.Id.Protein>
6NUR|6NUR_protein|mol2

> <Gold.PLP.Fitness>
53.4169

> <Gold.PLP.PLP>
-47.6420

> <Gold.PLP.part.hbond>
-3.0000

> <Gold.PLP.part.metal>
0.0000

> <Gold.PLP.part.buried>
-5.7792

> <Gold.PLP.part.nonpolar>
-39.5276

> <Gold.PLP.part.repulsive>
0.0000

> <Gold.PLP.ligand.clash>
0.0000

> <Gold.PLP.ligand.torsion>
1.1826

> <Gold.PLP.Chemscore.Hbond>
2.6393

> <Gold.PLP.Chemscore.CHOScore>
0.0000

> <Gold.PLP.Chemscore.Metal>
0.0000

> <Gold.Chemscore.Hbonds>
donor molecule, donor type, donor heavy atom, donor atom, acceptor molecule, acceptor atom, score
      P1  H  6896  6908       L1    13  0.44
      P1  H  6931  6943       L1    17  0.93
      P1  H  6934  6947       L1    17  0.78

> <Gold.PLP.Chemscore.Internal.Correction>
0.2224

> <Gold.Rescore>
     Score         DG    S(hbond)    S(metal)    S(lipo)     H(rot)  DE(clash)    DE(int)     intcor
     19.88     -20.92       2.64        0.00     111.27       2.50       0.01       1.03       ----

> <Gold.Chemscore.Fitness>
19.8754

> <Gold.Chemscore.DG>
-20.9194

> <Gold.Chemscore.ZeroCoef>
-5.4800

> <Gold.Chemscore.Hbond>
2.6441

> <Gold.Chemscore.Metal>
0.0000

> <Gold.Chemscore.Lipo>
111.2652

> <Gold.Chemscore.Internal_Hbond>
0.0000

> <Gold.Chemscore.DEClash>
0.0121

> <Gold.Chemscore.DEInternal>
1.0319

> <Gold.Chemscore.Rot>
2.5038

> <Gold.Chemscore.Internal.Correction>
   9.000000E+99

> <Gold.Chemscore.Hbonds>
donor molecule, donor type, donor heavy atom, donor atom, acceptor molecule, acceptor atom, score
      P1  H  6896  6908       L1    13  0.24
      P1  H  6931  6943       L1    17  0.84
      P1  H  6934  6947       L1    17  0.75

> <Gold.Chemscore.Hbond.Weighted>
-8.8312

> <Gold.Chemscore.Metal.Weighted>
-0.0000

> <Gold.Chemscore.Lipo.Weighted>
-13.0180

> <Gold.Chemscore.Internal_Hbond.Weighted>
0.0000

> <Gold.Chemscore.DEClash.Weighted>
0.0121

> <Gold.Chemscore.DEInternal.Weighted>
1.0319

> <Gold.Chemscore.Rot.Weighted>
6.4098

> <Gold.Chemscore.Internal.Correction.Weighted>
   9.000000E+99

> <Gold.Protein.RotatedTorsions>
[ 6907 6896 6895 6894 ] final -152.37 input  -60.11 | X-H torsion
[ 7974 7965 7964 7962 ] final   87.57 input  175.53 | X-H torsion
[ 8008 7997 7996 7995 ] final   55.28 input   59.86 | X-H torsion
[ 10167 10162 10161 10158 ] final   46.14 input  -65.29 | X-H torsion
[ 10718 10713 10712 10709 ] final  -21.80 input   66.30 | X-H torsion
[ 10763 10752 10751 10750 ] final   82.70 input  -60.55 | X-H torsion
[ 11005 11000 10999 10996 ] final    8.68 input  -57.11 | X-H torsion

> <Gold.Protein.ActiveResidues>
 VAL166  LYS551  ARG553  GLY616  TRP617  ASP618  TYR619  PRO620  LYS621  CYS622 
 ASP623  PHE694  ASN695  SER759  ASP760  ASP761  ALA762  ILE779  LEU786  VAL792 
 PHE793  MET794  SER795  GLU796  ALA797  LYS798  CYS799  TRP800  GLU811  SER814 

> <Gold.Protein.RotatedAtoms>
  151.2268  133.4472  159.2602 H   0  0  0  0  0  0  0  0  0  0  0  0  # atno 6907 bound_to 6896
  151.0832  134.9871  159.8376 H   0  0  0  0  0  0  0  0  0  0  0  0  # atno 6908 bound_to 6896
  152.5426  134.2206  159.8839 H   0  0  0  0  0  0  0  0  0  0  0  0  # atno 6909 bound_to 6896
  145.5572  139.2300  143.2480 H   0  0  0  0  0  0  0  0  0  0  0  0  # atno 7974 bound_to 7965
  155.4985  140.3473  155.4367 H   0  0  0  0  0  0  0  0  0  0  0  0  # atno 8008 bound_to 7997
  156.0929  140.1415  156.9596 H   0  0  0  0  0  0  0  0  0  0  0  0  # atno 8009 bound_to 7997
  154.4646  140.0922  156.6963 H   0  0  0  0  0  0  0  0  0  0  0  0  # atno 8010 bound_to 7997
  140.3169  144.2752  150.6189 H   0  0  0  0  0  0  0  0  0  0  0  0  # atno 10167 bound_to 10162
  156.5133  130.4615  149.6636 H   0  0  0  0  0  0  0  0  0  0  0  0  # atno 10718 bound_to 10713
  153.1226  135.4718  154.9220 H   0  0  0  0  0  0  0  0  0  0  0  0  # atno 10763 bound_to 10752
  154.7589  135.3126  154.8418 H   0  0  0  0  0  0  0  0  0  0  0  0  # atno 10764 bound_to 10752
  153.8979  135.6878  153.4810 H   0  0  0  0  0  0  0  0  0  0  0  0  # atno 10765 bound_to 10752
  140.5342  134.0437  155.7883 H   0  0  0  0  0  0  0  0  0  0  0  0  # atno 11005 bound_to 11000
  146.1876  140.6396  142.9160 LP  0  0  0  0  0  0  0  0  0  0  0  0  # atno 17320 bound_to 7965
  144.7501  140.5168  143.6808 LP  0  0  0  0  0  0  0  0  0  0  0  0  # atno 17321 bound_to 7965
  140.5518  143.2205  151.7914 LP  0  0  0  0  0  0  0  0  0  0  0  0  # atno 17342 bound_to 10162
  139.4882  144.4466  151.9702 LP  0  0  0  0  0  0  0  0  0  0  0  0  # atno 17343 bound_to 10162
  156.3220  130.7285  151.2199 LP  0  0  0  0  0  0  0  0  0  0  0  0  # atno 17370 bound_to 10713
  157.7447  131.0453  150.4837 LP  0  0  0  0  0  0  0  0  0  0  0  0  # atno 17371 bound_to 10713
  141.1264  133.9376  157.2626 LP  0  0  0  0  0  0  0  0  0  0  0  0  # atno 17394 bound_to 11000
  139.9538  135.0170  156.9070 LP  0  0  0  0  0  0  0  0  0  0  0  0  # atno 17395 bound_to 11000

$$$$
