AV-unprocessed.smi:601|AV-procd|sdf|3033|dock7
  -GOLD-   2262023553D 1   1.00000     0.00000
 Structure written by MMmdl.
 49 50  0  0  0  0  0  0  0  0  2 V2000
  147.8877  134.6173  154.6427 C   0  0  0  0  0  0  0  0  0  0  0  0
  148.0037  135.9505  155.3937 C   0  0  0  0  0  0  0  0  0  0  0  0
  146.6940  136.4000  156.0607 C   0  0  0  0  0  0  0  0  0  0  0  0
  146.8308  137.6991  156.8787 C   0  0  0  0  0  0  0  0  0  0  0  0
  147.6723  137.5115  158.0703 N   0  0  0  0  0  0  0  0  0  0  0  0
  147.1934  136.8697  159.1691 C   0  0  0  0  0  0  0  0  0  0  0  0
  146.0181  136.5036  159.2439 O   0  0  0  0  0  0  0  0  0  0  0  0
  148.1538  136.5473  160.3441 C   0  0  2  0  0  0  0  0  0  0  0  0
  148.2015  135.0673  160.7476 C   0  0  0  0  0  0  0  0  0  0  0  0
  147.0607  134.9049  161.7451 C   0  0  0  0  0  0  0  0  0  0  0  0
  146.6762  136.3395  162.1183 C   0  0  0  0  0  0  0  0  0  0  0  0
  147.6907  137.1552  161.5441 O   0  0  0  0  0  0  0  0  0  0  0  0
  148.9999  137.9696  157.9862 C   0  0  0  0  0  0  0  0  0  0  0  0
  149.2983  139.2901  157.8638 C   0  0  0  0  0  0  0  0  0  0  0  0
  148.2910  140.2419  157.7903 N   0  0  0  0  0  0  0  0  0  0  0  0
  150.6546  139.7090  157.8080 N   0  0  0  0  0  0  0  0  0  0  0  0
  150.9572  141.1463  157.6392 C   0  0  0  0  0  0  0  0  0  0  0  0
  151.7385  141.7021  158.8424 C   0  0  0  0  0  0  0  0  0  0  0  0
  152.1401  143.1685  158.6526 C   0  0  0  0  0  0  0  0  0  0  0  0
  151.6720  138.8019  157.9310 C   0  0  0  0  0  0  0  0  0  0  0  0
  152.8383  139.1985  157.9201 O   0  0  0  0  0  0  0  0  0  0  0  0
  151.3678  137.4792  158.0664 N   0  5  0  0  0  0  0  0  0  0  0  0
  150.0961  137.0007  158.1021 C   0  0  0  0  0  0  0  0  0  0  0  0
  149.8513  135.8013  158.2351 O   0  0  0  0  0  0  0  0  0  0  0  0
  148.8211  134.3807  154.1315 H   0  0  0  0  0  0  0  0  0  0  0  0
  147.0990  134.6561  153.8908 H   0  0  0  0  0  0  0  0  0  0  0  0
  147.6671  133.7920  155.3193 H   0  0  0  0  0  0  0  0  0  0  0  0
  148.7977  135.8885  156.1386 H   0  0  0  0  0  0  0  0  0  0  0  0
  148.3142  136.7188  154.6850 H   0  0  0  0  0  0  0  0  0  0  0  0
  145.9479  136.5548  155.2808 H   0  0  0  0  0  0  0  0  0  0  0  0
  146.3106  135.5937  156.6867 H   0  0  0  0  0  0  0  0  0  0  0  0
  147.2375  138.5032  156.2639 H   0  0  0  0  0  0  0  0  0  0  0  0
  145.8372  138.0370  157.1776 H   0  0  0  0  0  0  0  0  0  0  0  0
  149.1588  136.8963  160.1056 H   0  0  0  0  0  0  0  0  0  0  0  0
  148.1251  134.3798  159.9042 H   0  0  0  0  0  0  0  0  0  0  0  0
  149.1506  134.8612  161.2436 H   0  0  0  0  0  0  0  0  0  0  0  0
  146.2120  134.3857  161.2987 H   0  0  0  0  0  0  0  0  0  0  0  0
  147.3833  134.3333  162.6158 H   0  0  0  0  0  0  0  0  0  0  0  0
  145.7089  136.6053  161.6898 H   0  0  0  0  0  0  0  0  0  0  0  0
  146.6209  136.4906  163.1961 H   0  0  0  0  0  0  0  0  0  0  0  0
  147.3145  139.9871  157.8248 H   0  0  0  0  0  0  0  0  0  0  0  0
  148.4965  141.2306  157.7888 H   0  0  0  0  0  0  0  0  0  0  0  0
  151.5246  141.3237  156.7242 H   0  0  0  0  0  0  0  0  0  0  0  0
  150.0449  141.7227  157.4853 H   0  0  0  0  0  0  0  0  0  0  0  0
  151.1386  141.6098  159.7483 H   0  0  0  0  0  0  0  0  0  0  0  0
  152.6352  141.1031  159.0055 H   0  0  0  0  0  0  0  0  0  0  0  0
  152.7012  143.5329  159.5133 H   0  0  0  0  0  0  0  0  0  0  0  0
  151.2618  143.8036  158.5339 H   0  0  0  0  0  0  0  0  0  0  0  0
  152.7670  143.2933  157.7695 H   0  0  0  0  0  0  0  0  0  0  0  0
  1  2  1  0  0  0  0
  1 25  1  0  0  0  0
  1 26  1  0  0  0  0
  1 27  1  0  0  0  0
  2  3  1  0  0  0  0
  2 28  1  0  0  0  0
  2 29  1  0  0  0  0
  3  4  1  0  0  0  0
  3 30  1  0  0  0  0
  3 31  1  0  0  0  0
  4  5  1  0  0  0  0
  4 32  1  0  0  0  0
  4 33  1  0  0  0  0
  5  6  1  0  0  0  0
  5 13  1  0  0  0  0
  6  7  2  0  0  0  0
  6  8  1  0  0  0  0
  8 12  1  0  0  0  0
  8  9  1  0  0  0  0
  8 34  1  0  0  0  0
  9 10  1  0  0  0  0
  9 35  1  0  0  0  0
  9 36  1  0  0  0  0
 10 11  1  0  0  0  0
 10 37  1  0  0  0  0
 10 38  1  0  0  0  0
 11 12  1  0  0  0  0
 11 39  1  0  0  0  0
 11 40  1  0  0  0  0
 13 23  1  0  0  0  0
 13 14  2  0  0  0  0
 14 15  1  0  0  0  0
 14 16  1  0  0  0  0
 15 41  1  0  0  0  0
 15 42  1  0  0  0  0
 16 17  1  0  0  0  0
 16 20  1  0  0  0  0
 17 18  1  0  0  0  0
 17 43  1  0  0  0  0
 17 44  1  0  0  0  0
 18 19  1  0  0  0  0
 18 45  1  0  0  0  0
 18 46  1  0  0  0  0
 19 47  1  0  0  0  0
 19 48  1  0  0  0  0
 19 49  1  0  0  0  0
 20 21  2  0  0  0  0
 20 22  1  0  0  0  0
 22 23  1  0  0  0  0
 23 24  2  0  0  0  0
M  CHG  1  22  -1
M  END
> <s_m_source_file>
AV-unprocessed.smi

> <i_m_source_file_index>
601

> <i_lp_mmshare_version>
43012

> <i_f3d_flags>
0

> <s_epik_input>
TzFbQ0gyXVtDSDJdW0NIMl1bQ0BIXTFDKD1PKU4oW0NIMl1bQ0gyXVtDSDJdW0NIM10pYzJjKFtOSDJdKW4oW0NIMl1bQ0gyXVtDSDNdKWMoPU8pW25IXWMyPU8=

> <s_epik_cmdline>
J2VwaWtfcHl0aG9uJywgJy1waCcsICc3LjAnLCAnLXRuJywgJzgnLCAnLW1hJywgJzIwMCcsICctbWV0YWxfYmluZGluZycsICctaW1hZScsICc8aW5maWxlLm1hZT4nLCAnLW9tYWUnLCAnPG91dGZpbGUubWFlPic=

> <r_lp_tautomer_probability>
1

> <r_epik_Ionization_Penalty>
5.90608

> <r_epik_Ionization_Penalty_Charging>
4.55687e-07

> <r_epik_Ionization_Penalty_Neutral>
5.90608

> <r_epik_State_Penalty>
5.90604

> <r_epik_Charging_Adjusted_Penalty>
5.90604

> <i_epik_Tot_Q>
-1

> <i_epik_Tot_abs_Q>
1

> <r_epik_Metal_State_Penalty>
1.84043

> <b_epik_Metal_Only>
1

> <s_lp_Force_Field>
OPLS_2005

> <r_lp_Energy>
51.8523

> <b_lp_Chiralities_Consistent>
1

> <s_lp_Variant>
AV-unprocessed.smi:601-3

> <Gold.Version>
5.8.1

> <Gold.Id.Protein>
6NUR|6NUR_protein|mol2

> <Gold.PLP.Fitness>
37.7602

> <Gold.PLP.PLP>
-27.3257

> <Gold.PLP.part.hbond>
-3.8932

> <Gold.PLP.part.metal>
0.0000

> <Gold.PLP.part.buried>
-4.3668

> <Gold.PLP.part.nonpolar>
-18.7939

> <Gold.PLP.part.repulsive>
0.1478

> <Gold.PLP.ligand.clash>
0.0000

> <Gold.PLP.ligand.torsion>
1.4873

> <Gold.PLP.Chemscore.Hbond>
3.6945

> <Gold.PLP.Chemscore.CHOScore>
0.0000

> <Gold.PLP.Chemscore.Metal>
0.0000

> <Gold.Chemscore.Hbonds>
donor molecule, donor type, donor heavy atom, donor atom, acceptor molecule, acceptor atom, score
      P1  H  6896  6908       L1    24  1.00
      P1  H  6931  6943       L1    12  1.00
      P1  H  6934  6947       L1    12  0.77
      P1  H  7997  8009       L1    21  0.78

> <Gold.PLP.Chemscore.Internal.Correction>
2.3255

> <Gold.Rescore>
     Score         DG    S(hbond)    S(metal)    S(lipo)     H(rot)  DE(clash)    DE(int)     intcor
     13.43     -17.46       3.00        0.00      58.80       1.92       0.03       4.00       ----

> <Gold.Chemscore.Fitness>
13.4340

> <Gold.Chemscore.DG>
-17.4629

> <Gold.Chemscore.ZeroCoef>
-5.4800

> <Gold.Chemscore.Hbond>
2.9995

> <Gold.Chemscore.Metal>
0.0000

> <Gold.Chemscore.Lipo>
58.8034

> <Gold.Chemscore.Internal_Hbond>
0.0000

> <Gold.Chemscore.DEClash>
0.0310

> <Gold.Chemscore.DEInternal>
3.9979

> <Gold.Chemscore.Rot>
1.9201

> <Gold.Chemscore.Internal.Correction>
   9.000000E+99

> <Gold.Chemscore.Hbonds>
donor molecule, donor type, donor heavy atom, donor atom, acceptor molecule, acceptor atom, score
      P1  H  6896  6908       L1    24  0.93
      P1  H  6931  6943       L1    12  0.29
      P1  H  6934  6947       L1    12  0.27
      P1  H  7997  8009       L1    21  0.77

> <Gold.Chemscore.Hbond.Weighted>
-10.0183

> <Gold.Chemscore.Metal.Weighted>
-0.0000

> <Gold.Chemscore.Lipo.Weighted>
-6.8800

> <Gold.Chemscore.Internal_Hbond.Weighted>
0.0000

> <Gold.Chemscore.DEClash.Weighted>
0.0310

> <Gold.Chemscore.DEInternal.Weighted>
3.9979

> <Gold.Chemscore.Rot.Weighted>
4.9154

> <Gold.Chemscore.Internal.Correction.Weighted>
   9.000000E+99

> <Gold.Protein.RotatedTorsions>
[ 6907 6896 6895 6894 ] final  179.11 input  -60.11 | X-H torsion
[ 7974 7965 7964 7962 ] final  -13.57 input  175.53 | X-H torsion
[ 8008 7997 7996 7995 ] final  164.88 input   59.86 | X-H torsion
[ 10167 10162 10161 10158 ] final  119.06 input  -65.29 | X-H torsion
[ 10718 10713 10712 10709 ] final  130.25 input   66.30 | X-H torsion
[ 10763 10752 10751 10750 ] final   87.04 input  -60.55 | X-H torsion
[ 11005 11000 10999 10996 ] final  -65.96 input  -57.11 | X-H torsion

> <Gold.Protein.ActiveResidues>
 VAL166  LYS551  ARG553  GLY616  TRP617  ASP618  TYR619  PRO620  LYS621  CYS622 
 ASP623  PHE694  ASN695  SER759  ASP760  ASP761  ALA762  ILE779  LEU786  VAL792 
 PHE793  MET794  SER795  GLU796  ALA797  LYS798  CYS799  TRP800  GLU811  SER814 

> <Gold.Protein.RotatedAtoms>
  151.6769  133.3312  159.3209 H   0  0  0  0  0  0  0  0  0  0  0  0  # atno 6907 bound_to 6896
  150.7841  134.6814  159.6455 H   0  0  0  0  0  0  0  0  0  0  0  0  # atno 6908 bound_to 6896
  152.3906  134.6451  160.0161 H   0  0  0  0  0  0  0  0  0  0  0  0  # atno 6909 bound_to 6896
  146.2109  140.3223  142.8391 H   0  0  0  0  0  0  0  0  0  0  0  0  # atno 7974 bound_to 7965
  156.1845  140.1685  156.8211 H   0  0  0  0  0  0  0  0  0  0  0  0  # atno 8008 bound_to 7997
  154.5398  140.0739  156.8523 H   0  0  0  0  0  0  0  0  0  0  0  0  # atno 8009 bound_to 7997
  155.3237  140.3375  155.4243 H   0  0  0  0  0  0  0  0  0  0  0  0  # atno 8010 bound_to 7997
  139.6070  144.7072  151.2930 H   0  0  0  0  0  0  0  0  0  0  0  0  # atno 10167 bound_to 10162
  157.5080  131.1096  150.9334 H   0  0  0  0  0  0  0  0  0  0  0  0  # atno 10718 bound_to 10713
  153.1629  135.4558  154.9797 H   0  0  0  0  0  0  0  0  0  0  0  0  # atno 10763 bound_to 10752
  154.7911  135.3221  154.7778 H   0  0  0  0  0  0  0  0  0  0  0  0  # atno 10764 bound_to 10752
  153.8265  135.6942  153.4874 H   0  0  0  0  0  0  0  0  0  0  0  0  # atno 10765 bound_to 10752
  141.1469  133.6691  156.6066 H   0  0  0  0  0  0  0  0  0  0  0  0  # atno 11005 bound_to 11000
  144.8911  140.7525  143.5926 LP  0  0  0  0  0  0  0  0  0  0  0  0  # atno 17320 bound_to 7965
  145.3146  139.1808  143.4620 LP  0  0  0  0  0  0  0  0  0  0  0  0  # atno 17321 bound_to 7965
  140.7292  143.6914  150.7919 LP  0  0  0  0  0  0  0  0  0  0  0  0  # atno 17342 bound_to 10162
  140.0501  143.5258  152.2677 LP  0  0  0  0  0  0  0  0  0  0  0  0  # atno 17343 bound_to 10162
  156.9984  130.5590  149.5309 LP  0  0  0  0  0  0  0  0  0  0  0  0  # atno 17370 bound_to 10713
  156.0270  130.5364  150.8434 LP  0  0  0  0  0  0  0  0  0  0  0  0  # atno 17371 bound_to 10713
  140.3647  134.7657  157.4558 LP  0  0  0  0  0  0  0  0  0  0  0  0  # atno 17394 bound_to 11000
  140.0757  134.5800  155.8593 LP  0  0  0  0  0  0  0  0  0  0  0  0  # atno 17395 bound_to 11000

$$$$
