AV-unprocessed.smi:473|AV-procd|sdf|2661|dock5
  -GOLD-   2262023 73D 1   1.00000     0.00000
 Structure written by MMmdl.
 42 44  0  0  0  0  0  0  0  0  1 V2000
  153.1011  142.7828  161.4135 C   0  0  0  0  0  0  0  0  0  0  0  0
  152.4225  142.5594  160.0735 C   0  0  0  0  0  0  0  0  0  0  0  0
  152.5936  141.3208  159.4148 C   0  0  0  0  0  0  0  0  0  0  0  0
  151.9771  141.0719  158.1689 C   0  0  0  0  0  0  0  0  0  0  0  0
  152.0067  139.9493  157.3591 N   0  0  0  0  0  0  0  0  0  0  0  0
  151.2398  140.3326  156.3424 C   0  0  0  0  0  0  0  0  0  0  0  0
  150.7165  141.5726  156.3977 N   0  0  0  0  0  0  0  0  0  0  0  0
  149.8579  142.2101  155.4156 C   0  0  0  0  0  0  0  0  0  0  0  0
  148.9809  141.1976  154.6536 C   0  0  2  0  0  0  0  0  0  0  0  0
  149.7608  140.5817  153.6470 O   0  0  0  0  0  0  0  0  0  0  0  0
  147.7682  141.8724  153.9937 C   0  0  0  0  0  0  0  0  0  0  0  0
  147.0471  142.5964  154.9819 O   0  0  0  0  0  0  0  0  0  0  0  0
  145.6692  142.7770  154.6794 C   0  0  0  0  0  0  0  0  0  0  0  0
  145.5206  143.9564  153.7677 C   0  0  0  0  0  0  0  0  0  0  0  0
  146.0235  144.2486  152.5301 C   0  0  0  0  0  0  0  0  0  0  0  0
  145.5052  145.5248  152.1756 C   0  0  0  0  0  0  0  0  0  0  0  0
  144.7164  145.9143  153.2202 C   0  0  0  0  0  0  0  0  0  0  0  0
  144.7109  144.9676  154.1974 O   0  0  0  0  0  0  0  0  0  0  0  0
  151.1799  142.1052  157.5952 C   0  0  0  0  0  0  0  0  0  0  0  0
  151.0030  143.3419  158.2400 C   0  0  0  0  0  0  0  0  0  0  0  0
  151.6248  143.5734  159.4848 C   0  0  0  0  0  0  0  0  0  0  0  0
  151.4245  144.9108  160.1755 C   0  0  0  0  0  0  0  0  0  0  0  0
  153.6724  141.9067  161.7214 H   0  0  0  0  0  0  0  0  0  0  0  0
  152.3608  142.9881  162.1870 H   0  0  0  0  0  0  0  0  0  0  0  0
  153.7882  143.6274  161.3577 H   0  0  0  0  0  0  0  0  0  0  0  0
  153.2003  140.5479  159.8629 H   0  0  0  0  0  0  0  0  0  0  0  0
  151.0449  139.6732  155.5091 H   0  0  0  0  0  0  0  0  0  0  0  0
  149.2306  142.9336  155.9379 H   0  0  0  0  0  0  0  0  0  0  0  0
  150.4785  142.7789  154.7214 H   0  0  0  0  0  0  0  0  0  0  0  0
  148.6358  140.4327  155.3507 H   0  0  0  0  0  0  0  0  0  0  0  0
  149.2077  139.9943  153.1554 H   0  0  0  0  0  0  0  0  0  0  0  0
  148.1161  142.5673  153.2282 H   0  0  0  0  0  0  0  0  0  0  0  0
  147.1305  141.1407  153.4947 H   0  0  0  0  0  0  0  0  0  0  0  0
  145.2357  141.8772  154.2403 H   0  0  0  0  0  0  0  0  0  0  0  0
  145.1344  142.9702  155.6092 H   0  0  0  0  0  0  0  0  0  0  0  0
  146.6851  143.6208  151.9520 H   0  0  0  0  0  0  0  0  0  0  0  0
  145.6842  146.0853  151.2699 H   0  0  0  0  0  0  0  0  0  0  0  0
  144.1143  146.7881  153.4215 H   0  0  0  0  0  0  0  0  0  0  0  0
  150.3914  144.1042  157.7802 H   0  0  0  0  0  0  0  0  0  0  0  0
  150.8042  145.5786  159.5770 H   0  0  0  0  0  0  0  0  0  0  0  0
  152.3826  145.4036  160.3410 H   0  0  0  0  0  0  0  0  0  0  0  0
  150.9341  144.7725  161.1393 H   0  0  0  0  0  0  0  0  0  0  0  0
  1  2  1  0  0  0  0
  1 23  1  0  0  0  0
  1 24  1  0  0  0  0
  1 25  1  0  0  0  0
  2 21  1  0  0  0  0
  2  3  2  0  0  0  0
  3  4  1  0  0  0  0
  3 26  1  0  0  0  0
  4 19  2  0  0  0  0
  4  5  1  0  0  0  0
  5  6  2  0  0  0  0
  6  7  1  0  0  0  0
  6 27  1  0  0  0  0
  7  8  1  0  0  0  0
  7 19  1  0  0  0  0
  8  9  1  0  0  0  0
  8 28  1  0  0  0  0
  8 29  1  0  0  0  0
  9 10  1  0  0  0  0
  9 11  1  0  0  0  0
  9 30  1  0  0  0  0
 10 31  1  0  0  0  0
 11 12  1  0  0  0  0
 11 32  1  0  0  0  0
 11 33  1  0  0  0  0
 12 13  1  0  0  0  0
 13 14  1  0  0  0  0
 13 34  1  0  0  0  0
 13 35  1  0  0  0  0
 14 18  1  0  0  0  0
 14 15  2  0  0  0  0
 15 16  1  0  0  0  0
 15 36  1  0  0  0  0
 16 17  2  0  0  0  0
 16 37  1  0  0  0  0
 17 18  1  0  0  0  0
 17 38  1  0  0  0  0
 19 20  1  0  0  0  0
 20 21  2  0  0  0  0
 20 39  1  0  0  0  0
 21 22  1  0  0  0  0
 22 40  1  0  0  0  0
 22 41  1  0  0  0  0
 22 42  1  0  0  0  0
M  END
> <s_m_source_file>
AV-unprocessed.smi

> <i_m_source_file_index>
473

> <i_lp_mmshare_version>
43012

> <i_f3d_flags>
0

> <s_epik_input>
W0NIM11jKFtjSF0xKWMoW0NIM10pW2NIXWMoYzEyKW4oW2NIXW4yKVtDSDJdW0NASF0oW09IXSlbQ0gyXU9bQ0gyXWMzW2NIXVtjSF1bY0hdbzM=

> <s_epik_cmdline>
J2VwaWtfcHl0aG9uJywgJy1waCcsICc3LjAnLCAnLXRuJywgJzgnLCAnLW1hJywgJzIwMCcsICctbWV0YWxfYmluZGluZycsICctaW1hZScsICc8aW5maWxlLm1hZT4nLCAnLW9tYWUnLCAnPG91dGZpbGUubWFlPic=

> <r_epik_Ionization_Penalty>
0.112477

> <r_epik_Ionization_Penalty_Charging>
0

> <r_epik_Ionization_Penalty_Neutral>
0.112477

> <r_epik_State_Penalty>
0.102177

> <r_epik_Charging_Adjusted_Penalty>
0.102177

> <i_epik_Tot_Q>
0

> <i_epik_Tot_abs_Q>
0

> <r_epik_Metal_State_Penalty>
0.000111506

> <b_epik_Metal_Only>
0

> <s_lp_Force_Field>
OPLS_2005

> <r_lp_Energy>
9.85232

> <b_lp_Chiralities_Consistent>
1

> <s_lp_Variant>
AV-unprocessed.smi:473-1

> <Gold.Version>
5.8.1

> <Gold.Id.Protein>
6NUR|6NUR_protein|mol2

> <Gold.PLP.Fitness>
59.1001

> <Gold.PLP.PLP>
-52.3236

> <Gold.PLP.part.hbond>
-3.4056

> <Gold.PLP.part.metal>
0.0000

> <Gold.PLP.part.buried>
-3.1054

> <Gold.PLP.part.nonpolar>
-45.2566

> <Gold.PLP.part.repulsive>
0.2876

> <Gold.PLP.ligand.clash>
0.0000

> <Gold.PLP.ligand.torsion>
0.8386

> <Gold.PLP.Chemscore.Hbond>
2.7840

> <Gold.PLP.Chemscore.CHOScore>
0.0000

> <Gold.PLP.Chemscore.Metal>
0.0000

> <Gold.Chemscore.Hbonds>
donor molecule, donor type, donor heavy atom, donor atom, acceptor molecule, acceptor atom, score
      L1  H    10    31       P1  7957  0.24
      P1  H  7989  7998       L1    10  0.50
      P1  H  8011  8017       L1    10  0.34

> <Gold.PLP.Chemscore.Internal.Correction>
0.1016

> <Gold.Rescore>
     Score         DG    S(hbond)    S(metal)    S(lipo)     H(rot)  DE(clash)    DE(int)     intcor
     16.18     -18.41       0.86        0.00     138.51       2.41       1.21       1.02       ----

> <Gold.Chemscore.Fitness>
16.1806

> <Gold.Chemscore.DG>
-18.4082

> <Gold.Chemscore.ZeroCoef>
-5.4800

> <Gold.Chemscore.Hbond>
0.8645

> <Gold.Chemscore.Metal>
0.0000

> <Gold.Chemscore.Lipo>
138.5143

> <Gold.Chemscore.Internal_Hbond>
0.0000

> <Gold.Chemscore.DEClash>
1.2073

> <Gold.Chemscore.DEInternal>
1.0204

> <Gold.Chemscore.Rot>
2.4083

> <Gold.Chemscore.Internal.Correction>
   9.000000E+99

> <Gold.Chemscore.Hbonds>
donor molecule, donor type, donor heavy atom, donor atom, acceptor molecule, acceptor atom, score
      L1  H    10    31       P1  7957  0.22
      P1  H  7989  7998       L1    10  0.50
      P1  H  8011  8017       L1    10  0.01

> <Gold.Chemscore.Hbond.Weighted>
-2.8873

> <Gold.Chemscore.Metal.Weighted>
-0.0000

> <Gold.Chemscore.Lipo.Weighted>
-16.2062

> <Gold.Chemscore.Internal_Hbond.Weighted>
0.0000

> <Gold.Chemscore.DEClash.Weighted>
1.2073

> <Gold.Chemscore.DEInternal.Weighted>
1.0204

> <Gold.Chemscore.Rot.Weighted>
6.1653

> <Gold.Chemscore.Internal.Correction.Weighted>
   9.000000E+99

> <Gold.Protein.RotatedTorsions>
[ 6907 6896 6895 6894 ] final  -54.57 input  -60.11 | X-H torsion
[ 7974 7965 7964 7962 ] final  125.96 input  175.53 | X-H torsion
[ 8008 7997 7996 7995 ] final -178.62 input   59.86 | X-H torsion
[ 10167 10162 10161 10158 ] final  131.09 input  -65.29 | X-H torsion
[ 10718 10713 10712 10709 ] final  158.20 input   66.30 | X-H torsion
[ 10763 10752 10751 10750 ] final -146.48 input  -60.55 | X-H torsion
[ 11005 11000 10999 10996 ] final   84.38 input  -57.11 | X-H torsion

> <Gold.Protein.ActiveResidues>
 VAL166  LYS551  ARG553  GLY616  TRP617  ASP618  TYR619  PRO620  LYS621  CYS622 
 ASP623  PHE694  ASN695  SER759  ASP760  ASP761  ALA762  ILE779  LEU786  VAL792 
 PHE793  MET794  SER795  GLU796  ALA797  LYS798  CYS799  TRP800  GLU811  SER814 

> <Gold.Protein.RotatedAtoms>
  150.8327  134.7586  159.6866 H   0  0  0  0  0  0  0  0  0  0  0  0  # atno 6907 bound_to 6896
  152.4429  134.5552  159.9888 H   0  0  0  0  0  0  0  0  0  0  0  0  # atno 6908 bound_to 6896
  151.5709  133.3352  159.3025 H   0  0  0  0  0  0  0  0  0  0  0  0  # atno 6909 bound_to 6896
  145.0671  139.3759  143.4976 H   0  0  0  0  0  0  0  0  0  0  0  0  # atno 7974 bound_to 7965
  156.0209  140.1261  157.0358 H   0  0  0  0  0  0  0  0  0  0  0  0  # atno 8008 bound_to 7997
  154.4311  140.1069  156.6033 H   0  0  0  0  0  0  0  0  0  0  0  0  # atno 8009 bound_to 7997
  155.5945  140.3470  155.4578 H   0  0  0  0  0  0  0  0  0  0  0  0  # atno 8010 bound_to 7997
  139.5400  144.6721  151.4657 H   0  0  0  0  0  0  0  0  0  0  0  0  # atno 10167 bound_to 10162
  157.1812  131.0633  151.2131 H   0  0  0  0  0  0  0  0  0  0  0  0  # atno 10718 bound_to 10713
  154.8333  135.3385  154.6669 H   0  0  0  0  0  0  0  0  0  0  0  0  # atno 10763 bound_to 10752
  153.7286  135.6953  153.4999 H   0  0  0  0  0  0  0  0  0  0  0  0  # atno 10764 bound_to 10752
  153.2329  135.4410  155.0567 H   0  0  0  0  0  0  0  0  0  0  0  0  # atno 10765 bound_to 10752
  139.9002  134.8212  156.2438 H   0  0  0  0  0  0  0  0  0  0  0  0  # atno 11005 bound_to 11000
  146.3527  140.0398  142.8644 LP  0  0  0  0  0  0  0  0  0  0  0  0  # atno 17320 bound_to 7965
  145.1337  140.9532  143.4529 LP  0  0  0  0  0  0  0  0  0  0  0  0  # atno 17321 bound_to 7965
  140.6625  143.8468  150.6904 LP  0  0  0  0  0  0  0  0  0  0  0  0  # atno 17342 bound_to 10162
  140.1867  143.4070  152.1893 LP  0  0  0  0  0  0  0  0  0  0  0  0  # atno 17343 bound_to 10162
  157.3951  130.7303  149.6726 LP  0  0  0  0  0  0  0  0  0  0  0  0  # atno 17370 bound_to 10713
  155.9724  130.4136  150.4090 LP  0  0  0  0  0  0  0  0  0  0  0  0  # atno 17371 bound_to 10713
  141.0268  133.7011  156.1361 LP  0  0  0  0  0  0  0  0  0  0  0  0  # atno 17394 bound_to 11000
  140.7155  134.4415  157.5579 LP  0  0  0  0  0  0  0  0  0  0  0  0  # atno 17395 bound_to 11000

$$$$
