AV-unprocessed.smi:1929|AV-procd|sdf|7808|dock3
  -GOLD-   22720 9553D 1   1.00000     0.00000
 Structure written by MMmdl.
 43 44  0  0  0  0  0  0  0  0  4 V2000
  143.7355  146.2329  155.7436 C   0  0  0  0  0  0  0  0  0  0  0  0
  143.8835  144.9137  155.1408 N   0  5  0  0  0  0  0  0  0  0  0  0
  144.4883  143.8669  155.7641 C   0  0  0  0  0  0  0  0  0  0  0  0
  145.2831  143.8407  156.7097 O   0  0  0  0  0  0  0  0  0  0  0  0
  144.0884  142.5357  155.1174 C   0  0  0  0  0  0  0  0  0  0  0  0
  145.2887  141.8163  154.6208 N   0  3  2  0  0  0  0  0  0  0  0  0
  146.0363  141.1077  155.6953 C   0  0  0  0  0  0  0  0  0  0  0  0
  147.2006  140.2861  155.1153 C   0  0  0  0  0  0  0  0  0  0  0  0
  148.1592  141.1571  154.2801 C   0  0  2  0  0  0  0  0  0  0  0  0
  148.9189  142.0848  155.1187 N   0  0  0  0  0  0  0  0  0  0  0  0
  149.8904  141.7357  155.9750 C   0  0  0  0  0  0  0  0  0  0  0  0
  150.2655  140.5749  156.1365 O   0  0  0  0  0  0  0  0  0  0  0  0
  150.3681  142.8056  156.6343 N   0  0  0  0  0  0  0  0  0  0  0  0
  151.3570  142.8452  157.6549 C   0  0  0  0  0  0  0  0  0  0  0  0
  151.8434  144.1129  158.0446 C   0  0  0  0  0  0  0  0  0  0  0  0
  152.8319  144.2015  159.0459 C   0  0  0  0  0  0  0  0  0  0  0  0
  153.3140  143.0766  159.6161 N   0  3  0  0  0  0  0  0  0  0  0  0
  152.8917  141.8426  159.2666 C   0  0  0  0  0  0  0  0  0  0  0  0
  151.9040  141.6912  158.2721 C   0  0  0  0  0  0  0  0  0  0  0  0
  147.3562  141.9239  153.2154 C   0  0  0  0  0  0  0  0  0  0  0  0
  146.1778  142.7035  153.8277 C   0  0  0  0  0  0  0  0  0  0  0  0
  143.3253  146.9561  155.0389 H   0  0  0  0  0  0  0  0  0  0  0  0
  144.6849  146.6437  156.0891 H   0  0  0  0  0  0  0  0  0  0  0  0
  143.0640  146.2228  156.6022 H   0  0  0  0  0  0  0  0  0  0  0  0
  143.5974  141.9448  155.8919 H   0  0  0  0  0  0  0  0  0  0  0  0
  143.3574  142.6575  154.3147 H   0  0  0  0  0  0  0  0  0  0  0  0
  146.4081  141.8325  156.4212 H   0  0  0  0  0  0  0  0  0  0  0  0
  145.3736  140.4345  156.2392 H   0  0  0  0  0  0  0  0  0  0  0  0
  147.7380  139.7813  155.9188 H   0  0  0  0  0  0  0  0  0  0  0  0
  146.7957  139.4938  154.4842 H   0  0  0  0  0  0  0  0  0  0  0  0
  148.8702  140.5078  153.7660 H   0  0  0  0  0  0  0  0  0  0  0  0
  148.6764  143.0623  155.0487 H   0  0  0  0  0  0  0  0  0  0  0  0
  149.9102  143.6845  156.4416 H   0  0  0  0  0  0  0  0  0  0  0  0
  151.4588  145.0136  157.5880 H   0  0  0  0  0  0  0  0  0  0  0  0
  153.2489  145.1315  159.4043 H   0  0  0  0  0  0  0  0  0  0  0  0
  153.3567  141.0173  159.7860 H   0  0  0  0  0  0  0  0  0  0  0  0
  151.5957  140.6943  157.9964 H   0  0  0  0  0  0  0  0  0  0  0  0
  148.0086  142.6023  152.6641 H   0  0  0  0  0  0  0  0  0  0  0  0
  146.9687  141.2152  152.4820 H   0  0  0  0  0  0  0  0  0  0  0  0
  145.6063  143.1710  153.0248 H   0  0  0  0  0  0  0  0  0  0  0  0
  146.5456  143.5107  154.4629 H   0  0  0  0  0  0  0  0  0  0  0  0
  144.9452  141.1095  153.9861 H   0  0  0  0  0  0  0  0  0  0  0  0
  154.0304  143.1622  160.3379 H   0  0  0  0  0  0  0  0  0  0  0  0
  1  2  1  0  0  0  0
  1 22  1  0  0  0  0
  1 23  1  0  0  0  0
  1 24  1  0  0  0  0
  2  3  1  0  0  0  0
  3  4  2  0  0  0  0
  3  5  1  0  0  0  0
  5  6  1  0  0  0  0
  5 25  1  0  0  0  0
  5 26  1  0  0  0  0
  6 21  1  0  0  0  0
  6  7  1  0  0  0  0
  6 42  1  0  0  0  0
  7  8  1  0  0  0  0
  7 27  1  0  0  0  0
  7 28  1  0  0  0  0
  8  9  1  0  0  0  0
  8 29  1  0  0  0  0
  8 30  1  0  0  0  0
  9 10  1  0  0  0  0
  9 20  1  0  0  0  0
  9 31  1  0  0  0  0
 10 11  1  0  0  0  0
 10 32  1  0  0  0  0
 11 12  2  0  0  0  0
 11 13  1  0  0  0  0
 13 14  1  0  0  0  0
 13 33  1  0  0  0  0
 14 19  1  0  0  0  0
 14 15  2  0  0  0  0
 15 16  1  0  0  0  0
 15 34  1  0  0  0  0
 16 17  2  0  0  0  0
 16 35  1  0  0  0  0
 17 18  1  0  0  0  0
 17 43  1  0  0  0  0
 18 19  2  0  0  0  0
 18 36  1  0  0  0  0
 19 37  1  0  0  0  0
 20 21  1  0  0  0  0
 20 38  1  0  0  0  0
 20 39  1  0  0  0  0
 21 40  1  0  0  0  0
 21 41  1  0  0  0  0
M  CHG  1   2  -1
M  CHG  1   6   1
M  CHG  1  17   1
M  END
> <s_m_source_file>
AV-unprocessed.smi

> <i_m_source_file_index>
1929

> <i_lp_mmshare_version>
43012

> <i_f3d_flags>
0

> <s_epik_input>
W0NIM11bTkhdQyg9TylbQ0gyXU4xW0NIMl1bQ0gyXVtDSF0oW0NIMl1bQ0gyXTEpW05IXUMoPU8pW05IXWMyW2NIXVtjSF1uW2NIXVtjSF0y

> <s_epik_cmdline>
J2VwaWtfcHl0aG9uJywgJy1waCcsICc3LjAnLCAnLXRuJywgJzgnLCAnLW1hJywgJzIwMCcsICctbWV0YWxfYmluZGluZycsICctaW1hZScsICc8aW5maWxlLm1hZT4nLCAnLW9tYWUnLCAnPG91dGZpbGUubWFlPic=

> <r_epik_Ionization_Penalty>
7.25133

> <r_epik_Ionization_Penalty_Charging>
7.25131

> <r_epik_Ionization_Penalty_Neutral>
1.84563e-05

> <r_epik_State_Penalty>
8.093

> <r_epik_Charging_Adjusted_Penalty>
15.3443

> <i_epik_Tot_Q>
1

> <i_epik_Tot_abs_Q>
3

> <r_epik_Metal_State_Penalty>
4.12368

> <b_epik_Metal_Only>
1

> <s_lp_Force_Field>
OPLS_2005

> <r_lp_Energy>
20.7097

> <b_lp_Chiralities_Consistent>
1

> <s_lp_Variant>
AV-unprocessed.smi:1929-10

> <Gold.Version>
5.8.1

> <Gold.Id.Protein>
6NUR|6NUR_protein|mol2

> <Gold.PLP.Fitness>
47.3416

> <Gold.PLP.PLP>
-36.0659

> <Gold.PLP.part.hbond>
-3.0000

> <Gold.PLP.part.metal>
0.0000

> <Gold.PLP.part.buried>
-5.7179

> <Gold.PLP.part.nonpolar>
-27.0711

> <Gold.PLP.part.repulsive>
0.5215

> <Gold.PLP.ligand.clash>
0.0000

> <Gold.PLP.ligand.torsion>
0.3473

> <Gold.PLP.Chemscore.Hbond>
3.9745

> <Gold.PLP.Chemscore.CHOScore>
0.0000

> <Gold.PLP.Chemscore.Metal>
0.0000

> <Gold.Chemscore.Hbonds>
donor molecule, donor type, donor heavy atom, donor atom, acceptor molecule, acceptor atom, score
      L1  H     6    42       P1 10175  1.89
      L1  H    10    32       P1  8028  0.99
      L1  H    13    33       P1  8028  1.00

> <Gold.PLP.Chemscore.Internal.Correction>
0.0469

> <Gold.Rescore>
     Score         DG    S(hbond)    S(metal)    S(lipo)     H(rot)  DE(clash)    DE(int)     intcor
     17.79     -21.06       2.60        0.00      95.26       1.66       1.57       1.69       ----

> <Gold.Chemscore.Fitness>
17.7907

> <Gold.Chemscore.DG>
-21.0598

> <Gold.Chemscore.ZeroCoef>
-5.4800

> <Gold.Chemscore.Hbond>
2.5981

> <Gold.Chemscore.Metal>
0.0000

> <Gold.Chemscore.Lipo>
95.2569

> <Gold.Chemscore.Internal_Hbond>
0.0000

> <Gold.Chemscore.DEClash>
1.5748

> <Gold.Chemscore.DEInternal>
1.6943

> <Gold.Chemscore.Rot>
1.6574

> <Gold.Chemscore.Internal.Correction>
   9.000000E+99

> <Gold.Chemscore.Hbonds>
donor molecule, donor type, donor heavy atom, donor atom, acceptor molecule, acceptor atom, score
      L1  H     6    42       P1 10175  0.63
      L1  H    10    32       P1  8028  0.94
      L1  H    13    33       P1  8028  0.99

> <Gold.Chemscore.Hbond.Weighted>
-8.6777

> <Gold.Chemscore.Metal.Weighted>
-0.0000

> <Gold.Chemscore.Lipo.Weighted>
-11.1451

> <Gold.Chemscore.Internal_Hbond.Weighted>
0.0000

> <Gold.Chemscore.DEClash.Weighted>
1.5748

> <Gold.Chemscore.DEInternal.Weighted>
1.6943

> <Gold.Chemscore.Rot.Weighted>
4.2430

> <Gold.Chemscore.Internal.Correction.Weighted>
   9.000000E+99

> <Gold.Protein.RotatedTorsions>
[ 6907 6896 6895 6894 ] final -151.34 input  -60.11 | X-H torsion
[ 7974 7965 7964 7962 ] final  113.00 input  175.53 | X-H torsion
[ 8008 7997 7996 7995 ] final  143.83 input   59.86 | X-H torsion
[ 10167 10162 10161 10158 ] final   89.41 input  -65.29 | X-H torsion
[ 10718 10713 10712 10709 ] final -145.72 input   66.30 | X-H torsion
[ 10763 10752 10751 10750 ] final  178.60 input  -60.55 | X-H torsion
[ 11005 11000 10999 10996 ] final  153.53 input  -57.11 | X-H torsion

> <Gold.Protein.ActiveResidues>
 VAL166  LYS551  ARG553  GLY616  TRP617  ASP618  TYR619  PRO620  LYS621  CYS622 
 ASP623  PHE694  ASN695  SER759  ASP760  ASP761  ALA762  ILE779  LEU786  VAL792 
 PHE793  MET794  SER795  GLU796  ALA797  LYS798  CYS799  TRP800  GLU811  SER814 

> <Gold.Protein.RotatedAtoms>
  151.2117  133.4552  159.2598 H   0  0  0  0  0  0  0  0  0  0  0  0  # atno 6907 bound_to 6896
  151.0970  134.9950  159.8440 H   0  0  0  0  0  0  0  0  0  0  0  0  # atno 6908 bound_to 6896
  152.5440  134.2046  159.8778 H   0  0  0  0  0  0  0  0  0  0  0  0  # atno 6909 bound_to 6896
  145.2224  139.2856  143.4211 H   0  0  0  0  0  0  0  0  0  0  0  0  # atno 7974 bound_to 7965
  156.2922  140.2252  156.4954 H   0  0  0  0  0  0  0  0  0  0  0  0  # atno 8008 bound_to 7997
  154.7735  140.0465  157.1091 H   0  0  0  0  0  0  0  0  0  0  0  0  # atno 8009 bound_to 7997
  154.9845  140.3082  155.4935 H   0  0  0  0  0  0  0  0  0  0  0  0  # atno 8010 bound_to 7997
  139.8575  144.6561  150.9097 H   0  0  0  0  0  0  0  0  0  0  0  0  # atno 10167 bound_to 10162
  156.3860  130.7861  151.2058 H   0  0  0  0  0  0  0  0  0  0  0  0  # atno 10718 bound_to 10713
  154.5098  135.2788  155.1352 H   0  0  0  0  0  0  0  0  0  0  0  0  # atno 10763 bound_to 10752
  154.2952  135.6259  153.5405 H   0  0  0  0  0  0  0  0  0  0  0  0  # atno 10764 bound_to 10752
  152.9917  135.5683  154.5561 H   0  0  0  0  0  0  0  0  0  0  0  0  # atno 10765 bound_to 10752
  140.1406  134.8741  157.2326 H   0  0  0  0  0  0  0  0  0  0  0  0  # atno 11005 bound_to 11000
  146.3373  140.2534  142.8599 LP  0  0  0  0  0  0  0  0  0  0  0  0  # atno 17320 bound_to 7965
  144.9753  140.8408  143.5430 LP  0  0  0  0  0  0  0  0  0  0  0  0  # atno 17321 bound_to 7965
  140.7779  143.3773  151.1540 LP  0  0  0  0  0  0  0  0  0  0  0  0  # atno 17342 bound_to 10162
  139.7406  143.8931  152.3048 LP  0  0  0  0  0  0  0  0  0  0  0  0  # atno 17343 bound_to 10162
  157.7496  131.0330  150.4251 LP  0  0  0  0  0  0  0  0  0  0  0  0  # atno 17370 bound_to 10713
  156.4504  130.4010  149.6640 LP  0  0  0  0  0  0  0  0  0  0  0  0  # atno 17371 bound_to 10713
  140.2727  134.3442  155.7368 LP  0  0  0  0  0  0  0  0  0  0  0  0  # atno 17394 bound_to 11000
  141.2185  133.7432  156.9246 LP  0  0  0  0  0  0  0  0  0  0  0  0  # atno 17395 bound_to 11000

$$$$
