#       Name:                AV-unprocessed.smi:2878
#       Creating user name   scv26
#       Creation time:       Fri Mar 27 15:51:30 2020


#       File generated by GOLD software.
#

@<TRIPOS>MOLECULE
AV-unprocessed.smi:2878
    48    49     1
SMALL
NO_CHARGES


@<TRIPOS>ATOM
      1 ****        -2.5673   2.6160  -3.1616 C.3            1 S1                 0.0000
      2 ****        -2.8838   0.8368  -3.0179 S.3            1 S1                 0.0000
      3 ****        -3.4973   0.7226  -1.3061 C.3            1 S1                 0.0000
      4 ****        -4.1680  -0.6437  -1.0635 C.3            1 S1                 0.0000
      5 ****        -4.7202  -0.7549   0.3662 C.3            1 S1                 0.0000
      6 ****        -3.6218  -0.4976   1.4084 C.3            1 S1                 0.0000
      7 ****        -2.9462   0.8652   1.1791 C.3            1 S1                 0.0000
      8 ****        -2.3960   1.0111  -0.2558 C.3            1 S1                 0.0000
      9 ****        -1.2372   0.1399  -0.4543 N.am           1 S1                 0.0000
     10 ****         0.0364   0.4769  -0.2107 C.2            1 S1                 0.0000
     11 ****         0.3908   1.5710   0.2289 O.2            1 S1                 0.0000
     12 ****         0.8792  -0.5227  -0.5039 N.am           1 S1                 0.0000
     13 ****         2.3290  -0.4591  -0.3604 C.3            1 S1                 0.0000
     14 ****         2.7668  -0.6388   1.1023 C.3            1 S1                 0.0000
     15 ****         4.2495  -0.5948   1.2596 C.2            1 S1                 0.0000
     16 ****         5.0902  -1.6264   1.2481 N.2            1 S1                 0.0000
     17 ****         6.2866  -0.9884   1.3712 C.2            1 S1                 0.0000
     18 ****         7.5882  -1.7132   1.4186 C.3            1 S1                 0.0000
     19 ****         6.2347   0.3363   1.4362 N.2            1 S1                 0.0000
     20 ****         4.8621   0.6103   1.3508 O.3            1 S1                 0.0000
     21 ****        -2.2644   2.8578  -4.1803 H              1 S1                 0.0000
     22 ****        -1.7682   2.9248  -2.4886 H              1 S1                 0.0000
     23 ****        -3.4662   3.1851  -2.9249 H              1 S1                 0.0000
     24 ****        -4.2696   1.4863  -1.2037 H              1 S1                 0.0000
     25 ****        -4.9780  -0.7912  -1.7785 H              1 S1                 0.0000
     26 ****        -3.4526  -1.4476  -1.2422 H              1 S1                 0.0000
     27 ****        -5.5284  -0.0353   0.5020 H              1 S1                 0.0000
     28 ****        -5.1562  -1.7422   0.5212 H              1 S1                 0.0000
     29 ****        -4.0464  -0.5363   2.4121 H              1 S1                 0.0000
     30 ****        -2.8764  -1.2923   1.3596 H              1 S1                 0.0000
     31 ****        -3.6737   1.6567   1.3627 H              1 S1                 0.0000
     32 ****        -2.1492   1.0141   1.9087 H              1 S1                 0.0000
     33 ****        -2.0767   2.0465  -0.3791 H              1 S1                 0.0000
     34 ****        -1.4234  -0.7834  -0.8177 H              1 S1                 0.0000
     35 ****         0.4922  -1.3842  -0.8609 H              1 S1                 0.0000
     36 ****         2.7643  -1.2461  -0.9769 H              1 S1                 0.0000
     37 ****         2.7002   0.4876  -0.7570 H              1 S1                 0.0000
     38 ****         2.3322   0.1399   1.7303 H              1 S1                 0.0000
     39 ****         2.4032  -1.5916   1.4891 H              1 S1                 0.0000
     40 ****         8.3016  -1.1812   2.0490 H              1 S1                 0.0000
     41 ****         8.0069  -1.7990   0.4157 H              1 S1                 0.0000
     42 ****         7.4532  -2.7159   1.8254 H              1 S1                 0.0000
     43 ****        -0.2912   2.2749   0.4271 LP             1 S1                 0.0000
     44 ****         1.3607   1.7557   0.3876 LP             1 S1                 0.0000
     45 ****         4.8960  -2.6042   1.1702 LP             1 S1                 0.0000
     46 ****         6.9921   0.9832   1.5247 LP             1 S1                 0.0000
     47 ****         4.5528   1.0971   2.1677 LP             1 S1                 0.0000
     48 ****         4.6671   1.1622   0.5400 LP             1 S1                 0.0000
@<TRIPOS>BOND
    1    1    2 1     
    2    1   21 1     
    3    1   22 1     
    4    1   23 1     
    5    2    3 1     
    6    3    8 1     
    7    3    4 1     
    8    3   24 1     
    9    4    5 1     
   10    4   25 1     
   11    4   26 1     
   12    5    6 1     
   13    5   27 1     
   14    5   28 1     
   15    6    7 1     
   16    6   29 1     
   17    6   30 1     
   18    7    8 1     
   19    7   31 1     
   20    7   32 1     
   21    8    9 1     
   22    8   33 1     
   23    9   10 am    
   24    9   34 1     
   25   10   11 2     
   26   10   12 am    
   27   12   13 1     
   28   12   35 1     
   29   13   14 1     
   30   13   36 1     
   31   13   37 1     
   32   14   15 1     
   33   14   38 1     
   34   14   39 1     
   35   15   20 1     
   36   15   16 2     
   37   16   17 1     
   38   17   18 1     
   39   17   19 2     
   40   18   40 1     
   41   18   41 1     
   42   18   42 1     
   43   19   20 1     
   44   11   43 1     
   45   11   44 1     
   46   16   45 1     
   47   19   46 1     
   48   20   47 1     
   49   20   48 1     
@<TRIPOS>SUBSTRUCTURE
      1 S1             1
@<TRIPOS>SET
LONE_PAIRS      STATIC     ATOMS    <user>   **** ""
6 43 44 45 46 47 48
DONOR_HYDROGENS      STATIC     ATOMS    <user>   **** ""
2 34 35
ATOM$BLUE        STATIC     ATOMS    COLORGROUP SYSTEM
6 43 44 45 46 47 48
ATOM$RED        STATIC     ATOMS    COLORGROUP SYSTEM
2 34 35
