AV-unprocessed.smi:629|AV-procd|sdf|3116|dock8
  -GOLD-   22720 0 43D 1   1.00000     0.00000
 Structure written by MMmdl.
 31 32  0  0  0  0  0  0  0  0  1 V2000
  151.8236  134.6414  154.1404 C   0  0  0  0  0  0  0  0  0  0  0  0
  151.4670  136.0007  153.7652 N   0  0  0  0  0  0  0  0  0  0  0  0
  152.1380  137.0939  154.1587 C   0  0  0  0  0  0  0  0  0  0  0  0
  153.1378  137.0507  154.8755 O   0  0  0  0  0  0  0  0  0  0  0  0
  151.6103  138.4419  153.6617 C   0  0  0  0  0  0  0  0  0  0  0  0
  151.4744  139.4123  154.7918 C   0  0  0  0  0  0  0  0  0  0  0  0
  150.3785  140.1482  154.9408 N   0  0  0  0  0  0  0  0  0  0  0  0
  150.6450  140.8967  156.0961 O   0  0  0  0  0  0  0  0  0  0  0  0
  151.8888  140.5350  156.4921 C   0  0  0  0  0  0  0  0  0  0  0  0
  152.4490  141.1260  157.7434 C   0  0  0  0  0  0  0  0  0  0  0  0
  151.3728  141.7819  158.6281 C   0  0  1  0  0  0  0  0  0  0  0  0
  151.9450  142.4142  159.8718 C   0  0  0  0  0  0  0  0  0  0  0  0
  151.5836  143.6868  160.0188 C   0  0  0  0  0  0  0  0  0  0  0  0
  150.6989  144.1649  158.9019 C   0  0  0  0  0  0  0  0  0  0  0  0
  150.6497  142.9642  157.9312 C   0  0  0  0  0  0  0  0  0  0  0  0
  152.4490  139.6044  155.7237 N   0  0  0  0  0  0  0  0  0  0  0  0
  151.0942  133.9410  153.7345 H   0  0  0  0  0  0  0  0  0  0  0  0
  151.8385  134.5276  155.2252 H   0  0  0  0  0  0  0  0  0  0  0  0
  152.8062  134.3767  153.7483 H   0  0  0  0  0  0  0  0  0  0  0  0
  150.6551  136.1200  153.1763 H   0  0  0  0  0  0  0  0  0  0  0  0
  152.2890  138.8516  152.9120 H   0  0  0  0  0  0  0  0  0  0  0  0
  150.6458  138.3005  153.1719 H   0  0  0  0  0  0  0  0  0  0  0  0
  152.9960  140.3603  158.2956 H   0  0  0  0  0  0  0  0  0  0  0  0
  153.1846  141.8744  157.4461 H   0  0  0  0  0  0  0  0  0  0  0  0
  150.6293  141.0406  158.9252 H   0  0  0  0  0  0  0  0  0  0  0  0
  152.5673  141.8630  160.5617 H   0  0  0  0  0  0  0  0  0  0  0  0
  151.8676  144.3243  160.8431 H   0  0  0  0  0  0  0  0  0  0  0  0
  149.7107  144.4102  159.2915 H   0  0  0  0  0  0  0  0  0  0  0  0
  151.1192  145.0528  158.4289 H   0  0  0  0  0  0  0  0  0  0  0  0
  151.1516  143.2321  157.0007 H   0  0  0  0  0  0  0  0  0  0  0  0
  149.6221  142.7043  157.6739 H   0  0  0  0  0  0  0  0  0  0  0  0
  1  2  1  0  0  0  0
  1 17  1  0  0  0  0
  1 18  1  0  0  0  0
  1 19  1  0  0  0  0
  2  3  1  0  0  0  0
  2 20  1  0  0  0  0
  3  4  2  0  0  0  0
  3  5  1  0  0  0  0
  5  6  1  0  0  0  0
  5 21  1  0  0  0  0
  5 22  1  0  0  0  0
  6 16  1  0  0  0  0
  6  7  2  0  0  0  0
  7  8  1  0  0  0  0
  8  9  1  0  0  0  0
  9 10  1  0  0  0  0
  9 16  2  0  0  0  0
 10 11  1  0  0  0  0
 10 23  1  0  0  0  0
 10 24  1  0  0  0  0
 11 15  1  0  0  0  0
 11 12  1  0  0  0  0
 11 25  1  0  0  0  0
 12 13  2  0  0  0  0
 12 26  1  0  0  0  0
 13 14  1  0  0  0  0
 13 27  1  0  0  0  0
 14 15  1  0  0  0  0
 14 28  1  0  0  0  0
 14 29  1  0  0  0  0
 15 30  1  0  0  0  0
 15 31  1  0  0  0  0
M  END
> <s_m_source_file>
AV-unprocessed.smi

> <i_m_source_file_index>
629

> <i_lp_mmshare_version>
43012

> <i_f3d_flags>
0

> <s_epik_input>
W0NIM11bTkhdQyg9TylbQ0gyXWMxbm9jKG4xKVtDSDJdW0NAQEhdMltDSF09W0NIXVtDSDJdW0NIMl0y

> <s_epik_cmdline>
J2VwaWtfcHl0aG9uJywgJy1waCcsICc3LjAnLCAnLXRuJywgJzgnLCAnLW1hJywgJzIwMCcsICctbWV0YWxfYmluZGluZycsICctaW1hZScsICc8aW5maWxlLm1hZT4nLCAnLW9tYWUnLCAnPG91dGZpbGUubWFlPic=

> <r_lp_tautomer_probability>
1

> <r_epik_Ionization_Penalty>
1.02915e-07

> <r_epik_Ionization_Penalty_Charging>
0

> <r_epik_Ionization_Penalty_Neutral>
1.02915e-07

> <r_epik_State_Penalty>
-0

> <r_epik_Charging_Adjusted_Penalty>
0

> <i_epik_Tot_Q>
0

> <i_epik_Tot_abs_Q>
0

> <r_epik_Metal_State_Penalty>
-0

> <b_epik_Metal_Only>
0

> <s_lp_Force_Field>
OPLS_2005

> <r_lp_Energy>
15.6904

> <b_lp_Chiralities_Consistent>
1

> <s_lp_Variant>
AV-unprocessed.smi:629-2

> <Gold.Version>
5.8.1

> <Gold.Id.Protein>
6NUR|6NUR_protein|mol2

> <Gold.PLP.Fitness>
42.6004

> <Gold.PLP.PLP>
-34.5941

> <Gold.PLP.part.hbond>
-3.7286

> <Gold.PLP.part.metal>
0.0000

> <Gold.PLP.part.buried>
-4.7019

> <Gold.PLP.part.nonpolar>
-26.6102

> <Gold.PLP.part.repulsive>
0.2005

> <Gold.PLP.ligand.clash>
0.0000

> <Gold.PLP.ligand.torsion>
0.5069

> <Gold.PLP.Chemscore.Hbond>
3.0000

> <Gold.PLP.Chemscore.CHOScore>
0.0000

> <Gold.PLP.Chemscore.Metal>
0.0000

> <Gold.Chemscore.Hbonds>
donor molecule, donor type, donor heavy atom, donor atom, acceptor molecule, acceptor atom, score
      L1  H     2    20       P1  7949  0.06
      P1  H  7997  8010       L1    16  0.36
      P1  H 10752 10764       L1     4  0.06

> <Gold.PLP.Chemscore.Internal.Correction>
0.0200

> <Gold.Rescore>
     Score         DG    S(hbond)    S(metal)    S(lipo)     H(rot)  DE(clash)    DE(int)     intcor
     11.85     -15.38       1.67        0.00      78.37       1.89       0.04       3.49       ----

> <Gold.Chemscore.Fitness>
11.8521

> <Gold.Chemscore.DG>
-15.3823

> <Gold.Chemscore.ZeroCoef>
-5.4800

> <Gold.Chemscore.Hbond>
1.6664

> <Gold.Chemscore.Metal>
0.0000

> <Gold.Chemscore.Lipo>
78.3666

> <Gold.Chemscore.Internal_Hbond>
0.0000

> <Gold.Chemscore.DEClash>
0.0361

> <Gold.Chemscore.DEInternal>
3.4941

> <Gold.Chemscore.Rot>
1.8877

> <Gold.Chemscore.Internal.Correction>
   9.000000E+99

> <Gold.Chemscore.Hbonds>
donor molecule, donor type, donor heavy atom, donor atom, acceptor molecule, acceptor atom, score
      P1  H  7997  8010       L1    16  0.02
      P1  H 10752 10764       L1     4  0.02

> <Gold.Chemscore.Hbond.Weighted>
-5.5659

> <Gold.Chemscore.Metal.Weighted>
-0.0000

> <Gold.Chemscore.Lipo.Weighted>
-9.1689

> <Gold.Chemscore.Internal_Hbond.Weighted>
0.0000

> <Gold.Chemscore.DEClash.Weighted>
0.0361

> <Gold.Chemscore.DEInternal.Weighted>
3.4941

> <Gold.Chemscore.Rot.Weighted>
4.8325

> <Gold.Chemscore.Internal.Correction.Weighted>
   9.000000E+99

> <Gold.Protein.RotatedTorsions>
[ 6907 6896 6895 6894 ] final   51.05 input  -60.11 | X-H torsion
[ 7974 7965 7964 7962 ] final   51.87 input  175.53 | X-H torsion
[ 8008 7997 7996 7995 ] final   63.85 input   59.86 | X-H torsion
[ 10167 10162 10161 10158 ] final -105.54 input  -65.29 | X-H torsion
[ 10718 10713 10712 10709 ] final   38.30 input   66.30 | X-H torsion
[ 10763 10752 10751 10750 ] final  -27.43 input  -60.55 | X-H torsion
[ 11005 11000 10999 10996 ] final  175.82 input  -57.11 | X-H torsion

> <Gold.Protein.ActiveResidues>
 VAL166  LYS551  ARG553  GLY616  TRP617  ASP618  TYR619  PRO620  LYS621  CYS622 
 ASP623  PHE694  ASN695  SER759  ASP760  ASP761  ALA762  ILE779  LEU786  VAL792 
 PHE793  MET794  SER795  GLU796  ALA797  LYS798  CYS799  TRP800  GLU811  SER814 

> <Gold.Protein.RotatedAtoms>
  152.3085  134.7526  160.0341 H   0  0  0  0  0  0  0  0  0  0  0  0  # atno 6907 bound_to 6896
  151.8015  133.3365  159.3536 H   0  0  0  0  0  0  0  0  0  0  0  0  # atno 6908 bound_to 6896
  150.7308  134.5679  159.5920 H   0  0  0  0  0  0  0  0  0  0  0  0  # atno 6909 bound_to 6896
  145.9870  139.4300  143.0097 H   0  0  0  0  0  0  0  0  0  0  0  0  # atno 7974 bound_to 7965
  155.6367  140.3496  155.4701 H   0  0  0  0  0  0  0  0  0  0  0  0  # atno 8008 bound_to 7997
  155.9959  140.1203  157.0617 H   0  0  0  0  0  0  0  0  0  0  0  0  # atno 8009 bound_to 7997
  154.4233  140.1110  156.5616 H   0  0  0  0  0  0  0  0  0  0  0  0  # atno 8010 bound_to 7997
  140.1974  143.3845  152.1157 H   0  0  0  0  0  0  0  0  0  0  0  0  # atno 10167 bound_to 10162
  157.3572  130.7630  149.7021 H   0  0  0  0  0  0  0  0  0  0  0  0  # atno 10718 bound_to 10713
  153.7319  135.6938  153.4987 H   0  0  0  0  0  0  0  0  0  0  0  0  # atno 10763 bound_to 10752
  153.2130  135.4396  155.0400 H   0  0  0  0  0  0  0  0  0  0  0  0  # atno 10764 bound_to 10752
  154.8250  135.3441  154.6849 H   0  0  0  0  0  0  0  0  0  0  0  0  # atno 10765 bound_to 10752
  140.3664  134.7068  157.4364 H   0  0  0  0  0  0  0  0  0  0  0  0  # atno 11005 bound_to 11000
  145.7686  140.9906  143.1162 LP  0  0  0  0  0  0  0  0  0  0  0  0  # atno 17320 bound_to 7965
  144.6877  139.9419  143.7475 LP  0  0  0  0  0  0  0  0  0  0  0  0  # atno 17321 bound_to 7965
  139.5231  144.7067  151.5332 LP  0  0  0  0  0  0  0  0  0  0  0  0  # atno 17342 bound_to 10162
  140.6414  143.8881  150.6695 LP  0  0  0  0  0  0  0  0  0  0  0  0  # atno 17343 bound_to 10162
  155.9731  130.4124  150.4029 LP  0  0  0  0  0  0  0  0  0  0  0  0  # atno 17370 bound_to 10713
  157.2101  131.0458  151.2604 LP  0  0  0  0  0  0  0  0  0  0  0  0  # atno 17371 bound_to 10713
  140.0586  134.6028  155.8776 LP  0  0  0  0  0  0  0  0  0  0  0  0  # atno 17394 bound_to 11000
  141.1968  133.6593  156.5710 LP  0  0  0  0  0  0  0  0  0  0  0  0  # atno 17395 bound_to 11000

$$$$
