AV-unprocessed.smi:3333|AV-procd|sdf|12833|dock8
  -GOLD-   2272019213D 1   1.00000     0.00000
 Structure written by MMmdl.
 41 43  0  0  0  0  0  0  0  0  1 V2000
  149.6479  133.4475  154.1900 C   0  0  0  0  0  0  0  0  0  0  0  0
  150.5493  134.1187  155.2316 C   0  0  0  0  0  0  0  0  0  0  0  0
  150.3839  135.6013  155.2621 C   0  0  0  0  0  0  0  0  0  0  0  0
  151.4039  136.4546  155.3849 N   0  0  0  0  0  0  0  0  0  0  0  0
  150.9881  137.7904  155.4304 C   0  0  0  0  0  0  0  0  0  0  0  0
  152.0003  138.8898  155.5741 C   0  0  0  0  0  0  0  0  0  0  0  0
  151.2879  140.2389  155.6722 C   0  0  0  0  0  0  0  0  0  0  0  0
  150.6603  140.6777  154.7085 O   0  0  0  0  0  0  0  0  0  0  0  0
  151.3784  140.8749  156.8503 N   0  0  0  0  0  0  0  0  0  0  0  0
  150.6916  142.1141  157.1929 C   0  0  0  0  0  0  0  0  0  0  0  0
  150.9626  142.5294  158.6546 C   0  0  2  0  0  0  0  0  0  0  0  0
  150.0487  143.6567  159.1790 C   0  0  0  0  0  0  0  0  0  0  0  0
  151.0524  144.6542  159.7890 C   0  0  2  0  0  0  0  0  0  0  0  0
  151.7887  145.3859  158.6518 C   0  0  0  0  0  0  0  0  0  0  0  0
  152.7267  144.2966  158.1007 C   0  0  0  0  0  0  0  0  0  0  0  0
  152.3780  143.0717  158.9716 C   0  0  1  0  0  0  0  0  0  0  0  0
  152.1416  143.7314  160.3263 C   0  0  0  0  0  0  0  0  0  0  0  0
  149.6257  137.9344  155.3390 C   0  0  0  0  0  0  0  0  0  0  0  0
  148.8159  136.3978  155.2096 S   0  0  0  0  0  0  0  0  0  0  0  0
  149.7953  132.3675  154.1866 H   0  0  0  0  0  0  0  0  0  0  0  0
  149.8616  133.8173  153.1866 H   0  0  0  0  0  0  0  0  0  0  0  0
  148.5963  133.6384  154.4008 H   0  0  0  0  0  0  0  0  0  0  0  0
  150.3339  133.7182  156.2231 H   0  0  0  0  0  0  0  0  0  0  0  0
  151.5944  133.8891  155.0223 H   0  0  0  0  0  0  0  0  0  0  0  0
  152.6205  138.7374  156.4585 H   0  0  0  0  0  0  0  0  0  0  0  0
  152.6786  138.9029  154.7202 H   0  0  0  0  0  0  0  0  0  0  0  0
  151.9158  140.4350  157.5836 H   0  0  0  0  0  0  0  0  0  0  0  0
  151.0227  142.8889  156.5020 H   0  0  0  0  0  0  0  0  0  0  0  0
  149.6188  142.0052  157.0267 H   0  0  0  0  0  0  0  0  0  0  0  0
  150.8009  141.6506  159.2815 H   0  0  0  0  0  0  0  0  0  0  0  0
  149.4446  144.1156  158.3950 H   0  0  0  0  0  0  0  0  0  0  0  0
  149.3669  143.2735  159.9393 H   0  0  0  0  0  0  0  0  0  0  0  0
  150.6098  145.3251  160.5257 H   0  0  0  0  0  0  0  0  0  0  0  0
  151.1040  145.7681  157.8937 H   0  0  0  0  0  0  0  0  0  0  0  0
  152.3647  146.2280  159.0382 H   0  0  0  0  0  0  0  0  0  0  0  0
  152.5930  144.1218  157.0340 H   0  0  0  0  0  0  0  0  0  0  0  0
  153.7669  144.5880  158.2509 H   0  0  0  0  0  0  0  0  0  0  0  0
  153.1492  142.3005  158.9725 H   0  0  0  0  0  0  0  0  0  0  0  0
  153.0138  144.2658  160.7074 H   0  0  0  0  0  0  0  0  0  0  0  0
  151.7842  143.0396  161.0911 H   0  0  0  0  0  0  0  0  0  0  0  0
  149.0512  138.8489  155.3508 H   0  0  0  0  0  0  0  0  0  0  0  0
  1  2  1  0  0  0  0
  1 20  1  0  0  0  0
  1 21  1  0  0  0  0
  1 22  1  0  0  0  0
  2  3  1  0  0  0  0
  2 23  1  0  0  0  0
  2 24  1  0  0  0  0
  3 19  1  0  0  0  0
  3  4  2  0  0  0  0
  4  5  1  0  0  0  0
  5  6  1  0  0  0  0
  5 18  2  0  0  0  0
  6  7  1  0  0  0  0
  6 25  1  0  0  0  0
  6 26  1  0  0  0  0
  7  8  2  0  0  0  0
  7  9  1  0  0  0  0
  9 10  1  0  0  0  0
  9 27  1  0  0  0  0
 10 11  1  0  0  0  0
 10 28  1  0  0  0  0
 10 29  1  0  0  0  0
 11 16  1  0  0  0  0
 11 12  1  0  0  0  0
 11 30  1  0  0  0  0
 12 13  1  0  0  0  0
 12 31  1  0  0  0  0
 12 32  1  0  0  0  0
 13 17  1  0  0  0  0
 13 14  1  0  0  0  0
 13 33  1  0  0  0  0
 14 15  1  0  0  0  0
 14 34  1  0  0  0  0
 14 35  1  0  0  0  0
 15 16  1  0  0  0  0
 15 36  1  0  0  0  0
 15 37  1  0  0  0  0
 16 17  1  0  0  0  0
 16 38  1  0  0  0  0
 17 39  1  0  0  0  0
 17 40  1  0  0  0  0
 18 19  1  0  0  0  0
 18 41  1  0  0  0  0
M  END
> <s_m_source_file>
AV-unprocessed.smi

> <i_m_source_file_index>
3333

> <i_lp_mmshare_version>
43012

> <i_f3d_flags>
0

> <s_epik_input>
W0NIM11bQ0gyXWMxbmMoW2NIXXMxKVtDSDJdQyg9TylbTkhdW0NIMl1bQ0BIXShbQ0gyXVtDQEBIXTIzKVtDQEBIXShbQ0gyXTMpW0NIMl1bQ0gyXTI=

> <s_epik_cmdline>
J2VwaWtfcHl0aG9uJywgJy1waCcsICc3LjAnLCAnLXRuJywgJzgnLCAnLW1hJywgJzIwMCcsICctbWV0YWxfYmluZGluZycsICctaW1hZScsICc8aW5maWxlLm1hZT4nLCAnLW9tYWUnLCAnPG91dGZpbGUubWFlPic=

> <r_lp_tautomer_probability>
1

> <r_epik_Ionization_Penalty>
6.68371e-05

> <r_epik_Ionization_Penalty_Charging>
0

> <r_epik_Ionization_Penalty_Neutral>
6.68371e-05

> <r_epik_State_Penalty>
-0

> <r_epik_Charging_Adjusted_Penalty>
0

> <i_epik_Tot_Q>
0

> <i_epik_Tot_abs_Q>
0

> <r_epik_Metal_State_Penalty>
-0

> <b_epik_Metal_Only>
0

> <s_lp_Force_Field>
OPLS_2005

> <r_lp_Energy>
42.1731

> <b_lp_Chiralities_Consistent>
1

> <s_lp_Variant>
AV-unprocessed.smi:3333-3

> <Gold.Version>
5.8.1

> <Gold.Id.Protein>
6NUR|6NUR_protein|mol2

> <Gold.PLP.Fitness>
46.1949

> <Gold.PLP.PLP>
-41.0727

> <Gold.PLP.part.hbond>
-1.7635

> <Gold.PLP.part.metal>
0.0000

> <Gold.PLP.part.buried>
-4.6433

> <Gold.PLP.part.nonpolar>
-34.2749

> <Gold.PLP.part.repulsive>
0.3174

> <Gold.PLP.ligand.clash>
0.0000

> <Gold.PLP.ligand.torsion>
0.3645

> <Gold.PLP.Chemscore.Hbond>
1.9440

> <Gold.PLP.Chemscore.CHOScore>
0.0000

> <Gold.PLP.Chemscore.Metal>
0.0000

> <Gold.Chemscore.Hbonds>
donor molecule, donor type, donor heavy atom, donor atom, acceptor molecule, acceptor atom, score
      P1  H  7989  7998       L1     8  0.93
      P1  H 10752 10764       L1     4  1.00

> <Gold.PLP.Chemscore.Internal.Correction>
0.0191

> <Gold.Rescore>
     Score         DG    S(hbond)    S(metal)    S(lipo)     H(rot)  DE(clash)    DE(int)     intcor
     20.77     -22.24       1.94        0.00     119.03       1.42       0.59       0.88       ----

> <Gold.Chemscore.Fitness>
20.7729

> <Gold.Chemscore.DG>
-22.2439

> <Gold.Chemscore.ZeroCoef>
-5.4800

> <Gold.Chemscore.Hbond>
1.9400

> <Gold.Chemscore.Metal>
0.0000

> <Gold.Chemscore.Lipo>
119.0295

> <Gold.Chemscore.Internal_Hbond>
0.0000

> <Gold.Chemscore.DEClash>
0.5913

> <Gold.Chemscore.DEInternal>
0.8797

> <Gold.Chemscore.Rot>
1.4227

> <Gold.Chemscore.Internal.Correction>
   9.000000E+99

> <Gold.Chemscore.Hbonds>
donor molecule, donor type, donor heavy atom, donor atom, acceptor molecule, acceptor atom, score
      P1  H  7989  7998       L1     8  0.64
      P1  H 10752 10764       L1     4  0.55

> <Gold.Chemscore.Hbond.Weighted>
-6.4795

> <Gold.Chemscore.Metal.Weighted>
-0.0000

> <Gold.Chemscore.Lipo.Weighted>
-13.9264

> <Gold.Chemscore.Internal_Hbond.Weighted>
0.0000

> <Gold.Chemscore.DEClash.Weighted>
0.5913

> <Gold.Chemscore.DEInternal.Weighted>
0.8797

> <Gold.Chemscore.Rot.Weighted>
3.6421

> <Gold.Chemscore.Internal.Correction.Weighted>
   9.000000E+99

> <Gold.Protein.RotatedTorsions>
[ 6907 6896 6895 6894 ] final -133.05 input  -60.11 | X-H torsion
[ 7974 7965 7964 7962 ] final -147.51 input  175.53 | X-H torsion
[ 8008 7997 7996 7995 ] final -158.04 input   59.86 | X-H torsion
[ 10167 10162 10161 10158 ] final -162.87 input  -65.29 | X-H torsion
[ 10718 10713 10712 10709 ] final   48.33 input   66.30 | X-H torsion
[ 10763 10752 10751 10750 ] final  -61.34 input  -60.55 | X-H torsion
[ 11005 11000 10999 10996 ] final   21.98 input  -57.11 | X-H torsion

> <Gold.Protein.ActiveResidues>
 VAL166  LYS551  ARG553  GLY616  TRP617  ASP618  TYR619  PRO620  LYS621  CYS622 
 ASP623  PHE694  ASN695  SER759  ASP760  ASP761  ALA762  ILE779  LEU786  VAL792 
 PHE793  MET794  SER795  GLU796  ALA797  LYS798  CYS799  TRP800  GLU811  SER814 

> <Gold.Protein.RotatedAtoms>
  150.9695  133.6359  159.2740 H   0  0  0  0  0  0  0  0  0  0  0  0  # atno 6907 bound_to 6896
  151.3653  135.0911  159.9457 H   0  0  0  0  0  0  0  0  0  0  0  0  # atno 6908 bound_to 6896
  152.5178  133.9260  159.7612 H   0  0  0  0  0  0  0  0  0  0  0  0  # atno 6909 bound_to 6896
  144.8089  140.5318  143.5656 H   0  0  0  0  0  0  0  0  0  0  0  0  # atno 7974 bound_to 7965
  155.7416  140.0815  157.2243 H   0  0  0  0  0  0  0  0  0  0  0  0  # atno 8008 bound_to 7997
  154.4021  140.1577  156.2678 H   0  0  0  0  0  0  0  0  0  0  0  0  # atno 8009 bound_to 7997
  155.9015  140.3409  155.6032 H   0  0  0  0  0  0  0  0  0  0  0  0  # atno 8010 bound_to 7997
  139.6361  144.0347  152.2055 H   0  0  0  0  0  0  0  0  0  0  0  0  # atno 10167 bound_to 10162
  157.4675  130.8235  149.7952 H   0  0  0  0  0  0  0  0  0  0  0  0  # atno 10718 bound_to 10713
  154.2830  135.6268  153.5355 H   0  0  0  0  0  0  0  0  0  0  0  0  # atno 10763 bound_to 10752
  152.9863  135.5637  154.5474 H   0  0  0  0  0  0  0  0  0  0  0  0  # atno 10764 bound_to 10752
  154.5069  135.2875  155.1351 H   0  0  0  0  0  0  0  0  0  0  0  0  # atno 10765 bound_to 10752
  140.3857  134.1873  155.7663 H   0  0  0  0  0  0  0  0  0  0  0  0  # atno 11005 bound_to 11000
  145.5371  139.1475  143.3467 LP  0  0  0  0  0  0  0  0  0  0  0  0  # atno 17320 bound_to 7965
  146.2385  140.5512  142.8944 LP  0  0  0  0  0  0  0  0  0  0  0  0  # atno 17321 bound_to 7965
  140.0025  144.6283  150.7718 LP  0  0  0  0  0  0  0  0  0  0  0  0  # atno 17342 bound_to 10162
  140.7466  143.2893  151.3374 LP  0  0  0  0  0  0  0  0  0  0  0  0  # atno 17343 bound_to 10162
  156.0057  130.3857  150.2439 LP  0  0  0  0  0  0  0  0  0  0  0  0  # atno 17370 bound_to 10713
  157.0620  131.0092  151.3219 LP  0  0  0  0  0  0  0  0  0  0  0  0  # atno 17371 bound_to 10713
  141.1908  133.8208  157.0903 LP  0  0  0  0  0  0  0  0  0  0  0  0  # atno 17394 bound_to 11000
  140.0445  134.9837  157.1023 LP  0  0  0  0  0  0  0  0  0  0  0  0  # atno 17395 bound_to 11000

$$$$
