AV-unprocessed.smi:1049|AV-procd|sdf|4610|dock4
  -GOLD-   22720 3103D 1   1.00000     0.00000
 Structure written by MMmdl.
 41 42  0  0  0  0  0  0  0  0  2 V2000
  145.4610  139.3404  151.7623 C   0  0  0  0  0  0  0  0  0  0  0  0
  146.0587  139.5421  153.1614 C   0  0  2  0  0  0  0  0  0  0  0  0
  145.1015  139.0382  154.2641 C   0  0  0  0  0  0  0  0  0  0  0  0
  145.6268  139.3545  155.6773 C   0  0  0  0  0  0  0  0  0  0  0  0
  146.0218  140.8372  155.7971 C   0  0  0  0  0  0  0  0  0  0  0  0
  147.0161  141.1439  154.7543 N   0  0  0  0  0  0  0  0  0  0  0  0
  148.3527  141.2865  154.9409 C   0  0  0  0  0  0  0  0  0  0  0  0
  149.1348  141.5810  154.0362 O   0  0  0  0  0  0  0  0  0  0  0  0
  148.7681  141.0851  156.2026 N   0  0  0  0  0  0  0  0  0  0  0  0
  150.1551  141.1300  156.6554 C   0  0  0  0  0  0  0  0  0  0  0  0
  150.3378  141.8839  157.9904 C   0  0  0  0  0  0  0  0  0  0  0  0
  151.3425  142.9986  157.9504 C   0  0  0  0  0  0  0  0  0  0  0  0
  151.2727  144.0642  157.1428 N   0  3  0  0  0  0  0  0  0  0  0  0
  152.3470  144.8866  157.3402 C   0  0  0  0  0  0  0  0  0  0  0  0
  153.1081  144.2990  158.3161 C   0  0  0  0  0  0  0  0  0  0  0  0
  152.4684  143.1388  158.6727 N   0  0  0  0  0  0  0  0  0  0  0  0
  152.9148  142.1909  159.6991 C   0  0  0  0  0  0  0  0  0  0  0  0
  154.0800  141.6454  159.3512 F   0  0  0  0  0  0  0  0  0  0  0  0
  153.0175  142.7924  160.8830 F   0  0  0  0  0  0  0  0  0  0  0  0
  146.4312  141.0190  153.4130 C   0  0  0  0  0  0  0  0  0  0  0  0
  144.5406  139.9119  151.6382 H   0  0  0  0  0  0  0  0  0  0  0  0
  145.2281  138.2905  151.5820 H   0  0  0  0  0  0  0  0  0  0  0  0
  146.1581  139.6614  150.9876 H   0  0  0  0  0  0  0  0  0  0  0  0
  146.9748  138.9515  153.2154 H   0  0  0  0  0  0  0  0  0  0  0  0
  144.1266  139.5117  154.1375 H   0  0  0  0  0  0  0  0  0  0  0  0
  144.9365  137.9653  154.1603 H   0  0  0  0  0  0  0  0  0  0  0  0
  144.8686  139.1061  156.4205 H   0  0  0  0  0  0  0  0  0  0  0  0
  146.4914  138.7273  155.8959 H   0  0  0  0  0  0  0  0  0  0  0  0
  145.1436  141.4679  155.6508 H   0  0  0  0  0  0  0  0  0  0  0  0
  146.3607  141.0499  156.8108 H   0  0  0  0  0  0  0  0  0  0  0  0
  148.0688  140.8687  156.8983 H   0  0  0  0  0  0  0  0  0  0  0  0
  150.5605  140.1201  156.7312 H   0  0  0  0  0  0  0  0  0  0  0  0
  150.7263  141.6272  155.8723 H   0  0  0  0  0  0  0  0  0  0  0  0
  149.3941  142.3345  158.3003 H   0  0  0  0  0  0  0  0  0  0  0  0
  150.6290  141.1972  158.7845 H   0  0  0  0  0  0  0  0  0  0  0  0
  152.4840  145.8047  156.7875 H   0  0  0  0  0  0  0  0  0  0  0  0
  154.0346  144.6145  158.7733 H   0  0  0  0  0  0  0  0  0  0  0  0
  152.1832  141.3879  159.7950 H   0  0  0  0  0  0  0  0  0  0  0  0
  147.1036  141.3782  152.6323 H   0  0  0  0  0  0  0  0  0  0  0  0
  145.5436  141.6502  153.3457 H   0  0  0  0  0  0  0  0  0  0  0  0
  150.5273  144.2327  156.4787 H   0  0  0  0  0  0  0  0  0  0  0  0
  1  2  1  0  0  0  0
  1 21  1  0  0  0  0
  1 22  1  0  0  0  0
  1 23  1  0  0  0  0
  2 20  1  0  0  0  0
  2  3  1  0  0  0  0
  2 24  1  0  0  0  0
  3  4  1  0  0  0  0
  3 25  1  0  0  0  0
  3 26  1  0  0  0  0
  4  5  1  0  0  0  0
  4 27  1  0  0  0  0
  4 28  1  0  0  0  0
  5  6  1  0  0  0  0
  5 29  1  0  0  0  0
  5 30  1  0  0  0  0
  6  7  1  0  0  0  0
  6 20  1  0  0  0  0
  7  8  2  0  0  0  0
  7  9  1  0  0  0  0
  9 10  1  0  0  0  0
  9 31  1  0  0  0  0
 10 11  1  0  0  0  0
 10 32  1  0  0  0  0
 10 33  1  0  0  0  0
 11 12  1  0  0  0  0
 11 34  1  0  0  0  0
 11 35  1  0  0  0  0
 12 16  1  0  0  0  0
 12 13  2  0  0  0  0
 13 14  1  0  0  0  0
 13 41  1  0  0  0  0
 14 15  2  0  0  0  0
 14 36  1  0  0  0  0
 15 16  1  0  0  0  0
 15 37  1  0  0  0  0
 16 17  1  0  0  0  0
 17 18  1  0  0  0  0
 17 19  1  0  0  0  0
 17 38  1  0  0  0  0
 20 39  1  0  0  0  0
 20 40  1  0  0  0  0
M  CHG  1  13   1
M  END
> <s_m_source_file>
AV-unprocessed.smi

> <i_m_source_file_index>
1049

> <i_lp_mmshare_version>
43012

> <i_f3d_flags>
0

> <s_epik_input>
W0NIM11bQ0BASF0xW0NIMl1bQ0gyXVtDSDJdTihbQ0gyXTEpQyg9TylbTkhdW0NIMl1bQ0gyXWMybltjSF1bY0hdbjJbQ0hdKEYpRg==

> <s_epik_cmdline>
J2VwaWtfcHl0aG9uJywgJy1waCcsICc3LjAnLCAnLXRuJywgJzgnLCAnLW1hJywgJzIwMCcsICctbWV0YWxfYmluZGluZycsICctaW1hZScsICc8aW5maWxlLm1hZT4nLCAnLW9tYWUnLCAnPG91dGZpbGUubWFlPic=

> <r_lp_tautomer_probability>
1

> <r_epik_Ionization_Penalty>
1.09766

> <r_epik_Ionization_Penalty_Charging>
0

> <r_epik_Ionization_Penalty_Neutral>
1.09766

> <r_epik_State_Penalty>
1.15444

> <r_epik_Charging_Adjusted_Penalty>
1.15444

> <i_epik_Tot_Q>
1

> <i_epik_Tot_abs_Q>
1

> <r_epik_Metal_State_Penalty>
1.24204

> <b_epik_Metal_Only>
0

> <s_lp_Force_Field>
OPLS_2005

> <r_lp_Energy>
36.2432

> <b_lp_Chiralities_Consistent>
1

> <s_lp_Variant>
AV-unprocessed.smi:1049-3

> <Gold.Version>
5.8.1

> <Gold.Id.Protein>
6NUR|6NUR_protein|mol2

> <Gold.PLP.Fitness>
52.7158

> <Gold.PLP.PLP>
-44.5763

> <Gold.PLP.part.hbond>
-3.0000

> <Gold.PLP.part.metal>
0.0000

> <Gold.PLP.part.buried>
-2.7181

> <Gold.PLP.part.nonpolar>
-39.9861

> <Gold.PLP.part.repulsive>
0.2997

> <Gold.PLP.ligand.clash>
0.0000

> <Gold.PLP.ligand.torsion>
0.5403

> <Gold.PLP.Chemscore.Hbond>
3.0484

> <Gold.PLP.Chemscore.CHOScore>
0.0000

> <Gold.PLP.Chemscore.Metal>
0.0000

> <Gold.Chemscore.Hbonds>
donor molecule, donor type, donor heavy atom, donor atom, acceptor molecule, acceptor atom, score
      L1  H    13    41       P1  8028  2.00
      P1  H  8011  8017       L1     8  0.64

> <Gold.PLP.Chemscore.Internal.Correction>
0.0749

> <Gold.Rescore>
     Score         DG    S(hbond)    S(metal)    S(lipo)     H(rot)  DE(clash)    DE(int)     intcor
     14.11     -16.54       1.66        0.00      82.37       1.61       1.80       0.63       ----

> <Gold.Chemscore.Fitness>
14.1077

> <Gold.Chemscore.DG>
-16.5418

> <Gold.Chemscore.ZeroCoef>
-5.4800

> <Gold.Chemscore.Hbond>
1.6567

> <Gold.Chemscore.Metal>
0.0000

> <Gold.Chemscore.Lipo>
82.3735

> <Gold.Chemscore.Internal_Hbond>
0.0000

> <Gold.Chemscore.DEClash>
1.8025

> <Gold.Chemscore.DEInternal>
0.6316

> <Gold.Chemscore.Rot>
1.6051

> <Gold.Chemscore.Internal.Correction>
   9.000000E+99

> <Gold.Chemscore.Hbonds>
donor molecule, donor type, donor heavy atom, donor atom, acceptor molecule, acceptor atom, score
      L1  H    13    41       P1  8028  1.00
      P1  H  8011  8017       L1     8  0.61

> <Gold.Chemscore.Hbond.Weighted>
-5.5333

> <Gold.Chemscore.Metal.Weighted>
-0.0000

> <Gold.Chemscore.Lipo.Weighted>
-9.6377

> <Gold.Chemscore.Internal_Hbond.Weighted>
0.0000

> <Gold.Chemscore.DEClash.Weighted>
1.8025

> <Gold.Chemscore.DEInternal.Weighted>
0.6316

> <Gold.Chemscore.Rot.Weighted>
4.1092

> <Gold.Chemscore.Internal.Correction.Weighted>
   9.000000E+99

> <Gold.Protein.RotatedTorsions>
[ 6907 6896 6895 6894 ] final  144.93 input  -60.11 | X-H torsion
[ 7974 7965 7964 7962 ] final  161.34 input  175.53 | X-H torsion
[ 8008 7997 7996 7995 ] final  142.26 input   59.86 | X-H torsion
[ 10167 10162 10161 10158 ] final   86.75 input  -65.29 | X-H torsion
[ 10718 10713 10712 10709 ] final   21.22 input   66.30 | X-H torsion
[ 10763 10752 10751 10750 ] final  -39.62 input  -60.55 | X-H torsion
[ 11005 11000 10999 10996 ] final   -5.31 input  -57.11 | X-H torsion

> <Gold.Protein.ActiveResidues>
 VAL166  LYS551  ARG553  GLY616  TRP617  ASP618  TYR619  PRO620  LYS621  CYS622 
 ASP623  PHE694  ASN695  SER759  ASP760  ASP761  ALA762  ILE779  LEU786  VAL792 
 PHE793  MET794  SER795  GLU796  ALA797  LYS798  CYS799  TRP800  GLU811  SER814 

> <Gold.Protein.RotatedAtoms>
  152.1874  133.4749  159.4989 H   0  0  0  0  0  0  0  0  0  0  0  0  # atno 6907 bound_to 6896
  150.6945  134.1756  159.4238 H   0  0  0  0  0  0  0  0  0  0  0  0  # atno 6908 bound_to 6896
  151.9670  135.0095  160.0601 H   0  0  0  0  0  0  0  0  0  0  0  0  # atno 6909 bound_to 6896
  144.7690  139.7885  143.6304 H   0  0  0  0  0  0  0  0  0  0  0  0  # atno 7974 bound_to 7965
  156.2952  140.2293  156.4698 H   0  0  0  0  0  0  0  0  0  0  0  0  # atno 8008 bound_to 7997
  154.7945  140.0452  157.1247 H   0  0  0  0  0  0  0  0  0  0  0  0  # atno 8009 bound_to 7997
  154.9606  140.3054  155.5036 H   0  0  0  0  0  0  0  0  0  0  0  0  # atno 8010 bound_to 7997
  139.8844  144.6422  150.8808 H   0  0  0  0  0  0  0  0  0  0  0  0  # atno 10167 bound_to 10162
  157.1354  130.6609  149.5964 H   0  0  0  0  0  0  0  0  0  0  0  0  # atno 10718 bound_to 10713
  153.9325  135.6770  153.4745 H   0  0  0  0  0  0  0  0  0  0  0  0  # atno 10763 bound_to 10752
  153.0972  135.4845  154.8798 H   0  0  0  0  0  0  0  0  0  0  0  0  # atno 10764 bound_to 10752
  154.7421  135.3163  154.8668 H   0  0  0  0  0  0  0  0  0  0  0  0  # atno 10765 bound_to 10752
  140.6897  133.9082  155.8610 H   0  0  0  0  0  0  0  0  0  0  0  0  # atno 11005 bound_to 11000
  146.1822  139.5020  142.9859 LP  0  0  0  0  0  0  0  0  0  0  0  0  # atno 17320 bound_to 7965
  145.6380  141.0290  143.1827 LP  0  0  0  0  0  0  0  0  0  0  0  0  # atno 17321 bound_to 7965
  140.7738  143.3560  151.1920 LP  0  0  0  0  0  0  0  0  0  0  0  0  # atno 17342 bound_to 10162
  139.7167  143.9289  152.2969 LP  0  0  0  0  0  0  0  0  0  0  0  0  # atno 17343 bound_to 10162
  155.9799  130.4796  150.6743 LP  0  0  0  0  0  0  0  0  0  0  0  0  # atno 17370 bound_to 10713
  157.4355  131.0854  151.0996 LP  0  0  0  0  0  0  0  0  0  0  0  0  # atno 17371 bound_to 10713
  141.0251  134.0835  157.4077 LP  0  0  0  0  0  0  0  0  0  0  0  0  # atno 17394 bound_to 11000
  139.8927  135.0126  156.6859 LP  0  0  0  0  0  0  0  0  0  0  0  0  # atno 17395 bound_to 11000

$$$$
