AV-unprocessed.smi:1047|AV-procd|sdf|4581|dock10
  -GOLD-   22720 3 53D 1   1.00000     0.00000
 Structure written by MMmdl.
 58 60  0  0  0  0  0  0  0  0  4 V2000
  148.7824  131.4992  153.3915 C   0  0  0  0  0  0  0  0  0  0  0  0
  149.0238  133.0143  153.4400 C   0  0  0  0  0  0  0  0  0  0  0  0
  149.8060  133.4257  154.6362 N   0  3  2  0  0  0  0  0  0  0  0  0
  149.2347  132.9369  155.9146 C   0  0  0  0  0  0  0  0  0  0  0  0
  148.0308  133.7919  156.3481 C   0  0  0  0  0  0  0  0  0  0  0  0
  148.4296  135.1543  156.4469 O   0  0  0  0  0  0  0  0  0  0  0  0
  148.8706  135.6876  155.2019 C   0  0  1  0  0  0  0  0  0  0  0  0
  149.2140  137.1705  155.4143 C   0  0  0  0  0  0  0  0  0  0  0  0
  150.0337  137.6986  154.3048 N   0  3  0  0  0  0  0  0  0  0  0  0
  151.4898  137.5743  154.5190 C   0  0  0  0  0  0  0  0  0  0  0  0
  152.0956  138.8956  155.0291 C   0  0  2  0  0  0  0  0  0  0  0  0
  153.5034  138.8193  154.9330 O   0  0  0  0  0  0  0  0  0  0  0  0
  151.7476  139.2264  156.4946 C   0  0  0  0  0  0  0  0  0  0  0  0
  151.2304  140.5907  156.6730 N   0  0  0  0  0  0  0  0  0  0  0  0
  150.4083  141.3162  155.8663 C   0  0  0  0  0  0  0  0  0  0  0  0
  150.2222  142.5305  156.4532 N   0  3  0  0  0  0  0  0  0  0  0  0
  150.9398  142.5849  157.6496 C   0  0  0  0  0  0  0  0  0  0  0  0
  151.0633  143.6007  158.5898 C   0  0  0  0  0  0  0  0  0  0  0  0
  151.8773  143.3427  159.7154 C   0  0  0  0  0  0  0  0  0  0  0  0
  152.0348  144.4332  160.7617 C   0  0  0  0  0  0  0  0  0  0  0  0
  152.5369  142.0958  159.8686 C   0  0  0  0  0  0  0  0  0  0  0  0
  153.4096  141.8288  161.0833 C   0  0  0  0  0  0  0  0  0  0  0  0
  152.3999  141.0756  158.9000 C   0  0  0  0  0  0  0  0  0  0  0  0
  151.5927  141.3452  157.7964 C   0  0  0  0  0  0  0  0  0  0  0  0
  150.0985  134.8802  154.7224 C   0  0  0  0  0  0  0  0  0  0  0  0
  148.1324  131.2426  152.5548 H   0  0  0  0  0  0  0  0  0  0  0  0
  148.2986  131.1479  154.3035 H   0  0  0  0  0  0  0  0  0  0  0  0
  149.7077  130.9384  153.2635 H   0  0  0  0  0  0  0  0  0  0  0  0
  149.5040  133.3533  152.5223 H   0  0  0  0  0  0  0  0  0  0  0  0
  148.0479  133.5006  153.4697 H   0  0  0  0  0  0  0  0  0  0  0  0
  148.9575  131.8848  155.8380 H   0  0  0  0  0  0  0  0  0  0  0  0
  150.0096  132.9929  156.6803 H   0  0  0  0  0  0  0  0  0  0  0  0
  147.1985  133.6895  155.6501 H   0  0  0  0  0  0  0  0  0  0  0  0
  147.6693  133.4604  157.3215 H   0  0  0  0  0  0  0  0  0  0  0  0
  148.0664  135.6163  154.4679 H   0  0  0  0  0  0  0  0  0  0  0  0
  148.3019  137.7612  155.5111 H   0  0  0  0  0  0  0  0  0  0  0  0
  149.7730  137.2883  156.3437 H   0  0  0  0  0  0  0  0  0  0  0  0
  149.7971  137.2012  153.4578 H   0  0  0  0  0  0  0  0  0  0  0  0
  151.6520  136.7796  155.2475 H   0  0  0  0  0  0  0  0  0  0  0  0
  151.9756  137.2648  153.5922 H   0  0  0  0  0  0  0  0  0  0  0  0
  151.7592  139.7153  154.3924 H   0  0  0  0  0  0  0  0  0  0  0  0
  153.7855  137.9714  155.2422 H   0  0  0  0  0  0  0  0  0  0  0  0
  151.0339  138.5118  156.9044 H   0  0  0  0  0  0  0  0  0  0  0  0
  152.6427  139.1468  157.1136 H   0  0  0  0  0  0  0  0  0  0  0  0
  149.9824  140.9897  154.9281 H   0  0  0  0  0  0  0  0  0  0  0  0
  150.5595  144.5486  158.4657 H   0  0  0  0  0  0  0  0  0  0  0  0
  153.0773  144.7445  160.8342 H   0  0  0  0  0  0  0  0  0  0  0  0
  151.7098  144.0781  161.7402 H   0  0  0  0  0  0  0  0  0  0  0  0
  151.4407  145.3134  160.5132 H   0  0  0  0  0  0  0  0  0  0  0  0
  153.8565  140.8349  161.0442 H   0  0  0  0  0  0  0  0  0  0  0  0
  152.8213  141.8927  161.9990 H   0  0  0  0  0  0  0  0  0  0  0  0
  154.2200  142.5556  161.1404 H   0  0  0  0  0  0  0  0  0  0  0  0
  152.9046  140.1289  159.0212 H   0  0  0  0  0  0  0  0  0  0  0  0
  150.9163  135.0135  155.4324 H   0  0  0  0  0  0  0  0  0  0  0  0
  150.4637  135.2619  153.7699 H   0  0  0  0  0  0  0  0  0  0  0  0
  149.8109  138.6754  154.1753 H   0  0  0  0  0  0  0  0  0  0  0  0
  150.6962  132.9577  154.5378 H   0  0  0  0  0  0  0  0  0  0  0  0
  149.6511  143.2685  156.0608 H   0  0  0  0  0  0  0  0  0  0  0  0
  1  2  1  0  0  0  0
  1 26  1  0  0  0  0
  1 27  1  0  0  0  0
  1 28  1  0  0  0  0
  2  3  1  0  0  0  0
  2 29  1  0  0  0  0
  2 30  1  0  0  0  0
  3 25  1  0  0  0  0
  3  4  1  0  0  0  0
  3 57  1  0  0  0  0
  4  5  1  0  0  0  0
  4 31  1  0  0  0  0
  4 32  1  0  0  0  0
  5  6  1  0  0  0  0
  5 33  1  0  0  0  0
  5 34  1  0  0  0  0
  6  7  1  0  0  0  0
  7  8  1  0  0  0  0
  7 25  1  0  0  0  0
  7 35  1  0  0  0  0
  8  9  1  0  0  0  0
  8 36  1  0  0  0  0
  8 37  1  0  0  0  0
  9 10  1  0  0  0  0
  9 38  1  0  0  0  0
  9 56  1  0  0  0  0
 10 11  1  0  0  0  0
 10 39  1  0  0  0  0
 10 40  1  0  0  0  0
 11 12  1  0  0  0  0
 11 13  1  0  0  0  0
 11 41  1  0  0  0  0
 12 42  1  0  0  0  0
 13 14  1  0  0  0  0
 13 43  1  0  0  0  0
 13 44  1  0  0  0  0
 14 24  1  0  0  0  0
 14 15  1  0  0  0  0
 15 16  2  0  0  0  0
 15 45  1  0  0  0  0
 16 17  1  0  0  0  0
 16 58  1  0  0  0  0
 17 24  2  0  0  0  0
 17 18  1  0  0  0  0
 18 19  2  0  0  0  0
 18 46  1  0  0  0  0
 19 20  1  0  0  0  0
 19 21  1  0  0  0  0
 20 47  1  0  0  0  0
 20 48  1  0  0  0  0
 20 49  1  0  0  0  0
 21 22  1  0  0  0  0
 21 23  2  0  0  0  0
 22 50  1  0  0  0  0
 22 51  1  0  0  0  0
 22 52  1  0  0  0  0
 23 24  1  0  0  0  0
 23 53  1  0  0  0  0
 25 54  1  0  0  0  0
 25 55  1  0  0  0  0
M  CHG  1   3   1
M  CHG  1   9   1
M  CHG  1  16   1
M  END
> <s_m_source_file>
AV-unprocessed.smi

> <i_m_source_file_index>
1047

> <i_lp_mmshare_version>
43012

> <i_f3d_flags>
0

> <s_epik_input>
W0NIM11bQ0gyXU4xW0NIMl1bQ0gyXU9bQ0BIXShbQ0gyXTEpW0NIMl1bTkhdW0NIMl1bQ0BIXShbT0hdKVtDSDJdbihbY0hdbjIpYyhjMjMpW2NIXWMoW0NIM10pYyhbY0hdMylbQ0gzXQ==

> <s_epik_cmdline>
J2VwaWtfcHl0aG9uJywgJy1waCcsICc3LjAnLCAnLXRuJywgJzgnLCAnLW1hJywgJzIwMCcsICctbWV0YWxfYmluZGluZycsICctaW1hZScsICc8aW5maWxlLm1hZT4nLCAnLW9tYWUnLCAnPG91dGZpbGUubWFlPic=

> <r_epik_Ionization_Penalty>
1.6114

> <r_epik_Ionization_Penalty_Charging>
1.61139

> <r_epik_Ionization_Penalty_Neutral>
5.04732e-06

> <r_epik_State_Penalty>
1.63724

> <r_epik_Charging_Adjusted_Penalty>
3.24864

> <i_epik_Tot_Q>
3

> <i_epik_Tot_abs_Q>
3

> <r_epik_Metal_State_Penalty>
5.64594

> <b_epik_Metal_Only>
0

> <s_lp_Force_Field>
OPLS_2005

> <r_lp_Energy>
44.3097

> <b_lp_Chiralities_Consistent>
1

> <s_lp_Variant>
AV-unprocessed.smi:1047-22

> <Gold.Version>
5.8.1

> <Gold.Id.Protein>
6NUR|6NUR_protein|mol2

> <Gold.PLP.Fitness>
64.2881

> <Gold.PLP.PLP>
-52.4779

> <Gold.PLP.part.hbond>
-2.9355

> <Gold.PLP.part.metal>
0.0000

> <Gold.PLP.part.buried>
-6.4731

> <Gold.PLP.part.nonpolar>
-43.0853

> <Gold.PLP.part.repulsive>
0.2090

> <Gold.PLP.ligand.clash>
0.0000

> <Gold.PLP.ligand.torsion>
1.6915

> <Gold.PLP.Chemscore.Hbond>
5.0000

> <Gold.PLP.Chemscore.CHOScore>
0.0000

> <Gold.PLP.Chemscore.Metal>
0.0000

> <Gold.Chemscore.Hbonds>
donor molecule, donor type, donor heavy atom, donor atom, acceptor molecule, acceptor atom, score
      L1  H     9    38       P1  7948  2.00
      L1  H    16    58       P1  8028  2.00
      P1  H  7997  8009       L1    12  0.91

> <Gold.PLP.Chemscore.Internal.Correction>
0.1931

> <Gold.Rescore>
     Score         DG    S(hbond)    S(metal)    S(lipo)     H(rot)  DE(clash)    DE(int)     intcor
     19.80     -21.64       2.46        0.00     128.93       2.78       0.01       1.83       ----

> <Gold.Chemscore.Fitness>
19.8023

> <Gold.Chemscore.DG>
-21.6389

> <Gold.Chemscore.ZeroCoef>
-5.4800

> <Gold.Chemscore.Hbond>
2.4560

> <Gold.Chemscore.Metal>
0.0000

> <Gold.Chemscore.Lipo>
128.9314

> <Gold.Chemscore.Internal_Hbond>
0.0000

> <Gold.Chemscore.DEClash>
0.0089

> <Gold.Chemscore.DEInternal>
1.8277

> <Gold.Chemscore.Rot>
2.7848

> <Gold.Chemscore.Internal.Correction>
   9.000000E+99

> <Gold.Chemscore.Hbonds>
donor molecule, donor type, donor heavy atom, donor atom, acceptor molecule, acceptor atom, score
      L1  H     9    38       P1  7948  0.58
      L1  H    16    58       P1  8028  1.00
      P1  H  7997  8009       L1    12  0.65

> <Gold.Chemscore.Hbond.Weighted>
-8.2030

> <Gold.Chemscore.Metal.Weighted>
-0.0000

> <Gold.Chemscore.Lipo.Weighted>
-15.0850

> <Gold.Chemscore.Internal_Hbond.Weighted>
0.0000

> <Gold.Chemscore.DEClash.Weighted>
0.0089

> <Gold.Chemscore.DEInternal.Weighted>
1.8277

> <Gold.Chemscore.Rot.Weighted>
7.1291

> <Gold.Chemscore.Internal.Correction.Weighted>
   9.000000E+99

> <Gold.Protein.RotatedTorsions>
[ 6907 6896 6895 6894 ] final  -92.95 input  -60.11 | X-H torsion
[ 7974 7965 7964 7962 ] final  130.07 input  175.53 | X-H torsion
[ 8008 7997 7996 7995 ] final -117.15 input   59.86 | X-H torsion
[ 10167 10162 10161 10158 ] final  -29.86 input  -65.29 | X-H torsion
[ 10718 10713 10712 10709 ] final -101.03 input   66.30 | X-H torsion
[ 10763 10752 10751 10750 ] final -173.65 input  -60.55 | X-H torsion
[ 11005 11000 10999 10996 ] final  134.12 input  -57.11 | X-H torsion

> <Gold.Protein.ActiveResidues>
 VAL166  LYS551  ARG553  GLY616  TRP617  ASP618  TYR619  PRO620  LYS621  CYS622 
 ASP623  PHE694  ASN695  SER759  ASP760  ASP761  ALA762  ILE779  LEU786  VAL792 
 PHE793  MET794  SER795  GLU796  ALA797  LYS798  CYS799  TRP800  GLU811  SER814 

> <Gold.Protein.RotatedAtoms>
  150.6914  134.2043  159.4334 H   0  0  0  0  0  0  0  0  0  0  0  0  # atno 6907 bound_to 6896
  152.0008  134.9927  160.0574 H   0  0  0  0  0  0  0  0  0  0  0  0  # atno 6908 bound_to 6896
  152.1580  133.4529  159.4884 H   0  0  0  0  0  0  0  0  0  0  0  0  # atno 6909 bound_to 6896
  145.0219  139.4124  143.5193 H   0  0  0  0  0  0  0  0  0  0  0  0  # atno 7974 bound_to 7965
  155.0792  140.0394  157.2633 H   0  0  0  0  0  0  0  0  0  0  0  0  # atno 8008 bound_to 7997
  154.6921  140.2655  155.6778 H   0  0  0  0  0  0  0  0  0  0  0  0  # atno 8009 bound_to 7997
  156.2732  140.2757  156.1502 H   0  0  0  0  0  0  0  0  0  0  0  0  # atno 8010 bound_to 7997
  140.7256  143.3895  151.1456 H   0  0  0  0  0  0  0  0  0  0  0  0  # atno 10167 bound_to 10162
  156.0182  130.5355  150.6904 H   0  0  0  0  0  0  0  0  0  0  0  0  # atno 10718 bound_to 10713
  154.6054  135.2859  155.0490 H   0  0  0  0  0  0  0  0  0  0  0  0  # atno 10763 bound_to 10752
  154.1739  135.6468  153.5020 H   0  0  0  0  0  0  0  0  0  0  0  0  # atno 10764 bound_to 10752
  153.0173  135.5407  154.6788 H   0  0  0  0  0  0  0  0  0  0  0  0  # atno 10765 bound_to 10752
  139.9894  134.9520  156.9821 H   0  0  0  0  0  0  0  0  0  0  0  0  # atno 11005 bound_to 11000
  146.3486  139.9721  142.8705 LP  0  0  0  0  0  0  0  0  0  0  0  0  # atno 17320 bound_to 7965
  145.1885  140.9800  143.4225 LP  0  0  0  0  0  0  0  0  0  0  0  0  # atno 17321 bound_to 7965
  139.7497  143.8797  152.3073 LP  0  0  0  0  0  0  0  0  0  0  0  0  # atno 17342 bound_to 10162
  139.8646  144.7099  150.9058 LP  0  0  0  0  0  0  0  0  0  0  0  0  # atno 17343 bound_to 10162
  157.4587  131.0881  151.0769 LP  0  0  0  0  0  0  0  0  0  0  0  0  # atno 17370 bound_to 10713
  157.1263  130.6083  149.5518 LP  0  0  0  0  0  0  0  0  0  0  0  0  # atno 17371 bound_to 10713
  140.4937  134.1167  155.7237 LP  0  0  0  0  0  0  0  0  0  0  0  0  # atno 17394 bound_to 11000
  141.1553  133.8894  157.1993 LP  0  0  0  0  0  0  0  0  0  0  0  0  # atno 17395 bound_to 11000

$$$$
