AV-unprocessed.smi:2212|AV-procd|sdf|8951|dock4
  -GOLD-   2272012163D 1   1.00000     0.00000
 Structure written by MMmdl.
 31 32  0  0  0  0  0  0  0  0  1 V2000
  152.9052  142.8125  162.2913 C   0  0  0  0  0  0  0  0  0  0  0  0
  151.8440  143.2209  161.4378 O   0  0  0  0  0  0  0  0  0  0  0  0
  152.0651  143.0471  160.0377 C   0  0  0  0  0  0  0  0  0  0  0  0
  152.6068  141.6480  159.7130 C   0  0  0  0  0  0  0  0  0  0  0  0
  152.5416  141.3884  158.2811 N   0  0  0  0  0  0  0  0  0  0  0  0
  152.0469  140.2693  157.7374 C   0  0  0  0  0  0  0  0  0  0  0  0
  151.5988  139.3322  158.3990 O   0  0  0  0  0  0  0  0  0  0  0  0
  152.1038  140.3074  156.3974 N   0  0  0  0  0  0  0  0  0  0  0  0
  151.6663  139.2959  155.5115 C   0  0  0  0  0  0  0  0  0  0  0  0
  151.8706  138.0016  155.7407 N   0  0  0  0  0  0  0  0  0  0  0  0
  151.2961  137.3640  154.6498 C   0  0  0  0  0  0  0  0  0  0  0  0
  150.7734  138.3214  153.8180 C   0  0  0  0  0  0  0  0  0  0  0  0
  151.0013  139.5604  154.3540 O   0  0  0  0  0  0  0  0  0  0  0  0
  150.7999  143.5155  159.2943 C   0  0  0  0  0  0  0  0  0  0  0  0
  151.6998  144.2875  158.3276 C   0  0  0  0  0  0  0  0  0  0  0  0
  152.7665  144.2754  159.4237 C   0  0  0  0  0  0  0  0  0  0  0  0
  152.6658  143.0920  163.3171 H   0  0  0  0  0  0  0  0  0  0  0  0
  153.8480  143.2929  162.0295 H   0  0  0  0  0  0  0  0  0  0  0  0
  153.0450  141.7318  162.2752 H   0  0  0  0  0  0  0  0  0  0  0  0
  153.6454  141.5611  160.0358 H   0  0  0  0  0  0  0  0  0  0  0  0
  152.0590  140.8757  160.2541 H   0  0  0  0  0  0  0  0  0  0  0  0
  152.8868  142.1137  157.6694 H   0  0  0  0  0  0  0  0  0  0  0  0
  152.4940  141.1345  155.9706 H   0  0  0  0  0  0  0  0  0  0  0  0
  151.3038  136.2885  154.5507 H   0  0  0  0  0  0  0  0  0  0  0  0
  150.2467  138.2901  152.8757 H   0  0  0  0  0  0  0  0  0  0  0  0
  150.2172  142.7198  158.8290 H   0  0  0  0  0  0  0  0  0  0  0  0
  150.1677  144.1749  159.8919 H   0  0  0  0  0  0  0  0  0  0  0  0
  151.9834  143.7022  157.4514 H   0  0  0  0  0  0  0  0  0  0  0  0
  151.3351  145.2781  158.0549 H   0  0  0  0  0  0  0  0  0  0  0  0
  152.7191  145.1633  160.0568 H   0  0  0  0  0  0  0  0  0  0  0  0
  153.7801  144.0924  159.0659 H   0  0  0  0  0  0  0  0  0  0  0  0
  1  2  1  0  0  0  0
  1 17  1  0  0  0  0
  1 18  1  0  0  0  0
  1 19  1  0  0  0  0
  2  3  1  0  0  0  0
  3 16  1  0  0  0  0
  3  4  1  0  0  0  0
  3 14  1  0  0  0  0
  4  5  1  0  0  0  0
  4 20  1  0  0  0  0
  4 21  1  0  0  0  0
  5  6  1  0  0  0  0
  5 22  1  0  0  0  0
  6  7  2  0  0  0  0
  6  8  1  0  0  0  0
  8  9  1  0  0  0  0
  8 23  1  0  0  0  0
  9 13  1  0  0  0  0
  9 10  2  0  0  0  0
 10 11  1  0  0  0  0
 11 12  2  0  0  0  0
 11 24  1  0  0  0  0
 12 13  1  0  0  0  0
 12 25  1  0  0  0  0
 14 15  1  0  0  0  0
 14 26  1  0  0  0  0
 14 27  1  0  0  0  0
 15 16  1  0  0  0  0
 15 28  1  0  0  0  0
 15 29  1  0  0  0  0
 16 30  1  0  0  0  0
 16 31  1  0  0  0  0
M  END
> <s_m_source_file>
AV-unprocessed.smi

> <i_m_source_file_index>
2212

> <i_lp_mmshare_version>
43012

> <i_f3d_flags>
0

> <s_epik_input>
W0NIMl0xW0NIMl1bQ0gyXUMxKE9bQ0gzXSlbQ0gyXVtOSF1DKD1PKVtOSF1jMm5bY0hdW2NIXW8y

> <s_epik_cmdline>
J2VwaWtfcHl0aG9uJywgJy1waCcsICc3LjAnLCAnLXRuJywgJzgnLCAnLW1hJywgJzIwMCcsICctbWV0YWxfYmluZGluZycsICctaW1hZScsICc8aW5maWxlLm1hZT4nLCAnLW9tYWUnLCAnPG91dGZpbGUubWFlPic=

> <r_lp_tautomer_probability>
0.785861

> <r_epik_Ionization_Penalty>
4.58897e-05

> <r_epik_Ionization_Penalty_Charging>
0

> <r_epik_Ionization_Penalty_Neutral>
4.58897e-05

> <r_epik_State_Penalty>
0.0380021

> <r_epik_Charging_Adjusted_Penalty>
0.0380021

> <i_epik_Tot_Q>
0

> <i_epik_Tot_abs_Q>
0

> <r_epik_Metal_State_Penalty>
0.0585611

> <b_epik_Metal_Only>
0

> <s_lp_Force_Field>
OPLS_2005

> <r_lp_Energy>
14.4029

> <b_lp_Chiralities_Consistent>
1

> <s_lp_Variant>
AV-unprocessed.smi:2212-1

> <Gold.Version>
5.8.1

> <Gold.Id.Protein>
6NUR|6NUR_protein|mol2

> <Gold.PLP.Fitness>
40.7827

> <Gold.PLP.PLP>
-33.0741

> <Gold.PLP.part.hbond>
-1.3732

> <Gold.PLP.part.metal>
0.0000

> <Gold.PLP.part.buried>
-4.0054

> <Gold.PLP.part.nonpolar>
-26.8984

> <Gold.PLP.part.repulsive>
0.5224

> <Gold.PLP.ligand.clash>
0.0000

> <Gold.PLP.ligand.torsion>
0.7142

> <Gold.PLP.Chemscore.Hbond>
1.0000

> <Gold.PLP.Chemscore.CHOScore>
1.9544

> <Gold.PLP.Chemscore.Metal>
0.0000

> <Gold.Chemscore.Hbonds>
donor molecule, donor type, donor heavy atom, donor atom, acceptor molecule, acceptor atom, score
      P1  H  7989  7998       L1    13  1.00
      L1  C    12    25       P1  7948  0.73
      L1  C    12    25       P1  7949  0.04
      L1  C    12    25       P1  7957  0.93

> <Gold.PLP.Chemscore.Internal.Correction>
0.2740

> <Gold.Rescore>
     Score         DG    S(hbond)    S(metal)    S(lipo)     H(rot)  DE(clash)    DE(int)     intcor
     11.59     -14.36       0.99        0.00      83.66       1.64       0.00       2.77       ----

> <Gold.Chemscore.Fitness>
11.5882

> <Gold.Chemscore.DG>
-14.3624

> <Gold.Chemscore.ZeroCoef>
-5.4800

> <Gold.Chemscore.Hbond>
0.9866

> <Gold.Chemscore.Metal>
0.0000

> <Gold.Chemscore.Lipo>
83.6609

> <Gold.Chemscore.Internal_Hbond>
0.0000

> <Gold.Chemscore.DEClash>
0.0021

> <Gold.Chemscore.DEInternal>
2.7720

> <Gold.Chemscore.Rot>
1.6411

> <Gold.Chemscore.Internal.Correction>
   9.000000E+99

> <Gold.Chemscore.Hbonds>
donor molecule, donor type, donor heavy atom, donor atom, acceptor molecule, acceptor atom, score
      P1  H  6933  6945       L1     2  0.01
      P1  H  7989  7998       L1    13  0.88

> <Gold.Chemscore.Hbond.Weighted>
-3.2952

> <Gold.Chemscore.Metal.Weighted>
-0.0000

> <Gold.Chemscore.Lipo.Weighted>
-9.7883

> <Gold.Chemscore.Internal_Hbond.Weighted>
0.0000

> <Gold.Chemscore.DEClash.Weighted>
0.0021

> <Gold.Chemscore.DEInternal.Weighted>
2.7720

> <Gold.Chemscore.Rot.Weighted>
4.2011

> <Gold.Chemscore.Internal.Correction.Weighted>
   9.000000E+99

> <Gold.Protein.RotatedTorsions>
[ 6907 6896 6895 6894 ] final   58.06 input  -60.11 | X-H torsion
[ 7974 7965 7964 7962 ] final  141.36 input  175.53 | X-H torsion
[ 8008 7997 7996 7995 ] final  157.13 input   59.86 | X-H torsion
[ 10167 10162 10161 10158 ] final   92.49 input  -65.29 | X-H torsion
[ 10718 10713 10712 10709 ] final   20.03 input   66.30 | X-H torsion
[ 10763 10752 10751 10750 ] final  -26.75 input  -60.55 | X-H torsion
[ 11005 11000 10999 10996 ] final -128.36 input  -57.11 | X-H torsion

> <Gold.Protein.ActiveResidues>
 VAL166  LYS551  ARG553  GLY616  TRP617  ASP618  TYR619  PRO620  LYS621  CYS622 
 ASP623  PHE694  ASN695  SER759  ASP760  ASP761  ALA762  ILE779  LEU786  VAL792 
 PHE793  MET794  SER795  GLU796  ALA797  LYS798  CYS799  TRP800  GLU811  SER814 

> <Gold.Protein.RotatedAtoms>
  152.3790  134.6620  160.0149 H   0  0  0  0  0  0  0  0  0  0  0  0  # atno 6907 bound_to 6896
  151.6889  133.3305  159.3246 H   0  0  0  0  0  0  0  0  0  0  0  0  # atno 6908 bound_to 6896
  150.7732  134.6651  159.6406 H   0  0  0  0  0  0  0  0  0  0  0  0  # atno 6909 bound_to 6896
  144.9103  139.5302  143.5712 H   0  0  0  0  0  0  0  0  0  0  0  0  # atno 7974 bound_to 7965
  156.2382  140.1894  156.7061 H   0  0  0  0  0  0  0  0  0  0  0  0  # atno 8008 bound_to 7997
  154.6147  140.0617  156.9565 H   0  0  0  0  0  0  0  0  0  0  0  0  # atno 8009 bound_to 7997
  155.1959  140.3288  155.4353 H   0  0  0  0  0  0  0  0  0  0  0  0  # atno 8010 bound_to 7997
  139.8271  144.6704  150.9445 H   0  0  0  0  0  0  0  0  0  0  0  0  # atno 10167 bound_to 10162
  157.1188  130.6541  149.5918 H   0  0  0  0  0  0  0  0  0  0  0  0  # atno 10718 bound_to 10713
  153.7209  135.6945  153.5013 H   0  0  0  0  0  0  0  0  0  0  0  0  # atno 10763 bound_to 10752
  153.2204  135.4372  155.0482 H   0  0  0  0  0  0  0  0  0  0  0  0  # atno 10764 bound_to 10752
  154.8284  135.3459  154.6743 H   0  0  0  0  0  0  0  0  0  0  0  0  # atno 10765 bound_to 10752
  140.9522  134.1050  157.4051 H   0  0  0  0  0  0  0  0  0  0  0  0  # atno 11005 bound_to 11000
  146.3155  139.7904  142.8987 LP  0  0  0  0  0  0  0  0  0  0  0  0  # atno 17320 bound_to 7965
  145.3465  141.0299  143.3363 LP  0  0  0  0  0  0  0  0  0  0  0  0  # atno 17321 bound_to 7965
  140.7809  143.4036  151.1108 LP  0  0  0  0  0  0  0  0  0  0  0  0  # atno 17342 bound_to 10162
  139.7692  143.8519  152.3117 LP  0  0  0  0  0  0  0  0  0  0  0  0  # atno 17343 bound_to 10162
  155.9833  130.4852  150.6926 LP  0  0  0  0  0  0  0  0  0  0  0  0  # atno 17370 bound_to 10713
  157.4494  131.0871  151.0861 LP  0  0  0  0  0  0  0  0  0  0  0  0  # atno 17371 bound_to 10713
  139.8851  135.0069  156.6413 LP  0  0  0  0  0  0  0  0  0  0  0  0  # atno 17394 bound_to 11000
  140.7586  133.8837  155.8401 LP  0  0  0  0  0  0  0  0  0  0  0  0  # atno 17395 bound_to 11000

$$$$
