AV-unprocessed.smi:1602|AV-procd|sdf|6440|dock5
  -GOLD-   22720 7 83D 1   1.00000     0.00000
 Structure written by MMmdl.
 36 37  0  0  0  0  0  0  0  0  1 V2000
  144.1489  136.1594  152.4483 C   0  0  0  0  0  0  0  0  0  0  0  0
  145.5597  135.5579  152.4702 C   0  0  1  0  0  0  0  0  0  0  0  0
  145.9213  134.8740  151.1373 C   0  0  0  0  0  0  0  0  0  0  0  0
  145.2823  133.5795  150.9836 N   0  0  0  0  0  0  0  0  0  0  0  0
  145.8744  132.3396  150.8634 C   0  0  0  0  0  0  0  0  0  0  0  0
  144.8712  131.4199  150.7534 C   0  0  0  0  0  0  0  0  0  0  0  0
  143.6855  132.2044  150.8157 C   0  0  0  0  0  0  0  0  0  0  0  0
  143.9348  133.4970  150.9501 N   0  0  0  0  0  0  0  0  0  0  0  0
  146.5258  136.6162  152.7750 N   0  0  0  0  0  0  0  0  0  0  0  0
  146.6412  137.2311  154.3818 S   0  0  0  0  0  0  0  0  0  0  0  0
  145.4495  138.0483  154.6563 O   0  0  0  0  0  0  0  0  0  0  0  0
  147.0167  136.1219  155.2718 O   0  0  0  0  0  0  0  0  0  0  0  0
  148.0041  138.2799  154.1878 N   0  0  0  0  0  0  0  0  0  0  0  0
  147.7815  139.7260  154.3672 C   0  0  0  0  0  0  0  0  0  0  0  0
  149.0142  140.5337  153.9303 C   0  0  0  0  0  0  0  0  0  0  0  0
  150.1695  140.0668  154.6093 O   0  0  0  0  0  0  0  0  0  0  0  0
  150.4463  138.7121  154.2891 C   0  0  0  0  0  0  0  0  0  0  0  0
  149.2849  137.8126  154.7422 C   0  0  0  0  0  0  0  0  0  0  0  0
  143.3989  135.3911  152.2583 H   0  0  0  0  0  0  0  0  0  0  0  0
  144.0521  136.9189  151.6717 H   0  0  0  0  0  0  0  0  0  0  0  0
  143.9067  136.6258  153.4039 H   0  0  0  0  0  0  0  0  0  0  0  0
  145.5914  134.8147  153.2687 H   0  0  0  0  0  0  0  0  0  0  0  0
  145.6184  135.5027  150.2987 H   0  0  0  0  0  0  0  0  0  0  0  0
  147.0012  134.7438  151.0528 H   0  0  0  0  0  0  0  0  0  0  0  0
  146.9473  132.2162  150.8718 H   0  0  0  0  0  0  0  0  0  0  0  0
  144.9687  130.3498  150.6472 H   0  0  0  0  0  0  0  0  0  0  0  0
  142.6581  131.8752  150.7672 H   0  0  0  0  0  0  0  0  0  0  0  0
  147.4339  136.4886  152.3298 H   0  0  0  0  0  0  0  0  0  0  0  0
  146.9107  140.0466  153.7961 H   0  0  0  0  0  0  0  0  0  0  0  0
  147.5624  139.9203  155.4177 H   0  0  0  0  0  0  0  0  0  0  0  0
  149.1592  140.4661  152.8508 H   0  0  0  0  0  0  0  0  0  0  0  0
  148.8704  141.5888  154.1639 H   0  0  0  0  0  0  0  0  0  0  0  0
  150.6212  138.6081  153.2171 H   0  0  0  0  0  0  0  0  0  0  0  0
  151.3672  138.4125  154.7895 H   0  0  0  0  0  0  0  0  0  0  0  0
  149.2160  137.8071  155.8307 H   0  0  0  0  0  0  0  0  0  0  0  0
  149.4706  136.7857  154.4275 H   0  0  0  0  0  0  0  0  0  0  0  0
  1  2  1  0  0  0  0
  1 19  1  0  0  0  0
  1 20  1  0  0  0  0
  1 21  1  0  0  0  0
  2  3  1  0  0  0  0
  2  9  1  0  0  0  0
  2 22  1  0  0  0  0
  3  4  1  0  0  0  0
  3 23  1  0  0  0  0
  3 24  1  0  0  0  0
  4  8  1  0  0  0  0
  4  5  1  0  0  0  0
  5  6  2  0  0  0  0
  5 25  1  0  0  0  0
  6  7  1  0  0  0  0
  6 26  1  0  0  0  0
  7  8  2  0  0  0  0
  7 27  1  0  0  0  0
  9 10  1  0  0  0  0
  9 28  1  0  0  0  0
 10 11  2  0  0  0  0
 10 12  2  0  0  0  0
 10 13  1  0  0  0  0
 13 18  1  0  0  0  0
 13 14  1  0  0  0  0
 14 15  1  0  0  0  0
 14 29  1  0  0  0  0
 14 30  1  0  0  0  0
 15 16  1  0  0  0  0
 15 31  1  0  0  0  0
 15 32  1  0  0  0  0
 16 17  1  0  0  0  0
 17 18  1  0  0  0  0
 17 33  1  0  0  0  0
 17 34  1  0  0  0  0
 18 35  1  0  0  0  0
 18 36  1  0  0  0  0
M  END
> <s_m_source_file>
AV-unprocessed.smi

> <i_m_source_file_index>
1602

> <i_lp_mmshare_version>
43012

> <i_f3d_flags>
0

> <s_epik_input>
bjFbY0hdW2NIXVtjSF1uMVtDSDJdW0NAQEhdKFtDSDNdKVtOSF1TKD1PKSg9TylOMltDSDJdW0NIMl1PW0NIMl1bQ0gyXTI=

> <s_epik_cmdline>
J2VwaWtfcHl0aG9uJywgJy1waCcsICc3LjAnLCAnLXRuJywgJzgnLCAnLW1hJywgJzIwMCcsICctbWV0YWxfYmluZGluZycsICctaW1hZScsICc8aW5maWxlLm1hZT4nLCAnLW9tYWUnLCAnPG91dGZpbGUubWFlPic=

> <r_lp_tautomer_probability>
1

> <r_epik_Ionization_Penalty>
0.114248

> <r_epik_Ionization_Penalty_Charging>
0

> <r_epik_Ionization_Penalty_Neutral>
0.114248

> <r_epik_State_Penalty>
0.103909

> <r_epik_Charging_Adjusted_Penalty>
0.103909

> <i_epik_Tot_Q>
0

> <i_epik_Tot_abs_Q>
0

> <r_epik_Metal_State_Penalty>
0.436178

> <b_epik_Metal_Only>
0

> <s_lp_Force_Field>
OPLS_2005

> <r_lp_Energy>
8.02202

> <b_lp_Chiralities_Consistent>
1

> <s_lp_Variant>
AV-unprocessed.smi:1602-2

> <Gold.Version>
5.8.1

> <Gold.Id.Protein>
6NUR|6NUR_protein|mol2

> <Gold.PLP.Fitness>
35.9764

> <Gold.PLP.PLP>
-25.8776

> <Gold.PLP.part.hbond>
-2.0000

> <Gold.PLP.part.metal>
0.0000

> <Gold.PLP.part.buried>
-3.6969

> <Gold.PLP.part.nonpolar>
-21.6445

> <Gold.PLP.part.repulsive>
0.5779

> <Gold.PLP.ligand.clash>
0.0000

> <Gold.PLP.ligand.torsion>
0.7156

> <Gold.PLP.Chemscore.Hbond>
1.8500

> <Gold.PLP.Chemscore.CHOScore>
1.7472

> <Gold.PLP.Chemscore.Metal>
0.0000

> <Gold.Chemscore.Hbonds>
donor molecule, donor type, donor heavy atom, donor atom, acceptor molecule, acceptor atom, score
      L1  H     9    28       P1  7948  1.00
      P1  H  7989  7998       L1    16  0.85
      L1  C     5    25       P1 10747  1.00
      L1  C     7    27       P1 10952  0.66

> <Gold.PLP.Chemscore.Internal.Correction>
0.7382

> <Gold.Rescore>
     Score         DG    S(hbond)    S(metal)    S(lipo)     H(rot)  DE(clash)    DE(int)     intcor
     11.07     -11.93       0.99        0.00      69.84       1.97       0.09       0.77       ----

> <Gold.Chemscore.Fitness>
11.0688

> <Gold.Chemscore.DG>
-11.9325

> <Gold.Chemscore.ZeroCoef>
-5.4800

> <Gold.Chemscore.Hbond>
0.9917

> <Gold.Chemscore.Metal>
0.0000

> <Gold.Chemscore.Lipo>
69.8433

> <Gold.Chemscore.Internal_Hbond>
0.0000

> <Gold.Chemscore.DEClash>
0.0901

> <Gold.Chemscore.DEInternal>
0.7736

> <Gold.Chemscore.Rot>
1.9654

> <Gold.Chemscore.Internal.Correction>
   9.000000E+99

> <Gold.Chemscore.Hbonds>
donor molecule, donor type, donor heavy atom, donor atom, acceptor molecule, acceptor atom, score
      L1  H     9    28       P1  7948  0.99
      P1  H  7989  7998       L1    16  0.04

> <Gold.Chemscore.Hbond.Weighted>
-3.3123

> <Gold.Chemscore.Metal.Weighted>
-0.0000

> <Gold.Chemscore.Lipo.Weighted>
-8.1717

> <Gold.Chemscore.Internal_Hbond.Weighted>
0.0000

> <Gold.Chemscore.DEClash.Weighted>
0.0901

> <Gold.Chemscore.DEInternal.Weighted>
0.7736

> <Gold.Chemscore.Rot.Weighted>
5.0315

> <Gold.Chemscore.Internal.Correction.Weighted>
   9.000000E+99

> <Gold.Protein.RotatedTorsions>
[ 6907 6896 6895 6894 ] final  108.83 input  -60.11 | X-H torsion
[ 7974 7965 7964 7962 ] final  126.52 input  175.53 | X-H torsion
[ 8008 7997 7996 7995 ] final -165.48 input   59.86 | X-H torsion
[ 10167 10162 10161 10158 ] final   31.99 input  -65.29 | X-H torsion
[ 10718 10713 10712 10709 ] final -131.00 input   66.30 | X-H torsion
[ 10763 10752 10751 10750 ] final   70.30 input  -60.55 | X-H torsion
[ 11005 11000 10999 10996 ] final  -72.01 input  -57.11 | X-H torsion

> <Gold.Protein.ActiveResidues>
 VAL166  LYS551  ARG553  GLY616  TRP617  ASP618  TYR619  PRO620  LYS621  CYS622 
 ASP623  PHE694  ASN695  SER759  ASP760  ASP761  ALA762  ILE779  LEU786  VAL792 
 PHE793  MET794  SER795  GLU796  ALA797  LYS798  CYS799  TRP800  GLU811  SER814 

> <Gold.Protein.RotatedAtoms>
  152.5094  133.9031  159.7450 H   0  0  0  0  0  0  0  0  0  0  0  0  # atno 6907 bound_to 6896
  150.9442  133.6613  159.2791 H   0  0  0  0  0  0  0  0  0  0  0  0  # atno 6908 bound_to 6896
  151.3914  135.0961  159.9580 H   0  0  0  0  0  0  0  0  0  0  0  0  # atno 6909 bound_to 6896
  145.0608  139.3806  143.5006 H   0  0  0  0  0  0  0  0  0  0  0  0  # atno 7974 bound_to 7965
  155.8503  140.0962  157.1679 H   0  0  0  0  0  0  0  0  0  0  0  0  # atno 8008 bound_to 7997
  154.3985  140.1384  156.3898 H   0  0  0  0  0  0  0  0  0  0  0  0  # atno 8009 bound_to 7997
  155.7968  140.3454  155.5382 H   0  0  0  0  0  0  0  0  0  0  0  0  # atno 8010 bound_to 7997
  140.4539  144.1007  150.6197 H   0  0  0  0  0  0  0  0  0  0  0  0  # atno 10167 bound_to 10162
  156.2200  130.6972  151.0745 H   0  0  0  0  0  0  0  0  0  0  0  0  # atno 10718 bound_to 10713
  153.0334  135.5179  154.7420 H   0  0  0  0  0  0  0  0  0  0  0  0  # atno 10763 bound_to 10752
  154.6417  135.2913  155.0098 H   0  0  0  0  0  0  0  0  0  0  0  0  # atno 10764 bound_to 10752
  154.1014  135.6636  153.4921 H   0  0  0  0  0  0  0  0  0  0  0  0  # atno 10765 bound_to 10752
  141.1602  133.6834  156.6993 H   0  0  0  0  0  0  0  0  0  0  0  0  # atno 11005 bound_to 11000
  146.3524  140.0306  142.8651 LP  0  0  0  0  0  0  0  0  0  0  0  0  # atno 17320 bound_to 7965
  145.1411  140.9572  143.4488 LP  0  0  0  0  0  0  0  0  0  0  0  0  # atno 17321 bound_to 7965
  140.4174  143.2627  151.9758 LP  0  0  0  0  0  0  0  0  0  0  0  0  # atno 17342 bound_to 10162
  139.4799  144.5861  151.7851 LP  0  0  0  0  0  0  0  0  0  0  0  0  # atno 17343 bound_to 10162
  157.7083  131.0746  150.6591 LP  0  0  0  0  0  0  0  0  0  0  0  0  # atno 17370 bound_to 10713
  156.6654  130.4524  149.5674 LP  0  0  0  0  0  0  0  0  0  0  0  0  # atno 17371 bound_to 10713
  140.2971  134.8194  157.4066 LP  0  0  0  0  0  0  0  0  0  0  0  0  # atno 17394 bound_to 11000
  140.1295  134.5114  155.8117 LP  0  0  0  0  0  0  0  0  0  0  0  0  # atno 17395 bound_to 11000

$$$$
