AV-unprocessed.smi:2751|AV-procd|sdf|10600|dock2
  -GOLD-   2272015 53D 1   1.00000     0.00000
 Structure written by MMmdl.
 34 35  0  0  0  0  0  0  0  0  1 V2000
  150.5548  140.4017  154.9135 O   0  0  0  0  0  0  0  0  0  0  0  0
  149.7872  141.3629  155.0253 C   0  0  0  0  0  0  0  0  0  0  0  0
  149.9308  142.2622  156.0106 N   0  0  0  0  0  0  0  0  0  0  0  0
  150.9641  142.2333  157.0402 C   0  0  0  0  0  0  0  0  0  0  0  0
  150.8060  143.3976  158.0331 C   0  0  0  0  0  0  0  0  0  0  0  0
  151.8806  143.3957  159.1319 C   0  0  1  0  0  0  0  0  0  0  0  0
  151.4291  144.1805  160.3794 C   0  0  0  0  0  0  0  0  0  0  0  0
  152.4870  144.0930  161.4855 C   0  0  0  0  0  0  0  0  0  0  0  0
  152.8321  142.6249  161.7565 C   0  0  0  0  0  0  0  0  0  0  0  0
  153.2077  141.9150  160.4462 C   0  0  0  0  0  0  0  0  0  0  0  0
  152.1473  142.0446  159.5041 O   0  0  0  0  0  0  0  0  0  0  0  0
  148.6993  141.6990  154.2322 N   0  0  0  0  0  0  0  0  0  0  0  0
  147.9842  140.7625  153.6897 C   0  0  0  0  0  0  0  0  0  0  0  0
  146.8711  140.9125  152.8778 N   0  0  0  0  0  0  0  0  0  0  0  0
  146.4263  139.6669  152.5304 C   0  0  0  0  0  0  0  0  0  0  0  0
  147.2258  138.7686  153.0982 C   0  0  0  0  0  0  0  0  0  0  0  0
  148.1913  139.4078  153.8156 O   0  0  0  0  0  0  0  0  0  0  0  0
  149.2708  143.0254  156.0499 H   0  0  0  0  0  0  0  0  0  0  0  0
  150.9466  141.2749  157.5618 H   0  0  0  0  0  0  0  0  0  0  0  0
  151.9332  142.2977  156.5453 H   0  0  0  0  0  0  0  0  0  0  0  0
  150.8578  144.3387  157.4839 H   0  0  0  0  0  0  0  0  0  0  0  0
  149.8172  143.3650  158.4923 H   0  0  0  0  0  0  0  0  0  0  0  0
  152.7918  143.8452  158.7330 H   0  0  0  0  0  0  0  0  0  0  0  0
  151.2445  145.2242  160.1240 H   0  0  0  0  0  0  0  0  0  0  0  0
  150.4848  143.7767  160.7472 H   0  0  0  0  0  0  0  0  0  0  0  0
  153.3848  144.6307  161.1782 H   0  0  0  0  0  0  0  0  0  0  0  0
  152.1278  144.5744  162.3956 H   0  0  0  0  0  0  0  0  0  0  0  0
  153.6505  142.5548  162.4735 H   0  0  0  0  0  0  0  0  0  0  0  0
  151.9755  142.1241  162.2090 H   0  0  0  0  0  0  0  0  0  0  0  0
  154.1296  142.3249  160.0310 H   0  0  0  0  0  0  0  0  0  0  0  0
  153.3863  140.8557  160.6317 H   0  0  0  0  0  0  0  0  0  0  0  0
  146.4298  141.7681  152.5728 H   0  0  0  0  0  0  0  0  0  0  0  0
  145.5595  139.5538  151.8963 H   0  0  0  0  0  0  0  0  0  0  0  0
  147.2396  137.6886  153.0900 H   0  0  0  0  0  0  0  0  0  0  0  0
  1  2  2  0  0  0  0
  2 12  1  0  0  0  0
  2  3  1  0  0  0  0
  3  4  1  0  0  0  0
  3 18  1  0  0  0  0
  4  5  1  0  0  0  0
  4 19  1  0  0  0  0
  4 20  1  0  0  0  0
  5  6  1  0  0  0  0
  5 21  1  0  0  0  0
  5 22  1  0  0  0  0
  6 11  1  0  0  0  0
  6  7  1  0  0  0  0
  6 23  1  0  0  0  0
  7  8  1  0  0  0  0
  7 24  1  0  0  0  0
  7 25  1  0  0  0  0
  8  9  1  0  0  0  0
  8 26  1  0  0  0  0
  8 27  1  0  0  0  0
  9 10  1  0  0  0  0
  9 28  1  0  0  0  0
  9 29  1  0  0  0  0
 10 11  1  0  0  0  0
 10 30  1  0  0  0  0
 10 31  1  0  0  0  0
 12 13  2  0  0  0  0
 13 17  1  0  0  0  0
 13 14  1  0  0  0  0
 14 32  1  0  0  0  0
 14 15  1  0  0  0  0
 15 33  1  0  0  0  0
 15 16  2  0  0  0  0
 16 34  1  0  0  0  0
 16 17  1  0  0  0  0
M  END
> <s_m_source_file>
AV-unprocessed.smi

> <i_m_source_file_index>
2751

> <i_lp_mmshare_version>
43012

> <i_f3d_flags>
0

> <s_epik_input>
bzFbY0hdW2NIXW5jMVtOSF1DKD1PKVtOSF1bQ0gyXVtDSDJdW0NAQEhdMltDSDJdW0NIMl1bQ0gyXVtDSDJdTzI=

> <s_epik_cmdline>
J2VwaWtfcHl0aG9uJywgJy1waCcsICc3LjAnLCAnLXRuJywgJzgnLCAnLW1hJywgJzIwMCcsICctbWV0YWxfYmluZGluZycsICctaW1hZScsICc8aW5maWxlLm1hZT4nLCAnLW9tYWUnLCAnPG91dGZpbGUubWFlPic=

> <r_lp_tautomer_probability>
0.107061

> <r_epik_Ionization_Penalty>
1.421

> <r_epik_Ionization_Penalty_Charging>
1.42064

> <r_epik_Ionization_Penalty_Neutral>
0.0003614

> <r_epik_State_Penalty>
2.61489

> <r_epik_Charging_Adjusted_Penalty>
4.03553

> <i_epik_Tot_Q>
0

> <i_epik_Tot_abs_Q>
0

> <r_epik_Metal_State_Penalty>
3.57288

> <b_epik_Metal_Only>
0

> <s_lp_Force_Field>
OPLS_2005

> <r_lp_Energy>
32.4841

> <b_lp_Chiralities_Consistent>
1

> <s_lp_Variant>
AV-unprocessed.smi:2751-6

> <Gold.Version>
5.8.1

> <Gold.Id.Protein>
6NUR|6NUR_protein|mol2

> <Gold.PLP.Fitness>
46.7251

> <Gold.PLP.PLP>
-35.0517

> <Gold.PLP.part.hbond>
-3.4913

> <Gold.PLP.part.metal>
0.0000

> <Gold.PLP.part.buried>
-0.0574

> <Gold.PLP.part.nonpolar>
-31.7312

> <Gold.PLP.part.repulsive>
1.1560

> <Gold.PLP.ligand.clash>
0.0000

> <Gold.PLP.ligand.torsion>
0.4522

> <Gold.PLP.Chemscore.Hbond>
2.2148

> <Gold.PLP.Chemscore.CHOScore>
1.9664

> <Gold.PLP.Chemscore.Metal>
0.0000

> <Gold.Chemscore.Hbonds>
donor molecule, donor type, donor heavy atom, donor atom, acceptor molecule, acceptor atom, score
      L1  H     3    18       P1  8028  0.98
      P1  H  7989  7998       L1     1  1.00
      P1  H  8011  8017       L1    12  0.16
      L1  C    15    33       P1 10171  0.26
      L1  C    15    33       P1 10175  0.81
      L1  C    16    34       P1  7948  0.84

> <Gold.PLP.Chemscore.Internal.Correction>
0.0340

> <Gold.Rescore>
     Score         DG    S(hbond)    S(metal)    S(lipo)     H(rot)  DE(clash)    DE(int)     intcor
     12.25     -15.65       1.12        0.00      90.54       1.63       1.41       1.99       ----

> <Gold.Chemscore.Fitness>
12.2494

> <Gold.Chemscore.DG>
-15.6492

> <Gold.Chemscore.ZeroCoef>
-5.4800

> <Gold.Chemscore.Hbond>
1.1246

> <Gold.Chemscore.Metal>
0.0000

> <Gold.Chemscore.Lipo>
90.5378

> <Gold.Chemscore.Internal_Hbond>
0.0000

> <Gold.Chemscore.DEClash>
1.4137

> <Gold.Chemscore.DEInternal>
1.9861

> <Gold.Chemscore.Rot>
1.6328

> <Gold.Chemscore.Internal.Correction>
   9.000000E+99

> <Gold.Chemscore.Hbonds>
donor molecule, donor type, donor heavy atom, donor atom, acceptor molecule, acceptor atom, score
      L1  H     3    18       P1  8028  0.93
      P1  H  7989  7998       L1     1  0.39
      P1  H  8011  8017       L1    12  0.01

> <Gold.Chemscore.Hbond.Weighted>
-3.7562

> <Gold.Chemscore.Metal.Weighted>
-0.0000

> <Gold.Chemscore.Lipo.Weighted>
-10.5929

> <Gold.Chemscore.Internal_Hbond.Weighted>
0.0000

> <Gold.Chemscore.DEClash.Weighted>
1.4137

> <Gold.Chemscore.DEInternal.Weighted>
1.9861

> <Gold.Chemscore.Rot.Weighted>
4.1799

> <Gold.Chemscore.Internal.Correction.Weighted>
   9.000000E+99

> <Gold.Protein.RotatedTorsions>
[ 6907 6896 6895 6894 ] final  -11.85 input  -60.11 | X-H torsion
[ 7974 7965 7964 7962 ] final  124.10 input  175.53 | X-H torsion
[ 8008 7997 7996 7995 ] final   37.26 input   59.86 | X-H torsion
[ 10167 10162 10161 10158 ] final  -69.86 input  -65.29 | X-H torsion
[ 10718 10713 10712 10709 ] final  165.03 input   66.30 | X-H torsion
[ 10763 10752 10751 10750 ] final  -33.93 input  -60.55 | X-H torsion
[ 11005 11000 10999 10996 ] final  -12.97 input  -57.11 | X-H torsion

> <Gold.Protein.ActiveResidues>
 VAL166  LYS551  ARG553  GLY616  TRP617  ASP618  TYR619  PRO620  LYS621  CYS622 
 ASP623  PHE694  ASN695  SER759  ASP760  ASP761  ALA762  ILE779  LEU786  VAL792 
 PHE793  MET794  SER795  GLU796  ALA797  LYS798  CYS799  TRP800  GLU811  SER814 

> <Gold.Protein.RotatedAtoms>
  151.3797  135.0937  159.9491 H   0  0  0  0  0  0  0  0  0  0  0  0  # atno 6907 bound_to 6896
  152.5111  133.9084  159.7486 H   0  0  0  0  0  0  0  0  0  0  0  0  # atno 6908 bound_to 6896
  150.9514  133.6489  159.2800 H   0  0  0  0  0  0  0  0  0  0  0  0  # atno 6909 bound_to 6896
  145.0883  139.3605  143.4873 H   0  0  0  0  0  0  0  0  0  0  0  0  # atno 7974 bound_to 7965
  155.2008  140.3315  155.4343 H   0  0  0  0  0  0  0  0  0  0  0  0  # atno 8008 bound_to 7997
  156.2407  140.1894  156.7045 H   0  0  0  0  0  0  0  0  0  0  0  0  # atno 8009 bound_to 7997
  154.6143  140.0604  156.9519 H   0  0  0  0  0  0  0  0  0  0  0  0  # atno 8010 bound_to 7997
  140.5397  143.2315  151.7111 H   0  0  0  0  0  0  0  0  0  0  0  0  # atno 10167 bound_to 10162
  157.0859  131.0404  151.2557 H   0  0  0  0  0  0  0  0  0  0  0  0  # atno 10718 bound_to 10713
  153.8383  135.6860  153.4806 H   0  0  0  0  0  0  0  0  0  0  0  0  # atno 10763 bound_to 10752
  153.1469  135.4634  154.9577 H   0  0  0  0  0  0  0  0  0  0  0  0  # atno 10764 bound_to 10752
  154.7856  135.3283  154.7840 H   0  0  0  0  0  0  0  0  0  0  0  0  # atno 10765 bound_to 10752
  140.7713  133.8436  155.9209 H   0  0  0  0  0  0  0  0  0  0  0  0  # atno 11005 bound_to 11000
  146.3531  140.0706  142.8623 LP  0  0  0  0  0  0  0  0  0  0  0  0  # atno 17320 bound_to 7965
  145.1096  140.9396  143.4664 LP  0  0  0  0  0  0  0  0  0  0  0  0  # atno 17321 bound_to 7965
  139.4984  144.3987  152.0204 LP  0  0  0  0  0  0  0  0  0  0  0  0  # atno 17342 bound_to 10162
  140.3095  144.3554  150.6037 LP  0  0  0  0  0  0  0  0  0  0  0  0  # atno 17343 bound_to 10162
  157.4762  130.7738  149.7370 LP  0  0  0  0  0  0  0  0  0  0  0  0  # atno 17370 bound_to 10713
  155.9911  130.3940  150.3000 LP  0  0  0  0  0  0  0  0  0  0  0  0  # atno 17371 bound_to 10713
  140.9571  134.1703  157.4683 LP  0  0  0  0  0  0  0  0  0  0  0  0  # atno 17394 bound_to 11000
  139.8755  134.9931  156.5628 LP  0  0  0  0  0  0  0  0  0  0  0  0  # atno 17395 bound_to 11000

$$$$
