AV-unprocessed.smi:2751|AV-procd|sdf|10597|dock7
  -GOLD-   2272015 53D 1   1.00000     0.00000
 Structure written by MMmdl.
 35 36  0  0  0  0  0  0  0  0  2 V2000
  146.8368  137.3052  153.4891 O   0  0  0  0  0  0  0  0  0  0  0  0
  146.2109  138.0275  152.7126 C   0  0  0  0  0  0  0  0  0  0  0  0
  146.2598  139.3676  152.7400 N   0  0  0  0  0  0  0  0  0  0  0  0
  147.0585  140.1548  153.6727 C   0  0  0  0  0  0  0  0  0  0  0  0
  148.5478  139.7749  153.6069 C   0  0  0  0  0  0  0  0  0  0  0  0
  149.2940  140.0618  154.9195 C   0  0  2  0  0  0  0  0  0  0  0  0
  148.8555  141.3969  155.5521 C   0  0  0  0  0  0  0  0  0  0  0  0
  149.6716  141.6867  156.8167 C   0  0  0  0  0  0  0  0  0  0  0  0
  151.1677  141.6074  156.4956 C   0  0  0  0  0  0  0  0  0  0  0  0
  151.4959  140.2722  155.8091 C   0  0  0  0  0  0  0  0  0  0  0  0
  150.6926  140.1159  154.6431 O   0  0  0  0  0  0  0  0  0  0  0  0
  145.4016  137.5806  151.7401 N   0  0  0  0  0  0  0  0  0  0  0  0
  145.1531  136.2228  151.4340 C   0  0  0  0  0  0  0  0  0  0  0  0
  146.0951  135.2816  151.4018 N   0  3  0  0  0  0  0  0  0  0  0  0
  145.5090  134.0823  151.0808 C   0  0  0  0  0  0  0  0  0  0  0  0
  144.1709  134.3516  150.9208 C   0  0  0  0  0  0  0  0  0  0  0  0
  143.9315  135.6935  151.1397 O   0  0  0  0  0  0  0  0  0  0  0  0
  145.7140  139.8836  152.0651 H   0  0  0  0  0  0  0  0  0  0  0  0
  146.9252  141.2200  153.4752 H   0  0  0  0  0  0  0  0  0  0  0  0
  146.6721  139.9765  154.6766 H   0  0  0  0  0  0  0  0  0  0  0  0
  148.6487  138.7189  153.3525 H   0  0  0  0  0  0  0  0  0  0  0  0
  149.0248  140.3321  152.7995 H   0  0  0  0  0  0  0  0  0  0  0  0
  149.0965  139.2485  155.6204 H   0  0  0  0  0  0  0  0  0  0  0  0
  148.9942  142.2075  154.8354 H   0  0  0  0  0  0  0  0  0  0  0  0
  147.7924  141.3717  155.7935 H   0  0  0  0  0  0  0  0  0  0  0  0
  149.4193  142.6689  157.2170 H   0  0  0  0  0  0  0  0  0  0  0  0
  149.4224  140.9585  157.5897 H   0  0  0  0  0  0  0  0  0  0  0  0
  151.4461  142.4327  155.8391 H   0  0  0  0  0  0  0  0  0  0  0  0
  151.7558  141.7189  157.4070 H   0  0  0  0  0  0  0  0  0  0  0  0
  152.5463  140.2494  155.5184 H   0  0  0  0  0  0  0  0  0  0  0  0
  151.3357  139.4344  156.4895 H   0  0  0  0  0  0  0  0  0  0  0  0
  147.0860  135.3893  151.5790 H   0  0  0  0  0  0  0  0  0  0  0  0
  146.0900  133.1746  151.0008 H   0  0  0  0  0  0  0  0  0  0  0  0
  143.3122  133.7459  150.6707 H   0  0  0  0  0  0  0  0  0  0  0  0
  144.9354  138.2666  151.1648 H   0  0  0  0  0  0  0  0  0  0  0  0
  1  2  2  0  0  0  0
  2 12  1  0  0  0  0
  2  3  1  0  0  0  0
  3  4  1  0  0  0  0
  3 18  1  0  0  0  0
  4  5  1  0  0  0  0
  4 19  1  0  0  0  0
  4 20  1  0  0  0  0
  5  6  1  0  0  0  0
  5 21  1  0  0  0  0
  5 22  1  0  0  0  0
  6 11  1  0  0  0  0
  6  7  1  0  0  0  0
  6 23  1  0  0  0  0
  7  8  1  0  0  0  0
  7 24  1  0  0  0  0
  7 25  1  0  0  0  0
  8  9  1  0  0  0  0
  8 26  1  0  0  0  0
  8 27  1  0  0  0  0
  9 10  1  0  0  0  0
  9 28  1  0  0  0  0
  9 29  1  0  0  0  0
 10 11  1  0  0  0  0
 10 30  1  0  0  0  0
 10 31  1  0  0  0  0
 12 13  1  0  0  0  0
 12 35  1  0  0  0  0
 13 17  1  0  0  0  0
 13 14  2  0  0  0  0
 14 32  1  0  0  0  0
 14 15  1  0  0  0  0
 15 33  1  0  0  0  0
 15 16  2  0  0  0  0
 16 34  1  0  0  0  0
 16 17  1  0  0  0  0
M  CHG  1  14   1
M  END
> <s_m_source_file>
AV-unprocessed.smi

> <i_m_source_file_index>
2751

> <i_lp_mmshare_version>
43012

> <i_f3d_flags>
0

> <s_epik_input>
bzFbY0hdW2NIXW5jMVtOSF1DKD1PKVtOSF1bQ0gyXVtDSDJdW0NAQEhdMltDSDJdW0NIMl1bQ0gyXVtDSDJdTzI=

> <s_epik_cmdline>
J2VwaWtfcHl0aG9uJywgJy1waCcsICc3LjAnLCAnLXRuJywgJzgnLCAnLW1hJywgJzIwMCcsICctbWV0YWxfYmluZGluZycsICctaW1hZScsICc8aW5maWxlLm1hZT4nLCAnLW9tYWUnLCAnPG91dGZpbGUubWFlPic=

> <r_epik_Ionization_Penalty>
6.63408

> <r_epik_Ionization_Penalty_Charging>
6.57733

> <r_epik_Ionization_Penalty_Neutral>
0.0567487

> <r_epik_State_Penalty>
1.8175

> <r_epik_Charging_Adjusted_Penalty>
8.39483

> <i_epik_Tot_Q>
1

> <i_epik_Tot_abs_Q>
1

> <r_epik_Metal_State_Penalty>
1.83396

> <b_epik_Metal_Only>
0

> <s_lp_Force_Field>
OPLS_2005

> <r_lp_Energy>
16.4857

> <b_lp_Chiralities_Consistent>
1

> <s_lp_Variant>
AV-unprocessed.smi:2751-3

> <Gold.Version>
5.8.1

> <Gold.Id.Protein>
6NUR|6NUR_protein|mol2

> <Gold.PLP.Fitness>
39.2573

> <Gold.PLP.PLP>
-25.8089

> <Gold.PLP.part.hbond>
-4.0000

> <Gold.PLP.part.metal>
0.0000

> <Gold.PLP.part.buried>
-2.8580

> <Gold.PLP.part.nonpolar>
-22.1103

> <Gold.PLP.part.repulsive>
2.0298

> <Gold.PLP.ligand.clash>
0.0000

> <Gold.PLP.ligand.torsion>
0.6729

> <Gold.PLP.Chemscore.Hbond>
4.2035

> <Gold.PLP.Chemscore.CHOScore>
0.7265

> <Gold.PLP.Chemscore.Metal>
0.0000

> <Gold.Chemscore.Hbonds>
donor molecule, donor type, donor heavy atom, donor atom, acceptor molecule, acceptor atom, score
      L1  H     3    18       P1 10175  0.33
      L1  H    12    35       P1 10171  0.98
      L1  H    14    32       P1  7948  2.00
      P1  H  7989  7998       L1    11  1.00
      L1  C    16    34       P1 10186  0.71

> <Gold.PLP.Chemscore.Internal.Correction>
0.0042

> <Gold.Rescore>
     Score         DG    S(hbond)    S(metal)    S(lipo)     H(rot)  DE(clash)    DE(int)     intcor
     15.10     -17.13       3.01        0.00      49.89       1.66       0.26       1.76       ----

> <Gold.Chemscore.Fitness>
15.1046

> <Gold.Chemscore.DG>
-17.1282

> <Gold.Chemscore.ZeroCoef>
-5.4800

> <Gold.Chemscore.Hbond>
3.0102

> <Gold.Chemscore.Metal>
0.0000

> <Gold.Chemscore.Lipo>
49.8904

> <Gold.Chemscore.Internal_Hbond>
0.0000

> <Gold.Chemscore.DEClash>
0.2640

> <Gold.Chemscore.DEInternal>
1.7597

> <Gold.Chemscore.Rot>
1.6575

> <Gold.Chemscore.Internal.Correction>
   9.000000E+99

> <Gold.Chemscore.Hbonds>
donor molecule, donor type, donor heavy atom, donor atom, acceptor molecule, acceptor atom, score
      L1  H     3    18       P1 10175  0.25
      L1  H    12    35       P1 10171  0.92
      L1  H    14    32       P1  7948  0.91
      P1  H  7989  7998       L1    11  0.30

> <Gold.Chemscore.Hbond.Weighted>
-10.0541

> <Gold.Chemscore.Metal.Weighted>
-0.0000

> <Gold.Chemscore.Lipo.Weighted>
-5.8372

> <Gold.Chemscore.Internal_Hbond.Weighted>
0.0000

> <Gold.Chemscore.DEClash.Weighted>
0.2640

> <Gold.Chemscore.DEInternal.Weighted>
1.7597

> <Gold.Chemscore.Rot.Weighted>
4.2431

> <Gold.Chemscore.Internal.Correction.Weighted>
   9.000000E+99

> <Gold.Protein.RotatedTorsions>
[ 6907 6896 6895 6894 ] final  -56.13 input  -60.11 | X-H torsion
[ 7974 7965 7964 7962 ] final   52.90 input  175.53 | X-H torsion
[ 8008 7997 7996 7995 ] final   48.18 input   59.86 | X-H torsion
[ 10167 10162 10161 10158 ] final  119.67 input  -65.29 | X-H torsion
[ 10718 10713 10712 10709 ] final  141.48 input   66.30 | X-H torsion
[ 10763 10752 10751 10750 ] final  -19.20 input  -60.55 | X-H torsion
[ 11005 11000 10999 10996 ] final -107.63 input  -57.11 | X-H torsion

> <Gold.Protein.ActiveResidues>
 VAL166  LYS551  ARG553  GLY616  TRP617  ASP618  TYR619  PRO620  LYS621  CYS622 
 ASP623  PHE694  ASN695  SER759  ASP760  ASP761  ALA762  ILE779  LEU786  VAL792 
 PHE793  MET794  SER795  GLU796  ALA797  LYS798  CYS799  TRP800  GLU811  SER814 

> <Gold.Protein.RotatedAtoms>
  150.8193  134.7392  159.6757 H   0  0  0  0  0  0  0  0  0  0  0  0  # atno 6907 bound_to 6896
  152.4310  134.5774  159.9948 H   0  0  0  0  0  0  0  0  0  0  0  0  # atno 6908 bound_to 6896
  151.5963  133.3324  159.3074 H   0  0  0  0  0  0  0  0  0  0  0  0  # atno 6909 bound_to 6896
  145.9766  139.4201  143.0157 H   0  0  0  0  0  0  0  0  0  0  0  0  # atno 7974 bound_to 7965
  155.3814  140.3429  155.4247 H   0  0  0  0  0  0  0  0  0  0  0  0  # atno 8008 bound_to 7997
  156.1608  140.1600  156.8649 H   0  0  0  0  0  0  0  0  0  0  0  0  # atno 8009 bound_to 7997
  154.5138  140.0783  156.8023 H   0  0  0  0  0  0  0  0  0  0  0  0  # atno 8010 bound_to 7997
  139.6031  144.7062  151.3017 H   0  0  0  0  0  0  0  0  0  0  0  0  # atno 10167 bound_to 10162
  157.3915  131.1005  151.0641 H   0  0  0  0  0  0  0  0  0  0  0  0  # atno 10718 bound_to 10713
  153.6011  135.6999  153.5384 H   0  0  0  0  0  0  0  0  0  0  0  0  # atno 10763 bound_to 10752
  153.3096  135.4105  155.1324 H   0  0  0  0  0  0  0  0  0  0  0  0  # atno 10764 bound_to 10752
  154.8582  135.3669  154.5546 H   0  0  0  0  0  0  0  0  0  0  0  0  # atno 10765 bound_to 10752
  141.0944  133.8997  157.1998 H   0  0  0  0  0  0  0  0  0  0  0  0  # atno 11005 bound_to 11000
  145.7830  140.9848  143.1089 LP  0  0  0  0  0  0  0  0  0  0  0  0  # atno 17320 bound_to 7965
  144.6850  139.9588  143.7480 LP  0  0  0  0  0  0  0  0  0  0  0  0  # atno 17321 bound_to 7965
  140.7264  143.6990  150.7860 LP  0  0  0  0  0  0  0  0  0  0  0  0  # atno 17342 bound_to 10162
  140.0571  143.5192  152.2646 LP  0  0  0  0  0  0  0  0  0  0  0  0  # atno 17343 bound_to 10162
  157.1673  130.6252  149.5629 LP  0  0  0  0  0  0  0  0  0  0  0  0  # atno 17370 bound_to 10713
  155.9799  130.4797  150.6745 LP  0  0  0  0  0  0  0  0  0  0  0  0  # atno 17371 bound_to 10713
  139.9777  135.0108  156.9673 LP  0  0  0  0  0  0  0  0  0  0  0  0  # atno 17394 bound_to 11000
  140.5175  134.0940  155.7284 LP  0  0  0  0  0  0  0  0  0  0  0  0  # atno 17395 bound_to 11000

$$$$
