AV-unprocessed.smi:1208|AV-procd|sdf|5065|dock6
  -GOLD-   22720 4103D 1   1.00000     0.00000
 Structure written by MMmdl.
 36 37  0  0  0  0  0  0  0  0  1 V2000
  150.8942  138.4845  154.4271 C   0  0  0  0  0  0  0  0  0  0  0  0
  150.2691  139.7856  154.9587 C   0  0  2  0  0  0  0  0  0  0  0  0
  150.5806  139.9307  156.3782 N   0  0  0  0  0  0  0  0  0  0  0  0
  151.8119  139.9229  156.9113 C   0  0  0  0  0  0  0  0  0  0  0  0
  152.8359  139.7524  156.2482 O   0  0  0  0  0  0  0  0  0  0  0  0
  151.8902  140.1119  158.4328 C   0  0  0  0  0  0  0  0  0  0  0  0
  152.0734  141.5159  158.8271 N   0  0  0  0  0  0  0  0  0  0  0  0
  151.2335  142.4047  158.1731 N   0  0  0  0  0  0  0  0  0  0  0  0
  151.2895  143.6643  158.4469 C   0  0  0  0  0  0  0  0  0  0  0  0
  150.4373  144.5086  157.7787 O   0  0  0  0  0  0  0  0  0  0  0  0
  152.2207  144.1770  159.4278 C   0  0  0  0  0  0  0  0  0  0  0  0
  153.0392  143.3041  160.0548 C   0  0  0  0  0  0  0  0  0  0  0  0
  153.0033  141.8692  159.7673 C   0  0  0  0  0  0  0  0  0  0  0  0
  153.7406  141.0525  160.3193 O   0  0  0  0  0  0  0  0  0  0  0  0
  148.7400  139.8243  154.7713 C   0  0  2  0  0  0  0  0  0  0  0  0
  148.2750  139.7567  153.3143 C   0  0  0  0  0  0  0  0  0  0  0  0
  146.9450  140.4711  153.3774 C   0  0  0  0  0  0  0  0  0  0  0  0
  147.2516  141.5914  154.3635 C   0  0  0  0  0  0  0  0  0  0  0  0
  148.2107  141.0537  155.2691 O   0  0  0  0  0  0  0  0  0  0  0  0
  149.8283  143.9441  157.3278 H   0  0  0  0  0  0  0  0  0  0  0  0
  150.7199  138.3680  153.3575 H   0  0  0  0  0  0  0  0  0  0  0  0
  150.4781  137.6106  154.9295 H   0  0  0  0  0  0  0  0  0  0  0  0
  151.9737  138.4740  154.5810 H   0  0  0  0  0  0  0  0  0  0  0  0
  150.6964  140.6259  154.4084 H   0  0  0  0  0  0  0  0  0  0  0  0
  149.7981  140.0782  156.9993 H   0  0  0  0  0  0  0  0  0  0  0  0
  150.9933  139.7068  158.9059 H   0  0  0  0  0  0  0  0  0  0  0  0
  152.7166  139.5033  158.8040 H   0  0  0  0  0  0  0  0  0  0  0  0
  152.2532  145.2341  159.6466 H   0  0  0  0  0  0  0  0  0  0  0  0
  153.7395  143.6729  160.7900 H   0  0  0  0  0  0  0  0  0  0  0  0
  148.2694  139.0149  155.3322 H   0  0  0  0  0  0  0  0  0  0  0  0
  148.9586  140.3054  152.6644 H   0  0  0  0  0  0  0  0  0  0  0  0
  148.1933  138.7359  152.9400 H   0  0  0  0  0  0  0  0  0  0  0  0
  146.6047  140.8359  152.4079 H   0  0  0  0  0  0  0  0  0  0  0  0
  146.1803  139.8080  153.7842 H   0  0  0  0  0  0  0  0  0  0  0  0
  147.7025  142.4395  153.8468 H   0  0  0  0  0  0  0  0  0  0  0  0
  146.3625  141.9453  154.8855 H   0  0  0  0  0  0  0  0  0  0  0  0
  1  2  1  0  0  0  0
  1 21  1  0  0  0  0
  1 22  1  0  0  0  0
  1 23  1  0  0  0  0
  2  3  1  0  0  0  0
  2 15  1  0  0  0  0
  2 24  1  0  0  0  0
  3  4  1  0  0  0  0
  3 25  1  0  0  0  0
  4  5  2  0  0  0  0
  4  6  1  0  0  0  0
  6 26  1  0  0  0  0
  6 27  1  0  0  0  0
  6  7  1  0  0  0  0
  7  8  1  0  0  0  0
  7 13  1  0  0  0  0
  8  9  2  0  0  0  0
  9 10  1  0  0  0  0
  9 11  1  0  0  0  0
 10 20  1  0  0  0  0
 11 28  1  0  0  0  0
 11 12  2  0  0  0  0
 12 29  1  0  0  0  0
 12 13  1  0  0  0  0
 13 14  2  0  0  0  0
 15 19  1  0  0  0  0
 15 16  1  0  0  0  0
 15 30  1  0  0  0  0
 16 17  1  0  0  0  0
 16 31  1  0  0  0  0
 16 32  1  0  0  0  0
 17 18  1  0  0  0  0
 17 33  1  0  0  0  0
 17 34  1  0  0  0  0
 18 19  1  0  0  0  0
 18 35  1  0  0  0  0
 18 36  1  0  0  0  0
M  END
> <s_m_source_file>
AV-unprocessed.smi

> <i_m_source_file_index>
1208

> <i_lp_mmshare_version>
43012

> <i_f3d_flags>
0

> <s_epik_input>
TzFbQ0gyXVtDSDJdW0NIMl1bQ0BIXTFbQ0BIXShbQ0gzXSlbTkhdQyg9TylbQ0gyXW4yW25IXWMoPU8pW2NIXVtjSF1jMj1P

> <s_epik_cmdline>
J2VwaWtfcHl0aG9uJywgJy1waCcsICc3LjAnLCAnLXRuJywgJzgnLCAnLW1hJywgJzIwMCcsICctbWV0YWxfYmluZGluZycsICctaW1hZScsICc8aW5maWxlLm1hZT4nLCAnLW9tYWUnLCAnPG91dGZpbGUubWFlPic=

> <r_lp_tautomer_probability>
0.9996

> <r_epik_Ionization_Penalty>
2.12735

> <r_epik_Ionization_Penalty_Charging>
3.86665e-08

> <r_epik_Ionization_Penalty_Neutral>
2.12735

> <r_epik_State_Penalty>
1.70441

> <r_epik_Charging_Adjusted_Penalty>
1.70441

> <i_epik_Tot_Q>
0

> <i_epik_Tot_abs_Q>
0

> <r_epik_Metal_State_Penalty>
1.70441

> <b_epik_Metal_Only>
0

> <s_lp_Force_Field>
OPLS_2005

> <r_lp_Energy>
29.6219

> <b_lp_Chiralities_Consistent>
1

> <s_lp_Variant>
AV-unprocessed.smi:1208-5

> <Gold.Version>
5.8.1

> <Gold.Id.Protein>
6NUR|6NUR_protein|mol2

> <Gold.PLP.Fitness>
41.0084

> <Gold.PLP.PLP>
-37.4151

> <Gold.PLP.part.hbond>
-2.7874

> <Gold.PLP.part.metal>
0.0000

> <Gold.PLP.part.buried>
0.6038

> <Gold.PLP.part.nonpolar>
-34.7260

> <Gold.PLP.part.repulsive>
0.2208

> <Gold.PLP.ligand.clash>
0.0000

> <Gold.PLP.ligand.torsion>
0.5454

> <Gold.PLP.Chemscore.Hbond>
1.5551

> <Gold.PLP.Chemscore.CHOScore>
0.0000

> <Gold.PLP.Chemscore.Metal>
0.0000

> <Gold.Chemscore.Hbonds>
donor molecule, donor type, donor heavy atom, donor atom, acceptor molecule, acceptor atom, score
      L1  H    10    20       P1  8028  0.31
      P1  H  7997  8008       L1     5  1.00

> <Gold.PLP.Chemscore.Internal.Correction>
0.0187

> <Gold.Rescore>
     Score         DG    S(hbond)    S(metal)    S(lipo)     H(rot)  DE(clash)    DE(int)     intcor
      8.76     -12.25       1.45        0.00      73.85       2.63       1.75       1.75       ----

> <Gold.Chemscore.Fitness>
8.7559

> <Gold.Chemscore.DG>
-12.2521

> <Gold.Chemscore.ZeroCoef>
-5.4800

> <Gold.Chemscore.Hbond>
1.4536

> <Gold.Chemscore.Metal>
0.0000

> <Gold.Chemscore.Lipo>
73.8521

> <Gold.Chemscore.Internal_Hbond>
0.0000

> <Gold.Chemscore.DEClash>
1.7459

> <Gold.Chemscore.DEInternal>
1.7503

> <Gold.Chemscore.Rot>
2.6264

> <Gold.Chemscore.Internal.Correction>
   9.000000E+99

> <Gold.Chemscore.Hbonds>
donor molecule, donor type, donor heavy atom, donor atom, acceptor molecule, acceptor atom, score
      L1  H    10    20       P1  8028  0.20
      P1  H  7997  8008       L1     5  0.96

> <Gold.Chemscore.Hbond.Weighted>
-4.8551

> <Gold.Chemscore.Metal.Weighted>
-0.0000

> <Gold.Chemscore.Lipo.Weighted>
-8.6407

> <Gold.Chemscore.Internal_Hbond.Weighted>
0.0000

> <Gold.Chemscore.DEClash.Weighted>
1.7459

> <Gold.Chemscore.DEInternal.Weighted>
1.7503

> <Gold.Chemscore.Rot.Weighted>
6.7237

> <Gold.Chemscore.Internal.Correction.Weighted>
   9.000000E+99

> <Gold.Protein.RotatedTorsions>
[ 6907 6896 6895 6894 ] final -161.32 input  -60.11 | X-H torsion
[ 7974 7965 7964 7962 ] final  119.75 input  175.53 | X-H torsion
[ 8008 7997 7996 7995 ] final  -35.80 input   59.86 | X-H torsion
[ 10167 10162 10161 10158 ] final   -0.32 input  -65.29 | X-H torsion
[ 10718 10713 10712 10709 ] final   55.48 input   66.30 | X-H torsion
[ 10763 10752 10751 10750 ] final  -22.79 input  -60.55 | X-H torsion
[ 11005 11000 10999 10996 ] final   82.66 input  -57.11 | X-H torsion

> <Gold.Protein.ActiveResidues>
 VAL166  LYS551  ARG553  GLY616  TRP617  ASP618  TYR619  PRO620  LYS621  CYS622 
 ASP623  PHE694  ASN695  SER759  ASP760  ASP761  ALA762  ILE779  LEU786  VAL792 
 PHE793  MET794  SER795  GLU796  ALA797  LYS798  CYS799  TRP800  GLU811  SER814 

> <Gold.Protein.RotatedAtoms>
  151.3628  133.3883  159.2691 H   0  0  0  0  0  0  0  0  0  0  0  0  # atno 6907 bound_to 6896
  150.9712  134.9086  159.7800 H   0  0  0  0  0  0  0  0  0  0  0  0  # atno 6908 bound_to 6896
  152.5185  134.3590  159.9330 H   0  0  0  0  0  0  0  0  0  0  0  0  # atno 6909 bound_to 6896
  145.1394  139.3277  143.4623 H   0  0  0  0  0  0  0  0  0  0  0  0  # atno 7974 bound_to 7965
  154.4087  140.1647  156.2271 H   0  0  0  0  0  0  0  0  0  0  0  0  # atno 8008 bound_to 7997
  155.9314  140.3414  155.6229 H   0  0  0  0  0  0  0  0  0  0  0  0  # atno 8009 bound_to 7997
  155.7101  140.0755  157.2365 H   0  0  0  0  0  0  0  0  0  0  0  0  # atno 8010 bound_to 7997
  140.6762  143.6909  150.8029 H   0  0  0  0  0  0  0  0  0  0  0  0  # atno 10167 bound_to 10162
  157.5349  130.8656  149.8739 H   0  0  0  0  0  0  0  0  0  0  0  0  # atno 10718 bound_to 10713
  153.6576  135.6978  153.5188 H   0  0  0  0  0  0  0  0  0  0  0  0  # atno 10763 bound_to 10752
  153.2657  135.4230  155.0938 H   0  0  0  0  0  0  0  0  0  0  0  0  # atno 10764 bound_to 10752
  154.8460  135.3566  154.6120 H   0  0  0  0  0  0  0  0  0  0  0  0  # atno 10765 bound_to 10752
  139.9056  134.8088  156.2204 H   0  0  0  0  0  0  0  0  0  0  0  0  # atno 11005 bound_to 11000
  146.3506  140.1425  142.8594 LP  0  0  0  0  0  0  0  0  0  0  0  0  # atno 17320 bound_to 7965
  145.0548  140.9044  143.4974 LP  0  0  0  0  0  0  0  0  0  0  0  0  # atno 17321 bound_to 7965
  140.0602  143.5162  152.2631 LP  0  0  0  0  0  0  0  0  0  0  0  0  # atno 17342 bound_to 10162
  139.6056  144.7595  151.3070 LP  0  0  0  0  0  0  0  0  0  0  0  0  # atno 17343 bound_to 10162
  156.0451  130.3730  150.1339 LP  0  0  0  0  0  0  0  0  0  0  0  0  # atno 17370 bound_to 10713
  156.9521  130.9778  151.3496 LP  0  0  0  0  0  0  0  0  0  0  0  0  # atno 17371 bound_to 10713
  141.0409  133.6938  156.1596 LP  0  0  0  0  0  0  0  0  0  0  0  0  # atno 17394 bound_to 11000
  140.6957  134.4618  157.5587 LP  0  0  0  0  0  0  0  0  0  0  0  0  # atno 17395 bound_to 11000

$$$$
