AV-unprocessed.smi:1748|AV-procd|sdf|7038|dock8
  -GOLD-   22720 8253D 1   1.00000     0.00000
 Structure written by MMmdl.
 40 41  0  0  0  0  0  0  0  0  2 V2000
  147.2795  132.7333  152.2052 C   0  0  0  0  0  0  0  0  0  0  0  0
  146.7421  134.1040  152.0709 N   0  3  1  0  0  0  0  0  0  0  0  0
  145.9302  134.2761  150.8401 C   0  0  0  0  0  0  0  0  0  0  0  0
  145.4947  135.7408  150.6631 C   0  0  0  0  0  0  0  0  0  0  0  0
  144.7594  136.2606  151.9105 C   0  0  0  0  0  0  0  0  0  0  0  0
  145.5974  136.0321  153.1818 C   0  0  2  0  0  0  0  0  0  0  0  0
  146.7641  136.9151  153.1750 N   0  0  0  0  0  0  0  0  0  0  0  0
  147.0189  137.8708  154.0800 C   0  0  0  0  0  0  0  0  0  0  0  0
  146.2854  138.1009  155.0410 O   0  0  0  0  0  0  0  0  0  0  0  0
  148.1761  138.4988  153.8031 N   0  0  0  0  0  0  0  0  0  0  0  0
  148.7993  139.5515  154.4936 C   0  0  0  0  0  0  0  0  0  0  0  0
  149.7364  139.3945  155.4650 C   0  0  0  0  0  0  0  0  0  0  0  0
  150.3348  140.5291  156.1493 C   0  0  0  0  0  0  0  0  0  0  0  0
  151.4432  140.3526  157.1755 C   0  0  0  0  0  0  0  0  0  0  0  0
  151.0357  139.5983  158.1970 F   0  0  0  0  0  0  0  0  0  0  0  0
  152.4912  139.7541  156.6110 F   0  0  0  0  0  0  0  0  0  0  0  0
  151.8456  141.5286  157.6575 F   0  0  0  0  0  0  0  0  0  0  0  0
  149.9159  141.7493  155.7668 C   0  0  0  0  0  0  0  0  0  0  0  0
  148.9355  141.9181  154.7865 N   0  0  0  0  0  0  0  0  0  0  0  0
  148.3440  140.9009  154.1209 C   0  0  0  0  0  0  0  0  0  0  0  0
  147.4885  141.1305  153.2666 O   0  0  0  0  0  0  0  0  0  0  0  0
  146.0054  134.5449  153.2820 C   0  0  0  0  0  0  0  0  0  0  0  0
  148.6623  142.8657  154.5689 H   0  0  0  0  0  0  0  0  0  0  0  0
  146.4741  132.0052  152.3106 H   0  0  0  0  0  0  0  0  0  0  0  0
  147.9263  132.6579  153.0801 H   0  0  0  0  0  0  0  0  0  0  0  0
  147.8724  132.4648  151.3303 H   0  0  0  0  0  0  0  0  0  0  0  0
  146.5103  133.9619  149.9714 H   0  0  0  0  0  0  0  0  0  0  0  0
  145.0540  133.6273  150.8881 H   0  0  0  0  0  0  0  0  0  0  0  0
  146.3701  136.3605  150.4646 H   0  0  0  0  0  0  0  0  0  0  0  0
  144.8512  135.8332  149.7876 H   0  0  0  0  0  0  0  0  0  0  0  0
  144.5178  137.3182  151.7953 H   0  0  0  0  0  0  0  0  0  0  0  0
  143.8065  135.7385  152.0085 H   0  0  0  0  0  0  0  0  0  0  0  0
  144.9829  136.2906  154.0460 H   0  0  0  0  0  0  0  0  0  0  0  0
  147.4186  136.7979  152.4150 H   0  0  0  0  0  0  0  0  0  0  0  0
  148.7031  138.1460  153.0173 H   0  0  0  0  0  0  0  0  0  0  0  0
  150.0510  138.4117  155.7761 H   0  0  0  0  0  0  0  0  0  0  0  0
  150.2962  142.6760  156.1710 H   0  0  0  0  0  0  0  0  0  0  0  0
  145.1172  133.9240  153.4098 H   0  0  0  0  0  0  0  0  0  0  0  0
  146.6230  134.3821  154.1662 H   0  0  0  0  0  0  0  0  0  0  0  0
  147.5402  134.7166  151.9809 H   0  0  0  0  0  0  0  0  0  0  0  0
  1  2  1  0  0  0  0
  1 24  1  0  0  0  0
  1 25  1  0  0  0  0
  1 26  1  0  0  0  0
  2 22  1  0  0  0  0
  2  3  1  0  0  0  0
  2 40  1  0  0  0  0
  3  4  1  0  0  0  0
  3 27  1  0  0  0  0
  3 28  1  0  0  0  0
  4  5  1  0  0  0  0
  4 29  1  0  0  0  0
  4 30  1  0  0  0  0
  5  6  1  0  0  0  0
  5 31  1  0  0  0  0
  5 32  1  0  0  0  0
  6  7  1  0  0  0  0
  6 22  1  0  0  0  0
  6 33  1  0  0  0  0
  7  8  1  0  0  0  0
  7 34  1  0  0  0  0
  8  9  2  0  0  0  0
  8 10  1  0  0  0  0
 10 11  1  0  0  0  0
 10 35  1  0  0  0  0
 11 20  1  0  0  0  0
 11 12  2  0  0  0  0
 12 13  1  0  0  0  0
 12 36  1  0  0  0  0
 13 14  1  0  0  0  0
 13 18  2  0  0  0  0
 14 15  1  0  0  0  0
 14 16  1  0  0  0  0
 14 17  1  0  0  0  0
 18 19  1  0  0  0  0
 18 37  1  0  0  0  0
 19 23  1  0  0  0  0
 19 20  1  0  0  0  0
 20 21  2  0  0  0  0
 22 38  1  0  0  0  0
 22 39  1  0  0  0  0
M  CHG  1   2   1
M  END
> <s_m_source_file>
AV-unprocessed.smi

> <i_m_source_file_index>
1748

> <i_lp_mmshare_version>
43012

> <i_f3d_flags>
0

> <s_epik_input>
W0NIM11OMVtDSDJdW0NIMl1bQ0gyXVtDQEhdKFtDSDJdMSlbTkhdQyg9TylbTkhdYzJbY0hdYyhDKEYpKEYpRilbY0hdW25IXWMyPU8=

> <s_epik_cmdline>
J2VwaWtfcHl0aG9uJywgJy1waCcsICc3LjAnLCAnLXRuJywgJzgnLCAnLW1hJywgJzIwMCcsICctbWV0YWxfYmluZGluZycsICctaW1hZScsICc8aW5maWxlLm1hZT4nLCAnLW9tYWUnLCAnPG91dGZpbGUubWFlPic=

> <r_lp_tautomer_probability>
1

> <r_epik_Ionization_Penalty>
0.00746315

> <r_epik_Ionization_Penalty_Charging>
0.00744398

> <r_epik_Ionization_Penalty_Neutral>
1.91704e-05

> <r_epik_State_Penalty>
-0

> <r_epik_Charging_Adjusted_Penalty>
0.00744398

> <i_epik_Tot_Q>
1

> <i_epik_Tot_abs_Q>
1

> <r_epik_Metal_State_Penalty>
0.379332

> <b_epik_Metal_Only>
0

> <s_lp_Force_Field>
OPLS_2005

> <r_lp_Energy>
33.9877

> <b_lp_Chiralities_Consistent>
1

> <s_lp_Variant>
AV-unprocessed.smi:1748-3

> <Gold.Version>
5.8.1

> <Gold.Id.Protein>
6NUR|6NUR_protein|mol2

> <Gold.PLP.Fitness>
39.3185

> <Gold.PLP.PLP>
-28.4046

> <Gold.PLP.part.hbond>
-3.8643

> <Gold.PLP.part.metal>
0.0000

> <Gold.PLP.part.buried>
-0.0216

> <Gold.PLP.part.nonpolar>
-24.6372

> <Gold.PLP.part.repulsive>
0.4920

> <Gold.PLP.ligand.clash>
1.4239

> <Gold.PLP.ligand.torsion>
0.7719

> <Gold.PLP.Chemscore.Hbond>
3.9157

> <Gold.PLP.Chemscore.CHOScore>
0.7003

> <Gold.PLP.Chemscore.Metal>
0.0000

> <Gold.Chemscore.Hbonds>
donor molecule, donor type, donor heavy atom, donor atom, acceptor molecule, acceptor atom, score
      L1  H     2    40       P1  7948  2.00
      L1  H     7    34       P1  7948  0.99
      L1  H    10    35       P1  7948  0.40
      L1  H    19    23       P1  8028  0.49
      L1  C    18    37       P1  8028  0.70

> <Gold.PLP.Chemscore.Internal.Correction>
0.0335

> <Gold.Rescore>
     Score         DG    S(hbond)    S(metal)    S(lipo)     H(rot)  DE(clash)    DE(int)     intcor
     17.42     -18.58       2.71        0.00      56.44       1.00       0.39       0.77       ----

> <Gold.Chemscore.Fitness>
17.4165

> <Gold.Chemscore.DG>
-18.5847

> <Gold.Chemscore.ZeroCoef>
-5.4800

> <Gold.Chemscore.Hbond>
2.7129

> <Gold.Chemscore.Metal>
0.0000

> <Gold.Chemscore.Lipo>
56.4412

> <Gold.Chemscore.Internal_Hbond>
0.0000

> <Gold.Chemscore.DEClash>
0.3949

> <Gold.Chemscore.DEInternal>
0.7733

> <Gold.Chemscore.Rot>
1.0000

> <Gold.Chemscore.Internal.Correction>
   9.000000E+99

> <Gold.Chemscore.Hbonds>
donor molecule, donor type, donor heavy atom, donor atom, acceptor molecule, acceptor atom, score
      L1  H     2    40       P1  7948  0.65
      L1  H     7    34       P1  7948  0.94
      L1  H    10    35       P1  7948  0.41
      L1  H    19    23       P1  8028  0.48

> <Gold.Chemscore.Hbond.Weighted>
-9.0611

> <Gold.Chemscore.Metal.Weighted>
-0.0000

> <Gold.Chemscore.Lipo.Weighted>
-6.6036

> <Gold.Chemscore.Internal_Hbond.Weighted>
0.0000

> <Gold.Chemscore.DEClash.Weighted>
0.3949

> <Gold.Chemscore.DEInternal.Weighted>
0.7733

> <Gold.Chemscore.Rot.Weighted>
2.5600

> <Gold.Chemscore.Internal.Correction.Weighted>
   9.000000E+99

> <Gold.Protein.RotatedTorsions>
[ 6907 6896 6895 6894 ] final -172.96 input  -60.11 | X-H torsion
[ 7974 7965 7964 7962 ] final  -54.92 input  175.53 | X-H torsion
[ 8008 7997 7996 7995 ] final   22.06 input   59.86 | X-H torsion
[ 10167 10162 10161 10158 ] final   21.66 input  -65.29 | X-H torsion
[ 10718 10713 10712 10709 ] final  145.74 input   66.30 | X-H torsion
[ 10763 10752 10751 10750 ] final  122.55 input  -60.55 | X-H torsion
[ 11005 11000 10999 10996 ] final -134.11 input  -57.11 | X-H torsion

> <Gold.Protein.ActiveResidues>
 VAL166  LYS551  ARG553  GLY616  TRP617  ASP618  TYR619  PRO620  LYS621  CYS622 
 ASP623  PHE694  ASN695  SER759  ASP760  ASP761  ALA762  ILE779  LEU786  VAL792 
 PHE793  MET794  SER795  GLU796  ALA797  LYS798  CYS799  TRP800  GLU811  SER814 

> <Gold.Protein.RotatedAtoms>
  151.5484  133.3421  159.2948 H   0  0  0  0  0  0  0  0  0  0  0  0  # atno 6907 bound_to 6896
  150.8493  134.7815  159.7007 H   0  0  0  0  0  0  0  0  0  0  0  0  # atno 6908 bound_to 6896
  152.4543  134.5333  159.9869 H   0  0  0  0  0  0  0  0  0  0  0  0  # atno 6909 bound_to 6896
  145.8800  140.8151  142.9844 H   0  0  0  0  0  0  0  0  0  0  0  0  # atno 7974 bound_to 7965
  154.9601  140.3077  155.5035 H   0  0  0  0  0  0  0  0  0  0  0  0  # atno 8008 bound_to 7997
  156.2978  140.2303  156.4624 H   0  0  0  0  0  0  0  0  0  0  0  0  # atno 8009 bound_to 7997
  154.7973  140.0436  157.1235 H   0  0  0  0  0  0  0  0  0  0  0  0  # atno 8010 bound_to 7997
  140.5410  143.9678  150.6519 H   0  0  0  0  0  0  0  0  0  0  0  0  # atno 10167 bound_to 10162
  157.3416  131.0936  151.1077 H   0  0  0  0  0  0  0  0  0  0  0  0  # atno 10718 bound_to 10713
  153.6316  135.3395  155.3043 H   0  0  0  0  0  0  0  0  0  0  0  0  # atno 10763 bound_to 10752
  154.8579  135.4297  154.2100 H   0  0  0  0  0  0  0  0  0  0  0  0  # atno 10764 bound_to 10752
  153.2997  135.7023  153.7288 H   0  0  0  0  0  0  0  0  0  0  0  0  # atno 10765 bound_to 10752
  140.9020  134.1678  157.4453 H   0  0  0  0  0  0  0  0  0  0  0  0  # atno 11005 bound_to 11000
  144.6727  140.1369  143.7440 LP  0  0  0  0  0  0  0  0  0  0  0  0  # atno 17320 bound_to 7965
  145.9034  139.2444  143.1480 LP  0  0  0  0  0  0  0  0  0  0  0  0  # atno 17321 bound_to 7965
  140.3078  143.3218  152.0909 LP  0  0  0  0  0  0  0  0  0  0  0  0  # atno 17342 bound_to 10162
  139.4989  144.6656  151.6365 LP  0  0  0  0  0  0  0  0  0  0  0  0  # atno 17343 bound_to 10162
  157.2287  130.6515  149.5840 LP  0  0  0  0  0  0  0  0  0  0  0  0  # atno 17370 bound_to 10713
  155.9708  130.4606  150.6078 LP  0  0  0  0  0  0  0  0  0  0  0  0  # atno 17371 bound_to 10713
  139.8743  134.9902  156.5490 LP  0  0  0  0  0  0  0  0  0  0  0  0  # atno 17394 bound_to 11000
  140.8218  133.8347  155.8903 LP  0  0  0  0  0  0  0  0  0  0  0  0  # atno 17395 bound_to 11000

$$$$
