AV-unprocessed.smi:1958|AV-procd|sdf|7908|dock8
  -GOLD-   2272010 73D 1   1.00000     0.00000
 Structure written by MMmdl.
 48 49  0  0  0  0  0  0  0  0  2 V2000
  152.0382  143.8994  158.7099 C   0  0  0  0  0  0  0  0  0  0  0  0
  150.8518  143.1460  158.5314 O   0  0  0  0  0  0  0  0  0  0  0  0
  151.1043  141.8481  158.0209 C   0  0  0  0  0  0  0  0  0  0  0  0
  149.7621  141.1541  157.7449 C   0  0  0  0  0  0  0  0  0  0  0  0
  149.9551  139.8251  157.1562 N   0  0  0  0  0  0  0  0  0  0  0  0
  149.3343  138.8030  157.8547 N   0  0  0  0  0  0  0  0  0  0  0  0
  149.4318  137.5807  157.4413 C   0  0  0  0  0  0  0  0  0  0  0  0
  148.7814  136.4536  158.1659 C   0  0  0  0  0  0  0  0  0  0  0  0
  149.0818  135.2785  157.9493 O   0  0  0  0  0  0  0  0  0  0  0  0
  147.8514  136.8095  159.0686 N   0  0  0  0  0  0  0  0  0  0  0  0
  147.1026  135.8740  159.8995 C   0  0  0  0  0  0  0  0  0  0  0  0
  146.0423  136.5873  160.7804 C   0  0  2  0  0  0  0  0  0  0  0  0
  146.5360  136.6759  162.2442 C   0  0  0  0  0  0  0  0  0  0  0  0
  144.6888  135.9407  160.7230 N   0  3  0  0  0  0  0  0  0  0  0  0
  144.6807  134.5694  161.3036 C   0  0  0  0  0  0  0  0  0  0  0  0
  143.2983  133.9113  161.1636 C   0  0  0  0  0  0  0  0  0  0  0  0
  142.3223  134.7212  161.8006 O   0  0  0  0  0  0  0  0  0  0  0  0
  142.2317  135.9986  161.1891 C   0  0  0  0  0  0  0  0  0  0  0  0
  143.5761  136.7364  161.3137 C   0  0  0  0  0  0  0  0  0  0  0  0
  150.1889  137.2579  156.2439 C   0  0  0  0  0  0  0  0  0  0  0  0
  150.7948  138.2647  155.5773 C   0  0  0  0  0  0  0  0  0  0  0  0
  150.7061  139.6552  156.0264 C   0  0  0  0  0  0  0  0  0  0  0  0
  151.2599  140.5870  155.4442 O   0  0  0  0  0  0  0  0  0  0  0  0
  151.7911  144.8847  159.1053 H   0  0  0  0  0  0  0  0  0  0  0  0
  152.5628  144.0387  157.7637 H   0  0  0  0  0  0  0  0  0  0  0  0
  152.7121  143.4128  159.4162 H   0  0  0  0  0  0  0  0  0  0  0  0
  151.6932  141.9162  157.1049 H   0  0  0  0  0  0  0  0  0  0  0  0
  151.6834  141.2707  158.7436 H   0  0  0  0  0  0  0  0  0  0  0  0
  149.2008  141.0684  158.6771 H   0  0  0  0  0  0  0  0  0  0  0  0
  149.1464  141.7760  157.0927 H   0  0  0  0  0  0  0  0  0  0  0  0
  147.6577  137.7937  159.1883 H   0  0  0  0  0  0  0  0  0  0  0  0
  146.6327  135.1690  159.2133 H   0  0  0  0  0  0  0  0  0  0  0  0
  147.7937  135.3103  160.5291 H   0  0  0  0  0  0  0  0  0  0  0  0
  145.9382  137.6022  160.3931 H   0  0  0  0  0  0  0  0  0  0  0  0
  147.5167  137.1455  162.3178 H   0  0  0  0  0  0  0  0  0  0  0  0
  146.6147  135.6847  162.6918 H   0  0  0  0  0  0  0  0  0  0  0  0
  145.8800  137.2730  162.8747 H   0  0  0  0  0  0  0  0  0  0  0  0
  145.4102  133.9284  160.8130 H   0  0  0  0  0  0  0  0  0  0  0  0
  144.9594  134.6182  162.3574 H   0  0  0  0  0  0  0  0  0  0  0  0
  143.0402  133.7590  160.1143 H   0  0  0  0  0  0  0  0  0  0  0  0
  143.3015  132.9288  161.6358 H   0  0  0  0  0  0  0  0  0  0  0  0
  141.9397  135.8955  160.1427 H   0  0  0  0  0  0  0  0  0  0  0  0
  141.4445  136.5692  161.6823 H   0  0  0  0  0  0  0  0  0  0  0  0
  143.7923  136.9477  162.3622 H   0  0  0  0  0  0  0  0  0  0  0  0
  143.4651  137.6912  160.8010 H   0  0  0  0  0  0  0  0  0  0  0  0
  150.2715  136.2406  155.8896 H   0  0  0  0  0  0  0  0  0  0  0  0
  151.3619  138.0393  154.6860 H   0  0  0  0  0  0  0  0  0  0  0  0
  144.4645  135.8445  159.7428 H   0  0  0  0  0  0  0  0  0  0  0  0
  1  2  1  0  0  0  0
  1 24  1  0  0  0  0
  1 25  1  0  0  0  0
  1 26  1  0  0  0  0
  2  3  1  0  0  0  0
  3  4  1  0  0  0  0
  3 27  1  0  0  0  0
  3 28  1  0  0  0  0
  4  5  1  0  0  0  0
  4 29  1  0  0  0  0
  4 30  1  0  0  0  0
  5 22  1  0  0  0  0
  5  6  1  0  0  0  0
  6  7  2  0  0  0  0
  7  8  1  0  0  0  0
  7 20  1  0  0  0  0
  8  9  2  0  0  0  0
  8 10  1  0  0  0  0
 10 11  1  0  0  0  0
 10 31  1  0  0  0  0
 11 12  1  0  0  0  0
 11 32  1  0  0  0  0
 11 33  1  0  0  0  0
 12 13  1  0  0  0  0
 12 14  1  0  0  0  0
 12 34  1  0  0  0  0
 13 35  1  0  0  0  0
 13 36  1  0  0  0  0
 13 37  1  0  0  0  0
 14 19  1  0  0  0  0
 14 15  1  0  0  0  0
 14 48  1  0  0  0  0
 15 16  1  0  0  0  0
 15 38  1  0  0  0  0
 15 39  1  0  0  0  0
 16 17  1  0  0  0  0
 16 40  1  0  0  0  0
 16 41  1  0  0  0  0
 17 18  1  0  0  0  0
 18 19  1  0  0  0  0
 18 42  1  0  0  0  0
 18 43  1  0  0  0  0
 19 44  1  0  0  0  0
 19 45  1  0  0  0  0
 20 21  2  0  0  0  0
 20 46  1  0  0  0  0
 21 22  1  0  0  0  0
 21 47  1  0  0  0  0
 22 23  2  0  0  0  0
M  CHG  1  14   1
M  END
> <s_m_source_file>
AV-unprocessed.smi

> <i_m_source_file_index>
1958

> <i_lp_mmshare_version>
43012

> <i_f3d_flags>
0

> <s_epik_input>
W0NIM11PW0NIMl1bQ0gyXW4xbmMoW2NIXVtjSF1jMT1PKUMoPU8pW05IXVtDSDJdW0NASF0oW0NIM10pTjJbQ0gyXVtDSDJdT1tDSDJdW0NIMl0y

> <s_epik_cmdline>
J2VwaWtfcHl0aG9uJywgJy1waCcsICc3LjAnLCAnLXRuJywgJzgnLCAnLW1hJywgJzIwMCcsICctbWV0YWxfYmluZGluZycsICctaW1hZScsICc8aW5maWxlLm1hZT4nLCAnLW9tYWUnLCAnPG91dGZpbGUubWFlPic=

> <r_lp_tautomer_probability>
1

> <r_epik_Ionization_Penalty>
0.724355

> <r_epik_Ionization_Penalty_Charging>
0.724348

> <r_epik_Ionization_Penalty_Neutral>
6.31911e-06

> <r_epik_State_Penalty>
0.749058

> <r_epik_Charging_Adjusted_Penalty>
1.47341

> <i_epik_Tot_Q>
1

> <i_epik_Tot_abs_Q>
1

> <r_epik_Metal_State_Penalty>
0.750821

> <b_epik_Metal_Only>
0

> <s_lp_Force_Field>
OPLS_2005

> <r_lp_Energy>
41.4704

> <b_lp_Chiralities_Consistent>
1

> <s_lp_Variant>
AV-unprocessed.smi:1958-3

> <Gold.Version>
5.8.1

> <Gold.Id.Protein>
6NUR|6NUR_protein|mol2

> <Gold.PLP.Fitness>
39.9649

> <Gold.PLP.PLP>
-35.6769

> <Gold.PLP.part.hbond>
-2.0000

> <Gold.PLP.part.metal>
0.0000

> <Gold.PLP.part.buried>
-5.8709

> <Gold.PLP.part.nonpolar>
-28.5597

> <Gold.PLP.part.repulsive>
0.5147

> <Gold.PLP.ligand.clash>
0.0000

> <Gold.PLP.ligand.torsion>
0.8554

> <Gold.PLP.Chemscore.Hbond>
1.9280

> <Gold.PLP.Chemscore.CHOScore>
0.0000

> <Gold.PLP.Chemscore.Metal>
0.0000

> <Gold.Chemscore.Hbonds>
donor molecule, donor type, donor heavy atom, donor atom, acceptor molecule, acceptor atom, score
      P1  H  6896  6909       L1     9  0.19
      P1  H  7989  7998       L1    23  0.85

> <Gold.PLP.Chemscore.Internal.Correction>
0.2148

> <Gold.Rescore>
     Score         DG    S(hbond)    S(metal)    S(lipo)     H(rot)  DE(clash)    DE(int)     intcor
     15.25     -16.20       1.96        0.00      82.04       2.12       0.07       0.89       ----

> <Gold.Chemscore.Fitness>
15.2485

> <Gold.Chemscore.DG>
-16.2024

> <Gold.Chemscore.ZeroCoef>
-5.4800

> <Gold.Chemscore.Hbond>
1.9629

> <Gold.Chemscore.Metal>
0.0000

> <Gold.Chemscore.Lipo>
82.0421

> <Gold.Chemscore.Internal_Hbond>
0.0000

> <Gold.Chemscore.DEClash>
0.0653

> <Gold.Chemscore.DEInternal>
0.8885

> <Gold.Chemscore.Rot>
2.1221

> <Gold.Chemscore.Internal.Correction>
   9.000000E+99

> <Gold.Chemscore.Hbonds>
donor molecule, donor type, donor heavy atom, donor atom, acceptor molecule, acceptor atom, score
      P1  H  6896  6909       L1     9  0.20
      P1  H  7989  7998       L1    23  0.82

> <Gold.Chemscore.Hbond.Weighted>
-6.5559

> <Gold.Chemscore.Metal.Weighted>
-0.0000

> <Gold.Chemscore.Lipo.Weighted>
-9.5989

> <Gold.Chemscore.Internal_Hbond.Weighted>
0.0000

> <Gold.Chemscore.DEClash.Weighted>
0.0653

> <Gold.Chemscore.DEInternal.Weighted>
0.8885

> <Gold.Chemscore.Rot.Weighted>
5.4325

> <Gold.Chemscore.Internal.Correction.Weighted>
   9.000000E+99

> <Gold.Protein.RotatedTorsions>
[ 6907 6896 6895 6894 ] final   32.97 input  -60.11 | X-H torsion
[ 7974 7965 7964 7962 ] final -139.38 input  175.53 | X-H torsion
[ 8008 7997 7996 7995 ] final  100.79 input   59.86 | X-H torsion
[ 10167 10162 10161 10158 ] final  135.84 input  -65.29 | X-H torsion
[ 10718 10713 10712 10709 ] final   -8.23 input   66.30 | X-H torsion
[ 10763 10752 10751 10750 ] final -142.88 input  -60.55 | X-H torsion
[ 11005 11000 10999 10996 ] final   92.17 input  -57.11 | X-H torsion

> <Gold.Protein.ActiveResidues>
 VAL166  LYS551  ARG553  GLY616  TRP617  ASP618  TYR619  PRO620  LYS621  CYS622 
 ASP623  PHE694  ASN695  SER759  ASP760  ASP761  ALA762  ILE779  LEU786  VAL792 
 PHE793  MET794  SER795  GLU796  ALA797  LYS798  CYS799  TRP800  GLU811  SER814 

> <Gold.Protein.RotatedAtoms>
  152.0820  134.9465  160.0573 H   0  0  0  0  0  0  0  0  0  0  0  0  # atno 6907 bound_to 6896
  152.0750  133.4120  159.4484 H   0  0  0  0  0  0  0  0  0  0  0  0  # atno 6908 bound_to 6896
  150.6836  134.2968  159.4733 H   0  0  0  0  0  0  0  0  0  0  0  0  # atno 6909 bound_to 6896
  144.8681  140.6325  143.5284 H   0  0  0  0  0  0  0  0  0  0  0  0  # atno 7974 bound_to 7965
  156.1237  140.3208  155.8245 H   0  0  0  0  0  0  0  0  0  0  0  0  # atno 8008 bound_to 7997
  155.4459  140.0529  157.3023 H   0  0  0  0  0  0  0  0  0  0  0  0  # atno 8009 bound_to 7997
  154.4846  140.2067  155.9698 H   0  0  0  0  0  0  0  0  0  0  0  0  # atno 8010 bound_to 7997
  139.5202  144.6496  151.5341 H   0  0  0  0  0  0  0  0  0  0  0  0  # atno 10167 bound_to 10162
  156.7056  130.5106  149.5905 H   0  0  0  0  0  0  0  0  0  0  0  0  # atno 10718 bound_to 10713
  154.8492  135.3483  154.6099 H   0  0  0  0  0  0  0  0  0  0  0  0  # atno 10763 bound_to 10752
  153.6707  135.6985  153.5152 H   0  0  0  0  0  0  0  0  0  0  0  0  # atno 10764 bound_to 10752
  153.2744  135.4283  155.0976 H   0  0  0  0  0  0  0  0  0  0  0  0  # atno 10765 bound_to 10752
  139.8827  134.8717  156.3533 H   0  0  0  0  0  0  0  0  0  0  0  0  # atno 11005 bound_to 11000
  145.4182  139.1568  143.4088 LP  0  0  0  0  0  0  0  0  0  0  0  0  # atno 17320 bound_to 7965
  146.2911  140.4291  142.8739 LP  0  0  0  0  0  0  0  0  0  0  0  0  # atno 17321 bound_to 7965
  140.6295  143.9104  150.6593 LP  0  0  0  0  0  0  0  0  0  0  0  0  # atno 17342 bound_to 10162
  140.2403  143.3668  152.1492 LP  0  0  0  0  0  0  0  0  0  0  0  0  # atno 17343 bound_to 10162
  156.1697  130.6429  151.0822 LP  0  0  0  0  0  0  0  0  0  0  0  0  # atno 17370 bound_to 10713
  157.6956  131.0795  150.6979 LP  0  0  0  0  0  0  0  0  0  0  0  0  # atno 17371 bound_to 10713
  140.9579  133.7408  156.0361 LP  0  0  0  0  0  0  0  0  0  0  0  0  # atno 17394 bound_to 11000
  140.8026  134.3492  157.5435 LP  0  0  0  0  0  0  0  0  0  0  0  0  # atno 17395 bound_to 11000

$$$$
