AV-unprocessed.smi:226|AV-procd|sdf|1726|dock10
  -GOLD-   2262020213D 1   1.00000     0.00000
 Structure written by MMmdl.
 54 58  0  0  0  0  0  0  0  0  1 V2000
  147.5128  136.3623  158.3622 O   0  0  0  0  0  0  0  0  0  0  0  0
  146.5359  136.5501  159.0871 C   0  0  0  0  0  0  0  0  0  0  0  0
  146.5871  136.4259  160.4237 N   0  0  0  0  0  0  0  0  0  0  0  0
  147.7385  136.0738  161.1874 C   0  0  0  0  0  0  0  0  0  0  0  0
  147.6111  134.9145  162.1516 C   0  0  0  0  0  0  0  0  0  0  0  0
  147.6884  136.3207  162.6795 C   0  0  0  0  0  0  0  0  0  0  0  0
  145.1921  136.9624  158.4473 C   0  0  1  0  0  0  0  0  0  0  0  0
  144.6773  138.3002  159.0064 C   0  0  0  0  0  0  0  0  0  0  0  0
  145.2424  139.3485  158.0493 C   0  0  0  0  0  0  0  0  0  0  0  0
  145.2091  138.6391  156.6951 C   0  0  0  0  0  0  0  0  0  0  0  0
  145.2687  137.2167  157.0037 N   0  0  0  0  0  0  0  0  0  0  0  0
  145.2534  136.2379  156.0571 C   0  0  0  0  0  0  0  0  0  0  0  0
  145.7616  135.0199  156.3832 N   0  0  0  0  0  0  0  0  0  0  0  0
  145.7818  134.0264  155.4919 C   0  0  0  0  0  0  0  0  0  0  0  0
  145.3557  134.0329  154.2292 N   0  0  0  0  0  0  0  0  0  0  0  0
  144.8461  135.2499  153.8859 C   0  0  0  0  0  0  0  0  0  0  0  0
  144.7491  136.3948  154.7304 C   0  0  0  0  0  0  0  0  0  0  0  0
  144.1575  137.4380  154.0251 N   0  0  0  0  0  0  0  0  0  0  0  0
  143.9165  136.9399  152.8440 C   0  0  0  0  0  0  0  0  0  0  0  0
  144.3291  135.6406  152.6625 N   0  0  0  0  0  0  0  0  0  0  0  0
  144.1574  134.8435  151.4826 C   0  0  0  0  0  0  0  0  0  0  0  0
  143.7300  133.3758  151.5756 C   0  0  0  0  0  0  0  0  0  0  0  0
  144.6461  133.0182  150.3847 C   0  0  0  0  0  0  0  0  0  0  0  0
  145.5202  131.7708  150.5861 C   0  0  0  0  0  0  0  0  0  0  0  0
  146.5820  131.7292  149.6545 O   0  0  0  0  0  0  0  0  0  0  0  0
  143.9796  132.8857  148.9971 C   0  0  0  0  0  0  0  0  0  0  0  0
  142.8085  132.0954  149.0119 O   0  0  0  0  0  0  0  0  0  0  0  0
  145.3644  134.3553  150.6746 C   0  0  0  0  0  0  0  0  0  0  0  0
  145.7381  136.6033  160.9403 H   0  0  0  0  0  0  0  0  0  0  0  0
  148.7113  136.1947  160.7129 H   0  0  0  0  0  0  0  0  0  0  0  0
  146.6504  134.4062  162.2123 H   0  0  0  0  0  0  0  0  0  0  0  0
  148.4833  134.2782  162.2885 H   0  0  0  0  0  0  0  0  0  0  0  0
  148.6120  136.6244  163.1680 H   0  0  0  0  0  0  0  0  0  0  0  0
  146.7795  136.7551  163.0919 H   0  0  0  0  0  0  0  0  0  0  0  0
  144.4595  136.1840  158.6659 H   0  0  0  0  0  0  0  0  0  0  0  0
  143.5874  138.3179  158.9639 H   0  0  0  0  0  0  0  0  0  0  0  0
  144.9631  138.4850  160.0429 H   0  0  0  0  0  0  0  0  0  0  0  0
  144.6776  140.2811  158.0542 H   0  0  0  0  0  0  0  0  0  0  0  0
  146.2730  139.5775  158.3235 H   0  0  0  0  0  0  0  0  0  0  0  0
  144.2775  138.8569  156.1710 H   0  0  0  0  0  0  0  0  0  0  0  0
  146.0450  138.9554  156.0705 H   0  0  0  0  0  0  0  0  0  0  0  0
  146.2021  133.0944  155.8399 H   0  0  0  0  0  0  0  0  0  0  0  0
  143.4353  137.5149  152.0661 H   0  0  0  0  0  0  0  0  0  0  0  0
  143.4695  135.4027  150.8474 H   0  0  0  0  0  0  0  0  0  0  0  0
  144.0498  132.9113  152.5101 H   0  0  0  0  0  0  0  0  0  0  0  0
  142.6666  133.2072  151.4022 H   0  0  0  0  0  0  0  0  0  0  0  0
  145.9330  131.7364  151.5949 H   0  0  0  0  0  0  0  0  0  0  0  0
  144.9345  130.8594  150.4615 H   0  0  0  0  0  0  0  0  0  0  0  0
  147.3717  131.4808  150.1109 H   0  0  0  0  0  0  0  0  0  0  0  0
  143.7107  133.8663  148.6029 H   0  0  0  0  0  0  0  0  0  0  0  0
  144.6640  132.4375  148.2764 H   0  0  0  0  0  0  0  0  0  0  0  0
  142.0585  132.6703  149.0141 H   0  0  0  0  0  0  0  0  0  0  0  0
  145.5872  134.9578  149.7933 H   0  0  0  0  0  0  0  0  0  0  0  0
  146.2547  134.2318  151.2935 H   0  0  0  0  0  0  0  0  0  0  0  0
  1  2  2  0  0  0  0
  2  3  1  0  0  0  0
  2  7  1  0  0  0  0
  3  4  1  0  0  0  0
  3 29  1  0  0  0  0
  4  6  1  0  0  0  0
  4  5  1  0  0  0  0
  4 30  1  0  0  0  0
  5  6  1  0  0  0  0
  5 31  1  0  0  0  0
  5 32  1  0  0  0  0
  6 33  1  0  0  0  0
  6 34  1  0  0  0  0
  7 11  1  0  0  0  0
  7  8  1  0  0  0  0
  7 35  1  0  0  0  0
  8  9  1  0  0  0  0
  8 36  1  0  0  0  0
  8 37  1  0  0  0  0
  9 10  1  0  0  0  0
  9 38  1  0  0  0  0
  9 39  1  0  0  0  0
 10 11  1  0  0  0  0
 10 40  1  0  0  0  0
 10 41  1  0  0  0  0
 11 12  1  0  0  0  0
 12 17  1  0  0  0  0
 12 13  2  0  0  0  0
 13 14  1  0  0  0  0
 14 15  2  0  0  0  0
 14 42  1  0  0  0  0
 15 16  1  0  0  0  0
 16 20  1  0  0  0  0
 16 17  2  0  0  0  0
 17 18  1  0  0  0  0
 18 19  2  0  0  0  0
 19 20  1  0  0  0  0
 19 43  1  0  0  0  0
 20 21  1  0  0  0  0
 21 28  1  0  0  0  0
 21 22  1  0  0  0  0
 21 44  1  0  0  0  0
 22 23  1  0  0  0  0
 22 45  1  0  0  0  0
 22 46  1  0  0  0  0
 23 24  1  0  0  0  0
 23 26  1  0  0  0  0
 23 28  1  0  0  0  0
 24 25  1  0  0  0  0
 24 47  1  0  0  0  0
 24 48  1  0  0  0  0
 25 49  1  0  0  0  0
 26 27  1  0  0  0  0
 26 50  1  0  0  0  0
 26 51  1  0  0  0  0
 27 52  1  0  0  0  0
 28 53  1  0  0  0  0
 28 54  1  0  0  0  0
M  END
> <s_m_source_file>
AV-unprocessed.smi

> <i_m_source_file_index>
226

> <i_lp_mmshare_version>
43012

> <i_f3d_flags>
0

> <s_epik_input>
W0NIMl0xW0NIMl1bQ0hdMVtOSF1DKD1PKVtDQEBIXTJbQ0gyXVtDSDJdW0NIMl1OMmMobltjSF1uMyljKGMzNCluW2NIXW40W0NIXShbQ0gyXTUpW0NIMl1DNShbQ0gyXVtPSF0pW0NIMl1bT0hd

> <s_epik_cmdline>
J2VwaWtfcHl0aG9uJywgJy1waCcsICc3LjAnLCAnLXRuJywgJzgnLCAnLW1hJywgJzIwMCcsICctbWV0YWxfYmluZGluZycsICctaW1hZScsICc8aW5maWxlLm1hZT4nLCAnLW9tYWUnLCAnPG91dGZpbGUubWFlPic=

> <r_lp_tautomer_probability>
1

> <r_epik_Ionization_Penalty>
0.000818715

> <r_epik_Ionization_Penalty_Charging>
0

> <r_epik_Ionization_Penalty_Neutral>
0.000818715

> <r_epik_State_Penalty>
0.000426447

> <r_epik_Charging_Adjusted_Penalty>
0.000426447

> <i_epik_Tot_Q>
0

> <i_epik_Tot_abs_Q>
0

> <r_epik_Metal_State_Penalty>
-0

> <b_epik_Metal_Only>
0

> <s_lp_Force_Field>
OPLS_2005

> <r_lp_Energy>
62.928

> <b_lp_Chiralities_Consistent>
1

> <s_lp_Variant>
AV-unprocessed.smi:226-2

> <Gold.Version>
5.8.1

> <Gold.Id.Protein>
6NUR|6NUR_protein|mol2

> <Gold.PLP.Fitness>
49.1142

> <Gold.PLP.PLP>
-39.0359

> <Gold.PLP.part.hbond>
-4.0000

> <Gold.PLP.part.metal>
0.0000

> <Gold.PLP.part.buried>
-7.9435

> <Gold.PLP.part.nonpolar>
-27.8461

> <Gold.PLP.part.repulsive>
0.3092

> <Gold.PLP.ligand.clash>
0.0000

> <Gold.PLP.ligand.torsion>
1.2325

> <Gold.PLP.Chemscore.Hbond>
2.9913

> <Gold.PLP.Chemscore.CHOScore>
1.0000

> <Gold.PLP.Chemscore.Metal>
0.0000

> <Gold.Chemscore.Hbonds>
donor molecule, donor type, donor heavy atom, donor atom, acceptor molecule, acceptor atom, score
      L1  H    25    49       P1 10747  1.00
      L1  H    27    52       P1 10186  0.84
      P1  H 10785 10796       L1    27  1.00
      L1  C    19    43       P1 10171  1.00

> <Gold.PLP.Chemscore.Internal.Correction>
0.5695

> <Gold.Rescore>
     Score         DG    S(hbond)    S(metal)    S(lipo)     H(rot)  DE(clash)    DE(int)     intcor
     12.00     -14.06       2.65        0.00      74.94       3.52       0.00       2.06       ----

> <Gold.Chemscore.Fitness>
11.9963

> <Gold.Chemscore.DG>
-14.0592

> <Gold.Chemscore.ZeroCoef>
-5.4800

> <Gold.Chemscore.Hbond>
2.6450

> <Gold.Chemscore.Metal>
0.0000

> <Gold.Chemscore.Lipo>
74.9352

> <Gold.Chemscore.Internal_Hbond>
0.0000

> <Gold.Chemscore.DEClash>
0.0009

> <Gold.Chemscore.DEInternal>
2.0620

> <Gold.Chemscore.Rot>
3.5244

> <Gold.Chemscore.Internal.Correction>
   9.000000E+99

> <Gold.Chemscore.Hbonds>
donor molecule, donor type, donor heavy atom, donor atom, acceptor molecule, acceptor atom, score
      L1  H    25    49       P1 10747  0.98
      L1  H    27    52       P1 10186  0.81
      P1  H 10785 10796       L1    27  0.81

> <Gold.Chemscore.Hbond.Weighted>
-8.8344

> <Gold.Chemscore.Metal.Weighted>
-0.0000

> <Gold.Chemscore.Lipo.Weighted>
-8.7674

> <Gold.Chemscore.Internal_Hbond.Weighted>
0.0000

> <Gold.Chemscore.DEClash.Weighted>
0.0009

> <Gold.Chemscore.DEInternal.Weighted>
2.0620

> <Gold.Chemscore.Rot.Weighted>
9.0225

> <Gold.Chemscore.Internal.Correction.Weighted>
   9.000000E+99

> <Gold.Protein.RotatedTorsions>
[ 6907 6896 6895 6894 ] final   91.74 input  -60.11 | X-H torsion
[ 7974 7965 7964 7962 ] final   61.29 input  175.53 | X-H torsion
[ 8008 7997 7996 7995 ] final  155.77 input   59.86 | X-H torsion
[ 10167 10162 10161 10158 ] final   -8.66 input  -65.29 | X-H torsion
[ 10718 10713 10712 10709 ] final   19.87 input   66.30 | X-H torsion
[ 10763 10752 10751 10750 ] final   71.20 input  -60.55 | X-H torsion
[ 11005 11000 10999 10996 ] final  150.29 input  -57.11 | X-H torsion

> <Gold.Protein.ActiveResidues>
 VAL166  LYS551  ARG553  GLY616  TRP617  ASP618  TYR619  PRO620  LYS621  CYS622 
 ASP623  PHE694  ASN695  SER759  ASP760  ASP761  ALA762  ILE779  LEU786  VAL792 
 PHE793  MET794  SER795  GLU796  ALA797  LYS798  CYS799  TRP800  GLU811  SER814 

> <Gold.Protein.RotatedAtoms>
  152.5451  134.1610  159.8557 H   0  0  0  0  0  0  0  0  0  0  0  0  # atno 6907 bound_to 6896
  151.1629  133.4826  159.2601 H   0  0  0  0  0  0  0  0  0  0  0  0  # atno 6908 bound_to 6896
  151.1354  135.0163  159.8657 H   0  0  0  0  0  0  0  0  0  0  0  0  # atno 6909 bound_to 6896
  145.8864  139.3479  143.0675 H   0  0  0  0  0  0  0  0  0  0  0  0  # atno 7974 bound_to 7965
  156.2460  140.1930  156.6852 H   0  0  0  0  0  0  0  0  0  0  0  0  # atno 8008 bound_to 7997
  154.6292  140.0598  156.9738 H   0  0  0  0  0  0  0  0  0  0  0  0  # atno 8009 bound_to 7997
  155.1737  140.3270  155.4390 H   0  0  0  0  0  0  0  0  0  0  0  0  # atno 8010 bound_to 7997
  140.7065  143.5944  150.8861 H   0  0  0  0  0  0  0  0  0  0  0  0  # atno 10167 bound_to 10162
  157.1166  130.6531  149.5912 H   0  0  0  0  0  0  0  0  0  0  0  0  # atno 10718 bound_to 10713
  153.0385  135.5145  154.7557 H   0  0  0  0  0  0  0  0  0  0  0  0  # atno 10763 bound_to 10752
  154.6514  135.2925  154.9984 H   0  0  0  0  0  0  0  0  0  0  0  0  # atno 10764 bound_to 10752
  154.0867  135.6656  153.4898 H   0  0  0  0  0  0  0  0  0  0  0  0  # atno 10765 bound_to 10752
  140.1118  134.8919  157.1947 H   0  0  0  0  0  0  0  0  0  0  0  0  # atno 11005 bound_to 11000
  145.8962  140.9272  143.0527 LP  0  0  0  0  0  0  0  0  0  0  0  0  # atno 17320 bound_to 7965
  144.6729  140.0971  143.7462 LP  0  0  0  0  0  0  0  0  0  0  0  0  # atno 17321 bound_to 7965
  139.9669  143.6101  152.2985 LP  0  0  0  0  0  0  0  0  0  0  0  0  # atno 17342 bound_to 10162
  139.6673  144.7662  151.1848 LP  0  0  0  0  0  0  0  0  0  0  0  0  # atno 17343 bound_to 10162
  155.9838  130.4859  150.6951 LP  0  0  0  0  0  0  0  0  0  0  0  0  # atno 17370 bound_to 10713
  157.4513  131.0873  151.0843 LP  0  0  0  0  0  0  0  0  0  0  0  0  # atno 17371 bound_to 10713
  140.3081  134.3055  155.7273 LP  0  0  0  0  0  0  0  0  0  0  0  0  # atno 17394 bound_to 11000
  141.2132  133.7633  156.9737 LP  0  0  0  0  0  0  0  0  0  0  0  0  # atno 17395 bound_to 11000

$$$$
