AV-unprocessed.smi:1601|AV-procd|sdf|6436|dock10
  -GOLD-   22720 7 83D 1   1.00000     0.00000
 Structure written by MMmdl.
 42 43  0  0  0  0  0  0  0  0  2 V2000
  149.5076  135.4342  156.6521 C   0  0  0  0  0  0  0  0  0  0  0  0
  149.1386  135.4621  155.1473 C   0  0  1  0  0  0  0  0  0  0  0  0
  147.6092  135.2662  154.9677 C   0  0  0  0  0  0  0  0  0  0  0  0
  147.2347  135.0568  153.5743 N   0  0  0  0  0  0  0  0  0  0  0  0
  145.9800  134.8610  153.1420 C   0  0  0  0  0  0  0  0  0  0  0  0
  145.0040  134.8666  153.8932 O   0  0  0  0  0  0  0  0  0  0  0  0
  145.8159  134.6178  151.6332 C   0  0  2  0  0  0  0  0  0  0  0  0
  145.0088  135.7241  150.9277 C   0  0  0  0  0  0  0  0  0  0  0  0
  145.2272  133.3055  151.3967 N   0  0  0  0  0  0  0  0  0  0  0  0
  145.7606  132.0572  151.6535 C   0  0  0  0  0  0  0  0  0  0  0  0
  144.8450  131.1295  151.2476 C   0  0  0  0  0  0  0  0  0  0  0  0
  143.7700  131.9138  150.7450 C   0  0  0  0  0  0  0  0  0  0  0  0
  144.0031  133.2134  150.8311 N   0  0  0  0  0  0  0  0  0  0  0  0
  149.6325  136.7138  154.4796 N   0  3  0  0  0  0  0  0  0  0  0  0
  148.9197  137.9461  154.9212 C   0  0  0  0  0  0  0  0  0  0  0  0
  149.4492  139.1961  154.1987 C   0  0  0  0  0  0  0  0  0  0  0  0
  150.8438  139.3227  154.4224 O   0  0  0  0  0  0  0  0  0  0  0  0
  151.5501  138.2152  153.8878 C   0  0  0  0  0  0  0  0  0  0  0  0
  151.1042  136.9223  154.5919 C   0  0  0  0  0  0  0  0  0  0  0  0
  149.0953  134.5652  157.1643 H   0  0  0  0  0  0  0  0  0  0  0  0
  149.1360  136.3208  157.1666 H   0  0  0  0  0  0  0  0  0  0  0  0
  150.5826  135.3726  156.8147 H   0  0  0  0  0  0  0  0  0  0  0  0
  149.6369  134.6176  154.6681 H   0  0  0  0  0  0  0  0  0  0  0  0
  147.2713  134.4244  155.5750 H   0  0  0  0  0  0  0  0  0  0  0  0
  147.0533  136.1455  155.2903 H   0  0  0  0  0  0  0  0  0  0  0  0
  147.9802  135.0361  152.8929 H   0  0  0  0  0  0  0  0  0  0  0  0
  146.8182  134.6230  151.1999 H   0  0  0  0  0  0  0  0  0  0  0  0
  145.4640  136.7034  151.0794 H   0  0  0  0  0  0  0  0  0  0  0  0
  143.9820  135.7740  151.2924 H   0  0  0  0  0  0  0  0  0  0  0  0
  144.9682  135.5477  149.8524 H   0  0  0  0  0  0  0  0  0  0  0  0
  146.7375  131.9352  152.0983 H   0  0  0  0  0  0  0  0  0  0  0  0
  144.9304  130.0543  151.3006 H   0  0  0  0  0  0  0  0  0  0  0  0
  142.8348  131.5795  150.3204 H   0  0  0  0  0  0  0  0  0  0  0  0
  147.8540  137.8819  154.7104 H   0  0  0  0  0  0  0  0  0  0  0  0
  149.0307  138.0649  156.0000 H   0  0  0  0  0  0  0  0  0  0  0  0
  149.2390  139.1484  153.1287 H   0  0  0  0  0  0  0  0  0  0  0  0
  148.9508  140.0876  154.5794 H   0  0  0  0  0  0  0  0  0  0  0  0
  151.3897  138.1485  152.8106 H   0  0  0  0  0  0  0  0  0  0  0  0
  152.6181  138.3738  154.0390 H   0  0  0  0  0  0  0  0  0  0  0  0
  151.3906  136.9520  155.6444 H   0  0  0  0  0  0  0  0  0  0  0  0
  151.6539  136.1063  154.1270 H   0  0  0  0  0  0  0  0  0  0  0  0
  149.4361  136.6081  153.4943 H   0  0  0  0  0  0  0  0  0  0  0  0
  1  2  1  0  0  0  0
  1 20  1  0  0  0  0
  1 21  1  0  0  0  0
  1 22  1  0  0  0  0
  2  3  1  0  0  0  0
  2 14  1  0  0  0  0
  2 23  1  0  0  0  0
  3  4  1  0  0  0  0
  3 24  1  0  0  0  0
  3 25  1  0  0  0  0
  4  5  1  0  0  0  0
  4 26  1  0  0  0  0
  5  6  2  0  0  0  0
  5  7  1  0  0  0  0
  7  8  1  0  0  0  0
  7  9  1  0  0  0  0
  7 27  1  0  0  0  0
  8 28  1  0  0  0  0
  8 29  1  0  0  0  0
  8 30  1  0  0  0  0
  9 13  1  0  0  0  0
  9 10  1  0  0  0  0
 10 11  2  0  0  0  0
 10 31  1  0  0  0  0
 11 12  1  0  0  0  0
 11 32  1  0  0  0  0
 12 13  2  0  0  0  0
 12 33  1  0  0  0  0
 14 19  1  0  0  0  0
 14 15  1  0  0  0  0
 14 42  1  0  0  0  0
 15 16  1  0  0  0  0
 15 34  1  0  0  0  0
 15 35  1  0  0  0  0
 16 17  1  0  0  0  0
 16 36  1  0  0  0  0
 16 37  1  0  0  0  0
 17 18  1  0  0  0  0
 18 19  1  0  0  0  0
 18 38  1  0  0  0  0
 18 39  1  0  0  0  0
 19 40  1  0  0  0  0
 19 41  1  0  0  0  0
M  CHG  1  14   1
M  END
> <s_m_source_file>
AV-unprocessed.smi

> <i_m_source_file_index>
1601

> <i_lp_mmshare_version>
43012

> <i_f3d_flags>
0

> <s_epik_input>
W0NIMl0xW0NIMl1PW0NIMl1bQ0gyXU4xW0NASF0oW0NIM10pW0NIMl1bTkhdQyg9TylbQ0BIXShbQ0gzXSluMltjSF1bY0hdW2NIXW4y

> <s_epik_cmdline>
J2VwaWtfcHl0aG9uJywgJy1waCcsICc3LjAnLCAnLXRuJywgJzgnLCAnLW1hJywgJzIwMCcsICctbWV0YWxfYmluZGluZycsICctaW1hZScsICc8aW5maWxlLm1hZT4nLCAnLW9tYWUnLCAnPG91dGZpbGUubWFlPic=

> <r_lp_tautomer_probability>
1

> <r_epik_Ionization_Penalty>
0.732551

> <r_epik_Ionization_Penalty_Charging>
0.732531

> <r_epik_Ionization_Penalty_Neutral>
2.04647e-05

> <r_epik_State_Penalty>
0.757939

> <r_epik_Charging_Adjusted_Penalty>
1.49047

> <i_epik_Tot_Q>
1

> <i_epik_Tot_abs_Q>
1

> <r_epik_Metal_State_Penalty>
0.757952

> <b_epik_Metal_Only>
0

> <s_lp_Force_Field>
OPLS_2005

> <r_lp_Energy>
25.0975

> <b_lp_Chiralities_Consistent>
1

> <s_lp_Variant>
AV-unprocessed.smi:1601-6

> <Gold.Version>
5.8.1

> <Gold.Id.Protein>
6NUR|6NUR_protein|mol2

> <Gold.PLP.Fitness>
43.9384

> <Gold.PLP.PLP>
-29.9087

> <Gold.PLP.part.hbond>
-2.9731

> <Gold.PLP.part.metal>
0.0000

> <Gold.PLP.part.buried>
-5.8769

> <Gold.PLP.part.nonpolar>
-22.4221

> <Gold.PLP.part.repulsive>
0.3862

> <Gold.PLP.ligand.clash>
0.0000

> <Gold.PLP.ligand.torsion>
0.2289

> <Gold.PLP.Chemscore.Hbond>
3.7913

> <Gold.PLP.Chemscore.CHOScore>
0.9952

> <Gold.PLP.Chemscore.Metal>
0.0000

> <Gold.Chemscore.Hbonds>
donor molecule, donor type, donor heavy atom, donor atom, acceptor molecule, acceptor atom, score
      L1  H     4    26       P1  7948  0.80
      L1  H    14    42       P1  7948  2.00
      P1  H  7989  7998       L1    17  1.00
      L1  C    12    33       P1 10952  1.00

> <Gold.PLP.Chemscore.Internal.Correction>
0.1284

> <Gold.Rescore>
     Score         DG    S(hbond)    S(metal)    S(lipo)     H(rot)  DE(clash)    DE(int)     intcor
     16.19     -16.43       2.32        0.00      68.28       1.86       0.17       0.08       ----

> <Gold.Chemscore.Fitness>
16.1853

> <Gold.Chemscore.DG>
-16.4311

> <Gold.Chemscore.ZeroCoef>
-5.4800

> <Gold.Chemscore.Hbond>
2.3150

> <Gold.Chemscore.Metal>
0.0000

> <Gold.Chemscore.Lipo>
68.2775

> <Gold.Chemscore.Internal_Hbond>
0.0000

> <Gold.Chemscore.DEClash>
0.1653

> <Gold.Chemscore.DEInternal>
0.0805

> <Gold.Chemscore.Rot>
1.8631

> <Gold.Chemscore.Internal.Correction>
   9.000000E+99

> <Gold.Chemscore.Hbonds>
donor molecule, donor type, donor heavy atom, donor atom, acceptor molecule, acceptor atom, score
      L1  H     4    26       P1  7948  0.77
      L1  H    14    42       P1  7948  0.82
      P1  H  7989  7998       L1    17  0.33

> <Gold.Chemscore.Hbond.Weighted>
-7.7322

> <Gold.Chemscore.Metal.Weighted>
-0.0000

> <Gold.Chemscore.Lipo.Weighted>
-7.9885

> <Gold.Chemscore.Internal_Hbond.Weighted>
0.0000

> <Gold.Chemscore.DEClash.Weighted>
0.1653

> <Gold.Chemscore.DEInternal.Weighted>
0.0805

> <Gold.Chemscore.Rot.Weighted>
4.7697

> <Gold.Chemscore.Internal.Correction.Weighted>
   9.000000E+99

> <Gold.Protein.RotatedTorsions>
[ 6907 6896 6895 6894 ] final -178.22 input  -60.11 | X-H torsion
[ 7974 7965 7964 7962 ] final   60.89 input  175.53 | X-H torsion
[ 8008 7997 7996 7995 ] final  -62.85 input   59.86 | X-H torsion
[ 10167 10162 10161 10158 ] final -121.57 input  -65.29 | X-H torsion
[ 10718 10713 10712 10709 ] final  121.01 input   66.30 | X-H torsion
[ 10763 10752 10751 10750 ] final  -49.30 input  -60.55 | X-H torsion
[ 11005 11000 10999 10996 ] final   39.26 input  -57.11 | X-H torsion

> <Gold.Protein.ActiveResidues>
 VAL166  LYS551  ARG553  GLY616  TRP617  ASP618  TYR619  PRO620  LYS621  CYS622 
 ASP623  PHE694  ASN695  SER759  ASP760  ASP761  ALA762  ILE779  LEU786  VAL792 
 PHE793  MET794  SER795  GLU796  ALA797  LYS798  CYS799  TRP800  GLU811  SER814 

> <Gold.Protein.RotatedAtoms>
  151.6337  133.3330  159.3114 H   0  0  0  0  0  0  0  0  0  0  0  0  # atno 6907 bound_to 6896
  150.8043  134.7162  159.6641 H   0  0  0  0  0  0  0  0  0  0  0  0  # atno 6908 bound_to 6896
  152.4138  134.6083  160.0070 H   0  0  0  0  0  0  0  0  0  0  0  0  # atno 6909 bound_to 6896
  145.8910  139.3511  143.0649 H   0  0  0  0  0  0  0  0  0  0  0  0  # atno 7974 bound_to 7965
  154.4522  140.0987  156.6652 H   0  0  0  0  0  0  0  0  0  0  0  0  # atno 8008 bound_to 7997
  155.5249  140.3480  155.4396 H   0  0  0  0  0  0  0  0  0  0  0  0  # atno 8009 bound_to 7997
  156.0705  140.1348  156.9824 H   0  0  0  0  0  0  0  0  0  0  0  0  # atno 8010 bound_to 7997
  140.0236  143.5319  152.2209 H   0  0  0  0  0  0  0  0  0  0  0  0  # atno 10167 bound_to 10162
  157.5849  131.1071  150.8115 H   0  0  0  0  0  0  0  0  0  0  0  0  # atno 10718 bound_to 10713
  154.0919  135.6576  153.4854 H   0  0  0  0  0  0  0  0  0  0  0  0  # atno 10763 bound_to 10752
  153.0319  135.5204  154.7372 H   0  0  0  0  0  0  0  0  0  0  0  0  # atno 10764 bound_to 10752
  154.6498  135.2999  154.9969 H   0  0  0  0  0  0  0  0  0  0  0  0  # atno 10765 bound_to 10752
  140.2045  134.3830  155.8079 H   0  0  0  0  0  0  0  0  0  0  0  0  # atno 11005 bound_to 11000
  145.8909  140.9304  143.0553 LP  0  0  0  0  0  0  0  0  0  0  0  0  # atno 17320 bound_to 7965
  144.6730  140.0904  143.7465 LP  0  0  0  0  0  0  0  0  0  0  0  0  # atno 17321 bound_to 7965
  139.6123  144.7611  151.2925 LP  0  0  0  0  0  0  0  0  0  0  0  0  # atno 17342 bound_to 10162
  140.7332  143.6802  150.8007 LP  0  0  0  0  0  0  0  0  0  0  0  0  # atno 17343 bound_to 10162
  156.8552  130.5094  149.5308 LP  0  0  0  0  0  0  0  0  0  0  0  0  # atno 17370 bound_to 10713
  156.0897  130.5886  150.9711 LP  0  0  0  0  0  0  0  0  0  0  0  0  # atno 17371 bound_to 10713
  141.2227  133.7111  156.8314 LP  0  0  0  0  0  0  0  0  0  0  0  0  # atno 17394 bound_to 11000
  140.2018  134.8891  157.3177 LP  0  0  0  0  0  0  0  0  0  0  0  0  # atno 17395 bound_to 11000

$$$$
