AV-unprocessed.smi:1246|AV-procd|sdf|5242|dock9
  -GOLD-   22720 4353D 1   1.00000     0.00000
 Structure written by MMmdl.
 35 36  0  0  0  0  0  0  0  0  1 V2000
  150.9274  142.0245  156.3647 C   0  0  0  0  0  0  0  0  0  0  0  0
  150.5343  140.8459  155.5238 C   0  0  0  0  0  0  0  0  0  0  0  0
  149.2888  140.6069  154.8730 C   0  0  0  0  0  0  0  0  0  0  0  0
  149.4948  139.3999  154.2625 C   0  0  0  0  0  0  0  0  0  0  0  0
  148.6402  138.6704  153.4971 N   0  0  0  0  0  0  0  0  0  0  0  0
  147.2964  138.6936  153.4805 C   0  0  0  0  0  0  0  0  0  0  0  0
  146.5848  139.4202  154.1746 O   0  0  0  0  0  0  0  0  0  0  0  0
  146.8099  137.8105  152.5971 N   0  0  0  0  0  0  0  0  0  0  0  0
  145.3937  137.5711  152.3440 C   0  0  0  0  0  0  0  0  0  0  0  0
  145.1172  136.0928  152.0240 C   0  0  1  0  0  0  0  0  0  0  0  0
  145.2695  135.7437  150.5469 C   0  0  0  0  0  0  0  0  0  0  0  0
  145.4670  134.2455  150.6114 C   0  0  0  0  0  0  0  0  0  0  0  0
  146.2822  134.0737  151.8931 C   0  0  0  0  0  0  0  0  0  0  0  0
  146.0645  135.2495  152.6706 O   0  0  0  0  0  0  0  0  0  0  0  0
  150.7731  138.9718  154.5435 N   0  0  0  0  0  0  0  0  0  0  0  0
  151.4492  137.7583  154.1289 C   0  0  0  0  0  0  0  0  0  0  0  0
  151.4124  139.8695  155.3240 N   0  0  0  0  0  0  0  0  0  0  0  0
  150.0907  142.7106  156.4977 H   0  0  0  0  0  0  0  0  0  0  0  0
  151.7426  142.5814  155.9023 H   0  0  0  0  0  0  0  0  0  0  0  0
  151.2572  141.7093  157.3551 H   0  0  0  0  0  0  0  0  0  0  0  0
  148.4061  141.2284  154.8695 H   0  0  0  0  0  0  0  0  0  0  0  0
  149.0802  138.0245  152.8585 H   0  0  0  0  0  0  0  0  0  0  0  0
  147.4651  137.2509  152.0709 H   0  0  0  0  0  0  0  0  0  0  0  0
  144.8065  137.8871  153.2079 H   0  0  0  0  0  0  0  0  0  0  0  0
  145.0814  138.2006  151.5103 H   0  0  0  0  0  0  0  0  0  0  0  0
  144.1176  135.8057  152.3557 H   0  0  0  0  0  0  0  0  0  0  0  0
  144.4060  136.0362  149.9489 H   0  0  0  0  0  0  0  0  0  0  0  0
  146.1566  136.2208  150.1276 H   0  0  0  0  0  0  0  0  0  0  0  0
  144.5012  133.7490  150.7138 H   0  0  0  0  0  0  0  0  0  0  0  0
  145.9661  133.8406  149.7307 H   0  0  0  0  0  0  0  0  0  0  0  0
  145.9860  133.1805  152.4433 H   0  0  0  0  0  0  0  0  0  0  0  0
  147.3465  133.9953  151.6701 H   0  0  0  0  0  0  0  0  0  0  0  0
  151.3635  137.6412  153.0483 H   0  0  0  0  0  0  0  0  0  0  0  0
  150.9907  136.8992  154.6193 H   0  0  0  0  0  0  0  0  0  0  0  0
  152.5064  137.7974  154.3953 H   0  0  0  0  0  0  0  0  0  0  0  0
  1  2  1  0  0  0  0
  1 18  1  0  0  0  0
  1 19  1  0  0  0  0
  1 20  1  0  0  0  0
  2 17  2  0  0  0  0
  2  3  1  0  0  0  0
  3  4  2  0  0  0  0
  3 21  1  0  0  0  0
  4  5  1  0  0  0  0
  4 15  1  0  0  0  0
  5  6  1  0  0  0  0
  5 22  1  0  0  0  0
  6  7  2  0  0  0  0
  6  8  1  0  0  0  0
  8  9  1  0  0  0  0
  8 23  1  0  0  0  0
  9 10  1  0  0  0  0
  9 24  1  0  0  0  0
  9 25  1  0  0  0  0
 10 14  1  0  0  0  0
 10 11  1  0  0  0  0
 10 26  1  0  0  0  0
 11 12  1  0  0  0  0
 11 27  1  0  0  0  0
 11 28  1  0  0  0  0
 12 13  1  0  0  0  0
 12 29  1  0  0  0  0
 12 30  1  0  0  0  0
 13 14  1  0  0  0  0
 13 31  1  0  0  0  0
 13 32  1  0  0  0  0
 15 16  1  0  0  0  0
 15 17  1  0  0  0  0
 16 33  1  0  0  0  0
 16 34  1  0  0  0  0
 16 35  1  0  0  0  0
M  END
> <s_m_source_file>
AV-unprocessed.smi

> <i_m_source_file_index>
1246

> <i_lp_mmshare_version>
43012

> <i_f3d_flags>
0

> <s_epik_input>
W0NIM11jMVtjSF1jKG4objEpW0NIM10pW05IXUMoPU8pW05IXVtDSDJdW0NAQEhdMltDSDJdW0NIMl1bQ0gyXU8y

> <s_epik_cmdline>
J2VwaWtfcHl0aG9uJywgJy1waCcsICc3LjAnLCAnLXRuJywgJzgnLCAnLW1hJywgJzIwMCcsICctbWV0YWxfYmluZGluZycsICctaW1hZScsICc8aW5maWxlLm1hZT4nLCAnLW9tYWUnLCAnPG91dGZpbGUubWFlPic=

> <r_lp_tautomer_probability>
1

> <r_epik_Ionization_Penalty>
9.6187e-05

> <r_epik_Ionization_Penalty_Charging>
0

> <r_epik_Ionization_Penalty_Neutral>
9.6187e-05

> <r_epik_State_Penalty>
-0

> <r_epik_Charging_Adjusted_Penalty>
0

> <i_epik_Tot_Q>
0

> <i_epik_Tot_abs_Q>
0

> <r_epik_Metal_State_Penalty>
-0

> <b_epik_Metal_Only>
0

> <s_lp_Force_Field>
OPLS_2005

> <r_lp_Energy>
18.0702

> <b_lp_Chiralities_Consistent>
1

> <s_lp_Variant>
AV-unprocessed.smi:1246-2

> <Gold.Version>
5.8.1

> <Gold.Id.Protein>
6NUR|6NUR_protein|mol2

> <Gold.PLP.Fitness>
36.8479

> <Gold.PLP.PLP>
-32.1624

> <Gold.PLP.part.hbond>
-4.0000

> <Gold.PLP.part.metal>
0.0000

> <Gold.PLP.part.buried>
-3.2296

> <Gold.PLP.part.nonpolar>
-25.7514

> <Gold.PLP.part.repulsive>
0.3400

> <Gold.PLP.ligand.clash>
0.0000

> <Gold.PLP.ligand.torsion>
0.6559

> <Gold.PLP.Chemscore.Hbond>
1.9977

> <Gold.PLP.Chemscore.CHOScore>
0.0000

> <Gold.PLP.Chemscore.Metal>
0.0000

> <Gold.Chemscore.Hbonds>
donor molecule, donor type, donor heavy atom, donor atom, acceptor molecule, acceptor atom, score
      L1  H     5    22       P1  7948  0.98
      L1  H     8    23       P1  7948  1.00
      P1  H  7989  7998       L1    17  0.01

> <Gold.PLP.Chemscore.Internal.Correction>
0.0043

> <Gold.Rescore>
     Score         DG    S(hbond)    S(metal)    S(lipo)     H(rot)  DE(clash)    DE(int)     intcor
     14.89     -15.61       1.95        0.00      58.12       1.25       0.05       0.67       ----

> <Gold.Chemscore.Fitness>
14.8851

> <Gold.Chemscore.DG>
-15.6110

> <Gold.Chemscore.ZeroCoef>
-5.4800

> <Gold.Chemscore.Hbond>
1.9537

> <Gold.Chemscore.Metal>
0.0000

> <Gold.Chemscore.Lipo>
58.1204

> <Gold.Chemscore.Internal_Hbond>
0.0000

> <Gold.Chemscore.DEClash>
0.0546

> <Gold.Chemscore.DEInternal>
0.6714

> <Gold.Chemscore.Rot>
1.2478

> <Gold.Chemscore.Internal.Correction>
   9.000000E+99

> <Gold.Chemscore.Hbonds>
donor molecule, donor type, donor heavy atom, donor atom, acceptor molecule, acceptor atom, score
      L1  H     5    22       P1  7948  0.87
      L1  H     8    23       P1  7948  0.99

> <Gold.Chemscore.Hbond.Weighted>
-6.5254

> <Gold.Chemscore.Metal.Weighted>
-0.0000

> <Gold.Chemscore.Lipo.Weighted>
-6.8001

> <Gold.Chemscore.Internal_Hbond.Weighted>
0.0000

> <Gold.Chemscore.DEClash.Weighted>
0.0546

> <Gold.Chemscore.DEInternal.Weighted>
0.6714

> <Gold.Chemscore.Rot.Weighted>
3.1944

> <Gold.Chemscore.Internal.Correction.Weighted>
   9.000000E+99

> <Gold.Protein.RotatedTorsions>
[ 6907 6896 6895 6894 ] final -116.60 input  -60.11 | X-H torsion
[ 7974 7965 7964 7962 ] final   70.05 input  175.53 | X-H torsion
[ 8008 7997 7996 7995 ] final   86.50 input   59.86 | X-H torsion
[ 10167 10162 10161 10158 ] final   12.61 input  -65.29 | X-H torsion
[ 10718 10713 10712 10709 ] final  124.28 input   66.30 | X-H torsion
[ 10763 10752 10751 10750 ] final  171.66 input  -60.55 | X-H torsion
[ 11005 11000 10999 10996 ] final  172.71 input  -57.11 | X-H torsion

> <Gold.Protein.ActiveResidues>
 VAL166  LYS551  ARG553  GLY616  TRP617  ASP618  TYR619  PRO620  LYS621  CYS622 
 ASP623  PHE694  ASN695  SER759  ASP760  ASP761  ALA762  ILE779  LEU786  VAL792 
 PHE793  MET794  SER795  GLU796  ALA797  LYS798  CYS799  TRP800  GLU811  SER814 

> <Gold.Protein.RotatedAtoms>
  150.8069  133.8493  159.3200 H   0  0  0  0  0  0  0  0  0  0  0  0  # atno 6907 bound_to 6896
  151.6290  135.1023  160.0127 H   0  0  0  0  0  0  0  0  0  0  0  0  # atno 6908 bound_to 6896
  152.4160  133.6999  159.6474 H   0  0  0  0  0  0  0  0  0  0  0  0  # atno 6909 bound_to 6896
  145.7829  139.2896  143.1255 H   0  0  0  0  0  0  0  0  0  0  0  0  # atno 7974 bound_to 7965
  155.9636  140.3391  155.6512 H   0  0  0  0  0  0  0  0  0  0  0  0  # atno 8008 bound_to 7997
  155.6766  140.0733  157.2518 H   0  0  0  0  0  0  0  0  0  0  0  0  # atno 8009 bound_to 7997
  154.4149  140.1682  156.1925 H   0  0  0  0  0  0  0  0  0  0  0  0  # atno 8010 bound_to 7997
  140.6057  143.8513  150.7011 H   0  0  0  0  0  0  0  0  0  0  0  0  # atno 10167 bound_to 10162
  157.5598  131.1090  150.8558 H   0  0  0  0  0  0  0  0  0  0  0  0  # atno 10718 bound_to 10713
  154.4150  135.2757  155.2012 H   0  0  0  0  0  0  0  0  0  0  0  0  # atno 10763 bound_to 10752
  154.3982  135.6050  153.5885 H   0  0  0  0  0  0  0  0  0  0  0  0  # atno 10764 bound_to 10752
  152.9832  135.5920  154.4438 H   0  0  0  0  0  0  0  0  0  0  0  0  # atno 10765 bound_to 10752
  140.3327  134.7344  157.4146 H   0  0  0  0  0  0  0  0  0  0  0  0  # atno 11005 bound_to 11000
  146.0056  140.8481  142.9996 LP  0  0  0  0  0  0  0  0  0  0  0  0  # atno 17320 bound_to 7965
  144.6793  140.2415  143.7343 LP  0  0  0  0  0  0  0  0  0  0  0  0  # atno 17321 bound_to 7965
  140.2070  143.3914  152.1748 LP  0  0  0  0  0  0  0  0  0  0  0  0  # atno 17342 bound_to 10162
  139.5323  144.7172  151.5013 LP  0  0  0  0  0  0  0  0  0  0  0  0  # atno 17343 bound_to 10162
  156.9060  130.5263  149.5281 LP  0  0  0  0  0  0  0  0  0  0  0  0  # atno 17370 bound_to 10713
  156.0652  130.5696  150.9274 LP  0  0  0  0  0  0  0  0  0  0  0  0  # atno 17371 bound_to 10713
  140.0847  134.5683  155.8504 LP  0  0  0  0  0  0  0  0  0  0  0  0  # atno 17394 bound_to 11000
  141.2059  133.6651  156.6210 LP  0  0  0  0  0  0  0  0  0  0  0  0  # atno 17395 bound_to 11000

$$$$
