#       Name:                AV-unprocessed.smi:1033
#       Creating user name   scv26
#       Creation time:       Fri Mar 27 02:48:27 2020


#       File generated by GOLD software.
#

@<TRIPOS>MOLECULE
AV-unprocessed.smi:1033
    62    64     1
SMALL
NO_CHARGES


@<TRIPOS>ATOM
      1 ****        -6.9295   1.4783   3.0833 C.3            1 S1                 0.0000
      2 ****        -5.7958   1.2135   2.1080 C.ar           1 S1                 0.0000
      3 ****        -6.0791   1.1568   0.7248 C.ar           1 S1                 0.0000
      4 ****        -5.0543   0.9101  -0.2148 C.ar           1 S1                 0.0000
      5 ****        -5.1043   0.8120  -1.5947 N.2            1 S1                 0.0000
      6 ****        -3.8311   0.5705  -1.8928 C.2            1 S1                 0.0000
      7 ****        -2.9609   0.4966  -0.8669 N.pl3          1 S1                 0.0000
      8 ****        -1.5339   0.2416  -0.9449 C.3            1 S1                 0.0000
      9 ****        -1.1803  -1.2066  -0.5548 C.3            1 S1                 0.0000
     10 ****        -1.7712  -2.1214  -1.4564 O.3            1 S1                 0.0000
     11 ****         0.3230  -1.5350  -0.4110 C.3            1 S1                 0.0000
     12 ****         1.1509  -1.3645  -1.6146 N.3            1 S1                 0.0000
     13 ****         1.6896  -0.0125  -1.8060 C.3            1 S1                 0.0000
     14 ****         2.8084   0.3609  -0.8098 C.3            1 S1                 0.0000
     15 ****         3.9082  -0.6383  -0.8627 N.4            1 S1                 1.0000
     16 ****         5.0456  -0.3238   0.0385 C.3            1 S1                 0.0000
     17 ****         5.9276   0.8261  -0.4882 C.3            1 S1                 0.0000
     18 ****         6.6440   0.4839  -1.8028 C.3            1 S1                 0.0000
     19 ****         6.9086   1.1158   0.4848 O.3            1 S1                 0.0000
     20 ****         3.3747  -2.0065  -0.6465 C.3            1 S1                 0.0000
     21 ****         2.2664  -2.3095  -1.6727 C.3            1 S1                 0.0000
     22 ****        -3.7275   0.7203   0.2713 C.ar           1 S1                 0.0000
     23 ****        -3.4325   0.7767   1.6447 C.ar           1 S1                 0.0000
     24 ****        -4.4686   1.0231   2.5700 C.ar           1 S1                 0.0000
     25 ****        -4.1405   1.0800   4.0514 C.3            1 S1                 0.0000
     26 ****        -7.8746   1.6338   2.5621 H              1 S1                 0.0000
     27 ****        -6.7248   2.3702   3.6761 H              1 S1                 0.0000
     28 ****        -7.0555   0.6330   3.7601 H              1 S1                 0.0000
     29 ****        -7.0899   1.3016   0.3724 H              1 S1                 0.0000
     30 ****        -3.5122   0.4352  -2.9162 H              1 S1                 0.0000
     31 ****        -1.2114   0.4556  -1.9640 H              1 S1                 0.0000
     32 ****        -1.0258   0.9479  -0.2873 H              1 S1                 0.0000
     33 ****        -1.6334  -1.4070   0.4169 H              1 S1                 0.0000
     34 ****        -2.7062  -1.9829  -1.4553 H              1 S1                 0.0000
     35 ****         0.7391  -0.9678   0.4206 H              1 S1                 0.0000
     36 ****         0.3763  -2.5765  -0.0903 H              1 S1                 0.0000
     37 ****         2.0884   0.0635  -2.8186 H              1 S1                 0.0000
     38 ****         0.9026   0.7344  -1.7505 H              1 S1                 0.0000
     39 ****         3.1866   1.3493  -1.0672 H              1 S1                 0.0000
     40 ****         2.4197   0.4343   0.2062 H              1 S1                 0.0000
     41 ****         4.6598  -0.0878   1.0318 H              1 S1                 0.0000
     42 ****         5.6698  -1.2111   0.1570 H              1 S1                 0.0000
     43 ****         5.3383   1.7328  -0.6206 H              1 S1                 0.0000
     44 ****         5.9305   0.2941  -2.6050 H              1 S1                 0.0000
     45 ****         7.2698  -0.4031  -1.6975 H              1 S1                 0.0000
     46 ****         7.2844   1.3057  -2.1253 H              1 S1                 0.0000
     47 ****         7.4717   0.3631   0.5850 H              1 S1                 0.0000
     48 ****         4.1778  -2.7355  -0.7608 H              1 S1                 0.0000
     49 ****         2.9992  -2.1048   0.3733 H              1 S1                 0.0000
     50 ****         1.8988  -3.3270  -1.5336 H              1 S1                 0.0000
     51 ****         2.6975  -2.2887  -2.6748 H              1 S1                 0.0000
     52 ****        -2.4176   0.6297   1.9829 H              1 S1                 0.0000
     53 ****        -3.0808   0.8970   4.2313 H              1 S1                 0.0000
     54 ****        -4.7076   0.3268   4.5987 H              1 S1                 0.0000
     55 ****        -4.3839   2.0615   4.4583 H              1 S1                 0.0000
     56 ****         4.2735  -0.6265  -1.8044 H              1 S1                 0.0000
     57 ****        -5.8906   0.8997  -2.2062 LP             1 S1                 0.0000
     58 ****        -1.5686  -3.0573  -1.1682 LP             1 S1                 0.0000
     59 ****        -1.4089  -1.9700  -2.3761 LP             1 S1                 0.0000
     60 ****         0.5039  -1.5463  -2.3550 LP             1 S1                 0.0000
     61 ****         6.4656   1.3222   1.3572 LP             1 S1                 0.0000
     62 ****         7.4502   1.9036   0.1914 LP             1 S1                 0.0000
@<TRIPOS>BOND
    1    1    2 1     
    2    1   26 1     
    3    1   27 1     
    4    1   28 1     
    5    2   24 ar    
    6    2    3 ar    
    7    3    4 ar    
    8    3   29 1     
    9    4   22 ar    
   10    4    5 1     
   11    5    6 2     
   12    6    7 1     
   13    6   30 1     
   14    7    8 1     
   15    7   22 1     
   16    8    9 1     
   17    8   31 1     
   18    8   32 1     
   19    9   10 1     
   20    9   11 1     
   21    9   33 1     
   22   10   34 1     
   23   11   12 1     
   24   11   35 1     
   25   11   36 1     
   26   12   21 1     
   27   12   13 1     
   28   13   14 1     
   29   13   37 1     
   30   13   38 1     
   31   14   15 1     
   32   14   39 1     
   33   14   40 1     
   34   15   16 1     
   35   15   20 1     
   36   15   56 1     
   37   16   17 1     
   38   16   41 1     
   39   16   42 1     
   40   17   18 1     
   41   17   19 1     
   42   17   43 1     
   43   18   44 1     
   44   18   45 1     
   45   18   46 1     
   46   19   47 1     
   47   20   21 1     
   48   20   48 1     
   49   20   49 1     
   50   21   50 1     
   51   21   51 1     
   52   22   23 ar    
   53   23   24 ar    
   54   23   52 1     
   55   24   25 1     
   56   25   53 1     
   57   25   54 1     
   58   25   55 1     
   59    5   57 1     
   60   10   58 1     
   61   10   59 1     
   62   12   60 1     
   63   19   61 1     
   64   19   62 1     
@<TRIPOS>SUBSTRUCTURE
      1 S1             1
@<TRIPOS>SET
LONE_PAIRS      STATIC     ATOMS    <user>   **** ""
6 57 58 59 60 61 62
DONOR_HYDROGENS      STATIC     ATOMS    <user>   **** ""
3 34 56 47
ATOM$BLUE        STATIC     ATOMS    COLORGROUP SYSTEM
6 57 58 59 60 61 62
ATOM$RED        STATIC     ATOMS    COLORGROUP SYSTEM
3 34 56 47
