AV-unprocessed.smi:769|AV-procd|sdf|3675|dock2
  -GOLD-   22720 1 83D 1   1.00000     0.00000
 Structure written by MMmdl.
 50 52  0  0  0  0  0  0  0  0  2 V2000
  144.7687  137.1152  152.8330 O   0  0  0  0  0  0  0  0  0  0  0  0
  145.9676  136.8619  152.7175 C   0  0  0  0  0  0  0  0  0  0  0  0
  146.9347  137.6939  153.1308 N   0  0  0  0  0  0  0  0  0  0  0  0
  146.7050  138.9770  153.7852 C   0  0  0  0  0  0  0  0  0  0  0  0
  147.9819  139.8402  153.8079 C   0  0  0  0  0  0  0  0  0  0  0  0
  148.6805  139.7893  155.1166 N   0  3  0  0  0  0  0  0  0  0  0  0
  150.0369  140.3990  155.0502 C   0  0  0  0  0  0  0  0  0  0  0  0
  150.7523  140.3444  156.4129 C   0  0  0  0  0  0  0  0  0  0  0  0
  149.9025  140.9864  157.4195 N   0  0  0  0  0  0  0  0  0  0  0  0
  150.2328  142.1520  158.0275 C   0  0  0  0  0  0  0  0  0  0  0  0
  149.4617  142.7263  158.7971 O   0  0  0  0  0  0  0  0  0  0  0  0
  151.6344  142.7520  157.7827 C   0  0  0  0  0  0  0  0  0  0  0  0
  152.4892  143.0374  159.0338 C   0  0  0  0  0  0  0  0  0  0  0  0
  152.1304  144.5221  158.9208 C   0  0  0  0  0  0  0  0  0  0  0  0
  151.6268  144.2634  157.4973 C   0  0  0  0  0  0  0  0  0  0  0  0
  148.6352  140.2663  157.5733 C   0  0  0  0  0  0  0  0  0  0  0  0
  147.8636  140.3241  156.2426 C   0  0  0  0  0  0  0  0  0  0  0  0
  146.4848  135.7533  152.1595 N   0  0  0  0  0  0  0  0  0  0  0  0
  145.8104  134.6299  151.6063 C   0  0  0  0  0  0  0  0  0  0  0  0
  146.5986  133.5356  151.1934 C   0  0  0  0  0  0  0  0  0  0  0  0
  145.9594  132.4017  150.6534 C   0  0  0  0  0  0  0  0  0  0  0  0
  144.6210  132.3009  150.5144 N   0  0  0  0  0  0  0  0  0  0  0  0
  143.8666  133.3436  150.9211 C   0  0  0  0  0  0  0  0  0  0  0  0
  144.4045  134.5231  151.4743 C   0  0  0  0  0  0  0  0  0  0  0  0
  147.8955  137.4129  152.9968 H   0  0  0  0  0  0  0  0  0  0  0  0
  145.8840  139.4877  153.2811 H   0  0  0  0  0  0  0  0  0  0  0  0
  146.3701  138.7821  154.8043 H   0  0  0  0  0  0  0  0  0  0  0  0
  148.6525  139.4707  153.0306 H   0  0  0  0  0  0  0  0  0  0  0  0
  147.7623  140.8787  153.5550 H   0  0  0  0  0  0  0  0  0  0  0  0
  150.6371  139.8780  154.3031 H   0  0  0  0  0  0  0  0  0  0  0  0
  149.9499  141.4360  154.7212 H   0  0  0  0  0  0  0  0  0  0  0  0
  150.9335  139.3082  156.7021 H   0  0  0  0  0  0  0  0  0  0  0  0
  151.7375  140.8049  156.3285 H   0  0  0  0  0  0  0  0  0  0  0  0
  152.2030  142.1756  157.0520 H   0  0  0  0  0  0  0  0  0  0  0  0
  152.1630  142.5737  159.9653 H   0  0  0  0  0  0  0  0  0  0  0  0
  153.5495  142.8486  158.8604 H   0  0  0  0  0  0  0  0  0  0  0  0
  151.3307  144.8140  159.6029 H   0  0  0  0  0  0  0  0  0  0  0  0
  152.9828  145.1992  158.9836 H   0  0  0  0  0  0  0  0  0  0  0  0
  152.3495  144.5468  156.7311 H   0  0  0  0  0  0  0  0  0  0  0  0
  150.6458  144.6956  157.2943 H   0  0  0  0  0  0  0  0  0  0  0  0
  148.8479  139.2279  157.8321 H   0  0  0  0  0  0  0  0  0  0  0  0
  148.0120  140.6390  158.3846 H   0  0  0  0  0  0  0  0  0  0  0  0
  147.5792  141.3554  156.0275 H   0  0  0  0  0  0  0  0  0  0  0  0
  146.9400  139.7558  156.3443 H   0  0  0  0  0  0  0  0  0  0  0  0
  147.4909  135.7269  152.0831 H   0  0  0  0  0  0  0  0  0  0  0  0
  147.6749  133.5604  151.2826 H   0  0  0  0  0  0  0  0  0  0  0  0
  146.5401  131.5523  150.3257 H   0  0  0  0  0  0  0  0  0  0  0  0
  142.7983  133.2329  150.8073 H   0  0  0  0  0  0  0  0  0  0  0  0
  143.7306  135.3035  151.7910 H   0  0  0  0  0  0  0  0  0  0  0  0
  148.8350  138.8117  155.3178 H   0  0  0  0  0  0  0  0  0  0  0  0
  1  2  2  0  0  0  0
  2  3  1  0  0  0  0
  2 18  1  0  0  0  0
  3  4  1  0  0  0  0
  3 25  1  0  0  0  0
  4  5  1  0  0  0  0
  4 26  1  0  0  0  0
  4 27  1  0  0  0  0
  5  6  1  0  0  0  0
  5 28  1  0  0  0  0
  5 29  1  0  0  0  0
  6 17  1  0  0  0  0
  6  7  1  0  0  0  0
  6 50  1  0  0  0  0
  7  8  1  0  0  0  0
  7 30  1  0  0  0  0
  7 31  1  0  0  0  0
  8  9  1  0  0  0  0
  8 32  1  0  0  0  0
  8 33  1  0  0  0  0
  9 10  1  0  0  0  0
  9 16  1  0  0  0  0
 10 11  2  0  0  0  0
 10 12  1  0  0  0  0
 12 15  1  0  0  0  0
 12 13  1  0  0  0  0
 12 34  1  0  0  0  0
 13 14  1  0  0  0  0
 13 35  1  0  0  0  0
 13 36  1  0  0  0  0
 14 15  1  0  0  0  0
 14 37  1  0  0  0  0
 14 38  1  0  0  0  0
 15 39  1  0  0  0  0
 15 40  1  0  0  0  0
 16 17  1  0  0  0  0
 16 41  1  0  0  0  0
 16 42  1  0  0  0  0
 17 43  1  0  0  0  0
 17 44  1  0  0  0  0
 18 19  1  0  0  0  0
 18 45  1  0  0  0  0
 19 24  1  0  0  0  0
 19 20  2  0  0  0  0
 20 21  1  0  0  0  0
 20 46  1  0  0  0  0
 21 22  2  0  0  0  0
 21 47  1  0  0  0  0
 22 23  1  0  0  0  0
 23 24  2  0  0  0  0
 23 48  1  0  0  0  0
 24 49  1  0  0  0  0
M  CHG  1   6   1
M  END
> <s_m_source_file>
AV-unprocessed.smi

> <i_m_source_file_index>
769

> <i_lp_mmshare_version>
43012

> <i_f3d_flags>
0

> <s_epik_input>
W2NIXTFbY0hdbltjSF1bY0hdYzFbTkhdQyg9TylbTkhdW0NIMl1bQ0gyXU4yW0NIMl1bQ0gyXU4oW0NIMl1bQ0gyXTIpQyg9TylbQ0hdM1tDSDJdW0NIMl1bQ0gyXTM=

> <s_epik_cmdline>
J2VwaWtfcHl0aG9uJywgJy1waCcsICc3LjAnLCAnLXRuJywgJzgnLCAnLW1hJywgJzIwMCcsICctbWV0YWxfYmluZGluZycsICctaW1hZScsICc8aW5maWxlLm1hZT4nLCAnLW9tYWUnLCAnPG91dGZpbGUubWFlPic=

> <r_epik_Ionization_Penalty>
0.680309

> <r_epik_Ionization_Penalty_Charging>
0.581996

> <r_epik_Ionization_Penalty_Neutral>
0.0983131

> <r_epik_State_Penalty>
0.686881

> <r_epik_Charging_Adjusted_Penalty>
1.26888

> <i_epik_Tot_Q>
1

> <i_epik_Tot_abs_Q>
1

> <r_epik_Metal_State_Penalty>
0.68612

> <b_epik_Metal_Only>
0

> <s_lp_Force_Field>
OPLS_2005

> <r_lp_Energy>
56.1037

> <b_lp_Chiralities_Consistent>
1

> <s_lp_Variant>
AV-unprocessed.smi:769-2

> <Gold.Version>
5.8.1

> <Gold.Id.Protein>
6NUR|6NUR_protein|mol2

> <Gold.PLP.Fitness>
52.0240

> <Gold.PLP.PLP>
-41.3772

> <Gold.PLP.part.hbond>
-2.4753

> <Gold.PLP.part.metal>
0.0000

> <Gold.PLP.part.buried>
-4.9828

> <Gold.PLP.part.nonpolar>
-34.8928

> <Gold.PLP.part.repulsive>
0.5556

> <Gold.PLP.ligand.clash>
0.0000

> <Gold.PLP.ligand.torsion>
0.6134

> <Gold.PLP.Chemscore.Hbond>
1.8160

> <Gold.PLP.Chemscore.CHOScore>
2.0000

> <Gold.PLP.Chemscore.Metal>
0.0000

> <Gold.Chemscore.Hbonds>
donor molecule, donor type, donor heavy atom, donor atom, acceptor molecule, acceptor atom, score
      L1  H     3    25       P1  7948  0.80
      L1  H    18    45       P1  7948  1.00
      L1  C    21    47       P1 10747  1.00
      L1  C    23    48       P1 10186  1.00

> <Gold.PLP.Chemscore.Internal.Correction>
0.4256

> <Gold.Rescore>
     Score         DG    S(hbond)    S(metal)    S(lipo)     H(rot)  DE(clash)    DE(int)     intcor
     18.15     -20.11       1.88        0.00     108.98       1.72       0.14       1.81       ----

> <Gold.Chemscore.Fitness>
18.1523

> <Gold.Chemscore.DG>
-20.1052

> <Gold.Chemscore.ZeroCoef>
-5.4800

> <Gold.Chemscore.Hbond>
1.8793

> <Gold.Chemscore.Metal>
0.0000

> <Gold.Chemscore.Lipo>
108.9757

> <Gold.Chemscore.Internal_Hbond>
0.0000

> <Gold.Chemscore.DEClash>
0.1434

> <Gold.Chemscore.DEInternal>
1.8095

> <Gold.Chemscore.Rot>
1.7195

> <Gold.Chemscore.Internal.Correction>
   9.000000E+99

> <Gold.Chemscore.Hbonds>
donor molecule, donor type, donor heavy atom, donor atom, acceptor molecule, acceptor atom, score
      L1  H     3    25       P1  7948  0.79
      L1  H    18    45       P1  7948  0.93

> <Gold.Chemscore.Hbond.Weighted>
-6.2770

> <Gold.Chemscore.Metal.Weighted>
-0.0000

> <Gold.Chemscore.Lipo.Weighted>
-12.7502

> <Gold.Chemscore.Internal_Hbond.Weighted>
0.0000

> <Gold.Chemscore.DEClash.Weighted>
0.1434

> <Gold.Chemscore.DEInternal.Weighted>
1.8095

> <Gold.Chemscore.Rot.Weighted>
4.4020

> <Gold.Chemscore.Internal.Correction.Weighted>
   9.000000E+99

> <Gold.Protein.RotatedTorsions>
[ 6907 6896 6895 6894 ] final  -83.71 input  -60.11 | X-H torsion
[ 7974 7965 7964 7962 ] final  160.79 input  175.53 | X-H torsion
[ 8008 7997 7996 7995 ] final   55.81 input   59.86 | X-H torsion
[ 10167 10162 10161 10158 ] final    6.72 input  -65.29 | X-H torsion
[ 10718 10713 10712 10709 ] final   31.56 input   66.30 | X-H torsion
[ 10763 10752 10751 10750 ] final  149.80 input  -60.55 | X-H torsion
[ 11005 11000 10999 10996 ] final   97.74 input  -57.11 | X-H torsion

> <Gold.Protein.ActiveResidues>
 VAL166  LYS551  ARG553  GLY616  TRP617  ASP618  TYR619  PRO620  LYS621  CYS622 
 ASP623  PHE694  ASN695  SER759  ASP760  ASP761  ALA762  ILE779  LEU786  VAL792 
 PHE793  MET794  SER795  GLU796  ALA797  LYS798  CYS799  TRP800  GLU811  SER814 

> <Gold.Protein.RotatedAtoms>
  150.6883  134.3469  159.4891 H   0  0  0  0  0  0  0  0  0  0  0  0  # atno 6907 bound_to 6896
  152.1315  134.9128  160.0567 H   0  0  0  0  0  0  0  0  0  0  0  0  # atno 6908 bound_to 6896
  152.0296  133.3897  159.4329 H   0  0  0  0  0  0  0  0  0  0  0  0  # atno 6909 bound_to 6896
  144.7718  139.7807  143.6294 H   0  0  0  0  0  0  0  0  0  0  0  0  # atno 7974 bound_to 7965
  155.5072  140.3476  155.4382 H   0  0  0  0  0  0  0  0  0  0  0  0  # atno 8008 bound_to 7997
  156.0874  140.1402  156.9664 H   0  0  0  0  0  0  0  0  0  0  0  0  # atno 8009 bound_to 7997
  154.4614  140.0933  156.6881 H   0  0  0  0  0  0  0  0  0  0  0  0  # atno 8010 bound_to 7997
  140.6412  143.7770  150.7431 H   0  0  0  0  0  0  0  0  0  0  0  0  # atno 10167 bound_to 10162
  157.2741  130.7222  149.6520 H   0  0  0  0  0  0  0  0  0  0  0  0  # atno 10718 bound_to 10713
  154.0771  135.2862  155.3297 H   0  0  0  0  0  0  0  0  0  0  0  0  # atno 10763 bound_to 10752
  154.6708  135.5300  153.8139 H   0  0  0  0  0  0  0  0  0  0  0  0  # atno 10764 bound_to 10752
  153.0463  135.6557  154.0949 H   0  0  0  0  0  0  0  0  0  0  0  0  # atno 10765 bound_to 10752
  139.8775  134.9015  156.4352 H   0  0  0  0  0  0  0  0  0  0  0  0  # atno 11005 bound_to 11000
  146.1871  139.5091  142.9829 LP  0  0  0  0  0  0  0  0  0  0  0  0  # atno 17320 bound_to 7965
  145.6300  141.0306  143.1868 LP  0  0  0  0  0  0  0  0  0  0  0  0  # atno 17321 bound_to 7965
  140.1402  143.4448  152.2199 LP  0  0  0  0  0  0  0  0  0  0  0  0  # atno 17342 bound_to 10162
  139.5621  144.7412  151.4125 LP  0  0  0  0  0  0  0  0  0  0  0  0  # atno 17343 bound_to 10162
  155.9663  130.4358  150.5109 LP  0  0  0  0  0  0  0  0  0  0  0  0  # atno 17370 bound_to 10713
  157.3039  131.0650  151.2049 LP  0  0  0  0  0  0  0  0  0  0  0  0  # atno 17371 bound_to 10713
  140.9038  133.7760  155.9711 LP  0  0  0  0  0  0  0  0  0  0  0  0  # atno 17394 bound_to 11000
  140.8622  134.2827  157.5229 LP  0  0  0  0  0  0  0  0  0  0  0  0  # atno 17395 bound_to 11000

$$$$
