AV-unprocessed.smi:2536|AV-procd|sdf|9979|dock1
  -GOLD-   2272014 23D 1   1.00000     0.00000
 Structure written by MMmdl.
 32 33  0  0  0  0  0  0  0  0  1 V2000
  151.0351  137.4842  154.3659 C   0  0  0  0  0  0  0  0  0  0  0  0
  151.0032  138.8660  154.9910 C   0  0  0  0  0  0  0  0  0  0  0  0
  150.1394  139.8653  154.4938 C   0  0  0  0  0  0  0  0  0  0  0  0
  150.0949  141.1039  155.0299 N   0  0  0  0  0  0  0  0  0  0  0  0
  150.9087  141.3494  156.0586 C   0  0  0  0  0  0  0  0  0  0  0  0
  150.8385  142.6300  156.5775 N   0  0  0  0  0  0  0  0  0  0  0  0
  151.6938  143.1546  157.6349 C   0  0  1  0  0  0  0  0  0  0  0  0
  151.3023  144.5912  158.0226 C   0  0  0  0  0  0  0  0  0  0  0  0
  152.1629  145.0641  159.1989 C   0  0  0  0  0  0  0  0  0  0  0  0
  152.0867  144.0564  160.3565 C   0  0  0  0  0  0  0  0  0  0  0  0
  152.4812  142.7658  159.9025 O   0  0  0  0  0  0  0  0  0  0  0  0
  151.6349  142.2498  158.8799 C   0  0  0  0  0  0  0  0  0  0  0  0
  151.7634  140.4826  156.6135 N   0  0  0  0  0  0  0  0  0  0  0  0
  151.8187  139.2390  156.0876 C   0  0  0  0  0  0  0  0  0  0  0  0
  152.8077  138.2964  156.7493 C   0  0  0  0  0  0  0  0  0  0  0  0
  150.3437  137.4168  153.5256 H   0  0  0  0  0  0  0  0  0  0  0  0
  150.7501  136.7277  155.0975 H   0  0  0  0  0  0  0  0  0  0  0  0
  152.0357  137.2556  153.9981 H   0  0  0  0  0  0  0  0  0  0  0  0
  149.4803  139.6740  153.6599 H   0  0  0  0  0  0  0  0  0  0  0  0
  150.1972  143.2687  156.1303 H   0  0  0  0  0  0  0  0  0  0  0  0
  152.7230  143.1555  157.2737 H   0  0  0  0  0  0  0  0  0  0  0  0
  151.4234  145.2701  157.1781 H   0  0  0  0  0  0  0  0  0  0  0  0
  150.2491  144.6271  158.3049 H   0  0  0  0  0  0  0  0  0  0  0  0
  153.1990  145.1702  158.8753 H   0  0  0  0  0  0  0  0  0  0  0  0
  151.8363  146.0490  159.5331 H   0  0  0  0  0  0  0  0  0  0  0  0
  152.7504  144.3634  161.1650 H   0  0  0  0  0  0  0  0  0  0  0  0
  151.0781  144.0154  160.7706 H   0  0  0  0  0  0  0  0  0  0  0  0
  150.6134  142.1594  159.2539 H   0  0  0  0  0  0  0  0  0  0  0  0
  151.9716  141.2434  158.6293 H   0  0  0  0  0  0  0  0  0  0  0  0
  152.7629  137.2856  156.3471 H   0  0  0  0  0  0  0  0  0  0  0  0
  152.6093  138.2366  157.8198 H   0  0  0  0  0  0  0  0  0  0  0  0
  153.8238  138.6677  156.6133 H   0  0  0  0  0  0  0  0  0  0  0  0
  1  2  1  0  0  0  0
  1 16  1  0  0  0  0
  1 17  1  0  0  0  0
  1 18  1  0  0  0  0
  2 14  1  0  0  0  0
  2  3  2  0  0  0  0
  3  4  1  0  0  0  0
  3 19  1  0  0  0  0
  4  5  2  0  0  0  0
  5  6  1  0  0  0  0
  5 13  1  0  0  0  0
  6  7  1  0  0  0  0
  6 20  1  0  0  0  0
  7 12  1  0  0  0  0
  7  8  1  0  0  0  0
  7 21  1  0  0  0  0
  8  9  1  0  0  0  0
  8 22  1  0  0  0  0
  8 23  1  0  0  0  0
  9 10  1  0  0  0  0
  9 24  1  0  0  0  0
  9 25  1  0  0  0  0
 10 11  1  0  0  0  0
 10 26  1  0  0  0  0
 10 27  1  0  0  0  0
 11 12  1  0  0  0  0
 12 28  1  0  0  0  0
 12 29  1  0  0  0  0
 13 14  2  0  0  0  0
 14 15  1  0  0  0  0
 15 30  1  0  0  0  0
 15 31  1  0  0  0  0
 15 32  1  0  0  0  0
M  END
> <s_m_source_file>
AV-unprocessed.smi

> <i_m_source_file_index>
2536

> <i_lp_mmshare_version>
43012

> <i_f3d_flags>
0

> <s_epik_input>
W0NIM11jMVtjSF1uYyhuYzFbQ0gzXSlbTkhdW0NAQEhdMltDSDJdW0NIMl1bQ0gyXU9bQ0gyXTI=

> <s_epik_cmdline>
J2VwaWtfcHl0aG9uJywgJy1waCcsICc3LjAnLCAnLXRuJywgJzgnLCAnLW1hJywgJzIwMCcsICctbWV0YWxfYmluZGluZycsICctaW1hZScsICc8aW5maWxlLm1hZT4nLCAnLW9tYWUnLCAnPG91dGZpbGUubWFlPic=

> <r_lp_tautomer_probability>
1

> <r_epik_Ionization_Penalty>
0.00982357

> <r_epik_Ionization_Penalty_Charging>
0

> <r_epik_Ionization_Penalty_Neutral>
0.00982357

> <r_epik_State_Penalty>
0.0064698

> <r_epik_Charging_Adjusted_Penalty>
0.0064698

> <i_epik_Tot_Q>
0

> <i_epik_Tot_abs_Q>
0

> <r_epik_Metal_State_Penalty>
-0

> <b_epik_Metal_Only>
0

> <s_lp_Force_Field>
OPLS_2005

> <r_lp_Energy>
1.83983

> <b_lp_Chiralities_Consistent>
1

> <s_lp_Variant>
AV-unprocessed.smi:2536-2

> <Gold.Version>
5.8.1

> <Gold.Id.Protein>
6NUR|6NUR_protein|mol2

> <Gold.PLP.Fitness>
39.9829

> <Gold.PLP.PLP>
-34.0254

> <Gold.PLP.part.hbond>
-2.0000

> <Gold.PLP.part.metal>
0.0000

> <Gold.PLP.part.buried>
-3.1468

> <Gold.PLP.part.nonpolar>
-28.0352

> <Gold.PLP.part.repulsive>
0.1811

> <Gold.PLP.ligand.clash>
0.0000

> <Gold.PLP.ligand.torsion>
0.0227

> <Gold.PLP.Chemscore.Hbond>
1.0000

> <Gold.PLP.Chemscore.CHOScore>
1.0000

> <Gold.PLP.Chemscore.Metal>
0.0000

> <Gold.Chemscore.Hbonds>
donor molecule, donor type, donor heavy atom, donor atom, acceptor molecule, acceptor atom, score
      L1  H     6    20       P1  8028  1.00
      L1  C     3    19       P1  7957  1.00

> <Gold.PLP.Chemscore.Internal.Correction>
0.0029

> <Gold.Rescore>
     Score         DG    S(hbond)    S(metal)    S(lipo)     H(rot)  DE(clash)    DE(int)     intcor
     15.97     -17.46       1.00        0.00      95.73       1.00       0.23       1.26       ----

> <Gold.Chemscore.Fitness>
15.9701

> <Gold.Chemscore.DG>
-17.4607

> <Gold.Chemscore.ZeroCoef>
-5.4800

> <Gold.Chemscore.Hbond>
1.0000

> <Gold.Chemscore.Metal>
0.0000

> <Gold.Chemscore.Lipo>
95.7329

> <Gold.Chemscore.Internal_Hbond>
0.0000

> <Gold.Chemscore.DEClash>
0.2290

> <Gold.Chemscore.DEInternal>
1.2616

> <Gold.Chemscore.Rot>
1.0000

> <Gold.Chemscore.Internal.Correction>
   9.000000E+99

> <Gold.Chemscore.Hbonds>
donor molecule, donor type, donor heavy atom, donor atom, acceptor molecule, acceptor atom, score
      L1  H     6    20       P1  8028  0.95

> <Gold.Chemscore.Hbond.Weighted>
-3.3400

> <Gold.Chemscore.Metal.Weighted>
-0.0000

> <Gold.Chemscore.Lipo.Weighted>
-11.2007

> <Gold.Chemscore.Internal_Hbond.Weighted>
0.0000

> <Gold.Chemscore.DEClash.Weighted>
0.2290

> <Gold.Chemscore.DEInternal.Weighted>
1.2616

> <Gold.Chemscore.Rot.Weighted>
2.5600

> <Gold.Chemscore.Internal.Correction.Weighted>
   9.000000E+99

> <Gold.Protein.RotatedTorsions>
[ 6907 6896 6895 6894 ] final  -57.01 input  -60.11 | X-H torsion
[ 7974 7965 7964 7962 ] final  -86.34 input  175.53 | X-H torsion
[ 8008 7997 7996 7995 ] final   17.15 input   59.86 | X-H torsion
[ 10167 10162 10161 10158 ] final   44.35 input  -65.29 | X-H torsion
[ 10718 10713 10712 10709 ] final  -32.02 input   66.30 | X-H torsion
[ 10763 10752 10751 10750 ] final  -42.03 input  -60.55 | X-H torsion
[ 11005 11000 10999 10996 ] final   14.29 input  -57.11 | X-H torsion

> <Gold.Protein.ActiveResidues>
 VAL166  LYS551  ARG553  GLY616  TRP617  ASP618  TYR619  PRO620  LYS621  CYS622 
 ASP623  PHE694  ASN695  SER759  ASP760  ASP761  ALA762  ILE779  LEU786  VAL792 
 PHE793  MET794  SER795  GLU796  ALA797  LYS798  CYS799  TRP800  GLU811  SER814 

> <Gold.Protein.RotatedAtoms>
  150.8120  134.7281  159.6696 H   0  0  0  0  0  0  0  0  0  0  0  0  # atno 6907 bound_to 6896
  152.4240  134.5899  159.9981 H   0  0  0  0  0  0  0  0  0  0  0  0  # atno 6908 bound_to 6896
  151.6106  133.3310  159.3103 H   0  0  0  0  0  0  0  0  0  0  0  0  # atno 6909 bound_to 6896
  145.4812  140.9557  143.1863 H   0  0  0  0  0  0  0  0  0  0  0  0  # atno 7974 bound_to 7965
  154.8872  140.2981  155.5391 H   0  0  0  0  0  0  0  0  0  0  0  0  # atno 8008 bound_to 7997
  156.3021  140.2431  156.3817 H   0  0  0  0  0  0  0  0  0  0  0  0  # atno 8009 bound_to 7997
  154.8656  140.0403  157.1681 H   0  0  0  0  0  0  0  0  0  0  0  0  # atno 8010 bound_to 7997
  140.3352  144.2539  150.6162 H   0  0  0  0  0  0  0  0  0  0  0  0  # atno 10167 bound_to 10162
  156.3800  130.4354  149.7476 H   0  0  0  0  0  0  0  0  0  0  0  0  # atno 10718 bound_to 10713
  153.9723  135.6727  153.4747 H   0  0  0  0  0  0  0  0  0  0  0  0  # atno 10763 bound_to 10752
  153.0787  135.4935  154.8455 H   0  0  0  0  0  0  0  0  0  0  0  0  # atno 10764 bound_to 10752
  154.7212  135.3117  154.9005 H   0  0  0  0  0  0  0  0  0  0  0  0  # atno 10765 bound_to 10752
  140.4712  134.1029  155.7733 H   0  0  0  0  0  0  0  0  0  0  0  0  # atno 11005 bound_to 11000
  144.7888  139.6371  143.7122 LP  0  0  0  0  0  0  0  0  0  0  0  0  # atno 17320 bound_to 7965
  146.2340  139.5868  142.9536 LP  0  0  0  0  0  0  0  0  0  0  0  0  # atno 17321 bound_to 7965
  140.5360  143.2233  151.8162 LP  0  0  0  0  0  0  0  0  0  0  0  0  # atno 17342 bound_to 10162
  139.4849  144.4660  151.9483 LP  0  0  0  0  0  0  0  0  0  0  0  0  # atno 17343 bound_to 10162
  156.4570  130.7934  151.2954 LP  0  0  0  0  0  0  0  0  0  0  0  0  # atno 17370 bound_to 10713
  157.7491  131.0077  150.3202 LP  0  0  0  0  0  0  0  0  0  0  0  0  # atno 17371 bound_to 10713
  141.1576  133.8853  157.1935 LP  0  0  0  0  0  0  0  0  0  0  0  0  # atno 17394 bound_to 11000
  139.9884  135.0073  156.9917 LP  0  0  0  0  0  0  0  0  0  0  0  0  # atno 17395 bound_to 11000

$$$$
