#       Name:                AV-unprocessed.smi:1725
#       Creating user name   scv26
#       Creation time:       Fri Mar 27 08:16:44 2020


#       File generated by GOLD software.
#

@<TRIPOS>MOLECULE
AV-unprocessed.smi:1725
    42    43     1
SMALL
NO_CHARGES


@<TRIPOS>ATOM
      1 ****        -0.5097  -2.9176  -1.8895 C.3            1 S1                 0.0000
      2 ****        -0.1014  -2.1011  -0.6542 C.3            1 S1                 0.0000
      3 ****         1.3200  -2.1397  -0.5680 O.3            1 S1                 0.0000
      4 ****         1.8726  -1.6982   0.6682 C.3            1 S1                 0.0000
      5 ****         3.3813  -1.8633   0.6817 C.3            1 S1                 0.0000
      6 ****         4.2001  -1.6305  -0.5713 C.3            1 S1                 0.0000
      7 ****         4.0472  -3.0251  -0.0272 C.3            1 S1                 0.0000
      8 ****        -0.5905  -0.6468  -0.7542 C.2            1 S1                 0.0000
      9 ****        -0.3496   0.0033  -1.7710 O.2            1 S1                 0.0000
     10 ****        -1.2685  -0.1910   0.3180 N.am           1 S1                 0.0000
     11 ****        -1.8137   1.0815   0.5606 C.2            1 S1                 0.0000
     12 ****        -1.5192   2.2048  -0.1455 C.2            1 S1                 0.0000
     13 ****        -2.1181   3.4918   0.1662 C.2            1 S1                 0.0000
     14 ****        -1.7374   4.7505  -0.5980 C.3            1 S1                 0.0000
     15 ****        -2.5062   4.8732  -1.6790 F              1 S1                 0.0000
     16 ****        -1.8970   5.8417   0.1519 F              1 S1                 0.0000
     17 ****        -0.4664   4.6997  -0.9973 F              1 S1                 0.0000
     18 ****        -2.9621   3.5233   1.2140 C.2            1 S1                 0.0000
     19 ****        -3.2710   2.3739   1.9446 N.am           1 S1                 0.0000
     20 ****        -2.7517   1.1513   1.6935 C.2            1 S1                 0.0000
     21 ****        -3.0683   0.1874   2.3901 O.2            1 S1                 0.0000
     22 ****        -3.9212   2.4777   2.7102 H              1 S1                 0.0000
     23 ****        -1.5915  -2.9135  -2.0276 H              1 S1                 0.0000
     24 ****        -0.1953  -3.9563  -1.7859 H              1 S1                 0.0000
     25 ****        -0.0527  -2.5267  -2.7995 H              1 S1                 0.0000
     26 ****        -0.5314  -2.5797   0.2280 H              1 S1                 0.0000
     27 ****         1.6418  -0.6482   0.8499 H              1 S1                 0.0000
     28 ****         1.4527  -2.2761   1.4924 H              1 S1                 0.0000
     29 ****         3.8443  -1.5495   1.6152 H              1 S1                 0.0000
     30 ****         3.6718  -1.3905  -1.4921 H              1 S1                 0.0000
     31 ****         5.1691  -1.1498  -0.4544 H              1 S1                 0.0000
     32 ****         4.9147  -3.4737   0.4525 H              1 S1                 0.0000
     33 ****         3.4178  -3.7153  -0.5855 H              1 S1                 0.0000
     34 ****        -1.4378  -0.8637   1.0520 H              1 S1                 0.0000
     35 ****        -0.8166   2.1827  -0.9618 H              1 S1                 0.0000
     36 ****        -3.4551   4.4149   1.5723 H              1 S1                 0.0000
     37 ****         1.6883  -1.5597  -1.2945 LP             1 S1                 0.0000
     38 ****         1.6118  -3.0847  -0.7157 LP             1 S1                 0.0000
     39 ****         0.1601  -0.4150  -2.5228 LP             1 S1                 0.0000
     40 ****        -0.6636   0.9498  -1.8454 LP             1 S1                 0.0000
     41 ****        -2.6813  -0.7150   2.2007 LP             1 S1                 0.0000
     42 ****        -3.7126   0.3065   3.1456 LP             1 S1                 0.0000
@<TRIPOS>BOND
    1    1    2 1     
    2    1   23 1     
    3    1   24 1     
    4    1   25 1     
    5    2    3 1     
    6    2    8 1     
    7    2   26 1     
    8    3    4 1     
    9    4    5 1     
   10    4   27 1     
   11    4   28 1     
   12    5    7 1     
   13    5    6 1     
   14    5   29 1     
   15    6    7 1     
   16    6   30 1     
   17    6   31 1     
   18    7   32 1     
   19    7   33 1     
   20    8    9 2     
   21    8   10 am    
   22   10   11 1     
   23   10   34 1     
   24   11   20 1     
   25   11   12 2     
   26   12   13 1     
   27   12   35 1     
   28   13   14 1     
   29   13   18 2     
   30   14   15 1     
   31   14   16 1     
   32   14   17 1     
   33   18   19 1     
   34   18   36 1     
   35   19   22 1     
   36   19   20 am    
   37   20   21 2     
   38    3   37 1     
   39    3   38 1     
   40    9   39 1     
   41    9   40 1     
   42   21   41 1     
   43   21   42 1     
@<TRIPOS>SUBSTRUCTURE
      1 S1             1
@<TRIPOS>SET
LONE_PAIRS      STATIC     ATOMS    <user>   **** ""
6 37 38 39 40 41 42
DONOR_HYDROGENS      STATIC     ATOMS    <user>   **** ""
2 34 22
ATOM$BLUE        STATIC     ATOMS    COLORGROUP SYSTEM
6 37 38 39 40 41 42
ATOM$RED        STATIC     ATOMS    COLORGROUP SYSTEM
2 34 22
