AV-unprocessed.smi:2751|AV-procd|sdf|10604|dock6
  -GOLD-   2272015 53D 1   1.00000     0.00000
 Structure written by MMmdl.
 33 34  0  0  0  0  0  0  0  0  2 V2000
  151.8288  139.9862  154.7705 O   0  0  0  0  0  0  0  0  0  0  0  0
  150.6826  140.0159  155.2249 C   0  0  0  0  0  0  0  0  0  0  0  0
  150.4612  140.5198  156.4480 N   0  0  0  0  0  0  0  0  0  0  0  0
  151.4755  141.0651  157.3443 C   0  0  0  0  0  0  0  0  0  0  0  0
  151.2632  142.5687  157.5919 C   0  0  0  0  0  0  0  0  0  0  0  0
  152.0442  143.0902  158.8085 C   0  0  1  0  0  0  0  0  0  0  0  0
  151.4225  144.3783  159.3829 C   0  0  0  0  0  0  0  0  0  0  0  0
  152.1798  144.8306  160.6367 C   0  0  0  0  0  0  0  0  0  0  0  0
  152.2609  143.6726  161.6370 C   0  0  0  0  0  0  0  0  0  0  0  0
  152.8303  142.4178  160.9560 C   0  0  0  0  0  0  0  0  0  0  0  0
  152.0411  142.0826  159.8187 O   0  0  0  0  0  0  0  0  0  0  0  0
  149.5631  139.5800  154.6039 N   0  5  0  0  0  0  0  0  0  0  0  0
  148.5287  140.4176  154.4256 C   0  0  0  0  0  0  0  0  0  0  0  0
  147.2416  140.0774  154.3377 N   0  0  0  0  0  0  0  0  0  0  0  0
  146.5467  141.2643  154.1635 C   0  0  0  0  0  0  0  0  0  0  0  0
  147.4559  142.2865  154.1625 C   0  0  0  0  0  0  0  0  0  0  0  0
  148.7091  141.7655  154.3302 O   0  0  0  0  0  0  0  0  0  0  0  0
  149.5086  140.5240  156.7815 H   0  0  0  0  0  0  0  0  0  0  0  0
  151.4168  140.5198  158.2864 H   0  0  0  0  0  0  0  0  0  0  0  0
  152.4721  140.8787  156.9408 H   0  0  0  0  0  0  0  0  0  0  0  0
  151.5765  143.1237  156.7067 H   0  0  0  0  0  0  0  0  0  0  0  0
  150.1999  142.7748  157.7220 H   0  0  0  0  0  0  0  0  0  0  0  0
  153.0730  143.2914  158.5041 H   0  0  0  0  0  0  0  0  0  0  0  0
  151.4349  145.1714  158.6345 H   0  0  0  0  0  0  0  0  0  0  0  0
  150.3757  144.2015  159.6336 H   0  0  0  0  0  0  0  0  0  0  0  0
  153.1858  145.1507  160.3624 H   0  0  0  0  0  0  0  0  0  0  0  0
  151.6878  145.6919  161.0891 H   0  0  0  0  0  0  0  0  0  0  0  0
  152.8783  143.9531  162.4908 H   0  0  0  0  0  0  0  0  0  0  0  0
  151.2660  143.4549  162.0271 H   0  0  0  0  0  0  0  0  0  0  0  0
  153.8684  142.5728  160.6585 H   0  0  0  0  0  0  0  0  0  0  0  0
  152.8208  141.5776  161.6503 H   0  0  0  0  0  0  0  0  0  0  0  0
  145.4724  141.2872  154.0572 H   0  0  0  0  0  0  0  0  0  0  0  0
  147.3833  143.3589  154.0618 H   0  0  0  0  0  0  0  0  0  0  0  0
  1  2  2  0  0  0  0
  2 12  1  0  0  0  0
  2  3  1  0  0  0  0
  3  4  1  0  0  0  0
  3 18  1  0  0  0  0
  4  5  1  0  0  0  0
  4 19  1  0  0  0  0
  4 20  1  0  0  0  0
  5  6  1  0  0  0  0
  5 21  1  0  0  0  0
  5 22  1  0  0  0  0
  6 11  1  0  0  0  0
  6  7  1  0  0  0  0
  6 23  1  0  0  0  0
  7  8  1  0  0  0  0
  7 24  1  0  0  0  0
  7 25  1  0  0  0  0
  8  9  1  0  0  0  0
  8 26  1  0  0  0  0
  8 27  1  0  0  0  0
  9 10  1  0  0  0  0
  9 28  1  0  0  0  0
  9 29  1  0  0  0  0
 10 11  1  0  0  0  0
 10 30  1  0  0  0  0
 10 31  1  0  0  0  0
 12 13  1  0  0  0  0
 13 17  1  0  0  0  0
 13 14  2  0  0  0  0
 14 15  1  0  0  0  0
 15 32  1  0  0  0  0
 15 16  2  0  0  0  0
 16 33  1  0  0  0  0
 16 17  1  0  0  0  0
M  CHG  1  12  -1
M  END
> <s_m_source_file>
AV-unprocessed.smi

> <i_m_source_file_index>
2751

> <i_lp_mmshare_version>
43012

> <i_f3d_flags>
0

> <s_epik_input>
bzFbY0hdW2NIXW5jMVtOSF1DKD1PKVtOSF1bQ0gyXVtDSDJdW0NAQEhdMltDSDJdW0NIMl1bQ0gyXVtDSDJdTzI=

> <s_epik_cmdline>
J2VwaWtfcHl0aG9uJywgJy1waCcsICc3LjAnLCAnLXRuJywgJzgnLCAnLW1hJywgJzIwMCcsICctbWV0YWxfYmluZGluZycsICctaW1hZScsICc8aW5maWxlLm1hZT4nLCAnLW9tYWUnLCAnPG91dGZpbGUubWFlPic=

> <r_lp_tautomer_probability>
0.107061

> <r_epik_Ionization_Penalty>
11.077

> <r_epik_Ionization_Penalty_Charging>
7.79122

> <r_epik_Ionization_Penalty_Neutral>
3.28583

> <r_epik_State_Penalty>
5.8984

> <r_epik_Charging_Adjusted_Penalty>
13.6896

> <i_epik_Tot_Q>
-1

> <i_epik_Tot_abs_Q>
1

> <r_epik_Metal_State_Penalty>
1.82322

> <b_epik_Metal_Only>
1

> <s_lp_Force_Field>
OPLS_2005

> <r_lp_Energy>
3.95886

> <b_lp_Chiralities_Consistent>
1

> <s_lp_Variant>
AV-unprocessed.smi:2751-10

> <Gold.Version>
5.8.1

> <Gold.Id.Protein>
6NUR|6NUR_protein|mol2

> <Gold.PLP.Fitness>
43.6265

> <Gold.PLP.PLP>
-37.0319

> <Gold.PLP.part.hbond>
-2.0000

> <Gold.PLP.part.metal>
0.0000

> <Gold.PLP.part.buried>
-6.2618

> <Gold.PLP.part.nonpolar>
-29.7306

> <Gold.PLP.part.repulsive>
0.5013

> <Gold.PLP.ligand.clash>
0.0000

> <Gold.PLP.ligand.torsion>
0.9951

> <Gold.PLP.Chemscore.Hbond>
1.1532

> <Gold.PLP.Chemscore.CHOScore>
1.6994

> <Gold.PLP.Chemscore.Metal>
0.0000

> <Gold.Chemscore.Hbonds>
donor molecule, donor type, donor heavy atom, donor atom, acceptor molecule, acceptor atom, score
      P1  H  7989  7998       L1     1  0.96
      P1  H  8011  8017       L1    17  0.09
      L1  C    15    32       P1 10175  1.00
      L1  C    16    33       P1  8028  0.74

> <Gold.PLP.Chemscore.Internal.Correction>
0.0269

> <Gold.Rescore>
     Score         DG    S(hbond)    S(metal)    S(lipo)     H(rot)  DE(clash)    DE(int)     intcor
     13.57     -15.01       0.97        0.00      88.79       1.60       0.01       1.43       ----

> <Gold.Chemscore.Fitness>
13.5666

> <Gold.Chemscore.DG>
-15.0117

> <Gold.Chemscore.ZeroCoef>
-5.4800

> <Gold.Chemscore.Hbond>
0.9734

> <Gold.Chemscore.Metal>
0.0000

> <Gold.Chemscore.Lipo>
88.7920

> <Gold.Chemscore.Internal_Hbond>
0.0000

> <Gold.Chemscore.DEClash>
0.0127

> <Gold.Chemscore.DEInternal>
1.4325

> <Gold.Chemscore.Rot>
1.6048

> <Gold.Chemscore.Internal.Correction>
   9.000000E+99

> <Gold.Chemscore.Hbonds>
donor molecule, donor type, donor heavy atom, donor atom, acceptor molecule, acceptor atom, score
      P1  H  7989  7998       L1     1  0.26
      P1  H  8011  8017       L1    17  0.03

> <Gold.Chemscore.Hbond.Weighted>
-3.2513

> <Gold.Chemscore.Metal.Weighted>
-0.0000

> <Gold.Chemscore.Lipo.Weighted>
-10.3887

> <Gold.Chemscore.Internal_Hbond.Weighted>
0.0000

> <Gold.Chemscore.DEClash.Weighted>
0.0127

> <Gold.Chemscore.DEInternal.Weighted>
1.4325

> <Gold.Chemscore.Rot.Weighted>
4.1082

> <Gold.Chemscore.Internal.Correction.Weighted>
   9.000000E+99

> <Gold.Protein.RotatedTorsions>
[ 6907 6896 6895 6894 ] final   17.12 input  -60.11 | X-H torsion
[ 7974 7965 7964 7962 ] final -178.46 input  175.53 | X-H torsion
[ 8008 7997 7996 7995 ] final   95.47 input   59.86 | X-H torsion
[ 10167 10162 10161 10158 ] final   12.87 input  -65.29 | X-H torsion
[ 10718 10713 10712 10709 ] final  -90.17 input   66.30 | X-H torsion
[ 10763 10752 10751 10750 ] final  173.08 input  -60.55 | X-H torsion
[ 11005 11000 10999 10996 ] final   38.04 input  -57.11 | X-H torsion

> <Gold.Protein.ActiveResidues>
 VAL166  LYS551  ARG553  GLY616  TRP617  ASP618  TYR619  PRO620  LYS621  CYS622 
 ASP623  PHE694  ASN695  SER759  ASP760  ASP761  ALA762  ILE779  LEU786  VAL792 
 PHE793  MET794  SER795  GLU796  ALA797  LYS798  CYS799  TRP800  GLU811  SER814 

> <Gold.Protein.RotatedAtoms>
  151.8446  135.0578  160.0451 H   0  0  0  0  0  0  0  0  0  0  0  0  # atno 6907 bound_to 6896
  152.2783  133.5442  159.5490 H   0  0  0  0  0  0  0  0  0  0  0  0  # atno 6908 bound_to 6896
  150.7179  134.0516  159.3842 H   0  0  0  0  0  0  0  0  0  0  0  0  # atno 6909 bound_to 6896
  144.7131  140.0865  143.6423 H   0  0  0  0  0  0  0  0  0  0  0  0  # atno 7974 bound_to 7965
  156.0692  140.3286  155.7555 H   0  0  0  0  0  0  0  0  0  0  0  0  # atno 8008 bound_to 7997
  155.5332  140.0595  157.2902 H   0  0  0  0  0  0  0  0  0  0  0  0  # atno 8009 bound_to 7997
  154.4521  140.1923  156.0505 H   0  0  0  0  0  0  0  0  0  0  0  0  # atno 8010 bound_to 7997
  140.6040  143.8547  150.6994 H   0  0  0  0  0  0  0  0  0  0  0  0  # atno 10167 bound_to 10162
  155.9986  130.4899  150.5282 H   0  0  0  0  0  0  0  0  0  0  0  0  # atno 10718 bound_to 10713
  154.4350  135.2760  155.1886 H   0  0  0  0  0  0  0  0  0  0  0  0  # atno 10763 bound_to 10752
  154.3776  135.6094  153.5777 H   0  0  0  0  0  0  0  0  0  0  0  0  # atno 10764 bound_to 10752
  152.9838  135.5872  154.4668 H   0  0  0  0  0  0  0  0  0  0  0  0  # atno 10765 bound_to 10752
  140.2165  134.3692  155.8024 H   0  0  0  0  0  0  0  0  0  0  0  0  # atno 11005 bound_to 11000
  145.9657  139.2833  143.1129 LP  0  0  0  0  0  0  0  0  0  0  0  0  # atno 17320 bound_to 7965
  145.9172  140.9140  143.0424 LP  0  0  0  0  0  0  0  0  0  0  0  0  # atno 17321 bound_to 7965
  140.2099  143.3891  152.1726 LP  0  0  0  0  0  0  0  0  0  0  0  0  # atno 17342 bound_to 10162
  139.5311  144.7160  151.5053 LP  0  0  0  0  0  0  0  0  0  0  0  0  # atno 17343 bound_to 10162
  157.3235  131.0686  151.1914 LP  0  0  0  0  0  0  0  0  0  0  0  0  # atno 17370 bound_to 10713
  157.2820  130.6754  149.6070 LP  0  0  0  0  0  0  0  0  0  0  0  0  # atno 17371 bound_to 10713
  141.2224  133.7171  156.8505 LP  0  0  0  0  0  0  0  0  0  0  0  0  # atno 17394 bound_to 11000
  140.1895  134.8976  157.3043 LP  0  0  0  0  0  0  0  0  0  0  0  0  # atno 17395 bound_to 11000

$$$$
