AV-unprocessed.smi:1762|AV-procd|sdf|7121|dock4
  -GOLD-   22720 8353D 1   1.00000     0.00000
 Structure written by MMmdl.
 52 53  0  0  0  0  0  0  0  0  3 V2000
  145.9177  131.9291  151.0020 C   0  0  0  0  0  0  0  0  0  0  0  0
  146.2468  133.3425  151.4935 C   0  0  2  0  0  0  0  0  0  0  0  0
  146.8874  133.3324  152.8915 C   0  0  0  0  0  0  0  0  0  0  0  0
  147.1040  134.7238  153.3573 N   0  3  2  0  0  0  0  0  0  0  0  0
  147.9374  134.8982  154.5875 C   0  0  1  0  0  0  0  0  0  0  0  0
  147.1779  134.6180  155.9099 C   0  0  0  0  0  0  0  0  0  0  0  0
  146.9273  133.4401  156.1871 O   0  0  0  0  0  0  0  0  0  0  0  0
  146.8830  135.7568  156.5991 N   0  5  0  0  0  0  0  0  0  0  0  0
  146.4515  135.7763  157.9978 C   0  0  0  0  0  0  0  0  0  0  0  0
  147.5296  136.3922  158.9228 C   0  0  0  0  0  0  0  0  0  0  0  0
  147.3933  136.0684  160.4097 C   0  0  0  0  0  0  0  0  0  0  0  0
  147.3548  134.7264  160.8516 C   0  0  0  0  0  0  0  0  0  0  0  0
  147.1947  134.4722  162.2273 C   0  0  0  0  0  0  0  0  0  0  0  0
  147.0721  135.5616  163.1099 C   0  0  0  0  0  0  0  0  0  0  0  0
  147.1066  136.8636  162.5737 C   0  0  0  0  0  0  0  0  0  0  0  0
  147.2545  137.1188  161.2566 N   0  0  0  0  0  0  0  0  0  0  0  0
  149.3428  134.2251  154.4658 C   0  0  0  0  0  0  0  0  0  0  0  0
  149.2813  132.6884  154.5853 C   0  0  0  0  0  0  0  0  0  0  0  0
  150.3370  134.7757  155.5066 C   0  0  0  0  0  0  0  0  0  0  0  0
  145.8239  135.4725  153.3715 C   0  0  0  0  0  0  0  0  0  0  0  0
  145.1598  135.4358  151.9820 C   0  0  1  0  0  0  0  0  0  0  0  0
  145.8613  136.3312  150.9447 C   0  0  0  0  0  0  0  0  0  0  0  0
  145.0303  134.0867  151.5305 O   0  0  0  0  0  0  0  0  0  0  0  0
  146.8129  131.3081  150.9606 H   0  0  0  0  0  0  0  0  0  0  0  0
  145.4838  131.9552  150.0023 H   0  0  0  0  0  0  0  0  0  0  0  0
  145.2015  131.4406  151.6621 H   0  0  0  0  0  0  0  0  0  0  0  0
  146.9349  133.7960  150.7800 H   0  0  0  0  0  0  0  0  0  0  0  0
  146.2379  132.8061  153.5889 H   0  0  0  0  0  0  0  0  0  0  0  0
  147.8302  132.7881  152.8566 H   0  0  0  0  0  0  0  0  0  0  0  0
  148.1588  135.9666  154.6173 H   0  0  0  0  0  0  0  0  0  0  0  0
  145.5209  136.3318  158.1157 H   0  0  0  0  0  0  0  0  0  0  0  0
  146.2250  134.7721  158.3588 H   0  0  0  0  0  0  0  0  0  0  0  0
  148.5091  136.0392  158.5987 H   0  0  0  0  0  0  0  0  0  0  0  0
  147.5537  137.4750  158.7916 H   0  0  0  0  0  0  0  0  0  0  0  0
  147.4428  133.9102  160.1499 H   0  0  0  0  0  0  0  0  0  0  0  0
  147.1612  133.4591  162.5994 H   0  0  0  0  0  0  0  0  0  0  0  0
  146.9481  135.4042  164.1711 H   0  0  0  0  0  0  0  0  0  0  0  0
  147.0074  137.7235  163.2196 H   0  0  0  0  0  0  0  0  0  0  0  0
  149.7617  134.4479  153.4842 H   0  0  0  0  0  0  0  0  0  0  0  0
  148.8448  132.3830  155.5367 H   0  0  0  0  0  0  0  0  0  0  0  0
  150.2776  132.2503  154.5224 H   0  0  0  0  0  0  0  0  0  0  0  0
  148.6893  132.2385  153.7885 H   0  0  0  0  0  0  0  0  0  0  0  0
  149.9729  134.6185  156.5224 H   0  0  0  0  0  0  0  0  0  0  0  0
  150.5146  135.8431  155.3756 H   0  0  0  0  0  0  0  0  0  0  0  0
  151.3053  134.2816  155.4225 H   0  0  0  0  0  0  0  0  0  0  0  0
  145.1523  135.0280  154.1076 H   0  0  0  0  0  0  0  0  0  0  0  0
  145.9890  136.5063  153.6776 H   0  0  0  0  0  0  0  0  0  0  0  0
  144.1440  135.8170  152.0906 H   0  0  0  0  0  0  0  0  0  0  0  0
  145.8351  137.3757  151.2558 H   0  0  0  0  0  0  0  0  0  0  0  0
  145.3662  136.2648  149.9757 H   0  0  0  0  0  0  0  0  0  0  0  0
  146.9081  136.0625  150.8052 H   0  0  0  0  0  0  0  0  0  0  0  0
  147.6515  135.1603  152.6302 H   0  0  0  0  0  0  0  0  0  0  0  0
  1  2  1  0  0  0  0
  1 24  1  0  0  0  0
  1 25  1  0  0  0  0
  1 26  1  0  0  0  0
  2 23  1  0  0  0  0
  2  3  1  0  0  0  0
  2 27  1  0  0  0  0
  3  4  1  0  0  0  0
  3 28  1  0  0  0  0
  3 29  1  0  0  0  0
  4  5  1  0  0  0  0
  4 20  1  0  0  0  0
  4 52  1  0  0  0  0
  5  6  1  0  0  0  0
  5 17  1  0  0  0  0
  5 30  1  0  0  0  0
  6  7  2  0  0  0  0
  6  8  1  0  0  0  0
  8  9  1  0  0  0  0
  9 10  1  0  0  0  0
  9 31  1  0  0  0  0
  9 32  1  0  0  0  0
 10 11  1  0  0  0  0
 10 33  1  0  0  0  0
 10 34  1  0  0  0  0
 11 16  1  0  0  0  0
 11 12  2  0  0  0  0
 12 13  1  0  0  0  0
 12 35  1  0  0  0  0
 13 14  2  0  0  0  0
 13 36  1  0  0  0  0
 14 15  1  0  0  0  0
 14 37  1  0  0  0  0
 15 16  2  0  0  0  0
 15 38  1  0  0  0  0
 17 18  1  0  0  0  0
 17 19  1  0  0  0  0
 17 39  1  0  0  0  0
 18 40  1  0  0  0  0
 18 41  1  0  0  0  0
 18 42  1  0  0  0  0
 19 43  1  0  0  0  0
 19 44  1  0  0  0  0
 19 45  1  0  0  0  0
 20 21  1  0  0  0  0
 20 46  1  0  0  0  0
 20 47  1  0  0  0  0
 21 22  1  0  0  0  0
 21 23  1  0  0  0  0
 21 48  1  0  0  0  0
 22 49  1  0  0  0  0
 22 50  1  0  0  0  0
 22 51  1  0  0  0  0
M  CHG  1   4   1
M  CHG  1   8  -1
M  END
> <s_m_source_file>
AV-unprocessed.smi

> <i_m_source_file_index>
1762

> <i_lp_mmshare_version>
43012

> <i_f3d_flags>
0

> <s_epik_input>
W0NIM11bQ0BASF0xW0NIMl1OKFtDSDJdW0NASF0oTzEpW0NIM10pW0NAQEhdKFtDSF0oW0NIM10pW0NIM10pQyg9TylbTkhdW0NIMl1bQ0gyXWMyW2NIXVtjSF1bY0hdW2NIXW4y

> <s_epik_cmdline>
J2VwaWtfcHl0aG9uJywgJy1waCcsICc3LjAnLCAnLXRuJywgJzgnLCAnLW1hJywgJzIwMCcsICctbWV0YWxfYmluZGluZycsICctaW1hZScsICc8aW5maWxlLm1hZT4nLCAnLW9tYWUnLCAnPG91dGZpbGUubWFlPic=

> <r_epik_Ionization_Penalty>
7.82966

> <r_epik_Ionization_Penalty_Charging>
7.7461

> <r_epik_Ionization_Penalty_Neutral>
0.0835571

> <r_epik_State_Penalty>
8.52273

> <r_epik_Charging_Adjusted_Penalty>
16.2688

> <i_epik_Tot_Q>
0

> <i_epik_Tot_abs_Q>
2

> <r_epik_Metal_State_Penalty>
4.47451

> <b_epik_Metal_Only>
1

> <s_lp_Force_Field>
OPLS_2005

> <r_lp_Energy>
25.1161

> <b_lp_Chiralities_Consistent>
1

> <s_lp_Variant>
AV-unprocessed.smi:1762-23

> <Gold.Version>
5.8.1

> <Gold.Id.Protein>
6NUR|6NUR_protein|mol2

> <Gold.PLP.Fitness>
47.4394

> <Gold.PLP.PLP>
-38.5172

> <Gold.PLP.part.hbond>
-3.0000

> <Gold.PLP.part.metal>
0.0000

> <Gold.PLP.part.buried>
-2.3608

> <Gold.PLP.part.nonpolar>
-33.2571

> <Gold.PLP.part.repulsive>
0.1172

> <Gold.PLP.ligand.clash>
0.0000

> <Gold.PLP.ligand.torsion>
0.5945

> <Gold.PLP.Chemscore.Hbond>
3.0980

> <Gold.PLP.Chemscore.CHOScore>
0.0000

> <Gold.PLP.Chemscore.Metal>
0.0000

> <Gold.Chemscore.Hbonds>
donor molecule, donor type, donor heavy atom, donor atom, acceptor molecule, acceptor atom, score
      L1  H     4    52       P1  7948  2.00
      P1  H  6931  6943       L1    16  0.10
      P1  H  6934  6947       L1    16  1.00

> <Gold.PLP.Chemscore.Internal.Correction>
0.8173

> <Gold.Rescore>
     Score         DG    S(hbond)    S(metal)    S(lipo)     H(rot)  DE(clash)    DE(int)     intcor
     16.11     -19.08       1.87        0.00      97.98       1.60       0.07       2.90       ----

> <Gold.Chemscore.Fitness>
16.1099

> <Gold.Chemscore.DG>
-19.0776

> <Gold.Chemscore.ZeroCoef>
-5.4800

> <Gold.Chemscore.Hbond>
1.8660

> <Gold.Chemscore.Metal>
0.0000

> <Gold.Chemscore.Lipo>
97.9826

> <Gold.Chemscore.Internal_Hbond>
0.0000

> <Gold.Chemscore.DEClash>
0.0671

> <Gold.Chemscore.DEInternal>
2.9006

> <Gold.Chemscore.Rot>
1.6012

> <Gold.Chemscore.Internal.Correction>
   9.000000E+99

> <Gold.Chemscore.Hbonds>
donor molecule, donor type, donor heavy atom, donor atom, acceptor molecule, acceptor atom, score
      L1  H     4    52       P1  7948  0.99
      P1  H  6934  6947       L1    16  0.72

> <Gold.Chemscore.Hbond.Weighted>
-6.2326

> <Gold.Chemscore.Metal.Weighted>
-0.0000

> <Gold.Chemscore.Lipo.Weighted>
-11.4640

> <Gold.Chemscore.Internal_Hbond.Weighted>
0.0000

> <Gold.Chemscore.DEClash.Weighted>
0.0671

> <Gold.Chemscore.DEInternal.Weighted>
2.9006

> <Gold.Chemscore.Rot.Weighted>
4.0990

> <Gold.Chemscore.Internal.Correction.Weighted>
   9.000000E+99

> <Gold.Protein.RotatedTorsions>
[ 6907 6896 6895 6894 ] final -139.58 input  -60.11 | X-H torsion
[ 7974 7965 7964 7962 ] final   81.92 input  175.53 | X-H torsion
[ 8008 7997 7996 7995 ] final -151.19 input   59.86 | X-H torsion
[ 10167 10162 10161 10158 ] final -164.86 input  -65.29 | X-H torsion
[ 10718 10713 10712 10709 ] final  -91.12 input   66.30 | X-H torsion
[ 10763 10752 10751 10750 ] final  -55.98 input  -60.55 | X-H torsion
[ 11005 11000 10999 10996 ] final  111.95 input  -57.11 | X-H torsion

> <Gold.Protein.ActiveResidues>
 VAL166  LYS551  ARG553  GLY616  TRP617  ASP618  TYR619  PRO620  LYS621  CYS622 
 ASP623  PHE694  ASN695  SER759  ASP760  ASP761  ALA762  ILE779  LEU786  VAL792 
 PHE793  MET794  SER795  GLU796  ALA797  LYS798  CYS799  TRP800  GLU811  SER814 

> <Gold.Protein.RotatedAtoms>
  151.0496  133.5635  159.2643 H   0  0  0  0  0  0  0  0  0  0  0  0  # atno 6907 bound_to 6896
  151.2651  135.0666  159.9123 H   0  0  0  0  0  0  0  0  0  0  0  0  # atno 6908 bound_to 6896
  152.5379  134.0235  159.8046 H   0  0  0  0  0  0  0  0  0  0  0  0  # atno 6909 bound_to 6896
  145.6318  139.2406  143.2080 H   0  0  0  0  0  0  0  0  0  0  0  0  # atno 7974 bound_to 7965
  155.6355  140.0696  157.2635 H   0  0  0  0  0  0  0  0  0  0  0  0  # atno 8008 bound_to 7997
  154.4196  140.1759  156.1567 H   0  0  0  0  0  0  0  0  0  0  0  0  # atno 8009 bound_to 7997
  155.9898  140.3346  155.6745 H   0  0  0  0  0  0  0  0  0  0  0  0  # atno 8010 bound_to 7997
  139.6221  144.0604  152.1942 H   0  0  0  0  0  0  0  0  0  0  0  0  # atno 10167 bound_to 10162
  155.9991  130.4936  150.5426 H   0  0  0  0  0  0  0  0  0  0  0  0  # atno 10718 bound_to 10713
  154.1993  135.6414  153.5082 H   0  0  0  0  0  0  0  0  0  0  0  0  # atno 10763 bound_to 10752
  153.0016  135.5447  154.6332 H   0  0  0  0  0  0  0  0  0  0  0  0  # atno 10764 bound_to 10752
  154.5741  135.2919  155.0771 H   0  0  0  0  0  0  0  0  0  0  0  0  # atno 10765 bound_to 10752
  139.8915  134.9519  156.6510 H   0  0  0  0  0  0  0  0  0  0  0  0  # atno 11005 bound_to 11000
  146.1351  140.7134  142.9394 LP  0  0  0  0  0  0  0  0  0  0  0  0  # atno 17320 bound_to 7965
  144.7191  140.4311  143.7022 LP  0  0  0  0  0  0  0  0  0  0  0  0  # atno 17321 bound_to 7965
  140.0248  144.6126  150.7536 LP  0  0  0  0  0  0  0  0  0  0  0  0  # atno 17342 bound_to 10162
  140.7388  143.2783  151.3674 LP  0  0  0  0  0  0  0  0  0  0  0  0  # atno 17343 bound_to 10162
  157.3361  131.0708  151.1824 LP  0  0  0  0  0  0  0  0  0  0  0  0  # atno 17370 bound_to 10713
  157.2688  130.6694  149.6010 LP  0  0  0  0  0  0  0  0  0  0  0  0  # atno 17371 bound_to 10713
  140.7520  133.8889  155.8354 LP  0  0  0  0  0  0  0  0  0  0  0  0  # atno 17394 bound_to 11000
  140.9993  134.1173  157.4333 LP  0  0  0  0  0  0  0  0  0  0  0  0  # atno 17395 bound_to 11000

$$$$
