#       Name:                AV-unprocessed.smi:1991
#       Creating user name   scv26
#       Creation time:       Fri Mar 27 10:27:34 2020


#       File generated by GOLD software.
#

@<TRIPOS>MOLECULE
AV-unprocessed.smi:1991
    52    53     1
SMALL
NO_CHARGES


@<TRIPOS>ATOM
      1 ****        -3.5236  -1.4233  -0.3342 C.3            1 S1                 0.0000
      2 ****        -2.9503  -0.6437   0.8583 C.3            1 S1                 0.0000
      3 ****        -3.3270  -1.3390   2.0445 O.3            1 S1                 0.0000
      4 ****        -3.1187  -0.6339   3.2642 C.3            1 S1                 0.0000
      5 ****        -3.6801  -1.4582   4.4290 C.3            1 S1                 0.0000
      6 ****        -3.4618  -0.8087   5.5718 F              1 S1                 0.0000
      7 ****        -4.9930  -1.6325   4.2798 F              1 S1                 0.0000
      8 ****        -3.0741  -2.6436   4.4886 F              1 S1                 0.0000
      9 ****        -1.4204  -0.5287   0.7653 C.2            1 S1                 0.0000
     10 ****        -0.7324  -1.5376   0.6091 O.2            1 S1                 0.0000
     11 ****        -0.9097   0.7067   0.8834 N.am           1 S1                 0.0000
     12 ****         0.5058   1.0530   0.8133 C.3            1 S1                 0.0000
     13 ****         0.8489   1.8510  -0.4407 C.ar           1 S1                 0.0000
     14 ****         0.2368   3.1078  -0.6377 C.ar           1 S1                 0.0000
     15 ****         0.5678   3.8674  -1.7739 C.ar           1 S1                 0.0000
     16 ****         1.5070   3.3384  -2.6769 C.ar           1 S1                 0.0000
     17 ****         2.0997   2.1390  -2.5061 N.ar           1 S1                 0.0000
     18 ****         1.7833   1.4019  -1.4132 C.ar           1 S1                 0.0000
     19 ****         2.3955   0.1431  -1.2908 N.3            1 S1                 0.0000
     20 ****         1.6115  -0.9301  -1.8862 C.3            1 S1                 0.0000
     21 ****         2.2133  -2.2914  -1.4990 C.3            1 S1                 0.0000
     22 ****         3.5826  -2.3368  -1.8933 O.3            1 S1                 0.0000
     23 ****         4.3593  -1.3224  -1.2607 C.3            1 S1                 0.0000
     24 ****         3.8090   0.0630  -1.6413 C.3            1 S1                 0.0000
     25 ****        -3.2584  -0.9515  -1.2811 H              1 S1                 0.0000
     26 ****        -4.6117  -1.4649  -0.2810 H              1 S1                 0.0000
     27 ****        -3.1568  -2.4502  -0.3567 H              1 S1                 0.0000
     28 ****        -3.3985   0.3518   0.8638 H              1 S1                 0.0000
     29 ****        -2.0571  -0.4480   3.4310 H              1 S1                 0.0000
     30 ****        -3.6180   0.3353   3.2245 H              1 S1                 0.0000
     31 ****        -1.5556   1.4708   1.0180 H              1 S1                 0.0000
     32 ****         0.7307   1.6802   1.6763 H              1 S1                 0.0000
     33 ****         1.1382   0.1725   0.9283 H              1 S1                 0.0000
     34 ****        -0.4754   3.4904   0.0784 H              1 S1                 0.0000
     35 ****         0.1158   4.8328  -1.9468 H              1 S1                 0.0000
     36 ****         1.7891   3.8917  -3.5604 H              1 S1                 0.0000
     37 ****         0.5730  -0.8691  -1.5626 H              1 S1                 0.0000
     38 ****         1.6131  -0.8170  -2.9711 H              1 S1                 0.0000
     39 ****         2.1261  -2.4633  -0.4248 H              1 S1                 0.0000
     40 ****         1.6723  -3.0964  -1.9962 H              1 S1                 0.0000
     41 ****         4.3455  -1.4621  -0.1784 H              1 S1                 0.0000
     42 ****         5.3969  -1.4160  -1.5816 H              1 S1                 0.0000
     43 ****         3.9363   0.2276  -2.7123 H              1 S1                 0.0000
     44 ****         4.3645   0.8452  -1.1225 H              1 S1                 0.0000
     45 ****        -2.7982  -2.1868   2.0852 LP             1 S1                 0.0000
     46 ****        -4.3007  -1.5565   1.9775 LP             1 S1                 0.0000
     47 ****        -1.1687  -2.4350   0.5424 LP             1 S1                 0.0000
     48 ****         0.2628  -1.4598   0.5490 LP             1 S1                 0.0000
     49 ****         2.7614   1.7991  -3.1744 LP             1 S1                 0.0000
     50 ****         2.4021   0.0032  -0.3006 LP             1 S1                 0.0000
     51 ****         3.6367  -2.2129  -2.8841 LP             1 S1                 0.0000
     52 ****         3.9588  -3.2303  -1.6481 LP             1 S1                 0.0000
@<TRIPOS>BOND
    1    1    2 1     
    2    1   25 1     
    3    1   26 1     
    4    1   27 1     
    5    2    3 1     
    6    2    9 1     
    7    2   28 1     
    8    3    4 1     
    9    4    5 1     
   10    4   29 1     
   11    4   30 1     
   12    5    6 1     
   13    5    7 1     
   14    5    8 1     
   15    9   10 2     
   16    9   11 am    
   17   11   12 1     
   18   11   31 1     
   19   12   13 1     
   20   12   32 1     
   21   12   33 1     
   22   13   18 ar    
   23   13   14 ar    
   24   14   15 ar    
   25   14   34 1     
   26   15   16 ar    
   27   15   35 1     
   28   16   17 ar    
   29   16   36 1     
   30   17   18 ar    
   31   18   19 1     
   32   19   24 1     
   33   19   20 1     
   34   20   21 1     
   35   20   37 1     
   36   20   38 1     
   37   21   22 1     
   38   21   39 1     
   39   21   40 1     
   40   22   23 1     
   41   23   24 1     
   42   23   41 1     
   43   23   42 1     
   44   24   43 1     
   45   24   44 1     
   46    3   45 1     
   47    3   46 1     
   48   10   47 1     
   49   10   48 1     
   50   17   49 1     
   51   19   50 1     
   52   22   51 1     
   53   22   52 1     
@<TRIPOS>SUBSTRUCTURE
      1 S1             1
@<TRIPOS>SET
LONE_PAIRS      STATIC     ATOMS    <user>   **** ""
8 45 46 47 48 49 50 51 52
DONOR_HYDROGENS      STATIC     ATOMS    <user>   **** ""
1 31
ATOM$BLUE        STATIC     ATOMS    COLORGROUP SYSTEM
8 45 46 47 48 49 50 51 52
ATOM$RED        STATIC     ATOMS    COLORGROUP SYSTEM
1 31
