AV-unprocessed.smi:2862|AV-procd|sdf|11009|dock6
  -GOLD-   2272015473D 1   1.00000     0.00000
 Structure written by MMmdl.
 52 54  0  0  0  0  0  0  0  0  1 V2000
  146.8153  135.0164  155.2029 C   0  0  0  0  0  0  0  0  0  0  0  0
  146.4020  135.0722  153.7221 C   0  0  1  0  0  0  0  0  0  0  0  0
  146.7716  136.3518  153.1191 N   0  0  0  0  0  0  0  0  0  0  0  0
  146.3281  137.5760  153.4606 C   0  0  0  0  0  0  0  0  0  0  0  0
  145.5210  137.7686  154.3686 O   0  0  0  0  0  0  0  0  0  0  0  0
  146.8578  138.7871  152.6720 C   0  0  0  0  0  0  0  0  0  0  0  0
  147.4452  139.8603  153.4962 N   0  0  0  0  0  0  0  0  0  0  0  0
  146.7245  141.0690  153.5687 C   0  0  0  0  0  0  0  0  0  0  0  0
  147.1545  142.1144  154.2911 C   0  0  0  0  0  0  0  0  0  0  0  0
  148.3968  141.9834  155.0115 C   0  0  0  0  0  0  0  0  0  0  0  0
  149.0825  140.8179  154.9766 C   0  0  0  0  0  0  0  0  0  0  0  0
  150.3796  140.6516  155.6462 C   0  0  0  0  0  0  0  0  0  0  0  0
  151.3637  140.1801  155.0727 O   0  0  0  0  0  0  0  0  0  0  0  0
  150.4440  141.0857  156.9385 N   0  0  0  0  0  0  0  0  0  0  0  0
  149.2606  141.2469  157.8006 C   0  0  0  0  0  0  0  0  0  0  0  0
  151.7230  141.2718  157.6589 C   0  0  2  0  0  0  0  0  0  0  0  0
  152.2191  139.9583  158.2963 C   0  0  0  0  0  0  0  0  0  0  0  0
  151.7246  142.4105  158.6708 C   0  0  0  0  0  0  0  0  0  0  0  0
  152.1850  143.7966  158.2884 C   0  0  0  0  0  0  0  0  0  0  0  0
  153.0197  142.9532  159.2259 C   0  0  0  0  0  0  0  0  0  0  0  0
  148.6249  139.6662  154.1657 C   0  0  0  0  0  0  0  0  0  0  0  0
  149.2219  138.5884  154.0939 O   0  0  0  0  0  0  0  0  0  0  0  0
  146.8758  133.8454  152.9577 C   0  0  0  0  0  0  0  0  0  0  0  0
  146.9431  132.4920  153.6228 C   0  0  0  0  0  0  0  0  0  0  0  0
  148.2173  133.2177  153.2509 C   0  0  0  0  0  0  0  0  0  0  0  0
  146.4156  134.1236  155.6846 H   0  0  0  0  0  0  0  0  0  0  0  0
  146.4375  135.8806  155.7502 H   0  0  0  0  0  0  0  0  0  0  0  0
  147.8990  134.9940  155.3205 H   0  0  0  0  0  0  0  0  0  0  0  0
  145.3117  135.0592  153.6998 H   0  0  0  0  0  0  0  0  0  0  0  0
  147.4343  136.3031  152.3589 H   0  0  0  0  0  0  0  0  0  0  0  0
  147.5848  138.4316  151.9395 H   0  0  0  0  0  0  0  0  0  0  0  0
  146.0346  139.1813  152.0746 H   0  0  0  0  0  0  0  0  0  0  0  0
  145.8013  141.0880  153.0077 H   0  0  0  0  0  0  0  0  0  0  0  0
  146.5833  143.0300  154.3351 H   0  0  0  0  0  0  0  0  0  0  0  0
  148.7747  142.8305  155.5658 H   0  0  0  0  0  0  0  0  0  0  0  0
  148.4180  140.6300  157.4852 H   0  0  0  0  0  0  0  0  0  0  0  0
  148.9399  142.2888  157.8148 H   0  0  0  0  0  0  0  0  0  0  0  0
  149.4685  140.9508  158.8293 H   0  0  0  0  0  0  0  0  0  0  0  0
  152.4881  141.5186  156.9207 H   0  0  0  0  0  0  0  0  0  0  0  0
  153.2376  140.0712  158.6687 H   0  0  0  0  0  0  0  0  0  0  0  0
  152.2274  139.1469  157.5677 H   0  0  0  0  0  0  0  0  0  0  0  0
  151.6038  139.6453  159.1393 H   0  0  0  0  0  0  0  0  0  0  0  0
  150.9062  142.3678  159.3864 H   0  0  0  0  0  0  0  0  0  0  0  0
  152.5636  143.9475  157.2796 H   0  0  0  0  0  0  0  0  0  0  0  0
  151.6437  144.6391  158.7140 H   0  0  0  0  0  0  0  0  0  0  0  0
  153.0358  143.2337  160.2771 H   0  0  0  0  0  0  0  0  0  0  0  0
  153.9506  142.5447  158.8379 H   0  0  0  0  0  0  0  0  0  0  0  0
  146.5866  133.8422  151.9085 H   0  0  0  0  0  0  0  0  0  0  0  0
  146.6887  132.4328  154.6792 H   0  0  0  0  0  0  0  0  0  0  0  0
  146.6628  131.6263  153.0260 H   0  0  0  0  0  0  0  0  0  0  0  0
  148.7871  132.8328  152.4076 H   0  0  0  0  0  0  0  0  0  0  0  0
  148.8094  133.6393  154.0608 H   0  0  0  0  0  0  0  0  0  0  0  0
  1  2  1  0  0  0  0
  1 26  1  0  0  0  0
  1 27  1  0  0  0  0
  1 28  1  0  0  0  0
  2  3  1  0  0  0  0
  2 23  1  0  0  0  0
  2 29  1  0  0  0  0
  3  4  1  0  0  0  0
  3 30  1  0  0  0  0
  4  5  2  0  0  0  0
  4  6  1  0  0  0  0
  6  7  1  0  0  0  0
  6 31  1  0  0  0  0
  6 32  1  0  0  0  0
  7 21  1  0  0  0  0
  7  8  1  0  0  0  0
  8  9  2  0  0  0  0
  8 33  1  0  0  0  0
  9 10  1  0  0  0  0
  9 34  1  0  0  0  0
 10 11  2  0  0  0  0
 10 35  1  0  0  0  0
 11 12  1  0  0  0  0
 11 21  1  0  0  0  0
 12 13  2  0  0  0  0
 12 14  1  0  0  0  0
 14 15  1  0  0  0  0
 14 16  1  0  0  0  0
 15 36  1  0  0  0  0
 15 37  1  0  0  0  0
 15 38  1  0  0  0  0
 16 17  1  0  0  0  0
 16 18  1  0  0  0  0
 16 39  1  0  0  0  0
 17 40  1  0  0  0  0
 17 41  1  0  0  0  0
 17 42  1  0  0  0  0
 18 20  1  0  0  0  0
 18 19  1  0  0  0  0
 18 43  1  0  0  0  0
 19 20  1  0  0  0  0
 19 44  1  0  0  0  0
 19 45  1  0  0  0  0
 20 46  1  0  0  0  0
 20 47  1  0  0  0  0
 21 22  2  0  0  0  0
 23 25  1  0  0  0  0
 23 24  1  0  0  0  0
 23 48  1  0  0  0  0
 24 25  1  0  0  0  0
 24 49  1  0  0  0  0
 24 50  1  0  0  0  0
 25 51  1  0  0  0  0
 25 52  1  0  0  0  0
M  END
> <s_m_source_file>
AV-unprocessed.smi

> <i_m_source_file_index>
2862

> <i_lp_mmshare_version>
43012

> <i_f3d_flags>
0

> <s_epik_input>
W0NIMl0xW0NIMl1bQ0hdMVtDQEhdKFtDSDNdKVtOSF1DKD1PKVtDSDJdbjJbY0hdW2NIXVtjSF1jKGMyPU8pQyg9TylOKFtDSDNdKVtDQEhdKFtDSDNdKVtDSF0zW0NIMl1bQ0gyXTM=

> <s_epik_cmdline>
J2VwaWtfcHl0aG9uJywgJy1waCcsICc3LjAnLCAnLXRuJywgJzgnLCAnLW1hJywgJzIwMCcsICctbWV0YWxfYmluZGluZycsICctaW1hZScsICc8aW5maWxlLm1hZT4nLCAnLW9tYWUnLCAnPG91dGZpbGUubWFlPic=

> <r_lp_tautomer_probability>
1

> <r_epik_Ionization_Penalty>
4.00841e-08

> <r_epik_Ionization_Penalty_Charging>
2.07773e-08

> <r_epik_Ionization_Penalty_Neutral>
1.93069e-08

> <r_epik_State_Penalty>
-0

> <r_epik_Charging_Adjusted_Penalty>
2.07773e-08

> <i_epik_Tot_Q>
0

> <i_epik_Tot_abs_Q>
0

> <r_epik_Metal_State_Penalty>
-0

> <b_epik_Metal_Only>
0

> <s_lp_Force_Field>
OPLS_2005

> <r_lp_Energy>
60.0482

> <b_lp_Chiralities_Consistent>
1

> <s_lp_Variant>
AV-unprocessed.smi:2862-2

> <Gold.Version>
5.8.1

> <Gold.Id.Protein>
6NUR|6NUR_protein|mol2

> <Gold.PLP.Fitness>
50.7484

> <Gold.PLP.PLP>
-43.2117

> <Gold.PLP.part.hbond>
-1.7834

> <Gold.PLP.part.metal>
0.0000

> <Gold.PLP.part.buried>
-2.3218

> <Gold.PLP.part.nonpolar>
-40.7363

> <Gold.PLP.part.repulsive>
0.3761

> <Gold.PLP.ligand.clash>
0.0000

> <Gold.PLP.ligand.torsion>
2.8873

> <Gold.PLP.Chemscore.Hbond>
2.0000

> <Gold.PLP.Chemscore.CHOScore>
0.9872

> <Gold.PLP.Chemscore.Metal>
0.0000

> <Gold.Chemscore.Hbonds>
donor molecule, donor type, donor heavy atom, donor atom, acceptor molecule, acceptor atom, score
      L1  H     3    30       P1  7948  1.00
      P1  H  7989  7998       L1    13  1.00
      L1  C     8    33       P1 10175  0.99

> <Gold.PLP.Chemscore.Internal.Correction>
4.3499

> <Gold.Rescore>
     Score         DG    S(hbond)    S(metal)    S(lipo)     H(rot)  DE(clash)    DE(int)     intcor
     13.13     -18.78       1.92        0.00      96.79       1.73       0.41       5.24       ----

> <Gold.Chemscore.Fitness>
13.1347

> <Gold.Chemscore.DG>
-18.7793

> <Gold.Chemscore.ZeroCoef>
-5.4800

> <Gold.Chemscore.Hbond>
1.9208

> <Gold.Chemscore.Metal>
0.0000

> <Gold.Chemscore.Lipo>
96.7943

> <Gold.Chemscore.Internal_Hbond>
0.0000

> <Gold.Chemscore.DEClash>
0.4066

> <Gold.Chemscore.DEInternal>
5.2380

> <Gold.Chemscore.Rot>
1.7348

> <Gold.Chemscore.Internal.Correction>
   9.000000E+99

> <Gold.Chemscore.Hbonds>
donor molecule, donor type, donor heavy atom, donor atom, acceptor molecule, acceptor atom, score
      L1  H     3    30       P1  7948  0.93
      P1  H  7989  7998       L1    13  0.83

> <Gold.Chemscore.Hbond.Weighted>
-6.4155

> <Gold.Chemscore.Metal.Weighted>
-0.0000

> <Gold.Chemscore.Lipo.Weighted>
-11.3249

> <Gold.Chemscore.Internal_Hbond.Weighted>
0.0000

> <Gold.Chemscore.DEClash.Weighted>
0.4066

> <Gold.Chemscore.DEInternal.Weighted>
5.2380

> <Gold.Chemscore.Rot.Weighted>
4.4412

> <Gold.Chemscore.Internal.Correction.Weighted>
   9.000000E+99

> <Gold.Protein.RotatedTorsions>
[ 6907 6896 6895 6894 ] final  -31.53 input  -60.11 | X-H torsion
[ 7974 7965 7964 7962 ] final   28.89 input  175.53 | X-H torsion
[ 8008 7997 7996 7995 ] final   67.20 input   59.86 | X-H torsion
[ 10167 10162 10161 10158 ] final   68.02 input  -65.29 | X-H torsion
[ 10718 10713 10712 10709 ] final   95.97 input   66.30 | X-H torsion
[ 10763 10752 10751 10750 ] final -137.00 input  -60.55 | X-H torsion
[ 11005 11000 10999 10996 ] final  -52.30 input  -57.11 | X-H torsion

> <Gold.Protein.ActiveResidues>
 VAL166  LYS551  ARG553  GLY616  TRP617  ASP618  TYR619  PRO620  LYS621  CYS622 
 ASP623  PHE694  ASN695  SER759  ASP760  ASP761  ALA762  ILE779  LEU786  VAL792 
 PHE793  MET794  SER795  GLU796  ALA797  LYS798  CYS799  TRP800  GLU811  SER814 

> <Gold.Protein.RotatedAtoms>
  151.0909  134.9915  159.8401 H   0  0  0  0  0  0  0  0  0  0  0  0  # atno 6907 bound_to 6896
  152.5429  134.2067  159.8744 H   0  0  0  0  0  0  0  0  0  0  0  0  # atno 6908 bound_to 6896
  151.2103  133.4516  159.2631 H   0  0  0  0  0  0  0  0  0  0  0  0  # atno 6909 bound_to 6896
  146.1703  139.6995  142.8972 H   0  0  0  0  0  0  0  0  0  0  0  0  # atno 7974 bound_to 7965
  155.6892  140.3496  155.4886 H   0  0  0  0  0  0  0  0  0  0  0  0  # atno 8008 bound_to 7997
  155.9539  140.1124  157.0976 H   0  0  0  0  0  0  0  0  0  0  0  0  # atno 8009 bound_to 7997
  154.4128  140.1189  156.5075 H   0  0  0  0  0  0  0  0  0  0  0  0  # atno 8010 bound_to 7997
  140.0832  144.5053  150.7148 H   0  0  0  0  0  0  0  0  0  0  0  0  # atno 10167 bound_to 10162
  157.6933  131.0563  150.4419 H   0  0  0  0  0  0  0  0  0  0  0  0  # atno 10718 bound_to 10713
  154.8671  135.3655  154.5153 H   0  0  0  0  0  0  0  0  0  0  0  0  # atno 10763 bound_to 10752
  153.5786  135.7019  153.5478 H   0  0  0  0  0  0  0  0  0  0  0  0  # atno 10764 bound_to 10752
  153.3478  135.4080  155.1585 H   0  0  0  0  0  0  0  0  0  0  0  0  # atno 10765 bound_to 10752
  141.0917  133.6631  156.4003 H   0  0  0  0  0  0  0  0  0  0  0  0  # atno 11005 bound_to 11000
  145.4358  141.0419  143.2885 LP  0  0  0  0  0  0  0  0  0  0  0  0  # atno 17320 bound_to 7965
  144.8153  139.5888  143.7011 LP  0  0  0  0  0  0  0  0  0  0  0  0  # atno 17321 bound_to 7965
  140.7067  143.2473  151.4705 LP  0  0  0  0  0  0  0  0  0  0  0  0  # atno 17342 bound_to 10162
  139.5767  144.1802  152.1913 LP  0  0  0  0  0  0  0  0  0  0  0  0  # atno 17343 bound_to 10162
  156.4777  130.4067  149.6480 LP  0  0  0  0  0  0  0  0  0  0  0  0  # atno 17370 bound_to 10713
  156.3537  130.7445  151.2408 LP  0  0  0  0  0  0  0  0  0  0  0  0  # atno 17371 bound_to 10713
  140.5237  134.6280  157.5327 LP  0  0  0  0  0  0  0  0  0  0  0  0  # atno 17394 bound_to 11000
  139.9744  134.7240  155.9978 LP  0  0  0  0  0  0  0  0  0  0  0  0  # atno 17395 bound_to 11000

$$$$
