AV-unprocessed.smi:3057|AV-procd|sdf|11667|dock5
  -GOLD-   2272017 73D 1   1.00000     0.00000
 Structure written by MMmdl.
 41 43  0  0  0  0  0  0  0  0  2 V2000
  148.9134  138.9984  156.4390 C   0  0  0  0  0  0  0  0  0  0  0  0
  149.0865  138.0226  155.2565 C   0  0  1  0  0  0  0  0  0  0  0  0
  149.9683  138.6321  154.1547 C   0  0  0  0  0  0  0  0  0  0  0  0
  151.3884  138.1715  154.5179 C   0  0  0  0  0  0  0  0  0  0  0  0
  151.1277  136.9194  155.3426 C   0  0  0  0  0  0  0  0  0  0  0  0
  151.9988  136.0906  155.6030 O   0  0  0  0  0  0  0  0  0  0  0  0
  149.8262  136.8424  155.6639 N   0  0  0  0  0  0  0  0  0  0  0  0
  149.0371  135.6905  156.1269 C   0  0  2  0  0  0  0  0  0  0  0  0
  149.3586  134.3883  155.3704 C   0  0  0  0  0  0  0  0  0  0  0  0
  149.8513  133.4286  155.9653 O   0  0  0  0  0  0  0  0  0  0  0  0
  149.0815  134.3725  154.0575 N   0  0  0  0  0  0  0  0  0  0  0  0
  149.2818  133.2254  153.1806 C   0  0  0  0  0  0  0  0  0  0  0  0
  148.0595  132.2910  153.1898 C   0  0  0  0  0  0  0  0  0  0  0  0
  146.9663  132.7653  152.2530 C   0  0  0  0  0  0  0  0  0  0  0  0
  145.9217  131.9180  151.8237 C   0  0  0  0  0  0  0  0  0  0  0  0
  144.9350  132.4281  150.9541 C   0  0  0  0  0  0  0  0  0  0  0  0
  145.0132  133.7719  150.5331 C   0  0  0  0  0  0  0  0  0  0  0  0
  146.0775  134.5736  150.9938 C   0  0  0  0  0  0  0  0  0  0  0  0
  147.0029  134.0486  151.8268 N   0  3  0  0  0  0  0  0  0  0  0  0
  147.5512  136.0897  155.9906 C   0  0  0  0  0  0  0  0  0  0  0  0
  147.4977  137.3685  154.7054 S   0  0  0  0  0  0  0  0  0  0  0  0
  149.8756  139.3525  156.8107 H   0  0  0  0  0  0  0  0  0  0  0  0
  148.3931  138.5351  157.2772 H   0  0  0  0  0  0  0  0  0  0  0  0
  148.3366  139.8736  156.1391 H   0  0  0  0  0  0  0  0  0  0  0  0
  149.6937  138.2310  153.1777 H   0  0  0  0  0  0  0  0  0  0  0  0
  149.8835  139.7178  154.0981 H   0  0  0  0  0  0  0  0  0  0  0  0
  151.9946  137.9617  153.6362 H   0  0  0  0  0  0  0  0  0  0  0  0
  151.9033  138.9089  155.1345 H   0  0  0  0  0  0  0  0  0  0  0  0
  149.2638  135.5386  157.1835 H   0  0  0  0  0  0  0  0  0  0  0  0
  148.6859  135.2045  153.6434 H   0  0  0  0  0  0  0  0  0  0  0  0
  149.4600  133.5945  152.1702 H   0  0  0  0  0  0  0  0  0  0  0  0
  150.1823  132.6854  153.4779 H   0  0  0  0  0  0  0  0  0  0  0  0
  148.3503  131.2806  152.8981 H   0  0  0  0  0  0  0  0  0  0  0  0
  147.6576  132.2131  154.2009 H   0  0  0  0  0  0  0  0  0  0  0  0
  145.8751  130.8907  152.1550 H   0  0  0  0  0  0  0  0  0  0  0  0
  144.1277  131.7957  150.6148 H   0  0  0  0  0  0  0  0  0  0  0  0
  144.2676  134.1813  149.8670 H   0  0  0  0  0  0  0  0  0  0  0  0
  146.2161  135.6102  150.7236 H   0  0  0  0  0  0  0  0  0  0  0  0
  146.8960  135.2547  155.7387 H   0  0  0  0  0  0  0  0  0  0  0  0
  147.1876  136.5187  156.9245 H   0  0  0  0  0  0  0  0  0  0  0  0
  147.7646  134.6469  152.1485 H   0  0  0  0  0  0  0  0  0  0  0  0
  1  2  1  0  0  0  0
  1 22  1  0  0  0  0
  1 23  1  0  0  0  0
  1 24  1  0  0  0  0
  2  7  1  0  0  0  0
  2 21  1  0  0  0  0
  2  3  1  0  0  0  0
  3  4  1  0  0  0  0
  3 25  1  0  0  0  0
  3 26  1  0  0  0  0
  4  5  1  0  0  0  0
  4 27  1  0  0  0  0
  4 28  1  0  0  0  0
  5  6  2  0  0  0  0
  5  7  1  0  0  0  0
  7  8  1  0  0  0  0
  8  9  1  0  0  0  0
  8 20  1  0  0  0  0
  8 29  1  0  0  0  0
  9 10  2  0  0  0  0
  9 11  1  0  0  0  0
 11 12  1  0  0  0  0
 11 30  1  0  0  0  0
 12 13  1  0  0  0  0
 12 31  1  0  0  0  0
 12 32  1  0  0  0  0
 13 14  1  0  0  0  0
 13 33  1  0  0  0  0
 13 34  1  0  0  0  0
 14 19  1  0  0  0  0
 14 15  2  0  0  0  0
 15 16  1  0  0  0  0
 15 35  1  0  0  0  0
 16 17  2  0  0  0  0
 16 36  1  0  0  0  0
 17 18  1  0  0  0  0
 17 37  1  0  0  0  0
 18 19  2  0  0  0  0
 18 38  1  0  0  0  0
 19 41  1  0  0  0  0
 20 21  1  0  0  0  0
 20 39  1  0  0  0  0
 20 40  1  0  0  0  0
M  CHG  1  19   1
M  END
> <s_m_source_file>
AV-unprocessed.smi

> <i_m_source_file_index>
3057

> <i_lp_mmshare_version>
43012

> <i_f3d_flags>
0

> <s_epik_input>
W0NIMl0xW0NIMl1DKD1PKU4oW0NAQF0xMltDSDNdKVtDQEhdKFtDSDJdUzIpQyg9TylbTkhdW0NIMl1bQ0gyXWMzW2NIXVtjSF1bY0hdW2NIXW4z

> <s_epik_cmdline>
J2VwaWtfcHl0aG9uJywgJy1waCcsICc3LjAnLCAnLXRuJywgJzgnLCAnLW1hJywgJzIwMCcsICctbWV0YWxfYmluZGluZycsICctaW1hZScsICc8aW5maWxlLm1hZT4nLCAnLW9tYWUnLCAnPG91dGZpbGUubWFlPic=

> <r_epik_Ionization_Penalty>
1.8888

> <r_epik_Ionization_Penalty_Charging>
1.8888

> <r_epik_Ionization_Penalty_Neutral>
1.66252e-07

> <r_epik_State_Penalty>
2.00916

> <r_epik_Charging_Adjusted_Penalty>
3.89796

> <i_epik_Tot_Q>
1

> <i_epik_Tot_abs_Q>
1

> <r_epik_Metal_State_Penalty>
2.03343

> <b_epik_Metal_Only>
0

> <s_lp_Force_Field>
OPLS_2005

> <r_lp_Energy>
30.9082

> <b_lp_Chiralities_Consistent>
1

> <s_lp_Variant>
AV-unprocessed.smi:3057-7

> <Gold.Version>
5.8.1

> <Gold.Id.Protein>
6NUR|6NUR_protein|mol2

> <Gold.PLP.Fitness>
41.1442

> <Gold.PLP.PLP>
-31.3795

> <Gold.PLP.part.hbond>
-2.9701

> <Gold.PLP.part.metal>
0.0000

> <Gold.PLP.part.buried>
-4.7307

> <Gold.PLP.part.nonpolar>
-23.0508

> <Gold.PLP.part.repulsive>
0.0983

> <Gold.PLP.ligand.clash>
0.0000

> <Gold.PLP.ligand.torsion>
0.5532

> <Gold.PLP.Chemscore.Hbond>
3.6185

> <Gold.PLP.Chemscore.CHOScore>
0.0000

> <Gold.PLP.Chemscore.Metal>
0.0000

> <Gold.Chemscore.Hbonds>
donor molecule, donor type, donor heavy atom, donor atom, acceptor molecule, acceptor atom, score
      L1  H    11    30       P1  7948  0.64
      L1  H    19    41       P1  7948  1.95
      P1  H 10752 10763       L1     6  0.67

> <Gold.PLP.Chemscore.Internal.Correction>
0.0154

> <Gold.Rescore>
     Score         DG    S(hbond)    S(metal)    S(lipo)     H(rot)  DE(clash)    DE(int)     intcor
     16.06     -16.71       2.08        0.00      72.22       1.62       0.02       0.64       ----

> <Gold.Chemscore.Fitness>
16.0594

> <Gold.Chemscore.DG>
-16.7135

> <Gold.Chemscore.ZeroCoef>
-5.4800

> <Gold.Chemscore.Hbond>
2.0778

> <Gold.Chemscore.Metal>
0.0000

> <Gold.Chemscore.Lipo>
72.2175

> <Gold.Chemscore.Internal_Hbond>
0.0000

> <Gold.Chemscore.DEClash>
0.0184

> <Gold.Chemscore.DEInternal>
0.6357

> <Gold.Chemscore.Rot>
1.6234

> <Gold.Chemscore.Internal.Correction>
   9.000000E+99

> <Gold.Chemscore.Hbonds>
donor molecule, donor type, donor heavy atom, donor atom, acceptor molecule, acceptor atom, score
      L1  H    11    30       P1  7948  0.53
      L1  H    19    41       P1  7948  0.51
      P1  H 10752 10763       L1     6  0.67

> <Gold.Chemscore.Hbond.Weighted>
-6.9399

> <Gold.Chemscore.Metal.Weighted>
-0.0000

> <Gold.Chemscore.Lipo.Weighted>
-8.4494

> <Gold.Chemscore.Internal_Hbond.Weighted>
0.0000

> <Gold.Chemscore.DEClash.Weighted>
0.0184

> <Gold.Chemscore.DEInternal.Weighted>
0.6357

> <Gold.Chemscore.Rot.Weighted>
4.1558

> <Gold.Chemscore.Internal.Correction.Weighted>
   9.000000E+99

> <Gold.Protein.RotatedTorsions>
[ 6907 6896 6895 6894 ] final   85.10 input  -60.11 | X-H torsion
[ 7974 7965 7964 7962 ] final  -74.17 input  175.53 | X-H torsion
[ 8008 7997 7996 7995 ] final  -24.23 input   59.86 | X-H torsion
[ 10167 10162 10161 10158 ] final -122.42 input  -65.29 | X-H torsion
[ 10718 10713 10712 10709 ] final -103.76 input   66.30 | X-H torsion
[ 10763 10752 10751 10750 ] final   86.68 input  -60.55 | X-H torsion
[ 11005 11000 10999 10996 ] final  -70.04 input  -57.11 | X-H torsion

> <Gold.Protein.ActiveResidues>
 VAL166  LYS551  ARG553  GLY616  TRP617  ASP618  TYR619  PRO620  LYS621  CYS622 
 ASP623  PHE694  ASN695  SER759  ASP760  ASP761  ALA762  ILE779  LEU786  VAL792 
 PHE793  MET794  SER795  GLU796  ALA797  LYS798  CYS799  TRP800  GLU811  SER814 

> <Gold.Protein.RotatedAtoms>
  152.5367  134.2639  159.8945 H   0  0  0  0  0  0  0  0  0  0  0  0  # atno 6907 bound_to 6896
  151.2597  133.4301  159.2623 H   0  0  0  0  0  0  0  0  0  0  0  0  # atno 6908 bound_to 6896
  151.0464  134.9657  159.8245 H   0  0  0  0  0  0  0  0  0  0  0  0  # atno 6909 bound_to 6896
  145.6426  140.9306  143.1027 H   0  0  0  0  0  0  0  0  0  0  0  0  # atno 7974 bound_to 7965
  154.4541  140.1959  156.0432 H   0  0  0  0  0  0  0  0  0  0  0  0  # atno 8008 bound_to 7997
  156.0709  140.3284  155.7547 H   0  0  0  0  0  0  0  0  0  0  0  0  # atno 8009 bound_to 7997
  155.5265  140.0574  157.2888 H   0  0  0  0  0  0  0  0  0  0  0  0  # atno 8010 bound_to 7997
  140.0144  143.5408  152.2249 H   0  0  0  0  0  0  0  0  0  0  0  0  # atno 10167 bound_to 10162
  156.0277  130.5482  150.7298 H   0  0  0  0  0  0  0  0  0  0  0  0  # atno 10718 bound_to 10713
  153.1594  135.4571  154.9751 H   0  0  0  0  0  0  0  0  0  0  0  0  # atno 10763 bound_to 10752
  154.7886  135.3213  154.7831 H   0  0  0  0  0  0  0  0  0  0  0  0  # atno 10764 bound_to 10752
  153.8323  135.6937  153.4867 H   0  0  0  0  0  0  0  0  0  0  0  0  # atno 10765 bound_to 10752
  141.1566  133.6779  156.6691 H   0  0  0  0  0  0  0  0  0  0  0  0  # atno 11005 bound_to 11000
  144.7152  139.8225  143.7401 LP  0  0  0  0  0  0  0  0  0  0  0  0  # atno 17320 bound_to 7965
  146.1268  139.4296  143.0194 LP  0  0  0  0  0  0  0  0  0  0  0  0  # atno 17321 bound_to 7965
  139.6183  144.7624  151.2798 LP  0  0  0  0  0  0  0  0  0  0  0  0  # atno 17342 bound_to 10162
  140.7368  143.6696  150.8093 LP  0  0  0  0  0  0  0  0  0  0  0  0  # atno 17343 bound_to 10162
  157.4894  131.0909  151.0445 LP  0  0  0  0  0  0  0  0  0  0  0  0  # atno 17370 bound_to 10713
  157.0856  130.5921  149.5429 LP  0  0  0  0  0  0  0  0  0  0  0  0  # atno 17371 bound_to 10713
  140.3188  134.8025  157.4236 LP  0  0  0  0  0  0  0  0  0  0  0  0  # atno 17394 bound_to 11000
  140.1114  134.5340  155.8262 LP  0  0  0  0  0  0  0  0  0  0  0  0  # atno 17395 bound_to 11000

$$$$
