AV-unprocessed.smi:69|AV-procd|sdf|657|dock5
  -GOLD-   2262016553D 1   1.00000     0.00000
 Structure written by MMmdl.
 32 34  0  0  0  0  0  0  0  0  1 V2000
  149.2570  127.4302  153.2381 N   0  0  0  0  0  0  0  0  0  0  0  0
  148.5125  128.5334  153.3956 C   0  0  0  0  0  0  0  0  0  0  0  0
  148.6872  129.2726  154.5156 N   0  0  0  0  0  0  0  0  0  0  0  0
  147.9538  130.3757  154.6964 C   0  0  0  0  0  0  0  0  0  0  0  0
  147.0183  130.8966  153.8985 N   0  0  0  0  0  0  0  0  0  0  0  0
  146.8431  130.1509  152.7685 C   0  0  0  0  0  0  0  0  0  0  0  0
  147.5498  128.9590  152.4458 C   0  0  0  0  0  0  0  0  0  0  0  0
  147.1133  128.4651  151.2243 N   0  0  0  0  0  0  0  0  0  0  0  0
  146.1984  129.3186  150.8505 C   0  0  0  0  0  0  0  0  0  0  0  0
  145.9664  130.3615  151.7210 N   0  0  0  0  0  0  0  0  0  0  0  0
  144.9741  131.4747  151.5557 C   0  0  2  0  0  0  0  0  0  0  0  0
  144.2848  131.3130  150.3503 O   0  0  0  0  0  0  0  0  0  0  0  0
  144.4788  132.4454  149.5023 C   0  0  1  0  0  0  0  0  0  0  0  0
  143.2183  132.6827  148.6563 C   0  0  0  0  0  0  0  0  0  0  0  0
  143.4148  133.7759  147.7852 O   0  0  0  0  0  0  0  0  0  0  0  0
  144.7679  133.5723  150.4960 C   0  0  2  0  0  0  0  0  0  0  0  0
  145.4105  134.6866  149.9057 O   0  0  0  0  0  0  0  0  0  0  0  0
  145.6214  132.8734  151.5445 C   0  0  2  0  0  0  0  0  0  0  0  0
  147.0014  132.8633  151.2125 O   0  0  0  0  0  0  0  0  0  0  0  0
  144.2696  131.3428  152.3781 H   0  0  0  0  0  0  0  0  0  0  0  0
  145.3534  132.2869  148.8694 H   0  0  0  0  0  0  0  0  0  0  0  0
  143.8361  133.9024  150.9580 H   0  0  0  0  0  0  0  0  0  0  0  0
  145.5117  133.3339  152.5269 H   0  0  0  0  0  0  0  0  0  0  0  0
  149.1426  126.8613  152.4116 H   0  0  0  0  0  0  0  0  0  0  0  0
  149.9297  127.1711  153.9449 H   0  0  0  0  0  0  0  0  0  0  0  0
  148.1422  130.9190  155.6108 H   0  0  0  0  0  0  0  0  0  0  0  0
  145.6583  129.2066  149.9217 H   0  0  0  0  0  0  0  0  0  0  0  0
  142.9444  131.7908  148.0921 H   0  0  0  0  0  0  0  0  0  0  0  0
  142.3749  132.9289  149.3019 H   0  0  0  0  0  0  0  0  0  0  0  0
  144.2971  134.0951  147.8974 H   0  0  0  0  0  0  0  0  0  0  0  0
  145.5036  134.5237  148.9797 H   0  0  0  0  0  0  0  0  0  0  0  0
  147.1994  132.0479  150.7776 H   0  0  0  0  0  0  0  0  0  0  0  0
  1  2  1  0  0  0  0
  1 24  1  0  0  0  0
  1 25  1  0  0  0  0
  2  7  1  0  0  0  0
  2  3  2  0  0  0  0
  3  4  1  0  0  0  0
  4  5  2  0  0  0  0
  4 26  1  0  0  0  0
  5  6  1  0  0  0  0
  6 10  1  0  0  0  0
  6  7  2  0  0  0  0
  7  8  1  0  0  0  0
  8  9  2  0  0  0  0
  9 10  1  0  0  0  0
  9 27  1  0  0  0  0
 10 11  1  0  0  0  0
 11 20  1  0  0  0  0
 11 18  1  0  0  0  0
 11 12  1  0  0  0  0
 12 13  1  0  0  0  0
 13 21  1  0  0  0  0
 13 14  1  0  0  0  0
 13 16  1  0  0  0  0
 14 15  1  0  0  0  0
 14 28  1  0  0  0  0
 14 29  1  0  0  0  0
 15 30  1  0  0  0  0
 16 22  1  0  0  0  0
 16 17  1  0  0  0  0
 16 18  1  0  0  0  0
 17 31  1  0  0  0  0
 18 23  1  0  0  0  0
 18 19  1  0  0  0  0
 19 32  1  0  0  0  0
M  END
> <s_m_source_file>
AV-unprocessed.smi

> <i_m_source_file_index>
69

> <i_lp_mmshare_version>
43012

> <i_f3d_flags>
0

> <s_epik_input>
bjFbY0hdbmMoW05IMl0pYyhjMTIpbltjSF1uMltDQEBIXTNPW0NASF0oW0NIMl1bT0hdKVtDQEBIXShbT0hdKVtDQEhdM1tPSF0=

> <s_epik_cmdline>
J2VwaWtfcHl0aG9uJywgJy1waCcsICc3LjAnLCAnLXRuJywgJzgnLCAnLW1hJywgJzIwMCcsICctbWV0YWxfYmluZGluZycsICctaW1hZScsICc8aW5maWxlLm1hZT4nLCAnLW9tYWUnLCAnPG91dGZpbGUubWFlPic=

> <r_lp_tautomer_probability>
1

> <r_epik_Ionization_Penalty>
0.000428445

> <r_epik_Ionization_Penalty_Charging>
0

> <r_epik_Ionization_Penalty_Neutral>
0.000428445

> <r_epik_State_Penalty>
-0

> <r_epik_Charging_Adjusted_Penalty>
0

> <i_epik_Tot_Q>
0

> <i_epik_Tot_abs_Q>
0

> <r_epik_Metal_State_Penalty>
-0

> <b_epik_Metal_Only>
0

> <s_epik_Chemistry_Notes>
This compound contains an acetal/aminal-like group ( X-CH(R)-Y where X, Y are N, S, or O) that may be acid/base labile, releasing an aldehyde.

> <s_lp_Force_Field>
OPLS_2005

> <r_lp_Energy>
44.883

> <b_lp_Chiralities_Consistent>
1

> <s_lp_Variant>
AV-unprocessed.smi:69-15

> <Gold.Version>
5.8.1

> <Gold.Id.Protein>
6NUR|6NUR_protein|mol2

> <Gold.PLP.Fitness>
42.0325

> <Gold.PLP.PLP>
-31.0502

> <Gold.PLP.part.hbond>
-7.3939

> <Gold.PLP.part.metal>
0.0000

> <Gold.PLP.part.buried>
-2.3374

> <Gold.PLP.part.nonpolar>
-21.3697

> <Gold.PLP.part.repulsive>
0.6141

> <Gold.PLP.ligand.clash>
0.0000

> <Gold.PLP.ligand.torsion>
0.0138

> <Gold.PLP.Chemscore.Hbond>
3.6673

> <Gold.PLP.Chemscore.CHOScore>
0.0000

> <Gold.PLP.Chemscore.Metal>
0.0000

> <Gold.Chemscore.Hbonds>
donor molecule, donor type, donor heavy atom, donor atom, acceptor molecule, acceptor atom, score
      L1  H    15    30       P1  7921  1.00
      L1  H    17    31       P1  7921  0.96
      L1  H    19    32       P1 10747  0.44
      P1  H 10192 10197       L1    15  0.91
      P1  H 10785 10796       L1    12  0.17

> <Gold.PLP.Chemscore.Internal.Correction>
0.0080

> <Gold.Rescore>
     Score         DG    S(hbond)    S(metal)    S(lipo)     H(rot)  DE(clash)    DE(int)     intcor
      9.03     -11.65       3.37        0.00      44.68       4.03       2.60       0.03       ----

> <Gold.Chemscore.Fitness>
9.0281

> <Gold.Chemscore.DG>
-11.6538

> <Gold.Chemscore.ZeroCoef>
-5.4800

> <Gold.Chemscore.Hbond>
3.3705

> <Gold.Chemscore.Metal>
0.0000

> <Gold.Chemscore.Lipo>
44.6789

> <Gold.Chemscore.Internal_Hbond>
0.0000

> <Gold.Chemscore.DEClash>
2.5993

> <Gold.Chemscore.DEInternal>
0.0264

> <Gold.Chemscore.Rot>
4.0277

> <Gold.Chemscore.Internal.Correction>
   9.000000E+99

> <Gold.Chemscore.Hbonds>
donor molecule, donor type, donor heavy atom, donor atom, acceptor molecule, acceptor atom, score
      L1  H    15    30       P1  7921  0.98
      L1  H    17    31       P1  7921  0.86
      L1  H    19    32       P1 10747  0.44
      P1  H 10192 10197       L1    15  0.82
      P1  H 10785 10796       L1    12  0.02

> <Gold.Chemscore.Hbond.Weighted>
-11.2574

> <Gold.Chemscore.Metal.Weighted>
-0.0000

> <Gold.Chemscore.Lipo.Weighted>
-5.2274

> <Gold.Chemscore.Internal_Hbond.Weighted>
0.0000

> <Gold.Chemscore.DEClash.Weighted>
2.5993

> <Gold.Chemscore.DEInternal.Weighted>
0.0264

> <Gold.Chemscore.Rot.Weighted>
10.3110

> <Gold.Chemscore.Internal.Correction.Weighted>
   9.000000E+99

> <Gold.Protein.RotatedTorsions>
[ 6907 6896 6895 6894 ] final -110.83 input  -60.11 | X-H torsion
[ 7974 7965 7964 7962 ] final   46.95 input  175.53 | X-H torsion
[ 8008 7997 7996 7995 ] final -145.18 input   59.86 | X-H torsion
[ 10167 10162 10161 10158 ] final   -4.92 input  -65.29 | X-H torsion
[ 10718 10713 10712 10709 ] final  176.98 input   66.30 | X-H torsion
[ 10763 10752 10751 10750 ] final  178.86 input  -60.55 | X-H torsion
[ 11005 11000 10999 10996 ] final  -10.47 input  -57.11 | X-H torsion

> <Gold.Protein.ActiveResidues>
 VAL166  LYS551  ARG553  GLY616  TRP617  ASP618  TYR619  PRO620  LYS621  CYS622 
 ASP623  PHE694  ASN695  SER759  ASP760  ASP761  ALA762  ILE779  LEU786  VAL792 
 PHE793  MET794  SER795  GLU796  ALA797  LYS798  CYS799  TRP800  GLU811  SER814 

> <Gold.Protein.RotatedAtoms>
  150.7650  133.9325  159.3430 H   0  0  0  0  0  0  0  0  0  0  0  0  # atno 6907 bound_to 6896
  151.7225  135.0889  160.0296 H   0  0  0  0  0  0  0  0  0  0  0  0  # atno 6908 bound_to 6896
  152.3641  133.6296  159.6073 H   0  0  0  0  0  0  0  0  0  0  0  0  # atno 6909 bound_to 6896
  146.0342  139.4801  142.9818 H   0  0  0  0  0  0  0  0  0  0  0  0  # atno 7974 bound_to 7965
  155.5390  140.0606  157.2874 H   0  0  0  0  0  0  0  0  0  0  0  0  # atno 8008 bound_to 7997
  154.4458  140.1922  156.0616 H   0  0  0  0  0  0  0  0  0  0  0  0  # atno 8009 bound_to 7997
  156.0598  140.3274  155.7452 H   0  0  0  0  0  0  0  0  0  0  0  0  # atno 8010 bound_to 7997
  140.6945  143.6368  150.8472 H   0  0  0  0  0  0  0  0  0  0  0  0  # atno 10167 bound_to 10162
  156.9121  130.9913  151.3019 H   0  0  0  0  0  0  0  0  0  0  0  0  # atno 10718 bound_to 10713
  154.5131  135.2789  155.1326 H   0  0  0  0  0  0  0  0  0  0  0  0  # atno 10763 bound_to 10752
  154.2913  135.6266  153.5390 H   0  0  0  0  0  0  0  0  0  0  0  0  # atno 10764 bound_to 10752
  152.9922  135.5674  154.5602 H   0  0  0  0  0  0  0  0  0  0  0  0  # atno 10765 bound_to 10752
  140.7451  133.8638  155.8999 H   0  0  0  0  0  0  0  0  0  0  0  0  # atno 11005 bound_to 11000
  145.6990  141.0141  143.1514 LP  0  0  0  0  0  0  0  0  0  0  0  0  # atno 17320 bound_to 7965
  144.7044  139.8622  143.7434 LP  0  0  0  0  0  0  0  0  0  0  0  0  # atno 17321 bound_to 7965
  140.0085  143.5668  152.2848 LP  0  0  0  0  0  0  0  0  0  0  0  0  # atno 17342 bound_to 10162
  139.6383  144.7652  151.2391 LP  0  0  0  0  0  0  0  0  0  0  0  0  # atno 17343 bound_to 10162
  157.5961  130.8478  149.8731 LP  0  0  0  0  0  0  0  0  0  0  0  0  # atno 17370 bound_to 10713
  156.0531  130.3713  150.1155 LP  0  0  0  0  0  0  0  0  0  0  0  0  # atno 17371 bound_to 10713
  140.9801  134.1416  157.4501 LP  0  0  0  0  0  0  0  0  0  0  0  0  # atno 17394 bound_to 11000
  139.8798  135.0008  156.6029 LP  0  0  0  0  0  0  0  0  0  0  0  0  # atno 17395 bound_to 11000

$$$$
