AV-unprocessed.smi:2226|AV-procd|sdf|9015|dock1
  -GOLD-   2272012223D 1   1.00000     0.00000
 Structure written by MMmdl.
 40 42  0  0  0  0  0  0  0  0  2 V2000
  146.6111  139.1228  153.2223 C   0  0  0  0  0  0  0  0  0  0  0  0
  146.3670  140.4671  153.7974 N   0  3  1  0  0  0  0  0  0  0  0  0
  146.1447  140.4870  155.2628 C   0  0  2  0  0  0  0  0  0  0  0  0
  145.4959  141.8343  155.6580 C   0  0  0  0  0  0  0  0  0  0  0  0
  146.2590  143.0727  155.1485 C   0  0  0  0  0  0  0  0  0  0  0  0
  146.7774  142.8970  153.7086 C   0  0  0  0  0  0  0  0  0  0  0  0
  147.3648  141.4962  153.4204 C   0  0  1  0  0  0  0  0  0  0  0  0
  148.7447  141.2134  154.0666 C   0  0  0  0  0  0  0  0  0  0  0  0
  148.7269  140.8429  155.5742 C   0  0  1  0  0  0  0  0  0  0  0  0
  149.0464  141.9733  156.4431 N   0  0  0  0  0  0  0  0  0  0  0  0
  149.4936  141.9051  157.7063 C   0  0  0  0  0  0  0  0  0  0  0  0
  149.6785  140.8219  158.2703 O   0  0  0  0  0  0  0  0  0  0  0  0
  149.7122  143.1833  158.1987 N   0  0  0  0  0  0  0  0  0  0  0  0
  150.6909  143.4040  159.0223 C   0  0  0  0  0  0  0  0  0  0  0  0
  151.6700  142.5832  159.5761 N   0  0  0  0  0  0  0  0  0  0  0  0
  152.4622  143.3501  160.3839 C   0  0  0  0  0  0  0  0  0  0  0  0
  152.0061  144.5982  160.3431 C   0  0  0  0  0  0  0  0  0  0  0  0
  150.9225  144.6617  159.5193 O   0  0  0  0  0  0  0  0  0  0  0  0
  147.4364  140.1233  156.0372 C   0  0  0  0  0  0  0  0  0  0  0  0
  147.5414  138.6821  153.5804 H   0  0  0  0  0  0  0  0  0  0  0  0
  146.6610  139.1791  152.1347 H   0  0  0  0  0  0  0  0  0  0  0  0
  145.7960  138.4460  153.4797 H   0  0  0  0  0  0  0  0  0  0  0  0
  145.4067  139.7175  155.4943 H   0  0  0  0  0  0  0  0  0  0  0  0
  144.4900  141.8618  155.2369 H   0  0  0  0  0  0  0  0  0  0  0  0
  145.3666  141.8928  156.7392 H   0  0  0  0  0  0  0  0  0  0  0  0
  145.6063  143.9451  155.1953 H   0  0  0  0  0  0  0  0  0  0  0  0
  147.0785  143.3147  155.8165 H   0  0  0  0  0  0  0  0  0  0  0  0
  145.9420  143.0612  153.0265 H   0  0  0  0  0  0  0  0  0  0  0  0
  147.5076  143.6727  153.4764 H   0  0  0  0  0  0  0  0  0  0  0  0
  147.5013  141.4431  152.3392 H   0  0  0  0  0  0  0  0  0  0  0  0
  149.1874  140.3716  153.5332 H   0  0  0  0  0  0  0  0  0  0  0  0
  149.4245  142.0439  153.8728 H   0  0  0  0  0  0  0  0  0  0  0  0
  149.5384  140.1298  155.7342 H   0  0  0  0  0  0  0  0  0  0  0  0
  148.9202  142.8943  156.0485 H   0  0  0  0  0  0  0  0  0  0  0  0
  151.8075  141.5922  159.4391 H   0  0  0  0  0  0  0  0  0  0  0  0
  153.2911  142.9074  160.9165 H   0  0  0  0  0  0  0  0  0  0  0  0
  152.3261  145.5122  160.8209 H   0  0  0  0  0  0  0  0  0  0  0  0
  147.2835  140.2559  157.1094 H   0  0  0  0  0  0  0  0  0  0  0  0
  147.5991  139.0519  155.9162 H   0  0  0  0  0  0  0  0  0  0  0  0
  145.4956  140.7693  153.3858 H   0  0  0  0  0  0  0  0  0  0  0  0
  1  2  1  0  0  0  0
  1 20  1  0  0  0  0
  1 21  1  0  0  0  0
  1 22  1  0  0  0  0
  2  7  1  0  0  0  0
  2  3  1  0  0  0  0
  2 40  1  0  0  0  0
  3 19  1  0  0  0  0
  3  4  1  0  0  0  0
  3 23  1  0  0  0  0
  4  5  1  0  0  0  0
  4 24  1  0  0  0  0
  4 25  1  0  0  0  0
  5  6  1  0  0  0  0
  5 26  1  0  0  0  0
  5 27  1  0  0  0  0
  6  7  1  0  0  0  0
  6 28  1  0  0  0  0
  6 29  1  0  0  0  0
  7  8  1  0  0  0  0
  7 30  1  0  0  0  0
  8  9  1  0  0  0  0
  8 31  1  0  0  0  0
  8 32  1  0  0  0  0
  9 10  1  0  0  0  0
  9 19  1  0  0  0  0
  9 33  1  0  0  0  0
 10 34  1  0  0  0  0
 10 11  1  0  0  0  0
 11 13  1  0  0  0  0
 11 12  2  0  0  0  0
 13 14  2  0  0  0  0
 14 18  1  0  0  0  0
 14 15  1  0  0  0  0
 15 35  1  0  0  0  0
 15 16  1  0  0  0  0
 16 36  1  0  0  0  0
 16 17  2  0  0  0  0
 17 37  1  0  0  0  0
 17 18  1  0  0  0  0
 19 38  1  0  0  0  0
 19 39  1  0  0  0  0
M  CHG  1   2   1
M  END
> <s_m_source_file>
AV-unprocessed.smi

> <i_m_source_file_index>
2226

> <i_lp_mmshare_version>
43012

> <i_f3d_flags>
0

> <s_epik_input>
W0NIMl0xW0NIMl1bQ0gyXVtDQEhdKE4oW0NIM10pW0NIXTEyKVtDSDJdW0NASF0oW0NIMl0yKVtOSF1DKD1PKVtOSF1jM25bY0hdW2NIXW8z

> <s_epik_cmdline>
J2VwaWtfcHl0aG9uJywgJy1waCcsICc3LjAnLCAnLXRuJywgJzgnLCAnLW1hJywgJzIwMCcsICctbWV0YWxfYmluZGluZycsICctaW1hZScsICc8aW5maWxlLm1hZT4nLCAnLW9tYWUnLCAnPG91dGZpbGUubWFlPic=

> <r_lp_tautomer_probability>
0.107061

> <r_epik_Ionization_Penalty>
1.08307

> <r_epik_Ionization_Penalty_Charging>
1.08272

> <r_epik_Ionization_Penalty_Neutral>
0.000345913

> <r_epik_State_Penalty>
2.5744

> <r_epik_Charging_Adjusted_Penalty>
3.65713

> <i_epik_Tot_Q>
1

> <i_epik_Tot_abs_Q>
1

> <r_epik_Metal_State_Penalty>
3.72133

> <b_epik_Metal_Only>
0

> <s_lp_Force_Field>
OPLS_2005

> <r_lp_Energy>
59.8055

> <b_lp_Chiralities_Consistent>
1

> <s_lp_Variant>
AV-unprocessed.smi:2226-15

> <Gold.Version>
5.8.1

> <Gold.Id.Protein>
6NUR|6NUR_protein|mol2

> <Gold.PLP.Fitness>
38.0580

> <Gold.PLP.PLP>
-29.8854

> <Gold.PLP.part.hbond>
-2.0000

> <Gold.PLP.part.metal>
0.0000

> <Gold.PLP.part.buried>
-6.7055

> <Gold.PLP.part.nonpolar>
-22.3567

> <Gold.PLP.part.repulsive>
0.9185

> <Gold.PLP.ligand.clash>
0.0000

> <Gold.PLP.ligand.torsion>
0.4398

> <Gold.PLP.Chemscore.Hbond>
3.0000

> <Gold.PLP.Chemscore.CHOScore>
0.0000

> <Gold.PLP.Chemscore.Metal>
0.0000

> <Gold.Chemscore.Hbonds>
donor molecule, donor type, donor heavy atom, donor atom, acceptor molecule, acceptor atom, score
      L1  H     2    40       P1 10175  1.95
      L1  H    10    34       P1  8028  1.00

> <Gold.PLP.Chemscore.Internal.Correction>
0.0522

> <Gold.Rescore>
     Score         DG    S(hbond)    S(metal)    S(lipo)     H(rot)  DE(clash)    DE(int)     intcor
     16.85     -17.22       1.93        0.00      67.20       1.00       0.03       0.34       ----

> <Gold.Chemscore.Fitness>
16.8464

> <Gold.Chemscore.DG>
-17.2179

> <Gold.Chemscore.ZeroCoef>
-5.4800

> <Gold.Chemscore.Hbond>
1.9269

> <Gold.Chemscore.Metal>
0.0000

> <Gold.Chemscore.Lipo>
67.1957

> <Gold.Chemscore.Internal_Hbond>
0.0000

> <Gold.Chemscore.DEClash>
0.0332

> <Gold.Chemscore.DEInternal>
0.3384

> <Gold.Chemscore.Rot>
1.0000

> <Gold.Chemscore.Internal.Correction>
   9.000000E+99

> <Gold.Chemscore.Hbonds>
donor molecule, donor type, donor heavy atom, donor atom, acceptor molecule, acceptor atom, score
      L1  H     2    40       P1 10175  0.73
      L1  H    10    34       P1  8028  1.00

> <Gold.Chemscore.Hbond.Weighted>
-6.4360

> <Gold.Chemscore.Metal.Weighted>
-0.0000

> <Gold.Chemscore.Lipo.Weighted>
-7.8619

> <Gold.Chemscore.Internal_Hbond.Weighted>
0.0000

> <Gold.Chemscore.DEClash.Weighted>
0.0332

> <Gold.Chemscore.DEInternal.Weighted>
0.3384

> <Gold.Chemscore.Rot.Weighted>
2.5600

> <Gold.Chemscore.Internal.Correction.Weighted>
   9.000000E+99

> <Gold.Protein.RotatedTorsions>
[ 6907 6896 6895 6894 ] final  169.97 input  -60.11 | X-H torsion
[ 7974 7965 7964 7962 ] final  122.20 input  175.53 | X-H torsion
[ 8008 7997 7996 7995 ] final -108.76 input   59.86 | X-H torsion
[ 10167 10162 10161 10158 ] final  165.83 input  -65.29 | X-H torsion
[ 10718 10713 10712 10709 ] final  177.54 input   66.30 | X-H torsion
[ 10763 10752 10751 10750 ] final   81.03 input  -60.55 | X-H torsion
[ 11005 11000 10999 10996 ] final  153.78 input  -57.11 | X-H torsion

> <Gold.Protein.ActiveResidues>
 VAL166  LYS551  ARG553  GLY616  TRP617  ASP618  TYR619  PRO620  LYS621  CYS622 
 ASP623  PHE694  ASN695  SER759  ASP760  ASP761  ALA762  ILE779  LEU786  VAL792 
 PHE793  MET794  SER795  GLU796  ALA797  LYS798  CYS799  TRP800  GLU811  SER814 

> <Gold.Protein.RotatedAtoms>
  151.8235  133.3398  159.3591 H   0  0  0  0  0  0  0  0  0  0  0  0  # atno 6907 bound_to 6896
  150.7287  134.5551  159.5823 H   0  0  0  0  0  0  0  0  0  0  0  0  # atno 6908 bound_to 6896
  152.2988  134.7636  160.0413 H   0  0  0  0  0  0  0  0  0  0  0  0  # atno 6909 bound_to 6896
  145.1103  139.3457  143.4766 H   0  0  0  0  0  0  0  0  0  0  0  0  # atno 7974 bound_to 7965
  154.9492  140.0401  157.2135 H   0  0  0  0  0  0  0  0  0  0  0  0  # atno 8008 bound_to 7997
  154.7995  140.2849  155.5910 H   0  0  0  0  0  0  0  0  0  0  0  0  # atno 8009 bound_to 7997
  156.2959  140.2558  156.2860 H   0  0  0  0  0  0  0  0  0  0  0  0  # atno 8010 bound_to 7997
  139.4913  144.4091  151.9321 H   0  0  0  0  0  0  0  0  0  0  0  0  # atno 10167 bound_to 10162
  156.9039  130.9888  151.3031 H   0  0  0  0  0  0  0  0  0  0  0  0  # atno 10718 bound_to 10713
  153.1082  135.4780  154.8989 H   0  0  0  0  0  0  0  0  0  0  0  0  # atno 10763 bound_to 10752
  154.7453  135.3092  154.8658 H   0  0  0  0  0  0  0  0  0  0  0  0  # atno 10764 bound_to 10752
  153.9255  135.6850  153.4800 H   0  0  0  0  0  0  0  0  0  0  0  0  # atno 10765 bound_to 10752
  140.1429  134.8727  157.2355 H   0  0  0  0  0  0  0  0  0  0  0  0  # atno 11005 bound_to 11000
  146.3526  140.1019  142.8607 LP  0  0  0  0  0  0  0  0  0  0  0  0  # atno 17320 bound_to 7965
  145.0855  140.9249  143.4800 LP  0  0  0  0  0  0  0  0  0  0  0  0  # atno 17321 bound_to 7965
  140.3532  144.3064  150.5946 LP  0  0  0  0  0  0  0  0  0  0  0  0  # atno 17342 bound_to 10162
  140.5467  143.2213  151.7994 LP  0  0  0  0  0  0  0  0  0  0  0  0  # atno 17343 bound_to 10162
  157.6009  130.8512  149.8801 LP  0  0  0  0  0  0  0  0  0  0  0  0  # atno 17370 bound_to 10713
  156.0568  130.3707  150.1072 LP  0  0  0  0  0  0  0  0  0  0  0  0  # atno 17371 bound_to 10713
  140.2699  134.3472  155.7377 LP  0  0  0  0  0  0  0  0  0  0  0  0  # atno 17394 bound_to 11000
  141.2188  133.7417  156.9208 LP  0  0  0  0  0  0  0  0  0  0  0  0  # atno 17395 bound_to 11000

$$$$
