AV-unprocessed.smi:1641|AV-procd|sdf|6560|dock4
  -GOLD-   22720 7243D 1   1.00000     0.00000
 Structure written by MMmdl.
 42 43  0  0  0  0  0  0  0  0  2 V2000
  150.3460  142.2611  157.9442 C   0  0  0  0  0  0  0  0  0  0  0  0
  150.1784  141.4877  156.6811 C   0  0  0  0  0  0  0  0  0  0  0  0
  151.2007  140.8965  156.0509 N   0  0  0  0  0  0  0  0  0  0  0  0
  150.7976  140.2363  154.8987 N   0  0  0  0  0  0  0  0  0  0  0  0
  149.4783  140.3499  154.6932 C   0  0  0  0  0  0  0  0  0  0  0  0
  148.7998  139.7716  153.5876 N   0  0  0  0  0  0  0  0  0  0  0  0
  147.6058  139.1536  153.5750 C   0  0  0  0  0  0  0  0  0  0  0  0
  146.8801  138.9822  154.5550 O   0  0  0  0  0  0  0  0  0  0  0  0
  147.2886  138.7295  152.3430 N   0  0  0  0  0  0  0  0  0  0  0  0
  146.0594  138.0240  151.9988 C   0  0  0  0  0  0  0  0  0  0  0  0
  145.7325  136.9249  153.0277 C   0  0  0  0  0  0  0  0  0  0  0  0
  146.1459  135.5775  152.5633 N   0  3  1  0  0  0  0  0  0  0  0  0
  146.3001  134.6169  153.6812 C   0  0  0  0  0  0  0  0  0  0  0  0
  146.7898  133.2457  153.1748 C   0  0  2  0  0  0  0  0  0  0  0  0
  148.2729  133.2347  152.7636 C   0  0  0  0  0  0  0  0  0  0  0  0
  145.9366  132.7718  152.1332 O   0  0  0  0  0  0  0  0  0  0  0  0
  145.7905  133.6592  151.0274 C   0  0  1  0  0  0  0  0  0  0  0  0
  144.8455  132.9999  150.0169 C   0  0  0  0  0  0  0  0  0  0  0  0
  145.2520  135.0133  151.5232 C   0  0  0  0  0  0  0  0  0  0  0  0
  148.6136  141.2815  155.9040 S   0  0  0  0  0  0  0  0  0  0  0  0
  151.3933  142.2802  158.2481 H   0  0  0  0  0  0  0  0  0  0  0  0
  149.7595  141.8037  158.7409 H   0  0  0  0  0  0  0  0  0  0  0  0
  150.0054  143.2867  157.8014 H   0  0  0  0  0  0  0  0  0  0  0  0
  149.2832  139.8344  152.7037 H   0  0  0  0  0  0  0  0  0  0  0  0
  147.9384  138.9121  151.5919 H   0  0  0  0  0  0  0  0  0  0  0  0
  145.2464  138.7453  151.9104 H   0  0  0  0  0  0  0  0  0  0  0  0
  146.1879  137.5809  151.0110 H   0  0  0  0  0  0  0  0  0  0  0  0
  146.2589  137.1635  153.9532 H   0  0  0  0  0  0  0  0  0  0  0  0
  144.6694  136.9156  153.2734 H   0  0  0  0  0  0  0  0  0  0  0  0
  146.9978  135.0086  154.4227 H   0  0  0  0  0  0  0  0  0  0  0  0
  145.3382  134.5002  154.1835 H   0  0  0  0  0  0  0  0  0  0  0  0
  146.6869  132.5342  153.9946 H   0  0  0  0  0  0  0  0  0  0  0  0
  148.9112  133.4716  153.6151 H   0  0  0  0  0  0  0  0  0  0  0  0
  148.4931  133.9623  151.9830 H   0  0  0  0  0  0  0  0  0  0  0  0
  148.5663  132.2507  152.3972 H   0  0  0  0  0  0  0  0  0  0  0  0
  146.7551  133.8041  150.5406 H   0  0  0  0  0  0  0  0  0  0  0  0
  144.7054  133.6318  149.1395 H   0  0  0  0  0  0  0  0  0  0  0  0
  143.8647  132.8129  150.4553 H   0  0  0  0  0  0  0  0  0  0  0  0
  145.2452  132.0442  149.6764 H   0  0  0  0  0  0  0  0  0  0  0  0
  144.2475  134.8929  151.9326 H   0  0  0  0  0  0  0  0  0  0  0  0
  145.1705  135.6979  150.6796 H   0  0  0  0  0  0  0  0  0  0  0  0
  147.0612  135.6800  152.1485 H   0  0  0  0  0  0  0  0  0  0  0  0
  1  2  1  0  0  0  0
  1 21  1  0  0  0  0
  1 22  1  0  0  0  0
  1 23  1  0  0  0  0
  2 20  1  0  0  0  0
  2  3  2  0  0  0  0
  3  4  1  0  0  0  0
  4  5  2  0  0  0  0
  5  6  1  0  0  0  0
  5 20  1  0  0  0  0
  6  7  1  0  0  0  0
  6 24  1  0  0  0  0
  7  8  2  0  0  0  0
  7  9  1  0  0  0  0
  9 10  1  0  0  0  0
  9 25  1  0  0  0  0
 10 11  1  0  0  0  0
 10 26  1  0  0  0  0
 10 27  1  0  0  0  0
 11 12  1  0  0  0  0
 11 28  1  0  0  0  0
 11 29  1  0  0  0  0
 12 19  1  0  0  0  0
 12 13  1  0  0  0  0
 12 42  1  0  0  0  0
 13 14  1  0  0  0  0
 13 30  1  0  0  0  0
 13 31  1  0  0  0  0
 14 15  1  0  0  0  0
 14 16  1  0  0  0  0
 14 32  1  0  0  0  0
 15 33  1  0  0  0  0
 15 34  1  0  0  0  0
 15 35  1  0  0  0  0
 16 17  1  0  0  0  0
 17 18  1  0  0  0  0
 17 19  1  0  0  0  0
 17 36  1  0  0  0  0
 18 37  1  0  0  0  0
 18 38  1  0  0  0  0
 18 39  1  0  0  0  0
 19 40  1  0  0  0  0
 19 41  1  0  0  0  0
M  CHG  1  12   1
M  END
> <s_m_source_file>
AV-unprocessed.smi

> <i_m_source_file_index>
1641

> <i_lp_mmshare_version>
43012

> <i_f3d_flags>
0

> <s_epik_input>
W0NIM11jMW5uYyhzMSlbTkhdQyg9TylbTkhdW0NIMl1bQ0gyXU4yW0NIMl1bQ0BASF0oW0NIM10pT1tDQEBIXShbQ0gzXSlbQ0gyXTI=

> <s_epik_cmdline>
J2VwaWtfcHl0aG9uJywgJy1waCcsICc3LjAnLCAnLXRuJywgJzgnLCAnLW1hJywgJzIwMCcsICctbWV0YWxfYmluZGluZycsICctaW1hZScsICc8aW5maWxlLm1hZT4nLCAnLW9tYWUnLCAnPG91dGZpbGUubWFlPic=

> <r_lp_tautomer_probability>
1

> <r_epik_Ionization_Penalty>
0.700114

> <r_epik_Ionization_Penalty_Charging>
0.695697

> <r_epik_Ionization_Penalty_Neutral>
0.00441638

> <r_epik_State_Penalty>
0.717972

> <r_epik_Charging_Adjusted_Penalty>
1.41367

> <i_epik_Tot_Q>
1

> <i_epik_Tot_abs_Q>
1

> <r_epik_Metal_State_Penalty>
1.06958

> <b_epik_Metal_Only>
0

> <s_lp_Force_Field>
OPLS_2005

> <r_lp_Energy>
16.0757

> <b_lp_Chiralities_Consistent>
1

> <s_lp_Variant>
AV-unprocessed.smi:1641-5

> <Gold.Version>
5.8.1

> <Gold.Id.Protein>
6NUR|6NUR_protein|mol2

> <Gold.PLP.Fitness>
45.7505

> <Gold.PLP.PLP>
-33.0297

> <Gold.PLP.part.hbond>
-4.7873

> <Gold.PLP.part.metal>
0.0000

> <Gold.PLP.part.buried>
-3.6483

> <Gold.PLP.part.nonpolar>
-24.8587

> <Gold.PLP.part.repulsive>
0.5178

> <Gold.PLP.ligand.clash>
0.0000

> <Gold.PLP.ligand.torsion>
0.8518

> <Gold.PLP.Chemscore.Hbond>
4.8000

> <Gold.PLP.Chemscore.CHOScore>
0.0000

> <Gold.PLP.Chemscore.Metal>
0.0000

> <Gold.Chemscore.Hbonds>
donor molecule, donor type, donor heavy atom, donor atom, acceptor molecule, acceptor atom, score
      L1  H     6    24       P1  7957  1.00
      L1  H     9    25       P1  7957  0.85
      L1  H    12    42       P1  7948  2.00
      P1  H  7989  7998       L1     4  1.00

> <Gold.PLP.Chemscore.Internal.Correction>
0.0244

> <Gold.Rescore>
     Score         DG    S(hbond)    S(metal)    S(lipo)     H(rot)  DE(clash)    DE(int)     intcor
     18.19     -20.57       3.65        0.00      60.70       1.64       0.07       2.31       ----

> <Gold.Chemscore.Fitness>
18.1861

> <Gold.Chemscore.DG>
-20.5691

> <Gold.Chemscore.ZeroCoef>
-5.4800

> <Gold.Chemscore.Hbond>
3.6451

> <Gold.Chemscore.Metal>
0.0000

> <Gold.Chemscore.Lipo>
60.7038

> <Gold.Chemscore.Internal_Hbond>
0.0000

> <Gold.Chemscore.DEClash>
0.0727

> <Gold.Chemscore.DEInternal>
2.3103

> <Gold.Chemscore.Rot>
1.6358

> <Gold.Chemscore.Internal.Correction>
   9.000000E+99

> <Gold.Chemscore.Hbonds>
donor molecule, donor type, donor heavy atom, donor atom, acceptor molecule, acceptor atom, score
      L1  H     6    24       P1  7957  0.98
      L1  H     9    25       P1  7957  0.66
      L1  H    12    42       P1  7948  0.98
      P1  H  7989  7998       L1     4  0.48

> <Gold.Chemscore.Hbond.Weighted>
-12.1745

> <Gold.Chemscore.Metal.Weighted>
-0.0000

> <Gold.Chemscore.Lipo.Weighted>
-7.1023

> <Gold.Chemscore.Internal_Hbond.Weighted>
0.0000

> <Gold.Chemscore.DEClash.Weighted>
0.0727

> <Gold.Chemscore.DEInternal.Weighted>
2.3103

> <Gold.Chemscore.Rot.Weighted>
4.1878

> <Gold.Chemscore.Internal.Correction.Weighted>
   9.000000E+99

> <Gold.Protein.RotatedTorsions>
[ 6907 6896 6895 6894 ] final -102.82 input  -60.11 | X-H torsion
[ 7974 7965 7964 7962 ] final  -18.80 input  175.53 | X-H torsion
[ 8008 7997 7996 7995 ] final  -98.37 input   59.86 | X-H torsion
[ 10167 10162 10161 10158 ] final   87.13 input  -65.29 | X-H torsion
[ 10718 10713 10712 10709 ] final  -54.68 input   66.30 | X-H torsion
[ 10763 10752 10751 10750 ] final   16.75 input  -60.55 | X-H torsion
[ 11005 11000 10999 10996 ] final   74.72 input  -57.11 | X-H torsion

> <Gold.Protein.ActiveResidues>
 VAL166  LYS551  ARG553  GLY616  TRP617  ASP618  TYR619  PRO620  LYS621  CYS622 
 ASP623  PHE694  ASN695  SER759  ASP760  ASP761  ALA762  ILE779  LEU786  VAL792 
 PHE793  MET794  SER795  GLU796  ALA797  LYS798  CYS799  TRP800  GLU811  SER814 

> <Gold.Protein.RotatedAtoms>
  150.7213  134.0523  159.3802 H   0  0  0  0  0  0  0  0  0  0  0  0  # atno 6907 bound_to 6896
  151.8500  135.0558  160.0467 H   0  0  0  0  0  0  0  0  0  0  0  0  # atno 6908 bound_to 6896
  152.2797  133.5423  159.5526 H   0  0  0  0  0  0  0  0  0  0  0  0  # atno 6909 bound_to 6896
  146.1874  140.3972  142.8471 H   0  0  0  0  0  0  0  0  0  0  0  0  # atno 7974 bound_to 7965
  154.8003  140.0456  157.1267 H   0  0  0  0  0  0  0  0  0  0  0  0  # atno 8008 bound_to 7997
  154.9487  140.3062  155.5066 H   0  0  0  0  0  0  0  0  0  0  0  0  # atno 8009 bound_to 7997
  156.2961  140.2292  156.4562 H   0  0  0  0  0  0  0  0  0  0  0  0  # atno 8010 bound_to 7997
  139.8805  144.6443  150.8848 H   0  0  0  0  0  0  0  0  0  0  0  0  # atno 10167 bound_to 10162
  156.1431  130.4154  150.0070 H   0  0  0  0  0  0  0  0  0  0  0  0  # atno 10718 bound_to 10713
  153.1401  135.6758  153.9040 H   0  0  0  0  0  0  0  0  0  0  0  0  # atno 10763 bound_to 10752
  153.8499  135.3094  155.3433 H   0  0  0  0  0  0  0  0  0  0  0  0  # atno 10764 bound_to 10752
  154.7780  135.4903  153.9869 H   0  0  0  0  0  0  0  0  0  0  0  0  # atno 10765 bound_to 10752
  139.9377  134.7457  156.1183 H   0  0  0  0  0  0  0  0  0  0  0  0  # atno 11005 bound_to 11000
  144.8422  140.6875  143.6222 LP  0  0  0  0  0  0  0  0  0  0  0  0  # atno 17320 bound_to 7965
  145.3898  139.1619  143.4235 LP  0  0  0  0  0  0  0  0  0  0  0  0  # atno 17321 bound_to 7965
  140.7745  143.3590  151.1865 LP  0  0  0  0  0  0  0  0  0  0  0  0  # atno 17342 bound_to 10162
  139.7200  143.9238  152.2982 LP  0  0  0  0  0  0  0  0  0  0  0  0  # atno 17343 bound_to 10162
  156.7949  130.9269  151.3646 LP  0  0  0  0  0  0  0  0  0  0  0  0  # atno 17370 bound_to 10713
  157.6593  130.8952  149.9795 LP  0  0  0  0  0  0  0  0  0  0  0  0  # atno 17371 bound_to 10713
  141.0999  133.6681  156.2729 LP  0  0  0  0  0  0  0  0  0  0  0  0  # atno 17394 bound_to 11000
  140.6032  134.5534  157.5521 LP  0  0  0  0  0  0  0  0  0  0  0  0  # atno 17395 bound_to 11000

$$$$
