AV-unprocessed.smi:686|AV-procd|sdf|3340|dock8
  -GOLD-   22720 0313D 1   1.00000     0.00000
 Structure written by MMmdl.
 41 42  0  0  0  0  0  0  0  0  2 V2000
  146.8662  139.4648  154.2960 C   0  0  0  0  0  0  0  0  0  0  0  0
  146.4948  137.9729  154.3099 C   0  0  1  0  0  0  0  0  0  0  0  0
  146.1040  137.3844  152.9462 C   0  0  0  0  0  0  0  0  0  0  0  0
  146.5763  135.9760  152.9255 N   0  3  2  0  0  0  0  0  0  0  0  0
  145.6117  134.9870  152.3671 C   0  0  0  0  0  0  0  0  0  0  0  0
  146.2409  133.5866  152.2344 C   0  0  0  0  0  0  0  0  0  0  0  0
  145.0858  135.4430  150.9926 C   0  0  0  0  0  0  0  0  0  0  0  0
  147.1027  135.6695  154.2760 C   0  0  0  0  0  0  0  0  0  0  0  0
  147.5517  137.0105  154.8605 C   0  0  1  0  0  0  0  0  0  0  0  0
  148.8992  137.3540  154.3921 N   0  0  0  0  0  0  0  0  0  0  0  0
  150.2649  136.9603  155.3695 S   0  0  0  0  0  0  0  0  0  0  0  0
  149.8008  136.9324  156.7646 O   0  0  0  0  0  0  0  0  0  0  0  0
  150.9036  135.7725  154.7825 O   0  0  0  0  0  0  0  0  0  0  0  0
  151.3542  138.4292  155.1293 C   0  0  0  0  0  0  0  0  0  0  0  0
  150.5168  139.6730  155.0234 C   0  0  0  0  0  0  0  0  0  0  0  0
  149.9144  140.4255  156.0692 C   0  0  0  0  0  0  0  0  0  0  0  0
  149.2896  141.4446  155.4098 C   0  0  0  0  0  0  0  0  0  0  0  0
  149.4853  141.3352  154.0712 O   0  0  0  0  0  0  0  0  0  0  0  0
  150.2671  140.1991  153.8336 N   0  0  0  0  0  0  0  0  0  0  0  0
  147.7026  139.6692  153.6270 H   0  0  0  0  0  0  0  0  0  0  0  0
  147.1439  139.8066  155.2934 H   0  0  0  0  0  0  0  0  0  0  0  0
  146.0236  140.0704  153.9610 H   0  0  0  0  0  0  0  0  0  0  0  0
  145.6222  137.8687  154.9573 H   0  0  0  0  0  0  0  0  0  0  0  0
  145.0254  137.4639  152.8041 H   0  0  0  0  0  0  0  0  0  0  0  0
  146.5858  137.9200  152.1272 H   0  0  0  0  0  0  0  0  0  0  0  0
  144.7661  134.9133  153.0528 H   0  0  0  0  0  0  0  0  0  0  0  0
  145.5419  132.8871  151.7749 H   0  0  0  0  0  0  0  0  0  0  0  0
  146.5133  133.1656  153.2023 H   0  0  0  0  0  0  0  0  0  0  0  0
  147.1380  133.6112  151.6147 H   0  0  0  0  0  0  0  0  0  0  0  0
  144.3965  134.7081  150.5755 H   0  0  0  0  0  0  0  0  0  0  0  0
  145.9014  135.5701  150.2798 H   0  0  0  0  0  0  0  0  0  0  0  0
  144.5442  136.3868  151.0494 H   0  0  0  0  0  0  0  0  0  0  0  0
  146.2985  135.2651  154.8933 H   0  0  0  0  0  0  0  0  0  0  0  0
  147.8974  134.9249  154.2390 H   0  0  0  0  0  0  0  0  0  0  0  0
  147.5475  137.0000  155.9513 H   0  0  0  0  0  0  0  0  0  0  0  0
  149.0511  137.1073  153.4143 H   0  0  0  0  0  0  0  0  0  0  0  0
  152.0649  138.4826  155.9546 H   0  0  0  0  0  0  0  0  0  0  0  0
  151.9242  138.2758  154.2130 H   0  0  0  0  0  0  0  0  0  0  0  0
  149.9392  140.2482  157.1343 H   0  0  0  0  0  0  0  0  0  0  0  0
  148.6956  142.2856  155.7358 H   0  0  0  0  0  0  0  0  0  0  0  0
  147.3816  135.9688  152.3158 H   0  0  0  0  0  0  0  0  0  0  0  0
  1  2  1  0  0  0  0
  1 20  1  0  0  0  0
  1 21  1  0  0  0  0
  1 22  1  0  0  0  0
  2  9  1  0  0  0  0
  2  3  1  0  0  0  0
  2 23  1  0  0  0  0
  3  4  1  0  0  0  0
  3 24  1  0  0  0  0
  3 25  1  0  0  0  0
  4  5  1  0  0  0  0
  4  8  1  0  0  0  0
  4 41  1  0  0  0  0
  5  6  1  0  0  0  0
  5  7  1  0  0  0  0
  5 26  1  0  0  0  0
  6 27  1  0  0  0  0
  6 28  1  0  0  0  0
  6 29  1  0  0  0  0
  7 30  1  0  0  0  0
  7 31  1  0  0  0  0
  7 32  1  0  0  0  0
  8  9  1  0  0  0  0
  8 33  1  0  0  0  0
  8 34  1  0  0  0  0
  9 10  1  0  0  0  0
  9 35  1  0  0  0  0
 10 11  1  0  0  0  0
 10 36  1  0  0  0  0
 11 12  2  0  0  0  0
 11 13  2  0  0  0  0
 11 14  1  0  0  0  0
 14 15  1  0  0  0  0
 14 37  1  0  0  0  0
 14 38  1  0  0  0  0
 15 19  2  0  0  0  0
 15 16  1  0  0  0  0
 16 17  2  0  0  0  0
 16 39  1  0  0  0  0
 17 18  1  0  0  0  0
 17 40  1  0  0  0  0
 18 19  1  0  0  0  0
M  CHG  1   4   1
M  END
> <s_m_source_file>
AV-unprocessed.smi

> <i_m_source_file_index>
686

> <i_lp_mmshare_version>
43012

> <i_f3d_flags>
0

> <s_epik_input>
W0NIM11bQ0BASF0xW0NIMl1OKFtDSF0oW0NIM10pW0NIM10pW0NIMl1bQ0BIXTFbTkhdUyg9TykoPU8pW0NIMl1jMltjSF1bY0hdb24y

> <s_epik_cmdline>
J2VwaWtfcHl0aG9uJywgJy1waCcsICc3LjAnLCAnLXRuJywgJzgnLCAnLW1hJywgJzIwMCcsICctbWV0YWxfYmluZGluZycsICctaW1hZScsICc8aW5maWxlLm1hZT4nLCAnLW9tYWUnLCAnPG91dGZpbGUubWFlPic=

> <r_epik_Ionization_Penalty>
0.00200818

> <r_epik_Ionization_Penalty_Charging>
0.000701289

> <r_epik_Ionization_Penalty_Neutral>
0.00130689

> <r_epik_State_Penalty>
0.00131314

> <r_epik_Charging_Adjusted_Penalty>
0.00201443

> <i_epik_Tot_Q>
1

> <i_epik_Tot_abs_Q>
1

> <r_epik_Metal_State_Penalty>
0.310831

> <b_epik_Metal_Only>
0

> <s_lp_Force_Field>
OPLS_2005

> <r_lp_Energy>
21.9273

> <b_lp_Chiralities_Consistent>
1

> <s_lp_Variant>
AV-unprocessed.smi:686-4

> <Gold.Version>
5.8.1

> <Gold.Id.Protein>
6NUR|6NUR_protein|mol2

> <Gold.PLP.Fitness>
38.8789

> <Gold.PLP.PLP>
-22.5014

> <Gold.PLP.part.hbond>
-5.6065

> <Gold.PLP.part.metal>
0.0000

> <Gold.PLP.part.buried>
-1.4064

> <Gold.PLP.part.nonpolar>
-17.1328

> <Gold.PLP.part.repulsive>
2.8106

> <Gold.PLP.ligand.clash>
0.0000

> <Gold.PLP.ligand.torsion>
1.6297

> <Gold.PLP.Chemscore.Hbond>
5.4841

> <Gold.PLP.Chemscore.CHOScore>
1.0000

> <Gold.PLP.Chemscore.Metal>
0.0000

> <Gold.Chemscore.Hbonds>
donor molecule, donor type, donor heavy atom, donor atom, acceptor molecule, acceptor atom, score
      L1  H     4    41       P1  7948  2.00
      L1  H    10    36       P1  7948  1.00
      P1  H  7989  7998       L1    19  0.85
      P1  H  8011  8017       L1    18  0.67
      P1  H 10752 10763       L1    13  0.98
      L1  C    17    40       P1  8028  1.00

> <Gold.PLP.Chemscore.Internal.Correction>
0.1846

> <Gold.Rescore>
     Score         DG    S(hbond)    S(metal)    S(lipo)     H(rot)  DE(clash)    DE(int)     intcor
     17.55     -18.85       3.80        0.00      47.56       1.91       0.05       1.24       ----

> <Gold.Chemscore.Fitness>
17.5544

> <Gold.Chemscore.DG>
-18.8466

> <Gold.Chemscore.ZeroCoef>
-5.4800

> <Gold.Chemscore.Hbond>
3.8011

> <Gold.Chemscore.Metal>
0.0000

> <Gold.Chemscore.Lipo>
47.5588

> <Gold.Chemscore.Internal_Hbond>
0.0000

> <Gold.Chemscore.DEClash>
0.0515

> <Gold.Chemscore.DEInternal>
1.2407

> <Gold.Chemscore.Rot>
1.9115

> <Gold.Chemscore.Internal.Correction>
   9.000000E+99

> <Gold.Chemscore.Hbonds>
donor molecule, donor type, donor heavy atom, donor atom, acceptor molecule, acceptor atom, score
      L1  H     4    41       P1  7948  0.99
      L1  H    10    36       P1  7948  1.00
      P1  H  7989  7998       L1    19  0.08
      P1  H  8011  8017       L1    18  0.19
      P1  H 10752 10763       L1    13  0.92

> <Gold.Chemscore.Hbond.Weighted>
-12.6957

> <Gold.Chemscore.Metal.Weighted>
-0.0000

> <Gold.Chemscore.Lipo.Weighted>
-5.5644

> <Gold.Chemscore.Internal_Hbond.Weighted>
0.0000

> <Gold.Chemscore.DEClash.Weighted>
0.0515

> <Gold.Chemscore.DEInternal.Weighted>
1.2407

> <Gold.Chemscore.Rot.Weighted>
4.8935

> <Gold.Chemscore.Internal.Correction.Weighted>
   9.000000E+99

> <Gold.Protein.RotatedTorsions>
[ 6907 6896 6895 6894 ] final  138.76 input  -60.11 | X-H torsion
[ 7974 7965 7964 7962 ] final  111.56 input  175.53 | X-H torsion
[ 8008 7997 7996 7995 ] final  112.05 input   59.86 | X-H torsion
[ 10167 10162 10161 10158 ] final   32.24 input  -65.29 | X-H torsion
[ 10718 10713 10712 10709 ] final  120.41 input   66.30 | X-H torsion
[ 10763 10752 10751 10750 ] final   53.59 input  -60.55 | X-H torsion
[ 11005 11000 10999 10996 ] final -102.69 input  -57.11 | X-H torsion

> <Gold.Protein.ActiveResidues>
 VAL166  LYS551  ARG553  GLY616  TRP617  ASP618  TYR619  PRO620  LYS621  CYS622 
 ASP623  PHE694  ASN695  SER759  ASP760  ASP761  ALA762  ILE779  LEU786  VAL792 
 PHE793  MET794  SER795  GLU796  ALA797  LYS798  CYS799  TRP800  GLU811  SER814 

> <Gold.Protein.RotatedAtoms>
  152.2628  133.5313  159.5391 H   0  0  0  0  0  0  0  0  0  0  0  0  # atno 6907 bound_to 6896
  150.7131  134.0805  159.3905 H   0  0  0  0  0  0  0  0  0  0  0  0  # atno 6908 bound_to 6896
  151.8722  135.0485  160.0531 H   0  0  0  0  0  0  0  0  0  0  0  0  # atno 6909 bound_to 6896
  145.2407  139.2780  143.4119 H   0  0  0  0  0  0  0  0  0  0  0  0  # atno 7974 bound_to 7965
  156.2166  140.3007  155.9854 H   0  0  0  0  0  0  0  0  0  0  0  0  # atno 8008 bound_to 7997
  155.2590  140.0429  157.3012 H   0  0  0  0  0  0  0  0  0  0  0  0  # atno 8009 bound_to 7997
  154.5777  140.2366  155.8107 H   0  0  0  0  0  0  0  0  0  0  0  0  # atno 8010 bound_to 7997
  140.4516  144.1040  150.6193 H   0  0  0  0  0  0  0  0  0  0  0  0  # atno 10167 bound_to 10162
  157.5893  131.1066  150.8031 H   0  0  0  0  0  0  0  0  0  0  0  0  # atno 10718 bound_to 10713
  152.9796  135.5773  154.4766 H   0  0  0  0  0  0  0  0  0  0  0  0  # atno 10763 bound_to 10752
  154.4321  135.2774  155.1907 H   0  0  0  0  0  0  0  0  0  0  0  0  # atno 10764 bound_to 10752
  154.3611  135.6188  153.5745 H   0  0  0  0  0  0  0  0  0  0  0  0  # atno 10765 bound_to 10752
  141.1178  133.8579  157.1391 H   0  0  0  0  0  0  0  0  0  0  0  0  # atno 11005 bound_to 11000
  146.3329  140.2770  142.8608 LP  0  0  0  0  0  0  0  0  0  0  0  0  # atno 17320 bound_to 7965
  144.9591  140.8257  143.5524 LP  0  0  0  0  0  0  0  0  0  0  0  0  # atno 17321 bound_to 7965
  140.4200  143.2616  151.9727 LP  0  0  0  0  0  0  0  0  0  0  0  0  # atno 17342 bound_to 10162
  139.4797  144.5839  151.7886 LP  0  0  0  0  0  0  0  0  0  0  0  0  # atno 17343 bound_to 10162
  156.8457  130.5063  149.5316 LP  0  0  0  0  0  0  0  0  0  0  0  0  # atno 17370 bound_to 10713
  156.0946  130.5922  150.9791 LP  0  0  0  0  0  0  0  0  0  0  0  0  # atno 17371 bound_to 10713
  140.0113  134.9987  157.0401 LP  0  0  0  0  0  0  0  0  0  0  0  0  # atno 17394 bound_to 11000
  140.4595  134.1499  155.7190 LP  0  0  0  0  0  0  0  0  0  0  0  0  # atno 17395 bound_to 11000

$$$$
