AV-unprocessed.smi:2174|AV-procd|sdf|8842|dock3
  -GOLD-   2272012 33D 1   1.00000     0.00000
 Structure written by MMmdl.
 46 47  0  0  0  0  0  0  0  0  2 V2000
  149.3791  141.5977  156.7738 C   0  0  0  0  0  0  0  0  0  0  0  0
  150.5317  140.7613  156.2966 C   0  0  0  0  0  0  0  0  0  0  0  0
  151.6762  140.7846  156.9587 N   0  0  0  0  0  0  0  0  0  0  0  0
  152.5304  139.9103  156.2796 O   0  0  0  0  0  0  0  0  0  0  0  0
  151.8571  139.3856  155.2247 C   0  0  0  0  0  0  0  0  0  0  0  0
  152.5985  138.4133  154.3708 C   0  0  0  0  0  0  0  0  0  0  0  0
  150.5830  139.8812  155.1777 C   0  0  0  0  0  0  0  0  0  0  0  0
  149.4880  139.5704  154.1862 C   0  0  0  0  0  0  0  0  0  0  0  0
  148.4313  138.6404  154.7928 C   0  0  0  0  0  0  0  0  0  0  0  0
  147.8771  138.9513  155.8462 O   0  0  0  0  0  0  0  0  0  0  0  0
  148.1361  137.5192  154.1149 N   0  0  0  0  0  0  0  0  0  0  0  0
  147.1494  136.5230  154.5201 C   0  0  0  0  0  0  0  0  0  0  0  0
  146.0124  136.3534  153.4897 C   0  0  0  0  0  0  0  0  0  0  0  0
  146.3803  135.4947  152.3302 N   0  3  0  0  0  0  0  0  0  0  0  0
  145.5609  135.7880  151.1213 C   0  0  0  0  0  0  0  0  0  0  0  0
  144.2447  134.9928  151.0279 C   0  0  0  0  0  0  0  0  0  0  0  0
  144.4103  133.6626  150.2752 C   0  0  0  0  0  0  0  0  0  0  0  0
  145.2134  132.6019  151.0399 C   0  0  0  0  0  0  0  0  0  0  0  0
  146.5969  133.0757  151.5161 C   0  0  0  0  0  0  0  0  0  0  0  0
  146.5168  134.0570  152.7011 C   0  0  0  0  0  0  0  0  0  0  0  0
  148.9130  142.1310  155.9450 H   0  0  0  0  0  0  0  0  0  0  0  0
  149.6947  142.3406  157.5074 H   0  0  0  0  0  0  0  0  0  0  0  0
  148.6147  140.9749  157.2390 H   0  0  0  0  0  0  0  0  0  0  0  0
  151.9674  137.5610  154.1173 H   0  0  0  0  0  0  0  0  0  0  0  0
  153.4842  138.0359  154.8829 H   0  0  0  0  0  0  0  0  0  0  0  0
  152.9198  138.8845  153.4417 H   0  0  0  0  0  0  0  0  0  0  0  0
  149.0007  140.4854  153.8467 H   0  0  0  0  0  0  0  0  0  0  0  0
  149.8873  139.0929  153.2910 H   0  0  0  0  0  0  0  0  0  0  0  0
  148.6513  137.3343  153.2661 H   0  0  0  0  0  0  0  0  0  0  0  0
  147.6714  135.5761  154.6589 H   0  0  0  0  0  0  0  0  0  0  0  0
  146.7367  136.7826  155.4964 H   0  0  0  0  0  0  0  0  0  0  0  0
  145.1191  135.9593  153.9762 H   0  0  0  0  0  0  0  0  0  0  0  0
  145.7455  137.3469  153.1272 H   0  0  0  0  0  0  0  0  0  0  0  0
  145.3401  136.8552  151.0831 H   0  0  0  0  0  0  0  0  0  0  0  0
  146.1692  135.6049  150.2351 H   0  0  0  0  0  0  0  0  0  0  0  0
  143.7965  134.8408  152.0104 H   0  0  0  0  0  0  0  0  0  0  0  0
  143.5286  135.5954  150.4679 H   0  0  0  0  0  0  0  0  0  0  0  0
  143.4230  133.2556  150.0544 H   0  0  0  0  0  0  0  0  0  0  0  0
  144.8766  133.8459  149.3065 H   0  0  0  0  0  0  0  0  0  0  0  0
  144.6333  132.2474  151.8929 H   0  0  0  0  0  0  0  0  0  0  0  0
  145.3414  131.7351  150.3905 H   0  0  0  0  0  0  0  0  0  0  0  0
  147.1396  132.1926  151.8554 H   0  0  0  0  0  0  0  0  0  0  0  0
  147.1881  133.4823  150.6947 H   0  0  0  0  0  0  0  0  0  0  0  0
  147.4328  133.9571  153.2836 H   0  0  0  0  0  0  0  0  0  0  0  0
  145.7054  133.7632  153.3687 H   0  0  0  0  0  0  0  0  0  0  0  0
  147.3094  135.7964  152.0731 H   0  0  0  0  0  0  0  0  0  0  0  0
  1  2  1  0  0  0  0
  1 21  1  0  0  0  0
  1 22  1  0  0  0  0
  1 23  1  0  0  0  0
  2  7  1  0  0  0  0
  2  3  2  0  0  0  0
  3  4  1  0  0  0  0
  4  5  1  0  0  0  0
  5  6  1  0  0  0  0
  5  7  2  0  0  0  0
  6 24  1  0  0  0  0
  6 25  1  0  0  0  0
  6 26  1  0  0  0  0
  7  8  1  0  0  0  0
  8  9  1  0  0  0  0
  8 27  1  0  0  0  0
  8 28  1  0  0  0  0
  9 10  2  0  0  0  0
  9 11  1  0  0  0  0
 11 12  1  0  0  0  0
 11 29  1  0  0  0  0
 12 13  1  0  0  0  0
 12 30  1  0  0  0  0
 12 31  1  0  0  0  0
 13 14  1  0  0  0  0
 13 32  1  0  0  0  0
 13 33  1  0  0  0  0
 14 20  1  0  0  0  0
 14 15  1  0  0  0  0
 14 46  1  0  0  0  0
 15 16  1  0  0  0  0
 15 34  1  0  0  0  0
 15 35  1  0  0  0  0
 16 17  1  0  0  0  0
 16 36  1  0  0  0  0
 16 37  1  0  0  0  0
 17 18  1  0  0  0  0
 17 38  1  0  0  0  0
 17 39  1  0  0  0  0
 18 19  1  0  0  0  0
 18 40  1  0  0  0  0
 18 41  1  0  0  0  0
 19 20  1  0  0  0  0
 19 42  1  0  0  0  0
 19 43  1  0  0  0  0
 20 44  1  0  0  0  0
 20 45  1  0  0  0  0
M  CHG  1  14   1
M  END
> <s_m_source_file>
AV-unprocessed.smi

> <i_m_source_file_index>
2174

> <i_lp_mmshare_version>
43012

> <i_f3d_flags>
0

> <s_epik_input>
W0NIM11jMW5vYyhbQ0gzXSljMVtDSDJdQyg9TylbTkhdW0NIMl1bQ0gyXU4yW0NIMl1bQ0gyXVtDSDJdW0NIMl1bQ0gyXVtDSDJdMg==

> <s_epik_cmdline>
J2VwaWtfcHl0aG9uJywgJy1waCcsICc3LjAnLCAnLXRuJywgJzgnLCAnLW1hJywgJzIwMCcsICctbWV0YWxfYmluZGluZycsICctaW1hZScsICc8aW5maWxlLm1hZT4nLCAnLW9tYWUnLCAnPG91dGZpbGUubWFlPic=

> <r_epik_Ionization_Penalty>
0.0024041

> <r_epik_Ionization_Penalty_Charging>
0.00240401

> <r_epik_Ionization_Penalty_Neutral>
9.67143e-08

> <r_epik_State_Penalty>
0.00166275

> <r_epik_Charging_Adjusted_Penalty>
0.00406676

> <i_epik_Tot_Q>
1

> <i_epik_Tot_abs_Q>
1

> <r_epik_Metal_State_Penalty>
-0

> <b_epik_Metal_Only>
0

> <s_lp_Force_Field>
OPLS_2005

> <r_lp_Energy>
23.9456

> <b_lp_Chiralities_Consistent>
1

> <s_lp_Variant>
AV-unprocessed.smi:2174-1

> <Gold.Version>
5.8.1

> <Gold.Id.Protein>
6NUR|6NUR_protein|mol2

> <Gold.PLP.Fitness>
45.5311

> <Gold.PLP.PLP>
-34.5132

> <Gold.PLP.part.hbond>
-3.0000

> <Gold.PLP.part.metal>
0.0000

> <Gold.PLP.part.buried>
-2.4041

> <Gold.PLP.part.nonpolar>
-28.0408

> <Gold.PLP.part.repulsive>
0.0188

> <Gold.PLP.ligand.clash>
0.0000

> <Gold.PLP.ligand.torsion>
0.4846

> <Gold.PLP.Chemscore.Hbond>
3.9760

> <Gold.PLP.Chemscore.CHOScore>
0.0000

> <Gold.PLP.Chemscore.Metal>
0.0000

> <Gold.Chemscore.Hbonds>
donor molecule, donor type, donor heavy atom, donor atom, acceptor molecule, acceptor atom, score
      L1  H    11    29       P1  7948  0.98
      L1  H    14    46       P1  7948  2.00
      P1  H  7997  8010       L1     4  1.00

> <Gold.PLP.Chemscore.Internal.Correction>
0.0591

> <Gold.Rescore>
     Score         DG    S(hbond)    S(metal)    S(lipo)     H(rot)  DE(clash)    DE(int)     intcor
     20.14     -20.69       2.90        0.00      84.11       1.69       0.13       0.43       ----

> <Gold.Chemscore.Fitness>
20.1366

> <Gold.Chemscore.DG>
-20.6923

> <Gold.Chemscore.ZeroCoef>
-5.4800

> <Gold.Chemscore.Hbond>
2.9010

> <Gold.Chemscore.Metal>
0.0000

> <Gold.Chemscore.Lipo>
84.1057

> <Gold.Chemscore.Internal_Hbond>
0.0000

> <Gold.Chemscore.DEClash>
0.1256

> <Gold.Chemscore.DEInternal>
0.4301

> <Gold.Chemscore.Rot>
1.6865

> <Gold.Chemscore.Internal.Correction>
   9.000000E+99

> <Gold.Chemscore.Hbonds>
donor molecule, donor type, donor heavy atom, donor atom, acceptor molecule, acceptor atom, score
      L1  H    11    29       P1  7948  0.93
      L1  H    14    46       P1  7948  1.00
      P1  H  7997  8010       L1     4  0.98

> <Gold.Chemscore.Hbond.Weighted>
-9.6893

> <Gold.Chemscore.Metal.Weighted>
-0.0000

> <Gold.Chemscore.Lipo.Weighted>
-9.8404

> <Gold.Chemscore.Internal_Hbond.Weighted>
0.0000

> <Gold.Chemscore.DEClash.Weighted>
0.1256

> <Gold.Chemscore.DEInternal.Weighted>
0.4301

> <Gold.Chemscore.Rot.Weighted>
4.3174

> <Gold.Chemscore.Internal.Correction.Weighted>
   9.000000E+99

> <Gold.Protein.RotatedTorsions>
[ 6907 6896 6895 6894 ] final   71.19 input  -60.11 | X-H torsion
[ 7974 7965 7964 7962 ] final  -91.61 input  175.53 | X-H torsion
[ 8008 7997 7996 7995 ] final   80.75 input   59.86 | X-H torsion
[ 10167 10162 10161 10158 ] final  -76.73 input  -65.29 | X-H torsion
[ 10718 10713 10712 10709 ] final  155.74 input   66.30 | X-H torsion
[ 10763 10752 10751 10750 ] final -143.26 input  -60.55 | X-H torsion
[ 11005 11000 10999 10996 ] final   51.08 input  -57.11 | X-H torsion

> <Gold.Protein.ActiveResidues>
 VAL166  LYS551  ARG553  GLY616  TRP617  ASP618  TYR619  PRO620  LYS621  CYS622 
 ASP623  PHE694  ASN695  SER759  ASP760  ASP761  ALA762  ILE779  LEU786  VAL792 
 PHE793  MET794  SER795  GLU796  ALA797  LYS798  CYS799  TRP800  GLU811  SER814 

> <Gold.Protein.RotatedAtoms>
  152.4795  134.4756  159.9649 H   0  0  0  0  0  0  0  0  0  0  0  0  # atno 6907 bound_to 6896
  151.4765  133.3550  159.2839 H   0  0  0  0  0  0  0  0  0  0  0  0  # atno 6908 bound_to 6896
  150.8858  134.8281  159.7318 H   0  0  0  0  0  0  0  0  0  0  0  0  # atno 6909 bound_to 6896
  145.4108  140.9545  143.2235 H   0  0  0  0  0  0  0  0  0  0  0  0  # atno 7974 bound_to 7965
  155.8877  140.3440  155.5933 H   0  0  0  0  0  0  0  0  0  0  0  0  # atno 8008 bound_to 7997
  155.7647  140.0837  157.2157 H   0  0  0  0  0  0  0  0  0  0  0  0  # atno 8009 bound_to 7997
  154.4030  140.1529  156.2860 H   0  0  0  0  0  0  0  0  0  0  0  0  # atno 8010 bound_to 7997
  140.4831  143.2397  151.8026 H   0  0  0  0  0  0  0  0  0  0  0  0  # atno 10167 bound_to 10162
  157.2143  131.0704  151.1950 H   0  0  0  0  0  0  0  0  0  0  0  0  # atno 10718 bound_to 10713
  154.8477  135.3473  154.6159 H   0  0  0  0  0  0  0  0  0  0  0  0  # atno 10763 bound_to 10752
  153.6767  135.6982  153.5135 H   0  0  0  0  0  0  0  0  0  0  0  0  # atno 10764 bound_to 10752
  153.2700  135.4296  155.0934 H   0  0  0  0  0  0  0  0  0  0  0  0  # atno 10765 bound_to 10752
  140.0963  134.5142  155.8804 H   0  0  0  0  0  0  0  0  0  0  0  0  # atno 11005 bound_to 11000
  144.8310  139.5628  143.6943 LP  0  0  0  0  0  0  0  0  0  0  0  0  # atno 17320 bound_to 7965
  146.2706  139.6625  142.9299 LP  0  0  0  0  0  0  0  0  0  0  0  0  # atno 17321 bound_to 7965
  139.4837  144.4747  151.9382 LP  0  0  0  0  0  0  0  0  0  0  0  0  # atno 17342 bound_to 10162
  140.3832  144.2709  150.5906 LP  0  0  0  0  0  0  0  0  0  0  0  0  # atno 17343 bound_to 10162
  157.3640  130.7146  149.6521 LP  0  0  0  0  0  0  0  0  0  0  0  0  # atno 17370 bound_to 10713
  155.9688  130.4217  150.4483 LP  0  0  0  0  0  0  0  0  0  0  0  0  # atno 17371 bound_to 10713
  141.2093  133.6682  156.6428 LP  0  0  0  0  0  0  0  0  0  0  0  0  # atno 17394 bound_to 11000
  140.3282  134.7951  157.4306 LP  0  0  0  0  0  0  0  0  0  0  0  0  # atno 17395 bound_to 11000

$$$$
