AV-unprocessed.smi:1880|AV-procd|sdf|7636|dock3
  -GOLD-   22720 9363D 1   1.00000     0.00000
 Structure written by MMmdl.
 36 38  0  0  0  0  0  0  0  0  1 V2000
  145.5182  138.7049  151.3555 O   0  0  0  0  0  0  0  0  0  0  0  0
  146.5094  138.1456  152.1952 C   0  0  1  0  0  0  0  0  0  0  0  0
  147.1853  139.2855  152.9727 C   0  0  0  0  0  0  0  0  0  0  0  0
  148.1747  138.7382  153.8284 O   0  0  0  0  0  0  0  0  0  0  0  0
  148.9228  139.7338  154.5047 C   0  0  0  0  0  0  0  0  0  0  0  0
  150.3024  139.1929  154.6673 C   0  0  0  0  0  0  0  0  0  0  0  0
  151.3835  139.5802  155.4099 C   0  0  0  0  0  0  0  0  0  0  0  0
  152.4173  138.6438  155.1317 C   0  0  0  0  0  0  0  0  0  0  0  0
  151.8892  137.7544  154.2397 C   0  0  0  0  0  0  0  0  0  0  0  0
  150.5994  138.0750  153.9461 O   0  0  0  0  0  0  0  0  0  0  0  0
  145.8503  137.1192  153.1371 C   0  0  0  0  0  0  0  0  0  0  0  0
  145.2603  136.0027  152.4197 N   0  0  0  0  0  0  0  0  0  0  0  0
  144.1743  136.0362  151.6240 C   0  0  0  0  0  0  0  0  0  0  0  0
  143.7980  134.8934  151.0574 N   0  0  0  0  0  0  0  0  0  0  0  0
  144.7508  134.0141  151.5426 C   0  0  0  0  0  0  0  0  0  0  0  0
  144.9185  132.6289  151.3185 C   0  0  0  0  0  0  0  0  0  0  0  0
  145.9793  131.9289  151.9304 C   0  0  0  0  0  0  0  0  0  0  0  0
  146.1258  130.6017  151.7049 F   0  0  0  0  0  0  0  0  0  0  0  0
  146.8870  132.6027  152.7744 C   0  0  0  0  0  0  0  0  0  0  0  0
  147.9023  131.9230  153.3582 F   0  0  0  0  0  0  0  0  0  0  0  0
  146.7404  133.9829  153.0118 C   0  0  0  0  0  0  0  0  0  0  0  0
  145.6810  134.6771  152.3988 C   0  0  0  0  0  0  0  0  0  0  0  0
  144.9302  139.2174  151.8897 H   0  0  0  0  0  0  0  0  0  0  0  0
  147.2499  137.6352  151.5775 H   0  0  0  0  0  0  0  0  0  0  0  0
  147.6093  140.0291  152.2953 H   0  0  0  0  0  0  0  0  0  0  0  0
  146.4453  139.7968  153.5906 H   0  0  0  0  0  0  0  0  0  0  0  0
  148.9419  140.6600  153.9285 H   0  0  0  0  0  0  0  0  0  0  0  0
  148.4842  139.9509  155.4796 H   0  0  0  0  0  0  0  0  0  0  0  0
  151.4242  140.4319  156.0725 H   0  0  0  0  0  0  0  0  0  0  0  0
  153.4196  138.6232  155.5336 H   0  0  0  0  0  0  0  0  0  0  0  0
  152.2728  136.8785  153.7376 H   0  0  0  0  0  0  0  0  0  0  0  0
  146.5886  136.7199  153.8337 H   0  0  0  0  0  0  0  0  0  0  0  0
  145.0781  137.5949  153.7432 H   0  0  0  0  0  0  0  0  0  0  0  0
  143.6286  136.9526  151.4517 H   0  0  0  0  0  0  0  0  0  0  0  0
  144.2295  132.1027  150.6748 H   0  0  0  0  0  0  0  0  0  0  0  0
  147.4320  134.5009  153.6593 H   0  0  0  0  0  0  0  0  0  0  0  0
  1  2  1  0  0  0  0
  1 23  1  0  0  0  0
  2  3  1  0  0  0  0
  2 11  1  0  0  0  0
  2 24  1  0  0  0  0
  3  4  1  0  0  0  0
  3 25  1  0  0  0  0
  3 26  1  0  0  0  0
  4  5  1  0  0  0  0
  5  6  1  0  0  0  0
  5 27  1  0  0  0  0
  5 28  1  0  0  0  0
  6 10  1  0  0  0  0
  6  7  2  0  0  0  0
  7  8  1  0  0  0  0
  7 29  1  0  0  0  0
  8  9  2  0  0  0  0
  8 30  1  0  0  0  0
  9 10  1  0  0  0  0
  9 31  1  0  0  0  0
 11 12  1  0  0  0  0
 11 32  1  0  0  0  0
 11 33  1  0  0  0  0
 12 22  1  0  0  0  0
 12 13  1  0  0  0  0
 13 14  2  0  0  0  0
 13 34  1  0  0  0  0
 14 15  1  0  0  0  0
 15 22  2  0  0  0  0
 15 16  1  0  0  0  0
 16 17  2  0  0  0  0
 16 35  1  0  0  0  0
 17 18  1  0  0  0  0
 17 19  1  0  0  0  0
 19 20  1  0  0  0  0
 19 21  2  0  0  0  0
 21 22  1  0  0  0  0
 21 36  1  0  0  0  0
M  END
> <s_m_source_file>
AV-unprocessed.smi

> <i_m_source_file_index>
1880

> <i_lp_mmshare_version>
43012

> <i_f3d_flags>
0

> <s_epik_input>
W2NIXTFjKEYpYyhGKVtjSF1jKGMxMiluKFtjSF1uMilbQ0gyXVtDQEhdKFtPSF0pW0NIMl1PW0NIMl1jM1tjSF1bY0hdW2NIXW8z

> <s_epik_cmdline>
J2VwaWtfcHl0aG9uJywgJy1waCcsICc3LjAnLCAnLXRuJywgJzgnLCAnLW1hJywgJzIwMCcsICctbWV0YWxfYmluZGluZycsICctaW1hZScsICc8aW5maWxlLm1hZT4nLCAnLW9tYWUnLCAnPG91dGZpbGUubWFlPic=

> <r_epik_Ionization_Penalty>
0.0152348

> <r_epik_Ionization_Penalty_Charging>
0

> <r_epik_Ionization_Penalty_Neutral>
0.0152348

> <r_epik_State_Penalty>
0.0119607

> <r_epik_Charging_Adjusted_Penalty>
0.0119607

> <i_epik_Tot_Q>
0

> <i_epik_Tot_abs_Q>
0

> <r_epik_Metal_State_Penalty>
1.20821e-05

> <b_epik_Metal_Only>
0

> <s_lp_Force_Field>
OPLS_2005

> <r_lp_Energy>
7.94545

> <b_lp_Chiralities_Consistent>
1

> <s_lp_Variant>
AV-unprocessed.smi:1880-2

> <Gold.Version>
5.8.1

> <Gold.Id.Protein>
6NUR|6NUR_protein|mol2

> <Gold.PLP.Fitness>
45.9372

> <Gold.PLP.PLP>
-38.4540

> <Gold.PLP.part.hbond>
-1.0690

> <Gold.PLP.part.metal>
0.0000

> <Gold.PLP.part.buried>
-1.1788

> <Gold.PLP.part.nonpolar>
-36.2877

> <Gold.PLP.part.repulsive>
0.6927

> <Gold.PLP.ligand.clash>
0.0000

> <Gold.PLP.ligand.torsion>
0.4438

> <Gold.PLP.Chemscore.Hbond>
1.0000

> <Gold.PLP.Chemscore.CHOScore>
1.7754

> <Gold.PLP.Chemscore.Metal>
0.0000

> <Gold.Chemscore.Hbonds>
donor molecule, donor type, donor heavy atom, donor atom, acceptor molecule, acceptor atom, score
      L1  H     1    23       P1 10175  1.00
      L1  C     9    31       P1  7949  0.58
      L1  C    13    34       P1 10171  1.00

> <Gold.PLP.Chemscore.Internal.Correction>
0.0446

> <Gold.Rescore>
     Score         DG    S(hbond)    S(metal)    S(lipo)     H(rot)  DE(clash)    DE(int)     intcor
     10.15     -11.99       0.99        0.00      89.80       2.85       0.30       1.53       ----

> <Gold.Chemscore.Fitness>
10.1532

> <Gold.Chemscore.DG>
-11.9857

> <Gold.Chemscore.ZeroCoef>
-5.4800

> <Gold.Chemscore.Hbond>
0.9880

> <Gold.Chemscore.Metal>
0.0000

> <Gold.Chemscore.Lipo>
89.7967

> <Gold.Chemscore.Internal_Hbond>
0.0000

> <Gold.Chemscore.DEClash>
0.2978

> <Gold.Chemscore.DEInternal>
1.5347

> <Gold.Chemscore.Rot>
2.8518

> <Gold.Chemscore.Internal.Correction>
   9.000000E+99

> <Gold.Chemscore.Hbonds>
donor molecule, donor type, donor heavy atom, donor atom, acceptor molecule, acceptor atom, score
      L1  H     1    23       P1 10175  0.98

> <Gold.Chemscore.Hbond.Weighted>
-3.3000

> <Gold.Chemscore.Metal.Weighted>
-0.0000

> <Gold.Chemscore.Lipo.Weighted>
-10.5062

> <Gold.Chemscore.Internal_Hbond.Weighted>
0.0000

> <Gold.Chemscore.DEClash.Weighted>
0.2978

> <Gold.Chemscore.DEInternal.Weighted>
1.5347

> <Gold.Chemscore.Rot.Weighted>
7.3005

> <Gold.Chemscore.Internal.Correction.Weighted>
   9.000000E+99

> <Gold.Protein.RotatedTorsions>
[ 6907 6896 6895 6894 ] final  -80.57 input  -60.11 | X-H torsion
[ 7974 7965 7964 7962 ] final -146.70 input  175.53 | X-H torsion
[ 8008 7997 7996 7995 ] final  -51.49 input   59.86 | X-H torsion
[ 10167 10162 10161 10158 ] final   99.73 input  -65.29 | X-H torsion
[ 10718 10713 10712 10709 ] final -120.23 input   66.30 | X-H torsion
[ 10763 10752 10751 10750 ] final -142.32 input  -60.55 | X-H torsion
[ 11005 11000 10999 10996 ] final   -0.13 input  -57.11 | X-H torsion

> <Gold.Protein.ActiveResidues>
 VAL166  LYS551  ARG553  GLY616  TRP617  ASP618  TYR619  PRO620  LYS621  CYS622 
 ASP623  PHE694  ASN695  SER759  ASP760  ASP761  ALA762  ILE779  LEU786  VAL792 
 PHE793  MET794  SER795  GLU796  ALA797  LYS798  CYS799  TRP800  GLU811  SER814 

> <Gold.Protein.RotatedAtoms>
  150.6927  134.3949  159.5092 H   0  0  0  0  0  0  0  0  0  0  0  0  # atno 6907 bound_to 6896
  152.1732  134.8814  160.0542 H   0  0  0  0  0  0  0  0  0  0  0  0  # atno 6908 bound_to 6896
  151.9833  133.3730  159.4152 H   0  0  0  0  0  0  0  0  0  0  0  0  # atno 6909 bound_to 6896
  144.8142  140.5422  143.5622 H   0  0  0  0  0  0  0  0  0  0  0  0  # atno 7974 bound_to 7965
  154.4084  140.1247  156.4837 H   0  0  0  0  0  0  0  0  0  0  0  0  # atno 8008 bound_to 7997
  155.7059  140.3494  155.4933 H   0  0  0  0  0  0  0  0  0  0  0  0  # atno 8009 bound_to 7997
  155.9343  140.1075  157.1097 H   0  0  0  0  0  0  0  0  0  0  0  0  # atno 8010 bound_to 7997
  139.7590  144.6960  151.0319 H   0  0  0  0  0  0  0  0  0  0  0  0  # atno 10167 bound_to 10162
  156.1242  130.6346  150.9515 H   0  0  0  0  0  0  0  0  0  0  0  0  # atno 10718 bound_to 10713
  154.8513  135.3499  154.6009 H   0  0  0  0  0  0  0  0  0  0  0  0  # atno 10763 bound_to 10752
  153.6618  135.6989  153.5180 H   0  0  0  0  0  0  0  0  0  0  0  0  # atno 10764 bound_to 10752
  153.2812  135.4263  155.1037 H   0  0  0  0  0  0  0  0  0  0  0  0  # atno 10765 bound_to 10752
  140.6329  133.9559  155.8284 H   0  0  0  0  0  0  0  0  0  0  0  0  # atno 11005 bound_to 11000
  145.5254  139.1476  143.3529 LP  0  0  0  0  0  0  0  0  0  0  0  0  # atno 17320 bound_to 7965
  146.2443  140.5395  142.8920 LP  0  0  0  0  0  0  0  0  0  0  0  0  # atno 17321 bound_to 7965
  140.7805  143.4719  151.0135 LP  0  0  0  0  0  0  0  0  0  0  0  0  # atno 17342 bound_to 10162
  139.8405  143.7570  152.3180 LP  0  0  0  0  0  0  0  0  0  0  0  0  # atno 17343 bound_to 10162
  157.6425  131.0908  150.8222 LP  0  0  0  0  0  0  0  0  0  0  0  0  # atno 17370 bound_to 10713
  156.8315  130.5017  149.5331 LP  0  0  0  0  0  0  0  0  0  0  0  0  # atno 17371 bound_to 10713
  141.0662  134.0273  157.3590 LP  0  0  0  0  0  0  0  0  0  0  0  0  # atno 17394 bound_to 11000
  139.9109  135.0190  156.7687 LP  0  0  0  0  0  0  0  0  0  0  0  0  # atno 17395 bound_to 11000

$$$$
