AV-unprocessed.smi:1599|AV-procd|sdf|6423|dock1
  -GOLD-   22720 7 63D 1   1.00000     0.00000
 Structure written by MMmdl.
 39 40  0  0  0  0  0  0  0  0  1 V2000
  151.6701  145.7444  159.8396 C   0  0  0  0  0  0  0  0  0  0  0  0
  152.1391  144.3761  159.3213 C   0  0  2  0  0  0  0  0  0  0  0  0
  151.3069  144.0020  158.1800 N   0  0  0  0  0  0  0  0  0  0  0  0
  151.2508  142.7850  157.6199 C   0  0  0  0  0  0  0  0  0  0  0  0
  151.9213  141.8251  158.0000 O   0  0  0  0  0  0  0  0  0  0  0  0
  150.3716  142.7578  156.6051 N   0  0  0  0  0  0  0  0  0  0  0  0
  150.0402  141.6515  155.7830 C   0  0  0  0  0  0  0  0  0  0  0  0
  149.0594  141.6701  154.7578 C   0  0  0  0  0  0  0  0  0  0  0  0
  148.9715  140.4931  154.1571 N   0  0  0  0  0  0  0  0  0  0  0  0
  149.8872  139.7099  154.7814 N   0  0  0  0  0  0  0  0  0  0  0  0
  150.0621  138.3314  154.3601 C   0  0  0  0  0  0  0  0  0  0  0  0
  151.2547  137.6833  155.0658 C   0  0  0  0  0  0  0  0  0  0  0  0
  151.1463  137.4771  156.3812 N   0  0  0  0  0  0  0  0  0  0  0  0
  152.2619  137.3754  154.4323 O   0  0  0  0  0  0  0  0  0  0  0  0
  150.5577  140.3869  155.7813 C   0  0  0  0  0  0  0  0  0  0  0  0
  152.0626  143.2821  160.4068 C   0  0  2  0  0  0  0  0  0  0  0  0
  152.2272  143.7893  161.8405 C   0  0  0  0  0  0  0  0  0  0  0  0
  152.7503  142.5771  162.5957 C   0  0  0  0  0  0  0  0  0  0  0  0
  153.1973  141.6142  161.4930 C   0  0  0  0  0  0  0  0  0  0  0  0
  153.1505  142.3768  160.2961 O   0  0  0  0  0  0  0  0  0  0  0  0
  152.2998  146.0976  160.6563 H   0  0  0  0  0  0  0  0  0  0  0  0
  150.6437  145.7004  160.2057 H   0  0  0  0  0  0  0  0  0  0  0  0
  151.7110  146.4967  159.0512 H   0  0  0  0  0  0  0  0  0  0  0  0
  153.1768  144.4830  158.9998 H   0  0  0  0  0  0  0  0  0  0  0  0
  150.7164  144.7253  157.7968 H   0  0  0  0  0  0  0  0  0  0  0  0
  149.8831  143.6178  156.4035 H   0  0  0  0  0  0  0  0  0  0  0  0
  148.4219  142.4803  154.4355 H   0  0  0  0  0  0  0  0  0  0  0  0
  149.1498  137.7788  154.5884 H   0  0  0  0  0  0  0  0  0  0  0  0
  150.1987  138.2920  153.2781 H   0  0  0  0  0  0  0  0  0  0  0  0
  151.9125  137.0598  156.8901 H   0  0  0  0  0  0  0  0  0  0  0  0
  150.3015  137.7475  156.8635 H   0  0  0  0  0  0  0  0  0  0  0  0
  151.3231  139.9142  156.3789 H   0  0  0  0  0  0  0  0  0  0  0  0
  151.1294  142.7218  160.3177 H   0  0  0  0  0  0  0  0  0  0  0  0
  152.9706  144.5871  161.8747 H   0  0  0  0  0  0  0  0  0  0  0  0
  151.2982  144.1780  162.2589 H   0  0  0  0  0  0  0  0  0  0  0  0
  153.5779  142.8544  163.2495 H   0  0  0  0  0  0  0  0  0  0  0  0
  151.9735  142.1222  163.2111 H   0  0  0  0  0  0  0  0  0  0  0  0
  154.1969  141.2140  161.6643 H   0  0  0  0  0  0  0  0  0  0  0  0
  152.5041  140.7759  161.4113 H   0  0  0  0  0  0  0  0  0  0  0  0
  1  2  1  0  0  0  0
  1 21  1  0  0  0  0
  1 22  1  0  0  0  0
  1 23  1  0  0  0  0
  2  3  1  0  0  0  0
  2 16  1  0  0  0  0
  2 24  1  0  0  0  0
  3  4  1  0  0  0  0
  3 25  1  0  0  0  0
  4  5  2  0  0  0  0
  4  6  1  0  0  0  0
  6  7  1  0  0  0  0
  6 26  1  0  0  0  0
  7 15  2  0  0  0  0
  7  8  1  0  0  0  0
  8  9  2  0  0  0  0
  8 27  1  0  0  0  0
  9 10  1  0  0  0  0
 10 11  1  0  0  0  0
 10 15  1  0  0  0  0
 11 12  1  0  0  0  0
 11 28  1  0  0  0  0
 11 29  1  0  0  0  0
 12 13  1  0  0  0  0
 12 14  2  0  0  0  0
 13 30  1  0  0  0  0
 13 31  1  0  0  0  0
 15 32  1  0  0  0  0
 16 20  1  0  0  0  0
 16 17  1  0  0  0  0
 16 33  1  0  0  0  0
 17 18  1  0  0  0  0
 17 34  1  0  0  0  0
 17 35  1  0  0  0  0
 18 19  1  0  0  0  0
 18 36  1  0  0  0  0
 18 37  1  0  0  0  0
 19 20  1  0  0  0  0
 19 38  1  0  0  0  0
 19 39  1  0  0  0  0
M  END
> <s_m_source_file>
AV-unprocessed.smi

> <i_m_source_file_index>
1599

> <i_lp_mmshare_version>
43012

> <i_f3d_flags>
0

> <s_epik_input>
TzFbQ0gyXVtDSDJdW0NIMl1bQ0BIXTFbQ0BIXShbQ0gzXSlbTkhdQyg9TylbTkhdYzJbY0hdbm4oW2NIXTIpW0NIMl1DKD1PKVtOSDJd

> <s_epik_cmdline>
J2VwaWtfcHl0aG9uJywgJy1waCcsICc3LjAnLCAnLXRuJywgJzgnLCAnLW1hJywgJzIwMCcsICctbWV0YWxfYmluZGluZycsICctaW1hZScsICc8aW5maWxlLm1hZT4nLCAnLW9tYWUnLCAnPG91dGZpbGUubWFlPic=

> <r_lp_tautomer_probability>
1

> <r_epik_Ionization_Penalty>
4.15391e-05

> <r_epik_Ionization_Penalty_Charging>
0

> <r_epik_Ionization_Penalty_Neutral>
4.15391e-05

> <r_epik_State_Penalty>
-0

> <r_epik_Charging_Adjusted_Penalty>
0

> <i_epik_Tot_Q>
0

> <i_epik_Tot_abs_Q>
0

> <r_epik_Metal_State_Penalty>
-0

> <b_epik_Metal_Only>
0

> <s_lp_Force_Field>
OPLS_2005

> <r_lp_Energy>
20.6042

> <b_lp_Chiralities_Consistent>
1

> <s_lp_Variant>
AV-unprocessed.smi:1599-1

> <Gold.Version>
5.8.1

> <Gold.Id.Protein>
6NUR|6NUR_protein|mol2

> <Gold.PLP.Fitness>
53.0097

> <Gold.PLP.PLP>
-47.7294

> <Gold.PLP.part.hbond>
-2.0000

> <Gold.PLP.part.metal>
0.0000

> <Gold.PLP.part.buried>
-5.3518

> <Gold.PLP.part.nonpolar>
-41.0140

> <Gold.PLP.part.repulsive>
0.9104

> <Gold.PLP.ligand.clash>
0.0000

> <Gold.PLP.ligand.torsion>
1.1749

> <Gold.PLP.Chemscore.Hbond>
1.8320

> <Gold.PLP.Chemscore.CHOScore>
0.6929

> <Gold.PLP.Chemscore.Metal>
0.0000

> <Gold.Chemscore.Hbonds>
donor molecule, donor type, donor heavy atom, donor atom, acceptor molecule, acceptor atom, score
      L1  H     6    26       P1  8028  1.00
      P1  H 10752 10763       L1    14  0.70
      L1  C     8    27       P1  8028  0.63

> <Gold.PLP.Chemscore.Internal.Correction>
0.0554

> <Gold.Rescore>
     Score         DG    S(hbond)    S(metal)    S(lipo)     H(rot)  DE(clash)    DE(int)     intcor
     13.96     -17.62       1.89        0.00      99.87       2.28       0.18       3.48       ----

> <Gold.Chemscore.Fitness>
13.9601

> <Gold.Chemscore.DG>
-17.6240

> <Gold.Chemscore.ZeroCoef>
-5.4800

> <Gold.Chemscore.Hbond>
1.8869

> <Gold.Chemscore.Metal>
0.0000

> <Gold.Chemscore.Lipo>
99.8654

> <Gold.Chemscore.Internal_Hbond>
0.0000

> <Gold.Chemscore.DEClash>
0.1813

> <Gold.Chemscore.DEInternal>
3.4826

> <Gold.Chemscore.Rot>
2.2823

> <Gold.Chemscore.Internal.Correction>
   9.000000E+99

> <Gold.Chemscore.Hbonds>
donor molecule, donor type, donor heavy atom, donor atom, acceptor molecule, acceptor atom, score
      L1  H     6    26       P1  8028  1.00
      P1  H 10752 10763       L1    14  0.72

> <Gold.Chemscore.Hbond.Weighted>
-6.3024

> <Gold.Chemscore.Metal.Weighted>
-0.0000

> <Gold.Chemscore.Lipo.Weighted>
-11.6843

> <Gold.Chemscore.Internal_Hbond.Weighted>
0.0000

> <Gold.Chemscore.DEClash.Weighted>
0.1813

> <Gold.Chemscore.DEInternal.Weighted>
3.4826

> <Gold.Chemscore.Rot.Weighted>
5.8427

> <Gold.Chemscore.Internal.Correction.Weighted>
   9.000000E+99

> <Gold.Protein.RotatedTorsions>
[ 6907 6896 6895 6894 ] final -173.60 input  -60.11 | X-H torsion
[ 7974 7965 7964 7962 ] final  -99.82 input  175.53 | X-H torsion
[ 8008 7997 7996 7995 ] final   36.56 input   59.86 | X-H torsion
[ 10167 10162 10161 10158 ] final   74.94 input  -65.29 | X-H torsion
[ 10718 10713 10712 10709 ] final  123.62 input   66.30 | X-H torsion
[ 10763 10752 10751 10750 ] final   26.85 input  -60.55 | X-H torsion
[ 11005 11000 10999 10996 ] final  -33.01 input  -57.11 | X-H torsion

> <Gold.Protein.ActiveResidues>
 VAL166  LYS551  ARG553  GLY616  TRP617  ASP618  TYR619  PRO620  LYS621  CYS622 
 ASP623  PHE694  ASN695  SER759  ASP760  ASP761  ALA762  ILE779  LEU786  VAL792 
 PHE793  MET794  SER795  GLU796  ALA797  LYS798  CYS799  TRP800  GLU811  SER814 

> <Gold.Protein.RotatedAtoms>
  151.5587  133.3406  159.2966 H   0  0  0  0  0  0  0  0  0  0  0  0  # atno 6907 bound_to 6896
  150.8435  134.7739  159.6963 H   0  0  0  0  0  0  0  0  0  0  0  0  # atno 6908 bound_to 6896
  152.4498  134.5426  159.9895 H   0  0  0  0  0  0  0  0  0  0  0  0  # atno 6909 bound_to 6896
  145.3025  140.9381  143.2815 H   0  0  0  0  0  0  0  0  0  0  0  0  # atno 7974 bound_to 7965
  155.1894  140.3306  155.4361 H   0  0  0  0  0  0  0  0  0  0  0  0  # atno 8008 bound_to 7997
  156.2448  140.1913  156.6938 H   0  0  0  0  0  0  0  0  0  0  0  0  # atno 8009 bound_to 7997
  154.6216  140.0594  156.9608 H   0  0  0  0  0  0  0  0  0  0  0  0  # atno 8010 bound_to 7997
  140.0083  144.5633  150.7679 H   0  0  0  0  0  0  0  0  0  0  0  0  # atno 10167 bound_to 10162
  157.5650  131.1087  150.8471 H   0  0  0  0  0  0  0  0  0  0  0  0  # atno 10718 bound_to 10713
  153.0595  135.6550  154.0497 H   0  0  0  0  0  0  0  0  0  0  0  0  # atno 10763 bound_to 10752
  154.0168  135.2923  155.3387 H   0  0  0  0  0  0  0  0  0  0  0  0  # atno 10764 bound_to 10752
  154.6926  135.5276  153.8481 H   0  0  0  0  0  0  0  0  0  0  0  0  # atno 10765 bound_to 10752
  140.9599  133.7170  156.1353 H   0  0  0  0  0  0  0  0  0  0  0  0  # atno 11005 bound_to 11000
  144.9082  139.4563  143.6600 LP  0  0  0  0  0  0  0  0  0  0  0  0  # atno 17320 bound_to 7965
  146.3147  139.7874  142.8993 LP  0  0  0  0  0  0  0  0  0  0  0  0  # atno 17321 bound_to 7965
  140.7391  143.2787  151.3663 LP  0  0  0  0  0  0  0  0  0  0  0  0  # atno 17342 bound_to 10162
  139.6223  144.0883  152.2402 LP  0  0  0  0  0  0  0  0  0  0  0  0  # atno 17343 bound_to 10162
  156.8958  130.5229  149.5284 LP  0  0  0  0  0  0  0  0  0  0  0  0  # atno 17370 bound_to 10713
  156.0699  130.5734  150.9362 LP  0  0  0  0  0  0  0  0  0  0  0  0  # atno 17371 bound_to 10713
  140.7482  134.4074  157.5545 LP  0  0  0  0  0  0  0  0  0  0  0  0  # atno 17394 bound_to 11000
  139.8874  134.8882  156.2528 LP  0  0  0  0  0  0  0  0  0  0  0  0  # atno 17395 bound_to 11000

$$$$
