AV-unprocessed.smi:1648|AV-procd|sdf|6634|dock4
  -GOLD-   22720 7333D 1   1.00000     0.00000
 Structure written by MMmdl.
 41 41  0  0  0  0  0  0  0  0  1 V2000
  147.6270  134.7865  161.6688 C   0  0  0  0  0  0  0  0  0  0  0  0
  147.7943  136.0196  160.7788 C   0  0  0  0  0  0  0  0  0  0  0  0
  147.6259  137.1376  161.2597 O   0  0  0  0  0  0  0  0  0  0  0  0
  148.1338  135.8593  159.4879 N   0  0  0  0  0  0  0  0  0  0  0  0
  148.3391  136.9084  158.4859 C   0  0  1  0  0  0  0  0  0  0  0  0
  149.5941  137.7032  158.8899 C   0  0  0  0  0  0  0  0  0  0  0  0
  150.3497  137.2733  159.7629 O   0  0  0  0  0  0  0  0  0  0  0  0
  149.7993  138.8608  158.2413 N   0  0  0  0  0  0  0  0  0  0  0  0
  150.9073  139.7857  158.4748 C   0  0  1  0  0  0  0  0  0  0  0  0
  152.2296  139.0450  158.2350 C   0  0  0  0  0  0  0  0  0  0  0  0
  150.7875  141.0307  157.5691 C   0  0  0  0  0  0  0  0  0  0  0  0
  151.5192  142.1748  158.0834 N   0  0  0  0  0  0  0  0  0  0  0  0
  151.4521  143.4860  157.6303 C   0  0  0  0  0  0  0  0  0  0  0  0
  152.3233  144.2158  158.4069 C   0  0  0  0  0  0  0  0  0  0  0  0
  152.9206  143.3831  159.3504 N   0  0  0  0  0  0  0  0  0  0  0  0
  152.3897  142.1932  159.1023 C   0  0  0  0  0  0  0  0  0  0  0  0
  148.5583  136.2412  157.0960 C   0  0  0  0  0  0  0  0  0  0  0  0
  149.8424  135.3874  157.0352 C   0  0  0  0  0  0  0  0  0  0  0  0
  148.5913  137.2824  155.9599 C   0  0  0  0  0  0  0  0  0  0  0  0
  146.9482  134.0627  161.2189 H   0  0  0  0  0  0  0  0  0  0  0  0
  147.2184  135.0676  162.6399 H   0  0  0  0  0  0  0  0  0  0  0  0
  148.5904  134.3040  161.8348 H   0  0  0  0  0  0  0  0  0  0  0  0
  148.3038  134.9142  159.1758 H   0  0  0  0  0  0  0  0  0  0  0  0
  147.4716  137.5684  158.4306 H   0  0  0  0  0  0  0  0  0  0  0  0
  149.1270  139.1298  157.5377 H   0  0  0  0  0  0  0  0  0  0  0  0
  150.9070  140.1082  159.5176 H   0  0  0  0  0  0  0  0  0  0  0  0
  153.0836  139.6956  158.4258 H   0  0  0  0  0  0  0  0  0  0  0  0
  152.3060  138.6886  157.2071 H   0  0  0  0  0  0  0  0  0  0  0  0
  152.3210  138.1819  158.8953 H   0  0  0  0  0  0  0  0  0  0  0  0
  151.1780  140.8094  156.5749 H   0  0  0  0  0  0  0  0  0  0  0  0
  149.7408  141.3094  157.4377 H   0  0  0  0  0  0  0  0  0  0  0  0
  150.8169  143.7804  156.8079 H   0  0  0  0  0  0  0  0  0  0  0  0
  152.5619  145.2681  158.3621 H   0  0  0  0  0  0  0  0  0  0  0  0
  152.6461  141.3130  159.6729 H   0  0  0  0  0  0  0  0  0  0  0  0
  147.7175  135.5758  156.8911 H   0  0  0  0  0  0  0  0  0  0  0  0
  150.7231  135.9821  157.2791 H   0  0  0  0  0  0  0  0  0  0  0  0
  149.9903  134.9731  156.0376 H   0  0  0  0  0  0  0  0  0  0  0  0
  149.8090  134.5426  157.7235 H   0  0  0  0  0  0  0  0  0  0  0  0
  149.3925  138.0062  156.1112 H   0  0  0  0  0  0  0  0  0  0  0  0
  147.6542  137.8340  155.8844 H   0  0  0  0  0  0  0  0  0  0  0  0
  148.7552  136.8043  154.9938 H   0  0  0  0  0  0  0  0  0  0  0  0
  1  2  1  0  0  0  0
  1 20  1  0  0  0  0
  1 21  1  0  0  0  0
  1 22  1  0  0  0  0
  2  3  2  0  0  0  0
  2  4  1  0  0  0  0
  4  5  1  0  0  0  0
  4 23  1  0  0  0  0
  5  6  1  0  0  0  0
  5 17  1  0  0  0  0
  5 24  1  0  0  0  0
  6  7  2  0  0  0  0
  6  8  1  0  0  0  0
  8  9  1  0  0  0  0
  8 25  1  0  0  0  0
  9 10  1  0  0  0  0
  9 11  1  0  0  0  0
  9 26  1  0  0  0  0
 10 27  1  0  0  0  0
 10 28  1  0  0  0  0
 10 29  1  0  0  0  0
 11 12  1  0  0  0  0
 11 30  1  0  0  0  0
 11 31  1  0  0  0  0
 12 16  1  0  0  0  0
 12 13  1  0  0  0  0
 13 14  2  0  0  0  0
 13 32  1  0  0  0  0
 14 15  1  0  0  0  0
 14 33  1  0  0  0  0
 15 16  2  0  0  0  0
 16 34  1  0  0  0  0
 17 18  1  0  0  0  0
 17 19  1  0  0  0  0
 17 35  1  0  0  0  0
 18 36  1  0  0  0  0
 18 37  1  0  0  0  0
 18 38  1  0  0  0  0
 19 39  1  0  0  0  0
 19 40  1  0  0  0  0
 19 41  1  0  0  0  0
M  END
> <s_m_source_file>
AV-unprocessed.smi

> <i_m_source_file_index>
1648

> <i_lp_mmshare_version>
43012

> <i_f3d_flags>
0

> <s_epik_input>
W0NIM11DKD1PKVtOSF1bQ0BASF0oW0NIXShbQ0gzXSlbQ0gzXSlDKD1PKVtOSF1bQ0BIXShbQ0gzXSlbQ0gyXW4xW2NIXVtjSF1uW2NIXTE=

> <s_epik_cmdline>
J2VwaWtfcHl0aG9uJywgJy1waCcsICc3LjAnLCAnLXRuJywgJzgnLCAnLW1hJywgJzIwMCcsICctbWV0YWxfYmluZGluZycsICctaW1hZScsICc8aW5maWxlLm1hZT4nLCAnLW9tYWUnLCAnPG91dGZpbGUubWFlPic=

> <r_lp_tautomer_probability>
1

> <r_epik_Ionization_Penalty>
0.628885

> <r_epik_Ionization_Penalty_Charging>
0.628884

> <r_epik_Ionization_Penalty_Neutral>
4.35155e-07

> <r_epik_State_Penalty>
0.64556

> <r_epik_Charging_Adjusted_Penalty>
1.27444

> <i_epik_Tot_Q>
0

> <i_epik_Tot_abs_Q>
0

> <r_epik_Metal_State_Penalty>
0.30874

> <b_epik_Metal_Only>
0

> <s_lp_Force_Field>
OPLS_2005

> <r_lp_Energy>
9.11872

> <b_lp_Chiralities_Consistent>
1

> <s_lp_Variant>
AV-unprocessed.smi:1648-8

> <Gold.Version>
5.8.1

> <Gold.Id.Protein>
6NUR|6NUR_protein|mol2

> <Gold.PLP.Fitness>
39.4524

> <Gold.PLP.PLP>
-31.0140

> <Gold.PLP.part.hbond>
-3.0136

> <Gold.PLP.part.metal>
0.0000

> <Gold.PLP.part.buried>
-5.8194

> <Gold.PLP.part.nonpolar>
-22.5254

> <Gold.PLP.part.repulsive>
0.2791

> <Gold.PLP.ligand.clash>
0.0000

> <Gold.PLP.ligand.torsion>
0.7176

> <Gold.PLP.Chemscore.Hbond>
2.2460

> <Gold.PLP.Chemscore.CHOScore>
1.0000

> <Gold.PLP.Chemscore.Metal>
0.0000

> <Gold.Chemscore.Hbonds>
donor molecule, donor type, donor heavy atom, donor atom, acceptor molecule, acceptor atom, score
      P1  H  6896  6907       L1     7  0.28
      P1  H  6931  6943       L1     3  0.96
      P1  H  6934  6947       L1     3  0.88
      L1  C    13    32       P1  8028  1.00

> <Gold.PLP.Chemscore.Internal.Correction>
0.1356

> <Gold.Rescore>
     Score         DG    S(hbond)    S(metal)    S(lipo)     H(rot)  DE(clash)    DE(int)     intcor
     13.77     -14.86       2.77        0.00      56.35       2.52       0.00       1.08       ----

> <Gold.Chemscore.Fitness>
13.7743

> <Gold.Chemscore.DG>
-14.8576

> <Gold.Chemscore.ZeroCoef>
-5.4800

> <Gold.Chemscore.Hbond>
2.7665

> <Gold.Chemscore.Metal>
0.0000

> <Gold.Chemscore.Lipo>
56.3474

> <Gold.Chemscore.Internal_Hbond>
0.0000

> <Gold.Chemscore.DEClash>
0.0009

> <Gold.Chemscore.DEInternal>
1.0824

> <Gold.Chemscore.Rot>
2.5216

> <Gold.Chemscore.Internal.Correction>
   9.000000E+99

> <Gold.Chemscore.Hbonds>
donor molecule, donor type, donor heavy atom, donor atom, acceptor molecule, acceptor atom, score
      P1  H  6896  6907       L1     7  0.29
      P1  H  6931  6943       L1     3  0.92
      P1  H  6934  6947       L1     3  0.85

> <Gold.Chemscore.Hbond.Weighted>
-9.2403

> <Gold.Chemscore.Metal.Weighted>
-0.0000

> <Gold.Chemscore.Lipo.Weighted>
-6.5926

> <Gold.Chemscore.Internal_Hbond.Weighted>
0.0000

> <Gold.Chemscore.DEClash.Weighted>
0.0009

> <Gold.Chemscore.DEInternal.Weighted>
1.0824

> <Gold.Chemscore.Rot.Weighted>
6.4553

> <Gold.Chemscore.Internal.Correction.Weighted>
   9.000000E+99

> <Gold.Protein.RotatedTorsions>
[ 6907 6896 6895 6894 ] final  -22.74 input  -60.11 | X-H torsion
[ 7974 7965 7964 7962 ] final  146.26 input  175.53 | X-H torsion
[ 8008 7997 7996 7995 ] final  -51.58 input   59.86 | X-H torsion
[ 10167 10162 10161 10158 ] final -117.84 input  -65.29 | X-H torsion
[ 10718 10713 10712 10709 ] final   26.80 input   66.30 | X-H torsion
[ 10763 10752 10751 10750 ] final -111.28 input  -60.55 | X-H torsion
[ 11005 11000 10999 10996 ] final  -47.69 input  -57.11 | X-H torsion

> <Gold.Protein.ActiveResidues>
 VAL166  LYS551  ARG553  GLY616  TRP617  ASP618  TYR619  PRO620  LYS621  CYS622 
 ASP623  PHE694  ASN695  SER759  ASP760  ASP761  ALA762  ILE779  LEU786  VAL792 
 PHE793  MET794  SER795  GLU796  ALA797  LYS798  CYS799  TRP800  GLU811  SER814 

> <Gold.Protein.RotatedAtoms>
  151.2142  135.0493  159.8923 H   0  0  0  0  0  0  0  0  0  0  0  0  # atno 6907 bound_to 6896
  152.5422  134.0711  159.8205 H   0  0  0  0  0  0  0  0  0  0  0  0  # atno 6908 bound_to 6896
  151.0869  133.5298  159.2649 H   0  0  0  0  0  0  0  0  0  0  0  0  # atno 6909 bound_to 6896
  144.8685  139.5883  143.5897 H   0  0  0  0  0  0  0  0  0  0  0  0  # atno 7974 bound_to 7965
  154.4086  140.1244  156.4851 H   0  0  0  0  0  0  0  0  0  0  0  0  # atno 8008 bound_to 7997
  155.7046  140.3494  155.4928 H   0  0  0  0  0  0  0  0  0  0  0  0  # atno 8009 bound_to 7997
  155.9355  140.1077  157.1088 H   0  0  0  0  0  0  0  0  0  0  0  0  # atno 8010 bound_to 7997
  140.0639  143.4941  152.2016 H   0  0  0  0  0  0  0  0  0  0  0  0  # atno 10167 bound_to 10162
  157.2116  130.6937  149.6231 H   0  0  0  0  0  0  0  0  0  0  0  0  # atno 10718 bound_to 10713
  154.8292  135.4533  154.1014 H   0  0  0  0  0  0  0  0  0  0  0  0  # atno 10763 bound_to 10752
  153.2302  135.6904  153.7905 H   0  0  0  0  0  0  0  0  0  0  0  0  # atno 10764 bound_to 10752
  153.7290  135.3330  155.3258 H   0  0  0  0  0  0  0  0  0  0  0  0  # atno 10765 bound_to 10752
  141.0656  133.6695  156.3334 H   0  0  0  0  0  0  0  0  0  0  0  0  # atno 11005 bound_to 11000
  146.2913  139.7149  142.9158 LP  0  0  0  0  0  0  0  0  0  0  0  0  # atno 17320 bound_to 7965
  145.4175  141.0403  143.2983 LP  0  0  0  0  0  0  0  0  0  0  0  0  # atno 17321 bound_to 7965
  139.5877  144.7537  151.3480 LP  0  0  0  0  0  0  0  0  0  0  0  0  # atno 17342 bound_to 10162
  140.7158  143.7269  150.7653 LP  0  0  0  0  0  0  0  0  0  0  0  0  # atno 17343 bound_to 10162
  155.9690  130.4549  150.5868 LP  0  0  0  0  0  0  0  0  0  0  0  0  # atno 17370 bound_to 10713
  157.3666  131.0758  151.1592 LP  0  0  0  0  0  0  0  0  0  0  0  0  # atno 17371 bound_to 10713
  140.5780  134.5774  157.5473 LP  0  0  0  0  0  0  0  0  0  0  0  0  # atno 17394 bound_to 11000
  139.9473  134.7679  156.0531 LP  0  0  0  0  0  0  0  0  0  0  0  0  # atno 17395 bound_to 11000

$$$$
