AV-unprocessed.smi:3234|AV-procd|sdf|12358|dock4
  -GOLD-   2272018223D 1   1.00000     0.00000
 Structure written by MMmdl.
 37 39  0  0  0  0  0  0  0  0  4 V2000
  145.1580  138.1728  153.9272 O   0  0  0  0  0  0  0  0  0  0  0  0
  146.0632  137.6120  153.2984 C   0  0  0  0  0  0  0  0  0  0  0  0
  147.3320  138.0447  153.4055 N   0  0  0  0  0  0  0  0  0  0  0  0
  147.8352  139.1501  154.1422 C   0  0  0  0  0  0  0  0  0  0  0  0
  147.0433  140.3177  154.2041 C   0  0  0  0  0  0  0  0  0  0  0  0
  147.4999  141.4271  154.9442 C   0  0  0  0  0  0  0  0  0  0  0  0
  148.6799  141.3605  155.5975 N   0  3  0  0  0  0  0  0  0  0  0  0
  149.4616  140.2593  155.5830 C   0  0  0  0  0  0  0  0  0  0  0  0
  149.0576  139.1192  154.8596 C   0  0  0  0  0  0  0  0  0  0  0  0
  145.9537  136.5370  152.4714 N   0  5  0  0  0  0  0  0  0  0  0  0
  144.6869  135.9606  152.0165 C   0  0  2  0  0  0  0  0  0  0  0  0
  143.9846  135.1865  153.1329 C   0  0  0  0  0  0  0  0  0  0  0  0
  143.1376  134.1380  152.3954 C   0  0  0  0  0  0  0  0  0  0  0  0
  143.6497  134.0779  151.0061 N   0  3  2  0  0  0  0  0  0  0  0  0
  143.7882  132.7098  150.4624 C   0  0  0  0  0  0  0  0  0  0  0  0
  145.2017  132.1812  150.5134 C   0  0  0  0  0  0  0  0  0  0  0  0
  144.6116  132.6445  149.1989 C   0  0  0  0  0  0  0  0  0  0  0  0
  144.8887  134.8775  150.9559 C   0  0  0  0  0  0  0  0  0  0  0  0
  148.0258  137.4665  152.9540 H   0  0  0  0  0  0  0  0  0  0  0  0
  146.0980  140.3677  153.6830 H   0  0  0  0  0  0  0  0  0  0  0  0
  146.9591  142.3578  155.0346 H   0  0  0  0  0  0  0  0  0  0  0  0
  150.3774  140.3189  156.1524 H   0  0  0  0  0  0  0  0  0  0  0  0
  149.6813  138.2381  154.8749 H   0  0  0  0  0  0  0  0  0  0  0  0
  143.9984  136.7131  151.6280 H   0  0  0  0  0  0  0  0  0  0  0  0
  144.7144  134.6761  153.7642 H   0  0  0  0  0  0  0  0  0  0  0  0
  143.3859  135.8319  153.7762 H   0  0  0  0  0  0  0  0  0  0  0  0
  143.2071  133.1705  152.8956 H   0  0  0  0  0  0  0  0  0  0  0  0
  142.0835  134.4188  152.3717 H   0  0  0  0  0  0  0  0  0  0  0  0
  142.9423  132.0403  150.6094 H   0  0  0  0  0  0  0  0  0  0  0  0
  145.9688  132.8056  150.9685 H   0  0  0  0  0  0  0  0  0  0  0  0
  145.3320  131.1100  150.6521 H   0  0  0  0  0  0  0  0  0  0  0  0
  144.3536  131.8781  148.4708 H   0  0  0  0  0  0  0  0  0  0  0  0
  144.9873  133.5764  148.7801 H   0  0  0  0  0  0  0  0  0  0  0  0
  145.0581  135.2894  149.9605 H   0  0  0  0  0  0  0  0  0  0  0  0
  145.7411  134.2446  151.2112 H   0  0  0  0  0  0  0  0  0  0  0  0
  142.9767  134.5699  150.4363 H   0  0  0  0  0  0  0  0  0  0  0  0
  148.9913  142.1739  156.1288 H   0  0  0  0  0  0  0  0  0  0  0  0
  1  2  2  0  0  0  0
  2  3  1  0  0  0  0
  2 10  1  0  0  0  0
  3  4  1  0  0  0  0
  3 19  1  0  0  0  0
  4  9  1  0  0  0  0
  4  5  2  0  0  0  0
  5  6  1  0  0  0  0
  5 20  1  0  0  0  0
  6  7  2  0  0  0  0
  6 21  1  0  0  0  0
  7  8  1  0  0  0  0
  7 37  1  0  0  0  0
  8  9  2  0  0  0  0
  8 22  1  0  0  0  0
  9 23  1  0  0  0  0
 10 11  1  0  0  0  0
 11 18  1  0  0  0  0
 11 12  1  0  0  0  0
 11 24  1  0  0  0  0
 12 13  1  0  0  0  0
 12 25  1  0  0  0  0
 12 26  1  0  0  0  0
 13 14  1  0  0  0  0
 13 27  1  0  0  0  0
 13 28  1  0  0  0  0
 14 15  1  0  0  0  0
 14 18  1  0  0  0  0
 14 36  1  0  0  0  0
 15 17  1  0  0  0  0
 15 16  1  0  0  0  0
 15 29  1  0  0  0  0
 16 17  1  0  0  0  0
 16 30  1  0  0  0  0
 16 31  1  0  0  0  0
 17 32  1  0  0  0  0
 17 33  1  0  0  0  0
 18 34  1  0  0  0  0
 18 35  1  0  0  0  0
M  CHG  1   7   1
M  CHG  1  10  -1
M  CHG  1  14   1
M  END
> <s_m_source_file>
AV-unprocessed.smi

> <i_m_source_file_index>
3234

> <i_lp_mmshare_version>
43012

> <i_f3d_flags>
0

> <s_epik_input>
W2NIXTFbY0hdbltjSF1bY0hdYzFbTkhdQyg9TylbTkhdW0NAQEhdMltDSDJdW0NIMl1OKFtDSDJdMilbQ0hdM1tDSDJdW0NIMl0z

> <s_epik_cmdline>
J2VwaWtfcHl0aG9uJywgJy1waCcsICc3LjAnLCAnLXRuJywgJzgnLCAnLW1hJywgJzIwMCcsICctbWV0YWxfYmluZGluZycsICctaW1hZScsICc8aW5maWxlLm1hZT4nLCAnLW9tYWUnLCAnPG91dGZpbGUubWFlPic=

> <r_epik_Ionization_Penalty>
8.3234

> <r_epik_Ionization_Penalty_Charging>
8.3234

> <r_epik_Ionization_Penalty_Neutral>
3.58513e-06

> <r_epik_State_Penalty>
7.99376

> <r_epik_Charging_Adjusted_Penalty>
16.3172

> <i_epik_Tot_Q>
1

> <i_epik_Tot_abs_Q>
3

> <r_epik_Metal_State_Penalty>
3.98956

> <b_epik_Metal_Only>
1

> <s_lp_Force_Field>
OPLS_2005

> <r_lp_Energy>
39.7431

> <b_lp_Chiralities_Consistent>
1

> <s_lp_Variant>
AV-unprocessed.smi:3234-11

> <Gold.Version>
5.8.1

> <Gold.Id.Protein>
6NUR|6NUR_protein|mol2

> <Gold.PLP.Fitness>
45.9898

> <Gold.PLP.PLP>
-31.8252

> <Gold.PLP.part.hbond>
-3.0000

> <Gold.PLP.part.metal>
0.0000

> <Gold.PLP.part.buried>
-3.1406

> <Gold.PLP.part.nonpolar>
-29.2114

> <Gold.PLP.part.repulsive>
3.0801

> <Gold.PLP.ligand.clash>
0.0000

> <Gold.PLP.ligand.torsion>
1.0572

> <Gold.PLP.Chemscore.Hbond>
5.0000

> <Gold.PLP.Chemscore.CHOScore>
0.0000

> <Gold.PLP.Chemscore.Metal>
0.0000

> <Gold.Chemscore.Hbonds>
donor molecule, donor type, donor heavy atom, donor atom, acceptor molecule, acceptor atom, score
      L1  H     3    19       P1  7948  1.00
      L1  H    14    36       P1 10186  1.20

> <Gold.PLP.Chemscore.Internal.Correction>
1.2789

> <Gold.Rescore>
     Score         DG    S(hbond)    S(metal)    S(lipo)     H(rot)  DE(clash)    DE(int)     intcor
     16.61     -20.95       2.64        0.00      83.38       1.21       1.93       2.41       ----

> <Gold.Chemscore.Fitness>
16.6077

> <Gold.Chemscore.DG>
-20.9492

> <Gold.Chemscore.ZeroCoef>
-5.4800

> <Gold.Chemscore.Hbond>
2.6388

> <Gold.Chemscore.Metal>
0.0000

> <Gold.Chemscore.Lipo>
83.3787

> <Gold.Chemscore.Internal_Hbond>
0.0000

> <Gold.Chemscore.DEClash>
1.9344

> <Gold.Chemscore.DEInternal>
2.4071

> <Gold.Chemscore.Rot>
1.2108

> <Gold.Chemscore.Internal.Correction>
   9.000000E+99

> <Gold.Chemscore.Hbonds>
donor molecule, donor type, donor heavy atom, donor atom, acceptor molecule, acceptor atom, score
      L1  H     3    19       P1  7948  1.00
      L1  H    14    36       P1 10186  0.30

> <Gold.Chemscore.Hbond.Weighted>
-8.8135

> <Gold.Chemscore.Metal.Weighted>
-0.0000

> <Gold.Chemscore.Lipo.Weighted>
-9.7553

> <Gold.Chemscore.Internal_Hbond.Weighted>
0.0000

> <Gold.Chemscore.DEClash.Weighted>
1.9344

> <Gold.Chemscore.DEInternal.Weighted>
2.4071

> <Gold.Chemscore.Rot.Weighted>
3.0996

> <Gold.Chemscore.Internal.Correction.Weighted>
   9.000000E+99

> <Gold.Protein.RotatedTorsions>
[ 6907 6896 6895 6894 ] final  174.58 input  -60.11 | X-H torsion
[ 7974 7965 7964 7962 ] final -126.84 input  175.53 | X-H torsion
[ 8008 7997 7996 7995 ] final -114.67 input   59.86 | X-H torsion
[ 10167 10162 10161 10158 ] final  -21.57 input  -65.29 | X-H torsion
[ 10718 10713 10712 10709 ] final  -78.75 input   66.30 | X-H torsion
[ 10763 10752 10751 10750 ] final -125.67 input  -60.55 | X-H torsion
[ 11005 11000 10999 10996 ] final  -47.10 input  -57.11 | X-H torsion

> <Gold.Protein.ActiveResidues>
 VAL166  LYS551  ARG553  GLY616  TRP617  ASP618  TYR619  PRO620  LYS621  CYS622 
 ASP623  PHE694  ASN695  SER759  ASP760  ASP761  ALA762  ILE779  LEU786  VAL792 
 PHE793  MET794  SER795  GLU796  ALA797  LYS798  CYS799  TRP800  GLU811  SER814 

> <Gold.Protein.RotatedAtoms>
  151.7500  133.3327  159.3388 H   0  0  0  0  0  0  0  0  0  0  0  0  # atno 6907 bound_to 6896
  150.7539  134.6201  159.6140 H   0  0  0  0  0  0  0  0  0  0  0  0  # atno 6908 bound_to 6896
  152.3474  134.7054  160.0298 H   0  0  0  0  0  0  0  0  0  0  0  0  # atno 6909 bound_to 6896
  144.9832  140.7660  143.4599 H   0  0  0  0  0  0  0  0  0  0  0  0  # atno 7974 bound_to 7965
  155.0401  140.0392  157.2506 H   0  0  0  0  0  0  0  0  0  0  0  0  # atno 8008 bound_to 7997
  154.7224  140.2714  155.6505 H   0  0  0  0  0  0  0  0  0  0  0  0  # atno 8009 bound_to 7997
  156.2820  140.2700  156.1900 H   0  0  0  0  0  0  0  0  0  0  0  0  # atno 8010 bound_to 7997
  140.7282  143.4615  151.0373 H   0  0  0  0  0  0  0  0  0  0  0  0  # atno 10167 bound_to 10162
  156.0109  130.4527  150.3544 H   0  0  0  0  0  0  0  0  0  0  0  0  # atno 10718 bound_to 10713
  154.8738  135.4022  154.3305 H   0  0  0  0  0  0  0  0  0  0  0  0  # atno 10763 bound_to 10752
  153.4119  135.7021  153.6358 H   0  0  0  0  0  0  0  0  0  0  0  0  # atno 10764 bound_to 10752
  153.5057  135.3718  155.2532 H   0  0  0  0  0  0  0  0  0  0  0  0  # atno 10765 bound_to 10752
  141.0620  133.6706  156.3249 H   0  0  0  0  0  0  0  0  0  0  0  0  # atno 11005 bound_to 11000
  145.2391  139.2080  143.5002 LP  0  0  0  0  0  0  0  0  0  0  0  0  # atno 17320 bound_to 7965
  146.3413  140.2283  142.8593 LP  0  0  0  0  0  0  0  0  0  0  0  0  # atno 17321 bound_to 7965
  139.8300  143.7704  152.3179 LP  0  0  0  0  0  0  0  0  0  0  0  0  # atno 17342 bound_to 10162
  139.7816  144.7442  151.0080 LP  0  0  0  0  0  0  0  0  0  0  0  0  # atno 17343 bound_to 10162
  157.1635  131.0351  151.2829 LP  0  0  0  0  0  0  0  0  0  0  0  0  # atno 17370 bound_to 10713
  157.4290  130.7480  149.6975 LP  0  0  0  0  0  0  0  0  0  0  0  0  # atno 17371 bound_to 10713
  140.5850  134.5708  157.5487 LP  0  0  0  0  0  0  0  0  0  0  0  0  # atno 17394 bound_to 11000
  139.9441  134.7733  156.0605 LP  0  0  0  0  0  0  0  0  0  0  0  0  # atno 17395 bound_to 11000

$$$$
