AV-unprocessed.smi:2083|AV-procd|sdf|8501|dock6
  -GOLD-   2272011213D 1   1.00000     0.00000
 Structure written by MMmdl.
 44 45  0  0  0  0  0  0  0  0  3 V2000
  152.2968  140.5717  159.2175 C   0  0  0  0  0  0  0  0  0  0  0  0
  151.9750  140.3115  157.7857 C   0  0  0  0  0  0  0  0  0  0  0  0
  150.8636  140.5484  157.0279 C   0  0  0  0  0  0  0  0  0  0  0  0
  151.2331  140.0559  155.7466 C   0  0  0  0  0  0  0  0  0  0  0  0
  150.4575  140.0497  154.6517 N   0  5  0  0  0  0  0  0  0  0  0  0
  149.2073  139.5373  154.7046 C   0  0  0  0  0  0  0  0  0  0  0  0
  148.5783  139.2443  155.7239 O   0  0  0  0  0  0  0  0  0  0  0  0
  148.6587  139.3396  153.4970 N   0  0  0  0  0  0  0  0  0  0  0  0
  147.3327  138.7908  153.2237 C   0  0  0  0  0  0  0  0  0  0  0  0
  147.0720  137.4528  153.9611 C   0  0  1  0  0  0  0  0  0  0  0  0
  146.1387  137.6610  155.1792 C   0  0  0  0  0  0  0  0  0  0  0  0
  146.5780  136.4346  152.9769 N   0  3  2  0  0  0  0  0  0  0  0  0
  145.5168  136.8860  152.0301 C   0  0  0  0  0  0  0  0  0  0  0  0
  145.2028  135.8096  150.9771 C   0  0  0  0  0  0  0  0  0  0  0  0
  144.8244  134.4755  151.6310 C   0  0  0  0  0  0  0  0  0  0  0  0
  145.8973  134.0321  152.6388 C   0  0  1  0  0  0  0  0  0  0  0  0
  147.1816  133.5173  151.9651 C   0  0  0  0  0  0  0  0  0  0  0  0
  146.1807  135.1625  153.6475 C   0  0  0  0  0  0  0  0  0  0  0  0
  152.4557  139.5520  155.7313 N   0  0  0  0  0  0  0  0  0  0  0  0
  152.9412  139.7181  157.0340 O   0  0  0  0  0  0  0  0  0  0  0  0
  151.5773  140.0760  159.8693 H   0  0  0  0  0  0  0  0  0  0  0  0
  152.2666  141.6402  159.4306 H   0  0  0  0  0  0  0  0  0  0  0  0
  153.2912  140.2038  159.4712 H   0  0  0  0  0  0  0  0  0  0  0  0
  149.9351  141.0028  157.3395 H   0  0  0  0  0  0  0  0  0  0  0  0
  149.2164  139.5986  152.6962 H   0  0  0  0  0  0  0  0  0  0  0  0
  146.5511  139.5112  153.4708 H   0  0  0  0  0  0  0  0  0  0  0  0
  147.2768  138.6597  152.1444 H   0  0  0  0  0  0  0  0  0  0  0  0
  148.0197  137.0915  154.3642 H   0  0  0  0  0  0  0  0  0  0  0  0
  146.5525  138.3833  155.8823 H   0  0  0  0  0  0  0  0  0  0  0  0
  146.0012  136.7449  155.7534 H   0  0  0  0  0  0  0  0  0  0  0  0
  145.1585  138.0293  154.8746 H   0  0  0  0  0  0  0  0  0  0  0  0
  144.6151  137.1467  152.5864 H   0  0  0  0  0  0  0  0  0  0  0  0
  145.8327  137.7750  151.4854 H   0  0  0  0  0  0  0  0  0  0  0  0
  144.3893  136.1484  150.3346 H   0  0  0  0  0  0  0  0  0  0  0  0
  146.0660  135.6722  150.3252 H   0  0  0  0  0  0  0  0  0  0  0  0
  143.8705  134.5902  152.1477 H   0  0  0  0  0  0  0  0  0  0  0  0
  144.6699  133.7091  150.8705 H   0  0  0  0  0  0  0  0  0  0  0  0
  145.4858  133.1908  153.1982 H   0  0  0  0  0  0  0  0  0  0  0  0
  147.6863  134.2985  151.3966 H   0  0  0  0  0  0  0  0  0  0  0  0
  146.9632  132.6971  151.2807 H   0  0  0  0  0  0  0  0  0  0  0  0
  147.8882  133.1444  152.7073 H   0  0  0  0  0  0  0  0  0  0  0  0
  146.9484  134.8292  154.3443 H   0  0  0  0  0  0  0  0  0  0  0  0
  145.2883  135.3469  154.2480 H   0  0  0  0  0  0  0  0  0  0  0  0
  147.3754  136.2175  152.3961 H   0  0  0  0  0  0  0  0  0  0  0  0
  1  2  1  0  0  0  0
  1 21  1  0  0  0  0
  1 22  1  0  0  0  0
  1 23  1  0  0  0  0
  2 20  1  0  0  0  0
  2  3  2  0  0  0  0
  3  4  1  0  0  0  0
  3 24  1  0  0  0  0
  4  5  1  0  0  0  0
  4 19  2  0  0  0  0
  5  6  1  0  0  0  0
  6  7  2  0  0  0  0
  6  8  1  0  0  0  0
  8  9  1  0  0  0  0
  8 25  1  0  0  0  0
  9 10  1  0  0  0  0
  9 26  1  0  0  0  0
  9 27  1  0  0  0  0
 10 11  1  0  0  0  0
 10 12  1  0  0  0  0
 10 28  1  0  0  0  0
 11 29  1  0  0  0  0
 11 30  1  0  0  0  0
 11 31  1  0  0  0  0
 12 18  1  0  0  0  0
 12 13  1  0  0  0  0
 12 44  1  0  0  0  0
 13 14  1  0  0  0  0
 13 32  1  0  0  0  0
 13 33  1  0  0  0  0
 14 15  1  0  0  0  0
 14 34  1  0  0  0  0
 14 35  1  0  0  0  0
 15 16  1  0  0  0  0
 15 36  1  0  0  0  0
 15 37  1  0  0  0  0
 16 17  1  0  0  0  0
 16 18  1  0  0  0  0
 16 38  1  0  0  0  0
 17 39  1  0  0  0  0
 17 40  1  0  0  0  0
 17 41  1  0  0  0  0
 18 42  1  0  0  0  0
 18 43  1  0  0  0  0
 19 20  1  0  0  0  0
M  CHG  1   5  -1
M  CHG  1  12   1
M  END
> <s_m_source_file>
AV-unprocessed.smi

> <i_m_source_file_index>
2083

> <i_lp_mmshare_version>
43012

> <i_f3d_flags>
0

> <s_epik_input>
W0NIM11jMVtjSF1jKG5vMSlbTkhdQyg9TylbTkhdW0NIMl1bQ0BIXShbQ0gzXSlOMltDSDJdW0NIMl1bQ0gyXVtDQEBIXShbQ0gzXSlbQ0gyXTI=

> <s_epik_cmdline>
J2VwaWtfcHl0aG9uJywgJy1waCcsICc3LjAnLCAnLXRuJywgJzgnLCAnLW1hJywgJzIwMCcsICctbWV0YWxfYmluZGluZycsICctaW1hZScsICc8aW5maWxlLm1hZT4nLCAnLW9tYWUnLCAnPG91dGZpbGUubWFlPic=

> <r_epik_Ionization_Penalty>
6.22434

> <r_epik_Ionization_Penalty_Charging>
6.22425

> <r_epik_Ionization_Penalty_Neutral>
9.62407e-05

> <r_epik_State_Penalty>
6.22423

> <r_epik_Charging_Adjusted_Penalty>
12.4485

> <i_epik_Tot_Q>
0

> <i_epik_Tot_abs_Q>
2

> <r_epik_Metal_State_Penalty>
2.16764

> <b_epik_Metal_Only>
1

> <s_lp_Force_Field>
OPLS_2005

> <r_lp_Energy>
14.1674

> <b_lp_Chiralities_Consistent>
1

> <s_lp_Variant>
AV-unprocessed.smi:2083-12

> <Gold.Version>
5.8.1

> <Gold.Id.Protein>
6NUR|6NUR_protein|mol2

> <Gold.PLP.Fitness>
41.9182

> <Gold.PLP.PLP>
-29.5006

> <Gold.PLP.part.hbond>
-4.7875

> <Gold.PLP.part.metal>
0.0000

> <Gold.PLP.part.buried>
-2.0524

> <Gold.PLP.part.nonpolar>
-22.5964

> <Gold.PLP.part.repulsive>
0.2193

> <Gold.PLP.ligand.clash>
0.0000

> <Gold.PLP.ligand.torsion>
1.3777

> <Gold.PLP.Chemscore.Hbond>
5.0000

> <Gold.PLP.Chemscore.CHOScore>
0.0000

> <Gold.PLP.Chemscore.Metal>
0.0000

> <Gold.Chemscore.Hbonds>
donor molecule, donor type, donor heavy atom, donor atom, acceptor molecule, acceptor atom, score
      L1  H     8    25       P1  7957  1.00
      L1  H    12    44       P1  7948  2.00
      P1  H  7989  7998       L1     5  0.90
      P1  H  7997  8009       L1    20  1.00

> <Gold.PLP.Chemscore.Internal.Correction>
0.1729

> <Gold.Rescore>
     Score         DG    S(hbond)    S(metal)    S(lipo)     H(rot)  DE(clash)    DE(int)     intcor
     12.58     -17.68       3.02        0.00      51.36       1.52       0.00       5.09       ----

> <Gold.Chemscore.Fitness>
12.5838

> <Gold.Chemscore.DG>
-17.6813

> <Gold.Chemscore.ZeroCoef>
-5.4800

> <Gold.Chemscore.Hbond>
3.0182

> <Gold.Chemscore.Metal>
0.0000

> <Gold.Chemscore.Lipo>
51.3600

> <Gold.Chemscore.Internal_Hbond>
0.0000

> <Gold.Chemscore.DEClash>
0.0048

> <Gold.Chemscore.DEInternal>
5.0927

> <Gold.Chemscore.Rot>
1.5190

> <Gold.Chemscore.Internal.Correction>
   9.000000E+99

> <Gold.Chemscore.Hbonds>
donor molecule, donor type, donor heavy atom, donor atom, acceptor molecule, acceptor atom, score
      L1  H     8    25       P1  7957  0.99
      L1  H    12    44       P1  7948  0.99
      P1  H  7989  7998       L1     5  0.18
      P1  H  7997  8009       L1    20  0.52

> <Gold.Chemscore.Hbond.Weighted>
-10.0808

> <Gold.Chemscore.Metal.Weighted>
-0.0000

> <Gold.Chemscore.Lipo.Weighted>
-6.0091

> <Gold.Chemscore.Internal_Hbond.Weighted>
0.0000

> <Gold.Chemscore.DEClash.Weighted>
0.0048

> <Gold.Chemscore.DEInternal.Weighted>
5.0927

> <Gold.Chemscore.Rot.Weighted>
3.8886

> <Gold.Chemscore.Internal.Correction.Weighted>
   9.000000E+99

> <Gold.Protein.RotatedTorsions>
[ 6907 6896 6895 6894 ] final  125.82 input  -60.11 | X-H torsion
[ 7974 7965 7964 7962 ] final   67.46 input  175.53 | X-H torsion
[ 8008 7997 7996 7995 ] final  163.00 input   59.86 | X-H torsion
[ 10167 10162 10161 10158 ] final -114.52 input  -65.29 | X-H torsion
[ 10718 10713 10712 10709 ] final  106.10 input   66.30 | X-H torsion
[ 10763 10752 10751 10750 ] final  130.39 input  -60.55 | X-H torsion
[ 11005 11000 10999 10996 ] final  160.00 input  -57.11 | X-H torsion

> <Gold.Protein.ActiveResidues>
 VAL166  LYS551  ARG553  GLY616  TRP617  ASP618  TYR619  PRO620  LYS621  CYS622 
 ASP623  PHE694  ASN695  SER759  ASP760  ASP761  ALA762  ILE779  LEU786  VAL792 
 PHE793  MET794  SER795  GLU796  ALA797  LYS798  CYS799  TRP800  GLU811  SER814 

> <Gold.Protein.RotatedAtoms>
  152.3958  133.6744  159.6274 H   0  0  0  0  0  0  0  0  0  0  0  0  # atno 6907 bound_to 6896
  150.7857  133.8877  159.3313 H   0  0  0  0  0  0  0  0  0  0  0  0  # atno 6908 bound_to 6896
  151.6653  135.0985  160.0239 H   0  0  0  0  0  0  0  0  0  0  0  0  # atno 6909 bound_to 6896
  145.8143  139.3049  143.1080 H   0  0  0  0  0  0  0  0  0  0  0  0  # atno 7974 bound_to 7965
  156.1990  140.1735  156.7939 H   0  0  0  0  0  0  0  0  0  0  0  0  # atno 8008 bound_to 7997
  154.5566  140.0707  156.8785 H   0  0  0  0  0  0  0  0  0  0  0  0  # atno 8009 bound_to 7997
  155.2926  140.3356  155.4254 H   0  0  0  0  0  0  0  0  0  0  0  0  # atno 8010 bound_to 7997
  140.1001  143.4621  152.1817 H   0  0  0  0  0  0  0  0  0  0  0  0  # atno 10167 bound_to 10162
  157.6681  131.0843  150.5957 H   0  0  0  0  0  0  0  0  0  0  0  0  # atno 10718 bound_to 10713
  153.7573  135.3201  155.3331 H   0  0  0  0  0  0  0  0  0  0  0  0  # atno 10763 bound_to 10752
  154.8242  135.4581  154.0873 H   0  0  0  0  0  0  0  0  0  0  0  0  # atno 10764 bound_to 10752
  153.2093  135.6933  153.8217 H   0  0  0  0  0  0  0  0  0  0  0  0  # atno 10765 bound_to 10752
  140.2016  134.8333  157.3024 H   0  0  0  0  0  0  0  0  0  0  0  0  # atno 11005 bound_to 11000
  145.9743  140.8734  143.0146 LP  0  0  0  0  0  0  0  0  0  0  0  0  # atno 17320 bound_to 7965
  144.6754  140.1990  143.7389 LP  0  0  0  0  0  0  0  0  0  0  0  0  # atno 17321 bound_to 7965
  139.5676  144.7444  151.3979 LP  0  0  0  0  0  0  0  0  0  0  0  0  # atno 17342 bound_to 10162
  140.6983  143.7696  150.7361 LP  0  0  0  0  0  0  0  0  0  0  0  0  # atno 17343 bound_to 10162
  156.6257  130.4418  149.5805 LP  0  0  0  0  0  0  0  0  0  0  0  0  # atno 17370 bound_to 10713
  156.2321  130.6800  151.1473 LP  0  0  0  0  0  0  0  0  0  0  0  0  # atno 17371 bound_to 10713
  140.2047  134.4211  155.7644 LP  0  0  0  0  0  0  0  0  0  0  0  0  # atno 17394 bound_to 11000
  141.2227  133.7089  156.8241 LP  0  0  0  0  0  0  0  0  0  0  0  0  # atno 17395 bound_to 11000

$$$$
