AV-unprocessed.smi:23|AV-procd|sdf|174|dock10
  -GOLD-   2262015433D 1   1.00000     0.00000
 Structure written by MMmdl.
 53 56  0  0  0  0  0  0  0  0  1 V2000
  153.2200  142.0039  160.1141 C   0  0  0  0  0  0  0  0  0  0  0  0
  153.0902  142.8996  159.0161 O   0  0  0  0  0  0  0  0  0  0  0  0
  151.7998  143.4437  158.7185 C   0  0  2  0  0  0  0  0  0  0  0  0
  152.0630  144.2415  157.4252 C   0  0  0  0  0  0  0  0  0  0  0  0
  151.3155  144.3722  159.8621 C   0  0  0  0  0  0  0  0  0  0  0  0
  149.8972  144.9080  159.5972 C   0  0  0  0  0  0  0  0  0  0  0  0
  148.9162  143.7616  159.2997 C   0  0  0  0  0  0  0  0  0  0  0  0
  149.4231  142.9097  158.2234 N   0  0  0  0  0  0  0  0  0  0  0  0
  148.5475  142.0884  157.5922 C   0  0  0  0  0  0  0  0  0  0  0  0
  147.3667  141.7692  158.1866 N   0  0  0  0  0  0  0  0  0  0  0  0
  146.5052  140.9496  157.5772 C   0  0  0  0  0  0  0  0  0  0  0  0
  146.6190  140.3521  156.3896 N   0  0  0  0  0  0  0  0  0  0  0  0
  147.7958  140.6778  155.7819 C   0  0  0  0  0  0  0  0  0  0  0  0
  148.8092  141.5266  156.3106 C   0  0  0  0  0  0  0  0  0  0  0  0
  149.8649  141.6197  155.4111 N   0  0  0  0  0  0  0  0  0  0  0  0
  149.5037  140.8560  154.4163 C   0  0  0  0  0  0  0  0  0  0  0  0
  148.2616  140.2752  154.5420 N   0  0  0  0  0  0  0  0  0  0  0  0
  147.6417  139.3673  153.6211 C   0  0  0  0  0  0  0  0  0  0  0  0
  146.2145  139.6028  153.1167 C   0  0  0  0  0  0  0  0  0  0  0  0
  145.9451  138.0817  153.1298 C   0  0  0  0  0  0  0  0  0  0  0  0
  144.6143  137.6598  153.7713 C   0  0  0  0  0  0  0  0  0  0  0  0
  143.5135  138.0212  152.9619 O   0  0  0  0  0  0  0  0  0  0  0  0
  146.0565  137.3339  151.7821 C   0  0  0  0  0  0  0  0  0  0  0  0
  146.5997  138.1239  150.7438 O   0  0  0  0  0  0  0  0  0  0  0  0
  147.1658  137.9828  154.0721 C   0  0  0  0  0  0  0  0  0  0  0  0
  150.7490  142.3363  158.4564 C   0  0  0  0  0  0  0  0  0  0  0  0
  154.2703  141.7318  160.2182 H   0  0  0  0  0  0  0  0  0  0  0  0
  152.6678  141.0782  159.9564 H   0  0  0  0  0  0  0  0  0  0  0  0
  152.9102  142.4474  161.0589 H   0  0  0  0  0  0  0  0  0  0  0  0
  151.1607  144.7124  157.0363 H   0  0  0  0  0  0  0  0  0  0  0  0
  152.4485  143.5924  156.6383 H   0  0  0  0  0  0  0  0  0  0  0  0
  152.7992  145.0288  157.5903 H   0  0  0  0  0  0  0  0  0  0  0  0
  151.2875  143.8316  160.8069 H   0  0  0  0  0  0  0  0  0  0  0  0
  152.0114  145.1998  160.0035 H   0  0  0  0  0  0  0  0  0  0  0  0
  149.5487  145.4787  160.4584 H   0  0  0  0  0  0  0  0  0  0  0  0
  149.9107  145.6056  158.7598 H   0  0  0  0  0  0  0  0  0  0  0  0
  148.7667  143.1564  160.1949 H   0  0  0  0  0  0  0  0  0  0  0  0
  147.9457  144.1780  159.0260 H   0  0  0  0  0  0  0  0  0  0  0  0
  145.5934  140.7436  158.1183 H   0  0  0  0  0  0  0  0  0  0  0  0
  150.1364  140.7013  153.5544 H   0  0  0  0  0  0  0  0  0  0  0  0
  148.3345  139.2807  152.7833 H   0  0  0  0  0  0  0  0  0  0  0  0
  145.6010  140.1436  153.8395 H   0  0  0  0  0  0  0  0  0  0  0  0
  146.1563  140.0689  152.1326 H   0  0  0  0  0  0  0  0  0  0  0  0
  144.5848  136.5844  153.9499 H   0  0  0  0  0  0  0  0  0  0  0  0
  144.4820  138.1366  154.7429 H   0  0  0  0  0  0  0  0  0  0  0  0
  143.6657  138.8875  152.6163 H   0  0  0  0  0  0  0  0  0  0  0  0
  146.6830  136.4473  151.8842 H   0  0  0  0  0  0  0  0  0  0  0  0
  145.0788  136.9873  151.4462 H   0  0  0  0  0  0  0  0  0  0  0  0
  145.8920  138.5710  150.3050 H   0  0  0  0  0  0  0  0  0  0  0  0
  147.8597  137.1733  153.8423 H   0  0  0  0  0  0  0  0  0  0  0  0
  146.8898  137.9663  155.1277 H   0  0  0  0  0  0  0  0  0  0  0  0
  151.0725  141.7088  157.6263 H   0  0  0  0  0  0  0  0  0  0  0  0
  150.6568  141.6807  159.3220 H   0  0  0  0  0  0  0  0  0  0  0  0
  1  2  1  0  0  0  0
  1 27  1  0  0  0  0
  1 28  1  0  0  0  0
  1 29  1  0  0  0  0
  2  3  1  0  0  0  0
  3 26  1  0  0  0  0
  3  4  1  0  0  0  0
  3  5  1  0  0  0  0
  4 30  1  0  0  0  0
  4 31  1  0  0  0  0
  4 32  1  0  0  0  0
  5  6  1  0  0  0  0
  5 33  1  0  0  0  0
  5 34  1  0  0  0  0
  6  7  1  0  0  0  0
  6 35  1  0  0  0  0
  6 36  1  0  0  0  0
  7  8  1  0  0  0  0
  7 37  1  0  0  0  0
  7 38  1  0  0  0  0
  8  9  1  0  0  0  0
  8 26  1  0  0  0  0
  9 14  1  0  0  0  0
  9 10  2  0  0  0  0
 10 11  1  0  0  0  0
 11 12  2  0  0  0  0
 11 39  1  0  0  0  0
 12 13  1  0  0  0  0
 13 17  1  0  0  0  0
 13 14  2  0  0  0  0
 14 15  1  0  0  0  0
 15 16  2  0  0  0  0
 16 17  1  0  0  0  0
 16 40  1  0  0  0  0
 17 18  1  0  0  0  0
 18 25  1  0  0  0  0
 18 19  1  0  0  0  0
 18 41  1  0  0  0  0
 19 20  1  0  0  0  0
 19 42  1  0  0  0  0
 19 43  1  0  0  0  0
 20 21  1  0  0  0  0
 20 23  1  0  0  0  0
 20 25  1  0  0  0  0
 21 22  1  0  0  0  0
 21 44  1  0  0  0  0
 21 45  1  0  0  0  0
 22 46  1  0  0  0  0
 23 24  1  0  0  0  0
 23 47  1  0  0  0  0
 23 48  1  0  0  0  0
 24 49  1  0  0  0  0
 25 50  1  0  0  0  0
 25 51  1  0  0  0  0
 26 52  1  0  0  0  0
 26 53  1  0  0  0  0
M  END
> <s_m_source_file>
AV-unprocessed.smi

> <i_m_source_file_index>
23

> <i_lp_mmshare_version>
43012

> <i_f3d_flags>
0

> <s_epik_input>
W0NIM11PW0NAQF0xKFtDSDNdKVtDSDJdW0NIMl1bQ0gyXU4oW0NIMl0xKWMobltjSF1uMiljKGMyMyluW2NIXW4zW0NIXShbQ0gyXTQpW0NIMl1DNChbQ0gyXVtPSF0pW0NIMl1bT0hd

> <s_epik_cmdline>
J2VwaWtfcHl0aG9uJywgJy1waCcsICc3LjAnLCAnLXRuJywgJzgnLCAnLW1hJywgJzIwMCcsICctbWV0YWxfYmluZGluZycsICctaW1hZScsICc8aW5maWxlLm1hZT4nLCAnLW9tYWUnLCAnPG91dGZpbGUubWFlPic=

> <r_lp_tautomer_probability>
1

> <r_epik_Ionization_Penalty>
0.00233978

> <r_epik_Ionization_Penalty_Charging>
0

> <r_epik_Ionization_Penalty_Neutral>
0.00233978

> <r_epik_State_Penalty>
0.00146422

> <r_epik_Charging_Adjusted_Penalty>
0.00146422

> <i_epik_Tot_Q>
0

> <i_epik_Tot_abs_Q>
0

> <r_epik_Metal_State_Penalty>
-0

> <b_epik_Metal_Only>
0

> <s_lp_Force_Field>
OPLS_2005

> <r_lp_Energy>
49.2291

> <b_lp_Chiralities_Consistent>
1

> <s_lp_Variant>
AV-unprocessed.smi:23-2

> <Gold.Version>
5.8.1

> <Gold.Id.Protein>
6NUR|6NUR_protein|mol2

> <Gold.PLP.Fitness>
46.2612

> <Gold.PLP.PLP>
-36.1362

> <Gold.PLP.part.hbond>
-4.0141

> <Gold.PLP.part.metal>
0.0000

> <Gold.PLP.part.buried>
-0.0091

> <Gold.PLP.part.nonpolar>
-32.6210

> <Gold.PLP.part.repulsive>
0.3627

> <Gold.PLP.ligand.clash>
0.0000

> <Gold.PLP.ligand.torsion>
1.2685

> <Gold.PLP.Chemscore.Hbond>
3.0000

> <Gold.PLP.Chemscore.CHOScore>
0.9348

> <Gold.PLP.Chemscore.Metal>
0.0000

> <Gold.Chemscore.Hbonds>
donor molecule, donor type, donor heavy atom, donor atom, acceptor molecule, acceptor atom, score
      L1  H    22    46       P1 10175  1.00
      L1  H    24    49       P1 10171  0.92
      P1  H  7954  7966       L1    24  1.00
      L1  C    16    40       P1  7957  1.00

> <Gold.PLP.Chemscore.Internal.Correction>
0.8577

> <Gold.Rescore>
     Score         DG    S(hbond)    S(metal)    S(lipo)     H(rot)  DE(clash)    DE(int)     intcor
     14.84     -18.13       2.90        0.00      99.27       3.38       1.94       1.36       ----

> <Gold.Chemscore.Fitness>
14.8367

> <Gold.Chemscore.DG>
-18.1318

> <Gold.Chemscore.ZeroCoef>
-5.4800

> <Gold.Chemscore.Hbond>
2.9039

> <Gold.Chemscore.Metal>
0.0000

> <Gold.Chemscore.Lipo>
99.2746

> <Gold.Chemscore.Internal_Hbond>
0.0000

> <Gold.Chemscore.DEClash>
1.9397

> <Gold.Chemscore.DEInternal>
1.3553

> <Gold.Chemscore.Rot>
3.3837

> <Gold.Chemscore.Internal.Correction>
   9.000000E+99

> <Gold.Chemscore.Hbonds>
donor molecule, donor type, donor heavy atom, donor atom, acceptor molecule, acceptor atom, score
      L1  H    22    46       P1 10175  0.95
      L1  H    24    49       P1 10171  0.84
      P1  H  7954  7966       L1    24  0.93

> <Gold.Chemscore.Hbond.Weighted>
-9.6989

> <Gold.Chemscore.Metal.Weighted>
-0.0000

> <Gold.Chemscore.Lipo.Weighted>
-11.6151

> <Gold.Chemscore.Internal_Hbond.Weighted>
0.0000

> <Gold.Chemscore.DEClash.Weighted>
1.9397

> <Gold.Chemscore.DEInternal.Weighted>
1.3553

> <Gold.Chemscore.Rot.Weighted>
8.6622

> <Gold.Chemscore.Internal.Correction.Weighted>
   9.000000E+99

> <Gold.Protein.RotatedTorsions>
[ 6907 6896 6895 6894 ] final   51.12 input  -60.11 | X-H torsion
[ 7974 7965 7964 7962 ] final -128.50 input  175.53 | X-H torsion
[ 8008 7997 7996 7995 ] final  148.17 input   59.86 | X-H torsion
[ 10167 10162 10161 10158 ] final  -38.23 input  -65.29 | X-H torsion
[ 10718 10713 10712 10709 ] final   -3.31 input   66.30 | X-H torsion
[ 10763 10752 10751 10750 ] final   60.00 input  -60.55 | X-H torsion
[ 11005 11000 10999 10996 ] final  101.70 input  -57.11 | X-H torsion

> <Gold.Protein.ActiveResidues>
 VAL166  LYS551  ARG553  GLY616  TRP617  ASP618  TYR619  PRO620  LYS621  CYS622 
 ASP623  PHE694  ASN695  SER759  ASP760  ASP761  ALA762  ILE779  LEU786  VAL792 
 PHE793  MET794  SER795  GLU796  ALA797  LYS798  CYS799  TRP800  GLU811  SER814 

> <Gold.Protein.RotatedAtoms>
  152.3092  134.7517  160.0340 H   0  0  0  0  0  0  0  0  0  0  0  0  # atno 6907 bound_to 6896
  151.8004  133.3364  159.3533 H   0  0  0  0  0  0  0  0  0  0  0  0  # atno 6908 bound_to 6896
  150.7312  134.5689  159.5924 H   0  0  0  0  0  0  0  0  0  0  0  0  # atno 6909 bound_to 6896
  144.9664  140.7501  143.4697 H   0  0  0  0  0  0  0  0  0  0  0  0  # atno 7974 bound_to 7965
  156.2800  140.2136  156.5655 H   0  0  0  0  0  0  0  0  0  0  0  0  # atno 8008 bound_to 7997
  154.7178  140.0506  157.0634 H   0  0  0  0  0  0  0  0  0  0  0  0  # atno 8009 bound_to 7997
  155.0519  140.3157  155.4692 H   0  0  0  0  0  0  0  0  0  0  0  0  # atno 8010 bound_to 7997
  140.7098  143.3291  151.2612 H   0  0  0  0  0  0  0  0  0  0  0  0  # atno 10167 bound_to 10162
  156.7779  130.5321  149.5756 H   0  0  0  0  0  0  0  0  0  0  0  0  # atno 10718 bound_to 10713
  152.9909  135.5552  154.5803 H   0  0  0  0  0  0  0  0  0  0  0  0  # atno 10763 bound_to 10752
  154.5186  135.2806  155.1284 H   0  0  0  0  0  0  0  0  0  0  0  0  # atno 10764 bound_to 10752
  154.2647  135.6374  153.5340 H   0  0  0  0  0  0  0  0  0  0  0  0  # atno 10765 bound_to 10752
  139.8774  134.9194  156.4946 H   0  0  0  0  0  0  0  0  0  0  0  0  # atno 11005 bound_to 11000
  145.2623  139.1987  143.4885 LP  0  0  0  0  0  0  0  0  0  0  0  0  # atno 17320 bound_to 7965
  146.3369  140.2555  142.8600 LP  0  0  0  0  0  0  0  0  0  0  0  0  # atno 17321 bound_to 7965
  139.6767  143.9925  152.2785 LP  0  0  0  0  0  0  0  0  0  0  0  0  # atno 17342 bound_to 10162
  139.9541  144.6601  150.8143 LP  0  0  0  0  0  0  0  0  0  0  0  0  # atno 17343 bound_to 10162
  156.1236  130.6128  151.0231 LP  0  0  0  0  0  0  0  0  0  0  0  0  # atno 17370 bound_to 10713
  157.6660  131.0871  150.7727 LP  0  0  0  0  0  0  0  0  0  0  0  0  # atno 17371 bound_to 10713
  140.8634  133.8043  155.9288 LP  0  0  0  0  0  0  0  0  0  0  0  0  # atno 17394 bound_to 11000
  140.9027  134.2359  157.5032 LP  0  0  0  0  0  0  0  0  0  0  0  0  # atno 17395 bound_to 11000

$$$$
