AV-unprocessed.smi:742|AV-procd|sdf|3559|dock4
  -GOLD-   22720 0553D 1   1.00000     0.00000
 Structure written by MMmdl.
 24 24  0  0  0  0  0  0  0  0  3 V2000
  148.1773  138.8324  152.8058 N   0  3  0  0  0  0  0  0  0  0  0  0
  148.6411  139.4619  154.0512 C   0  0  0  0  0  0  0  0  0  0  0  0
  150.0185  138.9167  154.4577 C   0  0  0  0  0  0  0  0  0  0  0  0
  150.9002  139.9934  154.8755 N   0  5  0  0  0  0  0  0  0  0  0  0
  151.3105  140.1524  156.4389 S   0  0  0  0  0  0  0  0  0  0  0  0
  150.3681  139.4721  157.3425 O   0  0  0  0  0  0  0  0  0  0  0  0
  152.7450  139.9086  156.6603 O   0  0  0  0  0  0  0  0  0  0  0  0
  151.0664  141.9674  156.6833 C   0  0  0  0  0  0  0  0  0  0  0  0
  151.6644  142.4130  157.9900 C   0  0  0  0  0  0  0  0  0  0  0  0
  152.3324  141.6287  158.9715 C   0  0  0  0  0  0  0  0  0  0  0  0
  152.6582  142.5357  159.9381 C   0  0  0  0  0  0  0  0  0  0  0  0
  152.2247  143.7742  159.5931 O   0  0  0  0  0  0  0  0  0  0  0  0
  151.5886  143.6853  158.3498 N   0  0  0  0  0  0  0  0  0  0  0  0
  148.4483  139.4032  152.0183 H   0  0  0  0  0  0  0  0  0  0  0  0
  147.1713  138.7461  152.8337 H   0  0  0  0  0  0  0  0  0  0  0  0
  148.6829  140.5416  153.9020 H   0  0  0  0  0  0  0  0  0  0  0  0
  147.8959  139.2677  154.8219 H   0  0  0  0  0  0  0  0  0  0  0  0
  149.8941  138.1639  155.2366 H   0  0  0  0  0  0  0  0  0  0  0  0
  150.4422  138.3838  153.6057 H   0  0  0  0  0  0  0  0  0  0  0  0
  151.5472  142.4774  155.8481 H   0  0  0  0  0  0  0  0  0  0  0  0
  150.0013  142.1911  156.6286 H   0  0  0  0  0  0  0  0  0  0  0  0
  152.5430  140.5697  158.9625 H   0  0  0  0  0  0  0  0  0  0  0  0
  153.1720  142.4588  160.8849 H   0  0  0  0  0  0  0  0  0  0  0  0
  148.5923  137.9157  152.7221 H   0  0  0  0  0  0  0  0  0  0  0  0
  1  2  1  0  0  0  0
  1 14  1  0  0  0  0
  1 15  1  0  0  0  0
  1 24  1  0  0  0  0
  2  3  1  0  0  0  0
  2 16  1  0  0  0  0
  2 17  1  0  0  0  0
  3  4  1  0  0  0  0
  3 18  1  0  0  0  0
  3 19  1  0  0  0  0
  4  5  1  0  0  0  0
  5  6  2  0  0  0  0
  5  7  2  0  0  0  0
  5  8  1  0  0  0  0
  8  9  1  0  0  0  0
  8 20  1  0  0  0  0
  8 21  1  0  0  0  0
  9 13  2  0  0  0  0
  9 10  1  0  0  0  0
 10 11  2  0  0  0  0
 10 22  1  0  0  0  0
 11 12  1  0  0  0  0
 11 23  1  0  0  0  0
 12 13  1  0  0  0  0
M  CHG  1   1   1
M  CHG  1   4  -1
M  END
> <s_m_source_file>
AV-unprocessed.smi

> <i_m_source_file_index>
742

> <i_lp_mmshare_version>
43012

> <i_f3d_flags>
0

> <s_epik_input>
W05IMl1bQ0gyXVtDSDJdW05IXVMoPU8pKD1PKVtDSDJdYzFbY0hdW2NIXW9uMQ==

> <s_epik_cmdline>
J2VwaWtfcHl0aG9uJywgJy1waCcsICc3LjAnLCAnLXRuJywgJzgnLCAnLW1hJywgJzIwMCcsICctbWV0YWxfYmluZGluZycsICctaW1hZScsICc8aW5maWxlLm1hZT4nLCAnLW9tYWUnLCAnPG91dGZpbGUubWFlPic=

> <r_lp_tautomer_probability>
1

> <r_epik_Ionization_Penalty>
3.53052

> <r_epik_Ionization_Penalty_Charging>
3.53052

> <r_epik_Ionization_Penalty_Neutral>
1.92474e-10

> <r_epik_State_Penalty>
3.52863

> <r_epik_Charging_Adjusted_Penalty>
7.05915

> <i_epik_Tot_Q>
0

> <i_epik_Tot_abs_Q>
2

> <r_epik_Metal_State_Penalty>
0.514327

> <b_epik_Metal_Only>
1

> <s_lp_Force_Field>
OPLS_2005

> <r_lp_Energy>
-11.204

> <b_lp_Chiralities_Consistent>
1

> <s_lp_Variant>
AV-unprocessed.smi:742-2

> <Gold.Version>
5.8.1

> <Gold.Id.Protein>
6NUR|6NUR_protein|mol2

> <Gold.PLP.Fitness>
37.7016

> <Gold.PLP.PLP>
-23.8942

> <Gold.PLP.part.hbond>
-4.0000

> <Gold.PLP.part.metal>
0.0000

> <Gold.PLP.part.buried>
-3.4630

> <Gold.PLP.part.nonpolar>
-15.7380

> <Gold.PLP.part.repulsive>
0.2147

> <Gold.PLP.ligand.clash>
0.0000

> <Gold.PLP.ligand.torsion>
1.1087

> <Gold.PLP.Chemscore.Hbond>
5.0000

> <Gold.PLP.Chemscore.CHOScore>
0.0000

> <Gold.PLP.Chemscore.Metal>
0.0000

> <Gold.Chemscore.Hbonds>
donor molecule, donor type, donor heavy atom, donor atom, acceptor molecule, acceptor atom, score
      L1  H     1    14       P1  7957  0.99
      L1  H     1    24       P1  7948  2.00
      P1  H  7989  7998       L1     4  1.00
      P1  H  7997  8008       L1     7  1.00

> <Gold.PLP.Chemscore.Internal.Correction>
1.0248

> <Gold.Rescore>
     Score         DG    S(hbond)    S(metal)    S(lipo)     H(rot)  DE(clash)    DE(int)     intcor
     17.34     -18.35       3.92        0.00      47.03       2.23       0.04       0.97       ----

> <Gold.Chemscore.Fitness>
17.3369

> <Gold.Chemscore.DG>
-18.3517

> <Gold.Chemscore.ZeroCoef>
-5.4800

> <Gold.Chemscore.Hbond>
3.9157

> <Gold.Chemscore.Metal>
0.0000

> <Gold.Chemscore.Lipo>
47.0323

> <Gold.Chemscore.Internal_Hbond>
0.0000

> <Gold.Chemscore.DEClash>
0.0421

> <Gold.Chemscore.DEInternal>
0.9727

> <Gold.Chemscore.Rot>
2.2303

> <Gold.Chemscore.Internal.Correction>
   9.000000E+99

> <Gold.Chemscore.Hbonds>
donor molecule, donor type, donor heavy atom, donor atom, acceptor molecule, acceptor atom, score
      L1  H     1    14       P1  7957  0.90
      L1  H     1    24       P1  7948  0.98
      P1  H  7989  7998       L1     4  0.85
      P1  H  7997  8008       L1     7  0.99

> <Gold.Chemscore.Hbond.Weighted>
-13.0784

> <Gold.Chemscore.Metal.Weighted>
-0.0000

> <Gold.Chemscore.Lipo.Weighted>
-5.5028

> <Gold.Chemscore.Internal_Hbond.Weighted>
0.0000

> <Gold.Chemscore.DEClash.Weighted>
0.0421

> <Gold.Chemscore.DEInternal.Weighted>
0.9727

> <Gold.Chemscore.Rot.Weighted>
5.7094

> <Gold.Chemscore.Internal.Correction.Weighted>
   9.000000E+99

> <Gold.Protein.RotatedTorsions>
[ 6907 6896 6895 6894 ] final  -50.73 input  -60.11 | X-H torsion
[ 7974 7965 7964 7962 ] final -119.89 input  175.53 | X-H torsion
[ 8008 7997 7996 7995 ] final  -59.14 input   59.86 | X-H torsion
[ 10167 10162 10161 10158 ] final  -56.30 input  -65.29 | X-H torsion
[ 10718 10713 10712 10709 ] final   74.42 input   66.30 | X-H torsion
[ 10763 10752 10751 10750 ] final  -57.76 input  -60.55 | X-H torsion
[ 11005 11000 10999 10996 ] final -108.71 input  -57.11 | X-H torsion

> <Gold.Protein.ActiveResidues>
 VAL166  LYS551  ARG553  GLY616  TRP617  ASP618  TYR619  PRO620  LYS621  CYS622 
 ASP623  PHE694  ASN695  SER759  ASP760  ASP761  ALA762  ILE779  LEU786  VAL792 
 PHE793  MET794  SER795  GLU796  ALA797  LYS798  CYS799  TRP800  GLU811  SER814 

> <Gold.Protein.RotatedAtoms>
  150.8679  134.8046  159.7132 H   0  0  0  0  0  0  0  0  0  0  0  0  # atno 6907 bound_to 6896
  152.4694  134.4994  159.9730 H   0  0  0  0  0  0  0  0  0  0  0  0  # atno 6908 bound_to 6896
  151.5088  133.3451  159.2917 H   0  0  0  0  0  0  0  0  0  0  0  0  # atno 6909 bound_to 6896
  145.0575  140.8265  143.4172 H   0  0  0  0  0  0  0  0  0  0  0  0  # atno 7974 bound_to 7965
  154.4339  140.1068  156.6068 H   0  0  0  0  0  0  0  0  0  0  0  0  # atno 8008 bound_to 7997
  155.5852  140.3491  155.4532 H   0  0  0  0  0  0  0  0  0  0  0  0  # atno 8009 bound_to 7997
  156.0288  140.1256  157.0269 H   0  0  0  0  0  0  0  0  0  0  0  0  # atno 8010 bound_to 7997
  140.6325  143.2466  151.5204 H   0  0  0  0  0  0  0  0  0  0  0  0  # atno 10167 bound_to 10162
  157.6591  130.9677  150.1208 H   0  0  0  0  0  0  0  0  0  0  0  0  # atno 10718 bound_to 10713
  154.2275  135.6366  153.5164 H   0  0  0  0  0  0  0  0  0  0  0  0  # atno 10763 bound_to 10752
  152.9956  135.5511  154.6048 H   0  0  0  0  0  0  0  0  0  0  0  0  # atno 10764 bound_to 10752
  154.5523  135.2902  155.0971 H   0  0  0  0  0  0  0  0  0  0  0  0  # atno 10765 bound_to 10752
  141.0887  133.9093  157.2126 H   0  0  0  0  0  0  0  0  0  0  0  0  # atno 11005 bound_to 11000
  145.1450  139.2549  143.5470 LP  0  0  0  0  0  0  0  0  0  0  0  0  # atno 17320 bound_to 7965
  146.3522  140.1137  142.8603 LP  0  0  0  0  0  0  0  0  0  0  0  0  # atno 17321 bound_to 7965
  139.5538  144.2328  152.1576 LP  0  0  0  0  0  0  0  0  0  0  0  0  # atno 17342 bound_to 10162
  140.1575  144.5056  150.6651 LP  0  0  0  0  0  0  0  0  0  0  0  0  # atno 17343 bound_to 10162
  156.2080  130.3664  149.8706 LP  0  0  0  0  0  0  0  0  0  0  0  0  # atno 17370 bound_to 10713
  156.6592  130.8775  151.3544 LP  0  0  0  0  0  0  0  0  0  0  0  0  # atno 17371 bound_to 10713
  139.9709  135.0128  156.9510 LP  0  0  0  0  0  0  0  0  0  0  0  0  # atno 17394 bound_to 11000
  140.5302  134.0820  155.7314 LP  0  0  0  0  0  0  0  0  0  0  0  0  # atno 17395 bound_to 11000

$$$$
