AV-unprocessed.smi:3187|AV-procd|sdf|12178|dock7
  -GOLD-   2272018 13D 1   1.00000     0.00000
 Structure written by MMmdl.
 41 42  0  0  0  0  0  0  0  0  2 V2000
  153.9533  140.5154  160.3207 C   0  0  0  0  0  0  0  0  0  0  0  0
  153.2519  141.8517  160.5066 C   0  0  0  0  0  0  0  0  0  0  0  0
  153.1472  142.4107  161.7284 C   0  0  0  0  0  0  0  0  0  0  0  0
  152.5270  143.7678  162.0111 C   0  0  0  0  0  0  0  0  0  0  0  0
  151.8543  144.3954  160.7789 C   0  0  0  0  0  0  0  0  0  0  0  0
  152.6358  144.0873  159.4895 C   0  0  2  0  0  0  0  0  0  0  0  0
  152.1073  144.8897  158.2880 C   0  0  0  0  0  0  0  0  0  0  0  0
  152.7280  142.5544  159.2464 C   0  0  2  0  0  0  0  0  0  0  0  0
  151.3951  141.9449  158.7372 C   0  0  0  0  0  0  0  0  0  0  0  0
  151.2720  141.9772  157.2676 N   0  3  0  0  0  0  0  0  0  0  0  0
  150.0987  141.2537  156.7380 C   0  0  0  0  0  0  0  0  0  0  0  0
  149.9416  141.4678  155.2245 C   0  0  0  0  0  0  0  0  0  0  0  0
  148.5661  141.3167  154.7895 N   0  0  0  0  0  0  0  0  0  0  0  0
  148.0660  140.3687  153.9064 C   0  0  0  0  0  0  0  0  0  0  0  0
  146.7143  140.6063  153.7989 C   0  0  0  0  0  0  0  0  0  0  0  0
  146.3641  141.6896  154.6016 N   0  0  0  0  0  0  0  0  0  0  0  0
  147.5120  142.0611  155.1521 C   0  0  0  0  0  0  0  0  0  0  0  0
  154.6750  140.5714  159.5055 H   0  0  0  0  0  0  0  0  0  0  0  0
  153.2464  139.7157  160.1069 H   0  0  0  0  0  0  0  0  0  0  0  0
  154.4964  140.2315  161.2229 H   0  0  0  0  0  0  0  0  0  0  0  0
  153.5539  141.8966  162.5873 H   0  0  0  0  0  0  0  0  0  0  0  0
  151.8096  143.6775  162.8271 H   0  0  0  0  0  0  0  0  0  0  0  0
  153.3242  144.4218  162.3653 H   0  0  0  0  0  0  0  0  0  0  0  0
  150.8335  144.0241  160.6900 H   0  0  0  0  0  0  0  0  0  0  0  0
  151.7687  145.4727  160.9259 H   0  0  0  0  0  0  0  0  0  0  0  0
  153.6569  144.4383  159.6504 H   0  0  0  0  0  0  0  0  0  0  0  0
  151.0417  144.7288  158.1255 H   0  0  0  0  0  0  0  0  0  0  0  0
  152.6354  144.6233  157.3720 H   0  0  0  0  0  0  0  0  0  0  0  0
  152.2490  145.9591  158.4469 H   0  0  0  0  0  0  0  0  0  0  0  0
  153.4772  142.4092  158.4667 H   0  0  0  0  0  0  0  0  0  0  0  0
  151.2943  140.9133  159.0750 H   0  0  0  0  0  0  0  0  0  0  0  0
  150.5458  142.4967  159.1383 H   0  0  0  0  0  0  0  0  0  0  0  0
  151.2129  142.9411  156.9712 H   0  0  0  0  0  0  0  0  0  0  0  0
  150.2149  140.1888  156.9428 H   0  0  0  0  0  0  0  0  0  0  0  0
  149.2008  141.5841  157.2623 H   0  0  0  0  0  0  0  0  0  0  0  0
  150.2983  142.4583  154.9386 H   0  0  0  0  0  0  0  0  0  0  0  0
  150.5514  140.7457  154.6803 H   0  0  0  0  0  0  0  0  0  0  0  0
  148.6945  139.6236  153.4405 H   0  0  0  0  0  0  0  0  0  0  0  0
  145.9731  140.0855  153.2106 H   0  0  0  0  0  0  0  0  0  0  0  0
  147.5864  142.8900  155.8410 H   0  0  0  0  0  0  0  0  0  0  0  0
  152.1069  141.5688  156.8721 H   0  0  0  0  0  0  0  0  0  0  0  0
  1  2  1  0  0  0  0
  1 18  1  0  0  0  0
  1 19  1  0  0  0  0
  1 20  1  0  0  0  0
  2  8  1  0  0  0  0
  2  3  2  0  0  0  0
  3  4  1  0  0  0  0
  3 21  1  0  0  0  0
  4  5  1  0  0  0  0
  4 22  1  0  0  0  0
  4 23  1  0  0  0  0
  5  6  1  0  0  0  0
  5 24  1  0  0  0  0
  5 25  1  0  0  0  0
  6  7  1  0  0  0  0
  6  8  1  0  0  0  0
  6 26  1  0  0  0  0
  7 27  1  0  0  0  0
  7 28  1  0  0  0  0
  7 29  1  0  0  0  0
  8  9  1  0  0  0  0
  8 30  1  0  0  0  0
  9 10  1  0  0  0  0
  9 31  1  0  0  0  0
  9 32  1  0  0  0  0
 10 11  1  0  0  0  0
 10 33  1  0  0  0  0
 10 41  1  0  0  0  0
 11 12  1  0  0  0  0
 11 34  1  0  0  0  0
 11 35  1  0  0  0  0
 12 13  1  0  0  0  0
 12 36  1  0  0  0  0
 12 37  1  0  0  0  0
 13 17  1  0  0  0  0
 13 14  1  0  0  0  0
 14 15  2  0  0  0  0
 14 38  1  0  0  0  0
 15 16  1  0  0  0  0
 15 39  1  0  0  0  0
 16 17  2  0  0  0  0
 17 40  1  0  0  0  0
M  CHG  1  10   1
M  END
> <s_m_source_file>
AV-unprocessed.smi

> <i_m_source_file_index>
3187

> <i_lp_mmshare_version>
43012

> <i_f3d_flags>
0

> <s_epik_input>
W0NIM11DMT1bQ0hdW0NIMl1bQ0gyXVtDQEBIXShbQ0gzXSlbQ0BIXTFbQ0gyXVtOSF1bQ0gyXVtDSDJdbjJbY0hdW2NIXW5bY0hdMg==

> <s_epik_cmdline>
J2VwaWtfcHl0aG9uJywgJy1waCcsICc3LjAnLCAnLXRuJywgJzgnLCAnLW1hJywgJzIwMCcsICctbWV0YWxfYmluZGluZycsICctaW1hZScsICc8aW5maWxlLm1hZT4nLCAnLW9tYWUnLCAnPG91dGZpbGUubWFlPic=

> <r_lp_tautomer_probability>
1

> <r_epik_Ionization_Penalty>
0.0501625

> <r_epik_Ionization_Penalty_Charging>
0.0501625

> <r_epik_Ionization_Penalty_Neutral>
0

> <r_epik_State_Penalty>
0.0972392

> <r_epik_Charging_Adjusted_Penalty>
0.147402

> <i_epik_Tot_Q>
1

> <i_epik_Tot_abs_Q>
1

> <r_epik_Metal_State_Penalty>
0.000104376

> <b_epik_Metal_Only>
0

> <s_lp_Force_Field>
OPLS_2005

> <r_lp_Energy>
17.7506

> <b_lp_Chiralities_Consistent>
1

> <s_lp_Variant>
AV-unprocessed.smi:3187-4

> <Gold.Version>
5.8.1

> <Gold.Id.Protein>
6NUR|6NUR_protein|mol2

> <Gold.PLP.Fitness>
52.3041

> <Gold.PLP.PLP>
-45.1776

> <Gold.PLP.part.hbond>
0.0000

> <Gold.PLP.part.metal>
0.0000

> <Gold.PLP.part.buried>
-1.9470

> <Gold.PLP.part.nonpolar>
-41.8765

> <Gold.PLP.part.repulsive>
0.2085

> <Gold.PLP.ligand.clash>
0.0000

> <Gold.PLP.ligand.torsion>
0.5770

> <Gold.PLP.Chemscore.Hbond>
0.0000

> <Gold.PLP.Chemscore.CHOScore>
2.7378

> <Gold.PLP.Chemscore.Metal>
0.0000

> <Gold.Chemscore.Hbonds>
donor molecule, donor type, donor heavy atom, donor atom, acceptor molecule, acceptor atom, score
      L1  C    14    38       P1  7957  0.79
      L1  C    15    39       P1 10175  1.00
      L1  C    17    40       P1  8028  0.96

> <Gold.PLP.Chemscore.Internal.Correction>
0.0671

> <Gold.Rescore>
     Score         DG    S(hbond)    S(metal)    S(lipo)     H(rot)  DE(clash)    DE(int)     intcor
     14.88     -15.70       0.00        0.00     128.57       1.89       0.18       0.64       ----

> <Gold.Chemscore.Fitness>
14.8773

> <Gold.Chemscore.DG>
-15.6964

> <Gold.Chemscore.ZeroCoef>
-5.4800

> <Gold.Chemscore.Hbond>
0.0000

> <Gold.Chemscore.Metal>
0.0000

> <Gold.Chemscore.Lipo>
128.5700

> <Gold.Chemscore.Internal_Hbond>
0.0000

> <Gold.Chemscore.DEClash>
0.1798

> <Gold.Chemscore.DEInternal>
0.6394

> <Gold.Chemscore.Rot>
1.8853

> <Gold.Chemscore.Internal.Correction>
   9.000000E+99

> <Gold.Chemscore.Hbond.Weighted>
-0.0000

> <Gold.Chemscore.Metal.Weighted>
-0.0000

> <Gold.Chemscore.Lipo.Weighted>
-15.0427

> <Gold.Chemscore.Internal_Hbond.Weighted>
0.0000

> <Gold.Chemscore.DEClash.Weighted>
0.1798

> <Gold.Chemscore.DEInternal.Weighted>
0.6394

> <Gold.Chemscore.Rot.Weighted>
4.8263

> <Gold.Chemscore.Internal.Correction.Weighted>
   9.000000E+99

> <Gold.Protein.RotatedTorsions>
[ 6907 6896 6895 6894 ] final  -59.81 input  -60.11 | X-H torsion
[ 7974 7965 7964 7962 ] final -111.98 input  175.53 | X-H torsion
[ 8008 7997 7996 7995 ] final  -78.14 input   59.86 | X-H torsion
[ 10167 10162 10161 10158 ] final  -63.15 input  -65.29 | X-H torsion
[ 10718 10713 10712 10709 ] final  -65.92 input   66.30 | X-H torsion
[ 10763 10752 10751 10750 ] final  132.42 input  -60.55 | X-H torsion
[ 11005 11000 10999 10996 ] final   79.31 input  -57.11 | X-H torsion

> <Gold.Protein.ActiveResidues>
 VAL166  LYS551  ARG553  GLY616  TRP617  ASP618  TYR619  PRO620  LYS621  CYS622 
 ASP623  PHE694  ASN695  SER759  ASP760  ASP761  ALA762  ILE779  LEU786  VAL792 
 PHE793  MET794  SER795  GLU796  ALA797  LYS798  CYS799  TRP800  GLU811  SER814 

> <Gold.Protein.RotatedAtoms>
  150.7902  134.6919  159.6501 H   0  0  0  0  0  0  0  0  0  0  0  0  # atno 6907 bound_to 6896
  152.4006  134.6289  160.0080 H   0  0  0  0  0  0  0  0  0  0  0  0  # atno 6908 bound_to 6896
  151.6561  133.3282  159.3199 H   0  0  0  0  0  0  0  0  0  0  0  0  # atno 6909 bound_to 6896
  145.1495  140.8821  143.3655 H   0  0  0  0  0  0  0  0  0  0  0  0  # atno 7974 bound_to 7965
  154.5661  140.0699  156.8894 H   0  0  0  0  0  0  0  0  0  0  0  0  # atno 8008 bound_to 7997
  155.2720  140.3366  155.4246 H   0  0  0  0  0  0  0  0  0  0  0  0  # atno 8009 bound_to 7997
  156.2082  140.1748  156.7740 H   0  0  0  0  0  0  0  0  0  0  0  0  # atno 8010 bound_to 7997
  140.5891  143.2338  151.6179 H   0  0  0  0  0  0  0  0  0  0  0  0  # atno 10167 bound_to 10162
  156.0642  130.4254  150.1633 H   0  0  0  0  0  0  0  0  0  0  0  0  # atno 10718 bound_to 10713
  153.7905  135.3156  155.3378 H   0  0  0  0  0  0  0  0  0  0  0  0  # atno 10763 bound_to 10752
  154.8127  135.4656  154.0563 H   0  0  0  0  0  0  0  0  0  0  0  0  # atno 10764 bound_to 10752
  153.1880  135.6904  153.8476 H   0  0  0  0  0  0  0  0  0  0  0  0  # atno 10765 bound_to 10752
  139.9178  134.7832  156.1762 H   0  0  0  0  0  0  0  0  0  0  0  0  # atno 11005 bound_to 11000
  145.0446  139.3231  143.5959 LP  0  0  0  0  0  0  0  0  0  0  0  0  # atno 17320 bound_to 7965
  146.3496  139.9832  142.8693 LP  0  0  0  0  0  0  0  0  0  0  0  0  # atno 17321 bound_to 7965
  139.5216  144.3188  152.0928 LP  0  0  0  0  0  0  0  0  0  0  0  0  # atno 17342 bound_to 10162
  140.2350  144.4329  150.6284 LP  0  0  0  0  0  0  0  0  0  0  0  0  # atno 17343 bound_to 10162
  156.9696  130.9830  151.3461 LP  0  0  0  0  0  0  0  0  0  0  0  0  # atno 17370 bound_to 10713
  157.5672  130.8286  149.8343 LP  0  0  0  0  0  0  0  0  0  0  0  0  # atno 17371 bound_to 10713
  141.0670  133.6814  156.2065 LP  0  0  0  0  0  0  0  0  0  0  0  0  # atno 17394 bound_to 11000
  140.6568  134.5009  157.5581 LP  0  0  0  0  0  0  0  0  0  0  0  0  # atno 17395 bound_to 11000

$$$$
