AV-unprocessed.smi:2330|AV-procd|sdf|9312|dock3
  -GOLD-   2272012533D 1   1.00000     0.00000
 Structure written by MMmdl.
 42 43  0  0  0  0  0  0  0  0  1 V2000
  144.2276  134.9677  150.6132 C   0  0  0  0  0  0  0  0  0  0  0  0
  144.7109  134.3012  151.9090 C   0  0  2  0  0  0  0  0  0  0  0  0
  144.7723  135.3110  153.0710 C   0  0  0  0  0  0  0  0  0  0  0  0
  145.2669  134.6538  154.3726 C   0  0  0  0  0  0  0  0  0  0  0  0
  146.6268  133.9528  154.1910 C   0  0  2  0  0  0  0  0  0  0  0  0
  147.6835  134.9454  154.0029 N   0  0  0  0  0  0  0  0  0  0  0  0
  148.4856  135.4199  154.9658 C   0  0  0  0  0  0  0  0  0  0  0  0
  148.4174  135.0859  156.1488 O   0  0  0  0  0  0  0  0  0  0  0  0
  149.3811  136.2899  154.4780 N   0  0  0  0  0  0  0  0  0  0  0  0
  150.4150  136.9671  155.2553 C   0  0  0  0  0  0  0  0  0  0  0  0
  151.0805  138.1187  154.4716 C   0  0  2  0  0  0  0  0  0  0  0  0
  152.4479  138.5624  155.0203 C   0  0  0  0  0  0  0  0  0  0  0  0
  150.1515  139.2821  154.3148 C   0  0  0  0  0  0  0  0  0  0  0  0
  150.5038  140.5517  154.5425 N   0  0  0  0  0  0  0  0  0  0  0  0
  149.4541  141.4470  154.3240 C   0  0  0  0  0  0  0  0  0  0  0  0
  148.2915  140.8397  153.9236 C   0  0  0  0  0  0  0  0  0  0  0  0
  148.4737  139.1111  153.8071 S   0  0  0  0  0  0  0  0  0  0  0  0
  146.5722  132.9565  153.0132 C   0  0  0  0  0  0  0  0  0  0  0  0
  146.0781  133.6182  151.7146 C   0  0  0  0  0  0  0  0  0  0  0  0
  144.9115  135.7545  150.2932 H   0  0  0  0  0  0  0  0  0  0  0  0
  143.2427  135.4161  150.7461 H   0  0  0  0  0  0  0  0  0  0  0  0
  144.1521  134.2424  149.8026 H   0  0  0  0  0  0  0  0  0  0  0  0
  143.9850  133.5301  152.1723 H   0  0  0  0  0  0  0  0  0  0  0  0
  145.4304  136.1393  152.8053 H   0  0  0  0  0  0  0  0  0  0  0  0
  143.7864  135.7467  153.2371 H   0  0  0  0  0  0  0  0  0  0  0  0
  145.3292  135.3986  155.1670 H   0  0  0  0  0  0  0  0  0  0  0  0
  144.5291  133.9215  154.7030 H   0  0  0  0  0  0  0  0  0  0  0  0
  146.8432  133.3992  155.1065 H   0  0  0  0  0  0  0  0  0  0  0  0
  147.8227  135.2827  153.0615 H   0  0  0  0  0  0  0  0  0  0  0  0
  149.3524  136.4936  153.4897 H   0  0  0  0  0  0  0  0  0  0  0  0
  149.9340  137.3664  156.1489 H   0  0  0  0  0  0  0  0  0  0  0  0
  151.1677  136.2596  155.6079 H   0  0  0  0  0  0  0  0  0  0  0  0
  151.2638  137.7437  153.4638 H   0  0  0  0  0  0  0  0  0  0  0  0
  152.8754  139.3562  154.4066 H   0  0  0  0  0  0  0  0  0  0  0  0
  153.1647  137.7416  155.0299 H   0  0  0  0  0  0  0  0  0  0  0  0
  152.3606  138.9399  156.0396 H   0  0  0  0  0  0  0  0  0  0  0  0
  149.6225  142.5027  154.4778 H   0  0  0  0  0  0  0  0  0  0  0  0
  147.3434  141.3019  153.6914 H   0  0  0  0  0  0  0  0  0  0  0  0
  147.5496  132.5006  152.8507 H   0  0  0  0  0  0  0  0  0  0  0  0
  145.8996  132.1377  153.2713 H   0  0  0  0  0  0  0  0  0  0  0  0
  146.0087  132.8655  150.9286 H   0  0  0  0  0  0  0  0  0  0  0  0
  146.8123  134.3493  151.3735 H   0  0  0  0  0  0  0  0  0  0  0  0
  1  2  1  0  0  0  0
  1 20  1  0  0  0  0
  1 21  1  0  0  0  0
  1 22  1  0  0  0  0
  2 19  1  0  0  0  0
  2  3  1  0  0  0  0
  2 23  1  0  0  0  0
  3  4  1  0  0  0  0
  3 24  1  0  0  0  0
  3 25  1  0  0  0  0
  4  5  1  0  0  0  0
  4 26  1  0  0  0  0
  4 27  1  0  0  0  0
  5  6  1  0  0  0  0
  5 18  1  0  0  0  0
  5 28  1  0  0  0  0
  6  7  1  0  0  0  0
  6 29  1  0  0  0  0
  7  8  2  0  0  0  0
  7  9  1  0  0  0  0
  9 10  1  0  0  0  0
  9 30  1  0  0  0  0
 10 11  1  0  0  0  0
 10 31  1  0  0  0  0
 10 32  1  0  0  0  0
 11 12  1  0  0  0  0
 11 13  1  0  0  0  0
 11 33  1  0  0  0  0
 12 34  1  0  0  0  0
 12 35  1  0  0  0  0
 12 36  1  0  0  0  0
 13 17  1  0  0  0  0
 13 14  2  0  0  0  0
 14 15  1  0  0  0  0
 15 16  2  0  0  0  0
 15 37  1  0  0  0  0
 16 17  1  0  0  0  0
 16 38  1  0  0  0  0
 18 19  1  0  0  0  0
 18 39  1  0  0  0  0
 18 40  1  0  0  0  0
 19 41  1  0  0  0  0
 19 42  1  0  0  0  0
M  END
> <s_m_source_file>
AV-unprocessed.smi

> <i_m_source_file_index>
2330

> <i_lp_mmshare_version>
43012

> <i_f3d_flags>
0

> <s_epik_input>
W0NIM11bQ0BASF0xW0NIMl1bQ0gyXVtDQEhdKFtDSDJdW0NIMl0xKVtOSF1DKD1PKVtOSF1bQ0gyXVtDQEhdKFtDSDNdKWMybltjSF1bY0hdczI=

> <s_epik_cmdline>
J2VwaWtfcHl0aG9uJywgJy1waCcsICc3LjAnLCAnLXRuJywgJzgnLCAnLW1hJywgJzIwMCcsICctbWV0YWxfYmluZGluZycsICctaW1hZScsICc8aW5maWxlLm1hZT4nLCAnLW9tYWUnLCAnPG91dGZpbGUubWFlPic=

> <r_lp_tautomer_probability>
1

> <r_epik_Ionization_Penalty>
0.000331107

> <r_epik_Ionization_Penalty_Charging>
0

> <r_epik_Ionization_Penalty_Neutral>
0.000331107

> <r_epik_State_Penalty>
-0

> <r_epik_Charging_Adjusted_Penalty>
0

> <i_epik_Tot_Q>
0

> <i_epik_Tot_abs_Q>
0

> <r_epik_Metal_State_Penalty>
-0

> <b_epik_Metal_Only>
0

> <s_lp_Force_Field>
OPLS_2005

> <r_lp_Energy>
-1.48662

> <b_lp_Chiralities_Consistent>
1

> <s_lp_Variant>
AV-unprocessed.smi:2330-3

> <Gold.Version>
5.8.1

> <Gold.Id.Protein>
6NUR|6NUR_protein|mol2

> <Gold.PLP.Fitness>
42.2455

> <Gold.PLP.PLP>
-31.6133

> <Gold.PLP.part.hbond>
-3.0000

> <Gold.PLP.part.metal>
0.0000

> <Gold.PLP.part.buried>
-3.3591

> <Gold.PLP.part.nonpolar>
-25.6050

> <Gold.PLP.part.repulsive>
0.1454

> <Gold.PLP.ligand.clash>
0.0000

> <Gold.PLP.ligand.torsion>
0.6698

> <Gold.PLP.Chemscore.Hbond>
2.9520

> <Gold.PLP.Chemscore.CHOScore>
1.0000

> <Gold.PLP.Chemscore.Metal>
0.0000

> <Gold.Chemscore.Hbonds>
donor molecule, donor type, donor heavy atom, donor atom, acceptor molecule, acceptor atom, score
      L1  H     6    29       P1  7948  0.94
      L1  H     9    30       P1  7948  1.00
      P1  H  7989  7998       L1    14  0.98
      L1  C    15    37       P1  8028  0.82

> <Gold.PLP.Chemscore.Internal.Correction>
0.1158

> <Gold.Rescore>
     Score         DG    S(hbond)    S(metal)    S(lipo)     H(rot)  DE(clash)    DE(int)     intcor
     16.32     -17.03       1.89        0.00      76.56       1.45       0.04       0.67       ----

> <Gold.Chemscore.Fitness>
16.3238

> <Gold.Chemscore.DG>
-17.0310

> <Gold.Chemscore.ZeroCoef>
-5.4800

> <Gold.Chemscore.Hbond>
1.8905

> <Gold.Chemscore.Metal>
0.0000

> <Gold.Chemscore.Lipo>
76.5648

> <Gold.Chemscore.Internal_Hbond>
0.0000

> <Gold.Chemscore.DEClash>
0.0398

> <Gold.Chemscore.DEInternal>
0.6673

> <Gold.Chemscore.Rot>
1.4536

> <Gold.Chemscore.Internal.Correction>
   9.000000E+99

> <Gold.Chemscore.Hbonds>
donor molecule, donor type, donor heavy atom, donor atom, acceptor molecule, acceptor atom, score
      L1  H     6    29       P1  7948  0.91
      L1  H     9    30       P1  7948  0.87
      P1  H  7989  7998       L1    14  0.30

> <Gold.Chemscore.Hbond.Weighted>
-6.3141

> <Gold.Chemscore.Metal.Weighted>
-0.0000

> <Gold.Chemscore.Lipo.Weighted>
-8.9581

> <Gold.Chemscore.Internal_Hbond.Weighted>
0.0000

> <Gold.Chemscore.DEClash.Weighted>
0.0398

> <Gold.Chemscore.DEInternal.Weighted>
0.6673

> <Gold.Chemscore.Rot.Weighted>
3.7212

> <Gold.Chemscore.Internal.Correction.Weighted>
   9.000000E+99

> <Gold.Protein.RotatedTorsions>
[ 6907 6896 6895 6894 ] final   58.01 input  -60.11 | X-H torsion
[ 7974 7965 7964 7962 ] final   67.62 input  175.53 | X-H torsion
[ 8008 7997 7996 7995 ] final  -99.07 input   59.86 | X-H torsion
[ 10167 10162 10161 10158 ] final -111.36 input  -65.29 | X-H torsion
[ 10718 10713 10712 10709 ] final  134.76 input   66.30 | X-H torsion
[ 10763 10752 10751 10750 ] final   71.01 input  -60.55 | X-H torsion
[ 11005 11000 10999 10996 ] final    8.27 input  -57.11 | X-H torsion

> <Gold.Protein.ActiveResidues>
 VAL166  LYS551  ARG553  GLY616  TRP617  ASP618  TYR619  PRO620  LYS621  CYS622 
 ASP623  PHE694  ASN695  SER759  ASP760  ASP761  ALA762  ILE779  LEU786  VAL792 
 PHE793  MET794  SER795  GLU796  ALA797  LYS798  CYS799  TRP800  GLU811  SER814 

> <Gold.Protein.RotatedAtoms>
  152.3785  134.6627  160.0151 H   0  0  0  0  0  0  0  0  0  0  0  0  # atno 6907 bound_to 6896
  151.6898  133.3305  159.3248 H   0  0  0  0  0  0  0  0  0  0  0  0  # atno 6908 bound_to 6896
  150.7728  134.6644  159.6402 H   0  0  0  0  0  0  0  0  0  0  0  0  # atno 6909 bound_to 6896
  145.8124  139.3040  143.1091 H   0  0  0  0  0  0  0  0  0  0  0  0  # atno 7974 bound_to 7965
  154.8099  140.0450  157.1334 H   0  0  0  0  0  0  0  0  0  0  0  0  # atno 8008 bound_to 7997
  154.9381  140.3049  155.5114 H   0  0  0  0  0  0  0  0  0  0  0  0  # atno 8009 bound_to 7997
  156.2970  140.2310  156.4447 H   0  0  0  0  0  0  0  0  0  0  0  0  # atno 8010 bound_to 7997
  140.1344  143.4333  152.1605 H   0  0  0  0  0  0  0  0  0  0  0  0  # atno 10167 bound_to 10162
  157.4640  131.1075  150.9885 H   0  0  0  0  0  0  0  0  0  0  0  0  # atno 10718 bound_to 10713
  153.0374  135.5152  154.7528 H   0  0  0  0  0  0  0  0  0  0  0  0  # atno 10763 bound_to 10752
  154.6493  135.2923  155.0009 H   0  0  0  0  0  0  0  0  0  0  0  0  # atno 10764 bound_to 10752
  154.0898  135.6652  153.4903 H   0  0  0  0  0  0  0  0  0  0  0  0  # atno 10765 bound_to 10752
  140.5388  134.0394  155.7897 H   0  0  0  0  0  0  0  0  0  0  0  0  # atno 11005 bound_to 11000
  145.9763  140.8719  143.0137 LP  0  0  0  0  0  0  0  0  0  0  0  0  # atno 17320 bound_to 7965
  144.6756  140.2016  143.7386 LP  0  0  0  0  0  0  0  0  0  0  0  0  # atno 17321 bound_to 7965
  139.5503  144.7332  151.4455 LP  0  0  0  0  0  0  0  0  0  0  0  0  # atno 17342 bound_to 10162
  140.6798  143.8108  150.7106 LP  0  0  0  0  0  0  0  0  0  0  0  0  # atno 17343 bound_to 10162
  157.0672  130.5849  149.5396 LP  0  0  0  0  0  0  0  0  0  0  0  0  # atno 17370 bound_to 10713
  156.0042  130.5126  150.7770 LP  0  0  0  0  0  0  0  0  0  0  0  0  # atno 17371 bound_to 10713
  141.1239  133.9416  157.2675 LP  0  0  0  0  0  0  0  0  0  0  0  0  # atno 17394 bound_to 11000
  139.9515  135.0174  156.9006 LP  0  0  0  0  0  0  0  0  0  0  0  0  # atno 17395 bound_to 11000

$$$$
