AV-unprocessed.smi:2800|AV-procd|sdf|10795|dock4
  -GOLD-   2272015233D 1   1.00000     0.00000
 Structure written by MMmdl.
 52 53  0  0  0  0  0  0  0  0  2 V2000
  147.3890  142.2971  154.1652 C   0  0  0  0  0  0  0  0  0  0  0  0
  148.2674  141.4700  155.0862 C   0  0  0  0  0  0  0  0  0  0  0  0
  149.2243  142.1223  155.7832 N   0  3  0  0  0  0  0  0  0  0  0  0
  150.0832  141.5182  156.6378 C   0  0  0  0  0  0  0  0  0  0  0  0
  151.0398  142.3077  157.3041 N   0  0  0  0  0  0  0  0  0  0  0  0
  151.1039  143.7468  157.1092 C   0  0  0  0  0  0  0  0  0  0  0  0
  152.1163  144.2351  158.1449 C   0  0  0  0  0  0  0  0  0  0  0  0
  151.9355  143.2502  159.2995 C   0  0  0  0  0  0  0  0  0  0  0  0
  151.5681  141.9320  158.6096 C   0  0  0  0  0  0  0  0  0  0  0  0
  149.9686  140.1224  156.8321 C   0  0  0  0  0  0  0  0  0  0  0  0
  148.9852  139.3965  156.1306 C   0  0  0  0  0  0  0  0  0  0  0  0
  148.1244  140.0692  155.2277 C   0  0  0  0  0  0  0  0  0  0  0  0
  147.1013  139.4149  154.4852 N   0  0  0  0  0  0  0  0  0  0  0  0
  147.0574  138.1426  154.0547 C   0  0  0  0  0  0  0  0  0  0  0  0
  147.9215  137.2909  154.2600 O   0  0  0  0  0  0  0  0  0  0  0  0
  145.9443  137.9121  153.3437 N   0  0  0  0  0  0  0  0  0  0  0  0
  145.5614  136.6331  152.7398 C   0  0  2  0  0  0  0  0  0  0  0  0
  145.6821  136.7341  151.1961 C   0  0  0  0  0  0  0  0  0  0  0  0
  146.4172  137.8776  150.8130 O   0  0  0  0  0  0  0  0  0  0  0  0
  144.1711  136.1643  153.2856 C   0  0  0  0  0  0  0  0  0  0  0  0
  143.8256  134.7816  152.6879 C   0  0  0  0  0  0  0  0  0  0  0  0
  143.0549  137.1425  152.8645 C   0  0  0  0  0  0  0  0  0  0  0  0
  144.1636  136.0361  154.8263 C   0  0  0  0  0  0  0  0  0  0  0  0
  146.2992  135.8999  153.0740 H   0  0  0  0  0  0  0  0  0  0  0  0
  146.3442  142.2204  154.4675 H   0  0  0  0  0  0  0  0  0  0  0  0
  147.4779  141.9440  153.1374 H   0  0  0  0  0  0  0  0  0  0  0  0
  147.6707  143.3506  154.1858 H   0  0  0  0  0  0  0  0  0  0  0  0
  151.4124  144.0039  156.0953 H   0  0  0  0  0  0  0  0  0  0  0  0
  150.1221  144.1840  157.2954 H   0  0  0  0  0  0  0  0  0  0  0  0
  153.1273  144.1502  157.7438 H   0  0  0  0  0  0  0  0  0  0  0  0
  151.9558  145.2725  158.4396 H   0  0  0  0  0  0  0  0  0  0  0  0
  152.8208  143.1657  159.9303 H   0  0  0  0  0  0  0  0  0  0  0  0
  151.1065  143.5774  159.9287 H   0  0  0  0  0  0  0  0  0  0  0  0
  150.8511  141.3673  159.2065 H   0  0  0  0  0  0  0  0  0  0  0  0
  152.4538  141.3128  158.4632 H   0  0  0  0  0  0  0  0  0  0  0  0
  150.6191  139.5962  157.5146 H   0  0  0  0  0  0  0  0  0  0  0  0
  148.9058  138.3362  156.3121 H   0  0  0  0  0  0  0  0  0  0  0  0
  146.3468  140.0098  154.1753 H   0  0  0  0  0  0  0  0  0  0  0  0
  145.2948  138.6750  153.2214 H   0  0  0  0  0  0  0  0  0  0  0  0
  146.1250  135.8427  150.7551 H   0  0  0  0  0  0  0  0  0  0  0  0
  144.6983  136.8427  150.7384 H   0  0  0  0  0  0  0  0  0  0  0  0
  145.8376  138.4684  150.3571 H   0  0  0  0  0  0  0  0  0  0  0  0
  142.8341  134.4502  152.9984 H   0  0  0  0  0  0  0  0  0  0  0  0
  144.5305  134.0110  153.0011 H   0  0  0  0  0  0  0  0  0  0  0  0
  143.8317  134.8078  151.5976 H   0  0  0  0  0  0  0  0  0  0  0  0
  143.0419  137.2903  151.7842 H   0  0  0  0  0  0  0  0  0  0  0  0
  143.1737  138.1198  153.3326 H   0  0  0  0  0  0  0  0  0  0  0  0
  142.0716  136.7716  153.1554 H   0  0  0  0  0  0  0  0  0  0  0  0
  143.1973  135.6786  155.1840 H   0  0  0  0  0  0  0  0  0  0  0  0
  144.3474  136.9902  155.3186 H   0  0  0  0  0  0  0  0  0  0  0  0
  144.9150  135.3311  155.1825 H   0  0  0  0  0  0  0  0  0  0  0  0
  149.3050  143.1312  155.6553 H   0  0  0  0  0  0  0  0  0  0  0  0
  1  2  1  0  0  0  0
  1 25  1  0  0  0  0
  1 26  1  0  0  0  0
  1 27  1  0  0  0  0
  2 12  1  0  0  0  0
  2  3  2  0  0  0  0
  3  4  1  0  0  0  0
  3 52  1  0  0  0  0
  4  5  1  0  0  0  0
  4 10  2  0  0  0  0
  5  9  1  0  0  0  0
  5  6  1  0  0  0  0
  6  7  1  0  0  0  0
  6 28  1  0  0  0  0
  6 29  1  0  0  0  0
  7  8  1  0  0  0  0
  7 30  1  0  0  0  0
  7 31  1  0  0  0  0
  8  9  1  0  0  0  0
  8 32  1  0  0  0  0
  8 33  1  0  0  0  0
  9 34  1  0  0  0  0
  9 35  1  0  0  0  0
 10 11  1  0  0  0  0
 10 36  1  0  0  0  0
 11 12  2  0  0  0  0
 11 37  1  0  0  0  0
 12 13  1  0  0  0  0
 13 14  1  0  0  0  0
 13 38  1  0  0  0  0
 14 15  2  0  0  0  0
 14 16  1  0  0  0  0
 16 17  1  0  0  0  0
 16 39  1  0  0  0  0
 17 24  1  0  0  0  0
 17 18  1  0  0  0  0
 17 20  1  0  0  0  0
 18 19  1  0  0  0  0
 18 40  1  0  0  0  0
 18 41  1  0  0  0  0
 19 42  1  0  0  0  0
 20 21  1  0  0  0  0
 20 22  1  0  0  0  0
 20 23  1  0  0  0  0
 21 43  1  0  0  0  0
 21 44  1  0  0  0  0
 21 45  1  0  0  0  0
 22 46  1  0  0  0  0
 22 47  1  0  0  0  0
 22 48  1  0  0  0  0
 23 49  1  0  0  0  0
 23 50  1  0  0  0  0
 23 51  1  0  0  0  0
M  CHG  1   3   1
M  END
> <s_m_source_file>
AV-unprocessed.smi

> <i_m_source_file_index>
2800

> <i_lp_mmshare_version>
43012

> <i_f3d_flags>
0

> <s_epik_input>
W0NIMl0xW0NIMl1bQ0gyXVtDSDJdTjFjKG5jMltDSDNdKVtjSF1bY0hdYzJbTkhdQyg9TylbTkhdW0NASF0oW0NIMl1bT0hdKUMoW0NIM10pKFtDSDNdKVtDSDNd

> <s_epik_cmdline>
J2VwaWtfcHl0aG9uJywgJy1waCcsICc3LjAnLCAnLXRuJywgJzgnLCAnLW1hJywgJzIwMCcsICctbWV0YWxfYmluZGluZycsICctaW1hZScsICc8aW5maWxlLm1hZT4nLCAnLW9tYWUnLCAnPG91dGZpbGUubWFlPic=

> <r_lp_tautomer_probability>
0.999994

> <r_epik_Ionization_Penalty>
0.536494

> <r_epik_Ionization_Penalty_Charging>
0.536474

> <r_epik_Ionization_Penalty_Neutral>
1.97788e-05

> <r_epik_State_Penalty>
0.545692

> <r_epik_Charging_Adjusted_Penalty>
1.08217

> <i_epik_Tot_Q>
1

> <i_epik_Tot_abs_Q>
1

> <r_epik_Metal_State_Penalty>
0.748506

> <b_epik_Metal_Only>
0

> <s_lp_Force_Field>
OPLS_2005

> <r_lp_Energy>
43.0487

> <b_lp_Chiralities_Consistent>
1

> <s_lp_Variant>
AV-unprocessed.smi:2800-3

> <Gold.Version>
5.8.1

> <Gold.Id.Protein>
6NUR|6NUR_protein|mol2

> <Gold.PLP.Fitness>
44.5975

> <Gold.PLP.PLP>
-34.9026

> <Gold.PLP.part.hbond>
-3.8561

> <Gold.PLP.part.metal>
0.0000

> <Gold.PLP.part.buried>
-2.9094

> <Gold.PLP.part.nonpolar>
-30.9405

> <Gold.PLP.part.repulsive>
1.4242

> <Gold.PLP.ligand.clash>
0.0000

> <Gold.PLP.ligand.torsion>
1.0001

> <Gold.PLP.Chemscore.Hbond>
3.7915

> <Gold.PLP.Chemscore.CHOScore>
0.0000

> <Gold.PLP.Chemscore.Metal>
0.0000

> <Gold.Chemscore.Hbonds>
donor molecule, donor type, donor heavy atom, donor atom, acceptor molecule, acceptor atom, score
      L1  H     3    52       P1  8028  2.00
      L1  H    19    42       P1 10171  0.80
      P1  H  7954  7966       L1    19  1.00

> <Gold.PLP.Chemscore.Internal.Correction>
0.3204

> <Gold.Rescore>
     Score         DG    S(hbond)    S(metal)    S(lipo)     H(rot)  DE(clash)    DE(int)     intcor
     15.57     -18.20       2.31        0.00      85.37       1.95       0.59       2.04       ----

> <Gold.Chemscore.Fitness>
15.5703

> <Gold.Chemscore.DG>
-18.2021

> <Gold.Chemscore.ZeroCoef>
-5.4800

> <Gold.Chemscore.Hbond>
2.3131

> <Gold.Chemscore.Metal>
0.0000

> <Gold.Chemscore.Lipo>
85.3666

> <Gold.Chemscore.Internal_Hbond>
0.0000

> <Gold.Chemscore.DEClash>
0.5917

> <Gold.Chemscore.DEInternal>
2.0401

> <Gold.Chemscore.Rot>
1.9499

> <Gold.Chemscore.Internal.Correction>
   9.000000E+99

> <Gold.Chemscore.Hbonds>
donor molecule, donor type, donor heavy atom, donor atom, acceptor molecule, acceptor atom, score
      L1  H     3    52       P1  8028  0.99
      L1  H    16    39       P1 10175  0.01
      L1  H    19    42       P1 10171  0.75
      P1  H  7954  7966       L1    19  0.62

> <Gold.Chemscore.Hbond.Weighted>
-7.7259

> <Gold.Chemscore.Metal.Weighted>
-0.0000

> <Gold.Chemscore.Lipo.Weighted>
-9.9879

> <Gold.Chemscore.Internal_Hbond.Weighted>
0.0000

> <Gold.Chemscore.DEClash.Weighted>
0.5917

> <Gold.Chemscore.DEInternal.Weighted>
2.0401

> <Gold.Chemscore.Rot.Weighted>
4.9916

> <Gold.Chemscore.Internal.Correction.Weighted>
   9.000000E+99

> <Gold.Protein.RotatedTorsions>
[ 6907 6896 6895 6894 ] final  -72.90 input  -60.11 | X-H torsion
[ 7974 7965 7964 7962 ] final  132.55 input  175.53 | X-H torsion
[ 8008 7997 7996 7995 ] final -174.22 input   59.86 | X-H torsion
[ 10167 10162 10161 10158 ] final -164.83 input  -65.29 | X-H torsion
[ 10718 10713 10712 10709 ] final  -87.83 input   66.30 | X-H torsion
[ 10763 10752 10751 10750 ] final  -20.74 input  -60.55 | X-H torsion
[ 11005 11000 10999 10996 ] final  146.01 input  -57.11 | X-H torsion

> <Gold.Protein.ActiveResidues>
 VAL166  LYS551  ARG553  GLY616  TRP617  ASP618  TYR619  PRO620  LYS621  CYS622 
 ASP623  PHE694  ASN695  SER759  ASP760  ASP761  ALA762  ILE779  LEU786  VAL792 
 PHE793  MET794  SER795  GLU796  ALA797  LYS798  CYS799  TRP800  GLU811  SER814 

> <Gold.Protein.RotatedAtoms>
  150.7151  134.5095  159.5599 H   0  0  0  0  0  0  0  0  0  0  0  0  # atno 6907 bound_to 6896
  152.2674  134.7966  160.0429 H   0  0  0  0  0  0  0  0  0  0  0  0  # atno 6908 bound_to 6896
  151.8658  133.3430  159.3755 H   0  0  0  0  0  0  0  0  0  0  0  0  # atno 6909 bound_to 6896
  144.9956  139.4362  143.5317 H   0  0  0  0  0  0  0  0  0  0  0  0  # atno 7974 bound_to 7965
  155.9673  140.1156  157.0843 H   0  0  0  0  0  0  0  0  0  0  0  0  # atno 8008 bound_to 7997
  154.4147  140.1170  156.5326 H   0  0  0  0  0  0  0  0  0  0  0  0  # atno 8009 bound_to 7997
  155.6642  140.3473  155.4796 H   0  0  0  0  0  0  0  0  0  0  0  0  # atno 8010 bound_to 7997
  139.6223  144.0600  152.1944 H   0  0  0  0  0  0  0  0  0  0  0  0  # atno 10167 bound_to 10162
  155.9984  130.4814  150.4927 H   0  0  0  0  0  0  0  0  0  0  0  0  # atno 10718 bound_to 10713
  153.6251  135.6991  153.5296 H   0  0  0  0  0  0  0  0  0  0  0  0  # atno 10763 bound_to 10752
  153.2905  135.4158  155.1162 H   0  0  0  0  0  0  0  0  0  0  0  0  # atno 10764 bound_to 10752
  154.8534  135.3624  154.5793 H   0  0  0  0  0  0  0  0  0  0  0  0  # atno 10765 bound_to 10752
  140.0759  134.9125  157.1421 H   0  0  0  0  0  0  0  0  0  0  0  0  # atno 11005 bound_to 11000
  146.3441  139.9314  142.8753 LP  0  0  0  0  0  0  0  0  0  0  0  0  # atno 17320 bound_to 7965
  145.2224  140.9940  143.4038 LP  0  0  0  0  0  0  0  0  0  0  0  0  # atno 17321 bound_to 7965
  140.0245  144.6128  150.7539 LP  0  0  0  0  0  0  0  0  0  0  0  0  # atno 17342 bound_to 10162
  140.7390  143.2785  151.3669 LP  0  0  0  0  0  0  0  0  0  0  0  0  # atno 17343 bound_to 10162
  157.2921  131.0628  151.2127 LP  0  0  0  0  0  0  0  0  0  0  0  0  # atno 17370 bound_to 10713
  157.3136  130.6902  149.6229 LP  0  0  0  0  0  0  0  0  0  0  0  0  # atno 17371 bound_to 10713
  140.3559  134.2547  155.7192 LP  0  0  0  0  0  0  0  0  0  0  0  0  # atno 17394 bound_to 11000
  141.2029  133.7926  157.0367 LP  0  0  0  0  0  0  0  0  0  0  0  0  # atno 17395 bound_to 11000

$$$$
