AV-unprocessed.smi:3068|AV-procd|sdf|11705|dock5
  -GOLD-   2272017103D 1   1.00000     0.00000
 Structure written by MMmdl.
 40 42  0  0  0  0  0  0  0  0  2 V2000
  151.5927  137.1976  154.4376 N   0  0  0  0  0  0  0  0  0  0  0  0
  150.8018  138.0422  154.4139 C   0  0  0  0  0  0  0  0  0  0  0  0
  149.8057  139.1054  154.3822 C   0  0  0  0  0  0  0  0  0  0  0  0
  150.2412  140.3549  154.6653 N   0  0  0  0  0  0  0  0  0  0  0  0
  149.3277  141.3484  154.6427 C   0  0  0  0  0  0  0  0  0  0  0  0
  147.9751  141.0995  154.3393 C   0  0  0  0  0  0  0  0  0  0  0  0
  147.5314  139.8562  154.0569 N   0  0  0  0  0  0  0  0  0  0  0  0
  148.4394  138.8482  154.0749 C   0  0  0  0  0  0  0  0  0  0  0  0
  147.9935  137.5464  153.7793 N   0  0  0  0  0  0  0  0  0  0  0  0
  146.7525  137.0109  154.3262 C   0  0  0  0  0  0  0  0  0  0  0  0
  145.9192  136.2645  153.2706 C   0  0  1  0  0  0  0  0  0  0  0  0
  146.6139  134.9696  152.8122 C   0  0  0  0  0  0  0  0  0  0  0  0
  145.7608  134.2328  151.8516 N   0  3  1  0  0  0  0  0  0  0  0  0
  146.4115  132.9964  151.3494 C   0  0  0  0  0  0  0  0  0  0  0  0
  145.5424  132.3072  150.2857 C   0  0  0  0  0  0  0  0  0  0  0  0
  144.1412  132.0099  150.8354 C   0  0  0  0  0  0  0  0  0  0  0  0
  143.5027  133.2980  151.3722 C   0  0  0  0  0  0  0  0  0  0  0  0
  144.4084  133.9777  152.4183 C   0  0  2  0  0  0  0  0  0  0  0  0
  143.7918  135.2982  152.9202 C   0  0  0  0  0  0  0  0  0  0  0  0
  144.6678  135.9170  153.8536 O   0  0  0  0  0  0  0  0  0  0  0  0
  149.6768  142.3452  154.8684 H   0  0  0  0  0  0  0  0  0  0  0  0
  147.2486  141.8984  154.3234 H   0  0  0  0  0  0  0  0  0  0  0  0
  148.5938  136.9248  153.2556 H   0  0  0  0  0  0  0  0  0  0  0  0
  146.9804  136.3534  155.1659 H   0  0  0  0  0  0  0  0  0  0  0  0
  146.1732  137.8373  154.7385 H   0  0  0  0  0  0  0  0  0  0  0  0
  145.7562  136.9100  152.4057 H   0  0  0  0  0  0  0  0  0  0  0  0
  147.5683  135.2081  152.3410 H   0  0  0  0  0  0  0  0  0  0  0  0
  146.8303  134.3330  153.6718 H   0  0  0  0  0  0  0  0  0  0  0  0
  147.3834  133.2443  150.9207 H   0  0  0  0  0  0  0  0  0  0  0  0
  146.5958  132.3153  152.1819 H   0  0  0  0  0  0  0  0  0  0  0  0
  145.4642  132.9467  149.4054 H   0  0  0  0  0  0  0  0  0  0  0  0
  146.0181  131.3830  149.9563 H   0  0  0  0  0  0  0  0  0  0  0  0
  143.5151  131.5753  150.0556 H   0  0  0  0  0  0  0  0  0  0  0  0
  144.2067  131.2692  151.6335 H   0  0  0  0  0  0  0  0  0  0  0  0
  143.3160  133.9827  150.5434 H   0  0  0  0  0  0  0  0  0  0  0  0
  142.5296  133.0711  151.8095 H   0  0  0  0  0  0  0  0  0  0  0  0
  144.5207  133.3062  153.2717 H   0  0  0  0  0  0  0  0  0  0  0  0
  143.5877  135.9792  152.0920 H   0  0  0  0  0  0  0  0  0  0  0  0
  142.8389  135.1053  153.4136 H   0  0  0  0  0  0  0  0  0  0  0  0
  145.6316  134.8384  151.0538 H   0  0  0  0  0  0  0  0  0  0  0  0
  1  2  3  0  0  0  0
  2  3  1  0  0  0  0
  3  8  1  0  0  0  0
  3  4  2  0  0  0  0
  4  5  1  0  0  0  0
  5  6  2  0  0  0  0
  5 21  1  0  0  0  0
  6  7  1  0  0  0  0
  6 22  1  0  0  0  0
  7  8  2  0  0  0  0
  8  9  1  0  0  0  0
  9 10  1  0  0  0  0
  9 23  1  0  0  0  0
 10 11  1  0  0  0  0
 10 24  1  0  0  0  0
 10 25  1  0  0  0  0
 11 20  1  0  0  0  0
 11 12  1  0  0  0  0
 11 26  1  0  0  0  0
 12 13  1  0  0  0  0
 12 27  1  0  0  0  0
 12 28  1  0  0  0  0
 13 18  1  0  0  0  0
 13 14  1  0  0  0  0
 13 40  1  0  0  0  0
 14 15  1  0  0  0  0
 14 29  1  0  0  0  0
 14 30  1  0  0  0  0
 15 16  1  0  0  0  0
 15 31  1  0  0  0  0
 15 32  1  0  0  0  0
 16 17  1  0  0  0  0
 16 33  1  0  0  0  0
 16 34  1  0  0  0  0
 17 18  1  0  0  0  0
 17 35  1  0  0  0  0
 17 36  1  0  0  0  0
 18 19  1  0  0  0  0
 18 37  1  0  0  0  0
 19 20  1  0  0  0  0
 19 38  1  0  0  0  0
 19 39  1  0  0  0  0
M  CHG  1  13   1
M  END
> <s_m_source_file>
AV-unprocessed.smi

> <i_m_source_file_index>
3068

> <i_lp_mmshare_version>
43012

> <i_f3d_flags>
0

> <s_epik_input>
TiNDYzFuW2NIXVtjSF1uYzFbTkhdW0NIMl1bQ0BIXShbQ0gyXTIpT1tDSDJdW0NAQEhdKE4yMylbQ0gyXVtDSDJdW0NIMl1bQ0gyXTM=

> <s_epik_cmdline>
J2VwaWtfcHl0aG9uJywgJy1waCcsICc3LjAnLCAnLXRuJywgJzgnLCAnLW1hJywgJzIwMCcsICctbWV0YWxfYmluZGluZycsICctaW1hZScsICc8aW5maWxlLm1hZT4nLCAnLW9tYWUnLCAnPG91dGZpbGUubWFlPic=

> <r_epik_Ionization_Penalty>
0.0804321

> <r_epik_Ionization_Penalty_Charging>
0.0803403

> <r_epik_Ionization_Penalty_Neutral>
9.17277e-05

> <r_epik_State_Penalty>
0.0711481

> <r_epik_Charging_Adjusted_Penalty>
0.151488

> <i_epik_Tot_Q>
1

> <i_epik_Tot_abs_Q>
1

> <r_epik_Metal_State_Penalty>
0.0711481

> <b_epik_Metal_Only>
0

> <s_lp_Force_Field>
OPLS_2005

> <r_lp_Energy>
36.4506

> <b_lp_Chiralities_Consistent>
1

> <s_lp_Variant>
AV-unprocessed.smi:3068-8

> <Gold.Version>
5.8.1

> <Gold.Id.Protein>
6NUR|6NUR_protein|mol2

> <Gold.PLP.Fitness>
42.2110

> <Gold.PLP.PLP>
-31.8228

> <Gold.PLP.part.hbond>
-2.9479

> <Gold.PLP.part.metal>
0.0000

> <Gold.PLP.part.buried>
-3.8970

> <Gold.PLP.part.nonpolar>
-25.8937

> <Gold.PLP.part.repulsive>
0.4502

> <Gold.PLP.ligand.clash>
0.0000

> <Gold.PLP.ligand.torsion>
0.4810

> <Gold.PLP.Chemscore.Hbond>
2.9833

> <Gold.PLP.Chemscore.CHOScore>
0.7988

> <Gold.PLP.Chemscore.Metal>
0.0000

> <Gold.Chemscore.Hbonds>
donor molecule, donor type, donor heavy atom, donor atom, acceptor molecule, acceptor atom, score
      L1  H     9    23       P1  7948  0.98
      P1  H  7989  7998       L1     4  1.00
      P1  H 10752 10763       L1     1  0.96
      L1  C     5    21       P1  8028  0.79

> <Gold.PLP.Chemscore.Internal.Correction>
0.0040

> <Gold.Rescore>
     Score         DG    S(hbond)    S(metal)    S(lipo)     H(rot)  DE(clash)    DE(int)     intcor
     17.54     -18.01       2.36        0.00      68.71       1.32       0.04       0.44       ----

> <Gold.Chemscore.Fitness>
17.5360

> <Gold.Chemscore.DG>
-18.0133

> <Gold.Chemscore.ZeroCoef>
-5.4800

> <Gold.Chemscore.Hbond>
2.3569

> <Gold.Chemscore.Metal>
0.0000

> <Gold.Chemscore.Lipo>
68.7066

> <Gold.Chemscore.Internal_Hbond>
0.0000

> <Gold.Chemscore.DEClash>
0.0377

> <Gold.Chemscore.DEInternal>
0.4396

> <Gold.Chemscore.Rot>
1.3193

> <Gold.Chemscore.Internal.Correction>
   9.000000E+99

> <Gold.Chemscore.Hbonds>
donor molecule, donor type, donor heavy atom, donor atom, acceptor molecule, acceptor atom, score
      L1  H     9    23       P1  7948  0.92
      P1  H  7989  7998       L1     4  0.41
      P1  H 10752 10763       L1     1  0.90

> <Gold.Chemscore.Hbond.Weighted>
-7.8720

> <Gold.Chemscore.Metal.Weighted>
-0.0000

> <Gold.Chemscore.Lipo.Weighted>
-8.0387

> <Gold.Chemscore.Internal_Hbond.Weighted>
0.0000

> <Gold.Chemscore.DEClash.Weighted>
0.0377

> <Gold.Chemscore.DEInternal.Weighted>
0.4396

> <Gold.Chemscore.Rot.Weighted>
3.3774

> <Gold.Chemscore.Internal.Correction.Weighted>
   9.000000E+99

> <Gold.Protein.RotatedTorsions>
[ 6907 6896 6895 6894 ] final  -50.97 input  -60.11 | X-H torsion
[ 7974 7965 7964 7962 ] final  -77.20 input  175.53 | X-H torsion
[ 8008 7997 7996 7995 ] final -100.52 input   59.86 | X-H torsion
[ 10167 10162 10161 10158 ] final -179.13 input  -65.29 | X-H torsion
[ 10718 10713 10712 10709 ] final  174.11 input   66.30 | X-H torsion
[ 10763 10752 10751 10750 ] final   43.98 input  -60.55 | X-H torsion
[ 11005 11000 10999 10996 ] final   99.89 input  -57.11 | X-H torsion

> <Gold.Protein.ActiveResidues>
 VAL166  LYS551  ARG553  GLY616  TRP617  ASP618  TYR619  PRO620  LYS621  CYS622 
 ASP623  PHE694  ASN695  SER759  ASP760  ASP761  ALA762  ILE779  LEU786  VAL792 
 PHE793  MET794  SER795  GLU796  ALA797  LYS798  CYS799  TRP800  GLU811  SER814 

> <Gold.Protein.RotatedAtoms>
  150.8656  134.8019  159.7115 H   0  0  0  0  0  0  0  0  0  0  0  0  # atno 6907 bound_to 6896
  152.4679  134.5029  159.9740 H   0  0  0  0  0  0  0  0  0  0  0  0  # atno 6908 bound_to 6896
  151.5126  133.3443  159.2923 H   0  0  0  0  0  0  0  0  0  0  0  0  # atno 6909 bound_to 6896
  145.6028  140.9405  143.1232 H   0  0  0  0  0  0  0  0  0  0  0  0  # atno 7974 bound_to 7965
  154.8298  140.0440  157.1469 H   0  0  0  0  0  0  0  0  0  0  0  0  # atno 8008 bound_to 7997
  154.9165  140.3021  155.5218 H   0  0  0  0  0  0  0  0  0  0  0  0  # atno 8009 bound_to 7997
  156.2986  140.2348  156.4210 H   0  0  0  0  0  0  0  0  0  0  0  0  # atno 8010 bound_to 7997
  139.5400  144.2389  152.0875 H   0  0  0  0  0  0  0  0  0  0  0  0  # atno 10167 bound_to 10162
  156.9544  131.0041  151.2941 H   0  0  0  0  0  0  0  0  0  0  0  0  # atno 10718 bound_to 10713
  152.9850  135.6085  154.3199 H   0  0  0  0  0  0  0  0  0  0  0  0  # atno 10763 bound_to 10752
  154.2910  135.2775  155.2656 H   0  0  0  0  0  0  0  0  0  0  0  0  # atno 10764 bound_to 10752
  154.4952  135.5881  153.6546 H   0  0  0  0  0  0  0  0  0  0  0  0  # atno 10765 bound_to 10752
  139.8770  134.9116  156.4674 H   0  0  0  0  0  0  0  0  0  0  0  0  # atno 11005 bound_to 11000
  144.7303  139.7747  143.7350 LP  0  0  0  0  0  0  0  0  0  0  0  0  # atno 17320 bound_to 7965
  146.1563  139.4663  143.0016 LP  0  0  0  0  0  0  0  0  0  0  0  0  # atno 17321 bound_to 7965
  140.1866  144.4792  150.6500 LP  0  0  0  0  0  0  0  0  0  0  0  0  # atno 17342 bound_to 10162
  140.6626  143.2257  151.5820 LP  0  0  0  0  0  0  0  0  0  0  0  0  # atno 17343 bound_to 10162
  157.5700  130.8304  149.8379 LP  0  0  0  0  0  0  0  0  0  0  0  0  # atno 17370 bound_to 10713
  156.0349  130.3754  150.1588 LP  0  0  0  0  0  0  0  0  0  0  0  0  # atno 17371 bound_to 10713
  140.8820  133.7910  155.9477 LP  0  0  0  0  0  0  0  0  0  0  0  0  # atno 17394 bound_to 11000
  140.8844  134.2572  157.5127 LP  0  0  0  0  0  0  0  0  0  0  0  0  # atno 17395 bound_to 11000

$$$$
