AV-unprocessed.smi:2439|AV-procd|sdf|9603|dock9
  -GOLD-   2272013233D 1   1.00000     0.00000
 Structure written by MMmdl.
 41 43  0  0  0  0  0  0  0  0  2 V2000
  151.8824  137.4164  154.3218 N   0  0  0  0  0  0  0  0  0  0  0  0
  151.5538  138.4001  154.8345 C   0  0  0  0  0  0  0  0  0  0  0  0
  151.1403  139.6393  155.4819 C   0  0  0  0  0  0  0  0  0  0  0  0
  151.8749  140.1085  156.5909 C   0  0  0  0  0  0  0  0  0  0  0  0
  151.4826  141.3059  157.2164 C   0  0  0  0  0  0  0  0  0  0  0  0
  150.3640  141.9885  156.7054 C   0  0  0  0  0  0  0  0  0  0  0  0
  149.6526  141.5512  155.6454 N   0  0  0  0  0  0  0  0  0  0  0  0
  150.0244  140.3981  155.0366 C   0  0  0  0  0  0  0  0  0  0  0  0
  149.2620  139.9642  153.9358 N   0  0  0  0  0  0  0  0  0  0  0  0
  147.8594  139.5869  154.0644 C   0  0  0  0  0  0  0  0  0  0  0  0
  147.5948  138.1423  153.6076 C   0  0  2  0  0  0  0  0  0  0  0  0
  146.4813  138.0794  152.5471 C   0  0  0  0  0  0  0  0  0  0  0  0
  146.1972  136.6744  152.1746 N   0  3  2  0  0  0  0  0  0  0  0  0
  145.1584  136.5678  151.1191 C   0  0  0  0  0  0  0  0  0  0  0  0
  144.9561  135.1062  150.6887 C   0  0  0  0  0  0  0  0  0  0  0  0
  144.6093  134.2251  151.8956 C   0  0  0  0  0  0  0  0  0  0  0  0
  145.6830  134.3748  152.9818 C   0  0  0  0  0  0  0  0  0  0  0  0
  145.8796  135.8527  153.3742 C   0  0  1  0  0  0  0  0  0  0  0  0
  146.9937  136.0096  154.4279 C   0  0  0  0  0  0  0  0  0  0  0  0
  147.1761  137.3852  154.7383 O   0  0  0  0  0  0  0  0  0  0  0  0
  152.7300  139.5615  156.9620 H   0  0  0  0  0  0  0  0  0  0  0  0
  152.0252  141.6908  158.0671 H   0  0  0  0  0  0  0  0  0  0  0  0
  150.0319  142.9109  157.1583 H   0  0  0  0  0  0  0  0  0  0  0  0
  149.6612  140.0139  153.0090 H   0  0  0  0  0  0  0  0  0  0  0  0
  147.5642  139.7051  155.1072 H   0  0  0  0  0  0  0  0  0  0  0  0
  147.2441  140.2852  153.4959 H   0  0  0  0  0  0  0  0  0  0  0  0
  148.5085  137.7122  153.1940 H   0  0  0  0  0  0  0  0  0  0  0  0
  145.5720  138.5487  152.9268 H   0  0  0  0  0  0  0  0  0  0  0  0
  146.7838  138.6364  151.6594 H   0  0  0  0  0  0  0  0  0  0  0  0
  144.2190  136.9843  151.4863 H   0  0  0  0  0  0  0  0  0  0  0  0
  145.4541  137.1645  150.2552 H   0  0  0  0  0  0  0  0  0  0  0  0
  144.1645  135.0436  149.9415 H   0  0  0  0  0  0  0  0  0  0  0  0
  145.8638  134.7350  150.2110 H   0  0  0  0  0  0  0  0  0  0  0  0
  143.6362  134.5129  152.2959 H   0  0  0  0  0  0  0  0  0  0  0  0
  144.5259  133.1820  151.5892 H   0  0  0  0  0  0  0  0  0  0  0  0
  145.4036  133.7885  153.8578 H   0  0  0  0  0  0  0  0  0  0  0  0
  146.6248  133.9594  152.6201 H   0  0  0  0  0  0  0  0  0  0  0  0
  144.9479  136.2268  153.8030 H   0  0  0  0  0  0  0  0  0  0  0  0
  146.7249  135.4797  155.3420 H   0  0  0  0  0  0  0  0  0  0  0  0
  147.9329  135.5790  154.0766 H   0  0  0  0  0  0  0  0  0  0  0  0
  147.0496  136.2995  151.7833 H   0  0  0  0  0  0  0  0  0  0  0  0
  1  2  3  0  0  0  0
  2  3  1  0  0  0  0
  3  8  1  0  0  0  0
  3  4  2  0  0  0  0
  4  5  1  0  0  0  0
  4 21  1  0  0  0  0
  5  6  2  0  0  0  0
  5 22  1  0  0  0  0
  6  7  1  0  0  0  0
  6 23  1  0  0  0  0
  7  8  2  0  0  0  0
  8  9  1  0  0  0  0
  9 10  1  0  0  0  0
  9 24  1  0  0  0  0
 10 11  1  0  0  0  0
 10 25  1  0  0  0  0
 10 26  1  0  0  0  0
 11 20  1  0  0  0  0
 11 12  1  0  0  0  0
 11 27  1  0  0  0  0
 12 13  1  0  0  0  0
 12 28  1  0  0  0  0
 12 29  1  0  0  0  0
 13 18  1  0  0  0  0
 13 14  1  0  0  0  0
 13 41  1  0  0  0  0
 14 15  1  0  0  0  0
 14 30  1  0  0  0  0
 14 31  1  0  0  0  0
 15 16  1  0  0  0  0
 15 32  1  0  0  0  0
 15 33  1  0  0  0  0
 16 17  1  0  0  0  0
 16 34  1  0  0  0  0
 16 35  1  0  0  0  0
 17 18  1  0  0  0  0
 17 36  1  0  0  0  0
 17 37  1  0  0  0  0
 18 19  1  0  0  0  0
 18 38  1  0  0  0  0
 19 20  1  0  0  0  0
 19 39  1  0  0  0  0
 19 40  1  0  0  0  0
M  CHG  1  13   1
M  END
> <s_m_source_file>
AV-unprocessed.smi

> <i_m_source_file_index>
2439

> <i_lp_mmshare_version>
43012

> <i_f3d_flags>
0

> <s_epik_input>
TiNDYzFbY0hdW2NIXVtjSF1uYzFbTkhdW0NIMl1bQ0BIXShbQ0gyXTIpT1tDSDJdW0NAQEhdKE4yMylbQ0gyXVtDSDJdW0NIMl1bQ0gyXTM=

> <s_epik_cmdline>
J2VwaWtfcHl0aG9uJywgJy1waCcsICc3LjAnLCAnLXRuJywgJzgnLCAnLW1hJywgJzIwMCcsICctbWV0YWxfYmluZGluZycsICctaW1hZScsICc8aW5maWxlLm1hZT4nLCAnLW9tYWUnLCAnPG91dGZpbGUubWFlPic=

> <r_epik_Ionization_Penalty>
0.0803594

> <r_epik_Ionization_Penalty_Charging>
0.0803403

> <r_epik_Ionization_Penalty_Neutral>
1.90988e-05

> <r_epik_State_Penalty>
0.0711481

> <r_epik_Charging_Adjusted_Penalty>
0.151488

> <i_epik_Tot_Q>
1

> <i_epik_Tot_abs_Q>
1

> <r_epik_Metal_State_Penalty>
0.0711482

> <b_epik_Metal_Only>
0

> <s_lp_Force_Field>
OPLS_2005

> <r_lp_Energy>
27.3027

> <b_lp_Chiralities_Consistent>
1

> <s_lp_Variant>
AV-unprocessed.smi:2439-1

> <Gold.Version>
5.8.1

> <Gold.Id.Protein>
6NUR|6NUR_protein|mol2

> <Gold.PLP.Fitness>
38.7470

> <Gold.PLP.PLP>
-27.7911

> <Gold.PLP.part.hbond>
-3.0000

> <Gold.PLP.part.metal>
0.0000

> <Gold.PLP.part.buried>
2.5264

> <Gold.PLP.part.nonpolar>
-27.2138

> <Gold.PLP.part.repulsive>
0.5409

> <Gold.PLP.ligand.clash>
0.0000

> <Gold.PLP.ligand.torsion>
1.3400

> <Gold.PLP.Chemscore.Hbond>
3.7375

> <Gold.PLP.Chemscore.CHOScore>
0.8072

> <Gold.PLP.Chemscore.Metal>
0.0000

> <Gold.Chemscore.Hbonds>
donor molecule, donor type, donor heavy atom, donor atom, acceptor molecule, acceptor atom, score
      L1  H     9    24       P1  7957  1.00
      L1  H    13    41       P1  7948  1.95
      P1  H 10752 10763       L1     1  0.84
      L1  C     6    23       P1  8028  0.64

> <Gold.PLP.Chemscore.Internal.Correction>
0.0020

> <Gold.Rescore>
     Score         DG    S(hbond)    S(metal)    S(lipo)     H(rot)  DE(clash)    DE(int)     intcor
     16.33     -19.33       2.82        0.00      65.55       1.27       1.63       1.36       ----

> <Gold.Chemscore.Fitness>
16.3341

> <Gold.Chemscore.DG>
-19.3289

> <Gold.Chemscore.ZeroCoef>
-5.4800

> <Gold.Chemscore.Hbond>
2.8205

> <Gold.Chemscore.Metal>
0.0000

> <Gold.Chemscore.Lipo>
65.5491

> <Gold.Chemscore.Internal_Hbond>
0.0000

> <Gold.Chemscore.DEClash>
1.6333

> <Gold.Chemscore.DEInternal>
1.3616

> <Gold.Chemscore.Rot>
1.2659

> <Gold.Chemscore.Internal.Correction>
   9.000000E+99

> <Gold.Chemscore.Hbonds>
donor molecule, donor type, donor heavy atom, donor atom, acceptor molecule, acceptor atom, score
      L1  H     9    24       P1  7957  0.98
      L1  H    13    41       P1  7948  0.93
      P1  H 10752 10763       L1     1  0.78

> <Gold.Chemscore.Hbond.Weighted>
-9.4204

> <Gold.Chemscore.Metal.Weighted>
-0.0000

> <Gold.Chemscore.Lipo.Weighted>
-7.6692

> <Gold.Chemscore.Internal_Hbond.Weighted>
0.0000

> <Gold.Chemscore.DEClash.Weighted>
1.6333

> <Gold.Chemscore.DEInternal.Weighted>
1.3616

> <Gold.Chemscore.Rot.Weighted>
3.2408

> <Gold.Chemscore.Internal.Correction.Weighted>
   9.000000E+99

> <Gold.Protein.RotatedTorsions>
[ 6907 6896 6895 6894 ] final   38.80 input  -60.11 | X-H torsion
[ 7974 7965 7964 7962 ] final  -92.58 input  175.53 | X-H torsion
[ 8008 7997 7996 7995 ] final   37.59 input   59.86 | X-H torsion
[ 10167 10162 10161 10158 ] final   -0.97 input  -65.29 | X-H torsion
[ 10718 10713 10712 10709 ] final -160.92 input   66.30 | X-H torsion
[ 10763 10752 10751 10750 ] final   28.03 input  -60.55 | X-H torsion
[ 11005 11000 10999 10996 ] final  158.52 input  -57.11 | X-H torsion

> <Gold.Protein.ActiveResidues>
 VAL166  LYS551  ARG553  GLY616  TRP617  ASP618  TYR619  PRO620  LYS621  CYS622 
 ASP623  PHE694  ASN695  SER759  ASP760  ASP761  ALA762  ILE779  LEU786  VAL792 
 PHE793  MET794  SER795  GLU796  ALA797  LYS798  CYS799  TRP800  GLU811  SER814 

> <Gold.Protein.RotatedAtoms>
  152.1613  134.8910  160.0541 H   0  0  0  0  0  0  0  0  0  0  0  0  # atno 6907 bound_to 6896
  151.9905  133.3784  159.4150 H   0  0  0  0  0  0  0  0  0  0  0  0  # atno 6908 bound_to 6896
  150.6888  134.3864  159.5101 H   0  0  0  0  0  0  0  0  0  0  0  0  # atno 6909 bound_to 6896
  145.3979  140.9534  143.2303 H   0  0  0  0  0  0  0  0  0  0  0  0  # atno 7974 bound_to 7965
  155.2062  140.3320  155.4335 H   0  0  0  0  0  0  0  0  0  0  0  0  # atno 8008 bound_to 7997
  156.2388  140.1885  156.7095 H   0  0  0  0  0  0  0  0  0  0  0  0  # atno 8009 bound_to 7997
  154.6108  140.0609  156.9477 H   0  0  0  0  0  0  0  0  0  0  0  0  # atno 8010 bound_to 7997
  140.6790  143.6831  150.8089 H   0  0  0  0  0  0  0  0  0  0  0  0  # atno 10167 bound_to 10162
  156.5890  130.8762  151.2885 H   0  0  0  0  0  0  0  0  0  0  0  0  # atno 10718 bound_to 10713
  153.0517  135.6523  154.0676 H   0  0  0  0  0  0  0  0  0  0  0  0  # atno 10763 bound_to 10752
  154.0363  135.2907  155.3363 H   0  0  0  0  0  0  0  0  0  0  0  0  # atno 10764 bound_to 10752
  154.6810  135.5320  153.8329 H   0  0  0  0  0  0  0  0  0  0  0  0  # atno 10765 bound_to 10752
  140.1873  134.8433  157.2872 H   0  0  0  0  0  0  0  0  0  0  0  0  # atno 11005 bound_to 11000
  144.8394  139.5496  143.6907 LP  0  0  0  0  0  0  0  0  0  0  0  0  # atno 17320 bound_to 7965
  146.2766  139.6768  142.9259 LP  0  0  0  0  0  0  0  0  0  0  0  0  # atno 17321 bound_to 7965
  140.0529  143.5232  152.2665 LP  0  0  0  0  0  0  0  0  0  0  0  0  # atno 17342 bound_to 10162
  139.6100  144.7606  151.2973 LP  0  0  0  0  0  0  0  0  0  0  0  0  # atno 17343 bound_to 10162
  157.7308  130.9691  150.1851 LP  0  0  0  0  0  0  0  0  0  0  0  0  # atno 17370 bound_to 10713
  156.2566  130.3706  149.8175 LP  0  0  0  0  0  0  0  0  0  0  0  0  # atno 17371 bound_to 10713
  140.2199  134.4035  155.7571 LP  0  0  0  0  0  0  0  0  0  0  0  0  # atno 17394 bound_to 11000
  141.2225  133.7161  156.8474 LP  0  0  0  0  0  0  0  0  0  0  0  0  # atno 17395 bound_to 11000

$$$$
