#       Name:                AV-unprocessed.smi:1648
#       Creating user name   scv26
#       Creation time:       Fri Mar 27 07:33:06 2020


#       File generated by GOLD software.
#

@<TRIPOS>MOLECULE
AV-unprocessed.smi:1648
    46    46     1
SMALL
NO_CHARGES


@<TRIPOS>ATOM
      1 ****        -1.8264   1.0824   2.0854 C.3            1 S1                 0.0000
      2 ****        -1.5634  -0.4096   2.2981 C.2            1 S1                 0.0000
      3 ****        -1.4716  -0.8478   3.4422 O.2            1 S1                 0.0000
      4 ****        -1.4405  -1.2161   1.2296 N.am           1 S1                 0.0000
      5 ****        -1.1894  -2.6595   1.2310 C.3            1 S1                 0.0000
      6 ****        -2.5589  -3.3592   1.2953 C.2            1 S1                 0.0000
      7 ****        -3.4147  -3.1339   0.4383 O.2            1 S1                 0.0000
      8 ****        -2.7544  -4.1941   2.3283 N.am           1 S1                 0.0000
      9 ****        -3.9880  -4.9264   2.6104 C.3            1 S1                 0.0000
     10 ****        -3.6255  -6.3026   3.1836 C.3            1 S1                 0.0000
     11 ****        -4.8943  -4.1378   3.5822 C.3            1 S1                 0.0000
     12 ****        -5.4026  -2.8847   3.0110 N.pl3          1 S1                 0.0000
     13 ****        -6.3174  -2.7434   1.9989 C.2            1 S1                 0.0000
     14 ****        -6.4730  -1.3961   1.7974 C.2            1 S1                 0.0000
     15 ****        -5.6563  -0.7719   2.7016 N.pl3          1 S1                 1.0000
     16 ****        -5.0142  -1.6783   3.4449 C.2            1 S1                 0.0000
     17 ****        -0.4540  -3.0478  -0.0851 C.3            1 S1                 0.0000
     18 ****        -0.1890  -4.5635  -0.1980 C.3            1 S1                 0.0000
     19 ****         0.8796  -2.2904  -0.2401 C.3            1 S1                 0.0000
     20 ****        -1.0772   1.5278   1.4318 H              1 S1                 0.0000
     21 ****        -1.8008   1.6162   3.0360 H              1 S1                 0.0000
     22 ****        -2.8104   1.2343   1.6412 H              1 S1                 0.0000
     23 ****        -1.5867  -0.7970   0.3224 H              1 S1                 0.0000
     24 ****        -0.5714  -2.9493   2.0827 H              1 S1                 0.0000
     25 ****        -1.9912  -4.3252   2.9768 H              1 S1                 0.0000
     26 ****        -4.5328  -5.0999   1.6806 H              1 S1                 0.0000
     27 ****        -4.5204  -6.8957   3.3744 H              1 S1                 0.0000
     28 ****        -3.0804  -6.2116   4.1239 H              1 S1                 0.0000
     29 ****        -3.0010  -6.8659   2.4894 H              1 S1                 0.0000
     30 ****        -5.7639  -4.7369   3.8552 H              1 S1                 0.0000
     31 ****        -4.3644  -3.9113   4.5090 H              1 S1                 0.0000
     32 ****        -6.7698  -3.5900   1.5031 H              1 S1                 0.0000
     33 ****        -7.0880  -0.8496   1.0971 H              1 S1                 0.0000
     34 ****        -4.3129  -1.4729   4.2333 H              1 S1                 0.0000
     35 ****        -1.0798  -2.7647  -0.9334 H              1 S1                 0.0000
     36 ****         0.4040  -4.9237   0.6434 H              1 S1                 0.0000
     37 ****         0.3584  -4.7978  -1.1114 H              1 S1                 0.0000
     38 ****        -1.1119  -5.1430  -0.2282 H              1 S1                 0.0000
     39 ****         1.5519  -2.5011   0.5922 H              1 S1                 0.0000
     40 ****         0.7337  -1.2111  -0.2850 H              1 S1                 0.0000
     41 ****         1.3907  -2.5792  -1.1590 H              1 S1                 0.0000
     42 ****        -5.5531   0.2307   2.7971 H              1 S1                 0.0000
     43 ****        -1.5686  -0.2309   4.2232 LP             1 S1                 0.0000
     44 ****        -1.2998  -1.8214   3.5924 LP             1 S1                 0.0000
     45 ****        -3.2217  -2.4932  -0.3049 LP             1 S1                 0.0000
     46 ****        -4.3025  -3.5917   0.4857 LP             1 S1                 0.0000
@<TRIPOS>BOND
    1    1    2 1     
    2    1   20 1     
    3    1   21 1     
    4    1   22 1     
    5    2    3 2     
    6    2    4 am    
    7    4    5 1     
    8    4   23 1     
    9    5    6 1     
   10    5   17 1     
   11    5   24 1     
   12    6    7 2     
   13    6    8 am    
   14    8    9 1     
   15    8   25 1     
   16    9   10 1     
   17    9   11 1     
   18    9   26 1     
   19   10   27 1     
   20   10   28 1     
   21   10   29 1     
   22   11   12 1     
   23   11   30 1     
   24   11   31 1     
   25   12   16 1     
   26   12   13 1     
   27   13   14 2     
   28   13   32 1     
   29   14   15 1     
   30   14   33 1     
   31   15   16 2     
   32   15   42 1     
   33   16   34 1     
   34   17   18 1     
   35   17   19 1     
   36   17   35 1     
   37   18   36 1     
   38   18   37 1     
   39   18   38 1     
   40   19   39 1     
   41   19   40 1     
   42   19   41 1     
   43    3   43 1     
   44    3   44 1     
   45    7   45 1     
   46    7   46 1     
@<TRIPOS>SUBSTRUCTURE
      1 S1             1
@<TRIPOS>SET
LONE_PAIRS      STATIC     ATOMS    <user>   **** ""
4 43 44 45 46
DONOR_HYDROGENS      STATIC     ATOMS    <user>   **** ""
3 23 25 42
ATOM$BLUE        STATIC     ATOMS    COLORGROUP SYSTEM
4 43 44 45 46
ATOM$RED        STATIC     ATOMS    COLORGROUP SYSTEM
3 23 25 42
