AV-unprocessed.smi:1718|AV-procd|sdf|6925|dock10
  -GOLD-   22720 8133D 1   1.00000     0.00000
 Structure written by MMmdl.
 40 41  0  0  0  0  0  0  0  0  1 V2000
  153.8078  138.7039  159.5971 C   0  0  0  0  0  0  0  0  0  0  0  0
  152.4777  138.9607  158.8741 C   0  0  1  0  0  0  0  0  0  0  0  0
  152.7123  139.9627  157.8882 O   0  0  0  0  0  0  0  0  0  0  0  0
  151.6872  140.9410  157.7539 C   0  0  0  0  0  0  0  0  0  0  0  0
  151.7205  141.8631  158.9782 C   0  0  1  0  0  0  0  0  0  0  0  0
  153.0932  141.9630  159.6450 C   0  0  0  0  0  0  0  0  0  0  0  0
  153.0298  143.3348  160.2760 C   0  0  0  0  0  0  0  0  0  0  0  0
  152.2770  144.1243  159.2107 C   0  0  0  0  0  0  0  0  0  0  0  0
  151.3813  143.1968  158.6036 O   0  0  0  0  0  0  0  0  0  0  0  0
  151.9487  137.6782  158.2124 C   0  0  0  0  0  0  0  0  0  0  0  0
  152.0253  136.6089  158.8178 O   0  0  0  0  0  0  0  0  0  0  0  0
  151.4281  137.8343  156.9794 N   0  0  0  0  0  0  0  0  0  0  0  0
  150.9416  136.8593  156.0933 C   0  0  0  0  0  0  0  0  0  0  0  0
  150.8351  135.5367  156.3841 C   0  0  0  0  0  0  0  0  0  0  0  0
  150.3429  134.5717  155.4170 C   0  0  0  0  0  0  0  0  0  0  0  0
  150.2127  133.1016  155.7810 C   0  0  0  0  0  0  0  0  0  0  0  0
  149.7943  132.3692  154.7477 F   0  0  0  0  0  0  0  0  0  0  0  0
  151.3903  132.6248  156.1832 F   0  0  0  0  0  0  0  0  0  0  0  0
  149.3453  132.9506  156.7812 F   0  0  0  0  0  0  0  0  0  0  0  0
  150.0026  135.0528  154.2066 C   0  0  0  0  0  0  0  0  0  0  0  0
  150.1223  136.4094  153.8951 N   0  0  0  0  0  0  0  0  0  0  0  0
  150.5738  137.3503  154.7550 C   0  0  0  0  0  0  0  0  0  0  0  0
  150.6552  138.5266  154.4026 O   0  0  0  0  0  0  0  0  0  0  0  0
  149.8528  136.6916  152.9636 H   0  0  0  0  0  0  0  0  0  0  0  0
  153.7013  137.9328  160.3609 H   0  0  0  0  0  0  0  0  0  0  0  0
  154.1588  139.6098  160.0916 H   0  0  0  0  0  0  0  0  0  0  0  0
  154.5870  138.3849  158.9036 H   0  0  0  0  0  0  0  0  0  0  0  0
  151.7549  139.3335  159.6027 H   0  0  0  0  0  0  0  0  0  0  0  0
  151.8081  141.5319  156.8453 H   0  0  0  0  0  0  0  0  0  0  0  0
  150.7174  140.4454  157.6926 H   0  0  0  0  0  0  0  0  0  0  0  0
  150.9833  141.5355  159.7127 H   0  0  0  0  0  0  0  0  0  0  0  0
  153.2734  141.1665  160.3675 H   0  0  0  0  0  0  0  0  0  0  0  0
  153.8891  141.9336  158.8991 H   0  0  0  0  0  0  0  0  0  0  0  0
  152.4497  143.2974  161.1990 H   0  0  0  0  0  0  0  0  0  0  0  0
  154.0119  143.7506  160.5030 H   0  0  0  0  0  0  0  0  0  0  0  0
  151.7463  144.9825  159.6233 H   0  0  0  0  0  0  0  0  0  0  0  0
  152.9682  144.4874  158.4490 H   0  0  0  0  0  0  0  0  0  0  0  0
  151.3480  138.7843  156.6453 H   0  0  0  0  0  0  0  0  0  0  0  0
  151.1367  135.1515  157.3448 H   0  0  0  0  0  0  0  0  0  0  0  0
  149.6188  134.4521  153.3952 H   0  0  0  0  0  0  0  0  0  0  0  0
  1  2  1  0  0  0  0
  1 25  1  0  0  0  0
  1 26  1  0  0  0  0
  1 27  1  0  0  0  0
  2  3  1  0  0  0  0
  2 10  1  0  0  0  0
  2 28  1  0  0  0  0
  3  4  1  0  0  0  0
  4  5  1  0  0  0  0
  4 29  1  0  0  0  0
  4 30  1  0  0  0  0
  5  9  1  0  0  0  0
  5  6  1  0  0  0  0
  5 31  1  0  0  0  0
  6  7  1  0  0  0  0
  6 32  1  0  0  0  0
  6 33  1  0  0  0  0
  7  8  1  0  0  0  0
  7 34  1  0  0  0  0
  7 35  1  0  0  0  0
  8  9  1  0  0  0  0
  8 36  1  0  0  0  0
  8 37  1  0  0  0  0
 10 11  2  0  0  0  0
 10 12  1  0  0  0  0
 12 13  1  0  0  0  0
 12 38  1  0  0  0  0
 13 22  1  0  0  0  0
 13 14  2  0  0  0  0
 14 15  1  0  0  0  0
 14 39  1  0  0  0  0
 15 16  1  0  0  0  0
 15 20  2  0  0  0  0
 16 17  1  0  0  0  0
 16 18  1  0  0  0  0
 16 19  1  0  0  0  0
 20 21  1  0  0  0  0
 20 40  1  0  0  0  0
 21 24  1  0  0  0  0
 21 22  1  0  0  0  0
 22 23  2  0  0  0  0
M  END
> <s_m_source_file>
AV-unprocessed.smi

> <i_m_source_file_index>
1718

> <i_lp_mmshare_version>
43012

> <i_f3d_flags>
0

> <s_epik_input>
TzFbQ0gyXVtDSDJdW0NIMl1bQ0BIXTFbQ0gyXU9bQ0BASF0oW0NIM10pQyg9TylbTkhdYzJbY0hdYyhDKEYpKEYpRilbY0hdW25IXWMyPU8=

> <s_epik_cmdline>
J2VwaWtfcHl0aG9uJywgJy1waCcsICc3LjAnLCAnLXRuJywgJzgnLCAnLW1hJywgJzIwMCcsICctbWV0YWxfYmluZGluZycsICctaW1hZScsICc8aW5maWxlLm1hZT4nLCAnLW9tYWUnLCAnPG91dGZpbGUubWFlPic=

> <r_lp_tautomer_probability>
0.999

> <r_epik_Ionization_Penalty>
0.00894336

> <r_epik_Ionization_Penalty_Charging>
0.00894326

> <r_epik_Ionization_Penalty_Neutral>
1.00145e-07

> <r_epik_State_Penalty>
0.00676626

> <r_epik_Charging_Adjusted_Penalty>
0.0157095

> <i_epik_Tot_Q>
0

> <i_epik_Tot_abs_Q>
0

> <r_epik_Metal_State_Penalty>
0.321145

> <b_epik_Metal_Only>
0

> <s_lp_Force_Field>
OPLS_2005

> <r_lp_Energy>
34.4612

> <b_lp_Chiralities_Consistent>
1

> <s_lp_Variant>
AV-unprocessed.smi:1718-4

> <Gold.Version>
5.8.1

> <Gold.Id.Protein>
6NUR|6NUR_protein|mol2

> <Gold.PLP.Fitness>
40.8547

> <Gold.PLP.PLP>
-35.4958

> <Gold.PLP.part.hbond>
-4.0000

> <Gold.PLP.part.metal>
0.0000

> <Gold.PLP.part.buried>
-4.4842

> <Gold.PLP.part.nonpolar>
-28.1999

> <Gold.PLP.part.repulsive>
0.3637

> <Gold.PLP.ligand.clash>
0.1622

> <Gold.PLP.ligand.torsion>
1.6126

> <Gold.PLP.Chemscore.Hbond>
2.8800

> <Gold.PLP.Chemscore.CHOScore>
0.0000

> <Gold.PLP.Chemscore.Metal>
0.0000

> <Gold.Chemscore.Hbonds>
donor molecule, donor type, donor heavy atom, donor atom, acceptor molecule, acceptor atom, score
      L1  H    21    24       P1  7948  0.44
      P1  H  6896  6909       L1    11  0.77
      P1  H  7997  8008       L1     3  0.98
      L1  C    20    40       P1  7948  0.06

> <Gold.PLP.Chemscore.Internal.Correction>
0.1063

> <Gold.Rescore>
     Score         DG    S(hbond)    S(metal)    S(lipo)     H(rot)  DE(clash)    DE(int)     intcor
     17.01     -19.71       2.82        0.00      82.15       1.88       0.05       2.66       ----

> <Gold.Chemscore.Fitness>
17.0055

> <Gold.Chemscore.DG>
-19.7132

> <Gold.Chemscore.ZeroCoef>
-5.4800

> <Gold.Chemscore.Hbond>
2.8238

> <Gold.Chemscore.Metal>
0.0000

> <Gold.Chemscore.Lipo>
82.1525

> <Gold.Chemscore.Internal_Hbond>
0.0000

> <Gold.Chemscore.DEClash>
0.0453

> <Gold.Chemscore.DEInternal>
2.6624

> <Gold.Chemscore.Rot>
1.8790

> <Gold.Chemscore.Internal.Correction>
   9.000000E+99

> <Gold.Chemscore.Hbonds>
donor molecule, donor type, donor heavy atom, donor atom, acceptor molecule, acceptor atom, score
      L1  H    21    24       P1  7948  0.05
      P1  H  6896  6909       L1    11  0.76
      P1  H  7997  8008       L1     3  0.89

> <Gold.Chemscore.Hbond.Weighted>
-9.4315

> <Gold.Chemscore.Metal.Weighted>
-0.0000

> <Gold.Chemscore.Lipo.Weighted>
-9.6118

> <Gold.Chemscore.Internal_Hbond.Weighted>
0.0000

> <Gold.Chemscore.DEClash.Weighted>
0.0453

> <Gold.Chemscore.DEInternal.Weighted>
2.6624

> <Gold.Chemscore.Rot.Weighted>
4.8102

> <Gold.Chemscore.Internal.Correction.Weighted>
   9.000000E+99

> <Gold.Protein.RotatedTorsions>
[ 6907 6896 6895 6894 ] final  119.51 input  -60.11 | X-H torsion
[ 7974 7965 7964 7962 ] final  139.07 input  175.53 | X-H torsion
[ 8008 7997 7996 7995 ] final  -77.84 input   59.86 | X-H torsion
[ 10167 10162 10161 10158 ] final  -77.24 input  -65.29 | X-H torsion
[ 10718 10713 10712 10709 ] final  129.38 input   66.30 | X-H torsion
[ 10763 10752 10751 10750 ] final  -29.03 input  -60.55 | X-H torsion
[ 11005 11000 10999 10996 ] final  -13.73 input  -57.11 | X-H torsion

> <Gold.Protein.ActiveResidues>
 VAL166  LYS551  ARG553  GLY616  TRP617  ASP618  TYR619  PRO620  LYS621  CYS622 
 ASP623  PHE694  ASN695  SER759  ASP760  ASP761  ALA762  ILE779  LEU786  VAL792 
 PHE793  MET794  SER795  GLU796  ALA797  LYS798  CYS799  TRP800  GLU811  SER814 

> <Gold.Protein.RotatedAtoms>
  152.4467  133.7549  159.6714 H   0  0  0  0  0  0  0  0  0  0  0  0  # atno 6907 bound_to 6896
  150.8368  133.7990  159.3082 H   0  0  0  0  0  0  0  0  0  0  0  0  # atno 6908 bound_to 6896
  151.5627  135.1067  160.0028 H   0  0  0  0  0  0  0  0  0  0  0  0  # atno 6909 bound_to 6896
  144.9313  139.5044  143.5616 H   0  0  0  0  0  0  0  0  0  0  0  0  # atno 7974 bound_to 7965
  154.5633  140.0704  156.8853 H   0  0  0  0  0  0  0  0  0  0  0  0  # atno 8008 bound_to 7997
  155.2769  140.3369  155.4243 H   0  0  0  0  0  0  0  0  0  0  0  0  # atno 8009 bound_to 7997
  156.2060  140.1740  156.7783 H   0  0  0  0  0  0  0  0  0  0  0  0  # atno 8010 bound_to 7997
  140.4787  143.2407  151.8092 H   0  0  0  0  0  0  0  0  0  0  0  0  # atno 10167 bound_to 10162
  157.5159  131.1097  150.9225 H   0  0  0  0  0  0  0  0  0  0  0  0  # atno 10718 bound_to 10713
  153.7580  135.6921  153.4931 H   0  0  0  0  0  0  0  0  0  0  0  0  # atno 10763 bound_to 10752
  153.1958  135.4454  155.0204 H   0  0  0  0  0  0  0  0  0  0  0  0  # atno 10764 bound_to 10752
  154.8163  135.3400  154.7097 H   0  0  0  0  0  0  0  0  0  0  0  0  # atno 10765 bound_to 10752
  140.7791  133.8377  155.9275 H   0  0  0  0  0  0  0  0  0  0  0  0  # atno 11005 bound_to 11000
  146.3248  139.8265  142.8916 LP  0  0  0  0  0  0  0  0  0  0  0  0  # atno 17320 bound_to 7965
  145.3137  141.0226  143.3540 LP  0  0  0  0  0  0  0  0  0  0  0  0  # atno 17321 bound_to 7965
  139.4830  144.4800  151.9319 LP  0  0  0  0  0  0  0  0  0  0  0  0  # atno 17342 bound_to 10162
  140.3885  144.2645  150.5902 LP  0  0  0  0  0  0  0  0  0  0  0  0  # atno 17343 bound_to 10162
  156.9851  130.5542  149.5299 LP  0  0  0  0  0  0  0  0  0  0  0  0  # atno 17370 bound_to 10713
  156.0320  130.5410  150.8558 LP  0  0  0  0  0  0  0  0  0  0  0  0  # atno 17371 bound_to 10713
  140.9500  134.1791  157.4735 LP  0  0  0  0  0  0  0  0  0  0  0  0  # atno 17394 bound_to 11000
  139.8745  134.9905  156.5507 LP  0  0  0  0  0  0  0  0  0  0  0  0  # atno 17395 bound_to 11000

$$$$
