AV-unprocessed.smi:1703|AV-procd|sdf|6863|dock10
  -GOLD-   22720 8 53D 1   1.00000     0.00000
 Structure written by MMmdl.
 49 51  0  0  0  0  0  0  0  0  2 V2000
  145.6735  136.2982  151.5328 C   0  0  0  0  0  0  0  0  0  0  0  0
  145.4116  137.4466  152.5135 C   0  0  2  0  0  0  0  0  0  0  0  0
  146.5813  138.4477  152.5599 C   0  0  0  0  0  0  0  0  0  0  0  0
  146.3291  139.4979  153.5745 N   0  3  2  0  0  0  0  0  0  0  0  0
  147.4034  140.5226  153.6060 C   0  0  0  0  0  0  0  0  0  0  0  0
  148.4049  140.3026  154.7613 C   0  0  2  0  0  0  0  0  0  0  0  0
  147.9714  141.0334  155.8905 O   0  0  0  0  0  0  0  0  0  0  0  0
  149.8416  140.7556  154.4314 C   0  0  0  0  0  0  0  0  0  0  0  0
  150.7926  140.4218  155.4837 N   0  0  0  0  0  0  0  0  0  0  0  0
  151.6850  139.3990  155.5283 C   0  0  0  0  0  0  0  0  0  0  0  0
  151.8237  138.4019  154.4187 C   0  0  0  0  0  0  0  0  0  0  0  0
  151.7042  137.0687  154.8656 O   0  0  0  0  0  0  0  0  0  0  0  0
  152.4337  139.3309  156.6293 N   0  0  0  0  0  0  0  0  0  0  0  0
  151.9971  140.4161  157.3631 C   0  0  0  0  0  0  0  0  0  0  0  0
  152.4032  140.8914  158.6304 C   0  0  0  0  0  0  0  0  0  0  0  0
  151.8039  142.0400  159.1875 C   0  0  0  0  0  0  0  0  0  0  0  0
  150.7924  142.7283  158.4867 C   0  0  0  0  0  0  0  0  0  0  0  0
  150.3720  142.2706  157.2231 C   0  0  0  0  0  0  0  0  0  0  0  0
  150.9723  141.1227  156.6723 C   0  0  0  0  0  0  0  0  0  0  0  0
  146.0521  138.8809  154.8953 C   0  0  0  0  0  0  0  0  0  0  0  0
  144.8933  137.8720  154.7853 C   0  0  2  0  0  0  0  0  0  0  0  0
  144.6203  137.1566  156.1130 C   0  0  0  0  0  0  0  0  0  0  0  0
  145.2238  136.8895  153.8099 O   0  0  0  0  0  0  0  0  0  0  0  0
  145.8078  136.6717  150.5173 H   0  0  0  0  0  0  0  0  0  0  0  0
  144.8379  135.5980  151.5209 H   0  0  0  0  0  0  0  0  0  0  0  0
  146.5701  135.7411  151.8060 H   0  0  0  0  0  0  0  0  0  0  0  0
  144.4986  137.9611  152.2087 H   0  0  0  0  0  0  0  0  0  0  0  0
  147.5135  137.9313  152.7960 H   0  0  0  0  0  0  0  0  0  0  0  0
  146.7086  138.9075  151.5789 H   0  0  0  0  0  0  0  0  0  0  0  0
  147.9100  140.5237  152.6400 H   0  0  0  0  0  0  0  0  0  0  0  0
  146.9607  141.5135  153.7183 H   0  0  0  0  0  0  0  0  0  0  0  0
  148.4343  139.2498  155.0384 H   0  0  0  0  0  0  0  0  0  0  0  0
  147.4247  141.7473  155.5986 H   0  0  0  0  0  0  0  0  0  0  0  0
  150.1699  140.3198  153.4883 H   0  0  0  0  0  0  0  0  0  0  0  0
  149.8676  141.8366  154.2873 H   0  0  0  0  0  0  0  0  0  0  0  0
  151.0539  138.5877  153.6687 H   0  0  0  0  0  0  0  0  0  0  0  0
  152.7833  138.5352  153.9200 H   0  0  0  0  0  0  0  0  0  0  0  0
  150.7965  136.8973  155.0646 H   0  0  0  0  0  0  0  0  0  0  0  0
  153.1786  140.3726  159.1743 H   0  0  0  0  0  0  0  0  0  0  0  0
  152.1232  142.3955  160.1564 H   0  0  0  0  0  0  0  0  0  0  0  0
  150.3407  143.6091  158.9194 H   0  0  0  0  0  0  0  0  0  0  0  0
  149.5994  142.7980  156.6838 H   0  0  0  0  0  0  0  0  0  0  0  0
  146.9516  138.3827  155.2611 H   0  0  0  0  0  0  0  0  0  0  0  0
  145.7929  139.6458  155.6263 H   0  0  0  0  0  0  0  0  0  0  0  0
  143.9829  138.3907  154.4788 H   0  0  0  0  0  0  0  0  0  0  0  0
  144.3549  137.8682  156.8954 H   0  0  0  0  0  0  0  0  0  0  0  0
  145.4949  136.5994  156.4499 H   0  0  0  0  0  0  0  0  0  0  0  0
  143.7947  136.4518  156.0130 H   0  0  0  0  0  0  0  0  0  0  0  0
  145.4866  139.9760  153.2869 H   0  0  0  0  0  0  0  0  0  0  0  0
  1  2  1  0  0  0  0
  1 24  1  0  0  0  0
  1 25  1  0  0  0  0
  1 26  1  0  0  0  0
  2 23  1  0  0  0  0
  2  3  1  0  0  0  0
  2 27  1  0  0  0  0
  3  4  1  0  0  0  0
  3 28  1  0  0  0  0
  3 29  1  0  0  0  0
  4  5  1  0  0  0  0
  4 20  1  0  0  0  0
  4 49  1  0  0  0  0
  5  6  1  0  0  0  0
  5 30  1  0  0  0  0
  5 31  1  0  0  0  0
  6  7  1  0  0  0  0
  6  8  1  0  0  0  0
  6 32  1  0  0  0  0
  7 33  1  0  0  0  0
  8  9  1  0  0  0  0
  8 34  1  0  0  0  0
  8 35  1  0  0  0  0
  9 19  1  0  0  0  0
  9 10  1  0  0  0  0
 10 11  1  0  0  0  0
 10 13  2  0  0  0  0
 11 12  1  0  0  0  0
 11 36  1  0  0  0  0
 11 37  1  0  0  0  0
 12 38  1  0  0  0  0
 13 14  1  0  0  0  0
 14 19  2  0  0  0  0
 14 15  1  0  0  0  0
 15 16  2  0  0  0  0
 15 39  1  0  0  0  0
 16 17  1  0  0  0  0
 16 40  1  0  0  0  0
 17 18  2  0  0  0  0
 17 41  1  0  0  0  0
 18 19  1  0  0  0  0
 18 42  1  0  0  0  0
 20 21  1  0  0  0  0
 20 43  1  0  0  0  0
 20 44  1  0  0  0  0
 21 22  1  0  0  0  0
 21 23  1  0  0  0  0
 21 45  1  0  0  0  0
 22 46  1  0  0  0  0
 22 47  1  0  0  0  0
 22 48  1  0  0  0  0
M  CHG  1   4   1
M  END
> <s_m_source_file>
AV-unprocessed.smi

> <i_m_source_file_index>
1703

> <i_lp_mmshare_version>
43012

> <i_f3d_flags>
0

> <s_epik_input>
W0NIM11bQ0BASF0xW0NIMl1OKFtDSDJdW0NASF0oTzEpW0NIM10pW0NIMl1bQ0BIXShbT0hdKVtDSDJdbihjKG4yKVtDSDJdW09IXSljKGMyMylbY0hdW2NIXVtjSF1bY0hdMw==

> <s_epik_cmdline>
J2VwaWtfcHl0aG9uJywgJy1waCcsICc3LjAnLCAnLXRuJywgJzgnLCAnLW1hJywgJzIwMCcsICctbWV0YWxfYmluZGluZycsICctaW1hZScsICc8aW5maWxlLm1hZT4nLCAnLW9tYWUnLCAnPG91dGZpbGUubWFlPic=

> <r_epik_Ionization_Penalty>
0.655661

> <r_epik_Ionization_Penalty_Charging>
0.608065

> <r_epik_Ionization_Penalty_Neutral>
0.0475963

> <r_epik_State_Penalty>
0.695267

> <r_epik_Charging_Adjusted_Penalty>
1.30333

> <i_epik_Tot_Q>
1

> <i_epik_Tot_abs_Q>
1

> <r_epik_Metal_State_Penalty>
0.653591

> <b_epik_Metal_Only>
0

> <s_lp_Force_Field>
OPLS_2005

> <r_lp_Energy>
21.8251

> <b_lp_Chiralities_Consistent>
1

> <s_lp_Variant>
AV-unprocessed.smi:1703-11

> <Gold.Version>
5.8.1

> <Gold.Id.Protein>
6NUR|6NUR_protein|mol2

> <Gold.PLP.Fitness>
44.4522

> <Gold.PLP.PLP>
-35.8762

> <Gold.PLP.part.hbond>
-2.8936

> <Gold.PLP.part.metal>
0.0000

> <Gold.PLP.part.buried>
-1.0871

> <Gold.PLP.part.nonpolar>
-32.5476

> <Gold.PLP.part.repulsive>
0.1036

> <Gold.PLP.ligand.clash>
0.0000

> <Gold.PLP.ligand.torsion>
1.2347

> <Gold.PLP.Chemscore.Hbond>
3.6598

> <Gold.PLP.Chemscore.CHOScore>
0.0000

> <Gold.PLP.Chemscore.Metal>
0.0000

> <Gold.Chemscore.Hbonds>
donor molecule, donor type, donor heavy atom, donor atom, acceptor molecule, acceptor atom, score
      L1  H     4    49       P1 10175  1.95
      P1  H  7997  8010       L1    13  0.55
      P1  H 10752 10764       L1    12  1.00

> <Gold.PLP.Chemscore.Internal.Correction>
0.0661

> <Gold.Rescore>
     Score         DG    S(hbond)    S(metal)    S(lipo)     H(rot)  DE(clash)    DE(int)     intcor
     12.75     -15.90       1.89        0.00      99.99       2.96       1.75       1.40       ----

> <Gold.Chemscore.Fitness>
12.7464

> <Gold.Chemscore.DG>
-15.8983

> <Gold.Chemscore.ZeroCoef>
-5.4800

> <Gold.Chemscore.Hbond>
1.8862

> <Gold.Chemscore.Metal>
0.0000

> <Gold.Chemscore.Lipo>
99.9891

> <Gold.Chemscore.Internal_Hbond>
0.0000

> <Gold.Chemscore.DEClash>
1.7532

> <Gold.Chemscore.DEInternal>
1.3986

> <Gold.Chemscore.Rot>
2.9611

> <Gold.Chemscore.Internal.Correction>
   9.000000E+99

> <Gold.Chemscore.Hbonds>
donor molecule, donor type, donor heavy atom, donor atom, acceptor molecule, acceptor atom, score
      L1  H     4    49       P1 10175  0.91
      P1  H  7997  8010       L1    13  0.03
      P1  H 10752 10764       L1    12  0.96

> <Gold.Chemscore.Hbond.Weighted>
-6.2999

> <Gold.Chemscore.Metal.Weighted>
-0.0000

> <Gold.Chemscore.Lipo.Weighted>
-11.6987

> <Gold.Chemscore.Internal_Hbond.Weighted>
0.0000

> <Gold.Chemscore.DEClash.Weighted>
1.7532

> <Gold.Chemscore.DEInternal.Weighted>
1.3986

> <Gold.Chemscore.Rot.Weighted>
7.5803

> <Gold.Chemscore.Internal.Correction.Weighted>
   9.000000E+99

> <Gold.Protein.RotatedTorsions>
[ 6907 6896 6895 6894 ] final   67.67 input  -60.11 | X-H torsion
[ 7974 7965 7964 7962 ] final   -5.80 input  175.53 | X-H torsion
[ 8008 7997 7996 7995 ] final   70.47 input   59.86 | X-H torsion
[ 10167 10162 10161 10158 ] final  -79.58 input  -65.29 | X-H torsion
[ 10718 10713 10712 10709 ] final -117.33 input   66.30 | X-H torsion
[ 10763 10752 10751 10750 ] final  -65.04 input  -60.55 | X-H torsion
[ 11005 11000 10999 10996 ] final  -40.67 input  -57.11 | X-H torsion

> <Gold.Protein.ActiveResidues>
 VAL166  LYS551  ARG553  GLY616  TRP617  ASP618  TYR619  PRO620  LYS621  CYS622 
 ASP623  PHE694  ASN695  SER759  ASP760  ASP761  ALA762  ILE779  LEU786  VAL792 
 PHE793  MET794  SER795  GLU796  ALA797  LYS798  CYS799  TRP800  GLU811  SER814 

> <Gold.Protein.RotatedAtoms>
  152.4568  134.5274  159.9800 H   0  0  0  0  0  0  0  0  0  0  0  0  # atno 6907 bound_to 6896
  151.5332  133.3439  159.2930 H   0  0  0  0  0  0  0  0  0  0  0  0  # atno 6908 bound_to 6896
  150.8515  134.7872  159.7075 H   0  0  0  0  0  0  0  0  0  0  0  0  # atno 6909 bound_to 6896
  146.2345  140.2075  142.8334 H   0  0  0  0  0  0  0  0  0  0  0  0  # atno 7974 bound_to 7965
  155.7393  140.3490  155.5096 H   0  0  0  0  0  0  0  0  0  0  0  0  # atno 8008 bound_to 7997
  155.9110  140.1050  157.1301 H   0  0  0  0  0  0  0  0  0  0  0  0  # atno 8009 bound_to 7997
  154.4056  140.1268  156.4543 H   0  0  0  0  0  0  0  0  0  0  0  0  # atno 8010 bound_to 7997
  140.4581  143.2462  151.8390 H   0  0  0  0  0  0  0  0  0  0  0  0  # atno 10167 bound_to 10162
  156.1026  130.6184  150.9150 H   0  0  0  0  0  0  0  0  0  0  0  0  # atno 10718 bound_to 10713
  154.3390  135.6160  153.5587 H   0  0  0  0  0  0  0  0  0  0  0  0  # atno 10763 bound_to 10752
  152.9805  135.5765  154.4874 H   0  0  0  0  0  0  0  0  0  0  0  0  # atno 10764 bound_to 10752
  154.4575  135.2855  155.1714 H   0  0  0  0  0  0  0  0  0  0  0  0  # atno 10765 bound_to 10752
  141.0191  133.6871  156.2353 H   0  0  0  0  0  0  0  0  0  0  0  0  # atno 11005 bound_to 11000
  144.9733  140.8389  143.5442 LP  0  0  0  0  0  0  0  0  0  0  0  0  # atno 17320 bound_to 7965
  145.2059  139.2228  143.5168 LP  0  0  0  0  0  0  0  0  0  0  0  0  # atno 17321 bound_to 7965
  139.4803  144.5041  151.9021 LP  0  0  0  0  0  0  0  0  0  0  0  0  # atno 17342 bound_to 10162
  140.4127  144.2348  150.5888 LP  0  0  0  0  0  0  0  0  0  0  0  0  # atno 17343 bound_to 10162
  157.6199  131.0930  150.8642 LP  0  0  0  0  0  0  0  0  0  0  0  0  # atno 17370 bound_to 10713
  156.8767  130.5165  149.5293 LP  0  0  0  0  0  0  0  0  0  0  0  0  # atno 17371 bound_to 10713
  140.6603  134.4975  157.5583 LP  0  0  0  0  0  0  0  0  0  0  0  0  # atno 17394 bound_to 11000
  139.9135  134.8294  156.1445 LP  0  0  0  0  0  0  0  0  0  0  0  0  # atno 17395 bound_to 11000

$$$$
