#       Name:                AV-unprocessed.smi:2671
#       Creating user name   scv26
#       Creation time:       Fri Mar 27 14:37:22 2020


#       File generated by GOLD software.
#

@<TRIPOS>MOLECULE
AV-unprocessed.smi:2671
    34    35     1
SMALL
NO_CHARGES


@<TRIPOS>ATOM
      1 ****        -3.9657   1.7745   3.2839 O.2            1 S1                 0.0000
      2 ****        -3.3836   1.0127   2.5153 C.2            1 S1                 0.0000
      3 ****        -3.9954  -0.1727   1.9164 C.2            1 S1                 0.0000
      4 ****        -3.2855  -0.9617   1.0734 C.2            1 S1                 0.0000
      5 ****        -3.9029  -2.2008   0.4453 C.3            1 S1                 0.0000
      6 ****        -4.3442  -3.0280   1.3928 F              1 S1                 0.0000
      7 ****        -4.9378  -1.8600  -0.3224 F              1 S1                 0.0000
      8 ****        -3.0224  -2.8609  -0.3088 F              1 S1                 0.0000
      9 ****        -1.9509  -0.6586   0.7644 N.2            1 S1                 0.0000
     10 ****        -1.3860   0.3863   1.2844 C.2            1 S1                 0.0000
     11 ****         0.3051   1.0076   1.0596 S.3            1 S1                 0.0000
     12 ****         0.9850  -0.2218  -0.0910 C.3            1 S1                 0.0000
     13 ****         2.4452   0.0792  -0.4556 C.3            1 S1                 0.0000
     14 ****         2.6469   1.3592  -1.2676 C.3            1 S1                 0.0000
     15 ****         3.9488   1.0660  -1.9764 C.3            1 S1                 0.0000
     16 ****         3.7961  -0.4162  -2.3027 C.3            1 S1                 0.0000
     17 ****         2.9707  -0.9616  -1.2760 O.3            1 S1                 0.0000
     18 ****        -2.0961   1.2198   2.1556 N.am           1 S1                 0.0000
     19 ****        -1.6259   2.0250   2.5426 H              1 S1                 0.0000
     20 ****        -5.0211  -0.4181   2.1503 H              1 S1                 0.0000
     21 ****         0.3692  -0.2554  -0.9905 H              1 S1                 0.0000
     22 ****         0.9203  -1.2047   0.3770 H              1 S1                 0.0000
     23 ****         3.0562   0.1222   0.4474 H              1 S1                 0.0000
     24 ****         1.8454   1.4853  -1.9971 H              1 S1                 0.0000
     25 ****         2.6907   2.2555  -0.6481 H              1 S1                 0.0000
     26 ****         4.1076   1.6843  -2.8603 H              1 S1                 0.0000
     27 ****         4.7875   1.2179  -1.2957 H              1 S1                 0.0000
     28 ****         3.2875  -0.5452  -3.2589 H              1 S1                 0.0000
     29 ****         4.7560  -0.9300  -2.3583 H              1 S1                 0.0000
     30 ****        -3.4873   2.5688   3.6584 LP             1 S1                 0.0000
     31 ****        -4.9179   1.6002   3.5350 LP             1 S1                 0.0000
     32 ****        -1.4353  -1.2485   0.1431 LP             1 S1                 0.0000
     33 ****         2.2146  -1.4654  -1.6938 LP             1 S1                 0.0000
     34 ****         3.5140  -1.5833  -0.7118 LP             1 S1                 0.0000
@<TRIPOS>BOND
    1    1    2 2     
    2    2   18 am    
    3    2    3 1     
    4    3   20 1     
    5    3    4 2     
    6    4    5 1     
    7    4    9 1     
    8    5    6 1     
    9    5    7 1     
   10    5    8 1     
   11    9   10 2     
   12   10   11 1     
   13   10   18 1     
   14   11   12 1     
   15   12   13 1     
   16   12   21 1     
   17   12   22 1     
   18   13   17 1     
   19   13   14 1     
   20   13   23 1     
   21   14   15 1     
   22   14   24 1     
   23   14   25 1     
   24   15   16 1     
   25   15   26 1     
   26   15   27 1     
   27   16   17 1     
   28   16   28 1     
   29   16   29 1     
   30   18   19 1     
   31    1   30 1     
   32    1   31 1     
   33    9   32 1     
   34   17   33 1     
   35   17   34 1     
@<TRIPOS>SUBSTRUCTURE
      1 S1             1
@<TRIPOS>SET
LONE_PAIRS      STATIC     ATOMS    <user>   **** ""
5 30 31 32 33 34
DONOR_HYDROGENS      STATIC     ATOMS    <user>   **** ""
1 19
ATOM$BLUE        STATIC     ATOMS    COLORGROUP SYSTEM
5 30 31 32 33 34
ATOM$RED        STATIC     ATOMS    COLORGROUP SYSTEM
1 19
