AV-unprocessed.smi:2061|AV-procd|sdf|8374|dock8
  -GOLD-   2272011 53D 1   1.00000     0.00000
 Structure written by MMmdl.
 44 45  0  0  0  0  0  0  0  0  2 V2000
  158.2361  137.8287  152.1345 C   0  0  0  0  0  0  0  0  0  0  0  0
  156.9860  138.1398  152.8847 C   0  0  0  0  0  0  0  0  0  0  0  0
  156.0911  139.1690  152.8094 C   0  0  0  0  0  0  0  0  0  0  0  0
  155.1387  138.8455  153.8142 C   0  0  0  0  0  0  0  0  0  0  0  0
  154.0430  139.5569  154.1209 N   0  5  0  0  0  0  0  0  0  0  0  0
  153.0906  139.0291  154.9242 C   0  0  0  0  0  0  0  0  0  0  0  0
  152.8372  137.8308  155.0657 O   0  0  0  0  0  0  0  0  0  0  0  0
  152.3977  139.9500  155.6104 N   0  0  0  0  0  0  0  0  0  0  0  0
  151.3107  139.6989  156.5555 C   0  0  0  0  0  0  0  0  0  0  0  0
  150.6681  141.0046  157.1046 C   0  0  2  0  0  0  0  0  0  0  0  0
  149.9662  141.7521  155.9419 C   0  0  0  0  0  0  0  0  0  0  0  0
  151.6268  141.8637  157.8409 N   0  0  0  0  0  0  0  0  0  0  0  0
  150.9887  143.0519  158.4182 C   0  0  0  0  0  0  0  0  0  0  0  0
  151.9717  143.9418  159.2025 C   0  0  1  0  0  0  0  0  0  0  0  0
  151.2726  145.1355  159.8615 C   0  0  0  0  0  0  0  0  0  0  0  0
  152.5887  143.1683  160.2235 O   0  0  0  0  0  0  0  0  0  0  0  0
  153.2917  142.0446  159.7088 C   0  0  1  0  0  0  0  0  0  0  0  0
  153.9366  141.3023  160.8841 C   0  0  0  0  0  0  0  0  0  0  0  0
  152.3132  141.1503  158.9233 C   0  0  0  0  0  0  0  0  0  0  0  0
  155.4214  137.7111  154.4325 N   0  0  0  0  0  0  0  0  0  0  0  0
  156.6079  137.2550  153.8461 O   0  0  0  0  0  0  0  0  0  0  0  0
  158.0078  137.5496  151.1059 H   0  0  0  0  0  0  0  0  0  0  0  0
  158.7774  137.0032  152.5971 H   0  0  0  0  0  0  0  0  0  0  0  0
  158.8976  138.6949  152.1121 H   0  0  0  0  0  0  0  0  0  0  0  0
  156.1146  140.0200  152.1453 H   0  0  0  0  0  0  0  0  0  0  0  0
  152.6485  140.9159  155.4588 H   0  0  0  0  0  0  0  0  0  0  0  0
  150.5912  139.1162  155.9836 H   0  0  0  0  0  0  0  0  0  0  0  0
  151.6308  139.0619  157.3817 H   0  0  0  0  0  0  0  0  0  0  0  0
  149.8860  140.7018  157.8025 H   0  0  0  0  0  0  0  0  0  0  0  0
  149.2799  141.1109  155.3913 H   0  0  0  0  0  0  0  0  0  0  0  0
  150.6927  142.1426  155.2288 H   0  0  0  0  0  0  0  0  0  0  0  0
  149.3521  142.5814  156.2891 H   0  0  0  0  0  0  0  0  0  0  0  0
  150.5563  143.6721  157.6352 H   0  0  0  0  0  0  0  0  0  0  0  0
  150.1693  142.7483  159.0717 H   0  0  0  0  0  0  0  0  0  0  0  0
  152.7419  144.3183  158.5268 H   0  0  0  0  0  0  0  0  0  0  0  0
  150.7903  145.7684  159.1162 H   0  0  0  0  0  0  0  0  0  0  0  0
  151.9866  145.7518  160.4083 H   0  0  0  0  0  0  0  0  0  0  0  0
  150.5086  144.8056  160.5663 H   0  0  0  0  0  0  0  0  0  0  0  0
  154.0815  142.3951  159.0418 H   0  0  0  0  0  0  0  0  0  0  0  0
  154.5022  140.4368  160.5382 H   0  0  0  0  0  0  0  0  0  0  0  0
  153.1831  140.9498  161.5891 H   0  0  0  0  0  0  0  0  0  0  0  0
  154.6229  141.9526  161.4271 H   0  0  0  0  0  0  0  0  0  0  0  0
  151.5777  140.7230  159.6068 H   0  0  0  0  0  0  0  0  0  0  0  0
  152.8964  140.3221  158.5260 H   0  0  0  0  0  0  0  0  0  0  0  0
  1  2  1  0  0  0  0
  1 22  1  0  0  0  0
  1 23  1  0  0  0  0
  1 24  1  0  0  0  0
  2 21  1  0  0  0  0
  2  3  2  0  0  0  0
  3  4  1  0  0  0  0
  3 25  1  0  0  0  0
  4  5  1  0  0  0  0
  4 20  2  0  0  0  0
  5  6  1  0  0  0  0
  6  7  2  0  0  0  0
  6  8  1  0  0  0  0
  8  9  1  0  0  0  0
  8 26  1  0  0  0  0
  9 10  1  0  0  0  0
  9 27  1  0  0  0  0
  9 28  1  0  0  0  0
 10 11  1  0  0  0  0
 10 12  1  0  0  0  0
 10 29  1  0  0  0  0
 11 30  1  0  0  0  0
 11 31  1  0  0  0  0
 11 32  1  0  0  0  0
 12 19  1  0  0  0  0
 12 13  1  0  0  0  0
 13 14  1  0  0  0  0
 13 33  1  0  0  0  0
 13 34  1  0  0  0  0
 14 15  1  0  0  0  0
 14 16  1  0  0  0  0
 14 35  1  0  0  0  0
 15 36  1  0  0  0  0
 15 37  1  0  0  0  0
 15 38  1  0  0  0  0
 16 17  1  0  0  0  0
 17 18  1  0  0  0  0
 17 19  1  0  0  0  0
 17 39  1  0  0  0  0
 18 40  1  0  0  0  0
 18 41  1  0  0  0  0
 18 42  1  0  0  0  0
 19 43  1  0  0  0  0
 19 44  1  0  0  0  0
 20 21  1  0  0  0  0
M  CHG  1   5  -1
M  END
> <s_m_source_file>
AV-unprocessed.smi

> <i_m_source_file_index>
2061

> <i_lp_mmshare_version>
43012

> <i_f3d_flags>
0

> <s_epik_input>
W0NIM11jMVtjSF1jKG5vMSlbTkhdQyg9TylbTkhdW0NIMl1bQ0BIXShbQ0gzXSlOMltDSDJdW0NAQEhdKFtDSDNdKU9bQ0BASF0oW0NIM10pW0NIMl0y

> <s_epik_cmdline>
J2VwaWtfcHl0aG9uJywgJy1waCcsICc3LjAnLCAnLXRuJywgJzgnLCAnLW1hJywgJzIwMCcsICctbWV0YWxfYmluZGluZycsICctaW1hZScsICc8aW5maWxlLm1hZT4nLCAnLW9tYWUnLCAnPG91dGZpbGUubWFlPic=

> <r_epik_Ionization_Penalty>
6.88367

> <r_epik_Ionization_Penalty_Charging>
6.57198

> <r_epik_Ionization_Penalty_Neutral>
0.311681

> <r_epik_State_Penalty>
6.77619

> <r_epik_Charging_Adjusted_Penalty>
13.3482

> <i_epik_Tot_Q>
-1

> <i_epik_Tot_abs_Q>
1

> <r_epik_Metal_State_Penalty>
2.70524

> <b_epik_Metal_Only>
1

> <s_lp_Force_Field>
OPLS_2005

> <r_lp_Energy>
21.032

> <b_lp_Chiralities_Consistent>
1

> <s_lp_Variant>
AV-unprocessed.smi:2061-15

> <Gold.Version>
5.8.1

> <Gold.Id.Protein>
6NUR|6NUR_protein|mol2

> <Gold.PLP.Fitness>
48.6614

> <Gold.PLP.PLP>
-41.5998

> <Gold.PLP.part.hbond>
-4.0000

> <Gold.PLP.part.metal>
0.0000

> <Gold.PLP.part.buried>
-2.8106

> <Gold.PLP.part.nonpolar>
-37.0163

> <Gold.PLP.part.repulsive>
1.0131

> <Gold.PLP.ligand.clash>
0.0000

> <Gold.PLP.ligand.torsion>
0.2127

> <Gold.PLP.Chemscore.Hbond>
2.4768

> <Gold.PLP.Chemscore.CHOScore>
0.0000

> <Gold.PLP.Chemscore.Metal>
0.0000

> <Gold.Chemscore.Hbonds>
donor molecule, donor type, donor heavy atom, donor atom, acceptor molecule, acceptor atom, score
      P1  H  7997  8010       L1     5  0.54
      P1  H 10752 10764       L1     7  0.14

> <Gold.PLP.Chemscore.Internal.Correction>
0.0566

> <Gold.Rescore>
     Score         DG    S(hbond)    S(metal)    S(lipo)     H(rot)  DE(clash)    DE(int)     intcor
     14.42     -16.42       0.54        0.00     111.43       1.52       0.11       1.89       ----

> <Gold.Chemscore.Fitness>
14.4172

> <Gold.Chemscore.DG>
-16.4153

> <Gold.Chemscore.ZeroCoef>
-5.4800

> <Gold.Chemscore.Hbond>
0.5350

> <Gold.Chemscore.Metal>
0.0000

> <Gold.Chemscore.Lipo>
111.4264

> <Gold.Chemscore.Internal_Hbond>
0.0000

> <Gold.Chemscore.DEClash>
0.1083

> <Gold.Chemscore.DEInternal>
1.8897

> <Gold.Chemscore.Rot>
1.5190

> <Gold.Chemscore.Internal.Correction>
   9.000000E+99

> <Gold.Chemscore.Hbonds>
donor molecule, donor type, donor heavy atom, donor atom, acceptor molecule, acceptor atom, score
      P1  H 10752 10764       L1     7  0.14

> <Gold.Chemscore.Hbond.Weighted>
-1.7870

> <Gold.Chemscore.Metal.Weighted>
-0.0000

> <Gold.Chemscore.Lipo.Weighted>
-13.0369

> <Gold.Chemscore.Internal_Hbond.Weighted>
0.0000

> <Gold.Chemscore.DEClash.Weighted>
0.1083

> <Gold.Chemscore.DEInternal.Weighted>
1.8897

> <Gold.Chemscore.Rot.Weighted>
3.8886

> <Gold.Chemscore.Internal.Correction.Weighted>
   9.000000E+99

> <Gold.Protein.RotatedTorsions>
[ 6907 6896 6895 6894 ] final -146.44 input  -60.11 | X-H torsion
[ 7974 7965 7964 7962 ] final -145.33 input  175.53 | X-H torsion
[ 8008 7997 7996 7995 ] final  133.25 input   59.86 | X-H torsion
[ 10167 10162 10161 10158 ] final  152.33 input  -65.29 | X-H torsion
[ 10718 10713 10712 10709 ] final  173.82 input   66.30 | X-H torsion
[ 10763 10752 10751 10750 ] final  -48.08 input  -60.55 | X-H torsion
[ 11005 11000 10999 10996 ] final  -70.77 input  -57.11 | X-H torsion

> <Gold.Protein.ActiveResidues>
 VAL166  LYS551  ARG553  GLY616  TRP617  ASP618  TYR619  PRO620  LYS621  CYS622 
 ASP623  PHE694  ASN695  SER759  ASP760  ASP761  ALA762  ILE779  LEU786  VAL792 
 PHE793  MET794  SER795  GLU796  ALA797  LYS798  CYS799  TRP800  GLU811  SER814 

> <Gold.Protein.RotatedAtoms>
  151.1417  133.4967  159.2596 H   0  0  0  0  0  0  0  0  0  0  0  0  # atno 6907 bound_to 6896
  151.1648  135.0290  159.8736 H   0  0  0  0  0  0  0  0  0  0  0  0  # atno 6908 bound_to 6896
  152.5462  134.1286  159.8483 H   0  0  0  0  0  0  0  0  0  0  0  0  # atno 6909 bound_to 6896
  144.8235  140.5597  143.5563 H   0  0  0  0  0  0  0  0  0  0  0  0  # atno 7974 bound_to 7965
  156.2990  140.2526  156.3222 H   0  0  0  0  0  0  0  0  0  0  0  0  # atno 8008 bound_to 7997
  154.9224  140.0400  157.2024 H   0  0  0  0  0  0  0  0  0  0  0  0  # atno 8009 bound_to 7997
  154.8298  140.2874  155.5734 H   0  0  0  0  0  0  0  0  0  0  0  0  # atno 8010 bound_to 7997
  139.4833  144.5366  151.7634 H   0  0  0  0  0  0  0  0  0  0  0  0  # atno 10167 bound_to 10162
  156.9587  131.0054  151.2932 H   0  0  0  0  0  0  0  0  0  0  0  0  # atno 10718 bound_to 10713
  154.0719  135.6603  153.4825 H   0  0  0  0  0  0  0  0  0  0  0  0  # atno 10763 bound_to 10752
  153.0388  135.5159  154.7559 H   0  0  0  0  0  0  0  0  0  0  0  0  # atno 10764 bound_to 10752
  154.6627  135.3017  154.9813 H   0  0  0  0  0  0  0  0  0  0  0  0  # atno 10765 bound_to 10752
  141.1580  133.6799  156.6803 H   0  0  0  0  0  0  0  0  0  0  0  0  # atno 11005 bound_to 11000
  145.5053  139.1481  143.3635 LP  0  0  0  0  0  0  0  0  0  0  0  0  # atno 17320 bound_to 7965
  146.2540  140.5193  142.8881 LP  0  0  0  0  0  0  0  0  0  0  0  0  # atno 17321 bound_to 7965
  140.4900  144.1324  150.5948 LP  0  0  0  0  0  0  0  0  0  0  0  0  # atno 17342 bound_to 10162
  140.4182  143.2624  151.9749 LP  0  0  0  0  0  0  0  0  0  0  0  0  # atno 17343 bound_to 10162
  157.5672  130.8286  149.8344 LP  0  0  0  0  0  0  0  0  0  0  0  0  # atno 17370 bound_to 10713
  156.0331  130.3759  150.1632 LP  0  0  0  0  0  0  0  0  0  0  0  0  # atno 17371 bound_to 10713
  140.3108  134.8088  157.4174 LP  0  0  0  0  0  0  0  0  0  0  0  0  # atno 17394 bound_to 11000
  140.1181  134.5257  155.8208 LP  0  0  0  0  0  0  0  0  0  0  0  0  # atno 17395 bound_to 11000

$$$$
