AV-unprocessed.smi:4|AV-procd|sdf|33|dock6
  -GOLD-   2262015143D 1   1.00000     0.00000
 Structure written by MMmdl.
 44 45  0  0  0  0  0  0  0  0  2 V2000
  143.8832  135.5676  152.7736 C   0  0  0  0  0  0  0  0  0  0  0  0
  144.4046  134.5166  151.7589 C   0  0  0  0  0  0  0  0  0  0  0  0
  143.3119  133.4174  151.7081 C   0  0  0  0  0  0  0  0  0  0  0  0
  144.4991  135.2633  150.4031 C   0  0  0  0  0  0  0  0  0  0  0  0
  145.7131  133.9500  152.1493 N   0  0  0  0  0  0  0  0  0  0  0  0
  146.4765  134.4157  153.2228 C   0  0  0  0  0  0  0  0  0  0  0  0
  147.6727  133.8989  153.6039 C   0  0  0  0  0  0  0  0  0  0  0  0
  148.4603  134.4799  154.7731 C   0  0  0  0  0  0  0  0  0  0  0  0
  148.7411  135.9210  154.5913 N   0  3  0  0  0  0  0  0  0  0  0  0
  149.6775  136.5163  155.5696 C   0  0  0  0  0  0  0  0  0  0  0  0
  150.9739  136.9797  154.8964 C   0  0  0  0  0  0  0  0  0  0  0  0
  151.4053  135.9098  154.0801 O   0  0  0  0  0  0  0  0  0  0  0  0
  150.9237  138.3356  154.1683 C   0  0  0  0  0  0  0  0  0  0  0  0
  151.5542  138.9882  155.3988 C   0  0  0  0  0  0  0  0  0  0  0  0
  152.0662  137.6012  155.7881 C   0  0  0  0  0  0  0  0  0  0  0  0
  148.2499  132.7896  152.8444 C   0  0  0  0  0  0  0  0  0  0  0  0
  149.3249  132.2425  153.0834 O   0  0  0  0  0  0  0  0  0  0  0  0
  147.4731  132.3459  151.7772 N   0  0  0  0  0  0  0  0  0  0  0  0
  146.2381  132.8631  151.3929 C   0  0  0  0  0  0  0  0  0  0  0  0
  145.6749  132.3540  150.4257 O   0  0  0  0  0  0  0  0  0  0  0  0
  147.8367  131.5778  151.2312 H   0  0  0  0  0  0  0  0  0  0  0  0
  142.9168  135.9696  152.4663 H   0  0  0  0  0  0  0  0  0  0  0  0
  144.5565  136.4215  152.8611 H   0  0  0  0  0  0  0  0  0  0  0  0
  143.7353  135.1396  153.7661 H   0  0  0  0  0  0  0  0  0  0  0  0
  143.2781  132.8531  152.6407 H   0  0  0  0  0  0  0  0  0  0  0  0
  143.4481  132.7045  150.8970 H   0  0  0  0  0  0  0  0  0  0  0  0
  142.3232  133.8525  151.5579 H   0  0  0  0  0  0  0  0  0  0  0  0
  143.5745  135.7984  150.1838 H   0  0  0  0  0  0  0  0  0  0  0  0
  144.6688  134.6043  149.5537 H   0  0  0  0  0  0  0  0  0  0  0  0
  145.3032  135.9999  150.4141 H   0  0  0  0  0  0  0  0  0  0  0  0
  146.1318  135.2398  153.8255 H   0  0  0  0  0  0  0  0  0  0  0  0
  147.9541  134.3094  155.7243 H   0  0  0  0  0  0  0  0  0  0  0  0
  149.4162  133.9598  154.8432 H   0  0  0  0  0  0  0  0  0  0  0  0
  149.1421  136.0455  153.6727 H   0  0  0  0  0  0  0  0  0  0  0  0
  149.1982  137.3554  156.0744 H   0  0  0  0  0  0  0  0  0  0  0  0
  149.8927  135.7740  156.3394 H   0  0  0  0  0  0  0  0  0  0  0  0
  151.2824  136.1789  153.1820 H   0  0  0  0  0  0  0  0  0  0  0  0
  151.5722  138.3779  153.2911 H   0  0  0  0  0  0  0  0  0  0  0  0
  149.9203  138.6946  153.9368 H   0  0  0  0  0  0  0  0  0  0  0  0
  152.3339  139.7183  155.1797 H   0  0  0  0  0  0  0  0  0  0  0  0
  150.8138  139.3801  156.0977 H   0  0  0  0  0  0  0  0  0  0  0  0
  151.9786  137.3769  156.8515 H   0  0  0  0  0  0  0  0  0  0  0  0
  153.0773  137.4091  155.4246 H   0  0  0  0  0  0  0  0  0  0  0  0
  147.8711  136.4328  154.6301 H   0  0  0  0  0  0  0  0  0  0  0  0
  1  2  1  0  0  0  0
  1 22  1  0  0  0  0
  1 23  1  0  0  0  0
  1 24  1  0  0  0  0
  2  3  1  0  0  0  0
  2  4  1  0  0  0  0
  2  5  1  0  0  0  0
  3 25  1  0  0  0  0
  3 26  1  0  0  0  0
  3 27  1  0  0  0  0
  4 28  1  0  0  0  0
  4 29  1  0  0  0  0
  4 30  1  0  0  0  0
  5 19  1  0  0  0  0
  5  6  1  0  0  0  0
  6  7  2  0  0  0  0
  6 31  1  0  0  0  0
  7  8  1  0  0  0  0
  7 16  1  0  0  0  0
  8  9  1  0  0  0  0
  8 32  1  0  0  0  0
  8 33  1  0  0  0  0
  9 10  1  0  0  0  0
  9 34  1  0  0  0  0
  9 44  1  0  0  0  0
 10 11  1  0  0  0  0
 10 35  1  0  0  0  0
 10 36  1  0  0  0  0
 11 15  1  0  0  0  0
 11 12  1  0  0  0  0
 11 13  1  0  0  0  0
 12 37  1  0  0  0  0
 13 14  1  0  0  0  0
 13 38  1  0  0  0  0
 13 39  1  0  0  0  0
 14 15  1  0  0  0  0
 14 40  1  0  0  0  0
 14 41  1  0  0  0  0
 15 42  1  0  0  0  0
 15 43  1  0  0  0  0
 16 17  2  0  0  0  0
 16 18  1  0  0  0  0
 18 21  1  0  0  0  0
 18 19  1  0  0  0  0
 19 20  2  0  0  0  0
M  CHG  1   9   1
M  END
> <s_m_source_file>
AV-unprocessed.smi

> <i_m_source_file_index>
4

> <i_lp_mmshare_version>
43012

> <i_f3d_flags>
0

> <s_epik_input>
W0NIM11DKFtDSDNdKShbQ0gzXSluMVtjSF1jKGMoPU8pW25IXWMxPU8pW0NIMl1bTkhdW0NIMl1DMihbT0hdKVtDSDJdW0NIMl1bQ0gyXTI=

> <s_epik_cmdline>
J2VwaWtfcHl0aG9uJywgJy1waCcsICc3LjAnLCAnLXRuJywgJzgnLCAnLW1hJywgJzIwMCcsICctbWV0YWxfYmluZGluZycsICctaW1hZScsICc8aW5maWxlLm1hZT4nLCAnLW9tYWUnLCAnPG91dGZpbGUubWFlPic=

> <r_lp_tautomer_probability>
0.999537

> <r_epik_Ionization_Penalty>
0.0188443

> <r_epik_Ionization_Penalty_Charging>
0.0188443

> <r_epik_Ionization_Penalty_Neutral>
1.97485e-08

> <r_epik_State_Penalty>
0.0134361

> <r_epik_Charging_Adjusted_Penalty>
0.0322804

> <i_epik_Tot_Q>
1

> <i_epik_Tot_abs_Q>
1

> <r_epik_Metal_State_Penalty>
0.855907

> <b_epik_Metal_Only>
0

> <s_lp_Force_Field>
OPLS_2005

> <r_lp_Energy>
23.9463

> <b_lp_Chiralities_Consistent>
1

> <s_lp_Variant>
AV-unprocessed.smi:4-1

> <Gold.Version>
5.8.1

> <Gold.Id.Protein>
6NUR|6NUR_protein|mol2

> <Gold.PLP.Fitness>
46.7974

> <Gold.PLP.PLP>
-32.9992

> <Gold.PLP.part.hbond>
-4.5211

> <Gold.PLP.part.metal>
0.0000

> <Gold.PLP.part.buried>
-4.3800

> <Gold.PLP.part.nonpolar>
-24.6984

> <Gold.PLP.part.repulsive>
0.2904

> <Gold.PLP.ligand.clash>
0.0000

> <Gold.PLP.ligand.torsion>
0.6793

> <Gold.PLP.Chemscore.Hbond>
5.0000

> <Gold.PLP.Chemscore.CHOScore>
0.0000

> <Gold.PLP.Chemscore.Metal>
0.0000

> <Gold.Chemscore.Hbonds>
donor molecule, donor type, donor heavy atom, donor atom, acceptor molecule, acceptor atom, score
      L1  H     9    34       P1  7948  2.00
      L1  H    12    37       P1  7949  1.00
      L1  H    18    21       P1 10747  1.00
      P1  H 10752 10765       L1    12  1.00

> <Gold.PLP.Chemscore.Internal.Correction>
0.1569

> <Gold.Rescore>
     Score         DG    S(hbond)    S(metal)    S(lipo)     H(rot)  DE(clash)    DE(int)     intcor
     14.40     -16.43       3.08        0.00      60.91       2.53       0.05       1.98       ----

> <Gold.Chemscore.Fitness>
14.3978

> <Gold.Chemscore.DG>
-16.4255

> <Gold.Chemscore.ZeroCoef>
-5.4800

> <Gold.Chemscore.Hbond>
3.0826

> <Gold.Chemscore.Metal>
0.0000

> <Gold.Chemscore.Lipo>
60.9093

> <Gold.Chemscore.Internal_Hbond>
0.0000

> <Gold.Chemscore.DEClash>
0.0477

> <Gold.Chemscore.DEInternal>
1.9800

> <Gold.Chemscore.Rot>
2.5300

> <Gold.Chemscore.Internal.Correction>
   9.000000E+99

> <Gold.Chemscore.Hbonds>
donor molecule, donor type, donor heavy atom, donor atom, acceptor molecule, acceptor atom, score
      L1  H     9    34       P1  7948  0.87
      L1  H    12    37       P1  7949  0.59
      L1  H    18    21       P1 10747  0.97
      P1  H 10752 10765       L1    12  0.48

> <Gold.Chemscore.Hbond.Weighted>
-10.2959

> <Gold.Chemscore.Metal.Weighted>
-0.0000

> <Gold.Chemscore.Lipo.Weighted>
-7.1264

> <Gold.Chemscore.Internal_Hbond.Weighted>
0.0000

> <Gold.Chemscore.DEClash.Weighted>
0.0477

> <Gold.Chemscore.DEInternal.Weighted>
1.9800

> <Gold.Chemscore.Rot.Weighted>
6.4768

> <Gold.Chemscore.Internal.Correction.Weighted>
   9.000000E+99

> <Gold.Protein.RotatedTorsions>
[ 6907 6896 6895 6894 ] final -157.62 input  -60.11 | X-H torsion
[ 7974 7965 7964 7962 ] final   23.79 input  175.53 | X-H torsion
[ 8008 7997 7996 7995 ] final -170.80 input   59.86 | X-H torsion
[ 10167 10162 10161 10158 ] final   22.29 input  -65.29 | X-H torsion
[ 10718 10713 10712 10709 ] final   21.66 input   66.30 | X-H torsion
[ 10763 10752 10751 10750 ] final  177.48 input  -60.55 | X-H torsion
[ 11005 11000 10999 10996 ] final -179.41 input  -57.11 | X-H torsion

> <Gold.Protein.ActiveResidues>
 VAL166  LYS551  ARG553  GLY616  TRP617  ASP618  TYR619  PRO620  LYS621  CYS622 
 ASP623  PHE694  ASN695  SER759  ASP760  ASP761  ALA762  ILE779  LEU786  VAL792 
 PHE793  MET794  SER795  GLU796  ALA797  LYS798  CYS799  TRP800  GLU811  SER814 

> <Gold.Protein.RotatedAtoms>
  151.3056  133.4103  159.2642 H   0  0  0  0  0  0  0  0  0  0  0  0  # atno 6907 bound_to 6896
  151.0158  134.9432  159.8043 H   0  0  0  0  0  0  0  0  0  0  0  0  # atno 6908 bound_to 6896
  152.5312  134.3020  159.9134 H   0  0  0  0  0  0  0  0  0  0  0  0  # atno 6909 bound_to 6896
  146.1968  139.7695  142.8791 H   0  0  0  0  0  0  0  0  0  0  0  0  # atno 7974 bound_to 7965
  155.9231  140.1077  157.1191 H   0  0  0  0  0  0  0  0  0  0  0  0  # atno 8008 bound_to 7997
  154.4057  140.1252  156.4770 H   0  0  0  0  0  0  0  0  0  0  0  0  # atno 8009 bound_to 7997
  155.7172  140.3470  155.5002 H   0  0  0  0  0  0  0  0  0  0  0  0  # atno 8010 bound_to 7997
  140.5360  143.9760  150.6492 H   0  0  0  0  0  0  0  0  0  0  0  0  # atno 10167 bound_to 10162
  157.1415  130.6634  149.5982 H   0  0  0  0  0  0  0  0  0  0  0  0  # atno 10718 bound_to 10713
  154.4950  135.2781  155.1466 H   0  0  0  0  0  0  0  0  0  0  0  0  # atno 10763 bound_to 10752
  154.3123  135.6226  153.5474 H   0  0  0  0  0  0  0  0  0  0  0  0  # atno 10764 bound_to 10752
  152.9893  135.5722  154.5380 H   0  0  0  0  0  0  0  0  0  0  0  0  # atno 10765 bound_to 10752
  140.4190  134.6623  157.4654 H   0  0  0  0  0  0  0  0  0  0  0  0  # atno 11005 bound_to 11000
  145.3617  141.0327  143.3281 LP  0  0  0  0  0  0  0  0  0  0  0  0  # atno 17320 bound_to 7965
  144.8597  139.5196  143.6818 LP  0  0  0  0  0  0  0  0  0  0  0  0  # atno 17321 bound_to 7965
  140.3147  143.3175  152.0844 LP  0  0  0  0  0  0  0  0  0  0  0  0  # atno 17342 bound_to 10162
  139.4971  144.6613  151.6458 LP  0  0  0  0  0  0  0  0  0  0  0  0  # atno 17343 bound_to 10162
  155.9788  130.4776  150.6675 LP  0  0  0  0  0  0  0  0  0  0  0  0  # atno 17370 bound_to 10713
  157.4303  131.0848  151.1045 LP  0  0  0  0  0  0  0  0  0  0  0  0  # atno 17371 bound_to 10713
  140.0213  134.6542  155.9235 LP  0  0  0  0  0  0  0  0  0  0  0  0  # atno 17394 bound_to 11000
  141.1791  133.6544  156.4949 LP  0  0  0  0  0  0  0  0  0  0  0  0  # atno 17395 bound_to 11000

$$$$
