AV-unprocessed.smi:1360|AV-procd|sdf|5554|dock8
  -GOLD-   22720 5143D 1   1.00000     0.00000
 Structure written by MMmdl.
 36 37  0  0  0  0  0  0  0  0  1 V2000
  147.1769  141.9841  155.2855 C   0  0  0  0  0  0  0  0  0  0  0  0
  148.3272  140.9918  155.5226 C   0  0  1  0  0  0  0  0  0  0  0  0
  148.8342  140.3228  154.2266 C   0  0  0  0  0  0  0  0  0  0  0  0
  150.0421  139.5445  154.4325 N   0  0  0  0  0  0  0  0  0  0  0  0
  150.2277  138.1914  154.2432 C   0  0  0  0  0  0  0  0  0  0  0  0
  151.5254  137.9110  154.5620 C   0  0  0  0  0  0  0  0  0  0  0  0
  152.0602  139.1734  154.9428 C   0  0  0  0  0  0  0  0  0  0  0  0
  151.1694  140.1490  154.8666 N   0  0  0  0  0  0  0  0  0  0  0  0
  149.4245  141.6858  156.1903 N   0  0  0  0  0  0  0  0  0  0  0  0
  149.5078  141.9261  157.5083 C   0  0  0  0  0  0  0  0  0  0  0  0
  148.6498  141.5686  158.3160 O   0  0  0  0  0  0  0  0  0  0  0  0
  150.7537  142.6832  157.9867 C   0  0  1  0  0  0  0  0  0  0  0  0
  150.3692  144.0208  158.6592 C   0  0  0  0  0  0  0  0  0  0  0  0
  151.5522  144.6717  159.3538 C   0  0  0  0  0  0  0  0  0  0  0  0
  152.6872  144.0157  159.6504 C   0  0  0  0  0  0  0  0  0  0  0  0
  152.9132  142.5485  159.3301 C   0  0  0  0  0  0  0  0  0  0  0  0
  151.6078  141.8268  158.9434 C   0  0  0  0  0  0  0  0  0  0  0  0
  146.3001  141.4882  154.8692 H   0  0  0  0  0  0  0  0  0  0  0  0
  147.4716  142.7753  154.5952 H   0  0  0  0  0  0  0  0  0  0  0  0
  146.8672  142.4543  156.2194 H   0  0  0  0  0  0  0  0  0  0  0  0
  147.9503  140.2141  156.1894 H   0  0  0  0  0  0  0  0  0  0  0  0
  148.0628  139.6748  153.8071 H   0  0  0  0  0  0  0  0  0  0  0  0
  149.0495  141.0773  153.4689 H   0  0  0  0  0  0  0  0  0  0  0  0
  149.4297  137.5496  153.8995 H   0  0  0  0  0  0  0  0  0  0  0  0
  152.0177  136.9504  154.5289 H   0  0  0  0  0  0  0  0  0  0  0  0
  153.0618  139.4084  155.2713 H   0  0  0  0  0  0  0  0  0  0  0  0
  150.1781  142.0128  155.6030 H   0  0  0  0  0  0  0  0  0  0  0  0
  151.3687  142.9094  157.1133 H   0  0  0  0  0  0  0  0  0  0  0  0
  149.9825  144.7124  157.9099 H   0  0  0  0  0  0  0  0  0  0  0  0
  149.5800  143.8813  159.3994 H   0  0  0  0  0  0  0  0  0  0  0  0
  151.4472  145.7125  159.6233 H   0  0  0  0  0  0  0  0  0  0  0  0
  153.4991  144.5395  160.1332 H   0  0  0  0  0  0  0  0  0  0  0  0
  153.6328  142.4882  158.5130 H   0  0  0  0  0  0  0  0  0  0  0  0
  153.3677  142.0577  160.1911 H   0  0  0  0  0  0  0  0  0  0  0  0
  151.0375  141.6136  159.8492 H   0  0  0  0  0  0  0  0  0  0  0  0
  151.8429  140.8608  158.4943 H   0  0  0  0  0  0  0  0  0  0  0  0
  1  2  1  0  0  0  0
  1 18  1  0  0  0  0
  1 19  1  0  0  0  0
  1 20  1  0  0  0  0
  2  3  1  0  0  0  0
  2  9  1  0  0  0  0
  2 21  1  0  0  0  0
  3  4  1  0  0  0  0
  3 22  1  0  0  0  0
  3 23  1  0  0  0  0
  4  8  1  0  0  0  0
  4  5  1  0  0  0  0
  5  6  2  0  0  0  0
  5 24  1  0  0  0  0
  6  7  1  0  0  0  0
  6 25  1  0  0  0  0
  7  8  2  0  0  0  0
  7 26  1  0  0  0  0
  9 10  1  0  0  0  0
  9 27  1  0  0  0  0
 10 11  2  0  0  0  0
 10 12  1  0  0  0  0
 12 17  1  0  0  0  0
 12 13  1  0  0  0  0
 12 28  1  0  0  0  0
 13 14  1  0  0  0  0
 13 29  1  0  0  0  0
 13 30  1  0  0  0  0
 14 15  2  0  0  0  0
 14 31  1  0  0  0  0
 15 16  1  0  0  0  0
 15 32  1  0  0  0  0
 16 17  1  0  0  0  0
 16 33  1  0  0  0  0
 16 34  1  0  0  0  0
 17 35  1  0  0  0  0
 17 36  1  0  0  0  0
M  END
> <s_m_source_file>
AV-unprocessed.smi

> <i_m_source_file_index>
1360

> <i_lp_mmshare_version>
43012

> <i_f3d_flags>
0

> <s_epik_input>
bjFbY0hdW2NIXVtjSF1uMVtDSDJdW0NAQEhdKFtDSDNdKVtOSF1DKD1PKVtDQEBIXTJbQ0gyXVtDSF09W0NIXVtDSDJdW0NIMl0y

> <s_epik_cmdline>
J2VwaWtfcHl0aG9uJywgJy1waCcsICc3LjAnLCAnLXRuJywgJzgnLCAnLW1hJywgJzIwMCcsICctbWV0YWxfYmluZGluZycsICctaW1hZScsICc8aW5maWxlLm1hZT4nLCAnLW9tYWUnLCAnPG91dGZpbGUubWFlPic=

> <r_lp_tautomer_probability>
1

> <r_epik_Ionization_Penalty>
0.000315076

> <r_epik_Ionization_Penalty_Charging>
0

> <r_epik_Ionization_Penalty_Neutral>
0.000315076

> <r_epik_State_Penalty>
-0

> <r_epik_Charging_Adjusted_Penalty>
0

> <i_epik_Tot_Q>
0

> <i_epik_Tot_abs_Q>
0

> <r_epik_Metal_State_Penalty>
-0

> <b_epik_Metal_Only>
0

> <s_lp_Force_Field>
OPLS_2005

> <r_lp_Energy>
7.88056

> <b_lp_Chiralities_Consistent>
1

> <s_lp_Variant>
AV-unprocessed.smi:1360-4

> <Gold.Version>
5.8.1

> <Gold.Id.Protein>
6NUR|6NUR_protein|mol2

> <Gold.PLP.Fitness>
43.7704

> <Gold.PLP.PLP>
-38.5367

> <Gold.PLP.part.hbond>
-1.8061

> <Gold.PLP.part.metal>
0.0000

> <Gold.PLP.part.buried>
-3.2192

> <Gold.PLP.part.nonpolar>
-34.2635

> <Gold.PLP.part.repulsive>
0.2046

> <Gold.PLP.ligand.clash>
0.0000

> <Gold.PLP.ligand.torsion>
0.3999

> <Gold.PLP.Chemscore.Hbond>
1.0000

> <Gold.PLP.Chemscore.CHOScore>
1.0000

> <Gold.PLP.Chemscore.Metal>
0.0000

> <Gold.Chemscore.Hbonds>
donor molecule, donor type, donor heavy atom, donor atom, acceptor molecule, acceptor atom, score
      P1  H  7989  7998       L1     8  1.00
      L1  C     5    24       P1  7948  1.00

> <Gold.PLP.Chemscore.Internal.Correction>
0.0335

> <Gold.Rescore>
     Score         DG    S(hbond)    S(metal)    S(lipo)     H(rot)  DE(clash)    DE(int)     intcor
     15.15     -15.68       0.61        0.00     102.66       1.51       0.05       0.48       ----

> <Gold.Chemscore.Fitness>
15.1538

> <Gold.Chemscore.DG>
-15.6774

> <Gold.Chemscore.ZeroCoef>
-5.4800

> <Gold.Chemscore.Hbond>
0.6110

> <Gold.Chemscore.Metal>
0.0000

> <Gold.Chemscore.Lipo>
102.6601

> <Gold.Chemscore.Internal_Hbond>
0.0000

> <Gold.Chemscore.DEClash>
0.0451

> <Gold.Chemscore.DEInternal>
0.4786

> <Gold.Chemscore.Rot>
1.5057

> <Gold.Chemscore.Internal.Correction>
   9.000000E+99

> <Gold.Chemscore.Hbonds>
donor molecule, donor type, donor heavy atom, donor atom, acceptor molecule, acceptor atom, score
      P1  H  7989  7998       L1     8  0.06

> <Gold.Chemscore.Hbond.Weighted>
-2.0408

> <Gold.Chemscore.Metal.Weighted>
-0.0000

> <Gold.Chemscore.Lipo.Weighted>
-12.0112

> <Gold.Chemscore.Internal_Hbond.Weighted>
0.0000

> <Gold.Chemscore.DEClash.Weighted>
0.0451

> <Gold.Chemscore.DEInternal.Weighted>
0.4786

> <Gold.Chemscore.Rot.Weighted>
3.8546

> <Gold.Chemscore.Internal.Correction.Weighted>
   9.000000E+99

> <Gold.Protein.RotatedTorsions>
[ 6907 6896 6895 6894 ] final -133.81 input  -60.11 | X-H torsion
[ 7974 7965 7964 7962 ] final   12.26 input  175.53 | X-H torsion
[ 8008 7997 7996 7995 ] final  -93.46 input   59.86 | X-H torsion
[ 10167 10162 10161 10158 ] final -105.98 input  -65.29 | X-H torsion
[ 10718 10713 10712 10709 ] final  -81.62 input   66.30 | X-H torsion
[ 10763 10752 10751 10750 ] final -131.93 input  -60.55 | X-H torsion
[ 11005 11000 10999 10996 ] final  108.61 input  -57.11 | X-H torsion

> <Gold.Protein.ActiveResidues>
 VAL166  LYS551  ARG553  GLY616  TRP617  ASP618  TYR619  PRO620  LYS621  CYS622 
 ASP623  PHE694  ASN695  SER759  ASP760  ASP761  ALA762  ILE779  LEU786  VAL792 
 PHE793  MET794  SER795  GLU796  ALA797  LYS798  CYS799  TRP800  GLU811  SER814 

> <Gold.Protein.RotatedAtoms>
  150.9785  133.6270  159.2726 H   0  0  0  0  0  0  0  0  0  0  0  0  # atno 6907 bound_to 6896
  151.3534  135.0888  159.9420 H   0  0  0  0  0  0  0  0  0  0  0  0  # atno 6908 bound_to 6896
  152.5207  133.9373  159.7664 H   0  0  0  0  0  0  0  0  0  0  0  0  # atno 6909 bound_to 6896
  146.2355  139.9362  142.8489 H   0  0  0  0  0  0  0  0  0  0  0  0  # atno 7974 bound_to 7965
  154.7360  140.0498  157.0768 H   0  0  0  0  0  0  0  0  0  0  0  0  # atno 8008 bound_to 7997
  155.0240  140.3150  155.4763 H   0  0  0  0  0  0  0  0  0  0  0  0  # atno 8009 bound_to 7997
  156.2853  140.2162  156.5359 H   0  0  0  0  0  0  0  0  0  0  0  0  # atno 8010 bound_to 7997
  140.1927  143.3879  152.1193 H   0  0  0  0  0  0  0  0  0  0  0  0  # atno 10167 bound_to 10162
  156.0047  130.4609  150.3981 H   0  0  0  0  0  0  0  0  0  0  0  0  # atno 10718 bound_to 10713
  154.8747  135.3814  154.4327 H   0  0  0  0  0  0  0  0  0  0  0  0  # atno 10763 bound_to 10752
  153.5020  135.7030  153.5832 H   0  0  0  0  0  0  0  0  0  0  0  0  # atno 10764 bound_to 10752
  153.4160  135.3913  155.2047 H   0  0  0  0  0  0  0  0  0  0  0  0  # atno 10765 bound_to 10752
  139.8847  134.9435  156.5999 H   0  0  0  0  0  0  0  0  0  0  0  0  # atno 11005 bound_to 11000
  145.1996  140.9848  143.4163 LP  0  0  0  0  0  0  0  0  0  0  0  0  # atno 17320 bound_to 7965
  144.9785  139.3807  143.6273 LP  0  0  0  0  0  0  0  0  0  0  0  0  # atno 17321 bound_to 7965
  139.5249  144.7089  151.5267 LP  0  0  0  0  0  0  0  0  0  0  0  0  # atno 17342 bound_to 10162
  140.6444  143.8823  150.6723 LP  0  0  0  0  0  0  0  0  0  0  0  0  # atno 17343 bound_to 10162
  157.2051  131.0447  151.2629 LP  0  0  0  0  0  0  0  0  0  0  0  0  # atno 17370 bound_to 10713
  157.3940  130.7297  149.6718 LP  0  0  0  0  0  0  0  0  0  0  0  0  # atno 17371 bound_to 10713
  140.7892  133.8596  155.8631 LP  0  0  0  0  0  0  0  0  0  0  0  0  # atno 17394 bound_to 11000
  140.9692  134.1553  157.4590 LP  0  0  0  0  0  0  0  0  0  0  0  0  # atno 17395 bound_to 11000

$$$$
