AV-unprocessed.smi:3346|AV-procd|sdf|12907|dock8
  -GOLD-   2272019323D 1   1.00000     0.00000
 Structure written by MMmdl.
 48 49  0  0  0  0  0  0  0  0  2 V2000
  147.5209  141.5132  153.4228 C   0  0  0  0  0  0  0  0  0  0  0  0
  147.8625  140.1405  154.0262 C   0  0  0  0  0  0  0  0  0  0  0  0
  149.3714  140.0370  154.2977 C   0  0  0  0  0  0  0  0  0  0  0  0
  147.4022  138.9700  153.1313 C   0  0  0  0  0  0  0  0  0  0  0  0
  146.9970  137.6662  153.8586 C   0  0  2  0  0  0  0  0  0  0  0  0
  148.0526  137.2152  154.8801 C   0  0  0  0  0  0  0  0  0  0  0  0
  146.7928  136.5879  152.8680 N   0  3  0  0  0  0  0  0  0  0  0  0
  146.2669  135.3212  153.4183 C   0  0  0  0  0  0  0  0  0  0  0  0
  145.7895  134.4194  152.2926 C   0  0  0  0  0  0  0  0  0  0  0  0
  144.8803  134.9163  151.3348 C   0  0  0  0  0  0  0  0  0  0  0  0
  144.4293  134.0632  150.3114 C   0  0  0  0  0  0  0  0  0  0  0  0
  144.9065  132.7397  150.2866 C   0  0  0  0  0  0  0  0  0  0  0  0
  145.7751  132.2509  151.1964 N   0  0  0  0  0  0  0  0  0  0  0  0
  146.2134  133.0688  152.1836 C   0  0  0  0  0  0  0  0  0  0  0  0
  147.1312  132.5386  153.1076 N   0  0  0  0  0  0  0  0  0  0  0  0
  147.2121  131.0826  153.1569 C   0  0  0  0  0  0  0  0  0  0  0  0
  148.1367  130.6484  154.3074 C   0  0  0  0  0  0  0  0  0  0  0  0
  149.4167  131.2509  154.1408 O   0  0  0  0  0  0  0  0  0  0  0  0
  149.3489  132.6739  154.1613 C   0  0  0  0  0  0  0  0  0  0  0  0
  148.4429  133.1688  153.0196 C   0  0  0  0  0  0  0  0  0  0  0  0
  147.9540  141.6288  152.4285 H   0  0  0  0  0  0  0  0  0  0  0  0
  147.9050  142.3208  154.0465 H   0  0  0  0  0  0  0  0  0  0  0  0
  146.4444  141.6606  153.3403 H   0  0  0  0  0  0  0  0  0  0  0  0
  147.3630  140.0639  154.9919 H   0  0  0  0  0  0  0  0  0  0  0  0
  149.9469  140.1056  153.3739 H   0  0  0  0  0  0  0  0  0  0  0  0
  149.6225  139.0890  154.7749 H   0  0  0  0  0  0  0  0  0  0  0  0
  149.7088  140.8352  154.9599 H   0  0  0  0  0  0  0  0  0  0  0  0
  146.5687  139.3218  152.5248 H   0  0  0  0  0  0  0  0  0  0  0  0
  148.1970  138.7347  152.4218 H   0  0  0  0  0  0  0  0  0  0  0  0
  146.0555  137.8075  154.3901 H   0  0  0  0  0  0  0  0  0  0  0  0
  148.1587  137.9351  155.6914 H   0  0  0  0  0  0  0  0  0  0  0  0
  149.0304  137.0889  154.4140 H   0  0  0  0  0  0  0  0  0  0  0  0
  147.7760  136.2631  155.3343 H   0  0  0  0  0  0  0  0  0  0  0  0
  146.1541  136.9287  152.1638 H   0  0  0  0  0  0  0  0  0  0  0  0
  147.0524  134.8287  153.9923 H   0  0  0  0  0  0  0  0  0  0  0  0
  145.4490  135.5010  154.1152 H   0  0  0  0  0  0  0  0  0  0  0  0
  144.5283  135.9364  151.3839 H   0  0  0  0  0  0  0  0  0  0  0  0
  143.7329  134.4136  149.5640 H   0  0  0  0  0  0  0  0  0  0  0  0
  144.5820  132.0553  149.5168 H   0  0  0  0  0  0  0  0  0  0  0  0
  146.2158  130.6616  153.2955 H   0  0  0  0  0  0  0  0  0  0  0  0
  147.5994  130.6985  152.2121 H   0  0  0  0  0  0  0  0  0  0  0  0
  147.7158  130.9256  155.2751 H   0  0  0  0  0  0  0  0  0  0  0  0
  148.2517  129.5645  154.3087 H   0  0  0  0  0  0  0  0  0  0  0  0
  148.9814  133.0154  155.1297 H   0  0  0  0  0  0  0  0  0  0  0  0
  150.3543  133.0785  154.0442 H   0  0  0  0  0  0  0  0  0  0  0  0
  148.8951  132.9291  152.0560 H   0  0  0  0  0  0  0  0  0  0  0  0
  148.3438  134.2540  153.0657 H   0  0  0  0  0  0  0  0  0  0  0  0
  147.6770  136.3834  152.4248 H   0  0  0  0  0  0  0  0  0  0  0  0
  1  2  1  0  0  0  0
  1 21  1  0  0  0  0
  1 22  1  0  0  0  0
  1 23  1  0  0  0  0
  2  3  1  0  0  0  0
  2  4  1  0  0  0  0
  2 24  1  0  0  0  0
  3 25  1  0  0  0  0
  3 26  1  0  0  0  0
  3 27  1  0  0  0  0
  4  5  1  0  0  0  0
  4 28  1  0  0  0  0
  4 29  1  0  0  0  0
  5  6  1  0  0  0  0
  5  7  1  0  0  0  0
  5 30  1  0  0  0  0
  6 31  1  0  0  0  0
  6 32  1  0  0  0  0
  6 33  1  0  0  0  0
  7  8  1  0  0  0  0
  7 34  1  0  0  0  0
  7 48  1  0  0  0  0
  8  9  1  0  0  0  0
  8 35  1  0  0  0  0
  8 36  1  0  0  0  0
  9 14  1  0  0  0  0
  9 10  2  0  0  0  0
 10 11  1  0  0  0  0
 10 37  1  0  0  0  0
 11 12  2  0  0  0  0
 11 38  1  0  0  0  0
 12 13  1  0  0  0  0
 12 39  1  0  0  0  0
 13 14  2  0  0  0  0
 14 15  1  0  0  0  0
 15 20  1  0  0  0  0
 15 16  1  0  0  0  0
 16 17  1  0  0  0  0
 16 40  1  0  0  0  0
 16 41  1  0  0  0  0
 17 18  1  0  0  0  0
 17 42  1  0  0  0  0
 17 43  1  0  0  0  0
 18 19  1  0  0  0  0
 19 20  1  0  0  0  0
 19 44  1  0  0  0  0
 19 45  1  0  0  0  0
 20 46  1  0  0  0  0
 20 47  1  0  0  0  0
M  CHG  1   7   1
M  END
> <s_m_source_file>
AV-unprocessed.smi

> <i_m_source_file_index>
3346

> <i_lp_mmshare_version>
43012

> <i_f3d_flags>
0

> <s_epik_input>
W0NIM11bQ0hdKFtDSDNdKVtDSDJdW0NASF0oW0NIM10pW05IXVtDSDJdYzFbY0hdW2NIXVtjSF1uYzFOMltDSDJdW0NIMl1PW0NIMl1bQ0gyXTI=

> <s_epik_cmdline>
J2VwaWtfcHl0aG9uJywgJy1waCcsICc3LjAnLCAnLXRuJywgJzgnLCAnLW1hJywgJzIwMCcsICctbWV0YWxfYmluZGluZycsICctaW1hZScsICc8aW5maWxlLm1hZT4nLCAnLW9tYWUnLCAnPG91dGZpbGUubWFlPic=

> <r_lp_tautomer_probability>
1

> <r_epik_Ionization_Penalty>
0.0185938

> <r_epik_Ionization_Penalty_Charging>
0.0176519

> <r_epik_Ionization_Penalty_Neutral>
0.000941891

> <r_epik_State_Penalty>
0.0140027

> <r_epik_Charging_Adjusted_Penalty>
0.0316546

> <i_epik_Tot_Q>
1

> <i_epik_Tot_abs_Q>
1

> <r_epik_Metal_State_Penalty>
0.0141454

> <b_epik_Metal_Only>
0

> <s_lp_Force_Field>
OPLS_2005

> <r_lp_Energy>
22.6913

> <b_lp_Chiralities_Consistent>
1

> <s_lp_Variant>
AV-unprocessed.smi:3346-1

> <Gold.Version>
5.8.1

> <Gold.Id.Protein>
6NUR|6NUR_protein|mol2

> <Gold.PLP.Fitness>
36.4547

> <Gold.PLP.PLP>
-31.8931

> <Gold.PLP.part.hbond>
-1.0000

> <Gold.PLP.part.metal>
0.0000

> <Gold.PLP.part.buried>
-4.7189

> <Gold.PLP.part.nonpolar>
-26.3743

> <Gold.PLP.part.repulsive>
0.3047

> <Gold.PLP.ligand.clash>
0.0000

> <Gold.PLP.ligand.torsion>
0.7986

> <Gold.PLP.Chemscore.Hbond>
2.0000

> <Gold.PLP.Chemscore.CHOScore>
0.0000

> <Gold.PLP.Chemscore.Metal>
0.0000

> <Gold.Chemscore.Hbonds>
donor molecule, donor type, donor heavy atom, donor atom, acceptor molecule, acceptor atom, score
      L1  H     7    48       P1  7948  1.33

> <Gold.PLP.Chemscore.Internal.Correction>
0.1587

> <Gold.Rescore>
     Score         DG    S(hbond)    S(metal)    S(lipo)     H(rot)  DE(clash)    DE(int)     intcor
     12.61     -13.58       0.99        0.00      76.44       1.62       0.00       0.97       ----

> <Gold.Chemscore.Fitness>
12.6117

> <Gold.Chemscore.DG>
-13.5835

> <Gold.Chemscore.ZeroCoef>
-5.4800

> <Gold.Chemscore.Hbond>
0.9937

> <Gold.Chemscore.Metal>
0.0000

> <Gold.Chemscore.Lipo>
76.4444

> <Gold.Chemscore.Internal_Hbond>
0.0000

> <Gold.Chemscore.DEClash>
0.0000

> <Gold.Chemscore.DEInternal>
0.9718

> <Gold.Chemscore.Rot>
1.6248

> <Gold.Chemscore.Internal.Correction>
   9.000000E+99

> <Gold.Chemscore.Hbonds>
donor molecule, donor type, donor heavy atom, donor atom, acceptor molecule, acceptor atom, score
      L1  H     7    48       P1  7948  0.67

> <Gold.Chemscore.Hbond.Weighted>
-3.3191

> <Gold.Chemscore.Metal.Weighted>
-0.0000

> <Gold.Chemscore.Lipo.Weighted>
-8.9440

> <Gold.Chemscore.Internal_Hbond.Weighted>
0.0000

> <Gold.Chemscore.DEClash.Weighted>
0.0000

> <Gold.Chemscore.DEInternal.Weighted>
0.9718

> <Gold.Chemscore.Rot.Weighted>
4.1596

> <Gold.Chemscore.Internal.Correction.Weighted>
   9.000000E+99

> <Gold.Protein.RotatedTorsions>
[ 6907 6896 6895 6894 ] final    5.11 input  -60.11 | X-H torsion
[ 7974 7965 7964 7962 ] final  171.42 input  175.53 | X-H torsion
[ 8008 7997 7996 7995 ] final  -17.62 input   59.86 | X-H torsion
[ 10167 10162 10161 10158 ] final   81.85 input  -65.29 | X-H torsion
[ 10718 10713 10712 10709 ] final -156.78 input   66.30 | X-H torsion
[ 10763 10752 10751 10750 ] final  167.01 input  -60.55 | X-H torsion
[ 11005 11000 10999 10996 ] final  -87.24 input  -57.11 | X-H torsion

> <Gold.Protein.ActiveResidues>
 VAL166  LYS551  ARG553  GLY616  TRP617  ASP618  TYR619  PRO620  LYS621  CYS622 
 ASP623  PHE694  ASN695  SER759  ASP760  ASP761  ALA762  ILE779  LEU786  VAL792 
 PHE793  MET794  SER795  GLU796  ALA797  LYS798  CYS799  TRP800  GLU811  SER814 

> <Gold.Protein.RotatedAtoms>
  151.6522  135.1000  160.0162 H   0  0  0  0  0  0  0  0  0  0  0  0  # atno 6907 bound_to 6896
  152.3994  133.6791  159.6312 H   0  0  0  0  0  0  0  0  0  0  0  0  # atno 6908 bound_to 6896
  150.7896  133.8734  159.3306 H   0  0  0  0  0  0  0  0  0  0  0  0  # atno 6909 bound_to 6896
  144.7295  139.9347  143.6426 H   0  0  0  0  0  0  0  0  0  0  0  0  # atno 7974 bound_to 7965
  154.4965  140.2138  155.9436 H   0  0  0  0  0  0  0  0  0  0  0  0  # atno 8008 bound_to 7997
  156.1377  140.3185  155.8414 H   0  0  0  0  0  0  0  0  0  0  0  0  # atno 8009 bound_to 7997
  155.4179  140.0495  157.3018 H   0  0  0  0  0  0  0  0  0  0  0  0  # atno 8010 bound_to 7997
  139.9349  144.6127  150.8308 H   0  0  0  0  0  0  0  0  0  0  0  0  # atno 10167 bound_to 10162
  156.5312  130.8521  151.2716 H   0  0  0  0  0  0  0  0  0  0  0  0  # atno 10718 bound_to 10713
  154.3474  135.2753  155.2390 H   0  0  0  0  0  0  0  0  0  0  0  0  # atno 10763 bound_to 10752
  154.4634  135.5901  153.6275 H   0  0  0  0  0  0  0  0  0  0  0  0  # atno 10764 bound_to 10752
  152.9852  135.6070  154.3681 H   0  0  0  0  0  0  0  0  0  0  0  0  # atno 10765 bound_to 10752
  141.1619  133.7500  156.9277 H   0  0  0  0  0  0  0  0  0  0  0  0  # atno 11005 bound_to 11000
  146.0830  139.3818  143.0452 LP  0  0  0  0  0  0  0  0  0  0  0  0  # atno 17320 bound_to 7965
  145.7815  140.9854  143.1097 LP  0  0  0  0  0  0  0  0  0  0  0  0  # atno 17321 bound_to 7965
  140.7627  143.3205  151.2634 LP  0  0  0  0  0  0  0  0  0  0  0  0  # atno 17342 bound_to 10162
  139.6751  143.9951  152.2776 LP  0  0  0  0  0  0  0  0  0  0  0  0  # atno 17343 bound_to 10162
  157.7421  130.9884  150.2495 LP  0  0  0  0  0  0  0  0  0  0  0  0  # atno 17370 bound_to 10713
  156.3058  130.3765  149.7707 LP  0  0  0  0  0  0  0  0  0  0  0  0  # atno 17371 bound_to 10713
  140.1408  134.9295  157.2463 LP  0  0  0  0  0  0  0  0  0  0  0  0  # atno 17394 bound_to 11000
  140.2840  134.3317  155.7334 LP  0  0  0  0  0  0  0  0  0  0  0  0  # atno 17395 bound_to 11000

$$$$
