AV-unprocessed.smi:1240|AV-procd|sdf|5213|dock1
  -GOLD-   22720 4303D 1   1.00000     0.00000
 Structure written by MMmdl.
 48 50  0  0  0  0  0  0  0  0  4 V2000
  154.1431  140.3094  159.0320 O   0  0  0  0  0  0  0  0  0  0  0  0
  154.1630  140.9427  160.0937 C   0  0  0  0  0  0  0  0  0  0  0  0
  154.9194  140.6932  161.1955 N   0  5  0  0  0  0  0  0  0  0  0  0
  154.6901  139.5937  162.1327 C   0  0  0  0  0  0  0  0  0  0  0  0
  156.0441  139.0586  162.7204 C   0  0  2  0  0  0  0  0  0  0  0  0
  156.0212  137.5300  163.0418 C   0  0  1  0  0  0  0  0  0  0  0  0
  154.9580  137.0583  164.0308 C   0  0  0  0  0  0  0  0  0  0  0  0
  154.8763  135.5626  163.7458 C   0  0  0  0  0  0  0  0  0  0  0  0
  155.1991  135.4121  162.3685 O   0  0  0  0  0  0  0  0  0  0  0  0
  155.6477  136.6536  161.8387 C   0  0  0  0  0  0  0  0  0  0  0  0
  156.5798  139.8044  163.9165 N   0  3  0  0  0  0  0  0  0  0  0  0
  155.7563  139.7553  165.1525 C   0  0  0  0  0  0  0  0  0  0  0  0
  156.2337  140.8344  166.1375 C   0  0  0  0  0  0  0  0  0  0  0  0
  157.6165  140.6493  166.4198 O   0  0  0  0  0  0  0  0  0  0  0  0
  158.4254  140.7682  165.2546 C   0  0  0  0  0  0  0  0  0  0  0  0
  158.0303  139.6875  164.2351 C   0  0  0  0  0  0  0  0  0  0  0  0
  153.3477  141.9981  160.2682 N   0  0  0  0  0  0  0  0  0  0  0  0
  152.4562  142.5987  159.3393 C   0  0  0  0  0  0  0  0  0  0  0  0
  152.3379  144.0060  159.3559 C   0  0  0  0  0  0  0  0  0  0  0  0
  151.4826  144.6413  158.4331 C   0  0  0  0  0  0  0  0  0  0  0  0
  150.7959  143.9037  157.5339 N   0  3  0  0  0  0  0  0  0  0  0  0
  150.8911  142.5581  157.4684 C   0  0  0  0  0  0  0  0  0  0  0  0
  151.7296  141.8672  158.3663 C   0  0  0  0  0  0  0  0  0  0  0  0
  154.0354  139.8754  162.9583 H   0  0  0  0  0  0  0  0  0  0  0  0
  154.1769  138.7750  161.6290 H   0  0  0  0  0  0  0  0  0  0  0  0
  156.7924  139.1728  161.9343 H   0  0  0  0  0  0  0  0  0  0  0  0
  156.9967  137.2001  163.4057 H   0  0  0  0  0  0  0  0  0  0  0  0
  155.2085  137.2620  165.0724 H   0  0  0  0  0  0  0  0  0  0  0  0
  153.9991  137.5316  163.8136 H   0  0  0  0  0  0  0  0  0  0  0  0
  155.6174  135.0218  164.3354 H   0  0  0  0  0  0  0  0  0  0  0  0
  153.8937  135.1492  163.9739 H   0  0  0  0  0  0  0  0  0  0  0  0
  154.8275  137.1011  161.2752 H   0  0  0  0  0  0  0  0  0  0  0  0
  156.4826  136.5036  161.1536 H   0  0  0  0  0  0  0  0  0  0  0  0
  154.7050  139.9165  164.9127 H   0  0  0  0  0  0  0  0  0  0  0  0
  155.8347  138.7776  165.6277 H   0  0  0  0  0  0  0  0  0  0  0  0
  156.0634  141.8336  165.7331 H   0  0  0  0  0  0  0  0  0  0  0  0
  155.6711  140.7677  167.0687 H   0  0  0  0  0  0  0  0  0  0  0  0
  158.3198  141.7656  164.8245 H   0  0  0  0  0  0  0  0  0  0  0  0
  159.4717  140.6533  165.5376 H   0  0  0  0  0  0  0  0  0  0  0  0
  158.2520  138.7041  164.6522 H   0  0  0  0  0  0  0  0  0  0  0  0
  158.6306  139.8006  163.3326 H   0  0  0  0  0  0  0  0  0  0  0  0
  153.3361  142.3873  161.1994 H   0  0  0  0  0  0  0  0  0  0  0  0
  152.8916  144.5943  160.0732 H   0  0  0  0  0  0  0  0  0  0  0  0
  151.3311  145.7097  158.3857 H   0  0  0  0  0  0  0  0  0  0  0  0
  150.3038  142.0771  156.7001 H   0  0  0  0  0  0  0  0  0  0  0  0
  151.8131  140.7937  158.2869 H   0  0  0  0  0  0  0  0  0  0  0  0
  156.4799  140.7651  163.6239 H   0  0  0  0  0  0  0  0  0  0  0  0
  150.1843  144.3832  156.8730 H   0  0  0  0  0  0  0  0  0  0  0  0
  1  2  2  0  0  0  0
  2  3  1  0  0  0  0
  2 17  1  0  0  0  0
  3  4  1  0  0  0  0
  4  5  1  0  0  0  0
  4 24  1  0  0  0  0
  4 25  1  0  0  0  0
  5  6  1  0  0  0  0
  5 11  1  0  0  0  0
  5 26  1  0  0  0  0
  6 10  1  0  0  0  0
  6  7  1  0  0  0  0
  6 27  1  0  0  0  0
  7  8  1  0  0  0  0
  7 28  1  0  0  0  0
  7 29  1  0  0  0  0
  8  9  1  0  0  0  0
  8 30  1  0  0  0  0
  8 31  1  0  0  0  0
  9 10  1  0  0  0  0
 10 32  1  0  0  0  0
 10 33  1  0  0  0  0
 11 16  1  0  0  0  0
 11 12  1  0  0  0  0
 11 47  1  0  0  0  0
 12 13  1  0  0  0  0
 12 34  1  0  0  0  0
 12 35  1  0  0  0  0
 13 14  1  0  0  0  0
 13 36  1  0  0  0  0
 13 37  1  0  0  0  0
 14 15  1  0  0  0  0
 15 16  1  0  0  0  0
 15 38  1  0  0  0  0
 15 39  1  0  0  0  0
 16 40  1  0  0  0  0
 16 41  1  0  0  0  0
 17 18  1  0  0  0  0
 17 42  1  0  0  0  0
 18 23  1  0  0  0  0
 18 19  2  0  0  0  0
 19 20  1  0  0  0  0
 19 43  1  0  0  0  0
 20 21  2  0  0  0  0
 20 44  1  0  0  0  0
 21 22  1  0  0  0  0
 21 48  1  0  0  0  0
 22 23  2  0  0  0  0
 22 45  1  0  0  0  0
 23 46  1  0  0  0  0
M  CHG  1   3  -1
M  CHG  1  11   1
M  CHG  1  21   1
M  END
> <s_m_source_file>
AV-unprocessed.smi

> <i_m_source_file_index>
1240

> <i_lp_mmshare_version>
43012

> <i_f3d_flags>
0

> <s_epik_input>
W2NIXTFbY0hdbltjSF1bY0hdYzFbTkhdQyg9TylbTkhdW0NIMl1bQ0BIXShbQ0BASF0yW0NIMl1bQ0gyXU9bQ0gyXTIpTjNbQ0gyXVtDSDJdT1tDSDJdW0NIMl0z

> <s_epik_cmdline>
J2VwaWtfcHl0aG9uJywgJy1waCcsICc3LjAnLCAnLXRuJywgJzgnLCAnLW1hJywgJzIwMCcsICctbWV0YWxfYmluZGluZycsICctaW1hZScsICc8aW5maWxlLm1hZT4nLCAnLW9tYWUnLCAnPG91dGZpbGUubWFlPic=

> <r_epik_Ionization_Penalty>
8.41087

> <r_epik_Ionization_Penalty_Charging>
8.41087

> <r_epik_Ionization_Penalty_Neutral>
3.12936e-06

> <r_epik_State_Penalty>
8.81894

> <r_epik_Charging_Adjusted_Penalty>
17.2298

> <i_epik_Tot_Q>
1

> <i_epik_Tot_abs_Q>
3

> <r_epik_Metal_State_Penalty>
4.82983

> <b_epik_Metal_Only>
1

> <s_lp_Force_Field>
OPLS_2005

> <r_lp_Energy>
48.3521

> <b_lp_Chiralities_Consistent>
1

> <s_lp_Variant>
AV-unprocessed.smi:1240-19

> <Gold.Version>
5.8.1

> <Gold.Id.Protein>
6NUR|6NUR_protein|mol2

> <Gold.PLP.Fitness>
46.7009

> <Gold.PLP.PLP>
-40.4613

> <Gold.PLP.part.hbond>
-2.4995

> <Gold.PLP.part.metal>
0.0000

> <Gold.PLP.part.buried>
-6.2288

> <Gold.PLP.part.nonpolar>
-30.9849

> <Gold.PLP.part.repulsive>
0.0703

> <Gold.PLP.ligand.clash>
0.0000

> <Gold.PLP.ligand.torsion>
1.6879

> <Gold.PLP.Chemscore.Hbond>
2.9760

> <Gold.PLP.Chemscore.CHOScore>
0.0000

> <Gold.PLP.Chemscore.Metal>
0.0000

> <Gold.Chemscore.Hbonds>
donor molecule, donor type, donor heavy atom, donor atom, acceptor molecule, acceptor atom, score
      L1  H    21    48       P1  8028  2.00
      P1  H  7997  8010       L1     1  0.86

> <Gold.PLP.Chemscore.Internal.Correction>
0.6874

> <Gold.Rescore>
     Score         DG    S(hbond)    S(metal)    S(lipo)     H(rot)  DE(clash)    DE(int)     intcor
     17.42     -20.46       1.91        0.00     110.66       1.70       0.26       2.78       ----

> <Gold.Chemscore.Fitness>
17.4240

> <Gold.Chemscore.DG>
-20.4600

> <Gold.Chemscore.ZeroCoef>
-5.4800

> <Gold.Chemscore.Hbond>
1.9132

> <Gold.Chemscore.Metal>
0.0000

> <Gold.Chemscore.Lipo>
110.6625

> <Gold.Chemscore.Internal_Hbond>
0.0000

> <Gold.Chemscore.DEClash>
0.2566

> <Gold.Chemscore.DEInternal>
2.7794

> <Gold.Chemscore.Rot>
1.7021

> <Gold.Chemscore.Internal.Correction>
   9.000000E+99

> <Gold.Chemscore.Hbonds>
donor molecule, donor type, donor heavy atom, donor atom, acceptor molecule, acceptor atom, score
      L1  H    21    48       P1  8028  0.88
      P1  H  7997  8010       L1     1  0.84

> <Gold.Chemscore.Hbond.Weighted>
-6.3900

> <Gold.Chemscore.Metal.Weighted>
-0.0000

> <Gold.Chemscore.Lipo.Weighted>
-12.9475

> <Gold.Chemscore.Internal_Hbond.Weighted>
0.0000

> <Gold.Chemscore.DEClash.Weighted>
0.2566

> <Gold.Chemscore.DEInternal.Weighted>
2.7794

> <Gold.Chemscore.Rot.Weighted>
4.3575

> <Gold.Chemscore.Internal.Correction.Weighted>
   9.000000E+99

> <Gold.Protein.RotatedTorsions>
[ 6907 6896 6895 6894 ] final   -6.66 input  -60.11 | X-H torsion
[ 7974 7965 7964 7962 ] final  -63.41 input  175.53 | X-H torsion
[ 8008 7997 7996 7995 ] final   11.35 input   59.86 | X-H torsion
[ 10167 10162 10161 10158 ] final -132.04 input  -65.29 | X-H torsion
[ 10718 10713 10712 10709 ] final  147.26 input   66.30 | X-H torsion
[ 10763 10752 10751 10750 ] final   16.16 input  -60.55 | X-H torsion
[ 11005 11000 10999 10996 ] final  -14.74 input  -57.11 | X-H torsion

> <Gold.Protein.ActiveResidues>
 VAL166  LYS551  ARG553  GLY616  TRP617  ASP618  TYR619  PRO620  LYS621  CYS622 
 ASP623  PHE694  ASN695  SER759  ASP760  ASP761  ALA762  ILE779  LEU786  VAL792 
 PHE793  MET794  SER795  GLU796  ALA797  LYS798  CYS799  TRP800  GLU811  SER814 

> <Gold.Protein.RotatedAtoms>
  151.4620  135.1039  159.9727 H   0  0  0  0  0  0  0  0  0  0  0  0  # atno 6907 bound_to 6896
  152.4849  133.8344  159.7130 H   0  0  0  0  0  0  0  0  0  0  0  0  # atno 6908 bound_to 6896
  150.8950  133.7132  159.2921 H   0  0  0  0  0  0  0  0  0  0  0  0  # atno 6909 bound_to 6896
  145.7794  140.8770  143.0338 H   0  0  0  0  0  0  0  0  0  0  0  0  # atno 7974 bound_to 7965
  154.8057  140.2859  155.5889 H   0  0  0  0  0  0  0  0  0  0  0  0  # atno 8008 bound_to 7997
  156.2982  140.2578  156.2864 H   0  0  0  0  0  0  0  0  0  0  0  0  # atno 8009 bound_to 7997
  154.9506  140.0379  157.2131 H   0  0  0  0  0  0  0  0  0  0  0  0  # atno 8010 bound_to 7997
  139.9126  143.6476  152.2572 H   0  0  0  0  0  0  0  0  0  0  0  0  # atno 10167 bound_to 10162
  157.3232  131.0908  151.1224 H   0  0  0  0  0  0  0  0  0  0  0  0  # atno 10718 bound_to 10713
  153.1457  135.6768  153.8959 H   0  0  0  0  0  0  0  0  0  0  0  0  # atno 10763 bound_to 10752
  153.8401  135.3106  155.3426 H   0  0  0  0  0  0  0  0  0  0  0  0  # atno 10764 bound_to 10752
  154.7823  135.4881  153.9955 H   0  0  0  0  0  0  0  0  0  0  0  0  # atno 10765 bound_to 10752
  140.7895  133.8299  155.9367 H   0  0  0  0  0  0  0  0  0  0  0  0  # atno 11005 bound_to 11000
  144.6799  139.9967  143.7484 LP  0  0  0  0  0  0  0  0  0  0  0  0  # atno 17320 bound_to 7965
  146.0090  139.3153  143.0882 LP  0  0  0  0  0  0  0  0  0  0  0  0  # atno 17321 bound_to 7965
  139.6929  144.7645  151.1406 LP  0  0  0  0  0  0  0  0  0  0  0  0  # atno 17342 bound_to 10162
  140.7681  143.5564  150.9148 LP  0  0  0  0  0  0  0  0  0  0  0  0  # atno 17343 bound_to 10162
  157.2501  130.6610  149.5927 LP  0  0  0  0  0  0  0  0  0  0  0  0  # atno 17370 bound_to 10713
  155.9688  130.4541  150.5837 LP  0  0  0  0  0  0  0  0  0  0  0  0  # atno 17371 bound_to 10713
  140.9403  134.1909  157.4802 LP  0  0  0  0  0  0  0  0  0  0  0  0  # atno 17394 bound_to 11000
  139.8733  134.9869  156.5345 LP  0  0  0  0  0  0  0  0  0  0  0  0  # atno 17395 bound_to 11000

$$$$
