#       Name:                AV-unprocessed.smi:753
#       Creating user name   scv26
#       Creation time:       Fri Mar 27 00:59:23 2020


#       File generated by GOLD software.
#

@<TRIPOS>MOLECULE
AV-unprocessed.smi:753
    46    48     1
SMALL
NO_CHARGES


@<TRIPOS>ATOM
      1 ****        -3.2767   6.9806   0.2566 C.3            1 S1                 0.0000
      2 ****        -2.7440   5.5685   0.3829 C.ar           1 S1                 0.0000
      3 ****        -2.4642   5.0108   1.6484 C.ar           1 S1                 0.0000
      4 ****        -1.9654   3.6953   1.7062 C.ar           1 S1                 0.0000
      5 ****        -1.7675   2.9900   0.5016 C.ar           1 S1                 0.0000
      6 ****        -1.2241   1.5750   0.5097 C.3            1 S1                 0.0000
      7 ****         0.2946   1.5408   0.2766 C.3            1 S1                 0.0000
      8 ****         0.8029   0.1751   0.2697 N.am           1 S1                 0.0000
      9 ****         1.0953  -0.5461   1.3650 C.2            1 S1                 0.0000
     10 ****         0.9705  -0.1192   2.5114 O.2            1 S1                 0.0000
     11 ****         1.5380  -1.7910   1.1154 N.am           1 S1                 0.0000
     12 ****         1.9361  -2.8148   2.0840 C.3            1 S1                 0.0000
     13 ****         3.3258  -2.5492   2.7100 C.3            1 S1                 0.0000
     14 ****         4.1127  -3.8234   2.3517 C.3            1 S1                 0.0000
     15 ****         3.5521  -5.0168   3.1492 C.3            1 S1                 0.0000
     16 ****         2.1958  -5.2793   2.4650 C.3            1 S1                 0.0000
     17 ****         2.1444  -4.1783   1.3893 C.3            1 S1                 0.0000
     18 ****         3.6037  -4.1165   0.9471 C.3            1 S1                 0.0000
     19 ****        -2.0795   3.6388  -0.7118 C.ar           1 S1                 0.0000
     20 ****        -2.5571   4.9003  -0.7770 N.ar           1 S1                 0.0000
     21 ****        -3.4466   7.4287   1.2360 H              1 S1                 0.0000
     22 ****        -4.2221   6.9835  -0.2865 H              1 S1                 0.0000
     23 ****        -2.5665   7.6060  -0.2851 H              1 S1                 0.0000
     24 ****        -2.6243   5.5754   2.5552 H              1 S1                 0.0000
     25 ****        -1.7374   3.2394   2.6585 H              1 S1                 0.0000
     26 ****        -1.4712   1.1058   1.4632 H              1 S1                 0.0000
     27 ****        -1.7354   0.9951  -0.2599 H              1 S1                 0.0000
     28 ****         0.5338   1.9940  -0.6859 H              1 S1                 0.0000
     29 ****         0.8124   2.1305   1.0352 H              1 S1                 0.0000
     30 ****         0.9362  -0.2583  -0.6323 H              1 S1                 0.0000
     31 ****         1.6092  -2.0566   0.1438 H              1 S1                 0.0000
     32 ****         1.1645  -2.9011   2.8515 H              1 S1                 0.0000
     33 ****         3.8047  -1.6728   2.2699 H              1 S1                 0.0000
     34 ****         3.2694  -2.3871   3.7871 H              1 S1                 0.0000
     35 ****         5.1937  -3.7080   2.4362 H              1 S1                 0.0000
     36 ****         4.2028  -5.8874   3.0566 H              1 S1                 0.0000
     37 ****         3.4461  -4.7895   4.2106 H              1 S1                 0.0000
     38 ****         2.1841  -6.2691   2.0068 H              1 S1                 0.0000
     39 ****         1.3583  -5.2246   3.1614 H              1 S1                 0.0000
     40 ****         1.4280  -4.3878   0.5937 H              1 S1                 0.0000
     41 ****         3.8096  -3.3150   0.2355 H              1 S1                 0.0000
     42 ****         3.9734  -5.0596   0.5403 H              1 S1                 0.0000
     43 ****        -1.9375   3.1341  -1.6563 H              1 S1                 0.0000
     44 ****         0.6357   0.8105   2.6651 LP             1 S1                 0.0000
     45 ****         1.2038  -0.7017   3.2900 LP             1 S1                 0.0000
     46 ****        -2.7661   5.3271  -1.6568 LP             1 S1                 0.0000
@<TRIPOS>BOND
    1    1    2 1     
    2    1   21 1     
    3    1   22 1     
    4    1   23 1     
    5    2   20 ar    
    6    2    3 ar    
    7    3    4 ar    
    8    3   24 1     
    9    4    5 ar    
   10    4   25 1     
   11    5    6 1     
   12    5   19 ar    
   13    6    7 1     
   14    6   26 1     
   15    6   27 1     
   16    7    8 1     
   17    7   28 1     
   18    7   29 1     
   19    8    9 am    
   20    8   30 1     
   21    9   10 2     
   22    9   11 am    
   23   11   12 1     
   24   11   31 1     
   25   12   17 1     
   26   12   13 1     
   27   12   32 1     
   28   13   14 1     
   29   13   33 1     
   30   13   34 1     
   31   14   18 1     
   32   14   15 1     
   33   14   35 1     
   34   15   16 1     
   35   15   36 1     
   36   15   37 1     
   37   16   17 1     
   38   16   38 1     
   39   16   39 1     
   40   17   18 1     
   41   17   40 1     
   42   18   41 1     
   43   18   42 1     
   44   19   20 ar    
   45   19   43 1     
   46   10   44 1     
   47   10   45 1     
   48   20   46 1     
@<TRIPOS>SUBSTRUCTURE
      1 S1             1
@<TRIPOS>SET
LONE_PAIRS      STATIC     ATOMS    <user>   **** ""
3 44 45 46
DONOR_HYDROGENS      STATIC     ATOMS    <user>   **** ""
2 30 31
ATOM$BLUE        STATIC     ATOMS    COLORGROUP SYSTEM
3 44 45 46
ATOM$RED        STATIC     ATOMS    COLORGROUP SYSTEM
2 30 31
