AV-unprocessed.smi:438|AV-procd|sdf|2575|dock6
  -GOLD-   2262022553D 1   1.00000     0.00000
 Structure written by MMmdl.
 48 49  0  0  0  0  0  0  0  0  1 V2000
  147.4151  136.6191  162.8033 C   0  0  0  0  0  0  0  0  0  0  0  0
  147.7036  136.2296  161.3652 C   0  0  0  0  0  0  0  0  0  0  0  0
  148.1914  137.2149  160.5799 N   0  0  0  0  0  0  0  0  0  0  0  0
  148.4756  136.8898  159.3199 C   0  0  0  0  0  0  0  0  0  0  0  0
  149.1506  138.2027  158.3222 S   0  0  0  0  0  0  0  0  0  0  0  0
  150.9322  138.0533  158.6643 C   0  0  0  0  0  0  0  0  0  0  0  0
  151.7251  139.3061  158.2922 C   0  0  0  0  0  0  0  0  0  0  0  0
  152.7165  139.2083  157.5699 O   0  0  0  0  0  0  0  0  0  0  0  0
  151.2781  140.4683  158.7989 N   0  0  0  0  0  0  0  0  0  0  0  0
  151.8663  141.8003  158.6272 C   0  0  2  0  0  0  0  0  0  0  0  0
  152.2742  142.4260  159.9800 C   0  0  0  0  0  0  0  0  0  0  0  0
  152.9698  143.7800  159.7795 C   0  0  0  0  0  0  0  0  0  0  0  0
  152.0808  144.7386  158.9740 C   0  0  0  0  0  0  0  0  0  0  0  0
  151.6841  144.1247  157.6219 C   0  0  0  0  0  0  0  0  0  0  0  0
  150.9794  142.7629  157.7904 C   0  0  1  0  0  0  0  0  0  0  0  0
  150.6035  142.1802  156.4165 C   0  0  0  0  0  0  0  0  0  0  0  0
  148.3132  135.7015  158.7359 N   0  0  0  0  0  0  0  0  0  0  0  0
  147.8257  134.7060  159.5062 C   0  0  0  0  0  0  0  0  0  0  0  0
  147.6622  133.4783  158.9328 O   0  0  0  0  0  0  0  0  0  0  0  0
  147.4937  134.9171  160.8680 C   0  0  0  0  0  0  0  0  0  0  0  0
  146.9434  133.7882  161.7339 C   0  0  0  0  0  0  0  0  0  0  0  0
  145.4996  134.0386  162.1989 C   0  0  0  0  0  0  0  0  0  0  0  0
  144.7645  132.8337  162.2148 O   0  0  0  0  0  0  0  0  0  0  0  0
  146.3784  136.4049  163.0608 H   0  0  0  0  0  0  0  0  0  0  0  0
  147.5872  137.6832  162.9694 H   0  0  0  0  0  0  0  0  0  0  0  0
  148.0637  136.0658  163.4826 H   0  0  0  0  0  0  0  0  0  0  0  0
  151.0821  137.8168  159.7182 H   0  0  0  0  0  0  0  0  0  0  0  0
  151.3226  137.2070  158.0987 H   0  0  0  0  0  0  0  0  0  0  0  0
  150.4538  140.4241  159.3807 H   0  0  0  0  0  0  0  0  0  0  0  0
  152.7841  141.6307  158.0625 H   0  0  0  0  0  0  0  0  0  0  0  0
  151.3996  142.5715  160.6142 H   0  0  0  0  0  0  0  0  0  0  0  0
  152.9380  141.7500  160.5204 H   0  0  0  0  0  0  0  0  0  0  0  0
  153.2110  144.2210  160.7472 H   0  0  0  0  0  0  0  0  0  0  0  0
  153.9178  143.6335  159.2604 H   0  0  0  0  0  0  0  0  0  0  0  0
  151.1827  144.9741  159.5464 H   0  0  0  0  0  0  0  0  0  0  0  0
  152.6024  145.6829  158.8145 H   0  0  0  0  0  0  0  0  0  0  0  0
  151.0324  144.8168  157.0875 H   0  0  0  0  0  0  0  0  0  0  0  0
  152.5756  144.0046  157.0045 H   0  0  0  0  0  0  0  0  0  0  0  0
  150.0515  142.9442  158.3340 H   0  0  0  0  0  0  0  0  0  0  0  0
  151.4907  141.9695  155.8190 H   0  0  0  0  0  0  0  0  0  0  0  0
  149.9790  142.8743  155.8536 H   0  0  0  0  0  0  0  0  0  0  0  0
  150.0431  141.2521  156.5149 H   0  0  0  0  0  0  0  0  0  0  0  0
  146.7536  133.2687  158.7800 H   0  0  0  0  0  0  0  0  0  0  0  0
  146.9732  132.8692  161.1478 H   0  0  0  0  0  0  0  0  0  0  0  0
  147.5888  133.5987  162.5911 H   0  0  0  0  0  0  0  0  0  0  0  0
  145.4735  134.5024  163.1853 H   0  0  0  0  0  0  0  0  0  0  0  0
  145.0040  134.7230  161.5102 H   0  0  0  0  0  0  0  0  0  0  0  0
  144.6744  132.5481  163.1112 H   0  0  0  0  0  0  0  0  0  0  0  0
  1  2  1  0  0  0  0
  1 24  1  0  0  0  0
  1 25  1  0  0  0  0
  1 26  1  0  0  0  0
  2 20  1  0  0  0  0
  2  3  2  0  0  0  0
  3  4  1  0  0  0  0
  4  5  1  0  0  0  0
  4 17  2  0  0  0  0
  5  6  1  0  0  0  0
  6  7  1  0  0  0  0
  6 27  1  0  0  0  0
  6 28  1  0  0  0  0
  7  8  2  0  0  0  0
  7  9  1  0  0  0  0
  9 10  1  0  0  0  0
  9 29  1  0  0  0  0
 10 15  1  0  0  0  0
 10 11  1  0  0  0  0
 10 30  1  0  0  0  0
 11 12  1  0  0  0  0
 11 31  1  0  0  0  0
 11 32  1  0  0  0  0
 12 13  1  0  0  0  0
 12 33  1  0  0  0  0
 12 34  1  0  0  0  0
 13 14  1  0  0  0  0
 13 35  1  0  0  0  0
 13 36  1  0  0  0  0
 14 15  1  0  0  0  0
 14 37  1  0  0  0  0
 14 38  1  0  0  0  0
 15 16  1  0  0  0  0
 15 39  1  0  0  0  0
 16 40  1  0  0  0  0
 16 41  1  0  0  0  0
 16 42  1  0  0  0  0
 17 18  1  0  0  0  0
 18 19  1  0  0  0  0
 18 20  2  0  0  0  0
 19 43  1  0  0  0  0
 20 21  1  0  0  0  0
 21 22  1  0  0  0  0
 21 44  1  0  0  0  0
 21 45  1  0  0  0  0
 22 23  1  0  0  0  0
 22 46  1  0  0  0  0
 22 47  1  0  0  0  0
 23 48  1  0  0  0  0
M  END
> <s_m_source_file>
AV-unprocessed.smi

> <i_m_source_file_index>
438

> <i_lp_mmshare_version>
43012

> <i_f3d_flags>
0

> <s_epik_input>
W09IXVtDSDJdW0NIMl1jMWMoW09IXSluYyhuYzFbQ0gzXSlTW0NIMl1DKD1PKVtOSF1bQ0BASF0yW0NIMl1bQ0gyXVtDSDJdW0NIMl1bQ0BIXTJbQ0gzXQ==

> <s_epik_cmdline>
J2VwaWtfcHl0aG9uJywgJy1waCcsICc3LjAnLCAnLXRuJywgJzgnLCAnLW1hJywgJzIwMCcsICctbWV0YWxfYmluZGluZycsICctaW1hZScsICc8aW5maWxlLm1hZT4nLCAnLW9tYWUnLCAnPG91dGZpbGUubWFlPic=

> <r_lp_tautomer_probability>
0.0660145

> <r_epik_Ionization_Penalty>
2.91405

> <r_epik_Ionization_Penalty_Charging>
0

> <r_epik_Ionization_Penalty_Neutral>
2.91405

> <r_epik_State_Penalty>
2.44767

> <r_epik_Charging_Adjusted_Penalty>
2.44767

> <i_epik_Tot_Q>
0

> <i_epik_Tot_abs_Q>
0

> <r_epik_Metal_State_Penalty>
3.04288

> <b_epik_Metal_Only>
0

> <s_lp_Force_Field>
OPLS_2005

> <r_lp_Energy>
1.00415

> <b_lp_Chiralities_Consistent>
1

> <s_lp_Variant>
AV-unprocessed.smi:438-13

> <Gold.Version>
5.8.1

> <Gold.Id.Protein>
6NUR|6NUR_protein|mol2

> <Gold.PLP.Fitness>
56.4137

> <Gold.PLP.PLP>
-51.0660

> <Gold.PLP.part.hbond>
-3.6992

> <Gold.PLP.part.metal>
0.0000

> <Gold.PLP.part.buried>
-6.0620

> <Gold.PLP.part.nonpolar>
-42.4450

> <Gold.PLP.part.repulsive>
0.1773

> <Gold.PLP.ligand.clash>
0.0000

> <Gold.PLP.ligand.torsion>
0.8108

> <Gold.PLP.Chemscore.Hbond>
2.2937

> <Gold.PLP.Chemscore.CHOScore>
0.0000

> <Gold.PLP.Chemscore.Metal>
0.0000

> <Gold.Chemscore.Hbonds>
donor molecule, donor type, donor heavy atom, donor atom, acceptor molecule, acceptor atom, score
      P1  H  6931  6943       L1     3  0.77
      P1  H  6934  6947       L1     3  0.57
      P1  H  7997  8009       L1     8  0.89

> <Gold.PLP.Chemscore.Internal.Correction>
0.0881

> <Gold.Rescore>
     Score         DG    S(hbond)    S(metal)    S(lipo)     H(rot)  DE(clash)    DE(int)     intcor
     15.61     -16.31       1.60        0.00     122.17       3.44       0.03       0.67       ----

> <Gold.Chemscore.Fitness>
15.6078

> <Gold.Chemscore.DG>
-16.3141

> <Gold.Chemscore.ZeroCoef>
-5.4800

> <Gold.Chemscore.Hbond>
1.5976

> <Gold.Chemscore.Metal>
0.0000

> <Gold.Chemscore.Lipo>
122.1709

> <Gold.Chemscore.Internal_Hbond>
0.0000

> <Gold.Chemscore.DEClash>
0.0339

> <Gold.Chemscore.DEInternal>
0.6724

> <Gold.Chemscore.Rot>
3.4359

> <Gold.Chemscore.Internal.Correction>
   9.000000E+99

> <Gold.Chemscore.Hbonds>
donor molecule, donor type, donor heavy atom, donor atom, acceptor molecule, acceptor atom, score
      P1  H  6931  6943       L1     3  0.20
      P1  H  6934  6947       L1     3  0.44
      P1  H  7997  8009       L1     8  0.86

> <Gold.Chemscore.Hbond.Weighted>
-5.3361

> <Gold.Chemscore.Metal.Weighted>
-0.0000

> <Gold.Chemscore.Lipo.Weighted>
-14.2940

> <Gold.Chemscore.Internal_Hbond.Weighted>
0.0000

> <Gold.Chemscore.DEClash.Weighted>
0.0339

> <Gold.Chemscore.DEInternal.Weighted>
0.6724

> <Gold.Chemscore.Rot.Weighted>
8.7960

> <Gold.Chemscore.Internal.Correction.Weighted>
   9.000000E+99

> <Gold.Protein.RotatedTorsions>
[ 6907 6896 6895 6894 ] final -117.92 input  -60.11 | X-H torsion
[ 7974 7965 7964 7962 ] final   83.80 input  175.53 | X-H torsion
[ 8008 7997 7996 7995 ] final  163.48 input   59.86 | X-H torsion
[ 10167 10162 10161 10158 ] final  -26.40 input  -65.29 | X-H torsion
[ 10718 10713 10712 10709 ] final -169.02 input   66.30 | X-H torsion
[ 10763 10752 10751 10750 ] final  -69.51 input  -60.55 | X-H torsion
[ 11005 11000 10999 10996 ] final -121.29 input  -57.11 | X-H torsion

> <Gold.Protein.ActiveResidues>
 VAL166  LYS551  ARG553  GLY616  TRP617  ASP618  TYR619  PRO620  LYS621  CYS622 
 ASP623  PHE694  ASN695  SER759  ASP760  ASP761  ALA762  ILE779  LEU786  VAL792 
 PHE793  MET794  SER795  GLU796  ALA797  LYS798  CYS799  TRP800  GLU811  SER814 

> <Gold.Protein.RotatedAtoms>
  150.8176  133.8309  159.3153 H   0  0  0  0  0  0  0  0  0  0  0  0  # atno 6907 bound_to 6896
  151.6077  135.1041  160.0083 H   0  0  0  0  0  0  0  0  0  0  0  0  # atno 6908 bound_to 6896
  152.4267  133.7166  159.6566 H   0  0  0  0  0  0  0  0  0  0  0  0  # atno 6909 bound_to 6896
  145.6071  139.2362  143.2213 H   0  0  0  0  0  0  0  0  0  0  0  0  # atno 7974 bound_to 7965
  156.1953  140.1722  156.8010 H   0  0  0  0  0  0  0  0  0  0  0  0  # atno 8008 bound_to 7997
  154.5522  140.0715  156.8717 H   0  0  0  0  0  0  0  0  0  0  0  0  # atno 8009 bound_to 7997
  155.3007  140.3361  155.4250 H   0  0  0  0  0  0  0  0  0  0  0  0  # atno 8010 bound_to 7997
  140.7283  143.4181  151.0995 H   0  0  0  0  0  0  0  0  0  0  0  0  # atno 10167 bound_to 10162
  156.7055  130.9213  151.3084 H   0  0  0  0  0  0  0  0  0  0  0  0  # atno 10718 bound_to 10713
  154.4044  135.6023  153.5916 H   0  0  0  0  0  0  0  0  0  0  0  0  # atno 10763 bound_to 10752
  152.9789  135.5914  154.4145 H   0  0  0  0  0  0  0  0  0  0  0  0  # atno 10764 bound_to 10752
  154.3948  135.2842  155.2111 H   0  0  0  0  0  0  0  0  0  0  0  0  # atno 10765 bound_to 10752
  141.0081  134.0305  157.3450 H   0  0  0  0  0  0  0  0  0  0  0  0  # atno 11005 bound_to 11000
  146.1532  140.6895  142.9312 LP  0  0  0  0  0  0  0  0  0  0  0  0  # atno 17320 bound_to 7965
  144.7285  140.4600  143.6955 LP  0  0  0  0  0  0  0  0  0  0  0  0  # atno 17321 bound_to 7965
  139.7824  143.8337  152.3139 LP  0  0  0  0  0  0  0  0  0  0  0  0  # atno 17342 bound_to 10162
  139.8292  144.7261  150.9472 LP  0  0  0  0  0  0  0  0  0  0  0  0  # atno 17343 bound_to 10162
  157.6956  130.9279  150.0637 LP  0  0  0  0  0  0  0  0  0  0  0  0  # atno 17370 bound_to 10713
  156.1698  130.3646  149.9181 LP  0  0  0  0  0  0  0  0  0  0  0  0  # atno 17371 bound_to 10713
  139.9074  135.0183  156.7547 LP  0  0  0  0  0  0  0  0  0  0  0  0  # atno 17394 bound_to 11000
  140.6779  133.9500  155.7893 LP  0  0  0  0  0  0  0  0  0  0  0  0  # atno 17395 bound_to 11000

$$$$
