AV-unprocessed.smi:415|AV-procd|sdf|2525|dock1
  -GOLD-   2262022483D 1   1.00000     0.00000
 Structure written by MMmdl.
 53 54  0  0  0  0  0  0  0  0  1 V2000
  147.2367  142.3599  158.4443 C   0  0  0  0  0  0  0  0  0  0  0  0
  146.2938  141.5255  159.0929 O   0  0  0  0  0  0  0  0  0  0  0  0
  145.0185  141.5623  158.4740 C   0  0  0  0  0  0  0  0  0  0  0  0
  145.0227  140.6491  157.2367 C   0  0  0  0  0  0  0  0  0  0  0  0
  146.0950  140.9518  156.3070 N   0  0  0  0  0  0  0  0  0  0  0  0
  146.0582  142.0165  155.4103 C   0  0  0  0  0  0  0  0  0  0  0  0
  144.9447  142.8358  155.3638 N   0  0  0  0  0  0  0  0  0  0  0  0
  147.0863  142.2638  154.5685 C   0  0  0  0  0  0  0  0  0  0  0  0
  148.2812  141.4314  154.5466 C   0  0  0  0  0  0  0  0  0  0  0  0
  149.2366  141.6540  153.8024 O   0  0  0  0  0  0  0  0  0  0  0  0
  148.2847  140.3393  155.4443 N   0  0  0  0  0  0  0  0  0  0  0  0
  149.4664  139.4500  155.4880 C   0  0  0  0  0  0  0  0  0  0  0  0
  150.7322  140.1588  155.9912 C   0  0  0  0  0  0  0  0  0  0  0  0
  151.7666  140.1525  155.3226 O   0  0  0  0  0  0  0  0  0  0  0  0
  150.6321  140.7601  157.1862 N   0  0  0  0  0  0  0  0  0  0  0  0
  151.7004  141.4993  157.8556 C   0  0  1  0  0  0  0  0  0  0  0  0
  151.3740  143.0079  157.8400 C   0  0  0  0  0  0  0  0  0  0  0  0
  152.4239  143.8296  158.6003 C   0  0  0  0  0  0  0  0  0  0  0  0
  152.5967  143.3144  160.0376 C   0  0  0  0  0  0  0  0  0  0  0  0
  152.9487  141.8134  160.0799 C   0  0  2  0  0  0  0  0  0  0  0  0
  154.4009  141.5568  159.6268 C   0  0  0  0  0  0  0  0  0  0  0  0
  151.8859  140.9864  159.3075 C   0  0  2  0  0  0  0  0  0  0  0  0
  152.1534  139.4701  159.3822 C   0  0  0  0  0  0  0  0  0  0  0  0
  147.2116  140.0776  156.3266 C   0  0  0  0  0  0  0  0  0  0  0  0
  147.2578  139.1108  157.0931 O   0  0  0  0  0  0  0  0  0  0  0  0
  148.1952  142.2970  158.9590 H   0  0  0  0  0  0  0  0  0  0  0  0
  146.9158  143.4024  158.4561 H   0  0  0  0  0  0  0  0  0  0  0  0
  147.3900  142.0520  157.4090 H   0  0  0  0  0  0  0  0  0  0  0  0
  144.2622  141.2140  159.1787 H   0  0  0  0  0  0  0  0  0  0  0  0
  144.7570  142.5857  158.2003 H   0  0  0  0  0  0  0  0  0  0  0  0
  145.1140  139.6005  157.5168 H   0  0  0  0  0  0  0  0  0  0  0  0
  144.0834  140.7104  156.6842 H   0  0  0  0  0  0  0  0  0  0  0  0
  144.1492  142.6834  155.9670 H   0  0  0  0  0  0  0  0  0  0  0  0
  144.9549  143.7077  154.8540 H   0  0  0  0  0  0  0  0  0  0  0  0
  147.0290  143.1008  153.8871 H   0  0  0  0  0  0  0  0  0  0  0  0
  149.2621  138.5811  156.1167 H   0  0  0  0  0  0  0  0  0  0  0  0
  149.6876  139.0205  154.5102 H   0  0  0  0  0  0  0  0  0  0  0  0
  149.7459  140.7100  157.6671 H   0  0  0  0  0  0  0  0  0  0  0  0
  152.6305  141.3338  157.3094 H   0  0  0  0  0  0  0  0  0  0  0  0
  151.3065  143.3695  156.8132 H   0  0  0  0  0  0  0  0  0  0  0  0
  150.3936  143.1758  158.2885 H   0  0  0  0  0  0  0  0  0  0  0  0
  153.3761  143.7904  158.0707 H   0  0  0  0  0  0  0  0  0  0  0  0
  152.1286  144.8789  158.6177 H   0  0  0  0  0  0  0  0  0  0  0  0
  153.3595  143.8977  160.5539 H   0  0  0  0  0  0  0  0  0  0  0  0
  151.6691  143.4803  160.5870 H   0  0  0  0  0  0  0  0  0  0  0  0
  152.8992  141.5099  161.1265 H   0  0  0  0  0  0  0  0  0  0  0  0
  154.5491  141.7793  158.5706 H   0  0  0  0  0  0  0  0  0  0  0  0
  154.6944  140.5201  159.7904 H   0  0  0  0  0  0  0  0  0  0  0  0
  155.0986  142.1753  160.1918 H   0  0  0  0  0  0  0  0  0  0  0  0
  150.9385  141.1497  159.8243 H   0  0  0  0  0  0  0  0  0  0  0  0
  153.0214  139.1853  158.7877 H   0  0  0  0  0  0  0  0  0  0  0  0
  151.3035  138.8956  159.0133 H   0  0  0  0  0  0  0  0  0  0  0  0
  152.3320  139.1537  160.4101 H   0  0  0  0  0  0  0  0  0  0  0  0
  1  2  1  0  0  0  0
  1 26  1  0  0  0  0
  1 27  1  0  0  0  0
  1 28  1  0  0  0  0
  2  3  1  0  0  0  0
  3  4  1  0  0  0  0
  3 29  1  0  0  0  0
  3 30  1  0  0  0  0
  4  5  1  0  0  0  0
  4 31  1  0  0  0  0
  4 32  1  0  0  0  0
  5 24  1  0  0  0  0
  5  6  1  0  0  0  0
  6  7  1  0  0  0  0
  6  8  2  0  0  0  0
  7 33  1  0  0  0  0
  7 34  1  0  0  0  0
  8  9  1  0  0  0  0
  8 35  1  0  0  0  0
  9 10  2  0  0  0  0
  9 11  1  0  0  0  0
 11 12  1  0  0  0  0
 11 24  1  0  0  0  0
 12 13  1  0  0  0  0
 12 36  1  0  0  0  0
 12 37  1  0  0  0  0
 13 14  2  0  0  0  0
 13 15  1  0  0  0  0
 15 16  1  0  0  0  0
 15 38  1  0  0  0  0
 16 22  1  0  0  0  0
 16 17  1  0  0  0  0
 16 39  1  0  0  0  0
 17 18  1  0  0  0  0
 17 40  1  0  0  0  0
 17 41  1  0  0  0  0
 18 19  1  0  0  0  0
 18 42  1  0  0  0  0
 18 43  1  0  0  0  0
 19 20  1  0  0  0  0
 19 44  1  0  0  0  0
 19 45  1  0  0  0  0
 20 21  1  0  0  0  0
 20 22  1  0  0  0  0
 20 46  1  0  0  0  0
 21 47  1  0  0  0  0
 21 48  1  0  0  0  0
 21 49  1  0  0  0  0
 22 23  1  0  0  0  0
 22 50  1  0  0  0  0
 23 51  1  0  0  0  0
 23 52  1  0  0  0  0
 23 53  1  0  0  0  0
 24 25  2  0  0  0  0
M  END
> <s_m_source_file>
AV-unprocessed.smi

> <i_m_source_file_index>
415

> <i_lp_mmshare_version>
43012

> <i_f3d_flags>
0

> <s_epik_input>
W0NIM11PW0NIMl1bQ0gyXW4xYyhbTkgyXSlbY0hdYyg9TyluKGMxPU8pW0NIMl1DKD1PKVtOSF1bQ0BASF0yW0NIMl1bQ0gyXVtDSDJdW0NAQEhdKFtDSDNdKVtDQEhdMltDSDNd

> <s_epik_cmdline>
J2VwaWtfcHl0aG9uJywgJy1waCcsICc3LjAnLCAnLXRuJywgJzgnLCAnLW1hJywgJzIwMCcsICctbWV0YWxfYmluZGluZycsICctaW1hZScsICc8aW5maWxlLm1hZT4nLCAnLW9tYWUnLCAnPG91dGZpbGUubWFlPic=

> <r_lp_tautomer_probability>
1

> <r_epik_Ionization_Penalty>
8.6647e-06

> <r_epik_Ionization_Penalty_Charging>
1.81162e-08

> <r_epik_Ionization_Penalty_Neutral>
8.64658e-06

> <r_epik_State_Penalty>
-0

> <r_epik_Charging_Adjusted_Penalty>
1.81162e-08

> <i_epik_Tot_Q>
0

> <i_epik_Tot_abs_Q>
0

> <r_epik_Metal_State_Penalty>
-0

> <b_epik_Metal_Only>
0

> <s_lp_Force_Field>
OPLS_2005

> <r_lp_Energy>
23.106

> <b_lp_Chiralities_Consistent>
1

> <s_lp_Variant>
AV-unprocessed.smi:415-8

> <Gold.Version>
5.8.1

> <Gold.Id.Protein>
6NUR|6NUR_protein|mol2

> <Gold.PLP.Fitness>
46.6349

> <Gold.PLP.PLP>
-40.4307

> <Gold.PLP.part.hbond>
-3.8026

> <Gold.PLP.part.metal>
0.0000

> <Gold.PLP.part.buried>
-6.0403

> <Gold.PLP.part.nonpolar>
-31.4376

> <Gold.PLP.part.repulsive>
0.8500

> <Gold.PLP.ligand.clash>
0.0000

> <Gold.PLP.ligand.torsion>
0.4997

> <Gold.PLP.Chemscore.Hbond>
2.3927

> <Gold.PLP.Chemscore.CHOScore>
0.0000

> <Gold.PLP.Chemscore.Metal>
0.0000

> <Gold.Chemscore.Hbonds>
donor molecule, donor type, donor heavy atom, donor atom, acceptor molecule, acceptor atom, score
      P1  H  6934  6946       L1     2  0.78
      P1  H  7989  7998       L1    14  0.88
      P1  H  8011  8017       L1    10  0.66

> <Gold.PLP.Chemscore.Internal.Correction>
0.0256

> <Gold.Rescore>
     Score         DG    S(hbond)    S(metal)    S(lipo)     H(rot)  DE(clash)    DE(int)     intcor
     17.70     -18.96       2.58        0.00      91.07       2.26       0.52       0.74       ----

> <Gold.Chemscore.Fitness>
17.7021

> <Gold.Chemscore.DG>
-18.9613

> <Gold.Chemscore.ZeroCoef>
-5.4800

> <Gold.Chemscore.Hbond>
2.5820

> <Gold.Chemscore.Metal>
0.0000

> <Gold.Chemscore.Lipo>
91.0664

> <Gold.Chemscore.Internal_Hbond>
0.0000

> <Gold.Chemscore.DEClash>
0.5228

> <Gold.Chemscore.DEInternal>
0.7365

> <Gold.Chemscore.Rot>
2.2645

> <Gold.Chemscore.Internal.Correction>
   9.000000E+99

> <Gold.Chemscore.Hbonds>
donor molecule, donor type, donor heavy atom, donor atom, acceptor molecule, acceptor atom, score
      P1  H  6934  6946       L1     2  0.66
      P1  H  7989  7998       L1    14  0.81
      P1  H  8011  8017       L1    10  0.66

> <Gold.Chemscore.Hbond.Weighted>
-8.6237

> <Gold.Chemscore.Metal.Weighted>
-0.0000

> <Gold.Chemscore.Lipo.Weighted>
-10.6548

> <Gold.Chemscore.Internal_Hbond.Weighted>
0.0000

> <Gold.Chemscore.DEClash.Weighted>
0.5228

> <Gold.Chemscore.DEInternal.Weighted>
0.7365

> <Gold.Chemscore.Rot.Weighted>
5.7972

> <Gold.Chemscore.Internal.Correction.Weighted>
   9.000000E+99

> <Gold.Protein.RotatedTorsions>
[ 6907 6896 6895 6894 ] final  -15.46 input  -60.11 | X-H torsion
[ 7974 7965 7964 7962 ] final  115.93 input  175.53 | X-H torsion
[ 8008 7997 7996 7995 ] final   50.63 input   59.86 | X-H torsion
[ 10167 10162 10161 10158 ] final -149.76 input  -65.29 | X-H torsion
[ 10718 10713 10712 10709 ] final -134.68 input   66.30 | X-H torsion
[ 10763 10752 10751 10750 ] final  -69.51 input  -60.55 | X-H torsion
[ 11005 11000 10999 10996 ] final -167.81 input  -57.11 | X-H torsion

> <Gold.Protein.ActiveResidues>
 VAL166  LYS551  ARG553  GLY616  TRP617  ASP618  TYR619  PRO620  LYS621  CYS622 
 ASP623  PHE694  ASN695  SER759  ASP760  ASP761  ALA762  ILE779  LEU786  VAL792 
 PHE793  MET794  SER795  GLU796  ALA797  LYS798  CYS799  TRP800  GLU811  SER814 

> <Gold.Protein.RotatedAtoms>
  151.3237  135.0825  159.9314 H   0  0  0  0  0  0  0  0  0  0  0  0  # atno 6907 bound_to 6896
  152.5251  133.9613  159.7729 H   0  0  0  0  0  0  0  0  0  0  0  0  # atno 6908 bound_to 6896
  150.9939  133.6070  159.2734 H   0  0  0  0  0  0  0  0  0  0  0  0  # atno 6909 bound_to 6896
  145.1859  139.3025  143.4394 H   0  0  0  0  0  0  0  0  0  0  0  0  # atno 7974 bound_to 7965
  155.4219  140.3447  155.4272 H   0  0  0  0  0  0  0  0  0  0  0  0  # atno 8008 bound_to 7997
  156.1388  140.1536  156.8984 H   0  0  0  0  0  0  0  0  0  0  0  0  # atno 8009 bound_to 7997
  154.4954  140.0829  156.7665 H   0  0  0  0  0  0  0  0  0  0  0  0  # atno 8010 bound_to 7997
  139.7414  143.8656  152.2563 H   0  0  0  0  0  0  0  0  0  0  0  0  # atno 10167 bound_to 10162
  156.2580  130.7193  151.1117 H   0  0  0  0  0  0  0  0  0  0  0  0  # atno 10718 bound_to 10713
  154.4044  135.6023  153.5916 H   0  0  0  0  0  0  0  0  0  0  0  0  # atno 10763 bound_to 10752
  152.9789  135.5914  154.4146 H   0  0  0  0  0  0  0  0  0  0  0  0  # atno 10764 bound_to 10752
  154.3949  135.2842  155.2110 H   0  0  0  0  0  0  0  0  0  0  0  0  # atno 10765 bound_to 10752
  140.5491  134.5446  157.5118 H   0  0  0  0  0  0  0  0  0  0  0  0  # atno 11005 bound_to 11000
  146.3445  140.2054  142.8589 LP  0  0  0  0  0  0  0  0  0  0  0  0  # atno 17320 bound_to 7965
  145.0090  140.8697  143.5236 LP  0  0  0  0  0  0  0  0  0  0  0  0  # atno 17321 bound_to 7965
  139.8608  144.7118  150.9102 LP  0  0  0  0  0  0  0  0  0  0  0  0  # atno 17342 bound_to 10162
  140.7786  143.3819  151.1461 LP  0  0  0  0  0  0  0  0  0  0  0  0  # atno 17343 bound_to 10162
  157.7240  131.0663  150.6014 LP  0  0  0  0  0  0  0  0  0  0  0  0  # atno 17370 bound_to 10713
  156.6099  130.4377  149.5863 LP  0  0  0  0  0  0  0  0  0  0  0  0  # atno 17371 bound_to 10713
  139.9464  134.7694  156.0551 LP  0  0  0  0  0  0  0  0  0  0  0  0  # atno 17394 bound_to 11000
  141.1182  133.6621  156.3148 LP  0  0  0  0  0  0  0  0  0  0  0  0  # atno 17395 bound_to 11000

$$$$
