AV-unprocessed.smi:283|AV-procd|sdf|2134|dock5
  -GOLD-   2262021453D 1   1.00000     0.00000
 Structure written by MMmdl.
 48 51  0  0  0  0  0  0  0  0  1 V2000
  150.9724  139.9501  158.1983 C   0  0  0  0  0  0  0  0  0  0  0  0
  151.8303  141.1129  157.6810 C   0  0  1  0  0  0  0  0  0  0  0  0
  151.2821  141.6023  156.4183 N   0  0  0  0  0  0  0  0  0  0  0  0
  150.4857  140.8359  155.6400 C   0  0  0  0  0  0  0  0  0  0  0  0
  151.1184  139.8517  154.9583 N   0  0  0  0  0  0  0  0  0  0  0  0
  150.4237  139.0286  154.1691 C   0  0  0  0  0  0  0  0  0  0  0  0
  149.1135  139.0189  153.9247 N   0  0  0  0  0  0  0  0  0  0  0  0
  148.4658  140.0138  154.5964 C   0  0  0  0  0  0  0  0  0  0  0  0
  149.0747  140.9638  155.4673 C   0  0  0  0  0  0  0  0  0  0  0  0
  148.0996  141.8274  155.9537 N   0  0  0  0  0  0  0  0  0  0  0  0
  146.9894  141.4012  155.4181 C   0  0  0  0  0  0  0  0  0  0  0  0
  147.1173  140.3136  154.5859 N   0  0  0  0  0  0  0  0  0  0  0  0
  146.0290  139.6235  153.8274 C   0  0  2  0  0  0  0  0  0  0  0  0
  145.2977  138.8331  154.7146 O   0  0  0  0  0  0  0  0  0  0  0  0
  145.0076  137.5959  154.0850 C   0  0  2  0  0  0  0  0  0  0  0  0
  144.5055  136.5140  155.0651 C   0  0  0  0  0  0  0  0  0  0  0  0
  143.3722  136.9057  155.8114 O   0  0  0  0  0  0  0  0  0  0  0  0
  146.1986  137.3102  153.1571 C   0  0  2  0  0  0  0  0  0  0  0  0
  147.2748  136.6652  153.8084 O   0  0  0  0  0  0  0  0  0  0  0  0
  146.6226  138.7138  152.7304 C   0  0  1  0  0  0  0  0  0  0  0  0
  146.0663  139.0166  151.4662 O   0  0  0  0  0  0  0  0  0  0  0  0
  151.9932  142.1781  158.7695 C   0  0  0  0  0  0  0  0  0  0  0  0
  152.4067  141.8056  160.0701 C   0  0  0  0  0  0  0  0  0  0  0  0
  152.5570  142.7735  161.0808 C   0  0  0  0  0  0  0  0  0  0  0  0
  152.3049  144.1282  160.7999 C   0  0  0  0  0  0  0  0  0  0  0  0
  151.9080  144.5129  159.5062 C   0  0  0  0  0  0  0  0  0  0  0  0
  151.7551  143.5480  158.4906 C   0  0  0  0  0  0  0  0  0  0  0  0
  151.2776  144.0807  156.9162 Cl  0  0  0  0  0  0  0  0  0  0  0  0
  145.4087  140.4326  153.4385 H   0  0  0  0  0  0  0  0  0  0  0  0
  144.1613  137.8170  153.4315 H   0  0  0  0  0  0  0  0  0  0  0  0
  145.9019  136.6838  152.3146 H   0  0  0  0  0  0  0  0  0  0  0  0
  147.7069  138.8242  152.6683 H   0  0  0  0  0  0  0  0  0  0  0  0
  151.4072  139.5093  159.0958 H   0  0  0  0  0  0  0  0  0  0  0  0
  150.8910  139.1588  157.4522 H   0  0  0  0  0  0  0  0  0  0  0  0
  149.9628  140.2807  158.4457 H   0  0  0  0  0  0  0  0  0  0  0  0
  152.8088  140.6999  157.4423 H   0  0  0  0  0  0  0  0  0  0  0  0
  151.7135  142.4460  156.0698 H   0  0  0  0  0  0  0  0  0  0  0  0
  150.9980  138.2669  153.6625 H   0  0  0  0  0  0  0  0  0  0  0  0
  146.0395  141.8775  155.6126 H   0  0  0  0  0  0  0  0  0  0  0  0
  144.2687  135.5993  154.5214 H   0  0  0  0  0  0  0  0  0  0  0  0
  145.2985  136.2645  155.7703 H   0  0  0  0  0  0  0  0  0  0  0  0
  143.6607  137.2178  156.6554 H   0  0  0  0  0  0  0  0  0  0  0  0
  147.9772  136.5522  153.1860 H   0  0  0  0  0  0  0  0  0  0  0  0
  145.2717  139.5104  151.5999 H   0  0  0  0  0  0  0  0  0  0  0  0
  152.6094  140.7708  160.3042 H   0  0  0  0  0  0  0  0  0  0  0  0
  152.8675  142.4758  162.0716 H   0  0  0  0  0  0  0  0  0  0  0  0
  152.4203  144.8723  161.5742 H   0  0  0  0  0  0  0  0  0  0  0  0
  151.7219  145.5551  159.2919 H   0  0  0  0  0  0  0  0  0  0  0  0
  1  2  1  0  0  0  0
  1 33  1  0  0  0  0
  1 34  1  0  0  0  0
  1 35  1  0  0  0  0
  2  3  1  0  0  0  0
  2 22  1  0  0  0  0
  2 36  1  0  0  0  0
  3  4  1  0  0  0  0
  3 37  1  0  0  0  0
  4  9  1  0  0  0  0
  4  5  2  0  0  0  0
  5  6  1  0  0  0  0
  6  7  2  0  0  0  0
  6 38  1  0  0  0  0
  7  8  1  0  0  0  0
  8 12  1  0  0  0  0
  8  9  2  0  0  0  0
  9 10  1  0  0  0  0
 10 11  2  0  0  0  0
 11 12  1  0  0  0  0
 11 39  1  0  0  0  0
 12 13  1  0  0  0  0
 13 29  1  0  0  0  0
 13 20  1  0  0  0  0
 13 14  1  0  0  0  0
 14 15  1  0  0  0  0
 15 30  1  0  0  0  0
 15 16  1  0  0  0  0
 15 18  1  0  0  0  0
 16 17  1  0  0  0  0
 16 40  1  0  0  0  0
 16 41  1  0  0  0  0
 17 42  1  0  0  0  0
 18 31  1  0  0  0  0
 18 19  1  0  0  0  0
 18 20  1  0  0  0  0
 19 43  1  0  0  0  0
 20 32  1  0  0  0  0
 20 21  1  0  0  0  0
 21 44  1  0  0  0  0
 22 27  1  0  0  0  0
 22 23  2  0  0  0  0
 23 24  1  0  0  0  0
 23 45  1  0  0  0  0
 24 25  2  0  0  0  0
 24 46  1  0  0  0  0
 25 26  1  0  0  0  0
 25 47  1  0  0  0  0
 26 27  2  0  0  0  0
 26 48  1  0  0  0  0
 27 28  1  0  0  0  0
M  END
> <s_m_source_file>
AV-unprocessed.smi

> <i_m_source_file_index>
283

> <i_lp_mmshare_version>
43012

> <i_f3d_flags>
0

> <s_epik_input>
Q2xjMVtjSF1bY0hdW2NIXVtjSF1jMVtDQEhdKFtDSDNdKVtOSF1jKG5bY0hdbjIpYyhjMjMpbltjSF1uM1tDQEBIXTRPW0NASF0oW0NIMl1bT0hdKVtDQEBIXShbT0hdKVtDQEhdNFtPSF0=

> <s_epik_cmdline>
J2VwaWtfcHl0aG9uJywgJy1waCcsICc3LjAnLCAnLXRuJywgJzgnLCAnLW1hJywgJzIwMCcsICctbWV0YWxfYmluZGluZycsICctaW1hZScsICc8aW5maWxlLm1hZT4nLCAnLW9tYWUnLCAnPG91dGZpbGUubWFlPic=

> <r_lp_tautomer_probability>
1

> <r_epik_Ionization_Penalty>
0.000266407

> <r_epik_Ionization_Penalty_Charging>
0

> <r_epik_Ionization_Penalty_Neutral>
0.000266407

> <r_epik_State_Penalty>
-0

> <r_epik_Charging_Adjusted_Penalty>
0

> <i_epik_Tot_Q>
0

> <i_epik_Tot_abs_Q>
0

> <r_epik_Metal_State_Penalty>
-0

> <b_epik_Metal_Only>
0

> <s_epik_Chemistry_Notes>
This compound contains an acetal/aminal-like group ( X-CH(R)-Y where X, Y are N, S, or O) that may be acid/base labile, releasing an aldehyde.

> <s_lp_Force_Field>
OPLS_2005

> <r_lp_Energy>
45.8165

> <b_lp_Chiralities_Consistent>
1

> <s_lp_Variant>
AV-unprocessed.smi:283-10

> <Gold.Version>
5.8.1

> <Gold.Id.Protein>
6NUR|6NUR_protein|mol2

> <Gold.PLP.Fitness>
46.4642

> <Gold.PLP.PLP>
-42.2148

> <Gold.PLP.part.hbond>
-4.0000

> <Gold.PLP.part.metal>
0.0000

> <Gold.PLP.part.buried>
-2.5137

> <Gold.PLP.part.nonpolar>
-37.8558

> <Gold.PLP.part.repulsive>
2.1376

> <Gold.PLP.ligand.clash>
0.0000

> <Gold.PLP.ligand.torsion>
1.5692

> <Gold.PLP.Chemscore.Hbond>
2.4400

> <Gold.PLP.Chemscore.CHOScore>
0.0000

> <Gold.PLP.Chemscore.Metal>
0.0000

> <Gold.Chemscore.Hbonds>
donor molecule, donor type, donor heavy atom, donor atom, acceptor molecule, acceptor atom, score
      L1  H    19    43       P1  7948  1.00
      L1  H    21    44       P1 10175  1.00
      P1  H  7989  7998       L1     5  0.49

> <Gold.PLP.Chemscore.Internal.Correction>
0.0679

> <Gold.Rescore>
     Score         DG    S(hbond)    S(metal)    S(lipo)     H(rot)  DE(clash)    DE(int)     intcor
      9.18     -14.04       1.97        0.00     106.64       4.10       0.05       4.80       ----

> <Gold.Chemscore.Fitness>
9.1842

> <Gold.Chemscore.DG>
-14.0387

> <Gold.Chemscore.ZeroCoef>
-5.4800

> <Gold.Chemscore.Hbond>
1.9670

> <Gold.Chemscore.Metal>
0.0000

> <Gold.Chemscore.Lipo>
106.6404

> <Gold.Chemscore.Internal_Hbond>
0.0000

> <Gold.Chemscore.DEClash>
0.0504

> <Gold.Chemscore.DEInternal>
4.8040

> <Gold.Chemscore.Rot>
4.0968

> <Gold.Chemscore.Internal.Correction>
   9.000000E+99

> <Gold.Chemscore.Hbonds>
donor molecule, donor type, donor heavy atom, donor atom, acceptor molecule, acceptor atom, score
      L1  H    19    43       P1  7948  1.00
      L1  H    21    44       P1 10175  0.65
      P1  H  7989  7998       L1     5  0.01

> <Gold.Chemscore.Hbond.Weighted>
-6.5697

> <Gold.Chemscore.Metal.Weighted>
-0.0000

> <Gold.Chemscore.Lipo.Weighted>
-12.4769

> <Gold.Chemscore.Internal_Hbond.Weighted>
0.0000

> <Gold.Chemscore.DEClash.Weighted>
0.0504

> <Gold.Chemscore.DEInternal.Weighted>
4.8040

> <Gold.Chemscore.Rot.Weighted>
10.4879

> <Gold.Chemscore.Internal.Correction.Weighted>
   9.000000E+99

> <Gold.Protein.RotatedTorsions>
[ 6907 6896 6895 6894 ] final -109.26 input  -60.11 | X-H torsion
[ 7974 7965 7964 7962 ] final  145.76 input  175.53 | X-H torsion
[ 8008 7997 7996 7995 ] final  -14.24 input   59.86 | X-H torsion
[ 10167 10162 10161 10158 ] final  136.04 input  -65.29 | X-H torsion
[ 10718 10713 10712 10709 ] final  -70.88 input   66.30 | X-H torsion
[ 10763 10752 10751 10750 ] final   67.18 input  -60.55 | X-H torsion
[ 11005 11000 10999 10996 ] final   83.34 input  -57.11 | X-H torsion

> <Gold.Protein.ActiveResidues>
 VAL166  LYS551  ARG553  GLY616  TRP617  ASP618  TYR619  PRO620  LYS621  CYS622 
 ASP623  PHE694  ASN695  SER759  ASP760  ASP761  ALA762  ILE779  LEU786  VAL792 
 PHE793  MET794  SER795  GLU796  ALA797  LYS798  CYS799  TRP800  GLU811  SER814 

> <Gold.Protein.RotatedAtoms>
  150.7551  133.9555  159.3498 H   0  0  0  0  0  0  0  0  0  0  0  0  # atno 6907 bound_to 6896
  151.7476  135.0838  160.0335 H   0  0  0  0  0  0  0  0  0  0  0  0  # atno 6908 bound_to 6896
  152.3487  133.6116  159.5965 H   0  0  0  0  0  0  0  0  0  0  0  0  # atno 6909 bound_to 6896
  144.8726  139.5823  143.5880 H   0  0  0  0  0  0  0  0  0  0  0  0  # atno 7974 bound_to 7965
  154.5226  140.2228  155.8948 H   0  0  0  0  0  0  0  0  0  0  0  0  # atno 8008 bound_to 7997
  156.1678  140.3128  155.8885 H   0  0  0  0  0  0  0  0  0  0  0  0  # atno 8009 bound_to 7997
  155.3619  140.0461  157.3037 H   0  0  0  0  0  0  0  0  0  0  0  0  # atno 8010 bound_to 7997
  139.5194  144.6485  151.5370 H   0  0  0  0  0  0  0  0  0  0  0  0  # atno 10167 bound_to 10162
  156.0388  130.4340  150.2361 H   0  0  0  0  0  0  0  0  0  0  0  0  # atno 10718 bound_to 10713
  153.0174  135.5293  154.6939 H   0  0  0  0  0  0  0  0  0  0  0  0  # atno 10763 bound_to 10752
  154.6066  135.2874  155.0480 H   0  0  0  0  0  0  0  0  0  0  0  0  # atno 10764 bound_to 10752
  154.1517  135.6562  153.5017 H   0  0  0  0  0  0  0  0  0  0  0  0  # atno 10765 bound_to 10752
  139.9034  134.8137  156.2296 H   0  0  0  0  0  0  0  0  0  0  0  0  # atno 11005 bound_to 11000
  146.2940  139.7224  142.9140 LP  0  0  0  0  0  0  0  0  0  0  0  0  # atno 17320 bound_to 7965
  145.4103  141.0395  143.3021 LP  0  0  0  0  0  0  0  0  0  0  0  0  # atno 17321 bound_to 7965
  140.6280  143.9130  150.6581 LP  0  0  0  0  0  0  0  0  0  0  0  0  # atno 17342 bound_to 10162
  140.2425  143.3653  152.1474 LP  0  0  0  0  0  0  0  0  0  0  0  0  # atno 17343 bound_to 10162
  157.0458  131.0048  151.3269 LP  0  0  0  0  0  0  0  0  0  0  0  0  # atno 17370 bound_to 10713
  157.5177  130.7978  149.7774 LP  0  0  0  0  0  0  0  0  0  0  0  0  # atno 17371 bound_to 10713
  141.0354  133.6966  156.1503 LP  0  0  0  0  0  0  0  0  0  0  0  0  # atno 17394 bound_to 11000
  140.7035  134.4539  157.5585 LP  0  0  0  0  0  0  0  0  0  0  0  0  # atno 17395 bound_to 11000

$$$$
