AV-unprocessed.smi:3259|AV-procd|sdf|12474|dock5
  -GOLD-   2272018373D 1   1.00000     0.00000
 Structure written by MMmdl.
 39 40  0  0  0  0  0  0  0  0  1 V2000
  152.4699  143.0543  161.9854 C   0  0  0  0  0  0  0  0  0  0  0  0
  151.8736  142.3198  160.9232 O   0  0  0  0  0  0  0  0  0  0  0  0
  152.4189  142.5018  159.6091 C   0  0  1  0  0  0  0  0  0  0  0  0
  153.9514  142.5399  159.6650 C   0  0  0  0  0  0  0  0  0  0  0  0
  151.7208  141.5614  158.6078 C   0  0  0  0  0  0  0  0  0  0  0  0
  150.6118  142.6075  158.5137 C   0  0  2  0  0  0  0  0  0  0  0  0
  150.0779  142.7399  157.1627 N   0  0  0  0  0  0  0  0  0  0  0  0
  149.7640  141.7074  156.3656 C   0  0  0  0  0  0  0  0  0  0  0  0
  149.8791  140.5304  156.7060 O   0  0  0  0  0  0  0  0  0  0  0  0
  149.2306  142.0546  154.9747 C   0  0  0  0  0  0  0  0  0  0  0  0
  148.5898  140.9091  154.3529 N   0  0  0  0  0  0  0  0  0  0  0  0
  147.4288  140.8751  153.6083 C   0  0  0  0  0  0  0  0  0  0  0  0
  147.2260  139.5791  153.2292 C   0  0  0  0  0  0  0  0  0  0  0  0
  148.3301  138.8842  153.7972 C   0  0  0  0  0  0  0  0  0  0  0  0
  149.1437  139.6822  154.4697 N   0  0  0  0  0  0  0  0  0  0  0  0
  151.6570  143.6795  158.9167 C   0  0  0  0  0  0  0  0  0  0  0  0
  151.1511  144.8002  159.8321 C   0  0  0  0  0  0  0  0  0  0  0  0
  152.4026  144.3843  157.7675 C   0  0  0  0  0  0  0  0  0  0  0  0
  152.0607  142.7033  162.9324 H   0  0  0  0  0  0  0  0  0  0  0  0
  152.2462  144.1183  161.9137 H   0  0  0  0  0  0  0  0  0  0  0  0
  153.5509  142.9253  162.0254 H   0  0  0  0  0  0  0  0  0  0  0  0
  154.3867  142.7883  158.6977 H   0  0  0  0  0  0  0  0  0  0  0  0
  154.3738  141.5756  159.9468 H   0  0  0  0  0  0  0  0  0  0  0  0
  154.3020  143.2825  160.3819 H   0  0  0  0  0  0  0  0  0  0  0  0
  152.2841  141.4358  157.6812 H   0  0  0  0  0  0  0  0  0  0  0  0
  151.3936  140.5983  158.9979 H   0  0  0  0  0  0  0  0  0  0  0  0
  149.8467  142.4508  159.2779 H   0  0  0  0  0  0  0  0  0  0  0  0
  149.9488  143.6762  156.8080 H   0  0  0  0  0  0  0  0  0  0  0  0
  148.5153  142.8760  155.0402 H   0  0  0  0  0  0  0  0  0  0  0  0
  150.0484  142.3926  154.3366 H   0  0  0  0  0  0  0  0  0  0  0  0
  146.8514  141.7661  153.4111 H   0  0  0  0  0  0  0  0  0  0  0  0
  146.4134  139.1874  152.6357 H   0  0  0  0  0  0  0  0  0  0  0  0
  148.5630  137.8311  153.7414 H   0  0  0  0  0  0  0  0  0  0  0  0
  150.5662  145.5364  159.2797 H   0  0  0  0  0  0  0  0  0  0  0  0
  151.9772  145.3265  160.3112 H   0  0  0  0  0  0  0  0  0  0  0  0
  150.5048  144.4210  160.6239 H   0  0  0  0  0  0  0  0  0  0  0  0
  151.7499  145.0692  157.2250 H   0  0  0  0  0  0  0  0  0  0  0  0
  152.7977  143.6777  157.0378 H   0  0  0  0  0  0  0  0  0  0  0  0
  153.2452  144.9693  158.1375 H   0  0  0  0  0  0  0  0  0  0  0  0
  1  2  1  0  0  0  0
  1 19  1  0  0  0  0
  1 20  1  0  0  0  0
  1 21  1  0  0  0  0
  2  3  1  0  0  0  0
  3 16  1  0  0  0  0
  3  4  1  0  0  0  0
  3  5  1  0  0  0  0
  4 22  1  0  0  0  0
  4 23  1  0  0  0  0
  4 24  1  0  0  0  0
  5  6  1  0  0  0  0
  5 25  1  0  0  0  0
  5 26  1  0  0  0  0
  6  7  1  0  0  0  0
  6 16  1  0  0  0  0
  6 27  1  0  0  0  0
  7  8  1  0  0  0  0
  7 28  1  0  0  0  0
  8  9  2  0  0  0  0
  8 10  1  0  0  0  0
 10 11  1  0  0  0  0
 10 29  1  0  0  0  0
 10 30  1  0  0  0  0
 11 15  1  0  0  0  0
 11 12  1  0  0  0  0
 12 13  2  0  0  0  0
 12 31  1  0  0  0  0
 13 14  1  0  0  0  0
 13 32  1  0  0  0  0
 14 15  2  0  0  0  0
 14 33  1  0  0  0  0
 16 17  1  0  0  0  0
 16 18  1  0  0  0  0
 17 34  1  0  0  0  0
 17 35  1  0  0  0  0
 17 36  1  0  0  0  0
 18 37  1  0  0  0  0
 18 38  1  0  0  0  0
 18 39  1  0  0  0  0
M  END
> <s_m_source_file>
AV-unprocessed.smi

> <i_m_source_file_index>
3259

> <i_lp_mmshare_version>
43012

> <i_f3d_flags>
0

> <s_epik_input>
W0NIM11PW0NAQF0xKFtDSDNdKVtDSDJdW0NASF0oQzEoW0NIM10pW0NIM10pW05IXUMoPU8pW0NIMl1uMltjSF1bY0hdW2NIXW4y

> <s_epik_cmdline>
J2VwaWtfcHl0aG9uJywgJy1waCcsICc3LjAnLCAnLXRuJywgJzgnLCAnLW1hJywgJzIwMCcsICctbWV0YWxfYmluZGluZycsICctaW1hZScsICc8aW5maWxlLm1hZT4nLCAnLW9tYWUnLCAnPG91dGZpbGUubWFlPic=

> <r_lp_tautomer_probability>
1

> <r_epik_Ionization_Penalty>
1.78399e-05

> <r_epik_Ionization_Penalty_Charging>
0

> <r_epik_Ionization_Penalty_Neutral>
1.78399e-05

> <r_epik_State_Penalty>
-0

> <r_epik_Charging_Adjusted_Penalty>
0

> <i_epik_Tot_Q>
0

> <i_epik_Tot_abs_Q>
0

> <r_epik_Metal_State_Penalty>
-0

> <b_epik_Metal_Only>
0

> <s_lp_Force_Field>
OPLS_2005

> <r_lp_Energy>
23.5096

> <b_lp_Chiralities_Consistent>
1

> <s_lp_Variant>
AV-unprocessed.smi:3259-3

> <Gold.Version>
5.8.1

> <Gold.Id.Protein>
6NUR|6NUR_protein|mol2

> <Gold.PLP.Fitness>
43.4346

> <Gold.PLP.PLP>
-39.1774

> <Gold.PLP.part.hbond>
-2.0000

> <Gold.PLP.part.metal>
0.0000

> <Gold.PLP.part.buried>
-1.4000

> <Gold.PLP.part.nonpolar>
-35.4237

> <Gold.PLP.part.repulsive>
0.2085

> <Gold.PLP.ligand.clash>
0.0000

> <Gold.PLP.ligand.torsion>
0.9940

> <Gold.PLP.Chemscore.Hbond>
0.9568

> <Gold.PLP.Chemscore.CHOScore>
1.0000

> <Gold.PLP.Chemscore.Metal>
0.0000

> <Gold.Chemscore.Hbonds>
donor molecule, donor type, donor heavy atom, donor atom, acceptor molecule, acceptor atom, score
      L1  H     7    28       P1  8028  0.88
      P1  H  6933  6945       L1     2  0.07
      L1  C    14    33       P1  7948  1.00

> <Gold.PLP.Chemscore.Internal.Correction>
0.3747

> <Gold.Rescore>
     Score         DG    S(hbond)    S(metal)    S(lipo)     H(rot)  DE(clash)    DE(int)     intcor
     13.46     -17.54       1.00        0.00     109.41       1.60       0.03       4.05       ----

> <Gold.Chemscore.Fitness>
13.4631

> <Gold.Chemscore.DG>
-17.5385

> <Gold.Chemscore.ZeroCoef>
-5.4800

> <Gold.Chemscore.Hbond>
1.0010

> <Gold.Chemscore.Metal>
0.0000

> <Gold.Chemscore.Lipo>
109.4140

> <Gold.Chemscore.Internal_Hbond>
0.0000

> <Gold.Chemscore.DEClash>
0.0289

> <Gold.Chemscore.DEInternal>
4.0465

> <Gold.Chemscore.Rot>
1.5962

> <Gold.Chemscore.Internal.Correction>
   9.000000E+99

> <Gold.Chemscore.Hbonds>
donor molecule, donor type, donor heavy atom, donor atom, acceptor molecule, acceptor atom, score
      L1  H     7    28       P1  8028  0.86

> <Gold.Chemscore.Hbond.Weighted>
-3.3432

> <Gold.Chemscore.Metal.Weighted>
-0.0000

> <Gold.Chemscore.Lipo.Weighted>
-12.8014

> <Gold.Chemscore.Internal_Hbond.Weighted>
0.0000

> <Gold.Chemscore.DEClash.Weighted>
0.0289

> <Gold.Chemscore.DEInternal.Weighted>
4.0465

> <Gold.Chemscore.Rot.Weighted>
4.0862

> <Gold.Chemscore.Internal.Correction.Weighted>
   9.000000E+99

> <Gold.Protein.RotatedTorsions>
[ 6907 6896 6895 6894 ] final   52.86 input  -60.11 | X-H torsion
[ 7974 7965 7964 7962 ] final -130.06 input  175.53 | X-H torsion
[ 8008 7997 7996 7995 ] final -120.57 input   59.86 | X-H torsion
[ 10167 10162 10161 10158 ] final -110.30 input  -65.29 | X-H torsion
[ 10718 10713 10712 10709 ] final   95.80 input   66.30 | X-H torsion
[ 10763 10752 10751 10750 ] final  155.19 input  -60.55 | X-H torsion
[ 11005 11000 10999 10996 ] final  158.12 input  -57.11 | X-H torsion

> <Gold.Protein.ActiveResidues>
 VAL166  LYS551  ARG553  GLY616  TRP617  ASP618  TYR619  PRO620  LYS621  CYS622 
 ASP623  PHE694  ASN695  SER759  ASP760  ASP761  ALA762  ILE779  LEU786  VAL792 
 PHE793  MET794  SER795  GLU796  ALA797  LYS798  CYS799  TRP800  GLU811  SER814 

> <Gold.Protein.RotatedAtoms>
  152.3276  134.7300  160.0297 H   0  0  0  0  0  0  0  0  0  0  0  0  # atno 6907 bound_to 6896
  151.7727  133.3337  159.3457 H   0  0  0  0  0  0  0  0  0  0  0  0  # atno 6908 bound_to 6896
  150.7405  134.5935  159.6044 H   0  0  0  0  0  0  0  0  0  0  0  0  # atno 6909 bound_to 6896
  144.9511  140.7346  143.4787 H   0  0  0  0  0  0  0  0  0  0  0  0  # atno 7974 bound_to 7965
  155.1339  140.0400  157.2782 H   0  0  0  0  0  0  0  0  0  0  0  0  # atno 8008 bound_to 7997
  154.6522  140.2572  155.7175 H   0  0  0  0  0  0  0  0  0  0  0  0  # atno 8009 bound_to 7997
  156.2582  140.2834  156.0960 H   0  0  0  0  0  0  0  0  0  0  0  0  # atno 8010 bound_to 7997
  140.1459  143.4239  152.1529 H   0  0  0  0  0  0  0  0  0  0  0  0  # atno 10167 bound_to 10162
  157.6934  131.0557  150.4394 H   0  0  0  0  0  0  0  0  0  0  0  0  # atno 10718 bound_to 10713
  154.1644  135.2808  155.3099 H   0  0  0  0  0  0  0  0  0  0  0  0  # atno 10763 bound_to 10752
  154.6122  135.5495  153.7489 H   0  0  0  0  0  0  0  0  0  0  0  0  # atno 10764 bound_to 10752
  153.0183  135.6418  154.1786 H   0  0  0  0  0  0  0  0  0  0  0  0  # atno 10765 bound_to 10752
  140.1835  134.8459  157.2830 H   0  0  0  0  0  0  0  0  0  0  0  0  # atno 11005 bound_to 11000
  145.2842  139.1907  143.4775 LP  0  0  0  0  0  0  0  0  0  0  0  0  # atno 17320 bound_to 7965
  146.3321  140.2809  142.8610 LP  0  0  0  0  0  0  0  0  0  0  0  0  # atno 17321 bound_to 7965
  139.5449  144.7289  151.4615 LP  0  0  0  0  0  0  0  0  0  0  0  0  # atno 17342 bound_to 10162
  140.6732  143.8248  150.7025 LP  0  0  0  0  0  0  0  0  0  0  0  0  # atno 17343 bound_to 10162
  156.4754  130.4062  149.6493 LP  0  0  0  0  0  0  0  0  0  0  0  0  # atno 17370 bound_to 10713
  156.3558  130.7456  151.2421 LP  0  0  0  0  0  0  0  0  0  0  0  0  # atno 17371 bound_to 10713
  140.2240  134.3988  155.7552 LP  0  0  0  0  0  0  0  0  0  0  0  0  # atno 17394 bound_to 11000
  141.2224  133.7181  156.8536 LP  0  0  0  0  0  0  0  0  0  0  0  0  # atno 17395 bound_to 11000

$$$$
