AV-unprocessed.smi:1047|AV-procd|sdf|4576|dock9
  -GOLD-   22720 3 43D 1   1.00000     0.00000
 Structure written by MMmdl.
 56 58  0  0  0  0  0  0  0  0  2 V2000
  141.0822  145.6022  153.7658 C   0  0  0  0  0  0  0  0  0  0  0  0
  141.9016  144.9203  154.8705 C   0  0  0  0  0  0  0  0  0  0  0  0
  143.0775  144.1884  154.3371 N   0  3  1  0  0  0  0  0  0  0  0  0
  144.0151  145.0479  153.5729 C   0  0  0  0  0  0  0  0  0  0  0  0
  145.1765  144.2103  153.0121 C   0  0  0  0  0  0  0  0  0  0  0  0
  145.8470  143.5410  154.0728 O   0  0  0  0  0  0  0  0  0  0  0  0
  144.9852  142.6582  154.7841 C   0  0  1  0  0  0  0  0  0  0  0  0
  145.8115  141.8760  155.8190 C   0  0  0  0  0  0  0  0  0  0  0  0
  146.9500  141.1929  155.2100 N   0  0  0  0  0  0  0  0  0  0  0  0
  148.2380  141.6504  155.7224 C   0  0  0  0  0  0  0  0  0  0  0  0
  149.4064  141.0297  154.9321 C   0  0  1  0  0  0  0  0  0  0  0  0
  149.1977  141.2815  153.5582 O   0  0  0  0  0  0  0  0  0  0  0  0
  150.7828  141.6170  155.3014 C   0  0  0  0  0  0  0  0  0  0  0  0
  151.2189  141.2263  156.6300 N   0  0  0  0  0  0  0  0  0  0  0  0
  151.4397  139.9735  157.0719 C   0  0  0  0  0  0  0  0  0  0  0  0
  151.8324  139.8335  158.3345 N   0  0  0  0  0  0  0  0  0  0  0  0
  151.8768  141.1498  158.7605 C   0  0  0  0  0  0  0  0  0  0  0  0
  152.2207  141.6955  160.0167 C   0  0  0  0  0  0  0  0  0  0  0  0
  152.1937  143.0918  160.2323 C   0  0  0  0  0  0  0  0  0  0  0  0
  152.5712  143.6351  161.5990 C   0  0  0  0  0  0  0  0  0  0  0  0
  151.8179  143.9661  159.1809 C   0  0  0  0  0  0  0  0  0  0  0  0
  151.7832  145.4700  159.3885 C   0  0  0  0  0  0  0  0  0  0  0  0
  151.4700  143.4375  157.9203 C   0  0  0  0  0  0  0  0  0  0  0  0
  151.5012  142.0463  157.7176 C   0  0  0  0  0  0  0  0  0  0  0  0
  143.8056  143.4455  155.3929 C   0  0  0  0  0  0  0  0  0  0  0  0
  140.1793  146.0509  154.1806 H   0  0  0  0  0  0  0  0  0  0  0  0
  140.7734  144.8854  153.0045 H   0  0  0  0  0  0  0  0  0  0  0  0
  141.6401  146.3984  153.2742 H   0  0  0  0  0  0  0  0  0  0  0  0
  142.2198  145.6475  155.6187 H   0  0  0  0  0  0  0  0  0  0  0  0
  141.2466  144.2149  155.3835 H   0  0  0  0  0  0  0  0  0  0  0  0
  143.4984  145.5386  152.7491 H   0  0  0  0  0  0  0  0  0  0  0  0
  144.4032  145.8348  154.2217 H   0  0  0  0  0  0  0  0  0  0  0  0
  144.8158  143.4867  152.2795 H   0  0  0  0  0  0  0  0  0  0  0  0
  145.8890  144.8550  152.4971 H   0  0  0  0  0  0  0  0  0  0  0  0
  144.5871  141.9304  154.0743 H   0  0  0  0  0  0  0  0  0  0  0  0
  146.1625  142.5598  156.5929 H   0  0  0  0  0  0  0  0  0  0  0  0
  145.1666  141.1512  156.3172 H   0  0  0  0  0  0  0  0  0  0  0  0
  146.8629  140.1919  155.3560 H   0  0  0  0  0  0  0  0  0  0  0  0
  148.2998  142.7395  155.7056 H   0  0  0  0  0  0  0  0  0  0  0  0
  148.3110  141.3574  156.7694 H   0  0  0  0  0  0  0  0  0  0  0  0
  149.4317  139.9502  155.0878 H   0  0  0  0  0  0  0  0  0  0  0  0
  149.2366  140.4585  153.0951 H   0  0  0  0  0  0  0  0  0  0  0  0
  151.5381  141.2857  154.5872 H   0  0  0  0  0  0  0  0  0  0  0  0
  150.7609  142.7062  155.2464 H   0  0  0  0  0  0  0  0  0  0  0  0
  151.2992  139.1154  156.4307 H   0  0  0  0  0  0  0  0  0  0  0  0
  152.5063  141.0292  160.8173 H   0  0  0  0  0  0  0  0  0  0  0  0
  153.4331  144.2980  161.5216 H   0  0  0  0  0  0  0  0  0  0  0  0
  152.8284  142.8316  162.2899 H   0  0  0  0  0  0  0  0  0  0  0  0
  151.7410  144.1944  162.0307 H   0  0  0  0  0  0  0  0  0  0  0  0
  151.4899  145.9908  158.4766 H   0  0  0  0  0  0  0  0  0  0  0  0
  152.7666  145.8387  159.6814 H   0  0  0  0  0  0  0  0  0  0  0  0
  151.0678  145.7318  160.1684 H   0  0  0  0  0  0  0  0  0  0  0  0
  151.1790  144.0924  157.1123 H   0  0  0  0  0  0  0  0  0  0  0  0
  144.1593  144.1522  156.1452 H   0  0  0  0  0  0  0  0  0  0  0  0
  143.1258  142.7559  155.8951 H   0  0  0  0  0  0  0  0  0  0  0  0
  142.7205  143.4943  153.6961 H   0  0  0  0  0  0  0  0  0  0  0  0
  1  2  1  0  0  0  0
  1 26  1  0  0  0  0
  1 27  1  0  0  0  0
  1 28  1  0  0  0  0
  2  3  1  0  0  0  0
  2 29  1  0  0  0  0
  2 30  1  0  0  0  0
  3 25  1  0  0  0  0
  3  4  1  0  0  0  0
  3 56  1  0  0  0  0
  4  5  1  0  0  0  0
  4 31  1  0  0  0  0
  4 32  1  0  0  0  0
  5  6  1  0  0  0  0
  5 33  1  0  0  0  0
  5 34  1  0  0  0  0
  6  7  1  0  0  0  0
  7  8  1  0  0  0  0
  7 25  1  0  0  0  0
  7 35  1  0  0  0  0
  8  9  1  0  0  0  0
  8 36  1  0  0  0  0
  8 37  1  0  0  0  0
  9 10  1  0  0  0  0
  9 38  1  0  0  0  0
 10 11  1  0  0  0  0
 10 39  1  0  0  0  0
 10 40  1  0  0  0  0
 11 12  1  0  0  0  0
 11 13  1  0  0  0  0
 11 41  1  0  0  0  0
 12 42  1  0  0  0  0
 13 14  1  0  0  0  0
 13 43  1  0  0  0  0
 13 44  1  0  0  0  0
 14 24  1  0  0  0  0
 14 15  1  0  0  0  0
 15 16  2  0  0  0  0
 15 45  1  0  0  0  0
 16 17  1  0  0  0  0
 17 24  2  0  0  0  0
 17 18  1  0  0  0  0
 18 19  2  0  0  0  0
 18 46  1  0  0  0  0
 19 20  1  0  0  0  0
 19 21  1  0  0  0  0
 20 47  1  0  0  0  0
 20 48  1  0  0  0  0
 20 49  1  0  0  0  0
 21 22  1  0  0  0  0
 21 23  2  0  0  0  0
 22 50  1  0  0  0  0
 22 51  1  0  0  0  0
 22 52  1  0  0  0  0
 23 24  1  0  0  0  0
 23 53  1  0  0  0  0
 25 54  1  0  0  0  0
 25 55  1  0  0  0  0
M  CHG  1   3   1
M  END
> <s_m_source_file>
AV-unprocessed.smi

> <i_m_source_file_index>
1047

> <i_lp_mmshare_version>
43012

> <i_f3d_flags>
0

> <s_epik_input>
W0NIM11bQ0gyXU4xW0NIMl1bQ0gyXU9bQ0BIXShbQ0gyXTEpW0NIMl1bTkhdW0NIMl1bQ0BIXShbT0hdKVtDSDJdbihbY0hdbjIpYyhjMjMpW2NIXWMoW0NIM10pYyhbY0hdMylbQ0gzXQ==

> <s_epik_cmdline>
J2VwaWtfcHl0aG9uJywgJy1waCcsICc3LjAnLCAnLXRuJywgJzgnLCAnLW1hJywgJzIwMCcsICctbWV0YWxfYmluZGluZycsICctaW1hZScsICc8aW5maWxlLm1hZT4nLCAnLW9tYWUnLCAnPG91dGZpbGUubWFlPic=

> <r_epik_Ionization_Penalty>
1.19246

> <r_epik_Ionization_Penalty_Charging>
0.210041

> <r_epik_Ionization_Penalty_Neutral>
0.982415

> <r_epik_State_Penalty>
1.57595

> <r_epik_Charging_Adjusted_Penalty>
1.78599

> <i_epik_Tot_Q>
1

> <i_epik_Tot_abs_Q>
1

> <r_epik_Metal_State_Penalty>
1.46172

> <b_epik_Metal_Only>
0

> <s_lp_Force_Field>
OPLS_2005

> <r_lp_Energy>
33.3203

> <b_lp_Chiralities_Consistent>
1

> <s_lp_Variant>
AV-unprocessed.smi:1047-17

> <Gold.Version>
5.8.1

> <Gold.Id.Protein>
6NUR|6NUR_protein|mol2

> <Gold.PLP.Fitness>
59.2190

> <Gold.PLP.PLP>
-49.3116

> <Gold.PLP.part.hbond>
-4.1787

> <Gold.PLP.part.metal>
0.0000

> <Gold.PLP.part.buried>
-1.8700

> <Gold.PLP.part.nonpolar>
-42.6856

> <Gold.PLP.part.repulsive>
0.2793

> <Gold.PLP.ligand.clash>
0.0000

> <Gold.PLP.ligand.torsion>
0.4799

> <Gold.PLP.Chemscore.Hbond>
3.5840

> <Gold.PLP.Chemscore.CHOScore>
0.0000

> <Gold.PLP.Chemscore.Metal>
0.0000

> <Gold.Chemscore.Hbonds>
donor molecule, donor type, donor heavy atom, donor atom, acceptor molecule, acceptor atom, score
      L1  H     3    56       P1 10174  2.00
      L1  H    12    42       P1  7957  0.62
      P1  H  8011  8017       L1    12  0.94

> <Gold.PLP.Chemscore.Internal.Correction>
0.1153

> <Gold.Rescore>
     Score         DG    S(hbond)    S(metal)    S(lipo)     H(rot)  DE(clash)    DE(int)     intcor
     18.99     -22.22       1.88        0.00     146.81       2.62       2.75       0.48       ----

> <Gold.Chemscore.Fitness>
18.9885

> <Gold.Chemscore.DG>
-22.2165

> <Gold.Chemscore.ZeroCoef>
-5.4800

> <Gold.Chemscore.Hbond>
1.8770

> <Gold.Chemscore.Metal>
0.0000

> <Gold.Chemscore.Lipo>
146.8115

> <Gold.Chemscore.Internal_Hbond>
0.0000

> <Gold.Chemscore.DEClash>
2.7509

> <Gold.Chemscore.DEInternal>
0.4771

> <Gold.Chemscore.Rot>
2.6209

> <Gold.Chemscore.Internal.Correction>
   9.000000E+99

> <Gold.Chemscore.Hbonds>
donor molecule, donor type, donor heavy atom, donor atom, acceptor molecule, acceptor atom, score
      L1  H     3    56       P1 10174  0.98
      L1  H    12    42       P1  7957  0.59
      P1  H  8011  8017       L1    12  0.32

> <Gold.Chemscore.Hbond.Weighted>
-6.2692

> <Gold.Chemscore.Metal.Weighted>
-0.0000

> <Gold.Chemscore.Lipo.Weighted>
-17.1770

> <Gold.Chemscore.Internal_Hbond.Weighted>
0.0000

> <Gold.Chemscore.DEClash.Weighted>
2.7509

> <Gold.Chemscore.DEInternal.Weighted>
0.4771

> <Gold.Chemscore.Rot.Weighted>
6.7096

> <Gold.Chemscore.Internal.Correction.Weighted>
   9.000000E+99

> <Gold.Protein.RotatedTorsions>
[ 6907 6896 6895 6894 ] final  -89.26 input  -60.11 | X-H torsion
[ 7974 7965 7964 7962 ] final  102.24 input  175.53 | X-H torsion
[ 8008 7997 7996 7995 ] final -112.69 input   59.86 | X-H torsion
[ 10167 10162 10161 10158 ] final -126.71 input  -65.29 | X-H torsion
[ 10718 10713 10712 10709 ] final -100.93 input   66.30 | X-H torsion
[ 10763 10752 10751 10750 ] final  -64.84 input  -60.55 | X-H torsion
[ 11005 11000 10999 10996 ] final  117.67 input  -57.11 | X-H torsion

> <Gold.Protein.ActiveResidues>
 VAL166  LYS551  ARG553  GLY616  TRP617  ASP618  TYR619  PRO620  LYS621  CYS622 
 ASP623  PHE694  ASN695  SER759  ASP760  ASP761  ALA762  ILE779  LEU786  VAL792 
 PHE793  MET794  SER795  GLU796  ALA797  LYS798  CYS799  TRP800  GLU811  SER814 

> <Gold.Protein.RotatedAtoms>
  150.6873  134.2615  159.4550 H   0  0  0  0  0  0  0  0  0  0  0  0  # atno 6907 bound_to 6896
  152.0544  134.9631  160.0584 H   0  0  0  0  0  0  0  0  0  0  0  0  # atno 6908 bound_to 6896
  152.1082  133.4251  159.4655 H   0  0  0  0  0  0  0  0  0  0  0  0  # atno 6909 bound_to 6896
  145.3617  139.2416  143.3503 H   0  0  0  0  0  0  0  0  0  0  0  0  # atno 7974 bound_to 7965
  155.0091  140.0393  157.2392 H   0  0  0  0  0  0  0  0  0  0  0  0  # atno 8008 bound_to 7997
  154.7476  140.2761  155.6297 H   0  0  0  0  0  0  0  0  0  0  0  0  # atno 8009 bound_to 7997
  156.2878  140.2653  156.2221 H   0  0  0  0  0  0  0  0  0  0  0  0  # atno 8010 bound_to 7997
  139.9685  143.5871  152.2421 H   0  0  0  0  0  0  0  0  0  0  0  0  # atno 10167 bound_to 10162
  156.0178  130.5350  150.6889 H   0  0  0  0  0  0  0  0  0  0  0  0  # atno 10718 bound_to 10713
  154.3361  135.6166  153.5574 H   0  0  0  0  0  0  0  0  0  0  0  0  # atno 10763 bound_to 10752
  152.9807  135.5758  154.4907 H   0  0  0  0  0  0  0  0  0  0  0  0  # atno 10764 bound_to 10752
  154.4602  135.2855  155.1695 H   0  0  0  0  0  0  0  0  0  0  0  0  # atno 10765 bound_to 10752
  139.9082  134.9612  156.7386 H   0  0  0  0  0  0  0  0  0  0  0  0  # atno 11005 bound_to 11000
  146.2924  140.4252  142.8734 LP  0  0  0  0  0  0  0  0  0  0  0  0  # atno 17320 bound_to 7965
  144.8642  140.7182  143.6088 LP  0  0  0  0  0  0  0  0  0  0  0  0  # atno 17321 bound_to 7965
  139.6499  144.7660  151.2169 LP  0  0  0  0  0  0  0  0  0  0  0  0  # atno 17342 bound_to 10162
  140.7530  143.6178  150.8542 LP  0  0  0  0  0  0  0  0  0  0  0  0  # atno 17343 bound_to 10162
  157.4575  131.0879  151.0781 LP  0  0  0  0  0  0  0  0  0  0  0  0  # atno 17370 bound_to 10713
  157.1278  130.6089  149.5521 LP  0  0  0  0  0  0  0  0  0  0  0  0  # atno 17371 bound_to 10713
  140.6868  133.9426  155.7942 LP  0  0  0  0  0  0  0  0  0  0  0  0  # atno 17394 bound_to 11000
  141.0471  134.0539  157.3831 LP  0  0  0  0  0  0  0  0  0  0  0  0  # atno 17395 bound_to 11000

$$$$
