AV-unprocessed.smi:2858|AV-procd|sdf|11003|dock10
  -GOLD-   2272015463D 1   1.00000     0.00000
 Structure written by MMmdl.
 39 40  0  0  0  0  0  0  0  0  3 V2000
  145.8204  134.9181  154.5497 O   0  0  0  0  0  0  0  0  0  0  0  0
  147.0019  134.6115  154.4065 C   0  0  0  0  0  0  0  0  0  0  0  0
  148.0567  135.6027  154.9694 C   0  0  0  0  0  0  0  0  0  0  0  0
  149.4041  135.4022  154.3611 N   0  3  1  0  0  0  0  0  0  0  0  0
  150.4480  136.2892  154.9347 C   0  0  0  0  0  0  0  0  0  0  0  0
  150.1001  137.7818  154.8038 C   0  0  0  0  0  0  0  0  0  0  0  0
  151.3539  138.6716  154.7664 C   0  0  0  0  0  0  0  0  0  0  0  0
  151.1212  139.9617  155.4058 N   0  0  0  0  0  0  0  0  0  0  0  0
  151.6630  140.3519  156.5688 C   0  0  0  0  0  0  0  0  0  0  0  0
  152.4320  139.6496  157.2261 O   0  0  0  0  0  0  0  0  0  0  0  0
  151.2543  141.5876  156.9074 N   0  0  0  0  0  0  0  0  0  0  0  0
  151.6246  142.3540  158.0447 C   0  0  0  0  0  0  0  0  0  0  0  0
  151.2571  143.7177  157.9932 C   0  0  0  0  0  0  0  0  0  0  0  0
  151.5822  144.5640  159.0711 C   0  0  0  0  0  0  0  0  0  0  0  0
  152.2671  144.0241  160.1743 C   0  0  0  0  0  0  0  0  0  0  0  0
  152.5967  142.6566  160.1454 C   0  0  0  0  0  0  0  0  0  0  0  0
  152.2869  141.8438  159.1131 N   0  0  0  0  0  0  0  0  0  0  0  0
  149.8087  133.9725  154.3749 C   0  0  0  0  0  0  0  0  0  0  0  0
  148.8508  133.1331  153.5083 C   0  0  0  0  0  0  0  0  0  0  0  0
  147.4571  133.4532  153.8354 N   0  5  0  0  0  0  0  0  0  0  0  0
  147.7055  136.6169  154.7824 H   0  0  0  0  0  0  0  0  0  0  0  0
  148.1138  135.4713  156.0509 H   0  0  0  0  0  0  0  0  0  0  0  0
  150.6263  136.0248  155.9779 H   0  0  0  0  0  0  0  0  0  0  0  0
  151.3860  136.1142  154.4058 H   0  0  0  0  0  0  0  0  0  0  0  0
  149.5153  137.9333  153.8956 H   0  0  0  0  0  0  0  0  0  0  0  0
  149.4714  138.0986  155.6359 H   0  0  0  0  0  0  0  0  0  0  0  0
  152.1744  138.1797  155.2896 H   0  0  0  0  0  0  0  0  0  0  0  0
  151.6873  138.8223  153.7382 H   0  0  0  0  0  0  0  0  0  0  0  0
  150.4987  140.6000  154.9319 H   0  0  0  0  0  0  0  0  0  0  0  0
  150.6048  142.0345  156.2773 H   0  0  0  0  0  0  0  0  0  0  0  0
  150.7296  144.1161  157.1385 H   0  0  0  0  0  0  0  0  0  0  0  0
  151.3097  145.6088  159.0515 H   0  0  0  0  0  0  0  0  0  0  0  0
  152.5328  144.6409  161.0200 H   0  0  0  0  0  0  0  0  0  0  0  0
  153.1232  142.2029  160.9720 H   0  0  0  0  0  0  0  0  0  0  0  0
  150.8234  133.8580  153.9919 H   0  0  0  0  0  0  0  0  0  0  0  0
  149.8152  133.6067  155.4032 H   0  0  0  0  0  0  0  0  0  0  0  0
  149.0585  133.3420  152.4586 H   0  0  0  0  0  0  0  0  0  0  0  0
  149.0699  132.0750  153.6497 H   0  0  0  0  0  0  0  0  0  0  0  0
  149.3161  135.6451  153.3847 H   0  0  0  0  0  0  0  0  0  0  0  0
  1  2  2  0  0  0  0
  2 20  1  0  0  0  0
  2  3  1  0  0  0  0
  3  4  1  0  0  0  0
  3 21  1  0  0  0  0
  3 22  1  0  0  0  0
  4  5  1  0  0  0  0
  4 18  1  0  0  0  0
  4 39  1  0  0  0  0
  5  6  1  0  0  0  0
  5 23  1  0  0  0  0
  5 24  1  0  0  0  0
  6  7  1  0  0  0  0
  6 25  1  0  0  0  0
  6 26  1  0  0  0  0
  7  8  1  0  0  0  0
  7 27  1  0  0  0  0
  7 28  1  0  0  0  0
  8  9  1  0  0  0  0
  8 29  1  0  0  0  0
  9 10  2  0  0  0  0
  9 11  1  0  0  0  0
 11 12  1  0  0  0  0
 11 30  1  0  0  0  0
 12 17  1  0  0  0  0
 12 13  2  0  0  0  0
 13 14  1  0  0  0  0
 13 31  1  0  0  0  0
 14 15  2  0  0  0  0
 14 32  1  0  0  0  0
 15 16  1  0  0  0  0
 15 33  1  0  0  0  0
 16 17  2  0  0  0  0
 16 34  1  0  0  0  0
 18 19  1  0  0  0  0
 18 35  1  0  0  0  0
 18 36  1  0  0  0  0
 19 20  1  0  0  0  0
 19 37  1  0  0  0  0
 19 38  1  0  0  0  0
M  CHG  1   4   1
M  CHG  1  20  -1
M  END
> <s_m_source_file>
AV-unprocessed.smi

> <i_m_source_file_index>
2858

> <i_lp_mmshare_version>
43012

> <i_f3d_flags>
0

> <s_epik_input>
Tz1DMVtDSDJdTihbQ0gyXVtDSDJdW05IXTEpW0NIMl1bQ0gyXVtDSDJdW05IXUMoPU8pW05IXWMyW2NIXVtjSF1bY0hdW2NIXW4y

> <s_epik_cmdline>
J2VwaWtfcHl0aG9uJywgJy1waCcsICc3LjAnLCAnLXRuJywgJzgnLCAnLW1hJywgJzIwMCcsICctbWV0YWxfYmluZGluZycsICctaW1hZScsICc8aW5maWxlLm1hZT4nLCAnLW9tYWUnLCAnPG91dGZpbGUubWFlPic=

> <r_epik_Ionization_Penalty>
5.09835

> <r_epik_Ionization_Penalty_Charging>
5.09831

> <r_epik_Ionization_Penalty_Neutral>
4.20822e-05

> <r_epik_State_Penalty>
5.19693

> <r_epik_Charging_Adjusted_Penalty>
10.2952

> <i_epik_Tot_Q>
0

> <i_epik_Tot_abs_Q>
2

> <r_epik_Metal_State_Penalty>
1.27693

> <b_epik_Metal_Only>
1

> <s_lp_Force_Field>
OPLS_2005

> <r_lp_Energy>
14.6847

> <b_lp_Chiralities_Consistent>
1

> <s_lp_Variant>
AV-unprocessed.smi:2858-5

> <Gold.Version>
5.8.1

> <Gold.Id.Protein>
6NUR|6NUR_protein|mol2

> <Gold.PLP.Fitness>
44.2399

> <Gold.PLP.PLP>
-36.1198

> <Gold.PLP.part.hbond>
-2.0000

> <Gold.PLP.part.metal>
0.0000

> <Gold.PLP.part.buried>
-5.0782

> <Gold.PLP.part.nonpolar>
-29.4770

> <Gold.PLP.part.repulsive>
1.1939

> <Gold.PLP.ligand.clash>
0.0000

> <Gold.PLP.ligand.torsion>
0.4664

> <Gold.PLP.Chemscore.Hbond>
3.0000

> <Gold.PLP.Chemscore.CHOScore>
0.0000

> <Gold.PLP.Chemscore.Metal>
0.0000

> <Gold.Chemscore.Hbonds>
donor molecule, donor type, donor heavy atom, donor atom, acceptor molecule, acceptor atom, score
      L1  H     4    39       P1  7948  2.00
      P1  H  7997  8009       L1    10  0.88

> <Gold.PLP.Chemscore.Internal.Correction>
0.0529

> <Gold.Rescore>
     Score         DG    S(hbond)    S(metal)    S(lipo)     H(rot)  DE(clash)    DE(int)     intcor
     14.47     -16.29       1.95        0.00      81.01       2.02       0.04       1.78       ----

> <Gold.Chemscore.Fitness>
14.4728

> <Gold.Chemscore.DG>
-16.2865

> <Gold.Chemscore.ZeroCoef>
-5.4800

> <Gold.Chemscore.Hbond>
1.9469

> <Gold.Chemscore.Metal>
0.0000

> <Gold.Chemscore.Lipo>
81.0121

> <Gold.Chemscore.Internal_Hbond>
0.0000

> <Gold.Chemscore.DEClash>
0.0373

> <Gold.Chemscore.DEInternal>
1.7764

> <Gold.Chemscore.Rot>
2.0213

> <Gold.Chemscore.Internal.Correction>
   9.000000E+99

> <Gold.Chemscore.Hbonds>
donor molecule, donor type, donor heavy atom, donor atom, acceptor molecule, acceptor atom, score
      L1  H     4    39       P1  7948  0.35
      P1  H  7997  8009       L1    10  0.67

> <Gold.Chemscore.Hbond.Weighted>
-6.5025

> <Gold.Chemscore.Metal.Weighted>
-0.0000

> <Gold.Chemscore.Lipo.Weighted>
-9.4784

> <Gold.Chemscore.Internal_Hbond.Weighted>
0.0000

> <Gold.Chemscore.DEClash.Weighted>
0.0373

> <Gold.Chemscore.DEInternal.Weighted>
1.7764

> <Gold.Chemscore.Rot.Weighted>
5.1744

> <Gold.Chemscore.Internal.Correction.Weighted>
   9.000000E+99

> <Gold.Protein.RotatedTorsions>
[ 6907 6896 6895 6894 ] final  -33.18 input  -60.11 | X-H torsion
[ 7974 7965 7964 7962 ] final  101.20 input  175.53 | X-H torsion
[ 8008 7997 7996 7995 ] final  172.35 input   59.86 | X-H torsion
[ 10167 10162 10161 10158 ] final  131.98 input  -65.29 | X-H torsion
[ 10718 10713 10712 10709 ] final -135.04 input   66.30 | X-H torsion
[ 10763 10752 10751 10750 ] final -137.55 input  -60.55 | X-H torsion
[ 11005 11000 10999 10996 ] final   29.10 input  -57.11 | X-H torsion

> <Gold.Protein.ActiveResidues>
 VAL166  LYS551  ARG553  GLY616  TRP617  ASP618  TYR619  PRO620  LYS621  CYS622 
 ASP623  PHE694  ASN695  SER759  ASP760  ASP761  ALA762  ILE779  LEU786  VAL792 
 PHE793  MET794  SER795  GLU796  ALA797  LYS798  CYS799  TRP800  GLU811  SER814 

> <Gold.Protein.RotatedAtoms>
  151.0690  134.9786  159.8298 H   0  0  0  0  0  0  0  0  0  0  0  0  # atno 6907 bound_to 6896
  152.5406  134.2322  159.8839 H   0  0  0  0  0  0  0  0  0  0  0  0  # atno 6908 bound_to 6896
  151.2346  133.4388  159.2638 H   0  0  0  0  0  0  0  0  0  0  0  0  # atno 6909 bound_to 6896
  145.3755  139.2390  143.3432 H   0  0  0  0  0  0  0  0  0  0  0  0  # atno 7974 bound_to 7965
  156.1183  140.1488  156.9241 H   0  0  0  0  0  0  0  0  0  0  0  0  # atno 8008 bound_to 7997
  154.4816  140.0877  156.7433 H   0  0  0  0  0  0  0  0  0  0  0  0  # atno 8009 bound_to 7997
  155.4475  140.3433  155.4299 H   0  0  0  0  0  0  0  0  0  0  0  0  # atno 8010 bound_to 7997
  139.5360  144.6682  151.4786 H   0  0  0  0  0  0  0  0  0  0  0  0  # atno 10167 bound_to 10162
  156.2619  130.7214  151.1151 H   0  0  0  0  0  0  0  0  0  0  0  0  # atno 10718 bound_to 10713
  154.8659  135.3638  154.5242 H   0  0  0  0  0  0  0  0  0  0  0  0  # atno 10763 bound_to 10752
  153.5870  135.7016  153.5444 H   0  0  0  0  0  0  0  0  0  0  0  0  # atno 10764 bound_to 10752
  153.3406  135.4099  155.1531 H   0  0  0  0  0  0  0  0  0  0  0  0  # atno 10765 bound_to 10752
  140.3085  134.2676  155.7739 H   0  0  0  0  0  0  0  0  0  0  0  0  # atno 11005 bound_to 11000
  146.2866  140.4413  142.8755 LP  0  0  0  0  0  0  0  0  0  0  0  0  # atno 17320 bound_to 7965
  144.8546  140.7051  143.6146 LP  0  0  0  0  0  0  0  0  0  0  0  0  # atno 17321 bound_to 7965
  140.6566  143.8587  150.6842 LP  0  0  0  0  0  0  0  0  0  0  0  0  # atno 17342 bound_to 10162
  140.1968  143.3991  152.1822 LP  0  0  0  0  0  0  0  0  0  0  0  0  # atno 17343 bound_to 10162
  157.7253  131.0654  150.5957 LP  0  0  0  0  0  0  0  0  0  0  0  0  # atno 17370 bound_to 10713
  156.6045  130.4363  149.5883 LP  0  0  0  0  0  0  0  0  0  0  0  0  # atno 17371 bound_to 10713
  141.2113  133.7693  156.9872 LP  0  0  0  0  0  0  0  0  0  0  0  0  # atno 17394 bound_to 11000
  140.1046  134.9515  157.1974 LP  0  0  0  0  0  0  0  0  0  0  0  0  # atno 17395 bound_to 11000

$$$$
