AV-unprocessed.smi:1505|AV-procd|sdf|6075|dock8
  -GOLD-   22720 6193D 1   1.00000     0.00000
 Structure written by MMmdl.
 44 45  0  0  0  0  0  0  0  0  1 V2000
  143.5464  133.3699  148.4331 C   0  0  0  0  0  0  0  0  0  0  0  0
  144.4635  132.3574  149.1226 C   0  0  0  0  0  0  0  0  0  0  0  0
  145.1044  131.5811  148.4138 O   0  0  0  0  0  0  0  0  0  0  0  0
  144.5367  132.3441  150.4754 N   0  0  0  0  0  0  0  0  0  0  0  0
  145.4164  131.4783  151.2693 C   0  0  0  0  0  0  0  0  0  0  0  0
  146.5387  132.3377  151.8755 C   0  0  0  0  0  0  0  0  0  0  0  0
  145.9645  133.5077  152.7123 C   0  0  0  0  0  0  0  0  0  0  0  0
  147.0293  134.4255  153.1042 N   0  0  0  0  0  0  0  0  0  0  0  0
  147.4241  134.6435  154.3658 C   0  0  0  0  0  0  0  0  0  0  0  0
  146.8673  134.1636  155.3539 O   0  0  0  0  0  0  0  0  0  0  0  0
  148.5360  135.3917  154.4169 N   0  0  0  0  0  0  0  0  0  0  0  0
  149.3428  135.6154  155.6153 C   0  0  0  0  0  0  0  0  0  0  0  0
  150.6467  136.3775  155.2995 C   0  0  0  0  0  0  0  0  0  0  0  0
  150.4081  137.8109  154.8997 C   0  0  0  0  0  0  0  0  0  0  0  0
  151.3770  138.8412  154.7287 C   0  0  0  0  0  0  0  0  0  0  0  0
  150.8381  140.0103  154.4249 N   0  0  0  0  0  0  0  0  0  0  0  0
  149.5122  139.7673  154.3848 N   0  0  0  0  0  0  0  0  0  0  0  0
  148.5987  140.8496  154.0892 C   0  0  0  0  0  0  0  0  0  0  0  0
  149.2234  138.4474  154.6569 C   0  0  0  0  0  0  0  0  0  0  0  0
  144.8778  134.2786  151.9319 C   0  0  0  0  0  0  0  0  0  0  0  0
  143.8391  133.3217  151.3186 C   0  0  0  0  0  0  0  0  0  0  0  0
  142.5146  133.2462  148.7636 H   0  0  0  0  0  0  0  0  0  0  0  0
  143.5671  133.2324  147.3514 H   0  0  0  0  0  0  0  0  0  0  0  0
  143.8681  134.3896  148.6453 H   0  0  0  0  0  0  0  0  0  0  0  0
  144.8357  131.0110  152.0659 H   0  0  0  0  0  0  0  0  0  0  0  0
  145.8459  130.6531  150.7032 H   0  0  0  0  0  0  0  0  0  0  0  0
  147.1882  131.7128  152.4900 H   0  0  0  0  0  0  0  0  0  0  0  0
  147.1634  132.7288  151.0707 H   0  0  0  0  0  0  0  0  0  0  0  0
  145.5010  133.0963  153.6111 H   0  0  0  0  0  0  0  0  0  0  0  0
  147.5506  134.8632  152.3588 H   0  0  0  0  0  0  0  0  0  0  0  0
  148.9092  135.7448  153.5479 H   0  0  0  0  0  0  0  0  0  0  0  0
  148.7492  136.1823  156.3326 H   0  0  0  0  0  0  0  0  0  0  0  0
  149.5770  134.6663  156.1007 H   0  0  0  0  0  0  0  0  0  0  0  0
  151.2954  136.3361  156.1752 H   0  0  0  0  0  0  0  0  0  0  0  0
  151.1859  135.8462  154.5148 H   0  0  0  0  0  0  0  0  0  0  0  0
  152.4497  138.7774  154.8355 H   0  0  0  0  0  0  0  0  0  0  0  0
  147.5720  140.4827  154.0884 H   0  0  0  0  0  0  0  0  0  0  0  0
  148.8266  141.2684  153.1087 H   0  0  0  0  0  0  0  0  0  0  0  0
  148.6955  141.6295  154.8452 H   0  0  0  0  0  0  0  0  0  0  0  0
  148.2088  138.0777  154.6774 H   0  0  0  0  0  0  0  0  0  0  0  0
  144.3822  134.9949  152.5882 H   0  0  0  0  0  0  0  0  0  0  0  0
  145.3391  134.8603  151.1320 H   0  0  0  0  0  0  0  0  0  0  0  0
  143.0871  133.8914  150.7711 H   0  0  0  0  0  0  0  0  0  0  0  0
  143.2975  132.7989  152.1082 H   0  0  0  0  0  0  0  0  0  0  0  0
  1  2  1  0  0  0  0
  1 22  1  0  0  0  0
  1 23  1  0  0  0  0
  1 24  1  0  0  0  0
  2  3  2  0  0  0  0
  2  4  1  0  0  0  0
  4 21  1  0  0  0  0
  4  5  1  0  0  0  0
  5  6  1  0  0  0  0
  5 25  1  0  0  0  0
  5 26  1  0  0  0  0
  6  7  1  0  0  0  0
  6 27  1  0  0  0  0
  6 28  1  0  0  0  0
  7  8  1  0  0  0  0
  7 20  1  0  0  0  0
  7 29  1  0  0  0  0
  8  9  1  0  0  0  0
  8 30  1  0  0  0  0
  9 10  2  0  0  0  0
  9 11  1  0  0  0  0
 11 12  1  0  0  0  0
 11 31  1  0  0  0  0
 12 13  1  0  0  0  0
 12 32  1  0  0  0  0
 12 33  1  0  0  0  0
 13 14  1  0  0  0  0
 13 34  1  0  0  0  0
 13 35  1  0  0  0  0
 14 19  2  0  0  0  0
 14 15  1  0  0  0  0
 15 16  2  0  0  0  0
 15 36  1  0  0  0  0
 16 17  1  0  0  0  0
 17 18  1  0  0  0  0
 17 19  1  0  0  0  0
 18 37  1  0  0  0  0
 18 38  1  0  0  0  0
 18 39  1  0  0  0  0
 19 40  1  0  0  0  0
 20 21  1  0  0  0  0
 20 41  1  0  0  0  0
 20 42  1  0  0  0  0
 21 43  1  0  0  0  0
 21 44  1  0  0  0  0
M  END
> <s_m_source_file>
AV-unprocessed.smi

> <i_m_source_file_index>
1505

> <i_lp_mmshare_version>
43012

> <i_f3d_flags>
0

> <s_epik_input>
W0NIM11DKD1PKU4xW0NIMl1bQ0gyXVtDSF0oW0NIMl1bQ0gyXTEpW05IXUMoPU8pW05IXVtDSDJdW0NIMl1jMltjSF1ubihbQ0gzXSlbY0hdMg==

> <s_epik_cmdline>
J2VwaWtfcHl0aG9uJywgJy1waCcsICc3LjAnLCAnLXRuJywgJzgnLCAnLW1hJywgJzIwMCcsICctbWV0YWxfYmluZGluZycsICctaW1hZScsICc8aW5maWxlLm1hZT4nLCAnLW9tYWUnLCAnPG91dGZpbGUubWFlPic=

> <r_lp_tautomer_probability>
1

> <r_epik_Ionization_Penalty>
0.000559595

> <r_epik_Ionization_Penalty_Charging>
0

> <r_epik_Ionization_Penalty_Neutral>
0.000559595

> <r_epik_State_Penalty>
-0

> <r_epik_Charging_Adjusted_Penalty>
0

> <i_epik_Tot_Q>
0

> <i_epik_Tot_abs_Q>
0

> <r_epik_Metal_State_Penalty>
-0

> <b_epik_Metal_Only>
0

> <s_lp_Force_Field>
OPLS_2005

> <r_lp_Energy>
17.177

> <b_lp_Chiralities_Consistent>
1

> <s_lp_Variant>
AV-unprocessed.smi:1505-1

> <Gold.Version>
5.8.1

> <Gold.Id.Protein>
6NUR|6NUR_protein|mol2

> <Gold.PLP.Fitness>
44.9458

> <Gold.PLP.PLP>
-36.3927

> <Gold.PLP.part.hbond>
-4.9783

> <Gold.PLP.part.metal>
0.0000

> <Gold.PLP.part.buried>
-0.0738

> <Gold.PLP.part.nonpolar>
-32.6547

> <Gold.PLP.part.repulsive>
0.3339

> <Gold.PLP.ligand.clash>
0.0000

> <Gold.PLP.ligand.torsion>
0.1397

> <Gold.PLP.Chemscore.Hbond>
2.9364

> <Gold.PLP.Chemscore.CHOScore>
0.0000

> <Gold.PLP.Chemscore.Metal>
0.0000

> <Gold.Chemscore.Hbonds>
donor molecule, donor type, donor heavy atom, donor atom, acceptor molecule, acceptor atom, score
      L1  H     8    30       P1  7948  0.96
      L1  H    11    31       P1  7948  1.00
      P1  H  7989  7998       L1    16  0.91

> <Gold.PLP.Chemscore.Internal.Correction>
0.0233

> <Gold.Rescore>
     Score         DG    S(hbond)    S(metal)    S(lipo)     H(rot)  DE(clash)    DE(int)     intcor
     17.27     -19.11       2.74        0.00      75.20       1.69       1.74       0.09       ----

> <Gold.Chemscore.Fitness>
17.2709

> <Gold.Chemscore.DG>
-19.1057

> <Gold.Chemscore.ZeroCoef>
-5.4800

> <Gold.Chemscore.Hbond>
2.7405

> <Gold.Chemscore.Metal>
0.0000

> <Gold.Chemscore.Lipo>
75.1965

> <Gold.Chemscore.Internal_Hbond>
0.0000

> <Gold.Chemscore.DEClash>
1.7407

> <Gold.Chemscore.DEInternal>
0.0941

> <Gold.Chemscore.Rot>
1.6896

> <Gold.Chemscore.Internal.Correction>
   9.000000E+99

> <Gold.Chemscore.Hbonds>
donor molecule, donor type, donor heavy atom, donor atom, acceptor molecule, acceptor atom, score
      L1  H     8    30       P1  7948  0.83
      L1  H    11    31       P1  7948  0.92
      P1  H  7989  7998       L1    16  0.81

> <Gold.Chemscore.Hbond.Weighted>
-9.1532

> <Gold.Chemscore.Metal.Weighted>
-0.0000

> <Gold.Chemscore.Lipo.Weighted>
-8.7980

> <Gold.Chemscore.Internal_Hbond.Weighted>
0.0000

> <Gold.Chemscore.DEClash.Weighted>
1.7407

> <Gold.Chemscore.DEInternal.Weighted>
0.0941

> <Gold.Chemscore.Rot.Weighted>
4.3255

> <Gold.Chemscore.Internal.Correction.Weighted>
   9.000000E+99

> <Gold.Protein.RotatedTorsions>
[ 6907 6896 6895 6894 ] final  155.69 input  -60.11 | X-H torsion
[ 7974 7965 7964 7962 ] final  146.71 input  175.53 | X-H torsion
[ 8008 7997 7996 7995 ] final  -78.23 input   59.86 | X-H torsion
[ 10167 10162 10161 10158 ] final  -16.31 input  -65.29 | X-H torsion
[ 10718 10713 10712 10709 ] final  114.09 input   66.30 | X-H torsion
[ 10763 10752 10751 10750 ] final  -27.05 input  -60.55 | X-H torsion
[ 11005 11000 10999 10996 ] final   72.65 input  -57.11 | X-H torsion

> <Gold.Protein.ActiveResidues>
 VAL166  LYS551  ARG553  GLY616  TRP617  ASP618  TYR619  PRO620  LYS621  CYS622 
 ASP623  PHE694  ASN695  SER759  ASP760  ASP761  ALA762  ILE779  LEU786  VAL792 
 PHE793  MET794  SER795  GLU796  ALA797  LYS798  CYS799  TRP800  GLU811  SER814 

> <Gold.Protein.RotatedAtoms>
  152.0405  133.3975  159.4334 H   0  0  0  0  0  0  0  0  0  0  0  0  # atno 6907 bound_to 6896
  150.6876  134.3420  159.4881 H   0  0  0  0  0  0  0  0  0  0  0  0  # atno 6908 bound_to 6896
  152.1218  134.9200  160.0613 H   0  0  0  0  0  0  0  0  0  0  0  0  # atno 6909 bound_to 6896
  144.8649  139.5939  143.5913 H   0  0  0  0  0  0  0  0  0  0  0  0  # atno 7974 bound_to 7965
  154.5670  140.0697  156.8906 H   0  0  0  0  0  0  0  0  0  0  0  0  # atno 8008 bound_to 7997
  155.2705  140.3365  155.4247 H   0  0  0  0  0  0  0  0  0  0  0  0  # atno 8009 bound_to 7997
  156.2088  140.1751  156.7726 H   0  0  0  0  0  0  0  0  0  0  0  0  # atno 8010 bound_to 7997
  140.7232  143.5129  150.9727 H   0  0  0  0  0  0  0  0  0  0  0  0  # atno 10167 bound_to 10162
  157.6301  131.0993  150.7135 H   0  0  0  0  0  0  0  0  0  0  0  0  # atno 10718 bound_to 10713
  153.7259  135.6942  153.5001 H   0  0  0  0  0  0  0  0  0  0  0  0  # atno 10763 bound_to 10752
  153.2170  135.4383  155.0445 H   0  0  0  0  0  0  0  0  0  0  0  0  # atno 10764 bound_to 10752
  154.8269  135.3451  154.6791 H   0  0  0  0  0  0  0  0  0  0  0  0  # atno 10765 bound_to 10752
  139.9480  134.7278  156.0932 H   0  0  0  0  0  0  0  0  0  0  0  0  # atno 11005 bound_to 11000
  146.2888  139.7080  142.9176 LP  0  0  0  0  0  0  0  0  0  0  0  0  # atno 17320 bound_to 7965
  145.4240  141.0409  143.2948 LP  0  0  0  0  0  0  0  0  0  0  0  0  # atno 17321 bound_to 7965
  139.8844  143.7032  152.3153 LP  0  0  0  0  0  0  0  0  0  0  0  0  # atno 17342 bound_to 10162
  139.7325  144.7579  151.0779 LP  0  0  0  0  0  0  0  0  0  0  0  0  # atno 17343 bound_to 10162
  156.7476  130.4758  149.5463 LP  0  0  0  0  0  0  0  0  0  0  0  0  # atno 17370 bound_to 10713
  156.1499  130.6303  151.0581 LP  0  0  0  0  0  0  0  0  0  0  0  0  # atno 17371 bound_to 10713
  141.1136  133.6635  156.3038 LP  0  0  0  0  0  0  0  0  0  0  0  0  # atno 17394 bound_to 11000
  140.5788  134.5767  157.5475 LP  0  0  0  0  0  0  0  0  0  0  0  0  # atno 17395 bound_to 11000

$$$$
