AV-unprocessed.smi:790|AV-procd|sdf|3742|dock2
  -GOLD-   22720 1173D 1   1.00000     0.00000
 Structure written by MMmdl.
 38 40  0  0  0  0  0  0  0  0  1 V2000
  150.9519  140.7517  156.1283 O   0  0  0  0  0  0  0  0  0  0  0  0
  150.3288  141.8112  156.0664 C   0  0  0  0  0  0  0  0  0  0  0  0
  150.5210  142.8764  156.8627 N   0  0  0  0  0  0  0  0  0  0  0  0
  151.4068  143.0128  157.9659 C   0  0  0  0  0  0  0  0  0  0  0  0
  152.2456  141.9795  158.4500 C   0  0  0  0  0  0  0  0  0  0  0  0
  153.0630  142.2357  159.5676 C   0  0  0  0  0  0  0  0  0  0  0  0
  153.0078  143.5103  160.1643 C   0  0  0  0  0  0  0  0  0  0  0  0
  152.2049  144.5003  159.7209 N   0  0  0  0  0  0  0  0  0  0  0  0
  151.4235  144.2473  158.6493 C   0  0  0  0  0  0  0  0  0  0  0  0
  149.3666  142.0506  155.1652 N   0  0  0  0  0  0  0  0  0  0  0  0
  148.8991  141.0958  154.1635 C   0  0  2  0  0  0  0  0  0  0  0  0
  147.4154  141.3544  153.8200 C   0  0  1  0  0  0  0  0  0  0  0  0
  147.0780  140.6245  152.5076 C   0  0  0  0  0  0  0  0  0  0  0  0
  147.0539  139.1478  152.9454 C   0  0  0  0  0  0  0  0  0  0  0  0
  147.3999  139.2255  154.4484 C   0  0  2  0  0  0  0  0  0  0  0  0
  146.6719  140.5031  154.8462 C   0  0  0  0  0  0  0  0  0  0  0  0
  148.8737  139.6375  154.6894 C   0  0  1  0  0  0  0  0  0  0  0  0
  149.9464  138.7227  154.0665 C   0  0  0  0  0  0  0  0  0  0  0  0
  149.6765  137.3710  154.3716 O   0  0  0  0  0  0  0  0  0  0  0  0
  149.9902  143.7035  156.6316 H   0  0  0  0  0  0  0  0  0  0  0  0
  152.2696  140.9989  158.0019 H   0  0  0  0  0  0  0  0  0  0  0  0
  153.7141  141.4698  159.9620 H   0  0  0  0  0  0  0  0  0  0  0  0
  153.6202  143.7387  161.0240 H   0  0  0  0  0  0  0  0  0  0  0  0
  150.7912  145.0612  158.3253 H   0  0  0  0  0  0  0  0  0  0  0  0
  148.9118  142.9516  155.1811 H   0  0  0  0  0  0  0  0  0  0  0  0
  149.5131  141.1931  153.2658 H   0  0  0  0  0  0  0  0  0  0  0  0
  147.1388  142.4095  153.8065 H   0  0  0  0  0  0  0  0  0  0  0  0
  146.0998  140.9287  152.1330 H   0  0  0  0  0  0  0  0  0  0  0  0
  147.8101  140.8158  151.7222 H   0  0  0  0  0  0  0  0  0  0  0  0
  146.0544  138.7332  152.8087 H   0  0  0  0  0  0  0  0  0  0  0  0
  147.7392  138.5246  152.3726 H   0  0  0  0  0  0  0  0  0  0  0  0
  147.0988  138.3408  155.0100 H   0  0  0  0  0  0  0  0  0  0  0  0
  146.8561  140.8055  155.8785 H   0  0  0  0  0  0  0  0  0  0  0  0
  145.5946  140.4602  154.6751 H   0  0  0  0  0  0  0  0  0  0  0  0
  149.0377  139.6436  155.7692 H   0  0  0  0  0  0  0  0  0  0  0  0
  150.0156  138.8477  152.9868 H   0  0  0  0  0  0  0  0  0  0  0  0
  150.9273  138.9726  154.4708 H   0  0  0  0  0  0  0  0  0  0  0  0
  149.7386  136.8654  153.5755 H   0  0  0  0  0  0  0  0  0  0  0  0
  1  2  2  0  0  0  0
  2  3  1  0  0  0  0
  2 10  1  0  0  0  0
  3  4  1  0  0  0  0
  3 20  1  0  0  0  0
  4  9  1  0  0  0  0
  4  5  2  0  0  0  0
  5  6  1  0  0  0  0
  5 21  1  0  0  0  0
  6  7  2  0  0  0  0
  6 22  1  0  0  0  0
  7  8  1  0  0  0  0
  7 23  1  0  0  0  0
  8  9  2  0  0  0  0
  9 24  1  0  0  0  0
 10 11  1  0  0  0  0
 10 25  1  0  0  0  0
 11 17  1  0  0  0  0
 11 12  1  0  0  0  0
 11 26  1  0  0  0  0
 12 16  1  0  0  0  0
 12 13  1  0  0  0  0
 12 27  1  0  0  0  0
 13 14  1  0  0  0  0
 13 28  1  0  0  0  0
 13 29  1  0  0  0  0
 14 15  1  0  0  0  0
 14 30  1  0  0  0  0
 14 31  1  0  0  0  0
 15 16  1  0  0  0  0
 15 17  1  0  0  0  0
 15 32  1  0  0  0  0
 16 33  1  0  0  0  0
 16 34  1  0  0  0  0
 17 18  1  0  0  0  0
 17 35  1  0  0  0  0
 18 19  1  0  0  0  0
 18 36  1  0  0  0  0
 18 37  1  0  0  0  0
 19 38  1  0  0  0  0
M  END
> <s_m_source_file>
AV-unprocessed.smi

> <i_m_source_file_index>
790

> <i_lp_mmshare_version>
43012

> <i_f3d_flags>
0

> <s_epik_input>
W0NIMl0xW0NIMl1bQ0BASF0oW0NIMl0yKVtDQEBIXShbQ0gyXVtPSF0pW0NAQEhdKFtDQEhdMTIpW05IXUMoPU8pW05IXWMzW2NIXVtjSF1bY0hdbltjSF0z

> <s_epik_cmdline>
J2VwaWtfcHl0aG9uJywgJy1waCcsICc3LjAnLCAnLXRuJywgJzgnLCAnLW1hJywgJzIwMCcsICctbWV0YWxfYmluZGluZycsICctaW1hZScsICc8aW5maWxlLm1hZT4nLCAnLW9tYWUnLCAnPG91dGZpbGUubWFlPic=

> <r_epik_Ionization_Penalty>
0.00497582

> <r_epik_Ionization_Penalty_Charging>
0

> <r_epik_Ionization_Penalty_Neutral>
0.00497582

> <r_epik_State_Penalty>
0.00358602

> <r_epik_Charging_Adjusted_Penalty>
0.00358602

> <i_epik_Tot_Q>
0

> <i_epik_Tot_abs_Q>
0

> <r_epik_Metal_State_Penalty>
-0

> <b_epik_Metal_Only>
0

> <s_lp_Force_Field>
OPLS_2005

> <r_lp_Energy>
52.0716

> <b_lp_Chiralities_Consistent>
1

> <s_lp_Variant>
AV-unprocessed.smi:790-3

> <Gold.Version>
5.8.1

> <Gold.Id.Protein>
6NUR|6NUR_protein|mol2

> <Gold.PLP.Fitness>
46.1637

> <Gold.PLP.PLP>
-37.9937

> <Gold.PLP.part.hbond>
-3.0000

> <Gold.PLP.part.metal>
0.0000

> <Gold.PLP.part.buried>
-3.8421

> <Gold.PLP.part.nonpolar>
-30.8068

> <Gold.PLP.part.repulsive>
0.2865

> <Gold.PLP.ligand.clash>
0.0000

> <Gold.PLP.ligand.torsion>
0.4260

> <Gold.PLP.Chemscore.Hbond>
3.0000

> <Gold.PLP.Chemscore.CHOScore>
0.0000

> <Gold.PLP.Chemscore.Metal>
0.0000

> <Gold.Chemscore.Hbonds>
donor molecule, donor type, donor heavy atom, donor atom, acceptor molecule, acceptor atom, score
      L1  H     3    20       P1  8028  1.00
      L1  H    10    25       P1  8028  1.00
      L1  H    19    38       P1  7948  1.00

> <Gold.PLP.Chemscore.Internal.Correction>
0.0220

> <Gold.Rescore>
     Score         DG    S(hbond)    S(metal)    S(lipo)     H(rot)  DE(clash)    DE(int)     intcor
     19.14     -23.00       2.94        0.00     104.59       1.78       0.13       3.74       ----

> <Gold.Chemscore.Fitness>
19.1393

> <Gold.Chemscore.DG>
-22.9993

> <Gold.Chemscore.ZeroCoef>
-5.4800

> <Gold.Chemscore.Hbond>
2.9447

> <Gold.Chemscore.Metal>
0.0000

> <Gold.Chemscore.Lipo>
104.5854

> <Gold.Chemscore.Internal_Hbond>
0.0000

> <Gold.Chemscore.DEClash>
0.1250

> <Gold.Chemscore.DEInternal>
3.7351

> <Gold.Chemscore.Rot>
1.7783

> <Gold.Chemscore.Internal.Correction>
   9.000000E+99

> <Gold.Chemscore.Hbonds>
donor molecule, donor type, donor heavy atom, donor atom, acceptor molecule, acceptor atom, score
      L1  H     3    20       P1  8028  0.99
      L1  H    10    25       P1  8028  0.96
      L1  H    19    38       P1  7948  0.57

> <Gold.Chemscore.Hbond.Weighted>
-9.8354

> <Gold.Chemscore.Metal.Weighted>
-0.0000

> <Gold.Chemscore.Lipo.Weighted>
-12.2365

> <Gold.Chemscore.Internal_Hbond.Weighted>
0.0000

> <Gold.Chemscore.DEClash.Weighted>
0.1250

> <Gold.Chemscore.DEInternal.Weighted>
3.7351

> <Gold.Chemscore.Rot.Weighted>
4.5525

> <Gold.Chemscore.Internal.Correction.Weighted>
   9.000000E+99

> <Gold.Protein.RotatedTorsions>
[ 6907 6896 6895 6894 ] final  119.07 input  -60.11 | X-H torsion
[ 7974 7965 7964 7962 ] final  175.76 input  175.53 | X-H torsion
[ 8008 7997 7996 7995 ] final  -47.52 input   59.86 | X-H torsion
[ 10167 10162 10161 10158 ] final  138.11 input  -65.29 | X-H torsion
[ 10718 10713 10712 10709 ] final   59.95 input   66.30 | X-H torsion
[ 10763 10752 10751 10750 ] final -130.57 input  -60.55 | X-H torsion
[ 11005 11000 10999 10996 ] final   94.85 input  -57.11 | X-H torsion

> <Gold.Protein.ActiveResidues>
 VAL166  LYS551  ARG553  GLY616  TRP617  ASP618  TYR619  PRO620  LYS621  CYS622 
 ASP623  PHE694  ASN695  SER759  ASP760  ASP761  ALA762  ILE779  LEU786  VAL792 
 PHE793  MET794  SER795  GLU796  ALA797  LYS798  CYS799  TRP800  GLU811  SER814 

> <Gold.Protein.RotatedAtoms>
  152.4498  133.7607  159.6744 H   0  0  0  0  0  0  0  0  0  0  0  0  # atno 6907 bound_to 6896
  150.8407  133.7930  159.3068 H   0  0  0  0  0  0  0  0  0  0  0  0  # atno 6908 bound_to 6896
  151.5556  135.1069  160.0012 H   0  0  0  0  0  0  0  0  0  0  0  0  # atno 6909 bound_to 6896
  144.7196  139.9994  143.6440 H   0  0  0  0  0  0  0  0  0  0  0  0  # atno 7974 bound_to 7965
  154.4018  140.1344  156.4189 H   0  0  0  0  0  0  0  0  0  0  0  0  # atno 8008 bound_to 7997
  155.7662  140.3485  155.5203 H   0  0  0  0  0  0  0  0  0  0  0  0  # atno 8009 bound_to 7997
  155.8812  140.0987  157.1474 H   0  0  0  0  0  0  0  0  0  0  0  0  # atno 8010 bound_to 7997
  139.5122  144.6372  151.5665 H   0  0  0  0  0  0  0  0  0  0  0  0  # atno 10167 bound_to 10162
  157.5715  130.8911  149.9275 H   0  0  0  0  0  0  0  0  0  0  0  0  # atno 10718 bound_to 10713
  154.8755  135.3858  154.4105 H   0  0  0  0  0  0  0  0  0  0  0  0  # atno 10763 bound_to 10752
  153.4819  135.7030  153.5938 H   0  0  0  0  0  0  0  0  0  0  0  0  # atno 10764 bound_to 10752
  153.4350  135.3869  155.2161 H   0  0  0  0  0  0  0  0  0  0  0  0  # atno 10765 bound_to 10752
  139.8794  134.8867  156.3924 H   0  0  0  0  0  0  0  0  0  0  0  0  # atno 11005 bound_to 11000
  146.0347  139.3367  143.0734 LP  0  0  0  0  0  0  0  0  0  0  0  0  # atno 17320 bound_to 7965
  145.8409  140.9581  143.0800 LP  0  0  0  0  0  0  0  0  0  0  0  0  # atno 17321 bound_to 7965
  140.6125  143.9409  150.6464 LP  0  0  0  0  0  0  0  0  0  0  0  0  # atno 17342 bound_to 10162
  140.2656  143.3492  152.1283 LP  0  0  0  0  0  0  0  0  0  0  0  0  # atno 17343 bound_to 10162
  156.0760  130.3679  150.0676 LP  0  0  0  0  0  0  0  0  0  0  0  0  # atno 17370 bound_to 10713
  156.8828  130.9562  151.3597 LP  0  0  0  0  0  0  0  0  0  0  0  0  # atno 17371 bound_to 10713
  140.9323  133.7570  156.0041 LP  0  0  0  0  0  0  0  0  0  0  0  0  # atno 17394 bound_to 11000
  140.8316  134.3172  157.5347 LP  0  0  0  0  0  0  0  0  0  0  0  0  # atno 17395 bound_to 11000

$$$$
