#       Name:                AV-unprocessed.smi:1384
#       Creating user name   scv26
#       Creation time:       Fri Mar 27 05:24:20 2020


#       File generated by GOLD software.
#

@<TRIPOS>MOLECULE
AV-unprocessed.smi:1384
    45    46     1
SMALL
NO_CHARGES


@<TRIPOS>ATOM
      1 ****        -1.5271  -5.1960  -0.2387 C.3            1 S1                 0.0000
      2 ****        -2.1309  -3.7896  -0.3614 C.3            1 S1                 0.0000
      3 ****        -1.6583  -3.0865  -1.6483 C.3            1 S1                 0.0000
      4 ****        -2.2548  -1.6733  -1.7769 C.3            1 S1                 0.0000
      5 ****        -1.9578  -0.7999  -0.5430 C.3            1 S1                 0.0000
      6 ****        -0.5386  -0.4508  -0.5019 N.am           1 S1                 0.0000
      7 ****        -0.0122   0.6027   0.1408 C.2            1 S1                 0.0000
      8 ****        -0.6873   1.4029   0.7901 O.2            1 S1                 0.0000
      9 ****         1.5127   0.7522   0.0386 C.3            1 S1                 0.0000
     10 ****         2.0100   2.0563   0.5104 N.am           1 S1                 0.0000
     11 ****         2.4860   2.1135   1.8324 C.2            1 S1                 0.0000
     12 ****         2.9595   3.2488   2.3634 C.2            1 S1                 0.0000
     13 ****         2.9738   4.4329   1.5396 C.2            1 S1                 0.0000
     14 ****         2.5162   4.4106   0.2663 C.2            1 S1                 0.0000
     15 ****         2.5287   5.6539  -0.6205 C.3            1 S1                 0.0000
     16 ****         3.2377   5.4346  -1.7286 F              1 S1                 0.0000
     17 ****         1.2874   5.9843  -0.9785 F              1 S1                 0.0000
     18 ****         3.0658   6.7027   0.0048 F              1 S1                 0.0000
     19 ****         1.9921   3.1541  -0.3076 C.2            1 S1                 0.0000
     20 ****         1.5586   3.0855  -1.4591 O.2            1 S1                 0.0000
     21 ****        -2.4042  -1.5135   0.7511 C.3            1 S1                 0.0000
     22 ****        -1.8076  -2.9269   0.8735 C.3            1 S1                 0.0000
     23 ****        -0.4388  -5.1565  -0.1808 H              1 S1                 0.0000
     24 ****        -1.7925  -5.8132  -1.0973 H              1 S1                 0.0000
     25 ****        -1.8901  -5.7031   0.6558 H              1 S1                 0.0000
     26 ****        -3.2148  -3.9015  -0.4181 H              1 S1                 0.0000
     27 ****        -0.5693  -3.0273  -1.6573 H              1 S1                 0.0000
     28 ****        -1.9386  -3.6791  -2.5197 H              1 S1                 0.0000
     29 ****        -1.8809  -1.1907  -2.6807 H              1 S1                 0.0000
     30 ****        -3.3351  -1.7552  -1.9034 H              1 S1                 0.0000
     31 ****        -2.5284   0.1251  -0.6449 H              1 S1                 0.0000
     32 ****         0.0910  -1.0599  -1.0041 H              1 S1                 0.0000
     33 ****         1.9720  -0.0588   0.6059 H              1 S1                 0.0000
     34 ****         1.8202   0.5832  -0.9951 H              1 S1                 0.0000
     35 ****         2.4334   1.1852   2.3831 H              1 S1                 0.0000
     36 ****         3.3172   3.2775   3.3820 H              1 S1                 0.0000
     37 ****         3.3604   5.3473   1.9641 H              1 S1                 0.0000
     38 ****        -2.1403  -0.9201   1.6271 H              1 S1                 0.0000
     39 ****        -3.4924  -1.5872   0.7576 H              1 S1                 0.0000
     40 ****        -2.1943  -3.4064   1.7735 H              1 S1                 0.0000
     41 ****        -0.7269  -2.8580   1.0045 H              1 S1                 0.0000
     42 ****        -1.6779   1.2831   0.8565 LP             1 S1                 0.0000
     43 ****        -0.2448   2.1723   1.2508 LP             1 S1                 0.0000
     44 ****         1.2113   2.2165  -1.8117 LP             1 S1                 0.0000
     45 ****         1.5540   3.8988  -2.0409 LP             1 S1                 0.0000
@<TRIPOS>BOND
    1    1    2 1     
    2    1   23 1     
    3    1   24 1     
    4    1   25 1     
    5    2   22 1     
    6    2    3 1     
    7    2   26 1     
    8    3    4 1     
    9    3   27 1     
   10    3   28 1     
   11    4    5 1     
   12    4   29 1     
   13    4   30 1     
   14    5    6 1     
   15    5   21 1     
   16    5   31 1     
   17    6    7 am    
   18    6   32 1     
   19    7    8 2     
   20    7    9 1     
   21    9   10 1     
   22    9   33 1     
   23    9   34 1     
   24   10   19 am    
   25   10   11 1     
   26   11   12 2     
   27   11   35 1     
   28   12   13 1     
   29   12   36 1     
   30   13   14 2     
   31   13   37 1     
   32   14   15 1     
   33   14   19 1     
   34   15   16 1     
   35   15   17 1     
   36   15   18 1     
   37   19   20 2     
   38   21   22 1     
   39   21   38 1     
   40   21   39 1     
   41   22   40 1     
   42   22   41 1     
   43    8   42 1     
   44    8   43 1     
   45   20   44 1     
   46   20   45 1     
@<TRIPOS>SUBSTRUCTURE
      1 S1             1
@<TRIPOS>SET
LONE_PAIRS      STATIC     ATOMS    <user>   **** ""
4 42 43 44 45
DONOR_HYDROGENS      STATIC     ATOMS    <user>   **** ""
1 32
ATOM$BLUE        STATIC     ATOMS    COLORGROUP SYSTEM
4 42 43 44 45
ATOM$RED        STATIC     ATOMS    COLORGROUP SYSTEM
1 32
