#       Name:                AV-unprocessed.smi:1423
#       Creating user name   scv26
#       Creation time:       Fri Mar 27 05:44:51 2020


#       File generated by GOLD software.
#

@<TRIPOS>MOLECULE
AV-unprocessed.smi:1423
    51    52     1
SMALL
NO_CHARGES


@<TRIPOS>ATOM
      1 ****        -7.9685   2.7971   0.6928 C.3            1 S1                 0.0000
      2 ****        -7.3834   1.5145   0.8893 O.3            1 S1                 0.0000
      3 ****        -6.0345   1.3648   0.6402 C.ar           1 S1                 0.0000
      4 ****        -5.4475   0.1004   0.8440 C.ar           1 S1                 0.0000
      5 ****        -4.0712  -0.0611   0.5946 C.ar           1 S1                 0.0000
      6 ****        -3.3227   1.0512   0.1392 C.ar           1 S1                 0.0000
      7 ****        -1.9269   1.0300  -0.1324 N.am           1 S1                 0.0000
      8 ****        -1.1156  -0.0270  -0.3109 C.2            1 S1                 0.0000
      9 ****        -1.4661  -1.2066  -0.3063 O.2            1 S1                 0.0000
     10 ****         0.1510   0.3641  -0.5127 N.am           1 S1                 0.0000
     11 ****         1.2823  -0.5324  -0.7337 C.3            1 S1                 0.0000
     12 ****         1.8316  -1.0589   0.6049 C.3            1 S1                 0.0000
     13 ****         3.0881  -1.9187   0.3912 C.3            1 S1                 0.0000
     14 ****         4.1351  -1.1627  -0.3463 N.4            1 S1                 1.0000
     15 ****         5.4216  -1.8966  -0.4566 C.3            1 S1                 0.0000
     16 ****         6.2012  -1.8291   0.8613 C.2            1 S1                 0.0000
     17 ****         6.5303  -0.5658   1.1994 N.pl3          1 S1                -1.0000
     18 ****         6.4523  -2.8646   1.4734 O.2            1 S1                 0.0000
     19 ****         3.6406  -0.6803  -1.6601 C.3            1 S1                 0.0000
     20 ****         2.3962   0.2077  -1.4917 C.3            1 S1                 0.0000
     21 ****        -4.0041   2.2755  -0.0236 C.ar           1 S1                 0.0000
     22 ****        -5.3227   2.4373   0.2143 N.ar           1 S1                 0.0000
     23 ****        -9.0307   2.7490   0.9317 H              1 S1                 0.0000
     24 ****        -7.8772   3.1230  -0.3443 H              1 S1                 0.0000
     25 ****        -7.5168   3.5460   1.3452 H              1 S1                 0.0000
     26 ****        -6.0422  -0.7318   1.1909 H              1 S1                 0.0000
     27 ****        -3.6243  -1.0265   0.7708 H              1 S1                 0.0000
     28 ****        -1.4970   1.9378  -0.2337 H              1 S1                 0.0000
     29 ****         0.3491   1.3541  -0.5055 H              1 S1                 0.0000
     30 ****         0.9577  -1.3779  -1.3436 H              1 S1                 0.0000
     31 ****         2.0747  -0.2222   1.2618 H              1 S1                 0.0000
     32 ****         1.0710  -1.6459   1.1209 H              1 S1                 0.0000
     33 ****         3.4683  -2.2402   1.3612 H              1 S1                 0.0000
     34 ****         2.8331  -2.8236  -0.1624 H              1 S1                 0.0000
     35 ****         5.2452  -2.9331  -0.7488 H              1 S1                 0.0000
     36 ****         6.0463  -1.4560  -1.2356 H              1 S1                 0.0000
     37 ****         7.0613  -0.4103   2.0651 H              1 S1                 0.0000
     38 ****         4.4227  -0.1072  -2.1594 H              1 S1                 0.0000
     39 ****         3.4133  -1.5341  -2.3006 H              1 S1                 0.0000
     40 ****         2.0359   0.5253  -2.4708 H              1 S1                 0.0000
     41 ****         2.6724   1.1159  -0.9536 H              1 S1                 0.0000
     42 ****        -3.4753   3.1565  -0.3576 H              1 S1                 0.0000
     43 ****         4.3473  -0.3391   0.2000 H              1 S1                 0.0000
     44 ****        -7.8673   0.8741   0.2929 LP             1 S1                 0.0000
     45 ****        -7.5377   1.2621   1.8445 LP             1 S1                 0.0000
     46 ****        -2.4271  -1.4421  -0.1608 LP             1 S1                 0.0000
     47 ****        -0.7901  -1.9296  -0.4481 LP             1 S1                 0.0000
     48 ****         6.2630   0.2038   0.6194 LP             1 S1                 0.0000
     49 ****         6.1483  -3.7457   1.1112 LP             1 S1                 0.0000
     50 ****         6.9606  -2.8261   2.3337 LP             1 S1                 0.0000
     51 ****        -5.7632   3.3250   0.0799 LP             1 S1                 0.0000
@<TRIPOS>BOND
    1    1    2 1     
    2    1   23 1     
    3    1   24 1     
    4    1   25 1     
    5    2    3 1     
    6    3   22 ar    
    7    3    4 ar    
    8    4    5 ar    
    9    4   26 1     
   10    5    6 ar    
   11    5   27 1     
   12    6    7 1     
   13    6   21 ar    
   14    7    8 am    
   15    7   28 1     
   16    8    9 2     
   17    8   10 am    
   18   10   11 1     
   19   10   29 1     
   20   11   20 1     
   21   11   12 1     
   22   11   30 1     
   23   12   13 1     
   24   12   31 1     
   25   12   32 1     
   26   13   14 1     
   27   13   33 1     
   28   13   34 1     
   29   14   15 1     
   30   14   19 1     
   31   14   43 1     
   32   15   16 1     
   33   15   35 1     
   34   15   36 1     
   35   16   17 1     
   36   16   18 2     
   37   17   37 1     
   38   19   20 1     
   39   19   38 1     
   40   19   39 1     
   41   20   40 1     
   42   20   41 1     
   43   21   22 ar    
   44   21   42 1     
   45    2   44 1     
   46    2   45 1     
   47    9   46 1     
   48    9   47 1     
   49   17   48 1     
   50   18   49 1     
   51   18   50 1     
   52   22   51 1     
@<TRIPOS>SUBSTRUCTURE
      1 S1             1
@<TRIPOS>SET
LONE_PAIRS      STATIC     ATOMS    <user>   **** ""
8 44 45 46 47 48 49 50 51
DONOR_HYDROGENS      STATIC     ATOMS    <user>   **** ""
4 28 29 43 37
ATOM$BLUE        STATIC     ATOMS    COLORGROUP SYSTEM
8 44 45 46 47 48 49 50 51
ATOM$RED        STATIC     ATOMS    COLORGROUP SYSTEM
4 28 29 43 37
