AV-unprocessed.smi:490|AV-procd|sdf|2703|dock8
  -GOLD-   2262023143D 1   1.00000     0.00000
 Structure written by MMmdl.
 49 51  0  0  0  0  0  0  0  0  1 V2000
  151.1106  144.7076  159.5856 C   0  0  0  0  0  0  0  0  0  0  0  0
  151.6938  143.3083  159.4897 C   0  0  0  0  0  0  0  0  0  0  0  0
  152.8903  143.0192  160.1767 C   0  0  0  0  0  0  0  0  0  0  0  0
  153.4566  141.7343  160.1110 C   0  0  0  0  0  0  0  0  0  0  0  0
  152.8379  140.7261  159.3470 C   0  0  0  0  0  0  0  0  0  0  0  0
  153.4589  139.3431  159.2858 C   0  0  0  0  0  0  0  0  0  0  0  0
  151.6469  141.0105  158.6403 C   0  0  0  0  0  0  0  0  0  0  0  0
  151.0620  140.0224  157.8907 O   0  0  0  0  0  0  0  0  0  0  0  0
  151.0192  140.3136  156.5010 C   0  0  0  0  0  0  0  0  0  0  0  0
  151.9819  139.3718  155.7653 C   0  0  2  0  0  0  0  0  0  0  0  0
  153.1815  140.0713  155.5009 O   0  0  0  0  0  0  0  0  0  0  0  0
  151.3832  138.8303  154.4510 C   0  0  0  0  0  0  0  0  0  0  0  0
  150.3164  137.8644  154.6754 N   0  0  0  0  0  0  0  0  0  0  0  0
  148.9777  138.0648  154.5813 C   0  0  0  0  0  0  0  0  0  0  0  0
  148.4122  139.4026  154.1954 C   0  0  0  0  0  0  0  0  0  0  0  0
  147.6925  139.3930  152.9790 O   0  0  0  0  0  0  0  0  0  0  0  0
  148.2161  136.9986  154.8384 N   0  0  0  0  0  0  0  0  0  0  0  0
  149.1462  136.0196  155.1272 C   0  0  0  0  0  0  0  0  0  0  0  0
  148.9711  134.6631  155.4827 C   0  0  0  0  0  0  0  0  0  0  0  0
  150.0890  133.8404  155.7325 C   0  0  0  0  0  0  0  0  0  0  0  0
  151.3952  134.3612  155.6301 C   0  0  0  0  0  0  0  0  0  0  0  0
  151.5917  135.7105  155.2784 C   0  0  0  0  0  0  0  0  0  0  0  0
  150.4723  136.5278  155.0309 C   0  0  0  0  0  0  0  0  0  0  0  0
  151.0578  142.2974  158.7262 C   0  0  0  0  0  0  0  0  0  0  0  0
  149.7506  142.5915  158.0025 C   0  0  0  0  0  0  0  0  0  0  0  0
  151.8009  145.3927  160.0788 H   0  0  0  0  0  0  0  0  0  0  0  0
  150.1838  144.6947  160.1592 H   0  0  0  0  0  0  0  0  0  0  0  0
  150.9006  145.1064  158.5929 H   0  0  0  0  0  0  0  0  0  0  0  0
  153.3796  143.7829  160.7632 H   0  0  0  0  0  0  0  0  0  0  0  0
  154.3704  141.5277  160.6486 H   0  0  0  0  0  0  0  0  0  0  0  0
  152.7015  138.5743  159.4403 H   0  0  0  0  0  0  0  0  0  0  0  0
  154.2244  139.2184  160.0520 H   0  0  0  0  0  0  0  0  0  0  0  0
  153.9224  139.1796  158.3130 H   0  0  0  0  0  0  0  0  0  0  0  0
  150.0066  140.2076  156.1079 H   0  0  0  0  0  0  0  0  0  0  0  0
  151.3188  141.3509  156.3430 H   0  0  0  0  0  0  0  0  0  0  0  0
  152.2332  138.5425  156.4269 H   0  0  0  0  0  0  0  0  0  0  0  0
  153.0818  140.5441  154.6890 H   0  0  0  0  0  0  0  0  0  0  0  0
  150.9902  139.6482  153.8465 H   0  0  0  0  0  0  0  0  0  0  0  0
  152.1593  138.3591  153.8469 H   0  0  0  0  0  0  0  0  0  0  0  0
  147.7443  139.7580  154.9792 H   0  0  0  0  0  0  0  0  0  0  0  0
  149.2288  140.1203  154.1131 H   0  0  0  0  0  0  0  0  0  0  0  0
  148.3036  139.5063  152.2675 H   0  0  0  0  0  0  0  0  0  0  0  0
  147.9742  134.2553  155.5634 H   0  0  0  0  0  0  0  0  0  0  0  0
  149.9431  132.8052  156.0041 H   0  0  0  0  0  0  0  0  0  0  0  0
  152.2460  133.7242  155.8230 H   0  0  0  0  0  0  0  0  0  0  0  0
  152.5908  136.1126  155.2028 H   0  0  0  0  0  0  0  0  0  0  0  0
  149.2244  141.6808  157.7188 H   0  0  0  0  0  0  0  0  0  0  0  0
  149.9448  143.1672  157.0974 H   0  0  0  0  0  0  0  0  0  0  0  0
  149.0725  143.1632  158.6356 H   0  0  0  0  0  0  0  0  0  0  0  0
  1  2  1  0  0  0  0
  1 26  1  0  0  0  0
  1 27  1  0  0  0  0
  1 28  1  0  0  0  0
  2 24  1  0  0  0  0
  2  3  2  0  0  0  0
  3  4  1  0  0  0  0
  3 29  1  0  0  0  0
  4  5  2  0  0  0  0
  4 30  1  0  0  0  0
  5  6  1  0  0  0  0
  5  7  1  0  0  0  0
  6 31  1  0  0  0  0
  6 32  1  0  0  0  0
  6 33  1  0  0  0  0
  7  8  1  0  0  0  0
  7 24  2  0  0  0  0
  8  9  1  0  0  0  0
  9 10  1  0  0  0  0
  9 34  1  0  0  0  0
  9 35  1  0  0  0  0
 10 11  1  0  0  0  0
 10 12  1  0  0  0  0
 10 36  1  0  0  0  0
 11 37  1  0  0  0  0
 12 13  1  0  0  0  0
 12 38  1  0  0  0  0
 12 39  1  0  0  0  0
 13 23  1  0  0  0  0
 13 14  1  0  0  0  0
 14 15  1  0  0  0  0
 14 17  2  0  0  0  0
 15 16  1  0  0  0  0
 15 40  1  0  0  0  0
 15 41  1  0  0  0  0
 16 42  1  0  0  0  0
 17 18  1  0  0  0  0
 18 23  2  0  0  0  0
 18 19  1  0  0  0  0
 19 20  2  0  0  0  0
 19 43  1  0  0  0  0
 20 21  1  0  0  0  0
 20 44  1  0  0  0  0
 21 22  2  0  0  0  0
 21 45  1  0  0  0  0
 22 23  1  0  0  0  0
 22 46  1  0  0  0  0
 24 25  1  0  0  0  0
 25 47  1  0  0  0  0
 25 48  1  0  0  0  0
 25 49  1  0  0  0  0
M  END
> <s_m_source_file>
AV-unprocessed.smi

> <i_m_source_file_index>
490

> <i_lp_mmshare_version>
43012

> <i_f3d_flags>
0

> <s_epik_input>
W0NIM11jMVtjSF1bY0hdYyhbQ0gzXSljKGMxW0NIM10pT1tDSDJdW0NASF0oW09IXSlbQ0gyXW4oYyhuMilbQ0gyXVtPSF0pYyhjMjMpW2NIXVtjSF1bY0hdW2NIXTM=

> <s_epik_cmdline>
J2VwaWtfcHl0aG9uJywgJy1waCcsICc3LjAnLCAnLXRuJywgJzgnLCAnLW1hJywgJzIwMCcsICctbWV0YWxfYmluZGluZycsICctaW1hZScsICc8aW5maWxlLm1hZT4nLCAnLW9tYWUnLCAnPG91dGZpbGUubWFlPic=

> <r_lp_tautomer_probability>
1

> <r_epik_Ionization_Penalty>
0.0555874

> <r_epik_Ionization_Penalty_Charging>
0

> <r_epik_Ionization_Penalty_Neutral>
0.0555874

> <r_epik_State_Penalty>
0.0478234

> <r_epik_Charging_Adjusted_Penalty>
0.0478234

> <i_epik_Tot_Q>
0

> <i_epik_Tot_abs_Q>
0

> <r_epik_Metal_State_Penalty>
4.98044e-05

> <b_epik_Metal_Only>
0

> <s_lp_Force_Field>
OPLS_2005

> <r_lp_Energy>
19.7492

> <b_lp_Chiralities_Consistent>
1

> <s_lp_Variant>
AV-unprocessed.smi:490-1

> <Gold.Version>
5.8.1

> <Gold.Id.Protein>
6NUR|6NUR_protein|mol2

> <Gold.PLP.Fitness>
48.9249

> <Gold.PLP.PLP>
-45.3959

> <Gold.PLP.part.hbond>
-1.7636

> <Gold.PLP.part.metal>
0.0000

> <Gold.PLP.part.buried>
-5.1829

> <Gold.PLP.part.nonpolar>
-38.7622

> <Gold.PLP.part.repulsive>
0.0940

> <Gold.PLP.ligand.clash>
0.0000

> <Gold.PLP.ligand.torsion>
1.2730

> <Gold.PLP.Chemscore.Hbond>
1.9913

> <Gold.PLP.Chemscore.CHOScore>
0.0000

> <Gold.PLP.Chemscore.Metal>
0.0000

> <Gold.Chemscore.Hbonds>
donor molecule, donor type, donor heavy atom, donor atom, acceptor molecule, acceptor atom, score
      L1  H    16    42       P1  7957  1.00
      P1  H  7997  8009       L1    11  0.63

> <Gold.PLP.Chemscore.Internal.Correction>
0.1012

> <Gold.Rescore>
     Score         DG    S(hbond)    S(metal)    S(lipo)     H(rot)  DE(clash)    DE(int)     intcor
     17.41     -19.55       1.75        0.00     134.37       2.93       0.10       2.03       ----

> <Gold.Chemscore.Fitness>
17.4108

> <Gold.Chemscore.DG>
-19.5465

> <Gold.Chemscore.ZeroCoef>
-5.4800

> <Gold.Chemscore.Hbond>
1.7486

> <Gold.Chemscore.Metal>
0.0000

> <Gold.Chemscore.Lipo>
134.3733

> <Gold.Chemscore.Internal_Hbond>
0.0000

> <Gold.Chemscore.DEClash>
0.1044

> <Gold.Chemscore.DEInternal>
2.0313

> <Gold.Chemscore.Rot>
2.9279

> <Gold.Chemscore.Internal.Correction>
   9.000000E+99

> <Gold.Chemscore.Hbonds>
donor molecule, donor type, donor heavy atom, donor atom, acceptor molecule, acceptor atom, score
      L1  H    16    42       P1  7957  1.00
      P1  H  7997  8009       L1    11  0.62

> <Gold.Chemscore.Hbond.Weighted>
-5.8402

> <Gold.Chemscore.Metal.Weighted>
-0.0000

> <Gold.Chemscore.Lipo.Weighted>
-15.7217

> <Gold.Chemscore.Internal_Hbond.Weighted>
0.0000

> <Gold.Chemscore.DEClash.Weighted>
0.1044

> <Gold.Chemscore.DEInternal.Weighted>
2.0313

> <Gold.Chemscore.Rot.Weighted>
7.4954

> <Gold.Chemscore.Internal.Correction.Weighted>
   9.000000E+99

> <Gold.Protein.RotatedTorsions>
[ 6907 6896 6895 6894 ] final  151.13 input  -60.11 | X-H torsion
[ 7974 7965 7964 7962 ] final  -11.70 input  175.53 | X-H torsion
[ 8008 7997 7996 7995 ] final -164.67 input   59.86 | X-H torsion
[ 10167 10162 10161 10158 ] final -114.19 input  -65.29 | X-H torsion
[ 10718 10713 10712 10709 ] final -152.87 input   66.30 | X-H torsion
[ 10763 10752 10751 10750 ] final -168.07 input  -60.55 | X-H torsion
[ 11005 11000 10999 10996 ] final  -24.71 input  -57.11 | X-H torsion

> <Gold.Protein.ActiveResidues>
 VAL166  LYS551  ARG553  GLY616  TRP617  ASP618  TYR619  PRO620  LYS621  CYS622 
 ASP623  PHE694  ASN695  SER759  ASP760  ASP761  ALA762  ILE779  LEU786  VAL792 
 PHE793  MET794  SER795  GLU796  ALA797  LYS798  CYS799  TRP800  GLU811  SER814 

> <Gold.Protein.RotatedAtoms>
  152.1049  133.4269  159.4603 H   0  0  0  0  0  0  0  0  0  0  0  0  # atno 6907 bound_to 6896
  150.6865  134.2717  159.4600 H   0  0  0  0  0  0  0  0  0  0  0  0  # atno 6908 bound_to 6896
  152.0581  134.9611  160.0625 H   0  0  0  0  0  0  0  0  0  0  0  0  # atno 6909 bound_to 6896
  146.2178  140.2950  142.8371 H   0  0  0  0  0  0  0  0  0  0  0  0  # atno 7974 bound_to 7965
  155.8389  140.0945  157.1746 H   0  0  0  0  0  0  0  0  0  0  0  0  # atno 8008 bound_to 7997
  154.3981  140.1405  156.3766 H   0  0  0  0  0  0  0  0  0  0  0  0  # atno 8009 bound_to 7997
  155.8085  140.3450  155.5446 H   0  0  0  0  0  0  0  0  0  0  0  0  # atno 8010 bound_to 7997
  140.1036  143.4590  152.1796 H   0  0  0  0  0  0  0  0  0  0  0  0  # atno 10167 bound_to 10162
  156.4783  130.8291  151.2519 H   0  0  0  0  0  0  0  0  0  0  0  0  # atno 10718 bound_to 10713
  154.6666  135.2933  154.9797 H   0  0  0  0  0  0  0  0  0  0  0  0  # atno 10763 bound_to 10752
  154.0838  135.6600  153.4846 H   0  0  0  0  0  0  0  0  0  0  0  0  # atno 10764 bound_to 10752
  153.0461  135.5203  154.7642 H   0  0  0  0  0  0  0  0  0  0  0  0  # atno 10765 bound_to 10752
  140.8871  133.7614  156.0374 H   0  0  0  0  0  0  0  0  0  0  0  0  # atno 11005 bound_to 11000
  144.9099  140.7744  143.5814 LP  0  0  0  0  0  0  0  0  0  0  0  0  # atno 17320 bound_to 7965
  145.2880  139.1894  143.4755 LP  0  0  0  0  0  0  0  0  0  0  0  0  # atno 17321 bound_to 7965
  139.5657  144.7434  151.4028 LP  0  0  0  0  0  0  0  0  0  0  0  0  # atno 17342 bound_to 10162
  140.6964  143.7738  150.7333 LP  0  0  0  0  0  0  0  0  0  0  0  0  # atno 17343 bound_to 10162
  157.7485  131.0053  150.3110 LP  0  0  0  0  0  0  0  0  0  0  0  0  # atno 17370 bound_to 10713
  156.3548  130.3837  149.7300 LP  0  0  0  0  0  0  0  0  0  0  0  0  # atno 17371 bound_to 10713
  140.8392  134.3087  157.5320 LP  0  0  0  0  0  0  0  0  0  0  0  0  # atno 17394 bound_to 11000
  139.8725  134.9406  156.3775 LP  0  0  0  0  0  0  0  0  0  0  0  0  # atno 17395 bound_to 11000

$$$$
