#       Name:                AV-unprocessed.smi:2675
#       Creating user name   scv26
#       Creation time:       Fri Mar 27 14:38:57 2020


#       File generated by GOLD software.
#

@<TRIPOS>MOLECULE
AV-unprocessed.smi:2675
    40    41     1
SMALL
NO_CHARGES


@<TRIPOS>ATOM
      1 ****        -2.7809   3.0842  -1.0032 C.3            1 S1                 0.0000
      2 ****        -2.5242   1.6719  -0.5778 C.2            1 S1                 0.0000
      3 ****        -2.9054   1.2148   0.6815 N.2            1 S1                 0.0000
      4 ****        -2.5157  -0.0520   0.6893 C.2            1 S1                 0.0000
      5 ****        -1.9145  -0.4573  -0.4382 N.pl3          1 S1                 0.0000
      6 ****        -1.3656  -1.7790  -0.6997 C.3            1 S1                 0.0000
      7 ****         0.1513  -1.7916  -0.5051 C.2            1 S1                 0.0000
      8 ****         0.8868  -2.0375  -1.4597 O.2            1 S1                 0.0000
      9 ****         0.5924  -1.4973   0.7308 N.am           1 S1                 0.0000
     10 ****         1.9731  -1.3156   1.1940 C.3            1 S1                 0.0000
     11 ****         1.9545  -1.6001   2.7050 C.3            1 S1                 0.0000
     12 ****         2.8983  -2.2796   0.5661 C.1            1 S1                 0.0000
     13 ****         3.6256  -3.0356   0.0768 N.1            1 S1                 0.0000
     14 ****         2.5424   0.0878   0.9714 C.3            1 S1                 0.0000
     15 ****         1.6701   1.3248   0.9816 C.3            1 S1                 0.0000
     16 ****         2.3493   0.8892  -0.2977 C.3            1 S1                 0.0000
     17 ****        -1.9145   0.6539  -1.2800 C.2            1 S1                 0.0000
     18 ****        -1.3344   0.6453  -2.6579 C.3            1 S1                 0.0000
     19 ****        -3.2805   3.1188  -1.9714 H              1 S1                 0.0000
     20 ****        -1.8482   3.6415  -1.0913 H              1 S1                 0.0000
     21 ****        -3.4142   3.6106  -0.2885 H              1 S1                 0.0000
     22 ****        -2.6619  -0.6991   1.5418 H              1 S1                 0.0000
     23 ****        -1.8290  -2.5018  -0.0270 H              1 S1                 0.0000
     24 ****        -1.6216  -2.0769  -1.7172 H              1 S1                 0.0000
     25 ****        -0.1180  -1.3231   1.4267 H              1 S1                 0.0000
     26 ****         2.9528  -1.5172   3.1364 H              1 S1                 0.0000
     27 ****         1.5925  -2.6074   2.9151 H              1 S1                 0.0000
     28 ****         1.3084  -0.8985   3.2346 H              1 S1                 0.0000
     29 ****         3.5234   0.2111   1.4275 H              1 S1                 0.0000
     30 ****         0.5906   1.2000   1.0392 H              1 S1                 0.0000
     31 ****         2.0607   2.2084   1.4820 H              1 S1                 0.0000
     32 ****         3.1910   1.4852  -0.6441 H              1 S1                 0.0000
     33 ****         1.7156   0.4915  -1.0851 H              1 S1                 0.0000
     34 ****        -1.4713   1.6089  -3.1488 H              1 S1                 0.0000
     35 ****        -1.8124  -0.1147  -3.2762 H              1 S1                 0.0000
     36 ****        -0.2652   0.4358  -2.6292 H              1 S1                 0.0000
     37 ****        -3.3655   1.7234   1.4093 LP             1 S1                 0.0000
     38 ****         0.4924  -2.2281  -2.3587 LP             1 S1                 0.0000
     39 ****         1.8792  -2.0468  -1.3369 LP             1 S1                 0.0000
     40 ****         4.2539  -3.6887  -0.3460 LP             1 S1                 0.0000
@<TRIPOS>BOND
    1    1    2 1     
    2    1   19 1     
    3    1   20 1     
    4    1   21 1     
    5    2   17 2     
    6    2    3 1     
    7    3    4 2     
    8    4    5 1     
    9    4   22 1     
   10    5    6 1     
   11    5   17 1     
   12    6    7 1     
   13    6   23 1     
   14    6   24 1     
   15    7    8 2     
   16    7    9 am    
   17    9   10 1     
   18    9   25 1     
   19   10   11 1     
   20   10   12 1     
   21   10   14 1     
   22   11   26 1     
   23   11   27 1     
   24   11   28 1     
   25   12   13 3     
   26   14   16 1     
   27   14   15 1     
   28   14   29 1     
   29   15   16 1     
   30   15   30 1     
   31   15   31 1     
   32   16   32 1     
   33   16   33 1     
   34   17   18 1     
   35   18   34 1     
   36   18   35 1     
   37   18   36 1     
   38    3   37 1     
   39    8   38 1     
   40    8   39 1     
   41   13   40 1     
@<TRIPOS>SUBSTRUCTURE
      1 S1             1
@<TRIPOS>SET
LONE_PAIRS      STATIC     ATOMS    <user>   **** ""
4 37 38 39 40
DONOR_HYDROGENS      STATIC     ATOMS    <user>   **** ""
1 25
ATOM$BLUE        STATIC     ATOMS    COLORGROUP SYSTEM
4 37 38 39 40
ATOM$RED        STATIC     ATOMS    COLORGROUP SYSTEM
1 25
