#       Name:                AV-unprocessed.smi:1429
#       Creating user name   scv26
#       Creation time:       Fri Mar 27 05:47:48 2020


#       File generated by GOLD software.
#

@<TRIPOS>MOLECULE
AV-unprocessed.smi:1429
    36    37     1
SMALL
NO_CHARGES


@<TRIPOS>ATOM
      1 ****        -6.4165   1.9844   1.3316 C.3            1 S1                 0.0000
      2 ****        -5.1021   1.7072   0.6864 C.2            1 S1                 0.0000
      3 ****        -4.9942   1.2750  -0.5721 N.2            1 S1                 0.0000
      4 ****        -3.6721   1.0895  -0.9493 N.2            1 S1                 0.0000
      5 ****        -2.8009   1.3734   0.0293 C.2            1 S1                 0.0000
      6 ****        -1.4725   1.2617  -0.1364 N.pl3          1 S1                -1.0000
      7 ****        -0.8229   0.1684   0.3242 C.2            1 S1                 0.0000
      8 ****        -1.3267  -0.7824   0.9269 O.2            1 S1                 0.0000
      9 ****         0.4925   0.1763   0.0718 N.am           1 S1                 0.0000
     10 ****         1.4285  -0.8755   0.4489 C.3            1 S1                 0.0000
     11 ****         2.8095  -0.6333  -0.1817 C.3            1 S1                 0.0000
     12 ****         3.8349  -1.6963   0.1541 C.3            1 S1                 0.0000
     13 ****         4.8825  -1.4720  -0.9313 C.3            1 S1                 0.0000
     14 ****         4.1615  -1.0300  -2.0775 O.3            1 S1                 0.0000
     15 ****         2.8304  -0.6748  -1.7117 C.3            1 S1                 0.0000
     16 ****        -3.5709   1.9234   1.5176 S.3            1 S1                 0.0000
     17 ****        -6.9765   1.0569   1.4512 H              1 S1                 0.0000
     18 ****        -6.9983   2.6712   0.7164 H              1 S1                 0.0000
     19 ****        -6.2701   2.4335   2.3139 H              1 S1                 0.0000
     20 ****         0.8682   0.9716  -0.4235 H              1 S1                 0.0000
     21 ****         1.5141  -0.8996   1.5361 H              1 S1                 0.0000
     22 ****         1.0375  -1.8452   0.1361 H              1 S1                 0.0000
     23 ****         3.1951   0.3332   0.1482 H              1 S1                 0.0000
     24 ****         4.2401  -1.5994   1.1618 H              1 S1                 0.0000
     25 ****         3.4005  -2.6920   0.0538 H              1 S1                 0.0000
     26 ****         5.5759  -0.6847  -0.6329 H              1 S1                 0.0000
     27 ****         5.4614  -2.3707  -1.1454 H              1 S1                 0.0000
     28 ****         2.1556  -1.4454  -2.0874 H              1 S1                 0.0000
     29 ****         2.5369   0.2758  -2.1578 H              1 S1                 0.0000
     30 ****        -5.7754   1.1048  -1.1729 LP             1 S1                 0.0000
     31 ****        -3.3971   0.7761  -1.8583 LP             1 S1                 0.0000
     32 ****        -0.9639   1.9870  -0.6004 LP             1 S1                 0.0000
     33 ****        -2.3085  -0.7904   1.1168 LP             1 S1                 0.0000
     34 ****        -0.7535  -1.5454   1.2256 LP             1 S1                 0.0000
     35 ****         4.1334  -1.7654  -2.7546 LP             1 S1                 0.0000
     36 ****         4.6205  -0.2330  -2.4700 LP             1 S1                 0.0000
@<TRIPOS>BOND
    1    1    2 1     
    2    1   17 1     
    3    1   18 1     
    4    1   19 1     
    5    2   16 1     
    6    2    3 2     
    7    3    4 1     
    8    4    5 2     
    9    5    6 1     
   10    5   16 1     
   11    6    7 1     
   12    7    8 2     
   13    7    9 am    
   14    9   10 1     
   15    9   20 1     
   16   10   11 1     
   17   10   21 1     
   18   10   22 1     
   19   11   15 1     
   20   11   12 1     
   21   11   23 1     
   22   12   13 1     
   23   12   24 1     
   24   12   25 1     
   25   13   14 1     
   26   13   26 1     
   27   13   27 1     
   28   14   15 1     
   29   15   28 1     
   30   15   29 1     
   31    3   30 1     
   32    4   31 1     
   33    6   32 1     
   34    8   33 1     
   35    8   34 1     
   36   14   35 1     
   37   14   36 1     
@<TRIPOS>SUBSTRUCTURE
      1 S1             1
@<TRIPOS>SET
LONE_PAIRS      STATIC     ATOMS    <user>   **** ""
7 30 31 32 33 34 35 36
DONOR_HYDROGENS      STATIC     ATOMS    <user>   **** ""
1 20
ATOM$BLUE        STATIC     ATOMS    COLORGROUP SYSTEM
7 30 31 32 33 34 35 36
ATOM$RED        STATIC     ATOMS    COLORGROUP SYSTEM
1 20
