#       Name:                AV-unprocessed.smi:21
#       Creating user name   scv26
#       Creation time:       Thu Mar 26 15:31:25 2020


#       File generated by GOLD software.
#

@<TRIPOS>MOLECULE
AV-unprocessed.smi:21
    72    75     1
SMALL
NO_CHARGES


@<TRIPOS>ATOM
      1 ****        -3.4289  -3.3143  -4.4651 C.3            1 S1                 0.0000
      2 ****        -3.6530  -1.9856  -4.0223 O.3            1 S1                 0.0000
      3 ****        -3.0198  -1.6872  -2.7872 C.3            1 S1                 0.0000
      4 ****        -3.1157  -0.1981  -2.4845 C.3            1 S1                 0.0000
      5 ****        -2.9290  -0.1469  -0.9665 C.3            1 S1                 0.0000
      6 ****        -3.5125   1.1291  -0.3207 C.3            1 S1                 0.0000
      7 ****        -2.8294   2.3559  -0.7289 N.3            1 S1                 0.0000
      8 ****        -3.5069   3.6174  -0.4629 C.3            1 S1                 0.0000
      9 ****        -1.4868   2.4409  -0.5641 C.ar           1 S1                 0.0000
     10 ****        -0.7904   3.0936  -1.5284 N.ar           1 S1                 0.0000
     11 ****         0.5395   3.1944  -1.4470 C.ar           1 S1                 0.0000
     12 ****         1.3556   2.7226  -0.5027 N.ar           1 S1                 0.0000
     13 ****         0.6591   2.0783   0.4766 C.ar           1 S1                 0.0000
     14 ****        -0.7520   1.8981   0.5311 C.ar           1 S1                 0.0000
     15 ****        -1.0910   1.2027   1.6873 N.2            1 S1                 0.0000
     16 ****         0.0520   0.9753   2.2739 C.2            1 S1                 0.0000
     17 ****         1.1553   1.4554   1.6070 N.pl3          1 S1                 0.0000
     18 ****         2.5429   1.3315   2.0135 C.3            1 S1                 0.0000
     19 ****         3.3297   0.2749   1.1995 C.3            1 S1                 0.0000
     20 ****         2.7256  -1.1498   1.3085 C.3            1 S1                 0.0000
     21 ****         1.6040  -1.3134   0.4637 O.3            1 S1                 0.0000
     22 ****         4.8330   0.3332   1.5740 C.3            1 S1                 0.0000
     23 ****         5.1943  -0.1693   2.9684 C.3            1 S1                 0.0000
     24 ****         6.6208  -0.6641   2.7771 C.3            1 S1                 0.0000
     25 ****         6.5672  -1.2751   1.4994 O.3            1 S1                 0.0000
     26 ****         5.7769  -0.4540   0.6471 C.3            1 S1                 0.0000
     27 ****        -3.5925  -1.3687  -0.4556 N.4            1 S1                 1.0000
     28 ****        -2.9581  -1.9379   0.7537 C.3            1 S1                 0.0000
     29 ****        -3.7143  -2.3291  -1.5783 C.3            1 S1                 0.0000
     30 ****        -1.9659  -1.9716  -2.8108 H              1 S1                 0.0000
     31 ****        -1.8619  -0.2401  -0.7590 H              1 S1                 0.0000
     32 ****        -3.9276  -3.4676  -5.4220 H              1 S1                 0.0000
     33 ****        -3.8272  -4.0452  -3.7606 H              1 S1                 0.0000
     34 ****        -2.3651  -3.5086  -4.6071 H              1 S1                 0.0000
     35 ****        -2.3733   0.3918  -3.0232 H              1 S1                 0.0000
     36 ****        -4.1042   0.1750  -2.7574 H              1 S1                 0.0000
     37 ****        -4.5657   1.2134  -0.5914 H              1 S1                 0.0000
     38 ****        -3.4958   1.0537   0.7661 H              1 S1                 0.0000
     39 ****        -3.1780   4.3905  -1.1580 H              1 S1                 0.0000
     40 ****        -3.3032   3.9582   0.5529 H              1 S1                 0.0000
     41 ****        -4.5861   3.5099  -0.5743 H              1 S1                 0.0000
     42 ****         1.0189   3.7250  -2.2566 H              1 S1                 0.0000
     43 ****         0.1237   0.4365   3.2074 H              1 S1                 0.0000
     44 ****         3.0065   2.3130   1.9078 H              1 S1                 0.0000
     45 ****         2.5716   1.0903   3.0767 H              1 S1                 0.0000
     46 ****         3.2792   0.5702   0.1499 H              1 S1                 0.0000
     47 ****         3.4518  -1.9094   1.0215 H              1 S1                 0.0000
     48 ****         2.4330  -1.3718   2.3349 H              1 S1                 0.0000
     49 ****         1.3172  -2.2121   0.5198 H              1 S1                 0.0000
     50 ****         5.1514   1.3756   1.5144 H              1 S1                 0.0000
     51 ****         5.1153   0.6039   3.7331 H              1 S1                 0.0000
     52 ****         4.5646  -1.0054   3.2703 H              1 S1                 0.0000
     53 ****         7.3270   0.1671   2.7593 H              1 S1                 0.0000
     54 ****         6.9316  -1.3682   3.5493 H              1 S1                 0.0000
     55 ****         5.2564  -1.0673  -0.0880 H              1 S1                 0.0000
     56 ****         6.4275   0.2284   0.0986 H              1 S1                 0.0000
     57 ****        -1.9356  -2.2581   0.5487 H              1 S1                 0.0000
     58 ****        -3.5226  -2.8001   1.1098 H              1 S1                 0.0000
     59 ****        -2.9310  -1.2012   1.5569 H              1 S1                 0.0000
     60 ****        -4.7772  -2.4679  -1.7791 H              1 S1                 0.0000
     61 ****        -3.2937  -3.3093  -1.3485 H              1 S1                 0.0000
     62 ****        -4.5356  -1.1064  -0.2062 H              1 S1                 0.0000
     63 ****        -4.6378  -1.8496  -3.9144 LP             1 S1                 0.0000
     64 ****        -3.3039  -1.3570  -4.7173 LP             1 S1                 0.0000
     65 ****        -2.9277   2.2043  -1.7125 LP             1 S1                 0.0000
     66 ****        -1.2743   3.5008  -2.3031 LP             1 S1                 0.0000
     67 ****         2.3500   2.8279  -0.5120 LP             1 S1                 0.0000
     68 ****        -2.0037   0.9373   1.9982 LP             1 S1                 0.0000
     69 ****         1.8571  -1.0979  -0.4794 LP             1 S1                 0.0000
     70 ****         0.8674  -0.7047   0.7585 LP             1 S1                 0.0000
     71 ****         6.1530  -2.1822   1.5749 LP             1 S1                 0.0000
     72 ****         7.4909  -1.3606   1.1259 LP             1 S1                 0.0000
@<TRIPOS>BOND
    1    1    2 1     
    2    1   32 1     
    3    1   33 1     
    4    1   34 1     
    5    2    3 1     
    6    3   30 1     
    7    3   29 1     
    8    3    4 1     
    9    4    5 1     
   10    4   35 1     
   11    4   36 1     
   12    5   31 1     
   13    5    6 1     
   14    5   27 1     
   15    6    7 1     
   16    6   37 1     
   17    6   38 1     
   18    7    8 1     
   19    7    9 1     
   20    8   39 1     
   21    8   40 1     
   22    8   41 1     
   23    9   14 ar    
   24    9   10 ar    
   25   10   11 ar    
   26   11   12 ar    
   27   11   42 1     
   28   12   13 ar    
   29   13   17 1     
   30   13   14 ar    
   31   14   15 1     
   32   15   16 2     
   33   16   17 1     
   34   16   43 1     
   35   17   18 1     
   36   18   19 1     
   37   18   44 1     
   38   18   45 1     
   39   19   20 1     
   40   19   22 1     
   41   19   46 1     
   42   20   21 1     
   43   20   47 1     
   44   20   48 1     
   45   21   49 1     
   46   22   26 1     
   47   22   23 1     
   48   22   50 1     
   49   23   24 1     
   50   23   51 1     
   51   23   52 1     
   52   24   25 1     
   53   24   53 1     
   54   24   54 1     
   55   25   26 1     
   56   26   55 1     
   57   26   56 1     
   58   27   28 1     
   59   27   29 1     
   60   27   62 1     
   61   28   57 1     
   62   28   58 1     
   63   28   59 1     
   64   29   60 1     
   65   29   61 1     
   66    2   63 1     
   67    2   64 1     
   68    7   65 1     
   69   10   66 1     
   70   12   67 1     
   71   15   68 1     
   72   21   69 1     
   73   21   70 1     
   74   25   71 1     
   75   25   72 1     
@<TRIPOS>SUBSTRUCTURE
      1 S1             1
@<TRIPOS>SET
LONE_PAIRS      STATIC     ATOMS    <user>   **** ""
10 63 64 65 66 67 68 69 70 71 72
DONOR_HYDROGENS      STATIC     ATOMS    <user>   **** ""
2 49 62
ATOM$BLUE        STATIC     ATOMS    COLORGROUP SYSTEM
10 63 64 65 66 67 68 69 70 71 72
ATOM$RED        STATIC     ATOMS    COLORGROUP SYSTEM
2 49 62
