AV-unprocessed.smi:113|AV-procd|sdf|1101|dock10
  -GOLD-   2262018213D 1   1.00000     0.00000
 Structure written by MMmdl.
 53 56  0  0  0  0  0  0  0  0  2 V2000
  149.0120  141.5508  154.6947 C   0  0  0  0  0  0  0  0  0  0  0  0
  149.9477  141.3903  155.8739 C   0  0  0  0  0  0  0  0  0  0  0  0
  150.4053  140.1286  156.3001 C   0  0  0  0  0  0  0  0  0  0  0  0
  151.2763  140.0304  157.4135 C   0  0  0  0  0  0  0  0  0  0  0  0
  151.7864  138.6700  157.9014 C   0  0  0  0  0  0  0  0  0  0  0  0
  150.9240  137.5219  157.6597 N   0  0  0  0  0  0  0  0  0  0  0  0
  149.8606  137.2871  158.5648 C   0  0  0  0  0  0  0  0  0  0  0  0
  149.6682  138.0190  159.5382 O   0  0  0  0  0  0  0  0  0  0  0  0
  149.0374  136.1135  158.2643 C   0  0  0  0  0  0  0  0  0  0  0  0
  147.8475  135.8231  159.1656 C   0  0  0  0  0  0  0  0  0  0  0  0
  149.3492  135.3262  157.2065 C   0  0  0  0  0  0  0  0  0  0  0  0
  150.4276  135.5475  156.3673 N   0  0  0  0  0  0  0  0  0  0  0  0
  150.6650  134.6080  155.2017 C   0  0  2  0  0  0  0  0  0  0  0  0
  149.4909  134.5381  154.2180 C   0  0  0  0  0  0  0  0  0  0  0  0
  149.5489  133.0839  153.7981 C   0  0  2  0  0  0  0  0  0  0  0  0
  148.2825  132.6344  153.3615 O   0  0  0  0  0  0  0  0  0  0  0  0
  150.0075  132.3809  155.0802 C   0  0  1  0  0  0  0  0  0  0  0  0
  150.7494  131.0613  154.8188 C   0  0  0  0  0  0  0  0  0  0  0  0
  149.9233  130.1740  154.0956 O   0  0  0  0  0  0  0  0  0  0  0  0
  150.8922  133.3197  155.6935 O   0  0  0  0  0  0  0  0  0  0  0  0
  151.2385  136.6876  156.5635 C   0  0  0  0  0  0  0  0  0  0  0  0
  152.1887  136.9362  155.8190 O   0  0  0  0  0  0  0  0  0  0  0  0
  151.6682  141.2294  158.0701 C   0  0  0  0  0  0  0  0  0  0  0  0
  152.5389  141.2286  159.1862 C   0  0  0  0  0  0  0  0  0  0  0  0
  152.9007  142.4377  159.8117 C   0  0  0  0  0  0  0  0  0  0  0  0
  152.4008  143.6627  159.3322 C   0  0  0  0  0  0  0  0  0  0  0  0
  151.5357  143.6819  158.2227 C   0  0  0  0  0  0  0  0  0  0  0  0
  151.1722  142.4738  157.5955 C   0  0  0  0  0  0  0  0  0  0  0  0
  150.3423  142.4994  156.5314 N   0  3  0  0  0  0  0  0  0  0  0  0
  149.1050  140.7085  154.0084 H   0  0  0  0  0  0  0  0  0  0  0  0
  149.2362  142.4636  154.1418 H   0  0  0  0  0  0  0  0  0  0  0  0
  147.9786  141.6005  155.0381 H   0  0  0  0  0  0  0  0  0  0  0  0
  150.0790  139.2492  155.7653 H   0  0  0  0  0  0  0  0  0  0  0  0
  152.7601  138.4544  157.4592 H   0  0  0  0  0  0  0  0  0  0  0  0
  151.9815  138.7009  158.9747 H   0  0  0  0  0  0  0  0  0  0  0  0
  147.2948  134.9428  158.8371 H   0  0  0  0  0  0  0  0  0  0  0  0
  147.1561  136.6668  159.1705 H   0  0  0  0  0  0  0  0  0  0  0  0
  148.1789  135.6459  160.1895 H   0  0  0  0  0  0  0  0  0  0  0  0
  148.7186  134.4698  157.0147 H   0  0  0  0  0  0  0  0  0  0  0  0
  151.5798  134.9457  154.7143 H   0  0  0  0  0  0  0  0  0  0  0  0
  148.5467  134.7698  154.7093 H   0  0  0  0  0  0  0  0  0  0  0  0
  149.6309  135.2359  153.3921 H   0  0  0  0  0  0  0  0  0  0  0  0
  150.2873  132.9570  153.0048 H   0  0  0  0  0  0  0  0  0  0  0  0
  148.3279  132.4631  152.4330 H   0  0  0  0  0  0  0  0  0  0  0  0
  149.1489  132.2212  155.7346 H   0  0  0  0  0  0  0  0  0  0  0  0
  151.6378  131.2447  154.2135 H   0  0  0  0  0  0  0  0  0  0  0  0
  151.0810  130.6004  155.7496 H   0  0  0  0  0  0  0  0  0  0  0  0
  150.0349  129.3041  154.4479 H   0  0  0  0  0  0  0  0  0  0  0  0
  152.9432  140.3092  159.5818 H   0  0  0  0  0  0  0  0  0  0  0  0
  153.5651  142.4247  160.6636 H   0  0  0  0  0  0  0  0  0  0  0  0
  152.6815  144.5872  159.8155 H   0  0  0  0  0  0  0  0  0  0  0  0
  151.1551  144.6253  157.8584 H   0  0  0  0  0  0  0  0  0  0  0  0
  149.9973  143.4029  156.2077 H   0  0  0  0  0  0  0  0  0  0  0  0
  1  2  1  0  0  0  0
  1 30  1  0  0  0  0
  1 31  1  0  0  0  0
  1 32  1  0  0  0  0
  2 29  1  0  0  0  0
  2  3  2  0  0  0  0
  3  4  1  0  0  0  0
  3 33  1  0  0  0  0
  4  5  1  0  0  0  0
  4 23  2  0  0  0  0
  5  6  1  0  0  0  0
  5 34  1  0  0  0  0
  5 35  1  0  0  0  0
  6 21  1  0  0  0  0
  6  7  1  0  0  0  0
  7  8  2  0  0  0  0
  7  9  1  0  0  0  0
  9 10  1  0  0  0  0
  9 11  2  0  0  0  0
 10 36  1  0  0  0  0
 10 37  1  0  0  0  0
 10 38  1  0  0  0  0
 11 12  1  0  0  0  0
 11 39  1  0  0  0  0
 12 13  1  0  0  0  0
 12 21  1  0  0  0  0
 13 20  1  0  0  0  0
 13 14  1  0  0  0  0
 13 40  1  0  0  0  0
 14 15  1  0  0  0  0
 14 41  1  0  0  0  0
 14 42  1  0  0  0  0
 15 16  1  0  0  0  0
 15 17  1  0  0  0  0
 15 43  1  0  0  0  0
 16 44  1  0  0  0  0
 17 18  1  0  0  0  0
 17 20  1  0  0  0  0
 17 45  1  0  0  0  0
 18 19  1  0  0  0  0
 18 46  1  0  0  0  0
 18 47  1  0  0  0  0
 19 48  1  0  0  0  0
 21 22  2  0  0  0  0
 23 28  1  0  0  0  0
 23 24  1  0  0  0  0
 24 25  2  0  0  0  0
 24 49  1  0  0  0  0
 25 26  1  0  0  0  0
 25 50  1  0  0  0  0
 26 27  2  0  0  0  0
 26 51  1  0  0  0  0
 27 28  1  0  0  0  0
 27 52  1  0  0  0  0
 28 29  2  0  0  0  0
 29 53  1  0  0  0  0
M  CHG  1  29   1
M  END
> <s_m_source_file>
AV-unprocessed.smi

> <i_m_source_file_index>
113

> <i_lp_mmshare_version>
43012

> <i_f3d_flags>
0

> <s_epik_input>
W2NIXTFbY0hdW2NIXVtjSF1jKGMxMiluYyhbQ0gzXSlbY0hdYzJbQ0gyXW4zYyg9TyljKFtDSDNdKVtjSF1uKGMzPU8pW0NAQEhdNFtDSDJdW0NAQEhdKFtPSF0pW0NASF0oTzQpW0NIMl1bT0hd

> <s_epik_cmdline>
J2VwaWtfcHl0aG9uJywgJy1waCcsICc3LjAnLCAnLXRuJywgJzgnLCAnLW1hJywgJzIwMCcsICctbWV0YWxfYmluZGluZycsICctaW1hZScsICc8aW5maWxlLm1hZT4nLCAnLW9tYWUnLCAnPG91dGZpbGUubWFlPic=

> <r_lp_tautomer_probability>
1

> <r_epik_Ionization_Penalty>
0.705471

> <r_epik_Ionization_Penalty_Charging>
0.70547

> <r_epik_Ionization_Penalty_Neutral>
1.19947e-07

> <r_epik_State_Penalty>
0.728574

> <r_epik_Charging_Adjusted_Penalty>
1.43404

> <i_epik_Tot_Q>
1

> <i_epik_Tot_abs_Q>
1

> <r_epik_Metal_State_Penalty>
4.61665

> <b_epik_Metal_Only>
0

> <s_epik_Chemistry_Notes>
This compound contains an acetal/aminal-like group ( X-CH(R)-Y where X, Y are N, S, or O) that may be acid/base labile, releasing an aldehyde.

> <s_lp_Force_Field>
OPLS_2005

> <r_lp_Energy>
36.4748

> <b_lp_Chiralities_Consistent>
1

> <s_lp_Variant>
AV-unprocessed.smi:113-11

> <Gold.Version>
5.8.1

> <Gold.Id.Protein>
6NUR|6NUR_protein|mol2

> <Gold.PLP.Fitness>
57.6093

> <Gold.PLP.PLP>
-49.9423

> <Gold.PLP.part.hbond>
-3.6432

> <Gold.PLP.part.metal>
0.0000

> <Gold.PLP.part.buried>
-4.4455

> <Gold.PLP.part.nonpolar>
-40.6052

> <Gold.PLP.part.repulsive>
0.1166

> <Gold.PLP.ligand.clash>
0.0000

> <Gold.PLP.ligand.torsion>
0.6814

> <Gold.PLP.Chemscore.Hbond>
3.0000

> <Gold.PLP.Chemscore.CHOScore>
0.0000

> <Gold.PLP.Chemscore.Metal>
0.0000

> <Gold.Chemscore.Hbonds>
donor molecule, donor type, donor heavy atom, donor atom, acceptor molecule, acceptor atom, score
      L1  H    29    53       P1  8028  2.00
      P1  H 10752 10765       L1    22  0.99

> <Gold.PLP.Chemscore.Internal.Correction>
0.0297

> <Gold.Rescore>
     Score         DG    S(hbond)    S(metal)    S(lipo)     H(rot)  DE(clash)    DE(int)     intcor
     17.79     -18.46       1.99        0.00     119.90       3.01       0.00       0.67       ----

> <Gold.Chemscore.Fitness>
17.7873

> <Gold.Chemscore.DG>
-18.4588

> <Gold.Chemscore.ZeroCoef>
-5.4800

> <Gold.Chemscore.Hbond>
1.9944

> <Gold.Chemscore.Metal>
0.0000

> <Gold.Chemscore.Lipo>
119.9004

> <Gold.Chemscore.Internal_Hbond>
0.0000

> <Gold.Chemscore.DEClash>
0.0004

> <Gold.Chemscore.DEInternal>
0.6710

> <Gold.Chemscore.Rot>
3.0120

> <Gold.Chemscore.Internal.Correction>
   9.000000E+99

> <Gold.Chemscore.Hbonds>
donor molecule, donor type, donor heavy atom, donor atom, acceptor molecule, acceptor atom, score
      L1  H    29    53       P1  8028  1.00
      P1  H 10752 10765       L1    22  0.92

> <Gold.Chemscore.Hbond.Weighted>
-6.6612

> <Gold.Chemscore.Metal.Weighted>
-0.0000

> <Gold.Chemscore.Lipo.Weighted>
-14.0283

> <Gold.Chemscore.Internal_Hbond.Weighted>
0.0000

> <Gold.Chemscore.DEClash.Weighted>
0.0004

> <Gold.Chemscore.DEInternal.Weighted>
0.6710

> <Gold.Chemscore.Rot.Weighted>
7.7108

> <Gold.Chemscore.Internal.Correction.Weighted>
   9.000000E+99

> <Gold.Protein.RotatedTorsions>
[ 6907 6896 6895 6894 ] final -109.40 input  -60.11 | X-H torsion
[ 7974 7965 7964 7962 ] final   96.93 input  175.53 | X-H torsion
[ 8008 7997 7996 7995 ] final  -43.09 input   59.86 | X-H torsion
[ 10167 10162 10161 10158 ] final  -82.28 input  -65.29 | X-H torsion
[ 10718 10713 10712 10709 ] final -175.80 input   66.30 | X-H torsion
[ 10763 10752 10751 10750 ] final -158.57 input  -60.55 | X-H torsion
[ 11005 11000 10999 10996 ] final   53.22 input  -57.11 | X-H torsion

> <Gold.Protein.ActiveResidues>
 VAL166  LYS551  ARG553  GLY616  TRP617  ASP618  TYR619  PRO620  LYS621  CYS622 
 ASP623  PHE694  ASN695  SER759  ASP760  ASP761  ALA762  ILE779  LEU786  VAL792 
 PHE793  MET794  SER795  GLU796  ALA797  LYS798  CYS799  TRP800  GLU811  SER814 

> <Gold.Protein.RotatedAtoms>
  150.7560  133.9535  159.3492 H   0  0  0  0  0  0  0  0  0  0  0  0  # atno 6907 bound_to 6896
  151.7454  135.0843  160.0332 H   0  0  0  0  0  0  0  0  0  0  0  0  # atno 6908 bound_to 6896
  152.3501  133.6132  159.5974 H   0  0  0  0  0  0  0  0  0  0  0  0  # atno 6909 bound_to 6896
  145.4322  139.2309  143.3138 H   0  0  0  0  0  0  0  0  0  0  0  0  # atno 7974 bound_to 7965
  154.3997  140.1456  156.3463 H   0  0  0  0  0  0  0  0  0  0  0  0  # atno 8008 bound_to 7997
  155.8310  140.3466  155.5551 H   0  0  0  0  0  0  0  0  0  0  0  0  # atno 8009 bound_to 7997
  155.8188  140.0895  157.1852 H   0  0  0  0  0  0  0  0  0  0  0  0  # atno 8010 bound_to 7997
  140.4335  143.2540  151.8727 H   0  0  0  0  0  0  0  0  0  0  0  0  # atno 10167 bound_to 10162
  156.8052  130.9566  151.3117 H   0  0  0  0  0  0  0  0  0  0  0  0  # atno 10718 bound_to 10713
  154.7546  135.3101  154.8495 H   0  0  0  0  0  0  0  0  0  0  0  0  # atno 10763 bound_to 10752
  153.9272  135.6789  153.4750 H   0  0  0  0  0  0  0  0  0  0  0  0  # atno 10764 bound_to 10752
  153.1142  135.4852  154.9017 H   0  0  0  0  0  0  0  0  0  0  0  0  # atno 10765 bound_to 10752
  140.0785  134.5371  155.8971 H   0  0  0  0  0  0  0  0  0  0  0  0  # atno 11005 bound_to 11000
  146.2601  140.5060  142.8857 LP  0  0  0  0  0  0  0  0  0  0  0  0  # atno 17320 bound_to 7965
  144.8175  140.6493  143.6374 LP  0  0  0  0  0  0  0  0  0  0  0  0  # atno 17321 bound_to 7965
  139.4786  144.5309  151.8668 LP  0  0  0  0  0  0  0  0  0  0  0  0  # atno 17342 bound_to 10162
  140.4401  144.1999  150.5891 LP  0  0  0  0  0  0  0  0  0  0  0  0  # atno 17343 bound_to 10162
  157.6534  130.8903  149.9678 LP  0  0  0  0  0  0  0  0  0  0  0  0  # atno 17370 bound_to 10713
  156.1077  130.3651  150.0104 LP  0  0  0  0  0  0  0  0  0  0  0  0  # atno 17371 bound_to 10713
  141.2038  133.6634  156.6085 LP  0  0  0  0  0  0  0  0  0  0  0  0  # atno 17394 bound_to 11000
  140.3522  134.7759  157.4475 LP  0  0  0  0  0  0  0  0  0  0  0  0  # atno 17395 bound_to 11000

$$$$
