AV-unprocessed.smi:1049|AV-procd|sdf|4611|dock6
  -GOLD-   22720 3113D 1   1.00000     0.00000
 Structure written by MMmdl.
 41 42  0  0  0  0  0  0  0  0  2 V2000
  155.2826  140.2942  162.0843 C   0  0  0  0  0  0  0  0  0  0  0  0
  154.0842  141.0795  161.5334 C   0  0  1  0  0  0  0  0  0  0  0  0
  153.7089  142.2603  162.4554 C   0  0  0  0  0  0  0  0  0  0  0  0
  152.5902  143.1301  161.8517 C   0  0  0  0  0  0  0  0  0  0  0  0
  152.9278  143.5319  160.4053 C   0  0  0  0  0  0  0  0  0  0  0  0
  153.1618  142.3093  159.6176 N   0  0  0  0  0  0  0  0  0  0  0  0
  152.3332  141.7861  158.6780 C   0  0  0  0  0  0  0  0  0  0  0  0
  152.5954  140.7672  158.0371 O   0  0  0  0  0  0  0  0  0  0  0  0
  151.1947  142.4734  158.4819 N   0  0  0  0  0  0  0  0  0  0  0  0
  150.1493  142.1132  157.5314 C   0  0  0  0  0  0  0  0  0  0  0  0
  150.7386  141.7584  156.1548 C   0  0  0  0  0  0  0  0  0  0  0  0
  149.7270  141.2228  155.1848 C   0  0  0  0  0  0  0  0  0  0  0  0
  148.6958  141.9094  154.6765 N   0  3  0  0  0  0  0  0  0  0  0  0
  147.9542  141.1163  153.8449 C   0  0  0  0  0  0  0  0  0  0  0  0
  148.5490  139.8824  153.8572 C   0  0  0  0  0  0  0  0  0  0  0  0
  149.6276  139.9721  154.6998 N   0  0  0  0  0  0  0  0  0  0  0  0
  150.5591  138.8873  155.0255 C   0  0  0  0  0  0  0  0  0  0  0  0
  150.2926  137.8112  154.2855 F   0  0  0  0  0  0  0  0  0  0  0  0
  151.8195  139.2809  154.8397 F   0  0  0  0  0  0  0  0  0  0  0  0
  154.3470  141.5866  160.0990 C   0  0  0  0  0  0  0  0  0  0  0  0
  156.1731  140.9209  162.1460 H   0  0  0  0  0  0  0  0  0  0  0  0
  155.5189  139.4416  161.4474 H   0  0  0  0  0  0  0  0  0  0  0  0
  155.0746  139.9113  163.0838 H   0  0  0  0  0  0  0  0  0  0  0  0
  153.2332  140.3974  161.4969 H   0  0  0  0  0  0  0  0  0  0  0  0
  153.4049  141.8932  163.4362 H   0  0  0  0  0  0  0  0  0  0  0  0
  154.5895  142.8830  162.6199 H   0  0  0  0  0  0  0  0  0  0  0  0
  151.6485  142.5796  161.8676 H   0  0  0  0  0  0  0  0  0  0  0  0
  152.4398  144.0199  162.4638 H   0  0  0  0  0  0  0  0  0  0  0  0
  152.1429  144.1742  160.0068 H   0  0  0  0  0  0  0  0  0  0  0  0
  153.8315  144.1431  160.3913 H   0  0  0  0  0  0  0  0  0  0  0  0
  151.0424  143.3021  159.0386 H   0  0  0  0  0  0  0  0  0  0  0  0
  149.5603  141.2845  157.9283 H   0  0  0  0  0  0  0  0  0  0  0  0
  149.4706  142.9613  157.4377 H   0  0  0  0  0  0  0  0  0  0  0  0
  151.1957  142.6410  155.7086 H   0  0  0  0  0  0  0  0  0  0  0  0
  151.5131  140.9957  156.2428 H   0  0  0  0  0  0  0  0  0  0  0  0
  147.0800  141.4789  153.3239 H   0  0  0  0  0  0  0  0  0  0  0  0
  148.2871  138.9677  153.3452 H   0  0  0  0  0  0  0  0  0  0  0  0
  150.4449  138.6119  156.0745 H   0  0  0  0  0  0  0  0  0  0  0  0
  155.2077  142.2572  160.0871 H   0  0  0  0  0  0  0  0  0  0  0  0
  154.6180  140.7516  159.4512 H   0  0  0  0  0  0  0  0  0  0  0  0
  148.4956  142.8805  154.8814 H   0  0  0  0  0  0  0  0  0  0  0  0
  1  2  1  0  0  0  0
  1 21  1  0  0  0  0
  1 22  1  0  0  0  0
  1 23  1  0  0  0  0
  2 20  1  0  0  0  0
  2  3  1  0  0  0  0
  2 24  1  0  0  0  0
  3  4  1  0  0  0  0
  3 25  1  0  0  0  0
  3 26  1  0  0  0  0
  4  5  1  0  0  0  0
  4 27  1  0  0  0  0
  4 28  1  0  0  0  0
  5  6  1  0  0  0  0
  5 29  1  0  0  0  0
  5 30  1  0  0  0  0
  6  7  1  0  0  0  0
  6 20  1  0  0  0  0
  7  8  2  0  0  0  0
  7  9  1  0  0  0  0
  9 10  1  0  0  0  0
  9 31  1  0  0  0  0
 10 11  1  0  0  0  0
 10 32  1  0  0  0  0
 10 33  1  0  0  0  0
 11 12  1  0  0  0  0
 11 34  1  0  0  0  0
 11 35  1  0  0  0  0
 12 16  1  0  0  0  0
 12 13  2  0  0  0  0
 13 14  1  0  0  0  0
 13 41  1  0  0  0  0
 14 15  2  0  0  0  0
 14 36  1  0  0  0  0
 15 16  1  0  0  0  0
 15 37  1  0  0  0  0
 16 17  1  0  0  0  0
 17 18  1  0  0  0  0
 17 19  1  0  0  0  0
 17 38  1  0  0  0  0
 20 39  1  0  0  0  0
 20 40  1  0  0  0  0
M  CHG  1  13   1
M  END
> <s_m_source_file>
AV-unprocessed.smi

> <i_m_source_file_index>
1049

> <i_lp_mmshare_version>
43012

> <i_f3d_flags>
0

> <s_epik_input>
W0NIM11bQ0BASF0xW0NIMl1bQ0gyXVtDSDJdTihbQ0gyXTEpQyg9TylbTkhdW0NIMl1bQ0gyXWMybltjSF1bY0hdbjJbQ0hdKEYpRg==

> <s_epik_cmdline>
J2VwaWtfcHl0aG9uJywgJy1waCcsICc3LjAnLCAnLXRuJywgJzgnLCAnLW1hJywgJzIwMCcsICctbWV0YWxfYmluZGluZycsICctaW1hZScsICc8aW5maWxlLm1hZT4nLCAnLW9tYWUnLCAnPG91dGZpbGUubWFlPic=

> <r_lp_tautomer_probability>
1

> <r_epik_Ionization_Penalty>
1.09766

> <r_epik_Ionization_Penalty_Charging>
0

> <r_epik_Ionization_Penalty_Neutral>
1.09766

> <r_epik_State_Penalty>
1.15444

> <r_epik_Charging_Adjusted_Penalty>
1.15444

> <i_epik_Tot_Q>
1

> <i_epik_Tot_abs_Q>
1

> <r_epik_Metal_State_Penalty>
1.24204

> <b_epik_Metal_Only>
0

> <s_lp_Force_Field>
OPLS_2005

> <r_lp_Energy>
35.939

> <b_lp_Chiralities_Consistent>
1

> <s_lp_Variant>
AV-unprocessed.smi:1049-4

> <Gold.Version>
5.8.1

> <Gold.Id.Protein>
6NUR|6NUR_protein|mol2

> <Gold.PLP.Fitness>
54.7596

> <Gold.PLP.PLP>
-49.0759

> <Gold.PLP.part.hbond>
-1.4329

> <Gold.PLP.part.metal>
0.0000

> <Gold.PLP.part.buried>
0.0645

> <Gold.PLP.part.nonpolar>
-46.4966

> <Gold.PLP.part.repulsive>
0.2774

> <Gold.PLP.ligand.clash>
0.3237

> <Gold.PLP.ligand.torsion>
0.2750

> <Gold.PLP.Chemscore.Hbond>
2.0718

> <Gold.PLP.Chemscore.CHOScore>
0.0949

> <Gold.PLP.Chemscore.Metal>
0.0000

> <Gold.Chemscore.Hbonds>
donor molecule, donor type, donor heavy atom, donor atom, acceptor molecule, acceptor atom, score
      L1  H    13    41       P1  8028  2.00
      P1  H  7997  8008       L1     8  0.22
      L1  C    15    37       P1  7957  0.06

> <Gold.PLP.Chemscore.Internal.Correction>
0.0573

> <Gold.Rescore>
     Score         DG    S(hbond)    S(metal)    S(lipo)     H(rot)  DE(clash)    DE(int)     intcor
     14.96     -17.46       1.55        0.00      93.26       1.61       0.28       2.22       ----

> <Gold.Chemscore.Fitness>
14.9586

> <Gold.Chemscore.DG>
-17.4611

> <Gold.Chemscore.ZeroCoef>
-5.4800

> <Gold.Chemscore.Hbond>
1.5507

> <Gold.Chemscore.Metal>
0.0000

> <Gold.Chemscore.Lipo>
93.2563

> <Gold.Chemscore.Internal_Hbond>
0.0000

> <Gold.Chemscore.DEClash>
0.2806

> <Gold.Chemscore.DEInternal>
2.2220

> <Gold.Chemscore.Rot>
1.6051

> <Gold.Chemscore.Internal.Correction>
   9.000000E+99

> <Gold.Chemscore.Hbonds>
donor molecule, donor type, donor heavy atom, donor atom, acceptor molecule, acceptor atom, score
      L1  H    13    41       P1  8028  0.94
      P1  H  7997  8008       L1     8  0.21

> <Gold.Chemscore.Hbond.Weighted>
-5.1793

> <Gold.Chemscore.Metal.Weighted>
-0.0000

> <Gold.Chemscore.Lipo.Weighted>
-10.9110

> <Gold.Chemscore.Internal_Hbond.Weighted>
0.0000

> <Gold.Chemscore.DEClash.Weighted>
0.2806

> <Gold.Chemscore.DEInternal.Weighted>
2.2220

> <Gold.Chemscore.Rot.Weighted>
4.1092

> <Gold.Chemscore.Internal.Correction.Weighted>
   9.000000E+99

> <Gold.Protein.RotatedTorsions>
[ 6907 6896 6895 6894 ] final  104.65 input  -60.11 | X-H torsion
[ 7974 7965 7964 7962 ] final -131.90 input  175.53 | X-H torsion
[ 8008 7997 7996 7995 ] final  -75.65 input   59.86 | X-H torsion
[ 10167 10162 10161 10158 ] final   20.88 input  -65.29 | X-H torsion
[ 10718 10713 10712 10709 ] final  -91.49 input   66.30 | X-H torsion
[ 10763 10752 10751 10750 ] final  124.72 input  -60.55 | X-H torsion
[ 11005 11000 10999 10996 ] final   49.41 input  -57.11 | X-H torsion

> <Gold.Protein.ActiveResidues>
 VAL166  LYS551  ARG553  GLY616  TRP617  ASP618  TYR619  PRO620  LYS621  CYS622 
 ASP623  PHE694  ASN695  SER759  ASP760  ASP761  ALA762  ILE779  LEU786  VAL792 
 PHE793  MET794  SER795  GLU796  ALA797  LYS798  CYS799  TRP800  GLU811  SER814 

> <Gold.Protein.RotatedAtoms>
  152.5257  133.9646  159.7732 H   0  0  0  0  0  0  0  0  0  0  0  0  # atno 6907 bound_to 6896
  150.9930  133.6123  159.2712 H   0  0  0  0  0  0  0  0  0  0  0  0  # atno 6908 bound_to 6896
  151.3260  135.0836  159.9375 H   0  0  0  0  0  0  0  0  0  0  0  0  # atno 6909 bound_to 6896
  144.9336  140.7157  143.4891 H   0  0  0  0  0  0  0  0  0  0  0  0  # atno 7974 bound_to 7965
  154.5436  140.0740  156.8551 H   0  0  0  0  0  0  0  0  0  0  0  0  # atno 8008 bound_to 7997
  155.3132  140.3391  155.4225 H   0  0  0  0  0  0  0  0  0  0  0  0  # atno 8009 bound_to 7997
  156.1897  140.1682  156.8102 H   0  0  0  0  0  0  0  0  0  0  0  0  # atno 8010 bound_to 7997
  140.5469  143.9578  150.6553 H   0  0  0  0  0  0  0  0  0  0  0  0  # atno 10167 bound_to 10162
  155.9994  130.4950  150.5483 H   0  0  0  0  0  0  0  0  0  0  0  0  # atno 10718 bound_to 10713
  153.6659  135.3338  155.3140 H   0  0  0  0  0  0  0  0  0  0  0  0  # atno 10763 bound_to 10752
  154.8503  135.4374  154.1756 H   0  0  0  0  0  0  0  0  0  0  0  0  # atno 10764 bound_to 10752
  153.2735  135.7002  153.7533 H   0  0  0  0  0  0  0  0  0  0  0  0  # atno 10765 bound_to 10752
  140.1106  134.4960  155.8681 H   0  0  0  0  0  0  0  0  0  0  0  0  # atno 11005 bound_to 11000
  145.3103  139.1821  143.4642 LP  0  0  0  0  0  0  0  0  0  0  0  0  # atno 17320 bound_to 7965
  146.3257  140.3106  142.8626 LP  0  0  0  0  0  0  0  0  0  0  0  0  # atno 17321 bound_to 7965
  140.2993  143.3271  152.0987 LP  0  0  0  0  0  0  0  0  0  0  0  0  # atno 17342 bound_to 10162
  139.5011  144.6707  151.6250 LP  0  0  0  0  0  0  0  0  0  0  0  0  # atno 17343 bound_to 10162
  157.3409  131.0716  151.1788 LP  0  0  0  0  0  0  0  0  0  0  0  0  # atno 17370 bound_to 10713
  157.2637  130.6671  149.5986 LP  0  0  0  0  0  0  0  0  0  0  0  0  # atno 17371 bound_to 10713
  141.2129  133.6726  156.6698 LP  0  0  0  0  0  0  0  0  0  0  0  0  # atno 17394 bound_to 11000
  140.3096  134.8097  157.4165 LP  0  0  0  0  0  0  0  0  0  0  0  0  # atno 17395 bound_to 11000

$$$$
