#       Name:                AV-unprocessed.smi:873
#       Creating user name   scv26
#       Creation time:       Fri Mar 27 01:50:27 2020


#       File generated by GOLD software.
#

@<TRIPOS>MOLECULE
AV-unprocessed.smi:873
    50    53     1
SMALL
NO_CHARGES


@<TRIPOS>ATOM
      1 ****         1.0309   1.1347  -0.7262 O.2            1 S1                 0.0000
      2 ****         0.6813  -0.0394  -0.6111 C.2            1 S1                 0.0000
      3 ****         1.5072  -1.0983  -0.5549 N.am           1 S1                 0.0000
      4 ****         2.9284  -1.1247  -0.5573 C.ar           1 S1                 0.0000
      5 ****         3.7746   0.0035  -0.4148 C.ar           1 S1                 0.0000
      6 ****         5.1202  -0.1151  -0.4118 N.ar           1 S1                 0.0000
      7 ****         5.6218  -1.3468  -0.5360 C.ar           1 S1                 0.0000
      8 ****         7.1141  -1.4652  -0.5687 C.3            1 S1                 0.0000
      9 ****         7.8416  -2.3821   0.3938 C.3            1 S1                 0.0000
     10 ****         7.9614  -0.8917   0.5490 C.3            1 S1                 0.0000
     11 ****         4.9267  -2.4777  -0.6840 N.ar           1 S1                 0.0000
     12 ****         3.5810  -2.3686  -0.6880 C.ar           1 S1                 0.0000
     13 ****        -0.6004  -0.4248  -0.5368 N.am           1 S1                 0.0000
     14 ****        -1.7534   0.4701  -0.5716 C.3            1 S1                 0.0000
     15 ****        -2.0125   1.0911   0.8127 C.3            1 S1                 0.0000
     16 ****        -3.3143   1.9117   0.8152 C.3            1 S1                 0.0000
     17 ****        -4.4463   1.0678   0.4314 N.3            1 S1                 0.0000
     18 ****        -5.6630   1.8620   0.4832 C.3            1 S1                 0.0000
     19 ****        -6.3741   1.9686   1.8130 C.3            1 S1                 0.0000
     20 ****        -6.9671   1.1305   0.7063 C.3            1 S1                 0.0000
     21 ****        -4.2607   0.5780  -0.9345 C.3            1 S1                 0.0000
     22 ****        -3.0035  -0.3057  -1.0155 C.3            1 S1                 0.0000
     23 ****         1.0613  -2.0032  -0.5175 H              1 S1                 0.0000
     24 ****         3.4025   1.0076  -0.2892 H              1 S1                 0.0000
     25 ****         7.4951  -1.3903  -1.5854 H              1 S1                 0.0000
     26 ****         7.2490  -2.9156   1.1344 H              1 S1                 0.0000
     27 ****         8.7089  -2.9195   0.0162 H              1 S1                 0.0000
     28 ****         8.9071  -0.4302   0.2734 H              1 S1                 0.0000
     29 ****         7.4490  -0.4353   1.3937 H              1 S1                 0.0000
     30 ****         3.0205  -3.2854  -0.7979 H              1 S1                 0.0000
     31 ****        -0.7952  -1.4110  -0.4460 H              1 S1                 0.0000
     32 ****        -1.5698   1.2684  -1.2935 H              1 S1                 0.0000
     33 ****        -2.0777   0.3066   1.5684 H              1 S1                 0.0000
     34 ****        -1.1773   1.7299   1.1021 H              1 S1                 0.0000
     35 ****        -3.4857   2.3173   1.8130 H              1 S1                 0.0000
     36 ****        -3.2284   2.7606   0.1345 H              1 S1                 0.0000
     37 ****        -5.7316   2.7457  -0.1495 H              1 S1                 0.0000
     38 ****        -5.9460   1.4433   2.6649 H              1 S1                 0.0000
     39 ****        -6.8627   2.9125   2.0457 H              1 S1                 0.0000
     40 ****        -7.8502   1.5161   0.2009 H              1 S1                 0.0000
     41 ****        -6.9325   0.0488   0.8235 H              1 S1                 0.0000
     42 ****        -5.1330  -0.0044  -1.2336 H              1 S1                 0.0000
     43 ****        -4.1814   1.4160  -1.6291 H              1 S1                 0.0000
     44 ****        -2.8748  -0.6706  -2.0349 H              1 S1                 0.0000
     45 ****        -3.1412  -1.1866  -0.3862 H              1 S1                 0.0000
     46 ****         2.0025   1.3635  -0.7863 LP             1 S1                 0.0000
     47 ****         0.3434   1.8602  -0.7597 LP             1 S1                 0.0000
     48 ****         5.7145   0.6840  -0.3207 LP             1 S1                 0.0000
     49 ****         5.3811  -3.3625  -0.7869 LP             1 S1                 0.0000
     50 ****        -4.5090   0.2910   1.0580 LP             1 S1                 0.0000
@<TRIPOS>BOND
    1    1    2 2     
    2    2    3 am    
    3    2   13 am    
    4    3    4 1     
    5    3   23 1     
    6    4   12 ar    
    7    4    5 ar    
    8    5    6 ar    
    9    5   24 1     
   10    6    7 ar    
   11    7    8 1     
   12    7   11 ar    
   13    8   10 1     
   14    8    9 1     
   15    8   25 1     
   16    9   10 1     
   17    9   26 1     
   18    9   27 1     
   19   10   28 1     
   20   10   29 1     
   21   11   12 ar    
   22   12   30 1     
   23   13   14 1     
   24   13   31 1     
   25   14   22 1     
   26   14   15 1     
   27   14   32 1     
   28   15   16 1     
   29   15   33 1     
   30   15   34 1     
   31   16   17 1     
   32   16   35 1     
   33   16   36 1     
   34   17   18 1     
   35   17   21 1     
   36   18   20 1     
   37   18   19 1     
   38   18   37 1     
   39   19   20 1     
   40   19   38 1     
   41   19   39 1     
   42   20   40 1     
   43   20   41 1     
   44   21   22 1     
   45   21   42 1     
   46   21   43 1     
   47   22   44 1     
   48   22   45 1     
   49    1   46 1     
   50    1   47 1     
   51    6   48 1     
   52   11   49 1     
   53   17   50 1     
@<TRIPOS>SUBSTRUCTURE
      1 S1             1
@<TRIPOS>SET
LONE_PAIRS      STATIC     ATOMS    <user>   **** ""
5 46 47 48 49 50
DONOR_HYDROGENS      STATIC     ATOMS    <user>   **** ""
2 23 31
ATOM$BLUE        STATIC     ATOMS    COLORGROUP SYSTEM
5 46 47 48 49 50
ATOM$RED        STATIC     ATOMS    COLORGROUP SYSTEM
2 23 31
