#       Name:                AV-unprocessed.smi:212
#       Creating user name   scv26
#       Creation time:       Thu Mar 26 19:57:04 2020


#       File generated by GOLD software.
#

@<TRIPOS>MOLECULE
AV-unprocessed.smi:212
    74    77     1
SMALL
NO_CHARGES


@<TRIPOS>ATOM
      1 ****        -3.7652  -0.4885   0.6908 C.3            1 S1                 0.0000
      2 ****        -2.4446   0.0590   0.1229 C.3            1 S1                 0.0000
      3 ****        -2.6573   0.8501  -1.1856 C.3            1 S1                 0.0000
      4 ****        -3.2946   2.1683  -0.9319 N.4            1 S1                 1.0000
      5 ****        -3.6329   2.9091  -2.1754 C.3            1 S1                 0.0000
      6 ****        -5.1386   3.2474  -2.2636 C.3            1 S1                 0.0000
      7 ****        -5.4306   4.0400  -3.5487 C.3            1 S1                 0.0000
      8 ****        -6.0257   1.9900  -2.1994 C.3            1 S1                 0.0000
      9 ****        -5.4806   4.0904  -1.1808 O.3            1 S1                 0.0000
     10 ****        -2.5338   2.9831   0.0487 C.3            1 S1                 0.0000
     11 ****        -2.3129   2.2055   1.3590 C.3            1 S1                 0.0000
     12 ****        -1.7348   0.8848   1.1035 N.pl3          1 S1                 0.0000
     13 ****        -0.3828   0.7460   1.1313 C.ar           1 S1                 0.0000
     14 ****         0.4155   1.8213   0.8951 N.ar           1 S1                 0.0000
     15 ****         1.7457   1.6930   0.9091 C.ar           1 S1                 0.0000
     16 ****         2.4756   0.5995   1.1357 N.ar           1 S1                 0.0000
     17 ****         1.6817  -0.4813   1.3808 C.ar           1 S1                 0.0000
     18 ****         0.2585  -0.4967   1.3991 C.ar           1 S1                 0.0000
     19 ****        -0.1961  -1.7764   1.6982 N.2            1 S1                 0.0000
     20 ****         0.8955  -2.4775   1.8428 C.2            1 S1                 0.0000
     21 ****         2.0679  -1.7794   1.6609 N.pl3          1 S1                 0.0000
     22 ****         3.4198  -2.2994   1.7614 C.3            1 S1                 0.0000
     23 ****         4.1012  -2.4803   0.3791 C.3            1 S1                 0.0000
     24 ****         3.3512  -3.5138  -0.4943 C.3            1 S1                 0.0000
     25 ****         3.8200  -3.4945  -1.8265 O.3            1 S1                 0.0000
     26 ****         5.6188  -2.8012   0.4931 C.3            1 S1                 0.0000
     27 ****         6.4532  -1.6427   1.0479 C.3            1 S1                 0.0000
     28 ****         7.2241  -2.2548   2.2164 C.3            1 S1                 0.0000
     29 ****         6.4197  -3.3516   2.6158 O.3            1 S1                 0.0000
     30 ****         5.9660  -3.9732   1.4247 C.3            1 S1                 0.0000
     31 ****        -4.2515  -1.1506  -0.0259 H              1 S1                 0.0000
     32 ****        -4.4706   0.3067   0.9325 H              1 S1                 0.0000
     33 ****        -3.5882  -1.0646   1.5994 H              1 S1                 0.0000
     34 ****        -1.8383  -0.8094  -0.1339 H              1 S1                 0.0000
     35 ****        -1.6964   1.0126  -1.6770 H              1 S1                 0.0000
     36 ****        -3.2692   0.2678  -1.8759 H              1 S1                 0.0000
     37 ****        -3.0365   3.8206  -2.2452 H              1 S1                 0.0000
     38 ****        -3.3546   2.3170  -3.0489 H              1 S1                 0.0000
     39 ****        -5.1928   3.4531  -4.4365 H              1 S1                 0.0000
     40 ****        -4.8423   4.9573  -3.5945 H              1 S1                 0.0000
     41 ****        -6.4824   4.3215  -3.6147 H              1 S1                 0.0000
     42 ****        -5.7875   1.2995  -3.0093 H              1 S1                 0.0000
     43 ****        -7.0823   2.2464  -2.2874 H              1 S1                 0.0000
     44 ****        -5.9016   1.4509  -1.2596 H              1 S1                 0.0000
     45 ****        -6.3885   4.3404  -1.2677 H              1 S1                 0.0000
     46 ****        -1.5757   3.2684  -0.3877 H              1 S1                 0.0000
     47 ****        -3.0724   3.9074   0.2596 H              1 S1                 0.0000
     48 ****        -1.6898   2.7806   2.0454 H              1 S1                 0.0000
     49 ****        -3.2661   2.0705   1.8703 H              1 S1                 0.0000
     50 ****         2.3055   2.5951   0.7103 H              1 S1                 0.0000
     51 ****         0.8752  -3.5308   2.0830 H              1 S1                 0.0000
     52 ****         3.9842  -1.6157   2.3948 H              1 S1                 0.0000
     53 ****         3.3818  -3.2471   2.2990 H              1 S1                 0.0000
     54 ****         4.0248  -1.5240  -0.1413 H              1 S1                 0.0000
     55 ****         3.4553  -4.5203  -0.0896 H              1 S1                 0.0000
     56 ****         2.2843  -3.2957  -0.5299 H              1 S1                 0.0000
     57 ****         3.3265  -4.1247  -2.3288 H              1 S1                 0.0000
     58 ****         6.0003  -3.0371  -0.5008 H              1 S1                 0.0000
     59 ****         7.1296  -1.2275   0.3000 H              1 S1                 0.0000
     60 ****         5.8254  -0.8234   1.3977 H              1 S1                 0.0000
     61 ****         8.1986  -2.6201   1.8887 H              1 S1                 0.0000
     62 ****         7.3789  -1.5500   3.0338 H              1 S1                 0.0000
     63 ****         5.1339  -4.6503   1.6164 H              1 S1                 0.0000
     64 ****         6.7803  -4.5656   1.0036 H              1 S1                 0.0000
     65 ****        -4.1800   1.9625  -0.4915 H              1 S1                 0.0000
     66 ****        -4.9036   4.9071  -1.1944 LP             1 S1                 0.0000
     67 ****        -5.3468   3.6021  -0.3184 LP             1 S1                 0.0000
     68 ****         0.0045   2.7139   0.7097 LP             1 S1                 0.0000
     69 ****         3.4753   0.5758   1.1269 LP             1 S1                 0.0000
     70 ****        -1.1425  -2.0881   1.7831 LP             1 S1                 0.0000
     71 ****         4.7906  -3.7341  -1.8456 LP             1 S1                 0.0000
     72 ****         3.6944  -2.5815  -2.2147 LP             1 S1                 0.0000
     73 ****         5.6417  -3.0307   3.1560 LP             1 S1                 0.0000
     74 ****         6.9588  -3.9960   3.1580 LP             1 S1                 0.0000
@<TRIPOS>BOND
    1    1    2 1     
    2    1   31 1     
    3    1   32 1     
    4    1   33 1     
    5    2   12 1     
    6    2    3 1     
    7    2   34 1     
    8    3    4 1     
    9    3   35 1     
   10    3   36 1     
   11    4    5 1     
   12    4   10 1     
   13    4   65 1     
   14    5    6 1     
   15    5   37 1     
   16    5   38 1     
   17    6    7 1     
   18    6    8 1     
   19    6    9 1     
   20    7   39 1     
   21    7   40 1     
   22    7   41 1     
   23    8   42 1     
   24    8   43 1     
   25    8   44 1     
   26    9   45 1     
   27   10   11 1     
   28   10   46 1     
   29   10   47 1     
   30   11   12 1     
   31   11   48 1     
   32   11   49 1     
   33   12   13 1     
   34   13   18 ar    
   35   13   14 ar    
   36   14   15 ar    
   37   15   16 ar    
   38   15   50 1     
   39   16   17 ar    
   40   17   21 1     
   41   17   18 ar    
   42   18   19 1     
   43   19   20 2     
   44   20   21 1     
   45   20   51 1     
   46   21   22 1     
   47   22   23 1     
   48   22   52 1     
   49   22   53 1     
   50   23   24 1     
   51   23   26 1     
   52   23   54 1     
   53   24   25 1     
   54   24   55 1     
   55   24   56 1     
   56   25   57 1     
   57   26   30 1     
   58   26   27 1     
   59   26   58 1     
   60   27   28 1     
   61   27   59 1     
   62   27   60 1     
   63   28   29 1     
   64   28   61 1     
   65   28   62 1     
   66   29   30 1     
   67   30   63 1     
   68   30   64 1     
   69    9   66 1     
   70    9   67 1     
   71   14   68 1     
   72   16   69 1     
   73   19   70 1     
   74   25   71 1     
   75   25   72 1     
   76   29   73 1     
   77   29   74 1     
@<TRIPOS>SUBSTRUCTURE
      1 S1             1
@<TRIPOS>SET
LONE_PAIRS      STATIC     ATOMS    <user>   **** ""
9 66 67 68 69 70 71 72 73 74
DONOR_HYDROGENS      STATIC     ATOMS    <user>   **** ""
3 65 45 57
ATOM$BLUE        STATIC     ATOMS    COLORGROUP SYSTEM
9 66 67 68 69 70 71 72 73 74
ATOM$RED        STATIC     ATOMS    COLORGROUP SYSTEM
3 65 45 57
