AV-unprocessed.smi:2244|AV-procd|sdf|9075|dock2
  -GOLD-   2272012283D 1   1.00000     0.00000
 Structure written by MMmdl.
 49 51  0  0  0  0  0  0  0  0  1 V2000
  148.2446  128.3751  152.2511 C   0  0  0  0  0  0  0  0  0  0  0  0
  148.2134  128.8142  153.7300 C   0  0  0  0  0  0  0  0  0  0  0  0
  146.8195  128.5375  154.3308 C   0  0  0  0  0  0  0  0  0  0  0  0
  149.2312  127.9382  154.4950 C   0  0  0  0  0  0  0  0  0  0  0  0
  148.5348  130.3158  153.8338 C   0  0  0  0  0  0  0  0  0  0  0  0
  149.6198  130.8259  154.5815 C   0  0  0  0  0  0  0  0  0  0  0  0
  149.8059  132.2186  154.5977 C   0  0  0  0  0  0  0  0  0  0  0  0
  148.9089  133.0290  153.8729 C   0  0  0  0  0  0  0  0  0  0  0  0
  149.1663  134.4289  153.9536 N   0  0  0  0  0  0  0  0  0  0  0  0
  149.7982  135.1678  154.8905 C   0  0  0  0  0  0  0  0  0  0  0  0
  150.2803  134.6420  155.8924 O   0  0  0  0  0  0  0  0  0  0  0  0
  149.8697  136.4888  154.6577 N   0  0  0  0  0  0  0  0  0  0  0  0
  150.4954  137.4748  155.5325 C   0  0  1  0  0  0  0  0  0  0  0  0
  151.8153  136.9165  156.0805 C   0  0  0  0  0  0  0  0  0  0  0  0
  152.5572  137.9833  156.8997 C   0  0  0  0  0  0  0  0  0  0  0  0
  152.7813  139.1489  156.1097 O   0  0  0  0  0  0  0  0  0  0  0  0
  151.6029  139.7750  155.5996 C   0  0  2  0  0  0  0  0  0  0  0  0
  150.7990  140.4529  156.7008 C   0  0  0  0  0  0  0  0  0  0  0  0
  149.9707  141.6818  156.4071 C   0  0  0  0  0  0  0  0  0  0  0  0
  151.2223  141.7968  157.2447 C   0  0  0  0  0  0  0  0  0  0  0  0
  150.7756  138.7780  154.7643 C   0  0  0  0  0  0  0  0  0  0  0  0
  147.8857  132.4673  153.1796 N   0  0  0  0  0  0  0  0  0  0  0  0
  147.7021  131.1445  153.1583 N   0  0  0  0  0  0  0  0  0  0  0  0
  148.0431  127.3083  152.1486 H   0  0  0  0  0  0  0  0  0  0  0  0
  149.2190  128.5701  151.8018 H   0  0  0  0  0  0  0  0  0  0  0  0
  147.4975  128.9005  151.6554 H   0  0  0  0  0  0  0  0  0  0  0  0
  146.0337  129.0745  153.7985 H   0  0  0  0  0  0  0  0  0  0  0  0
  146.7735  128.8412  155.3773 H   0  0  0  0  0  0  0  0  0  0  0  0
  146.5703  127.4768  154.2855 H   0  0  0  0  0  0  0  0  0  0  0  0
  148.9858  126.8792  154.4066 H   0  0  0  0  0  0  0  0  0  0  0  0
  149.2455  128.1735  155.5601 H   0  0  0  0  0  0  0  0  0  0  0  0
  150.2431  128.0634  154.1073 H   0  0  0  0  0  0  0  0  0  0  0  0
  150.2991  130.1942  155.1325 H   0  0  0  0  0  0  0  0  0  0  0  0
  150.6225  132.6517  155.1572 H   0  0  0  0  0  0  0  0  0  0  0  0
  148.8507  134.9556  153.1524 H   0  0  0  0  0  0  0  0  0  0  0  0
  149.4458  136.8388  153.8099 H   0  0  0  0  0  0  0  0  0  0  0  0
  149.8330  137.6820  156.3744 H   0  0  0  0  0  0  0  0  0  0  0  0
  151.6277  136.0369  156.6972 H   0  0  0  0  0  0  0  0  0  0  0  0
  152.4522  136.5909  155.2565 H   0  0  0  0  0  0  0  0  0  0  0  0
  152.0046  138.2316  157.8060 H   0  0  0  0  0  0  0  0  0  0  0  0
  153.5227  137.5953  157.2242 H   0  0  0  0  0  0  0  0  0  0  0  0
  151.9490  140.5607  154.9268 H   0  0  0  0  0  0  0  0  0  0  0  0
  150.3723  139.7693  157.4314 H   0  0  0  0  0  0  0  0  0  0  0  0
  150.0033  142.0874  155.3976 H   0  0  0  0  0  0  0  0  0  0  0  0
  149.0131  141.7732  156.9155 H   0  0  0  0  0  0  0  0  0  0  0  0
  151.1004  141.9663  158.3124 H   0  0  0  0  0  0  0  0  0  0  0  0
  152.0877  142.2766  156.7920 H   0  0  0  0  0  0  0  0  0  0  0  0
  151.3305  138.5436  153.8546 H   0  0  0  0  0  0  0  0  0  0  0  0
  149.8427  139.2419  154.4414 H   0  0  0  0  0  0  0  0  0  0  0  0
  1  2  1  0  0  0  0
  1 24  1  0  0  0  0
  1 25  1  0  0  0  0
  1 26  1  0  0  0  0
  2  3  1  0  0  0  0
  2  4  1  0  0  0  0
  2  5  1  0  0  0  0
  3 27  1  0  0  0  0
  3 28  1  0  0  0  0
  3 29  1  0  0  0  0
  4 30  1  0  0  0  0
  4 31  1  0  0  0  0
  4 32  1  0  0  0  0
  5 23  1  0  0  0  0
  5  6  2  0  0  0  0
  6  7  1  0  0  0  0
  6 33  1  0  0  0  0
  7  8  2  0  0  0  0
  7 34  1  0  0  0  0
  8  9  1  0  0  0  0
  8 22  1  0  0  0  0
  9 10  1  0  0  0  0
  9 35  1  0  0  0  0
 10 11  2  0  0  0  0
 10 12  1  0  0  0  0
 12 13  1  0  0  0  0
 12 36  1  0  0  0  0
 13 21  1  0  0  0  0
 13 14  1  0  0  0  0
 13 37  1  0  0  0  0
 14 15  1  0  0  0  0
 14 38  1  0  0  0  0
 14 39  1  0  0  0  0
 15 16  1  0  0  0  0
 15 40  1  0  0  0  0
 15 41  1  0  0  0  0
 16 17  1  0  0  0  0
 17 18  1  0  0  0  0
 17 21  1  0  0  0  0
 17 42  1  0  0  0  0
 18 20  1  0  0  0  0
 18 19  1  0  0  0  0
 18 43  1  0  0  0  0
 19 20  1  0  0  0  0
 19 44  1  0  0  0  0
 19 45  1  0  0  0  0
 20 46  1  0  0  0  0
 20 47  1  0  0  0  0
 21 48  1  0  0  0  0
 21 49  1  0  0  0  0
 22 23  2  0  0  0  0
M  END
> <s_m_source_file>
AV-unprocessed.smi

> <i_m_source_file_index>
2244

> <i_lp_mmshare_version>
43012

> <i_f3d_flags>
0

> <s_epik_input>
W0NIM11DKFtDSDNdKShbQ0gzXSljMVtjSF1bY0hdYyhubjEpW05IXUMoPU8pW05IXVtDQEBIXTJbQ0gyXVtDSDJdT1tDQEhdKFtDSDJdMilbQ0hdM1tDSDJdW0NIMl0z

> <s_epik_cmdline>
J2VwaWtfcHl0aG9uJywgJy1waCcsICc3LjAnLCAnLXRuJywgJzgnLCAnLW1hJywgJzIwMCcsICctbWV0YWxfYmluZGluZycsICctaW1hZScsICc8aW5maWxlLm1hZT4nLCAnLW9tYWUnLCAnPG91dGZpbGUubWFlPic=

> <r_lp_tautomer_probability>
1

> <r_epik_Ionization_Penalty>
0.011369

> <r_epik_Ionization_Penalty_Charging>
0

> <r_epik_Ionization_Penalty_Neutral>
0.011369

> <r_epik_State_Penalty>
0.00456331

> <r_epik_Charging_Adjusted_Penalty>
0.00456331

> <i_epik_Tot_Q>
0

> <i_epik_Tot_abs_Q>
0

> <r_epik_Metal_State_Penalty>
-0

> <b_epik_Metal_Only>
0

> <s_lp_Force_Field>
OPLS_2005

> <r_lp_Energy>
29.5318

> <b_lp_Chiralities_Consistent>
1

> <s_lp_Variant>
AV-unprocessed.smi:2244-4

> <Gold.Version>
5.8.1

> <Gold.Id.Protein>
6NUR|6NUR_protein|mol2

> <Gold.PLP.Fitness>
42.0614

> <Gold.PLP.PLP>
-34.3314

> <Gold.PLP.part.hbond>
-3.0000

> <Gold.PLP.part.metal>
0.0000

> <Gold.PLP.part.buried>
-3.0098

> <Gold.PLP.part.nonpolar>
-28.5848

> <Gold.PLP.part.repulsive>
0.3263

> <Gold.PLP.ligand.clash>
0.0000

> <Gold.PLP.ligand.torsion>
0.9301

> <Gold.PLP.Chemscore.Hbond>
2.8320

> <Gold.PLP.Chemscore.CHOScore>
0.0000

> <Gold.PLP.Chemscore.Metal>
0.0000

> <Gold.Chemscore.Hbonds>
donor molecule, donor type, donor heavy atom, donor atom, acceptor molecule, acceptor atom, score
      L1  H     9    35       P1  7948  1.00
      L1  H    12    36       P1  7948  0.73
      P1  H  7997  8010       L1    16  0.99

> <Gold.PLP.Chemscore.Internal.Correction>
1.0941

> <Gold.Rescore>
     Score         DG    S(hbond)    S(metal)    S(lipo)     H(rot)  DE(clash)    DE(int)     intcor
     15.03     -19.15       2.19        0.00      82.90       1.30       0.31       3.81       ----

> <Gold.Chemscore.Fitness>
15.0346

> <Gold.Chemscore.DG>
-19.1522

> <Gold.Chemscore.ZeroCoef>
-5.4800

> <Gold.Chemscore.Hbond>
2.1860

> <Gold.Chemscore.Metal>
0.0000

> <Gold.Chemscore.Lipo>
82.9008

> <Gold.Chemscore.Internal_Hbond>
0.0000

> <Gold.Chemscore.DEClash>
0.3107

> <Gold.Chemscore.DEInternal>
3.8068

> <Gold.Chemscore.Rot>
1.3002

> <Gold.Chemscore.Internal.Correction>
   9.000000E+99

> <Gold.Chemscore.Hbonds>
donor molecule, donor type, donor heavy atom, donor atom, acceptor molecule, acceptor atom, score
      L1  H     9    35       P1  7948  0.29
      L1  H    12    36       P1  7948  0.62
      P1  H  7997  8010       L1    16  0.86

> <Gold.Chemscore.Hbond.Weighted>
-7.3012

> <Gold.Chemscore.Metal.Weighted>
-0.0000

> <Gold.Chemscore.Lipo.Weighted>
-9.6994

> <Gold.Chemscore.Internal_Hbond.Weighted>
0.0000

> <Gold.Chemscore.DEClash.Weighted>
0.3107

> <Gold.Chemscore.DEInternal.Weighted>
3.8068

> <Gold.Chemscore.Rot.Weighted>
3.3284

> <Gold.Chemscore.Internal.Correction.Weighted>
   9.000000E+99

> <Gold.Protein.RotatedTorsions>
[ 6907 6896 6895 6894 ] final   54.74 input  -60.11 | X-H torsion
[ 7974 7965 7964 7962 ] final  173.68 input  175.53 | X-H torsion
[ 8008 7997 7996 7995 ] final   99.72 input   59.86 | X-H torsion
[ 10167 10162 10161 10158 ] final   90.34 input  -65.29 | X-H torsion
[ 10718 10713 10712 10709 ] final  -13.78 input   66.30 | X-H torsion
[ 10763 10752 10751 10750 ] final  150.18 input  -60.55 | X-H torsion
[ 11005 11000 10999 10996 ] final   76.98 input  -57.11 | X-H torsion

> <Gold.Protein.ActiveResidues>
 VAL166  LYS551  ARG553  GLY616  TRP617  ASP618  TYR619  PRO620  LYS621  CYS622 
 ASP623  PHE694  ASN695  SER759  ASP760  ASP761  ALA762  ILE779  LEU786  VAL792 
 PHE793  MET794  SER795  GLU796  ALA797  LYS798  CYS799  TRP800  GLU811  SER814 

> <Gold.Protein.RotatedAtoms>
  152.3469  134.7059  160.0247 H   0  0  0  0  0  0  0  0  0  0  0  0  # atno 6907 bound_to 6896
  151.7425  133.3317  159.3378 H   0  0  0  0  0  0  0  0  0  0  0  0  # atno 6908 bound_to 6896
  150.7515  134.6198  159.6174 H   0  0  0  0  0  0  0  0  0  0  0  0  # atno 6909 bound_to 6896
  144.7238  139.9684  143.6436 H   0  0  0  0  0  0  0  0  0  0  0  0  # atno 7974 bound_to 7965
  156.1133  140.3224  155.8104 H   0  0  0  0  0  0  0  0  0  0  0  0  # atno 8008 bound_to 7997
  155.4634  140.0541  157.3005 H   0  0  0  0  0  0  0  0  0  0  0  0  # atno 8009 bound_to 7997
  154.4775  140.2039  155.9856 H   0  0  0  0  0  0  0  0  0  0  0  0  # atno 8010 bound_to 7997
  139.8483  144.6606  150.9200 H   0  0  0  0  0  0  0  0  0  0  0  0  # atno 10167 bound_to 10162
  156.6254  130.4887  149.6149 H   0  0  0  0  0  0  0  0  0  0  0  0  # atno 10718 bound_to 10713
  154.0833  135.2858  155.3286 H   0  0  0  0  0  0  0  0  0  0  0  0  # atno 10763 bound_to 10752
  154.6669  135.5314  153.8092 H   0  0  0  0  0  0  0  0  0  0  0  0  # atno 10764 bound_to 10752
  153.0440  135.6548  154.1007 H   0  0  0  0  0  0  0  0  0  0  0  0  # atno 10765 bound_to 10752
  139.9274  134.7645  156.1463 H   0  0  0  0  0  0  0  0  0  0  0  0  # atno 11005 bound_to 11000
  146.0582  139.3577  143.0597 LP  0  0  0  0  0  0  0  0  0  0  0  0  # atno 17320 bound_to 7965
  145.8127  140.9718  143.0940 LP  0  0  0  0  0  0  0  0  0  0  0  0  # atno 17321 bound_to 7965
  140.7790  143.3850  151.1409 LP  0  0  0  0  0  0  0  0  0  0  0  0  # atno 17342 bound_to 10162
  139.7491  143.8807  152.3072 LP  0  0  0  0  0  0  0  0  0  0  0  0  # atno 17343 bound_to 10162
  156.2277  130.6776  151.1433 LP  0  0  0  0  0  0  0  0  0  0  0  0  # atno 17370 bound_to 10713
  157.7215  131.0678  150.6113 LP  0  0  0  0  0  0  0  0  0  0  0  0  # atno 17371 bound_to 10713
  141.0841  133.6741  156.2399 LP  0  0  0  0  0  0  0  0  0  0  0  0  # atno 17394 bound_to 11000
  140.6296  134.5277  157.5558 LP  0  0  0  0  0  0  0  0  0  0  0  0  # atno 17395 bound_to 11000

$$$$
