AV-unprocessed.smi:700|AV-procd|sdf|3407|dock2
  -GOLD-   22720 0383D 1   1.00000     0.00000
 Structure written by MMmdl.
 43 44  0  0  0  0  0  0  0  0  1 V2000
  154.3581  131.6626  163.6826 C   0  0  0  0  0  0  0  0  0  0  0  0
  154.4207  133.1508  163.6328 C   0  0  0  0  0  0  0  0  0  0  0  0
  154.2148  134.1225  164.5701 C   0  0  0  0  0  0  0  0  0  0  0  0
  154.4472  135.3322  163.8582 C   0  0  0  0  0  0  0  0  0  0  0  0
  154.3698  136.7476  164.3702 C   0  0  0  0  0  0  0  0  0  0  0  0
  154.7650  137.7723  163.2990 C   0  0  0  0  0  0  0  0  0  0  0  0
  155.6723  138.5830  163.4947 O   0  0  0  0  0  0  0  0  0  0  0  0
  154.0552  137.7306  162.1607 N   0  0  0  0  0  0  0  0  0  0  0  0
  154.2484  138.6144  161.0165 C   0  0  0  0  0  0  0  0  0  0  0  0
  154.3381  140.0883  161.4463 C   0  0  0  0  0  0  0  0  0  0  0  0
  153.7273  141.0434  160.4110 C   0  0  0  0  0  0  0  0  0  0  0  0
  153.3133  142.3886  161.0283 C   0  0  0  0  0  0  0  0  0  0  0  0
  152.2726  143.1515  160.1897 C   0  0  0  0  0  0  0  0  0  0  0  0
  152.7558  143.4798  158.7757 C   0  0  0  0  0  0  0  0  0  0  0  0
  151.8179  144.5893  158.2943 C   0  0  0  0  0  0  0  0  0  0  0  0
  151.3525  145.3270  159.5582 C   0  0  0  0  0  0  0  0  0  0  0  0
  151.8872  144.5248  160.7522 C   0  0  0  0  0  0  0  0  0  0  0  0
  154.7551  135.1027  162.5911 N   0  0  0  0  0  0  0  0  0  0  0  0
  154.7445  133.7116  162.4395 O   0  0  0  0  0  0  0  0  0  0  0  0
  153.7748  131.3268  164.5401 H   0  0  0  0  0  0  0  0  0  0  0  0
  155.3583  131.2375  163.7667 H   0  0  0  0  0  0  0  0  0  0  0  0
  153.8935  131.2622  162.7813 H   0  0  0  0  0  0  0  0  0  0  0  0
  153.9460  133.9899  165.6073 H   0  0  0  0  0  0  0  0  0  0  0  0
  153.3621  136.9678  164.7255 H   0  0  0  0  0  0  0  0  0  0  0  0
  155.0338  136.8711  165.2262 H   0  0  0  0  0  0  0  0  0  0  0  0
  153.3268  137.0359  162.0812 H   0  0  0  0  0  0  0  0  0  0  0  0
  155.1428  138.3205  160.4642 H   0  0  0  0  0  0  0  0  0  0  0  0
  153.4057  138.4754  160.3389 H   0  0  0  0  0  0  0  0  0  0  0  0
  153.8301  140.2199  162.4024 H   0  0  0  0  0  0  0  0  0  0  0  0
  155.3816  140.3590  161.6118 H   0  0  0  0  0  0  0  0  0  0  0  0
  154.4463  141.2193  159.6101 H   0  0  0  0  0  0  0  0  0  0  0  0
  152.8617  140.5661  159.9506 H   0  0  0  0  0  0  0  0  0  0  0  0
  152.9284  142.2292  162.0364 H   0  0  0  0  0  0  0  0  0  0  0  0
  154.2019  143.0116  161.1387 H   0  0  0  0  0  0  0  0  0  0  0  0
  151.3688  142.5459  160.1028 H   0  0  0  0  0  0  0  0  0  0  0  0
  153.7790  143.8573  158.8093 H   0  0  0  0  0  0  0  0  0  0  0  0
  152.7450  142.6108  158.1171 H   0  0  0  0  0  0  0  0  0  0  0  0
  152.3076  145.2549  157.5826 H   0  0  0  0  0  0  0  0  0  0  0  0
  150.9563  144.1497  157.7906 H   0  0  0  0  0  0  0  0  0  0  0  0
  151.7250  146.3517  159.5827 H   0  0  0  0  0  0  0  0  0  0  0  0
  150.2632  145.3764  159.5833 H   0  0  0  0  0  0  0  0  0  0  0  0
  151.1580  144.4531  161.5598 H   0  0  0  0  0  0  0  0  0  0  0  0
  152.7707  145.0238  161.1532 H   0  0  0  0  0  0  0  0  0  0  0  0
  1  2  1  0  0  0  0
  1 20  1  0  0  0  0
  1 21  1  0  0  0  0
  1 22  1  0  0  0  0
  2 19  1  0  0  0  0
  2  3  2  0  0  0  0
  3  4  1  0  0  0  0
  3 23  1  0  0  0  0
  4  5  1  0  0  0  0
  4 18  2  0  0  0  0
  5  6  1  0  0  0  0
  5 24  1  0  0  0  0
  5 25  1  0  0  0  0
  6  7  2  0  0  0  0
  6  8  1  0  0  0  0
  8  9  1  0  0  0  0
  8 26  1  0  0  0  0
  9 10  1  0  0  0  0
  9 27  1  0  0  0  0
  9 28  1  0  0  0  0
 10 11  1  0  0  0  0
 10 29  1  0  0  0  0
 10 30  1  0  0  0  0
 11 12  1  0  0  0  0
 11 31  1  0  0  0  0
 11 32  1  0  0  0  0
 12 13  1  0  0  0  0
 12 33  1  0  0  0  0
 12 34  1  0  0  0  0
 13 17  1  0  0  0  0
 13 14  1  0  0  0  0
 13 35  1  0  0  0  0
 14 15  1  0  0  0  0
 14 36  1  0  0  0  0
 14 37  1  0  0  0  0
 15 16  1  0  0  0  0
 15 38  1  0  0  0  0
 15 39  1  0  0  0  0
 16 17  1  0  0  0  0
 16 40  1  0  0  0  0
 16 41  1  0  0  0  0
 17 42  1  0  0  0  0
 17 43  1  0  0  0  0
 18 19  1  0  0  0  0
M  END
> <s_m_source_file>
AV-unprocessed.smi

> <i_m_source_file_index>
700

> <i_lp_mmshare_version>
43012

> <i_f3d_flags>
0

> <s_epik_input>
W0NIM11jMVtjSF1jKG5vMSlbQ0gyXUMoPU8pW05IXVtDSDJdW0NIMl1bQ0gyXVtDSDJdW0NIXTJbQ0gyXVtDSDJdW0NIMl1bQ0gyXTI=

> <s_epik_cmdline>
J2VwaWtfcHl0aG9uJywgJy1waCcsICc3LjAnLCAnLXRuJywgJzgnLCAnLW1hJywgJzIwMCcsICctbWV0YWxfYmluZGluZycsICctaW1hZScsICc8aW5maWxlLm1hZT4nLCAnLW9tYWUnLCAnPG91dGZpbGUubWFlPic=

> <r_lp_tautomer_probability>
1

> <r_epik_Ionization_Penalty>
7.08657e-08

> <r_epik_Ionization_Penalty_Charging>
0

> <r_epik_Ionization_Penalty_Neutral>
7.08657e-08

> <r_epik_State_Penalty>
-0

> <r_epik_Charging_Adjusted_Penalty>
0

> <i_epik_Tot_Q>
0

> <i_epik_Tot_abs_Q>
0

> <r_epik_Metal_State_Penalty>
-0

> <b_epik_Metal_Only>
0

> <s_lp_Force_Field>
OPLS_2005

> <r_lp_Energy>
19.5762

> <b_lp_Chiralities_Consistent>
1

> <s_lp_Variant>
AV-unprocessed.smi:700-1

> <Gold.Version>
5.8.1

> <Gold.Id.Protein>
6NUR|6NUR_protein|mol2

> <Gold.PLP.Fitness>
47.5813

> <Gold.PLP.PLP>
-48.5827

> <Gold.PLP.part.hbond>
0.0000

> <Gold.PLP.part.metal>
0.0000

> <Gold.PLP.part.buried>
-5.8606

> <Gold.PLP.part.nonpolar>
-43.2400

> <Gold.PLP.part.repulsive>
0.0157

> <Gold.PLP.ligand.clash>
0.0000

> <Gold.PLP.ligand.torsion>
0.5301

> <Gold.PLP.Chemscore.Hbond>
0.0000

> <Gold.PLP.Chemscore.CHOScore>
0.0000

> <Gold.PLP.Chemscore.Metal>
0.0000

> <Gold.PLP.Chemscore.Internal.Correction>
0.0588

> <Gold.Rescore>
     Score         DG    S(hbond)    S(metal)    S(lipo)     H(rot)  DE(clash)    DE(int)     intcor
     14.02     -17.20       0.00        0.00     140.41       1.84       0.12       3.06       ----

> <Gold.Chemscore.Fitness>
14.0223

> <Gold.Chemscore.DG>
-17.1982

> <Gold.Chemscore.ZeroCoef>
-5.4800

> <Gold.Chemscore.Hbond>
0.0000

> <Gold.Chemscore.Metal>
0.0000

> <Gold.Chemscore.Lipo>
140.4138

> <Gold.Chemscore.Internal_Hbond>
0.0000

> <Gold.Chemscore.DEClash>
0.1188

> <Gold.Chemscore.DEInternal>
3.0570

> <Gold.Chemscore.Rot>
1.8399

> <Gold.Chemscore.Internal.Correction>
   9.000000E+99

> <Gold.Chemscore.Hbond.Weighted>
-0.0000

> <Gold.Chemscore.Metal.Weighted>
-0.0000

> <Gold.Chemscore.Lipo.Weighted>
-16.4284

> <Gold.Chemscore.Internal_Hbond.Weighted>
0.0000

> <Gold.Chemscore.DEClash.Weighted>
0.1188

> <Gold.Chemscore.DEInternal.Weighted>
3.0570

> <Gold.Chemscore.Rot.Weighted>
4.7103

> <Gold.Chemscore.Internal.Correction.Weighted>
   9.000000E+99

> <Gold.Protein.RotatedTorsions>
[ 6907 6896 6895 6894 ] final -128.79 input  -60.11 | X-H torsion
[ 7974 7965 7964 7962 ] final   39.59 input  175.53 | X-H torsion
[ 8008 7997 7996 7995 ] final  -46.41 input   59.86 | X-H torsion
[ 10167 10162 10161 10158 ] final -138.02 input  -65.29 | X-H torsion
[ 10718 10713 10712 10709 ] final -123.54 input   66.30 | X-H torsion
[ 10763 10752 10751 10750 ] final  -75.31 input  -60.55 | X-H torsion
[ 11005 11000 10999 10996 ] final  173.26 input  -57.11 | X-H torsion

> <Gold.Protein.ActiveResidues>
 VAL166  LYS551  ARG553  GLY616  TRP617  ASP618  TYR619  PRO620  LYS621  CYS622 
 ASP623  PHE694  ASN695  SER759  ASP760  ASP761  ALA762  ILE779  LEU786  VAL792 
 PHE793  MET794  SER795  GLU796  ALA797  LYS798  CYS799  TRP800  GLU811  SER814 

> <Gold.Protein.RotatedAtoms>
  150.9217  133.6872  159.2830 H   0  0  0  0  0  0  0  0  0  0  0  0  # atno 6907 bound_to 6896
  151.4325  135.1010  159.9656 H   0  0  0  0  0  0  0  0  0  0  0  0  # atno 6908 bound_to 6896
  152.4983  133.8644  159.7321 H   0  0  0  0  0  0  0  0  0  0  0  0  # atno 6909 bound_to 6896
  146.0972  139.5633  142.9438 H   0  0  0  0  0  0  0  0  0  0  0  0  # atno 7974 bound_to 7965
  154.4007  140.1372  156.4007 H   0  0  0  0  0  0  0  0  0  0  0  0  # atno 8008 bound_to 7997
  155.7827  140.3481  155.5286 H   0  0  0  0  0  0  0  0  0  0  0  0  # atno 8009 bound_to 7997
  155.8657  140.0964  157.1574 H   0  0  0  0  0  0  0  0  0  0  0  0  # atno 8010 bound_to 7997
  139.8520  143.7186  152.2657 H   0  0  0  0  0  0  0  0  0  0  0  0  # atno 10167 bound_to 10162
  156.1511  130.6535  150.9914 H   0  0  0  0  0  0  0  0  0  0  0  0  # atno 10718 bound_to 10713
  154.4848  135.5835  153.6416 H   0  0  0  0  0  0  0  0  0  0  0  0  # atno 10763 bound_to 10752
  152.9853  135.6098  154.3200 H   0  0  0  0  0  0  0  0  0  0  0  0  # atno 10764 bound_to 10752
  154.3094  135.2845  155.2552 H   0  0  0  0  0  0  0  0  0  0  0  0  # atno 10765 bound_to 10752
  140.3386  134.7296  157.4186 H   0  0  0  0  0  0  0  0  0  0  0  0  # atno 11005 bound_to 11000
  145.5926  141.0367  143.2062 LP  0  0  0  0  0  0  0  0  0  0  0  0  # atno 17320 bound_to 7965
  144.7404  139.7465  143.7313 LP  0  0  0  0  0  0  0  0  0  0  0  0  # atno 17321 bound_to 7965
  139.7456  144.7548  151.0585 LP  0  0  0  0  0  0  0  0  0  0  0  0  # atno 17342 bound_to 10162
  140.7786  143.4920  150.9881 LP  0  0  0  0  0  0  0  0  0  0  0  0  # atno 17343 bound_to 10162
  157.6657  131.0872  150.7733 LP  0  0  0  0  0  0  0  0  0  0  0  0  # atno 17370 bound_to 10713
  156.7801  130.4856  149.5402 LP  0  0  0  0  0  0  0  0  0  0  0  0  # atno 17371 bound_to 10713
  140.0800  134.5744  155.8550 LP  0  0  0  0  0  0  0  0  0  0  0  0  # atno 17394 bound_to 11000
  141.2044  133.6639  156.6122 LP  0  0  0  0  0  0  0  0  0  0  0  0  # atno 17395 bound_to 11000

$$$$
