AV-unprocessed.smi:114|AV-procd|sdf|1110|dock6
  -GOLD-   2262018223D 1   1.00000     0.00000
 Structure written by MMmdl.
 32 34  0  0  0  0  0  0  0  0  1 V2000
  150.5992  142.9186  156.2754 N   0  0  0  0  0  0  0  0  0  0  0  0
  150.4714  141.6879  155.7594 C   0  0  0  0  0  0  0  0  0  0  0  0
  151.4688  140.7968  155.9629 N   0  0  0  0  0  0  0  0  0  0  0  0
  151.3798  139.5587  155.4629 C   0  0  0  0  0  0  0  0  0  0  0  0
  152.4208  138.7308  155.7149 F   0  0  0  0  0  0  0  0  0  0  0  0
  150.3767  139.0467  154.7422 N   0  0  0  0  0  0  0  0  0  0  0  0
  149.3666  139.9392  154.5325 C   0  0  0  0  0  0  0  0  0  0  0  0
  149.3411  141.2778  155.0107 C   0  0  0  0  0  0  0  0  0  0  0  0
  148.1657  141.9012  154.6173 N   0  0  0  0  0  0  0  0  0  0  0  0
  147.5350  140.9789  153.9419 C   0  0  0  0  0  0  0  0  0  0  0  0
  148.1846  139.7686  153.8358 N   0  0  0  0  0  0  0  0  0  0  0  0
  147.6847  138.5521  153.1208 C   0  0  1  0  0  0  0  0  0  0  0  0
  147.3038  137.5868  154.0513 O   0  0  0  0  0  0  0  0  0  0  0  0
  146.0749  136.9583  153.6783 C   0  0  1  0  0  0  0  0  0  0  0  0
  145.0334  137.2590  154.7772 C   0  0  0  0  0  0  0  0  0  0  0  0
  144.6607  138.6196  154.7265 O   0  0  0  0  0  0  0  0  0  0  0  0
  145.7467  137.5377  152.2875 C   0  0  1  0  0  0  0  0  0  0  0  0
  144.3610  137.6833  152.0411 O   0  0  0  0  0  0  0  0  0  0  0  0
  146.4552  138.8827  152.2788 C   0  0  2  0  0  0  0  0  0  0  0  0
  146.8023  139.2194  150.9497 O   0  0  0  0  0  0  0  0  0  0  0  0
  148.5327  138.1864  152.5397 H   0  0  0  0  0  0  0  0  0  0  0  0
  146.2177  135.8800  153.5960 H   0  0  0  0  0  0  0  0  0  0  0  0
  146.1767  136.8827  151.5274 H   0  0  0  0  0  0  0  0  0  0  0  0
  145.8615  139.6584  152.7663 H   0  0  0  0  0  0  0  0  0  0  0  0
  149.8672  143.6002  156.1353 H   0  0  0  0  0  0  0  0  0  0  0  0
  151.4267  143.1633  156.7998 H   0  0  0  0  0  0  0  0  0  0  0  0
  146.5661  141.1563  153.4981 H   0  0  0  0  0  0  0  0  0  0  0  0
  144.1594  136.6143  154.6956 H   0  0  0  0  0  0  0  0  0  0  0  0
  145.4550  137.0966  155.7689 H   0  0  0  0  0  0  0  0  0  0  0  0
  143.8357  138.7218  155.1760 H   0  0  0  0  0  0  0  0  0  0  0  0
  144.1798  138.5947  151.8698 H   0  0  0  0  0  0  0  0  0  0  0  0
  147.7433  139.2801  150.8900 H   0  0  0  0  0  0  0  0  0  0  0  0
  1  2  1  0  0  0  0
  1 25  1  0  0  0  0
  1 26  1  0  0  0  0
  2  8  1  0  0  0  0
  2  3  2  0  0  0  0
  3  4  1  0  0  0  0
  4  5  1  0  0  0  0
  4  6  2  0  0  0  0
  6  7  1  0  0  0  0
  7 11  1  0  0  0  0
  7  8  2  0  0  0  0
  8  9  1  0  0  0  0
  9 10  2  0  0  0  0
 10 11  1  0  0  0  0
 10 27  1  0  0  0  0
 11 12  1  0  0  0  0
 12 21  1  0  0  0  0
 12 19  1  0  0  0  0
 12 13  1  0  0  0  0
 13 14  1  0  0  0  0
 14 22  1  0  0  0  0
 14 15  1  0  0  0  0
 14 17  1  0  0  0  0
 15 16  1  0  0  0  0
 15 28  1  0  0  0  0
 15 29  1  0  0  0  0
 16 30  1  0  0  0  0
 17 23  1  0  0  0  0
 17 18  1  0  0  0  0
 17 19  1  0  0  0  0
 18 31  1  0  0  0  0
 19 24  1  0  0  0  0
 19 20  1  0  0  0  0
 20 32  1  0  0  0  0
M  END
> <s_m_source_file>
AV-unprocessed.smi

> <i_m_source_file_index>
114

> <i_lp_mmshare_version>
43012

> <i_f3d_flags>
0

> <s_epik_input>
RmMobjEpbmMoW05IMl0pYyhjMTIpbltjSF1uMltDQEBIXTNPW0NASF0oW0NIMl1bT0hdKVtDQEBIXShbT0hdKVtDQEBIXTNbT0hd

> <s_epik_cmdline>
J2VwaWtfcHl0aG9uJywgJy1waCcsICc3LjAnLCAnLXRuJywgJzgnLCAnLW1hJywgJzIwMCcsICctbWV0YWxfYmluZGluZycsICctaW1hZScsICc8aW5maWxlLm1hZT4nLCAnLW9tYWUnLCAnPG91dGZpbGUubWFlPic=

> <r_lp_tautomer_probability>
1

> <r_epik_Ionization_Penalty>
1.13199e-05

> <r_epik_Ionization_Penalty_Charging>
0

> <r_epik_Ionization_Penalty_Neutral>
1.13199e-05

> <r_epik_State_Penalty>
-0

> <r_epik_Charging_Adjusted_Penalty>
0

> <i_epik_Tot_Q>
0

> <i_epik_Tot_abs_Q>
0

> <r_epik_Metal_State_Penalty>
-0

> <b_epik_Metal_Only>
0

> <s_epik_Chemistry_Notes>
This compound contains an acetal/aminal-like group ( X-CH(R)-Y where X, Y are N, S, or O) that may be acid/base labile, releasing an aldehyde.

> <s_lp_Force_Field>
OPLS_2005

> <r_lp_Energy>
42.0862

> <b_lp_Chiralities_Consistent>
1

> <s_lp_Variant>
AV-unprocessed.smi:114-4

> <Gold.Version>
5.8.1

> <Gold.Id.Protein>
6NUR|6NUR_protein|mol2

> <Gold.PLP.Fitness>
37.7789

> <Gold.PLP.PLP>
-29.4058

> <Gold.PLP.part.hbond>
-6.4136

> <Gold.PLP.part.metal>
0.0000

> <Gold.PLP.part.buried>
0.6478

> <Gold.PLP.part.nonpolar>
-24.9797

> <Gold.PLP.part.repulsive>
1.4728

> <Gold.PLP.ligand.clash>
0.0000

> <Gold.PLP.ligand.torsion>
0.3167

> <Gold.PLP.Chemscore.Hbond>
3.0000

> <Gold.PLP.Chemscore.CHOScore>
0.0000

> <Gold.PLP.Chemscore.Metal>
0.0000

> <Gold.Chemscore.Hbonds>
donor molecule, donor type, donor heavy atom, donor atom, acceptor molecule, acceptor atom, score
      L1  H     1    25       P1  8028  1.00
      L1  H    18    31       P1 10175  1.00
      L1  H    20    32       P1  7957  1.00

> <Gold.PLP.Chemscore.Internal.Correction>
0.0066

> <Gold.Rescore>
     Score         DG    S(hbond)    S(metal)    S(lipo)     H(rot)  DE(clash)    DE(int)     intcor
      6.45      -6.99       2.74        0.00      22.88       4.03       0.45       0.09       ----

> <Gold.Chemscore.Fitness>
6.4528

> <Gold.Chemscore.DG>
-6.9896

> <Gold.Chemscore.ZeroCoef>
-5.4800

> <Gold.Chemscore.Hbond>
2.7378

> <Gold.Chemscore.Metal>
0.0000

> <Gold.Chemscore.Lipo>
22.8756

> <Gold.Chemscore.Internal_Hbond>
0.0000

> <Gold.Chemscore.DEClash>
0.4501

> <Gold.Chemscore.DEInternal>
0.0867

> <Gold.Chemscore.Rot>
4.0277

> <Gold.Chemscore.Internal.Correction>
   9.000000E+99

> <Gold.Chemscore.Hbonds>
donor molecule, donor type, donor heavy atom, donor atom, acceptor molecule, acceptor atom, score
      L1  H     1    25       P1  8028  0.96
      L1  H    18    31       P1 10175  0.94
      L1  H    20    32       P1  7957  0.44

> <Gold.Chemscore.Hbond.Weighted>
-9.1442

> <Gold.Chemscore.Metal.Weighted>
-0.0000

> <Gold.Chemscore.Lipo.Weighted>
-2.6764

> <Gold.Chemscore.Internal_Hbond.Weighted>
0.0000

> <Gold.Chemscore.DEClash.Weighted>
0.4501

> <Gold.Chemscore.DEInternal.Weighted>
0.0867

> <Gold.Chemscore.Rot.Weighted>
10.3110

> <Gold.Chemscore.Internal.Correction.Weighted>
   9.000000E+99

> <Gold.Protein.RotatedTorsions>
[ 6907 6896 6895 6894 ] final  -31.72 input  -60.11 | X-H torsion
[ 7974 7965 7964 7962 ] final -106.87 input  175.53 | X-H torsion
[ 8008 7997 7996 7995 ] final -134.06 input   59.86 | X-H torsion
[ 10167 10162 10161 10158 ] final -112.86 input  -65.29 | X-H torsion
[ 10718 10713 10712 10709 ] final    6.43 input   66.30 | X-H torsion
[ 10763 10752 10751 10750 ] final  174.40 input  -60.55 | X-H torsion
[ 11005 11000 10999 10996 ] final  120.74 input  -57.11 | X-H torsion

> <Gold.Protein.ActiveResidues>
 VAL166  LYS551  ARG553  GLY616  TRP617  ASP618  TYR619  PRO620  LYS621  CYS622 
 ASP623  PHE694  ASN695  SER759  ASP760  ASP761  ALA762  ILE779  LEU786  VAL792 
 PHE793  MET794  SER795  GLU796  ALA797  LYS798  CYS799  TRP800  GLU811  SER814 

> <Gold.Protein.RotatedAtoms>
  151.0883  134.9900  159.8389 H   0  0  0  0  0  0  0  0  0  0  0  0  # atno 6907 bound_to 6896
  152.5426  134.2097  159.8755 H   0  0  0  0  0  0  0  0  0  0  0  0  # atno 6908 bound_to 6896
  151.2132  133.4500  159.2632 H   0  0  0  0  0  0  0  0  0  0  0  0  # atno 6909 bound_to 6896
  145.2124  140.9101  143.3306 H   0  0  0  0  0  0  0  0  0  0  0  0  # atno 7974 bound_to 7965
  155.3558  140.0480  157.3046 H   0  0  0  0  0  0  0  0  0  0  0  0  # atno 8008 bound_to 7997
  154.5204  140.2223  155.8951 H   0  0  0  0  0  0  0  0  0  0  0  0  # atno 8009 bound_to 7997
  156.1682  140.3101  155.8933 H   0  0  0  0  0  0  0  0  0  0  0  0  # atno 8010 bound_to 7997
  140.1182  143.4467  152.1708 H   0  0  0  0  0  0  0  0  0  0  0  0  # atno 10167 bound_to 10162
  156.9220  130.5794  149.5648 H   0  0  0  0  0  0  0  0  0  0  0  0  # atno 10718 bound_to 10713
  154.4534  135.2765  155.1765 H   0  0  0  0  0  0  0  0  0  0  0  0  # atno 10763 bound_to 10752
  154.3583  135.6135  153.5681 H   0  0  0  0  0  0  0  0  0  0  0  0  # atno 10764 bound_to 10752
  152.9849  135.5828  154.4882 H   0  0  0  0  0  0  0  0  0  0  0  0  # atno 10765 bound_to 10752
  139.9197  134.9636  156.7852 H   0  0  0  0  0  0  0  0  0  0  0  0  # atno 11005 bound_to 11000
  144.9843  139.3752  143.6246 LP  0  0  0  0  0  0  0  0  0  0  0  0  # atno 17320 bound_to 7965
  146.3394  139.8998  142.8796 LP  0  0  0  0  0  0  0  0  0  0  0  0  # atno 17321 bound_to 7965
  139.5583  144.7388  151.4229 LP  0  0  0  0  0  0  0  0  0  0  0  0  # atno 17342 bound_to 10162
  140.6887  143.7912  150.7224 LP  0  0  0  0  0  0  0  0  0  0  0  0  # atno 17343 bound_to 10162
  156.0487  130.5559  150.8939 LP  0  0  0  0  0  0  0  0  0  0  0  0  # atno 17370 bound_to 10713
  157.5902  131.0944  150.9131 LP  0  0  0  0  0  0  0  0  0  0  0  0  # atno 17371 bound_to 10713
  140.6512  133.9730  155.7756 LP  0  0  0  0  0  0  0  0  0  0  0  0  # atno 17394 bound_to 11000
  141.0707  134.0210  157.3530 LP  0  0  0  0  0  0  0  0  0  0  0  0  # atno 17395 bound_to 11000

$$$$
