AV-unprocessed.smi:344|AV-procd|sdf|2389|dock1
  -GOLD-   2262022313D 1   1.00000     0.00000
 Structure written by MMmdl.
 38 39  0  0  0  0  0  0  0  0  1 V2000
  146.3506  137.0629  151.5272 N   0  0  0  0  0  0  0  0  0  0  0  0
  145.8629  137.4601  152.7054 C   0  0  0  0  0  0  0  0  0  0  0  0
  144.6580  137.6130  152.8965 O   0  0  0  0  0  0  0  0  0  0  0  0
  146.8716  137.7249  153.8268 C   0  0  0  0  0  0  0  0  0  0  0  0
  147.1651  139.1937  153.9379 C   0  0  0  0  0  0  0  0  0  0  0  0
  146.8204  140.1755  153.0398 C   0  0  0  0  0  0  0  0  0  0  0  0
  147.3536  141.7527  153.5559 S   0  0  0  0  0  0  0  0  0  0  0  0
  148.0275  141.0101  154.9980 C   0  0  0  0  0  0  0  0  0  0  0  0
  148.6885  141.7728  155.9962 N   0  0  0  0  0  0  0  0  0  0  0  0
  149.0582  141.3900  157.2327 C   0  0  0  0  0  0  0  0  0  0  0  0
  148.8775  140.2634  157.6971 O   0  0  0  0  0  0  0  0  0  0  0  0
  149.7445  142.4758  158.0696 C   0  0  0  0  0  0  0  0  0  0  0  0
  151.2002  142.7617  157.6503 C   0  0  0  0  0  0  0  0  0  0  0  0
  151.9471  143.6696  158.6437 C   0  0  0  0  0  0  0  0  0  0  0  0
  151.9405  143.1710  160.0930 C   0  0  0  0  0  0  0  0  0  0  0  0
  152.2029  144.4118  160.9561 C   0  0  0  0  0  0  0  0  0  0  0  0
  151.9075  145.6296  160.0681 C   0  0  0  0  0  0  0  0  0  0  0  0
  151.3455  145.0716  158.7580 C   0  0  0  0  0  0  0  0  0  0  0  0
  147.8493  139.6856  155.0545 N   0  0  0  0  0  0  0  0  0  0  0  0
  145.7188  136.8812  150.7606 H   0  0  0  0  0  0  0  0  0  0  0  0
  147.3461  136.9488  151.4042 H   0  0  0  0  0  0  0  0  0  0  0  0
  146.4895  137.3427  154.7744 H   0  0  0  0  0  0  0  0  0  0  0  0
  147.7812  137.1619  153.6140 H   0  0  0  0  0  0  0  0  0  0  0  0
  146.2897  140.0649  152.1060 H   0  0  0  0  0  0  0  0  0  0  0  0
  148.9043  142.7255  155.7415 H   0  0  0  0  0  0  0  0  0  0  0  0
  149.1533  143.3893  157.9957 H   0  0  0  0  0  0  0  0  0  0  0  0
  149.7173  142.1679  159.1155 H   0  0  0  0  0  0  0  0  0  0  0  0
  151.7435  141.8191  157.5685 H   0  0  0  0  0  0  0  0  0  0  0  0
  151.2185  143.2119  156.6566 H   0  0  0  0  0  0  0  0  0  0  0  0
  152.9840  143.7743  158.3198 H   0  0  0  0  0  0  0  0  0  0  0  0
  150.9603  142.7607  160.3400 H   0  0  0  0  0  0  0  0  0  0  0  0
  152.6773  142.3862  160.2668 H   0  0  0  0  0  0  0  0  0  0  0  0
  151.5764  144.4047  161.8484 H   0  0  0  0  0  0  0  0  0  0  0  0
  153.2413  144.4362  161.2879 H   0  0  0  0  0  0  0  0  0  0  0  0
  151.2159  146.3271  160.5413 H   0  0  0  0  0  0  0  0  0  0  0  0
  152.8336  146.1712  159.8709 H   0  0  0  0  0  0  0  0  0  0  0  0
  151.5850  145.7017  157.9007 H   0  0  0  0  0  0  0  0  0  0  0  0
  150.2586  145.0064  158.8273 H   0  0  0  0  0  0  0  0  0  0  0  0
  1  2  1  0  0  0  0
  1 20  1  0  0  0  0
  1 21  1  0  0  0  0
  2  3  2  0  0  0  0
  2  4  1  0  0  0  0
  4  5  1  0  0  0  0
  4 22  1  0  0  0  0
  4 23  1  0  0  0  0
  5 19  1  0  0  0  0
  5  6  2  0  0  0  0
  6  7  1  0  0  0  0
  6 24  1  0  0  0  0
  7  8  1  0  0  0  0
  8  9  1  0  0  0  0
  8 19  2  0  0  0  0
  9 10  1  0  0  0  0
  9 25  1  0  0  0  0
 10 11  2  0  0  0  0
 10 12  1  0  0  0  0
 12 13  1  0  0  0  0
 12 26  1  0  0  0  0
 12 27  1  0  0  0  0
 13 14  1  0  0  0  0
 13 28  1  0  0  0  0
 13 29  1  0  0  0  0
 14 18  1  0  0  0  0
 14 15  1  0  0  0  0
 14 30  1  0  0  0  0
 15 16  1  0  0  0  0
 15 31  1  0  0  0  0
 15 32  1  0  0  0  0
 16 17  1  0  0  0  0
 16 33  1  0  0  0  0
 16 34  1  0  0  0  0
 17 18  1  0  0  0  0
 17 35  1  0  0  0  0
 17 36  1  0  0  0  0
 18 37  1  0  0  0  0
 18 38  1  0  0  0  0
M  END
> <s_m_source_file>
AV-unprocessed.smi

> <i_m_source_file_index>
344

> <i_lp_mmshare_version>
43012

> <i_f3d_flags>
0

> <s_epik_input>
W05IMl1DKD1PKVtDSDJdYzFbY0hdc2MobjEpW05IXUMoPU8pW0NIMl1bQ0gyXVtDSF0yW0NIMl1bQ0gyXVtDSDJdW0NIMl0y

> <s_epik_cmdline>
J2VwaWtfcHl0aG9uJywgJy1waCcsICc3LjAnLCAnLXRuJywgJzgnLCAnLW1hJywgJzIwMCcsICctbWV0YWxfYmluZGluZycsICctaW1hZScsICc8aW5maWxlLm1hZT4nLCAnLW9tYWUnLCAnPG91dGZpbGUubWFlPic=

> <r_lp_tautomer_probability>
1

> <r_epik_Ionization_Penalty>
0.000156249

> <r_epik_Ionization_Penalty_Charging>
0

> <r_epik_Ionization_Penalty_Neutral>
0.000156249

> <r_epik_State_Penalty>
-0

> <r_epik_Charging_Adjusted_Penalty>
0

> <i_epik_Tot_Q>
0

> <i_epik_Tot_abs_Q>
0

> <r_epik_Metal_State_Penalty>
0.0972404

> <b_epik_Metal_Only>
0

> <s_lp_Force_Field>
OPLS_2005

> <r_lp_Energy>
21.4861

> <b_lp_Chiralities_Consistent>
1

> <s_lp_Variant>
AV-unprocessed.smi:344-1

> <Gold.Version>
5.8.1

> <Gold.Id.Protein>
6NUR|6NUR_protein|mol2

> <Gold.PLP.Fitness>
41.5413

> <Gold.PLP.PLP>
-34.8068

> <Gold.PLP.part.hbond>
-2.1138

> <Gold.PLP.part.metal>
0.0000

> <Gold.PLP.part.buried>
-5.9255

> <Gold.PLP.part.nonpolar>
-28.5744

> <Gold.PLP.part.repulsive>
0.9554

> <Gold.PLP.ligand.clash>
0.0000

> <Gold.PLP.ligand.torsion>
0.6871

> <Gold.PLP.Chemscore.Hbond>
1.9760

> <Gold.PLP.Chemscore.CHOScore>
0.6816

> <Gold.PLP.Chemscore.Metal>
0.0000

> <Gold.Chemscore.Hbonds>
donor molecule, donor type, donor heavy atom, donor atom, acceptor molecule, acceptor atom, score
      L1  H     1    21       P1  7948  1.00
      L1  H     9    25       P1  8028  1.00
      L1  C     6    24       P1 10175  0.43

> <Gold.PLP.Chemscore.Internal.Correction>
0.1359

> <Gold.Rescore>
     Score         DG    S(hbond)    S(metal)    S(lipo)     H(rot)  DE(clash)    DE(int)     intcor
     15.19     -17.25       1.98        0.00      97.46       2.44       0.19       1.87       ----

> <Gold.Chemscore.Fitness>
15.1923

> <Gold.Chemscore.DG>
-17.2500

> <Gold.Chemscore.ZeroCoef>
-5.4800

> <Gold.Chemscore.Hbond>
1.9803

> <Gold.Chemscore.Metal>
0.0000

> <Gold.Chemscore.Lipo>
97.4557

> <Gold.Chemscore.Internal_Hbond>
0.0000

> <Gold.Chemscore.DEClash>
0.1911

> <Gold.Chemscore.DEInternal>
1.8665

> <Gold.Chemscore.Rot>
2.4400

> <Gold.Chemscore.Internal.Correction>
   9.000000E+99

> <Gold.Chemscore.Hbonds>
donor molecule, donor type, donor heavy atom, donor atom, acceptor molecule, acceptor atom, score
      L1  H     1    21       P1  7948  0.98
      L1  H     9    25       P1  8028  0.97

> <Gold.Chemscore.Hbond.Weighted>
-6.6141

> <Gold.Chemscore.Metal.Weighted>
-0.0000

> <Gold.Chemscore.Lipo.Weighted>
-11.4023

> <Gold.Chemscore.Internal_Hbond.Weighted>
0.0000

> <Gold.Chemscore.DEClash.Weighted>
0.1911

> <Gold.Chemscore.DEInternal.Weighted>
1.8665

> <Gold.Chemscore.Rot.Weighted>
6.2465

> <Gold.Chemscore.Internal.Correction.Weighted>
   9.000000E+99

> <Gold.Protein.RotatedTorsions>
[ 6907 6896 6895 6894 ] final  -57.53 input  -60.11 | X-H torsion
[ 7974 7965 7964 7962 ] final  -54.99 input  175.53 | X-H torsion
[ 8008 7997 7996 7995 ] final  -24.68 input   59.86 | X-H torsion
[ 10167 10162 10161 10158 ] final -179.56 input  -65.29 | X-H torsion
[ 10718 10713 10712 10709 ] final   40.75 input   66.30 | X-H torsion
[ 10763 10752 10751 10750 ] final   65.89 input  -60.55 | X-H torsion
[ 11005 11000 10999 10996 ] final  177.64 input  -57.11 | X-H torsion

> <Gold.Protein.ActiveResidues>
 VAL166  LYS551  ARG553  GLY616  TRP617  ASP618  TYR619  PRO620  LYS621  CYS622 
 ASP623  PHE694  ASN695  SER759  ASP760  ASP761  ALA762  ILE779  LEU786  VAL792 
 PHE793  MET794  SER795  GLU796  ALA797  LYS798  CYS799  TRP800  GLU811  SER814 

> <Gold.Protein.RotatedAtoms>
  150.8079  134.7215  159.6660 H   0  0  0  0  0  0  0  0  0  0  0  0  # atno 6907 bound_to 6896
  152.4198  134.5972  160.0000 H   0  0  0  0  0  0  0  0  0  0  0  0  # atno 6908 bound_to 6896
  151.6190  133.3303  159.3120 H   0  0  0  0  0  0  0  0  0  0  0  0  # atno 6909 bound_to 6896
  145.8793  140.8156  142.9848 H   0  0  0  0  0  0  0  0  0  0  0  0  # atno 7974 bound_to 7965
  154.4516  140.1947  156.0501 H   0  0  0  0  0  0  0  0  0  0  0  0  # atno 8008 bound_to 7997
  156.0660  140.3290  155.7491 H   0  0  0  0  0  0  0  0  0  0  0  0  # atno 8009 bound_to 7997
  155.5337  140.0580  157.2874 H   0  0  0  0  0  0  0  0  0  0  0  0  # atno 8010 bound_to 7997
  139.5381  144.2440  152.0837 H   0  0  0  0  0  0  0  0  0  0  0  0  # atno 10167 bound_to 10162
  157.3858  130.7779  149.7229 H   0  0  0  0  0  0  0  0  0  0  0  0  # atno 10718 bound_to 10713
  153.0116  135.5340  154.6738 H   0  0  0  0  0  0  0  0  0  0  0  0  # atno 10763 bound_to 10752
  154.5916  135.2859  155.0632 H   0  0  0  0  0  0  0  0  0  0  0  0  # atno 10764 bound_to 10752
  154.1723  135.6530  153.5065 H   0  0  0  0  0  0  0  0  0  0  0  0  # atno 10765 bound_to 10752
  140.3863  134.6902  157.4481 H   0  0  0  0  0  0  0  0  0  0  0  0  # atno 11005 bound_to 11000
  144.6727  140.1359  143.7440 LP  0  0  0  0  0  0  0  0  0  0  0  0  # atno 17320 bound_to 7965
  145.9042  139.2448  143.1475 LP  0  0  0  0  0  0  0  0  0  0  0  0  # atno 17321 bound_to 7965
  140.1914  144.4748  150.6477 LP  0  0  0  0  0  0  0  0  0  0  0  0  # atno 17342 bound_to 10162
  140.6598  143.2248  151.5884 LP  0  0  0  0  0  0  0  0  0  0  0  0  # atno 17343 bound_to 10162
  155.9786  130.4049  150.3637 LP  0  0  0  0  0  0  0  0  0  0  0  0  # atno 17370 bound_to 10713
  157.1747  131.0377  151.2778 LP  0  0  0  0  0  0  0  0  0  0  0  0  # atno 17371 bound_to 10713
  140.0440  134.6226  155.8944 LP  0  0  0  0  0  0  0  0  0  0  0  0  # atno 17394 bound_to 11000
  141.1906  133.6569  156.5420 LP  0  0  0  0  0  0  0  0  0  0  0  0  # atno 17395 bound_to 11000

$$$$
