AV-unprocessed.smi:937|AV-procd|sdf|4215|dock6
  -GOLD-   22720 2123D 1   1.00000     0.00000
 Structure written by MMmdl.
 46 47  0  0  0  0  0  0  0  0  2 V2000
  151.8056  143.6535  157.7978 C   0  0  0  0  0  0  0  0  0  0  0  0
  151.0845  142.3872  157.3873 C   0  0  0  0  0  0  0  0  0  0  0  0
  151.1616  141.1962  158.1411 C   0  0  0  0  0  0  0  0  0  0  0  0
  150.4622  140.0543  157.6978 C   0  0  0  0  0  0  0  0  0  0  0  0
  149.6997  140.1265  156.5113 C   0  0  0  0  0  0  0  0  0  0  0  0
  148.9381  138.9157  156.0092 C   0  0  0  0  0  0  0  0  0  0  0  0
  149.8602  137.7096  155.7677 C   0  0  0  0  0  0  0  0  0  0  0  0
  149.2824  136.7842  154.8015 N   0  0  0  0  0  0  0  0  0  0  0  0
  148.1969  136.0227  155.0185 C   0  0  0  0  0  0  0  0  0  0  0  0
  147.5798  136.0136  156.0820 O   0  0  0  0  0  0  0  0  0  0  0  0
  147.8202  135.2654  153.9724 N   0  0  0  0  0  0  0  0  0  0  0  0
  146.6928  134.3354  153.8814 C   0  0  2  0  0  0  0  0  0  0  0  0
  146.9999  133.0255  154.6356 C   0  0  0  0  0  0  0  0  0  0  0  0
  145.8540  132.0147  154.4825 C   0  0  0  0  0  0  0  0  0  0  0  0
  145.5507  131.7359  153.0023 C   0  0  0  0  0  0  0  0  0  0  0  0
  145.2352  133.0346  152.2303 C   0  0  2  0  0  0  0  0  0  0  0  0
  144.9186  132.7617  150.7453 C   0  0  0  0  0  0  0  0  0  0  0  0
  145.9579  132.1908  150.1353 F   0  0  0  0  0  0  0  0  0  0  0  0
  143.8629  131.9541  150.6445 F   0  0  0  0  0  0  0  0  0  0  0  0
  144.6280  133.9043  150.1231 F   0  0  0  0  0  0  0  0  0  0  0  0
  146.3901  134.0456  152.3989 C   0  0  0  0  0  0  0  0  0  0  0  0
  149.6607  141.3434  155.7981 C   0  0  0  0  0  0  0  0  0  0  0  0
  150.3449  142.4148  156.2558 N   0  3  0  0  0  0  0  0  0  0  0  0
  152.3232  143.5204  158.7483 H   0  0  0  0  0  0  0  0  0  0  0  0
  151.0981  144.4760  157.9082 H   0  0  0  0  0  0  0  0  0  0  0  0
  152.5432  143.9313  157.0443 H   0  0  0  0  0  0  0  0  0  0  0  0
  151.7480  141.1542  159.0476 H   0  0  0  0  0  0  0  0  0  0  0  0
  150.5125  139.1350  158.2633 H   0  0  0  0  0  0  0  0  0  0  0  0
  148.1630  138.6623  156.7339 H   0  0  0  0  0  0  0  0  0  0  0  0
  148.4195  139.1805  155.0868 H   0  0  0  0  0  0  0  0  0  0  0  0
  150.8222  138.0463  155.3806 H   0  0  0  0  0  0  0  0  0  0  0  0
  150.0661  137.1890  156.7047 H   0  0  0  0  0  0  0  0  0  0  0  0
  149.7294  136.7264  153.8979 H   0  0  0  0  0  0  0  0  0  0  0  0
  148.3865  135.3440  153.1400 H   0  0  0  0  0  0  0  0  0  0  0  0
  145.8054  134.7994  154.3155 H   0  0  0  0  0  0  0  0  0  0  0  0
  147.9226  132.5867  154.2529 H   0  0  0  0  0  0  0  0  0  0  0  0
  147.1698  133.2232  155.6944 H   0  0  0  0  0  0  0  0  0  0  0  0
  146.1105  131.0845  154.9901 H   0  0  0  0  0  0  0  0  0  0  0  0
  144.9591  132.3982  154.9742 H   0  0  0  0  0  0  0  0  0  0  0  0
  146.4051  131.2337  152.5466 H   0  0  0  0  0  0  0  0  0  0  0  0
  144.7121  131.0427  152.9305 H   0  0  0  0  0  0  0  0  0  0  0  0
  144.3424  133.4760  152.6763 H   0  0  0  0  0  0  0  0  0  0  0  0
  146.1418  134.9781  151.8906 H   0  0  0  0  0  0  0  0  0  0  0  0
  147.2865  133.6600  151.9106 H   0  0  0  0  0  0  0  0  0  0  0  0
  149.1080  141.4919  154.8818 H   0  0  0  0  0  0  0  0  0  0  0  0
  150.3007  143.2840  155.7235 H   0  0  0  0  0  0  0  0  0  0  0  0
  1  2  1  0  0  0  0
  1 24  1  0  0  0  0
  1 25  1  0  0  0  0
  1 26  1  0  0  0  0
  2 23  1  0  0  0  0
  2  3  2  0  0  0  0
  3  4  1  0  0  0  0
  3 27  1  0  0  0  0
  4  5  2  0  0  0  0
  4 28  1  0  0  0  0
  5  6  1  0  0  0  0
  5 22  1  0  0  0  0
  6  7  1  0  0  0  0
  6 29  1  0  0  0  0
  6 30  1  0  0  0  0
  7  8  1  0  0  0  0
  7 31  1  0  0  0  0
  7 32  1  0  0  0  0
  8  9  1  0  0  0  0
  8 33  1  0  0  0  0
  9 10  2  0  0  0  0
  9 11  1  0  0  0  0
 11 12  1  0  0  0  0
 11 34  1  0  0  0  0
 12 21  1  0  0  0  0
 12 13  1  0  0  0  0
 12 35  1  0  0  0  0
 13 14  1  0  0  0  0
 13 36  1  0  0  0  0
 13 37  1  0  0  0  0
 14 15  1  0  0  0  0
 14 38  1  0  0  0  0
 14 39  1  0  0  0  0
 15 16  1  0  0  0  0
 15 40  1  0  0  0  0
 15 41  1  0  0  0  0
 16 17  1  0  0  0  0
 16 21  1  0  0  0  0
 16 42  1  0  0  0  0
 17 18  1  0  0  0  0
 17 19  1  0  0  0  0
 17 20  1  0  0  0  0
 21 43  1  0  0  0  0
 21 44  1  0  0  0  0
 22 23  2  0  0  0  0
 22 45  1  0  0  0  0
 23 46  1  0  0  0  0
M  CHG  1  23   1
M  END
> <s_m_source_file>
AV-unprocessed.smi

> <i_m_source_file_index>
937

> <i_lp_mmshare_version>
43012

> <i_f3d_flags>
0

> <s_epik_input>
W0NIM11jMVtjSF1bY0hdYyhbY0hdbjEpW0NIMl1bQ0gyXVtOSF1DKD1PKVtOSF1bQ0BASF0yW0NIMl1bQ0gyXVtDSDJdW0NAQEhdKEMoRikoRilGKVtDSDJdMg==

> <s_epik_cmdline>
J2VwaWtfcHl0aG9uJywgJy1waCcsICc3LjAnLCAnLXRuJywgJzgnLCAnLW1hJywgJzIwMCcsICctbWV0YWxfYmluZGluZycsICctaW1hZScsICc8aW5maWxlLm1hZT4nLCAnLW9tYWUnLCAnPG91dGZpbGUubWFlPic=

> <r_epik_Ionization_Penalty>
1.4226

> <r_epik_Ionization_Penalty_Charging>
1.42255

> <r_epik_Ionization_Penalty_Neutral>
5.16456e-05

> <r_epik_State_Penalty>
1.50646

> <r_epik_Charging_Adjusted_Penalty>
2.92901

> <i_epik_Tot_Q>
1

> <i_epik_Tot_abs_Q>
1

> <r_epik_Metal_State_Penalty>
1.55846

> <b_epik_Metal_Only>
0

> <s_lp_Force_Field>
OPLS_2005

> <r_lp_Energy>
23.9189

> <b_lp_Chiralities_Consistent>
1

> <s_lp_Variant>
AV-unprocessed.smi:937-7

> <Gold.Version>
5.8.1

> <Gold.Id.Protein>
6NUR|6NUR_protein|mol2

> <Gold.PLP.Fitness>
43.8449

> <Gold.PLP.PLP>
-33.9727

> <Gold.PLP.part.hbond>
-2.6722

> <Gold.PLP.part.metal>
0.0000

> <Gold.PLP.part.buried>
-6.1100

> <Gold.PLP.part.nonpolar>
-26.3624

> <Gold.PLP.part.repulsive>
0.1265

> <Gold.PLP.ligand.clash>
0.0000

> <Gold.PLP.ligand.torsion>
0.4053

> <Gold.PLP.Chemscore.Hbond>
3.5488

> <Gold.PLP.Chemscore.CHOScore>
0.0000

> <Gold.PLP.Chemscore.Metal>
0.0000

> <Gold.Chemscore.Hbonds>
donor molecule, donor type, donor heavy atom, donor atom, acceptor molecule, acceptor atom, score
      L1  H     8    33       P1  7948  0.38
      L1  H    11    34       P1  7948  1.00
      L1  H    23    46       P1  8028  1.28

> <Gold.PLP.Chemscore.Internal.Correction>
0.0366

> <Gold.Rescore>
     Score         DG    S(hbond)    S(metal)    S(lipo)     H(rot)  DE(clash)    DE(int)     intcor
     18.64     -19.06       2.82        0.00      71.77       1.66       0.07       0.35       ----

> <Gold.Chemscore.Fitness>
18.6420

> <Gold.Chemscore.DG>
-19.0604

> <Gold.Chemscore.ZeroCoef>
-5.4800

> <Gold.Chemscore.Hbond>
2.8231

> <Gold.Chemscore.Metal>
0.0000

> <Gold.Chemscore.Lipo>
71.7690

> <Gold.Chemscore.Internal_Hbond>
0.0000

> <Gold.Chemscore.DEClash>
0.0704

> <Gold.Chemscore.DEInternal>
0.3479

> <Gold.Chemscore.Rot>
1.6585

> <Gold.Chemscore.Internal.Correction>
   9.000000E+99

> <Gold.Chemscore.Hbonds>
donor molecule, donor type, donor heavy atom, donor atom, acceptor molecule, acceptor atom, score
      L1  H     8    33       P1  7948  0.25
      L1  H    11    34       P1  7948  0.94
      L1  H    23    46       P1  8028  0.61

> <Gold.Chemscore.Hbond.Weighted>
-9.4292

> <Gold.Chemscore.Metal.Weighted>
-0.0000

> <Gold.Chemscore.Lipo.Weighted>
-8.3970

> <Gold.Chemscore.Internal_Hbond.Weighted>
0.0000

> <Gold.Chemscore.DEClash.Weighted>
0.0704

> <Gold.Chemscore.DEInternal.Weighted>
0.3479

> <Gold.Chemscore.Rot.Weighted>
4.2457

> <Gold.Chemscore.Internal.Correction.Weighted>
   9.000000E+99

> <Gold.Protein.RotatedTorsions>
[ 6907 6896 6895 6894 ] final  132.60 input  -60.11 | X-H torsion
[ 7974 7965 7964 7962 ] final  -67.73 input  175.53 | X-H torsion
[ 8008 7997 7996 7995 ] final   -8.99 input   59.86 | X-H torsion
[ 10167 10162 10161 10158 ] final    9.03 input  -65.29 | X-H torsion
[ 10718 10713 10712 10709 ] final -152.03 input   66.30 | X-H torsion
[ 10763 10752 10751 10750 ] final  -56.67 input  -60.55 | X-H torsion
[ 11005 11000 10999 10996 ] final    8.40 input  -57.11 | X-H torsion

> <Gold.Protein.ActiveResidues>
 VAL166  LYS551  ARG553  GLY616  TRP617  ASP618  TYR619  PRO620  LYS621  CYS622 
 ASP623  PHE694  ASN695  SER759  ASP760  ASP761  ALA762  ILE779  LEU786  VAL792 
 PHE793  MET794  SER795  GLU796  ALA797  LYS798  CYS799  TRP800  GLU811  SER814 

> <Gold.Protein.RotatedAtoms>
  152.3307  133.5955  159.5807 H   0  0  0  0  0  0  0  0  0  0  0  0  # atno 6907 bound_to 6896
  150.7421  133.9872  159.3604 H   0  0  0  0  0  0  0  0  0  0  0  0  # atno 6908 bound_to 6896
  151.7747  135.0778  160.0416 H   0  0  0  0  0  0  0  0  0  0  0  0  # atno 6909 bound_to 6896
  145.7255  140.9020  143.0607 H   0  0  0  0  0  0  0  0  0  0  0  0  # atno 7974 bound_to 7965
  154.5689  140.2366  155.8222 H   0  0  0  0  0  0  0  0  0  0  0  0  # atno 8008 bound_to 7997
  156.2090  140.3031  155.9649 H   0  0  0  0  0  0  0  0  0  0  0  0  # atno 8009 bound_to 7997
  155.2750  140.0420  157.3001 H   0  0  0  0  0  0  0  0  0  0  0  0  # atno 8010 bound_to 7997
  140.6279  143.8059  150.7257 H   0  0  0  0  0  0  0  0  0  0  0  0  # atno 10167 bound_to 10162
  156.4671  130.8241  151.2471 H   0  0  0  0  0  0  0  0  0  0  0  0  # atno 10718 bound_to 10713
  154.2103  135.6395  153.5113 H   0  0  0  0  0  0  0  0  0  0  0  0  # atno 10763 bound_to 10752
  152.9991  135.5472  154.6222 H   0  0  0  0  0  0  0  0  0  0  0  0  # atno 10764 bound_to 10752
  154.5657  135.2912  155.0850 H   0  0  0  0  0  0  0  0  0  0  0  0  # atno 10765 bound_to 10752
  140.5374  134.0407  155.7893 H   0  0  0  0  0  0  0  0  0  0  0  0  # atno 11005 bound_to 11000
  144.6906  139.9260  143.7470 LP  0  0  0  0  0  0  0  0  0  0  0  0  # atno 17320 bound_to 7965
  146.0586  139.3581  143.0595 LP  0  0  0  0  0  0  0  0  0  0  0  0  # atno 17321 bound_to 7965
  140.1664  143.4232  152.2031 LP  0  0  0  0  0  0  0  0  0  0  0  0  # atno 17342 bound_to 10162
  139.5497  144.7328  151.4473 LP  0  0  0  0  0  0  0  0  0  0  0  0  # atno 17343 bound_to 10162
  157.7494  131.0088  150.3243 LP  0  0  0  0  0  0  0  0  0  0  0  0  # atno 17370 bound_to 10713
  156.3656  130.3854  149.7216 LP  0  0  0  0  0  0  0  0  0  0  0  0  # atno 17371 bound_to 10713
  141.1247  133.9403  157.2660 LP  0  0  0  0  0  0  0  0  0  0  0  0  # atno 17394 bound_to 11000
  139.9522  135.0173  156.9026 LP  0  0  0  0  0  0  0  0  0  0  0  0  # atno 17395 bound_to 11000

$$$$
