AV-unprocessed.smi:1902|AV-procd|sdf|7720|dock3
  -GOLD-   22720 9463D 1   1.00000     0.00000
 Structure written by MMmdl.
 44 45  0  0  0  0  0  0  0  0  2 V2000
  143.9360  143.7765  155.4861 C   0  0  0  0  0  0  0  0  0  0  0  0
  145.0703  142.7977  155.1506 C   0  0  2  0  0  0  0  0  0  0  0  0
  146.1755  142.8178  156.2196 C   0  0  0  0  0  0  0  0  0  0  0  0
  147.3235  141.8604  155.8567 C   0  0  0  0  0  0  0  0  0  0  0  0
  147.8891  142.1792  154.5201 N   0  3  1  0  0  0  0  0  0  0  0  0
  149.0835  141.3552  154.2070 C   0  0  0  0  0  0  0  0  0  0  0  0
  148.9058  139.8788  154.6134 C   0  0  0  0  0  0  0  0  0  0  0  0
  149.6127  139.5820  155.8532 N   0  0  0  0  0  0  0  0  0  0  0  0
  150.8314  140.0445  156.1696 C   0  0  0  0  0  0  0  0  0  0  0  0
  151.4986  140.7527  155.4143 O   0  0  0  0  0  0  0  0  0  0  0  0
  151.3780  139.6327  157.5437 C   0  0  0  0  0  0  0  0  0  0  0  0
  151.8702  140.7752  158.3316 N   0  0  0  0  0  0  0  0  0  0  0  0
  151.0285  141.9012  158.4289 C   0  0  0  0  0  0  0  0  0  0  0  0
  151.3808  142.9924  159.1269 C   0  0  0  0  0  0  0  0  0  0  0  0
  152.6630  142.9941  159.7904 C   0  0  0  0  0  0  0  0  0  0  0  0
  153.4750  141.9216  159.7055 C   0  0  0  0  0  0  0  0  0  0  0  0
  153.0936  140.7262  158.9448 C   0  0  0  0  0  0  0  0  0  0  0  0
  153.8268  139.7398  158.8654 O   0  0  0  0  0  0  0  0  0  0  0  0
  146.8443  142.1267  153.4630 C   0  0  0  0  0  0  0  0  0  0  0  0
  145.6908  143.0946  153.7755 C   0  0  0  0  0  0  0  0  0  0  0  0
  144.2979  144.8040  155.5344 H   0  0  0  0  0  0  0  0  0  0  0  0
  143.4835  143.5378  156.4491 H   0  0  0  0  0  0  0  0  0  0  0  0
  143.1477  143.7366  154.7341 H   0  0  0  0  0  0  0  0  0  0  0  0
  144.6440  141.7936  155.1209 H   0  0  0  0  0  0  0  0  0  0  0  0
  146.5673  143.8301  156.3297 H   0  0  0  0  0  0  0  0  0  0  0  0
  145.7611  142.5405  157.1894 H   0  0  0  0  0  0  0  0  0  0  0  0
  148.1029  141.9379  156.6158 H   0  0  0  0  0  0  0  0  0  0  0  0
  146.9715  140.8275  155.8677 H   0  0  0  0  0  0  0  0  0  0  0  0
  149.2651  141.3952  153.1320 H   0  0  0  0  0  0  0  0  0  0  0  0
  149.9662  141.7852  154.6830 H   0  0  0  0  0  0  0  0  0  0  0  0
  147.8552  139.6430  154.7778 H   0  0  0  0  0  0  0  0  0  0  0  0
  149.2527  139.2169  153.8177 H   0  0  0  0  0  0  0  0  0  0  0  0
  149.1364  138.9979  156.5257 H   0  0  0  0  0  0  0  0  0  0  0  0
  150.6051  139.1035  158.1049 H   0  0  0  0  0  0  0  0  0  0  0  0
  152.1706  138.8995  157.3873 H   0  0  0  0  0  0  0  0  0  0  0  0
  150.0848  141.8183  157.9094 H   0  0  0  0  0  0  0  0  0  0  0  0
  150.7213  143.8453  159.1930 H   0  0  0  0  0  0  0  0  0  0  0  0
  152.9721  143.8587  160.3590 H   0  0  0  0  0  0  0  0  0  0  0  0
  154.4299  141.9405  160.2097 H   0  0  0  0  0  0  0  0  0  0  0  0
  147.2674  142.3888  152.4943 H   0  0  0  0  0  0  0  0  0  0  0  0
  146.4646  141.1072  153.3750 H   0  0  0  0  0  0  0  0  0  0  0  0
  144.9294  143.0200  152.9982 H   0  0  0  0  0  0  0  0  0  0  0  0
  146.0596  144.1209  153.7482 H   0  0  0  0  0  0  0  0  0  0  0  0
  148.2092  143.1358  154.5735 H   0  0  0  0  0  0  0  0  0  0  0  0
  1  2  1  0  0  0  0
  1 21  1  0  0  0  0
  1 22  1  0  0  0  0
  1 23  1  0  0  0  0
  2 20  1  0  0  0  0
  2  3  1  0  0  0  0
  2 24  1  0  0  0  0
  3  4  1  0  0  0  0
  3 25  1  0  0  0  0
  3 26  1  0  0  0  0
  4  5  1  0  0  0  0
  4 27  1  0  0  0  0
  4 28  1  0  0  0  0
  5  6  1  0  0  0  0
  5 19  1  0  0  0  0
  5 44  1  0  0  0  0
  6  7  1  0  0  0  0
  6 29  1  0  0  0  0
  6 30  1  0  0  0  0
  7  8  1  0  0  0  0
  7 31  1  0  0  0  0
  7 32  1  0  0  0  0
  8  9  1  0  0  0  0
  8 33  1  0  0  0  0
  9 10  2  0  0  0  0
  9 11  1  0  0  0  0
 11 12  1  0  0  0  0
 11 34  1  0  0  0  0
 11 35  1  0  0  0  0
 12 17  1  0  0  0  0
 12 13  1  0  0  0  0
 13 14  2  0  0  0  0
 13 36  1  0  0  0  0
 14 15  1  0  0  0  0
 14 37  1  0  0  0  0
 15 16  2  0  0  0  0
 15 38  1  0  0  0  0
 16 17  1  0  0  0  0
 16 39  1  0  0  0  0
 17 18  2  0  0  0  0
 19 20  1  0  0  0  0
 19 40  1  0  0  0  0
 19 41  1  0  0  0  0
 20 42  1  0  0  0  0
 20 43  1  0  0  0  0
M  CHG  1   5   1
M  END
> <s_m_source_file>
AV-unprocessed.smi

> <i_m_source_file_index>
1902

> <i_lp_mmshare_version>
43012

> <i_f3d_flags>
0

> <s_epik_input>
W0NIM11bQ0hdMVtDSDJdW0NIMl1OKFtDSDJdW0NIMl0xKVtDSDJdW0NIMl1bTkhdQyg9TylbQ0gyXW4yW2NIXVtjSF1bY0hdW2NIXWMyPU8=

> <s_epik_cmdline>
J2VwaWtfcHl0aG9uJywgJy1waCcsICc3LjAnLCAnLXRuJywgJzgnLCAnLW1hJywgJzIwMCcsICctbWV0YWxfYmluZGluZycsICctaW1hZScsICc8aW5maWxlLm1hZT4nLCAnLW9tYWUnLCAnPG91dGZpbGUubWFlPic=

> <r_lp_tautomer_probability>
1

> <r_epik_Ionization_Penalty>
0.00156146

> <r_epik_Ionization_Penalty_Charging>
0.00156137

> <r_epik_Ionization_Penalty_Neutral>
8.12891e-08

> <r_epik_State_Penalty>
0.00104868

> <r_epik_Charging_Adjusted_Penalty>
0.00261006

> <i_epik_Tot_Q>
1

> <i_epik_Tot_abs_Q>
1

> <r_epik_Metal_State_Penalty>
-0

> <b_epik_Metal_Only>
0

> <s_lp_Force_Field>
OPLS_2005

> <r_lp_Energy>
24.6388

> <b_lp_Chiralities_Consistent>
1

> <s_lp_Variant>
AV-unprocessed.smi:1902-1

> <Gold.Version>
5.8.1

> <Gold.Id.Protein>
6NUR|6NUR_protein|mol2

> <Gold.PLP.Fitness>
47.5595

> <Gold.PLP.PLP>
-38.0741

> <Gold.PLP.part.hbond>
-3.0000

> <Gold.PLP.part.metal>
0.0000

> <Gold.PLP.part.buried>
-4.0074

> <Gold.PLP.part.nonpolar>
-30.3176

> <Gold.PLP.part.repulsive>
0.2007

> <Gold.PLP.ligand.clash>
0.0000

> <Gold.PLP.ligand.torsion>
0.8509

> <Gold.PLP.Chemscore.Hbond>
3.7040

> <Gold.PLP.Chemscore.CHOScore>
0.0000

> <Gold.PLP.Chemscore.Metal>
0.0000

> <Gold.Chemscore.Hbonds>
donor molecule, donor type, donor heavy atom, donor atom, acceptor molecule, acceptor atom, score
      L1  H     5    44       P1  8028  2.00
      P1  H  7989  7998       L1    10  0.70
      P1  H  7997  8008       L1    18  1.00

> <Gold.PLP.Chemscore.Internal.Correction>
0.0752

> <Gold.Rescore>
     Score         DG    S(hbond)    S(metal)    S(lipo)     H(rot)  DE(clash)    DE(int)     intcor
     16.61     -18.72       2.66        0.00      78.02       1.86       0.10       2.01       ----

> <Gold.Chemscore.Fitness>
16.6115

> <Gold.Chemscore.DG>
-18.7190

> <Gold.Chemscore.ZeroCoef>
-5.4800

> <Gold.Chemscore.Hbond>
2.6552

> <Gold.Chemscore.Metal>
0.0000

> <Gold.Chemscore.Lipo>
78.0246

> <Gold.Chemscore.Internal_Hbond>
0.0000

> <Gold.Chemscore.DEClash>
0.0969

> <Gold.Chemscore.DEInternal>
2.0105

> <Gold.Chemscore.Rot>
1.8586

> <Gold.Chemscore.Internal.Correction>
   9.000000E+99

> <Gold.Chemscore.Hbonds>
donor molecule, donor type, donor heavy atom, donor atom, acceptor molecule, acceptor atom, score
      L1  H     5    44       P1  8028  0.91
      P1  H  7989  7998       L1    10  0.70
      P1  H  7997  8008       L1    18  0.34

> <Gold.Chemscore.Hbond.Weighted>
-8.8682

> <Gold.Chemscore.Metal.Weighted>
-0.0000

> <Gold.Chemscore.Lipo.Weighted>
-9.1289

> <Gold.Chemscore.Internal_Hbond.Weighted>
0.0000

> <Gold.Chemscore.DEClash.Weighted>
0.0969

> <Gold.Chemscore.DEInternal.Weighted>
2.0105

> <Gold.Chemscore.Rot.Weighted>
4.7581

> <Gold.Chemscore.Internal.Correction.Weighted>
   9.000000E+99

> <Gold.Protein.RotatedTorsions>
[ 6907 6896 6895 6894 ] final   15.25 input  -60.11 | X-H torsion
[ 7974 7965 7964 7962 ] final  -56.05 input  175.53 | X-H torsion
[ 8008 7997 7996 7995 ] final  -96.07 input   59.86 | X-H torsion
[ 10167 10162 10161 10158 ] final   98.93 input  -65.29 | X-H torsion
[ 10718 10713 10712 10709 ] final -152.93 input   66.30 | X-H torsion
[ 10763 10752 10751 10750 ] final  -92.94 input  -60.55 | X-H torsion
[ 11005 11000 10999 10996 ] final -136.97 input  -57.11 | X-H torsion

> <Gold.Protein.ActiveResidues>
 VAL166  LYS551  ARG553  GLY616  TRP617  ASP618  TYR619  PRO620  LYS621  CYS622 
 ASP623  PHE694  ASN695  SER759  ASP760  ASP761  ALA762  ILE779  LEU786  VAL792 
 PHE793  MET794  SER795  GLU796  ALA797  LYS798  CYS799  TRP800  GLU811  SER814 

> <Gold.Protein.RotatedAtoms>
  151.8150  135.0669  160.0417 H   0  0  0  0  0  0  0  0  0  0  0  0  # atno 6907 bound_to 6896
  152.2992  133.5634  159.5616 H   0  0  0  0  0  0  0  0  0  0  0  0  # atno 6908 bound_to 6896
  150.7265  134.0232  159.3750 H   0  0  0  0  0  0  0  0  0  0  0  0  # atno 6909 bound_to 6896
  145.8672  140.8243  142.9907 H   0  0  0  0  0  0  0  0  0  0  0  0  # atno 7974 bound_to 7965
  154.7697  140.0474  157.1041 H   0  0  0  0  0  0  0  0  0  0  0  0  # atno 8008 bound_to 7997
  154.9836  140.3104  155.4916 H   0  0  0  0  0  0  0  0  0  0  0  0  # atno 8009 bound_to 7997
  156.2919  140.2231  156.4936 H   0  0  0  0  0  0  0  0  0  0  0  0  # atno 8010 bound_to 7997
  139.7663  144.6937  151.0219 H   0  0  0  0  0  0  0  0  0  0  0  0  # atno 10167 bound_to 10162
  156.4791  130.8294  151.2522 H   0  0  0  0  0  0  0  0  0  0  0  0  # atno 10718 bound_to 10713
  154.6910  135.5213  153.8393 H   0  0  0  0  0  0  0  0  0  0  0  0  # atno 10763 bound_to 10752
  153.0632  135.6576  154.0423 H   0  0  0  0  0  0  0  0  0  0  0  0  # atno 10764 bound_to 10752
  154.0297  135.2986  155.3350 H   0  0  0  0  0  0  0  0  0  0  0  0  # atno 10765 bound_to 10752
  140.8755  134.1997  157.4624 H   0  0  0  0  0  0  0  0  0  0  0  0  # atno 11005 bound_to 11000
  144.6726  140.1184  143.7451 LP  0  0  0  0  0  0  0  0  0  0  0  0  # atno 17320 bound_to 7965
  145.9180  139.2527  143.1398 LP  0  0  0  0  0  0  0  0  0  0  0  0  # atno 17321 bound_to 7965
  140.7811  143.4639  151.0240 LP  0  0  0  0  0  0  0  0  0  0  0  0  # atno 17342 bound_to 10162
  139.8324  143.7673  152.3180 LP  0  0  0  0  0  0  0  0  0  0  0  0  # atno 17343 bound_to 10162
  157.7485  131.0051  150.3100 LP  0  0  0  0  0  0  0  0  0  0  0  0  # atno 17370 bound_to 10713
  156.3540  130.3835  149.7305 LP  0  0  0  0  0  0  0  0  0  0  0  0  # atno 17371 bound_to 10713
  139.8715  134.9794  156.5034 LP  0  0  0  0  0  0  0  0  0  0  0  0  # atno 17394 bound_to 11000
  140.8523  133.8123  155.9181 LP  0  0  0  0  0  0  0  0  0  0  0  0  # atno 17395 bound_to 11000

$$$$
