AV-unprocessed.smi:45|AV-procd|sdf|412|dock2
  -GOLD-   2262016273D 1   1.00000     0.00000
 Structure written by MMmdl.
 61 64  0  0  0  0  0  0  0  0  2 V2000
  151.5809  141.6874  157.7969 C   0  0  0  0  0  0  0  0  0  0  0  0
  150.9460  141.3884  156.5623 O   0  0  0  0  0  0  0  0  0  0  0  0
  150.9080  140.0724  156.1494 C   0  0  0  0  0  0  0  0  0  0  0  0
  151.6811  139.0384  156.7363 C   0  0  0  0  0  0  0  0  0  0  0  0
  151.5900  137.7169  156.2584 C   0  0  0  0  0  0  0  0  0  0  0  0
  150.7280  137.4053  155.1885 C   0  0  0  0  0  0  0  0  0  0  0  0
  150.6352  135.9833  154.6709 C   0  0  0  0  0  0  0  0  0  0  0  0
  150.0184  135.0713  155.6230 N   0  0  0  0  0  0  0  0  0  0  0  0
  148.7904  134.4474  155.3510 C   0  0  0  0  0  0  0  0  0  0  0  0
  148.1918  134.7021  154.1572 N   0  3  0  0  0  0  0  0  0  0  0  0
  147.0243  134.1237  153.8306 C   0  0  0  0  0  0  0  0  0  0  0  0
  146.4386  134.4136  152.5993 N   0  0  0  0  0  0  0  0  0  0  0  0
  146.4197  133.4352  151.5167 C   0  0  0  0  0  0  0  0  0  0  0  0
  145.1343  133.6968  150.7333 C   0  0  0  0  0  0  0  0  0  0  0  0
  144.8932  135.1838  150.9582 C   0  0  0  0  0  0  0  0  0  0  0  0
  145.3883  135.4124  152.3937 C   0  0  2  0  0  0  0  0  0  0  0  0
  145.8660  136.8608  152.6312 C   0  0  0  0  0  0  0  0  0  0  0  0
  144.8168  137.7626  152.3531 O   0  0  0  0  0  0  0  0  0  0  0  0
  146.3948  133.2810  154.6596 N   0  0  0  0  0  0  0  0  0  0  0  0
  146.9447  132.9961  155.8548 C   0  0  0  0  0  0  0  0  0  0  0  0
  148.1710  133.5552  156.2640 C   0  0  0  0  0  0  0  0  0  0  0  0
  148.7387  133.2388  157.6212 C   0  0  0  0  0  0  0  0  0  0  0  0
  149.9321  132.9748  157.7685 O   0  0  0  0  0  0  0  0  0  0  0  0
  147.8517  133.2470  158.6288 N   0  0  0  0  0  0  0  0  0  0  0  0
  148.1861  133.0338  160.0317 C   0  0  0  0  0  0  0  0  0  0  0  0
  147.1266  133.5880  160.9686 C   0  0  0  0  0  0  0  0  0  0  0  0
  145.9162  133.0232  160.9147 N   0  0  0  0  0  0  0  0  0  0  0  0
  144.9783  133.5070  161.7580 C   0  0  0  0  0  0  0  0  0  0  0  0
  145.2587  134.5580  162.6544 C   0  0  0  0  0  0  0  0  0  0  0  0
  146.5701  135.0731  162.6210 C   0  0  0  0  0  0  0  0  0  0  0  0
  147.5042  134.5852  161.7763 N   0  0  0  0  0  0  0  0  0  0  0  0
  149.9543  138.4262  154.6025 C   0  0  0  0  0  0  0  0  0  0  0  0
  150.0446  139.7491  155.0786 C   0  0  0  0  0  0  0  0  0  0  0  0
  149.0851  140.9776  154.3341 Cl  0  0  0  0  0  0  0  0  0  0  0  0
  144.5792  135.1767  153.0870 H   0  0  0  0  0  0  0  0  0  0  0  0
  151.5287  142.7610  157.9774 H   0  0  0  0  0  0  0  0  0  0  0  0
  152.6350  141.4073  157.7816 H   0  0  0  0  0  0  0  0  0  0  0  0
  151.0852  141.1891  158.6311 H   0  0  0  0  0  0  0  0  0  0  0  0
  152.3549  139.2329  157.5567 H   0  0  0  0  0  0  0  0  0  0  0  0
  152.1871  136.9417  156.7164 H   0  0  0  0  0  0  0  0  0  0  0  0
  150.0543  135.9886  153.7480 H   0  0  0  0  0  0  0  0  0  0  0  0
  151.6330  135.6202  154.4206 H   0  0  0  0  0  0  0  0  0  0  0  0
  150.5108  134.8578  156.4795 H   0  0  0  0  0  0  0  0  0  0  0  0
  147.2955  133.5937  150.8865 H   0  0  0  0  0  0  0  0  0  0  0  0
  146.4479  132.4086  151.8843 H   0  0  0  0  0  0  0  0  0  0  0  0
  145.2168  133.4294  149.6795 H   0  0  0  0  0  0  0  0  0  0  0  0
  144.3137  133.1218  151.1648 H   0  0  0  0  0  0  0  0  0  0  0  0
  145.4935  135.7570  150.2498 H   0  0  0  0  0  0  0  0  0  0  0  0
  143.8501  135.4704  150.8204 H   0  0  0  0  0  0  0  0  0  0  0  0
  146.1774  137.0238  153.6620 H   0  0  0  0  0  0  0  0  0  0  0  0
  146.7231  137.0971  151.9996 H   0  0  0  0  0  0  0  0  0  0  0  0
  144.7703  137.8953  151.4182 H   0  0  0  0  0  0  0  0  0  0  0  0
  146.3898  132.3203  156.4893 H   0  0  0  0  0  0  0  0  0  0  0  0
  146.8860  133.4552  158.4215 H   0  0  0  0  0  0  0  0  0  0  0  0
  148.2806  131.9614  160.2042 H   0  0  0  0  0  0  0  0  0  0  0  0
  149.1631  133.4669  160.2554 H   0  0  0  0  0  0  0  0  0  0  0  0
  143.9992  133.0535  161.7172 H   0  0  0  0  0  0  0  0  0  0  0  0
  144.5105  134.9467  163.3293 H   0  0  0  0  0  0  0  0  0  0  0  0
  146.8709  135.8779  163.2753 H   0  0  0  0  0  0  0  0  0  0  0  0
  149.2899  138.1992  153.7817 H   0  0  0  0  0  0  0  0  0  0  0  0
  148.6444  135.3442  153.5072 H   0  0  0  0  0  0  0  0  0  0  0  0
  1  2  1  0  0  0  0
  1 36  1  0  0  0  0
  1 37  1  0  0  0  0
  1 38  1  0  0  0  0
  2  3  1  0  0  0  0
  3 33  1  0  0  0  0
  3  4  2  0  0  0  0
  4  5  1  0  0  0  0
  4 39  1  0  0  0  0
  5  6  2  0  0  0  0
  5 40  1  0  0  0  0
  6  7  1  0  0  0  0
  6 32  1  0  0  0  0
  7  8  1  0  0  0  0
  7 41  1  0  0  0  0
  7 42  1  0  0  0  0
  8  9  1  0  0  0  0
  8 43  1  0  0  0  0
  9 21  1  0  0  0  0
  9 10  2  0  0  0  0
 10 11  1  0  0  0  0
 10 61  1  0  0  0  0
 11 12  1  0  0  0  0
 11 19  2  0  0  0  0
 12 16  1  0  0  0  0
 12 13  1  0  0  0  0
 13 14  1  0  0  0  0
 13 44  1  0  0  0  0
 13 45  1  0  0  0  0
 14 15  1  0  0  0  0
 14 46  1  0  0  0  0
 14 47  1  0  0  0  0
 15 16  1  0  0  0  0
 15 48  1  0  0  0  0
 15 49  1  0  0  0  0
 16 35  1  0  0  0  0
 16 17  1  0  0  0  0
 17 18  1  0  0  0  0
 17 50  1  0  0  0  0
 17 51  1  0  0  0  0
 18 52  1  0  0  0  0
 19 20  1  0  0  0  0
 20 21  2  0  0  0  0
 20 53  1  0  0  0  0
 21 22  1  0  0  0  0
 22 23  2  0  0  0  0
 22 24  1  0  0  0  0
 24 25  1  0  0  0  0
 24 54  1  0  0  0  0
 25 26  1  0  0  0  0
 25 55  1  0  0  0  0
 25 56  1  0  0  0  0
 26 31  1  0  0  0  0
 26 27  2  0  0  0  0
 27 28  1  0  0  0  0
 28 29  2  0  0  0  0
 28 57  1  0  0  0  0
 29 30  1  0  0  0  0
 29 58  1  0  0  0  0
 30 31  2  0  0  0  0
 30 59  1  0  0  0  0
 32 33  2  0  0  0  0
 32 60  1  0  0  0  0
 33 34  1  0  0  0  0
M  CHG  1  10   1
M  END
> <s_m_source_file>
AV-unprocessed.smi

> <i_m_source_file_index>
45

> <i_lp_mmshare_version>
43012

> <i_f3d_flags>
0

> <s_epik_input>
W0NIM11PYzFbY0hdW2NIXWMoW2NIXWMxQ2wpW0NIMl1bTkhdYzJuYyhOM1tDSDJdW0NIMl1bQ0gyXVtDQEhdM1tDSDJdW09IXSluW2NIXWMyQyg9TylbTkhdW0NIMl1jNG5bY0hdW2NIXVtjSF1uNA==

> <s_epik_cmdline>
J2VwaWtfcHl0aG9uJywgJy1waCcsICc3LjAnLCAnLXRuJywgJzgnLCAnLW1hJywgJzIwMCcsICctbWV0YWxfYmluZGluZycsICctaW1hZScsICc8aW5maWxlLm1hZT4nLCAnLW9tYWUnLCAnPG91dGZpbGUubWFlPic=

> <r_lp_tautomer_probability>
0.424989

> <r_epik_Ionization_Penalty>
2.31209

> <r_epik_Ionization_Penalty_Charging>
2.31199

> <r_epik_Ionization_Penalty_Neutral>
9.65277e-05

> <r_epik_State_Penalty>
2.29675

> <r_epik_Charging_Adjusted_Penalty>
4.60874

> <i_epik_Tot_Q>
1

> <i_epik_Tot_abs_Q>
1

> <r_epik_Metal_State_Penalty>
2.3404

> <b_epik_Metal_Only>
0

> <s_epik_Chemistry_Notes>
This compound contains an electron-poor aromatic ring that is susceptible to covalent hydrolysis at low pH, typically resulting in measured values for nitrogen ring protonation that are around two units higher than predicted values.

> <s_lp_Force_Field>
OPLS_2005

> <r_lp_Energy>
35.4262

> <b_lp_Chiralities_Consistent>
1

> <s_lp_Variant>
AV-unprocessed.smi:45-6

> <Gold.Version>
5.8.1

> <Gold.Id.Protein>
6NUR|6NUR_protein|mol2

> <Gold.PLP.Fitness>
55.0404

> <Gold.PLP.PLP>
-46.2492

> <Gold.PLP.part.hbond>
-4.0000

> <Gold.PLP.part.metal>
0.0000

> <Gold.PLP.part.buried>
-6.2606

> <Gold.PLP.part.nonpolar>
-36.7792

> <Gold.PLP.part.repulsive>
0.2441

> <Gold.PLP.ligand.clash>
0.0000

> <Gold.PLP.ligand.torsion>
2.5525

> <Gold.PLP.Chemscore.Hbond>
4.0000

> <Gold.PLP.Chemscore.CHOScore>
0.0000

> <Gold.PLP.Chemscore.Metal>
0.0000

> <Gold.Chemscore.Hbonds>
donor molecule, donor type, donor heavy atom, donor atom, acceptor molecule, acceptor atom, score
      L1  H    10    61       P1  7948  2.00
      L1  H    18    52       P1 10171  1.00
      P1  H  6896  6907       L1    23  1.00

> <Gold.PLP.Chemscore.Internal.Correction>
1.8962

> <Gold.Rescore>
     Score         DG    S(hbond)    S(metal)    S(lipo)     H(rot)  DE(clash)    DE(int)     intcor
     18.27     -21.07       2.91        0.00     114.62       2.94       0.09       2.71       ----

> <Gold.Chemscore.Fitness>
18.2673

> <Gold.Chemscore.DG>
-21.0700

> <Gold.Chemscore.ZeroCoef>
-5.4800

> <Gold.Chemscore.Hbond>
2.9055

> <Gold.Chemscore.Metal>
0.0000

> <Gold.Chemscore.Lipo>
114.6222

> <Gold.Chemscore.Internal_Hbond>
0.0000

> <Gold.Chemscore.DEClash>
0.0934

> <Gold.Chemscore.DEInternal>
2.7092

> <Gold.Chemscore.Rot>
2.9395

> <Gold.Chemscore.Internal.Correction>
   9.000000E+99

> <Gold.Chemscore.Hbonds>
donor molecule, donor type, donor heavy atom, donor atom, acceptor molecule, acceptor atom, score
      L1  H    10    61       P1  7948  0.90
      L1  H    18    52       P1 10171  0.94
      P1  H  6896  6907       L1    23  0.96

> <Gold.Chemscore.Hbond.Weighted>
-9.7044

> <Gold.Chemscore.Metal.Weighted>
-0.0000

> <Gold.Chemscore.Lipo.Weighted>
-13.4108

> <Gold.Chemscore.Internal_Hbond.Weighted>
0.0000

> <Gold.Chemscore.DEClash.Weighted>
0.0934

> <Gold.Chemscore.DEInternal.Weighted>
2.7092

> <Gold.Chemscore.Rot.Weighted>
7.5251

> <Gold.Chemscore.Internal.Correction.Weighted>
   9.000000E+99

> <Gold.Protein.RotatedTorsions>
[ 6907 6896 6895 6894 ] final -149.82 input  -60.11 | X-H torsion
[ 7974 7965 7964 7962 ] final   -0.44 input  175.53 | X-H torsion
[ 8008 7997 7996 7995 ] final -140.43 input   59.86 | X-H torsion
[ 10167 10162 10161 10158 ] final  115.15 input  -65.29 | X-H torsion
[ 10718 10713 10712 10709 ] final   44.00 input   66.30 | X-H torsion
[ 10763 10752 10751 10750 ] final  102.89 input  -60.55 | X-H torsion
[ 11005 11000 10999 10996 ] final   79.87 input  -57.11 | X-H torsion

> <Gold.Protein.ActiveResidues>
 VAL166  LYS551  ARG553  GLY616  TRP617  ASP618  TYR619  PRO620  LYS621  CYS622 
 ASP623  PHE694  ASN695  SER759  ASP760  ASP761  ALA762  ILE779  LEU786  VAL792 
 PHE793  MET794  SER795  GLU796  ALA797  LYS798  CYS799  TRP800  GLU811  SER814 

> <Gold.Protein.RotatedAtoms>
  151.1897  133.4675  159.2594 H   0  0  0  0  0  0  0  0  0  0  0  0  # atno 6907 bound_to 6896
  151.1176  135.0061  159.8533 H   0  0  0  0  0  0  0  0  0  0  0  0  # atno 6908 bound_to 6896
  152.5454  134.1811  159.8688 H   0  0  0  0  0  0  0  0  0  0  0  0  # atno 6909 bound_to 6896
  146.2427  140.1269  142.8339 H   0  0  0  0  0  0  0  0  0  0  0  0  # atno 7974 bound_to 7965
  155.4613  140.0546  157.2990 H   0  0  0  0  0  0  0  0  0  0  0  0  # atno 8008 bound_to 7997
  154.4736  140.2051  155.9888 H   0  0  0  0  0  0  0  0  0  0  0  0  # atno 8009 bound_to 7997
  156.1096  140.3206  155.8059 H   0  0  0  0  0  0  0  0  0  0  0  0  # atno 8010 bound_to 7997
  139.6338  144.7117  151.2377 H   0  0  0  0  0  0  0  0  0  0  0  0  # atno 10167 bound_to 10162
  157.4220  130.7975  149.7524 H   0  0  0  0  0  0  0  0  0  0  0  0  # atno 10718 bound_to 10713
  153.3455  135.3995  155.1605 H   0  0  0  0  0  0  0  0  0  0  0  0  # atno 10763 bound_to 10752
  154.8652  135.3644  154.5290 H   0  0  0  0  0  0  0  0  0  0  0  0  # atno 10764 bound_to 10752
  153.5738  135.7078  153.5553 H   0  0  0  0  0  0  0  0  0  0  0  0  # atno 10765 bound_to 10752
  139.9156  134.7876  156.1835 H   0  0  0  0  0  0  0  0  0  0  0  0  # atno 11005 bound_to 11000
  145.0359  140.8907  143.5082 LP  0  0  0  0  0  0  0  0  0  0  0  0  # atno 17320 bound_to 7965
  145.1341  139.2613  143.5524 LP  0  0  0  0  0  0  0  0  0  0  0  0  # atno 17321 bound_to 7965
  140.7454  143.6433  150.8315 LP  0  0  0  0  0  0  0  0  0  0  0  0  # atno 17342 bound_to 10162
  140.0061  143.5692  152.2857 LP  0  0  0  0  0  0  0  0  0  0  0  0  # atno 17343 bound_to 10162
  155.9884  130.3960  150.3121 LP  0  0  0  0  0  0  0  0  0  0  0  0  # atno 17370 bound_to 10713
  157.1270  131.0262  151.2985 LP  0  0  0  0  0  0  0  0  0  0  0  0  # atno 17371 bound_to 10713
  141.0627  133.6834  156.1985 LP  0  0  0  0  0  0  0  0  0  0  0  0  # atno 17394 bound_to 11000
  140.6634  134.4943  157.5584 LP  0  0  0  0  0  0  0  0  0  0  0  0  # atno 17395 bound_to 11000

$$$$
