AV-unprocessed.smi:1381|AV-procd|sdf|5607|dock6
  -GOLD-   22720 5213D 1   1.00000     0.00000
 Structure written by MMmdl.
 43 44  0  0  0  0  0  0  0  0  2 V2000
  142.9154  144.2854  161.4240 C   0  0  0  0  0  0  0  0  0  0  0  0
  144.2132  144.1425  160.7057 C   0  0  0  0  0  0  0  0  0  0  0  0
  145.2969  144.9640  160.5699 C   0  0  0  0  0  0  0  0  0  0  0  0
  146.1757  144.2016  159.7554 C   0  0  0  0  0  0  0  0  0  0  0  0
  147.4443  144.7108  159.3772 N   0  0  0  0  0  0  0  0  0  0  0  0
  148.6067  144.5835  160.0394 C   0  0  0  0  0  0  0  0  0  0  0  0
  148.7574  143.9793  161.1018 O   0  0  0  0  0  0  0  0  0  0  0  0
  149.6061  145.2078  159.3994 N   0  0  0  0  0  0  0  0  0  0  0  0
  150.9878  145.2571  159.8634 C   0  0  0  0  0  0  0  0  0  0  0  0
  151.9548  144.6690  158.8174 C   0  0  0  0  0  0  0  0  0  0  0  0
  152.0606  143.1919  158.9095 N   0  3  1  0  0  0  0  0  0  0  0  0
  152.4037  142.7358  160.2761 C   0  0  0  0  0  0  0  0  0  0  0  0
  152.6083  141.2106  160.3005 C   0  0  1  0  0  0  0  0  0  0  0  0
  152.8771  140.6894  161.7166 C   0  0  0  0  0  0  0  0  0  0  0  0
  151.4344  140.5666  159.8121 O   0  0  0  0  0  0  0  0  0  0  0  0
  151.0419  140.9519  158.4947 C   0  0  2  0  0  0  0  0  0  0  0  0
  151.9903  140.3959  157.4177 C   0  0  0  0  0  0  0  0  0  0  0  0
  150.8545  142.4802  158.4195 C   0  0  0  0  0  0  0  0  0  0  0  0
  145.6739  143.0220  159.4234 N   0  0  0  0  0  0  0  0  0  0  0  0
  144.4132  142.9784  160.0300 O   0  0  0  0  0  0  0  0  0  0  0  0
  142.9290  145.1522  162.0847 H   0  0  0  0  0  0  0  0  0  0  0  0
  142.7084  143.4027  162.0291 H   0  0  0  0  0  0  0  0  0  0  0  0
  142.0952  144.4114  160.7173 H   0  0  0  0  0  0  0  0  0  0  0  0
  145.4350  145.9501  160.9883 H   0  0  0  0  0  0  0  0  0  0  0  0
  147.4664  145.2326  158.5135 H   0  0  0  0  0  0  0  0  0  0  0  0
  149.3972  145.6803  158.5319 H   0  0  0  0  0  0  0  0  0  0  0  0
  151.2433  146.2877  160.1111 H   0  0  0  0  0  0  0  0  0  0  0  0
  151.0535  144.6890  160.7917 H   0  0  0  0  0  0  0  0  0  0  0  0
  151.5846  144.9399  157.8275 H   0  0  0  0  0  0  0  0  0  0  0  0
  152.9488  145.1106  158.9048 H   0  0  0  0  0  0  0  0  0  0  0  0
  153.3164  143.2302  160.6114 H   0  0  0  0  0  0  0  0  0  0  0  0
  151.6100  143.0251  160.9671 H   0  0  0  0  0  0  0  0  0  0  0  0
  153.4617  140.9458  159.6761 H   0  0  0  0  0  0  0  0  0  0  0  0
  153.7712  141.1466  162.1412 H   0  0  0  0  0  0  0  0  0  0  0  0
  153.0270  139.6095  161.7119 H   0  0  0  0  0  0  0  0  0  0  0  0
  152.0417  140.9058  162.3831 H   0  0  0  0  0  0  0  0  0  0  0  0
  150.0687  140.4905  158.3242 H   0  0  0  0  0  0  0  0  0  0  0  0
  151.5952  140.5872  156.4197 H   0  0  0  0  0  0  0  0  0  0  0  0
  152.1077  139.3170  157.5229 H   0  0  0  0  0  0  0  0  0  0  0  0
  152.9814  140.8463  157.4643 H   0  0  0  0  0  0  0  0  0  0  0  0
  149.9980  142.7724  159.0293 H   0  0  0  0  0  0  0  0  0  0  0  0
  150.6210  142.7688  157.3951 H   0  0  0  0  0  0  0  0  0  0  0  0
  152.8308  142.9184  158.3161 H   0  0  0  0  0  0  0  0  0  0  0  0
  1  2  1  0  0  0  0
  1 21  1  0  0  0  0
  1 22  1  0  0  0  0
  1 23  1  0  0  0  0
  2 20  1  0  0  0  0
  2  3  2  0  0  0  0
  3  4  1  0  0  0  0
  3 24  1  0  0  0  0
  4  5  1  0  0  0  0
  4 19  2  0  0  0  0
  5  6  1  0  0  0  0
  5 25  1  0  0  0  0
  6  7  2  0  0  0  0
  6  8  1  0  0  0  0
  8  9  1  0  0  0  0
  8 26  1  0  0  0  0
  9 10  1  0  0  0  0
  9 27  1  0  0  0  0
  9 28  1  0  0  0  0
 10 11  1  0  0  0  0
 10 29  1  0  0  0  0
 10 30  1  0  0  0  0
 11 18  1  0  0  0  0
 11 12  1  0  0  0  0
 11 43  1  0  0  0  0
 12 13  1  0  0  0  0
 12 31  1  0  0  0  0
 12 32  1  0  0  0  0
 13 14  1  0  0  0  0
 13 15  1  0  0  0  0
 13 33  1  0  0  0  0
 14 34  1  0  0  0  0
 14 35  1  0  0  0  0
 14 36  1  0  0  0  0
 15 16  1  0  0  0  0
 16 17  1  0  0  0  0
 16 18  1  0  0  0  0
 16 37  1  0  0  0  0
 17 38  1  0  0  0  0
 17 39  1  0  0  0  0
 17 40  1  0  0  0  0
 18 41  1  0  0  0  0
 18 42  1  0  0  0  0
 19 20  1  0  0  0  0
M  CHG  1  11   1
M  END
> <s_m_source_file>
AV-unprocessed.smi

> <i_m_source_file_index>
1381

> <i_lp_mmshare_version>
43012

> <i_f3d_flags>
0

> <s_epik_input>
W0NIM11jMVtjSF1jKG5vMSlbTkhdQyg9TylbTkhdW0NIMl1bQ0gyXU4yW0NIMl1bQ0BASF0oW0NIM10pT1tDQEBIXShbQ0gzXSlbQ0gyXTI=

> <s_epik_cmdline>
J2VwaWtfcHl0aG9uJywgJy1waCcsICc3LjAnLCAnLXRuJywgJzgnLCAnLW1hJywgJzIwMCcsICctbWV0YWxfYmluZGluZycsICctaW1hZScsICc8aW5maWxlLm1hZT4nLCAnLW9tYWUnLCAnPG91dGZpbGUubWFlPic=

> <r_epik_Ionization_Penalty>
0.707076

> <r_epik_Ionization_Penalty_Charging>
0.707039

> <r_epik_Ionization_Penalty_Neutral>
3.6548e-05

> <r_epik_State_Penalty>
0.730276

> <r_epik_Charging_Adjusted_Penalty>
1.43732

> <i_epik_Tot_Q>
1

> <i_epik_Tot_abs_Q>
1

> <r_epik_Metal_State_Penalty>
0.743132

> <b_epik_Metal_Only>
0

> <s_lp_Force_Field>
OPLS_2005

> <r_lp_Energy>
14.2109

> <b_lp_Chiralities_Consistent>
1

> <s_lp_Variant>
AV-unprocessed.smi:1381-6

> <Gold.Version>
5.8.1

> <Gold.Id.Protein>
6NUR|6NUR_protein|mol2

> <Gold.PLP.Fitness>
52.2617

> <Gold.PLP.PLP>
-44.3358

> <Gold.PLP.part.hbond>
-4.4016

> <Gold.PLP.part.metal>
0.0000

> <Gold.PLP.part.buried>
-5.8198

> <Gold.PLP.part.nonpolar>
-34.8895

> <Gold.PLP.part.repulsive>
0.5589

> <Gold.PLP.ligand.clash>
0.0000

> <Gold.PLP.ligand.torsion>
0.9319

> <Gold.PLP.Chemscore.Hbond>
3.2564

> <Gold.PLP.Chemscore.CHOScore>
0.0000

> <Gold.PLP.Chemscore.Metal>
0.0000

> <Gold.Chemscore.Hbonds>
donor molecule, donor type, donor heavy atom, donor atom, acceptor molecule, acceptor atom, score
      L1  H     5    25       P1  8029  0.88
      L1  H     8    26       P1  8029  0.82
      P1  H  6933  6944       L1     7  0.75

> <Gold.PLP.Chemscore.Internal.Correction>
0.0205

> <Gold.Rescore>
     Score         DG    S(hbond)    S(metal)    S(lipo)     H(rot)  DE(clash)    DE(int)     intcor
     20.45     -21.51       2.51        0.00     100.57       1.61       0.02       1.04       ----

> <Gold.Chemscore.Fitness>
20.4541

> <Gold.Chemscore.DG>
-21.5108

> <Gold.Chemscore.ZeroCoef>
-5.4800

> <Gold.Chemscore.Hbond>
2.5093

> <Gold.Chemscore.Metal>
0.0000

> <Gold.Chemscore.Lipo>
100.5669

> <Gold.Chemscore.Internal_Hbond>
0.0000

> <Gold.Chemscore.DEClash>
0.0153

> <Gold.Chemscore.DEInternal>
1.0414

> <Gold.Chemscore.Rot>
1.6081

> <Gold.Chemscore.Internal.Correction>
   9.000000E+99

> <Gold.Chemscore.Hbonds>
donor molecule, donor type, donor heavy atom, donor atom, acceptor molecule, acceptor atom, score
      L1  H     5    25       P1  8029  0.86
      L1  H     8    26       P1  8029  0.77
      P1  H  6933  6944       L1     7  0.74

> <Gold.Chemscore.Hbond.Weighted>
-8.3812

> <Gold.Chemscore.Metal.Weighted>
-0.0000

> <Gold.Chemscore.Lipo.Weighted>
-11.7663

> <Gold.Chemscore.Internal_Hbond.Weighted>
0.0000

> <Gold.Chemscore.DEClash.Weighted>
0.0153

> <Gold.Chemscore.DEInternal.Weighted>
1.0414

> <Gold.Chemscore.Rot.Weighted>
4.1167

> <Gold.Chemscore.Internal.Correction.Weighted>
   9.000000E+99

> <Gold.Protein.RotatedTorsions>
[ 6907 6896 6895 6894 ] final  -59.24 input  -60.11 | X-H torsion
[ 7974 7965 7964 7962 ] final   78.58 input  175.53 | X-H torsion
[ 8008 7997 7996 7995 ] final  -36.92 input   59.86 | X-H torsion
[ 10167 10162 10161 10158 ] final    0.27 input  -65.29 | X-H torsion
[ 10718 10713 10712 10709 ] final  -78.34 input   66.30 | X-H torsion
[ 10763 10752 10751 10750 ] final   28.15 input  -60.55 | X-H torsion
[ 11005 11000 10999 10996 ] final  140.00 input  -57.11 | X-H torsion

> <Gold.Protein.ActiveResidues>
 VAL166  LYS551  ARG553  GLY616  TRP617  ASP618  TYR619  PRO620  LYS621  CYS622 
 ASP623  PHE694  ASN695  SER759  ASP760  ASP761  ALA762  ILE779  LEU786  VAL792 
 PHE793  MET794  SER795  GLU796  ALA797  LYS798  CYS799  TRP800  GLU811  SER814 

> <Gold.Protein.RotatedAtoms>
  150.7945  134.6995  159.6541 H   0  0  0  0  0  0  0  0  0  0  0  0  # atno 6907 bound_to 6896
  152.4056  134.6210  160.0060 H   0  0  0  0  0  0  0  0  0  0  0  0  # atno 6908 bound_to 6896
  151.6468  133.3286  159.3179 H   0  0  0  0  0  0  0  0  0  0  0  0  # atno 6909 bound_to 6896
  145.6753  139.2508  143.1845 H   0  0  0  0  0  0  0  0  0  0  0  0  # atno 7974 bound_to 7965
  154.4063  140.1618  156.2453 H   0  0  0  0  0  0  0  0  0  0  0  0  # atno 8008 bound_to 7997
  155.9166  140.3424  155.6117 H   0  0  0  0  0  0  0  0  0  0  0  0  # atno 8009 bound_to 7997
  155.7272  140.0776  157.2295 H   0  0  0  0  0  0  0  0  0  0  0  0  # atno 8010 bound_to 7997
  140.6736  143.6979  150.7975 H   0  0  0  0  0  0  0  0  0  0  0  0  # atno 10167 bound_to 10162
  156.0120  130.4515  150.3482 H   0  0  0  0  0  0  0  0  0  0  0  0  # atno 10718 bound_to 10713
  153.0510  135.6520  154.0694 H   0  0  0  0  0  0  0  0  0  0  0  0  # atno 10763 bound_to 10752
  154.0382  135.2905  155.3360 H   0  0  0  0  0  0  0  0  0  0  0  0  # atno 10764 bound_to 10752
  154.6798  135.5324  153.8314 H   0  0  0  0  0  0  0  0  0  0  0  0  # atno 10765 bound_to 10752
  140.0295  134.9358  157.0635 H   0  0  0  0  0  0  0  0  0  0  0  0  # atno 11005 bound_to 11000
  146.1010  140.7543  142.9549 LP  0  0  0  0  0  0  0  0  0  0  0  0  # atno 17320 bound_to 7965
  144.7043  140.3788  143.7130 LP  0  0  0  0  0  0  0  0  0  0  0  0  # atno 17321 bound_to 7965
  140.0669  143.5100  152.2600 LP  0  0  0  0  0  0  0  0  0  0  0  0  # atno 17342 bound_to 10162
  139.6017  144.7584  151.3157 LP  0  0  0  0  0  0  0  0  0  0  0  0  # atno 17343 bound_to 10162
  157.1575  131.0336  151.2856 LP  0  0  0  0  0  0  0  0  0  0  0  0  # atno 17370 bound_to 10713
  157.4340  130.7506  149.7013 LP  0  0  0  0  0  0  0  0  0  0  0  0  # atno 17371 bound_to 10713
  140.4249  134.1841  155.7166 LP  0  0  0  0  0  0  0  0  0  0  0  0  # atno 17394 bound_to 11000
  141.1823  133.8388  157.1215 LP  0  0  0  0  0  0  0  0  0  0  0  0  # atno 17395 bound_to 11000

$$$$
