AV-unprocessed.smi:1526|AV-procd|sdf|6146|dock10
  -GOLD-   22720 6293D 1   1.00000     0.00000
 Structure written by MMmdl.
 34 35  0  0  0  0  0  0  0  0  3 V2000
  154.6279  139.6921  159.4937 O   0  0  0  0  0  0  0  0  0  0  0  0
  153.4257  139.6995  159.7555 C   0  0  0  0  0  0  0  0  0  0  0  0
  152.6556  138.3672  159.7735 C   0  0  0  0  0  0  0  0  0  0  0  0
  151.7980  138.1284  158.5975 N   0  0  0  0  0  0  0  0  0  0  0  0
  152.0975  138.8583  157.4302 C   0  0  0  0  0  0  0  0  0  0  0  0
  151.3866  138.7167  156.2944 C   0  0  0  0  0  0  0  0  0  0  0  0
  151.7141  139.4685  155.1029 N   0  3  0  0  0  0  0  0  0  0  0  0
  152.8957  139.6618  154.8353 O   0  0  0  0  0  0  0  0  0  0  0  0
  150.8037  139.8912  154.3966 O   0  5  0  0  0  0  0  0  0  0  0  0
  150.2815  137.7777  156.3037 C   0  0  0  0  0  0  0  0  0  0  0  0
  149.9925  137.0731  157.4154 C   0  0  0  0  0  0  0  0  0  0  0  0
  150.7722  137.2239  158.6483 C   0  0  0  0  0  0  0  0  0  0  0  0
  150.5231  136.5720  159.6622 O   0  0  0  0  0  0  0  0  0  0  0  0
  152.7504  140.8277  160.0254 N   0  0  0  0  0  0  0  0  0  0  0  0
  153.3244  142.1643  160.0218 C   0  0  0  0  0  0  0  0  0  0  0  0
  152.2211  143.2051  160.1663 C   0  0  0  0  0  0  0  0  0  0  0  0
  152.4460  144.6339  159.6466 C   0  0  0  0  0  0  0  0  0  0  0  0
  151.6092  145.1430  160.8233 C   0  0  0  0  0  0  0  0  0  0  0  0
  151.9393  143.8306  161.5402 C   0  0  0  0  0  0  0  0  0  0  0  0
  153.3749  137.5546  159.8887 H   0  0  0  0  0  0  0  0  0  0  0  0
  152.0567  138.3388  160.6849 H   0  0  0  0  0  0  0  0  0  0  0  0
  152.9423  139.5259  157.5245 H   0  0  0  0  0  0  0  0  0  0  0  0
  149.6781  137.6325  155.4197 H   0  0  0  0  0  0  0  0  0  0  0  0
  149.1652  136.3787  157.4004 H   0  0  0  0  0  0  0  0  0  0  0  0
  151.7651  140.7559  160.2325 H   0  0  0  0  0  0  0  0  0  0  0  0
  154.0413  142.2520  160.8392 H   0  0  0  0  0  0  0  0  0  0  0  0
  153.8776  142.3179  159.0939 H   0  0  0  0  0  0  0  0  0  0  0  0
  151.2805  142.8298  159.7564 H   0  0  0  0  0  0  0  0  0  0  0  0
  153.4899  144.9472  159.7052 H   0  0  0  0  0  0  0  0  0  0  0  0
  152.0222  144.8329  158.6617 H   0  0  0  0  0  0  0  0  0  0  0  0
  151.9982  146.0390  161.3080 H   0  0  0  0  0  0  0  0  0  0  0  0
  150.5498  145.2384  160.5798 H   0  0  0  0  0  0  0  0  0  0  0  0
  151.1059  143.3838  162.0833 H   0  0  0  0  0  0  0  0  0  0  0  0
  152.8316  143.9055  162.1642 H   0  0  0  0  0  0  0  0  0  0  0  0
  1  2  2  0  0  0  0
  2  3  1  0  0  0  0
  2 14  1  0  0  0  0
  3  4  1  0  0  0  0
  3 20  1  0  0  0  0
  3 21  1  0  0  0  0
  4 12  1  0  0  0  0
  4  5  1  0  0  0  0
  5  6  2  0  0  0  0
  5 22  1  0  0  0  0
  6  7  1  0  0  0  0
  6 10  1  0  0  0  0
  7  8  2  0  0  0  0
  7  9  1  0  0  0  0
 10 11  2  0  0  0  0
 10 23  1  0  0  0  0
 11 12  1  0  0  0  0
 11 24  1  0  0  0  0
 12 13  2  0  0  0  0
 14 15  1  0  0  0  0
 14 25  1  0  0  0  0
 15 16  1  0  0  0  0
 15 26  1  0  0  0  0
 15 27  1  0  0  0  0
 16 19  1  0  0  0  0
 16 17  1  0  0  0  0
 16 28  1  0  0  0  0
 17 18  1  0  0  0  0
 17 29  1  0  0  0  0
 17 30  1  0  0  0  0
 18 19  1  0  0  0  0
 18 31  1  0  0  0  0
 18 32  1  0  0  0  0
 19 33  1  0  0  0  0
 19 34  1  0  0  0  0
M  CHG  1   7   1
M  CHG  1   9  -1
M  END
> <s_m_source_file>
AV-unprocessed.smi

> <i_m_source_file_index>
1526

> <i_lp_mmshare_version>
43012

> <i_f3d_flags>
0

> <s_epik_input>
W0NIMl0xW0NIMl1bQ0gyXVtDSF0xW0NIMl1bTkhdQyg9TylbQ0gyXW4yW2NIXWMoW04rXSg9TylbTy1dKVtjSF1bY0hdYzI9Tw==

> <s_epik_cmdline>
J2VwaWtfcHl0aG9uJywgJy1waCcsICc3LjAnLCAnLXRuJywgJzgnLCAnLW1hJywgJzIwMCcsICctbWV0YWxfYmluZGluZycsICctaW1hZScsICc8aW5maWxlLm1hZT4nLCAnLW9tYWUnLCAnPG91dGZpbGUubWFlPic=

> <r_lp_tautomer_probability>
1

> <r_epik_Ionization_Penalty>
1.93777e-08

> <r_epik_Ionization_Penalty_Charging>
7.59562e-11

> <r_epik_Ionization_Penalty_Neutral>
1.93017e-08

> <r_epik_State_Penalty>
-0

> <r_epik_Charging_Adjusted_Penalty>
7.59562e-11

> <i_epik_Tot_Q>
0

> <i_epik_Tot_abs_Q>
2

> <r_epik_Metal_State_Penalty>
-0

> <b_epik_Metal_Only>
0

> <s_lp_Force_Field>
OPLS_2005

> <r_lp_Energy>
24.467

> <b_lp_Chiralities_Consistent>
1

> <s_lp_Variant>
AV-unprocessed.smi:1526-1

> <Gold.Version>
5.8.1

> <Gold.Id.Protein>
6NUR|6NUR_protein|mol2

> <Gold.PLP.Fitness>
46.6116

> <Gold.PLP.PLP>
-37.7928

> <Gold.PLP.part.hbond>
-5.0000

> <Gold.PLP.part.metal>
0.0000

> <Gold.PLP.part.buried>
-2.8695

> <Gold.PLP.part.nonpolar>
-29.7702

> <Gold.PLP.part.repulsive>
0.2653

> <Gold.PLP.ligand.clash>
0.0000

> <Gold.PLP.ligand.torsion>
1.5053

> <Gold.PLP.Chemscore.Hbond>
3.9120

> <Gold.PLP.Chemscore.CHOScore>
0.0000

> <Gold.PLP.Chemscore.Metal>
0.0000

> <Gold.Chemscore.Hbonds>
donor molecule, donor type, donor heavy atom, donor atom, acceptor molecule, acceptor atom, score
      P1  H  6896  6907       L1    13  1.00
      P1  H  7989  7998       L1     9  0.95
      P1  H  7997  8008       L1     1  0.47
      P1  H  7997  8009       L1     8  1.00

> <Gold.PLP.Chemscore.Internal.Correction>
0.0934

> <Gold.Rescore>
     Score         DG    S(hbond)    S(metal)    S(lipo)     H(rot)  DE(clash)    DE(int)     intcor
     20.27     -22.02       3.37        0.00      84.98       1.82       0.10       1.66       ----

> <Gold.Chemscore.Fitness>
20.2653

> <Gold.Chemscore.DG>
-22.0248

> <Gold.Chemscore.ZeroCoef>
-5.4800

> <Gold.Chemscore.Hbond>
3.3710

> <Gold.Chemscore.Metal>
0.0000

> <Gold.Chemscore.Lipo>
84.9762

> <Gold.Chemscore.Internal_Hbond>
0.0000

> <Gold.Chemscore.DEClash>
0.0998

> <Gold.Chemscore.DEInternal>
1.6596

> <Gold.Chemscore.Rot>
1.8190

> <Gold.Chemscore.Internal.Correction>
   9.000000E+99

> <Gold.Chemscore.Hbonds>
donor molecule, donor type, donor heavy atom, donor atom, acceptor molecule, acceptor atom, score
      P1  H  6896  6907       L1    13  0.98
      P1  H  7989  7998       L1     9  0.21
      P1  H  7997  8008       L1     1  0.45
      P1  H  7997  8009       L1     8  0.99

> <Gold.Chemscore.Hbond.Weighted>
-11.2592

> <Gold.Chemscore.Metal.Weighted>
-0.0000

> <Gold.Chemscore.Lipo.Weighted>
-9.9422

> <Gold.Chemscore.Internal_Hbond.Weighted>
0.0000

> <Gold.Chemscore.DEClash.Weighted>
0.0998

> <Gold.Chemscore.DEInternal.Weighted>
1.6596

> <Gold.Chemscore.Rot.Weighted>
4.6567

> <Gold.Chemscore.Internal.Correction.Weighted>
   9.000000E+99

> <Gold.Protein.RotatedTorsions>
[ 6907 6896 6895 6894 ] final  -27.73 input  -60.11 | X-H torsion
[ 7974 7965 7964 7962 ] final -141.99 input  175.53 | X-H torsion
[ 8008 7997 7996 7995 ] final -128.92 input   59.86 | X-H torsion
[ 10167 10162 10161 10158 ] final   76.23 input  -65.29 | X-H torsion
[ 10718 10713 10712 10709 ] final   67.59 input   66.30 | X-H torsion
[ 10763 10752 10751 10750 ] final -104.07 input  -60.55 | X-H torsion
[ 11005 11000 10999 10996 ] final   87.29 input  -57.11 | X-H torsion

> <Gold.Protein.ActiveResidues>
 VAL166  LYS551  ARG553  GLY616  TRP617  ASP618  TYR619  PRO620  LYS621  CYS622 
 ASP623  PHE694  ASN695  SER759  ASP760  ASP761  ALA762  ILE779  LEU786  VAL792 
 PHE793  MET794  SER795  GLU796  ALA797  LYS798  CYS799  TRP800  GLU811  SER814 

> <Gold.Protein.RotatedAtoms>
  151.1428  135.0188  159.8633 H   0  0  0  0  0  0  0  0  0  0  0  0  # atno 6907 bound_to 6896
  152.5452  134.1479  159.8516 H   0  0  0  0  0  0  0  0  0  0  0  0  # atno 6908 bound_to 6896
  151.1556  133.4833  159.2627 H   0  0  0  0  0  0  0  0  0  0  0  0  # atno 6909 bound_to 6896
  144.8477  140.6012  143.5410 H   0  0  0  0  0  0  0  0  0  0  0  0  # atno 7974 bound_to 7965
  155.2707  140.0440  157.3006 H   0  0  0  0  0  0  0  0  0  0  0  0  # atno 8008 bound_to 7997
  154.5655  140.2358  155.8239 H   0  0  0  0  0  0  0  0  0  0  0  0  # atno 8009 bound_to 7997
  156.2081  140.3006  155.9680 H   0  0  0  0  0  0  0  0  0  0  0  0  # atno 8010 bound_to 7997
  139.9945  144.5733  150.7790 H   0  0  0  0  0  0  0  0  0  0  0  0  # atno 10167 bound_to 10162
  157.6239  130.9329  150.0263 H   0  0  0  0  0  0  0  0  0  0  0  0  # atno 10718 bound_to 10713
  154.7852  135.4800  153.9930 H   0  0  0  0  0  0  0  0  0  0  0  0  # atno 10763 bound_to 10752
  153.1550  135.6798  153.8833 H   0  0  0  0  0  0  0  0  0  0  0  0  # atno 10764 bound_to 10752
  153.8465  135.3172  155.3408 H   0  0  0  0  0  0  0  0  0  0  0  0  # atno 10765 bound_to 10752
  139.8923  134.8412  156.2839 H   0  0  0  0  0  0  0  0  0  0  0  0  # atno 11005 bound_to 11000
  145.4563  139.1518  143.3891 LP  0  0  0  0  0  0  0  0  0  0  0  0  # atno 17320 bound_to 7965
  146.2758  140.4691  142.8796 LP  0  0  0  0  0  0  0  0  0  0  0  0  # atno 17321 bound_to 7965
  140.7442  143.2858  151.3469 LP  0  0  0  0  0  0  0  0  0  0  0  0  # atno 17342 bound_to 10162
  139.6316  144.0709  152.2481 LP  0  0  0  0  0  0  0  0  0  0  0  0  # atno 17343 bound_to 10162
  156.1400  130.3642  149.9597 LP  0  0  0  0  0  0  0  0  0  0  0  0  # atno 17370 bound_to 10713
  156.7640  130.9161  151.3642 LP  0  0  0  0  0  0  0  0  0  0  0  0  # atno 17371 bound_to 10713
  141.0021  133.7145  156.0976 LP  0  0  0  0  0  0  0  0  0  0  0  0  # atno 17394 bound_to 11000
  140.7484  134.4072  157.5545 LP  0  0  0  0  0  0  0  0  0  0  0  0  # atno 17395 bound_to 11000

$$$$
