AV-unprocessed.smi:1190|AV-procd|sdf|4982|dock10
  -GOLD-   22720 3583D 1   1.00000     0.00000
 Structure written by MMmdl.
 44 45  0  0  0  0  0  0  0  0  2 V2000
  154.0750  141.4015  161.9246 C   0  0  0  0  0  0  0  0  0  0  0  0
  153.5109  142.6336  161.4893 O   0  0  0  0  0  0  0  0  0  0  0  0
  152.7411  142.6329  160.3442 C   0  0  0  0  0  0  0  0  0  0  0  0
  152.2114  143.8555  159.8870 C   0  0  0  0  0  0  0  0  0  0  0  0
  151.4270  143.8595  158.7185 C   0  0  0  0  0  0  0  0  0  0  0  0
  151.2006  142.6474  158.0358 C   0  0  0  0  0  0  0  0  0  0  0  0
  150.3915  142.6849  156.8677 N   0  0  0  0  0  0  0  0  0  0  0  0
  150.0379  141.6724  156.0576 C   0  0  0  0  0  0  0  0  0  0  0  0
  150.3835  140.4992  156.1884 O   0  0  0  0  0  0  0  0  0  0  0  0
  149.2621  142.1055  155.0539 N   0  0  0  0  0  0  0  0  0  0  0  0
  148.6923  141.2678  153.9990 C   0  0  0  0  0  0  0  0  0  0  0  0
  147.1625  141.4585  153.8144 C   0  0  2  0  0  0  0  0  0  0  0  0
  146.5314  141.9521  155.1348 C   0  0  0  0  0  0  0  0  0  0  0  0
  146.4873  140.2330  153.2754 N   0  3  0  0  0  0  0  0  0  0  0  0
  147.1470  139.6499  152.0744 C   0  0  0  0  0  0  0  0  0  0  0  0
  146.3882  138.4114  151.5682 C   0  0  0  0  0  0  0  0  0  0  0  0
  146.2884  137.4494  152.6073 O   0  0  0  0  0  0  0  0  0  0  0  0
  145.5593  137.9562  153.7147 C   0  0  0  0  0  0  0  0  0  0  0  0
  146.2931  139.1728  154.3023 C   0  0  0  0  0  0  0  0  0  0  0  0
  151.7660  141.4693  158.5827 C   0  0  0  0  0  0  0  0  0  0  0  0
  152.5186  141.4589  159.7034 N   0  0  0  0  0  0  0  0  0  0  0  0
  154.6523  141.5703  162.8334 H   0  0  0  0  0  0  0  0  0  0  0  0
  154.7511  140.9857  161.1763 H   0  0  0  0  0  0  0  0  0  0  0  0
  153.3015  140.6678  162.1556 H   0  0  0  0  0  0  0  0  0  0  0  0
  152.4028  144.7731  160.4236 H   0  0  0  0  0  0  0  0  0  0  0  0
  151.0091  144.7855  158.3513 H   0  0  0  0  0  0  0  0  0  0  0  0
  150.0815  143.6044  156.5903 H   0  0  0  0  0  0  0  0  0  0  0  0
  149.0238  143.0864  155.0322 H   0  0  0  0  0  0  0  0  0  0  0  0
  149.2164  141.4304  153.0554 H   0  0  0  0  0  0  0  0  0  0  0  0
  148.9085  140.2312  154.2561 H   0  0  0  0  0  0  0  0  0  0  0  0
  147.0226  142.2580  153.0849 H   0  0  0  0  0  0  0  0  0  0  0  0
  147.1212  142.7560  155.5763 H   0  0  0  0  0  0  0  0  0  0  0  0
  146.4622  141.1520  155.8721 H   0  0  0  0  0  0  0  0  0  0  0  0
  145.5321  142.3593  154.9827 H   0  0  0  0  0  0  0  0  0  0  0  0
  147.1792  140.3703  151.2583 H   0  0  0  0  0  0  0  0  0  0  0  0
  148.1777  139.3853  152.3154 H   0  0  0  0  0  0  0  0  0  0  0  0
  145.3942  138.6833  151.2093 H   0  0  0  0  0  0  0  0  0  0  0  0
  146.9181  137.9655  150.7262 H   0  0  0  0  0  0  0  0  0  0  0  0
  144.5445  138.2199  153.4119 H   0  0  0  0  0  0  0  0  0  0  0  0
  145.4726  137.1719  154.4668 H   0  0  0  0  0  0  0  0  0  0  0  0
  147.2627  138.8661  154.6977 H   0  0  0  0  0  0  0  0  0  0  0  0
  145.7087  139.5446  155.1424 H   0  0  0  0  0  0  0  0  0  0  0  0
  151.6095  140.4982  158.1406 H   0  0  0  0  0  0  0  0  0  0  0  0
  145.5664  140.5234  152.9791 H   0  0  0  0  0  0  0  0  0  0  0  0
  1  2  1  0  0  0  0
  1 22  1  0  0  0  0
  1 23  1  0  0  0  0
  1 24  1  0  0  0  0
  2  3  1  0  0  0  0
  3 21  1  0  0  0  0
  3  4  2  0  0  0  0
  4  5  1  0  0  0  0
  4 25  1  0  0  0  0
  5  6  2  0  0  0  0
  5 26  1  0  0  0  0
  6  7  1  0  0  0  0
  6 20  1  0  0  0  0
  7  8  1  0  0  0  0
  7 27  1  0  0  0  0
  8  9  2  0  0  0  0
  8 10  1  0  0  0  0
 10 11  1  0  0  0  0
 10 28  1  0  0  0  0
 11 12  1  0  0  0  0
 11 29  1  0  0  0  0
 11 30  1  0  0  0  0
 12 13  1  0  0  0  0
 12 14  1  0  0  0  0
 12 31  1  0  0  0  0
 13 32  1  0  0  0  0
 13 33  1  0  0  0  0
 13 34  1  0  0  0  0
 14 19  1  0  0  0  0
 14 15  1  0  0  0  0
 14 44  1  0  0  0  0
 15 16  1  0  0  0  0
 15 35  1  0  0  0  0
 15 36  1  0  0  0  0
 16 17  1  0  0  0  0
 16 37  1  0  0  0  0
 16 38  1  0  0  0  0
 17 18  1  0  0  0  0
 18 19  1  0  0  0  0
 18 39  1  0  0  0  0
 18 40  1  0  0  0  0
 19 41  1  0  0  0  0
 19 42  1  0  0  0  0
 20 21  2  0  0  0  0
 20 43  1  0  0  0  0
M  CHG  1  14   1
M  END
> <s_m_source_file>
AV-unprocessed.smi

> <i_m_source_file_index>
1190

> <i_lp_mmshare_version>
43012

> <i_f3d_flags>
0

> <s_epik_input>
W0NIM11PYzFbY0hdW2NIXWMoW2NIXW4xKVtOSF1DKD1PKVtOSF1bQ0gyXVtDQEhdKFtDSDNdKU4yW0NIMl1bQ0gyXU9bQ0gyXVtDSDJdMg==

> <s_epik_cmdline>
J2VwaWtfcHl0aG9uJywgJy1waCcsICc3LjAnLCAnLXRuJywgJzgnLCAnLW1hJywgJzIwMCcsICctbWV0YWxfYmluZGluZycsICctaW1hZScsICc8aW5maWxlLm1hZT4nLCAnLW9tYWUnLCAnPG91dGZpbGUubWFlPic=

> <r_lp_tautomer_probability>
1

> <r_epik_Ionization_Penalty>
0.602608

> <r_epik_Ionization_Penalty_Charging>
0.602531

> <r_epik_Ionization_Penalty_Neutral>
7.70246e-05

> <r_epik_State_Penalty>
0.617039

> <r_epik_Charging_Adjusted_Penalty>
1.21957

> <i_epik_Tot_Q>
1

> <i_epik_Tot_abs_Q>
1

> <r_epik_Metal_State_Penalty>
0.617043

> <b_epik_Metal_Only>
0

> <s_lp_Force_Field>
OPLS_2005

> <r_lp_Energy>
31.3292

> <b_lp_Chiralities_Consistent>
1

> <s_lp_Variant>
AV-unprocessed.smi:1190-3

> <Gold.Version>
5.8.1

> <Gold.Id.Protein>
6NUR|6NUR_protein|mol2

> <Gold.PLP.Fitness>
49.3282

> <Gold.PLP.PLP>
-38.8878

> <Gold.PLP.part.hbond>
-3.0000

> <Gold.PLP.part.metal>
0.0000

> <Gold.PLP.part.buried>
0.4849

> <Gold.PLP.part.nonpolar>
-37.2073

> <Gold.PLP.part.repulsive>
0.6493

> <Gold.PLP.ligand.clash>
0.5023

> <Gold.PLP.ligand.torsion>
0.5726

> <Gold.PLP.Chemscore.Hbond>
4.0000

> <Gold.PLP.Chemscore.CHOScore>
0.0000

> <Gold.PLP.Chemscore.Metal>
0.0000

> <Gold.Chemscore.Hbonds>
donor molecule, donor type, donor heavy atom, donor atom, acceptor molecule, acceptor atom, score
      L1  H     7    27       P1  8028  1.00
      L1  H    10    28       P1  8028  1.00
      L1  H    14    44       P1 10175  2.00

> <Gold.PLP.Chemscore.Internal.Correction>
0.0879

> <Gold.Rescore>
     Score         DG    S(hbond)    S(metal)    S(lipo)     H(rot)  DE(clash)    DE(int)     intcor
     19.08     -21.01       2.97        0.00      87.13       1.79       0.04       1.88       ----

> <Gold.Chemscore.Fitness>
19.0805

> <Gold.Chemscore.DG>
-21.0067

> <Gold.Chemscore.ZeroCoef>
-5.4800

> <Gold.Chemscore.Hbond>
2.9671

> <Gold.Chemscore.Metal>
0.0000

> <Gold.Chemscore.Lipo>
87.1298

> <Gold.Chemscore.Internal_Hbond>
0.0000

> <Gold.Chemscore.DEClash>
0.0442

> <Gold.Chemscore.DEInternal>
1.8820

> <Gold.Chemscore.Rot>
1.7881

> <Gold.Chemscore.Internal.Correction>
   9.000000E+99

> <Gold.Chemscore.Hbonds>
donor molecule, donor type, donor heavy atom, donor atom, acceptor molecule, acceptor atom, score
      L1  H     7    27       P1  8028  0.96
      L1  H    10    28       P1  8028  0.99
      L1  H    14    44       P1 10175  0.81

> <Gold.Chemscore.Hbond.Weighted>
-9.9100

> <Gold.Chemscore.Metal.Weighted>
-0.0000

> <Gold.Chemscore.Lipo.Weighted>
-10.1942

> <Gold.Chemscore.Internal_Hbond.Weighted>
0.0000

> <Gold.Chemscore.DEClash.Weighted>
0.0442

> <Gold.Chemscore.DEInternal.Weighted>
1.8820

> <Gold.Chemscore.Rot.Weighted>
4.5775

> <Gold.Chemscore.Internal.Correction.Weighted>
   9.000000E+99

> <Gold.Protein.RotatedTorsions>
[ 6907 6896 6895 6894 ] final  157.49 input  -60.11 | X-H torsion
[ 7974 7965 7964 7962 ] final  173.71 input  175.53 | X-H torsion
[ 8008 7997 7996 7995 ] final  165.17 input   59.86 | X-H torsion
[ 10167 10162 10161 10158 ] final  -93.09 input  -65.29 | X-H torsion
[ 10718 10713 10712 10709 ] final  -59.23 input   66.30 | X-H torsion
[ 10763 10752 10751 10750 ] final  120.66 input  -60.55 | X-H torsion
[ 11005 11000 10999 10996 ] final   13.09 input  -57.11 | X-H torsion

> <Gold.Protein.ActiveResidues>
 VAL166  LYS551  ARG553  GLY616  TRP617  ASP618  TYR619  PRO620  LYS621  CYS622 
 ASP623  PHE694  ASN695  SER759  ASP760  ASP761  ALA762  ILE779  LEU786  VAL792 
 PHE793  MET794  SER795  GLU796  ALA797  LYS798  CYS799  TRP800  GLU811  SER814 

> <Gold.Protein.RotatedAtoms>
  152.0143  133.3873  159.4231 H   0  0  0  0  0  0  0  0  0  0  0  0  # atno 6907 bound_to 6896
  150.6896  134.3696  159.4995 H   0  0  0  0  0  0  0  0  0  0  0  0  # atno 6908 bound_to 6896
  152.1461  134.9024  160.0601 H   0  0  0  0  0  0  0  0  0  0  0  0  # atno 6909 bound_to 6896
  144.7237  139.9687  143.6436 H   0  0  0  0  0  0  0  0  0  0  0  0  # atno 7974 bound_to 7965
  156.1822  140.1677  156.8253 H   0  0  0  0  0  0  0  0  0  0  0  0  # atno 8008 bound_to 7997
  154.5373  140.0744  156.8482 H   0  0  0  0  0  0  0  0  0  0  0  0  # atno 8009 bound_to 7997
  155.3286  140.3377  155.4242 H   0  0  0  0  0  0  0  0  0  0  0  0  # atno 8010 bound_to 7997
  140.3282  143.3010  151.9971 H   0  0  0  0  0  0  0  0  0  0  0  0  # atno 10167 bound_to 10162
  156.1076  130.4178  150.0687 H   0  0  0  0  0  0  0  0  0  0  0  0  # atno 10718 bound_to 10713
  153.6019  135.3446  155.2948 H   0  0  0  0  0  0  0  0  0  0  0  0  # atno 10763 bound_to 10752
  154.8634  135.4229  154.2403 H   0  0  0  0  0  0  0  0  0  0  0  0  # atno 10764 bound_to 10752
  153.3233  135.7039  153.7082 H   0  0  0  0  0  0  0  0  0  0  0  0  # atno 10765 bound_to 10752
  140.4847  134.0900  155.7758 H   0  0  0  0  0  0  0  0  0  0  0  0  # atno 11005 bound_to 11000
  146.0580  139.3575  143.0599 LP  0  0  0  0  0  0  0  0  0  0  0  0  # atno 17320 bound_to 7965
  145.8130  140.9716  143.0939 LP  0  0  0  0  0  0  0  0  0  0  0  0  # atno 17321 bound_to 7965
  139.4861  144.6256  151.7170 LP  0  0  0  0  0  0  0  0  0  0  0  0  # atno 17342 bound_to 10162
  140.5421  144.0562  150.6092 LP  0  0  0  0  0  0  0  0  0  0  0  0  # atno 17343 bound_to 10162
  156.8659  130.9507  151.3614 LP  0  0  0  0  0  0  0  0  0  0  0  0  # atno 17370 bound_to 10713
  157.6255  130.8688  149.9181 LP  0  0  0  0  0  0  0  0  0  0  0  0  # atno 17371 bound_to 10713
  141.1514  133.8962  157.2088 LP  0  0  0  0  0  0  0  0  0  0  0  0  # atno 17394 bound_to 11000
  139.9805  135.0099  156.9738 LP  0  0  0  0  0  0  0  0  0  0  0  0  # atno 17395 bound_to 11000

$$$$
