AV-unprocessed.smi:3140|AV-procd|sdf|11959|dock10
  -GOLD-   2272017363D 1   1.00000     0.00000
 Structure written by MMmdl.
 38 39  0  0  0  0  0  0  0  0  2 V2000
  148.4297  141.5272  154.9265 C   0  0  0  0  0  0  0  0  0  0  0  0
  149.1735  141.4016  156.2629 C   0  0  1  0  0  0  0  0  0  0  0  0
  150.6831  141.1756  156.0283 C   0  0  0  0  0  0  0  0  0  0  0  0
  150.9897  139.8366  155.5575 N   0  0  0  0  0  0  0  0  0  0  0  0
  151.5837  138.7998  156.2460 C   0  0  0  0  0  0  0  0  0  0  0  0
  151.6842  137.7458  155.3834 C   0  0  0  0  0  0  0  0  0  0  0  0
  151.1127  138.2387  154.1770 C   0  0  0  0  0  0  0  0  0  0  0  0
  150.6976  139.4908  154.2846 N   0  0  0  0  0  0  0  0  0  0  0  0
  148.9323  142.6159  157.0757 N   0  3  0  0  0  0  0  0  0  0  0  0
  149.5851  142.6166  158.4013 C   0  0  0  0  0  0  0  0  0  0  0  0
  150.7932  143.5649  158.4184 C   0  0  0  0  0  0  0  0  0  0  0  0
  151.5856  143.4003  159.6337 N   0  0  0  0  0  0  0  0  0  0  0  0
  151.6365  144.4480  160.6394 C   0  0  0  0  0  0  0  0  0  0  0  0
  152.3861  143.8231  161.8253 C   0  0  0  0  0  0  0  0  0  0  0  0
  153.0483  142.5544  161.2769 C   0  0  0  0  0  0  0  0  0  0  0  0
  152.3624  142.3530  159.9364 C   0  0  0  0  0  0  0  0  0  0  0  0
  152.5224  141.3466  159.2472 O   0  0  0  0  0  0  0  0  0  0  0  0
  148.5599  140.6311  154.3193 H   0  0  0  0  0  0  0  0  0  0  0  0
  148.7915  142.3769  154.3464 H   0  0  0  0  0  0  0  0  0  0  0  0
  147.3591  141.6628  155.0838 H   0  0  0  0  0  0  0  0  0  0  0  0
  148.7608  140.5351  156.7827 H   0  0  0  0  0  0  0  0  0  0  0  0
  151.0535  141.8823  155.2843 H   0  0  0  0  0  0  0  0  0  0  0  0
  151.2471  141.3679  156.9429 H   0  0  0  0  0  0  0  0  0  0  0  0
  151.8872  138.8984  157.2780 H   0  0  0  0  0  0  0  0  0  0  0  0
  152.1027  136.7703  155.5829 H   0  0  0  0  0  0  0  0  0  0  0  0
  150.9915  137.7290  153.2324 H   0  0  0  0  0  0  0  0  0  0  0  0
  149.2552  143.4160  156.5498 H   0  0  0  0  0  0  0  0  0  0  0  0
  148.8572  142.9167  159.1565 H   0  0  0  0  0  0  0  0  0  0  0  0
  149.9036  141.6059  158.6545 H   0  0  0  0  0  0  0  0  0  0  0  0
  151.4290  143.3788  157.5509 H   0  0  0  0  0  0  0  0  0  0  0  0
  150.4583  144.6002  158.3398 H   0  0  0  0  0  0  0  0  0  0  0  0
  152.1823  145.3038  160.2397 H   0  0  0  0  0  0  0  0  0  0  0  0
  150.6367  144.7799  160.9217 H   0  0  0  0  0  0  0  0  0  0  0  0
  153.1148  144.5134  162.2519 H   0  0  0  0  0  0  0  0  0  0  0  0
  151.6828  143.5598  162.6166 H   0  0  0  0  0  0  0  0  0  0  0  0
  154.1174  142.6997  161.1188 H   0  0  0  0  0  0  0  0  0  0  0  0
  152.9034  141.6954  161.9327 H   0  0  0  0  0  0  0  0  0  0  0  0
  147.9375  142.7091  157.2238 H   0  0  0  0  0  0  0  0  0  0  0  0
  1  2  1  0  0  0  0
  1 18  1  0  0  0  0
  1 19  1  0  0  0  0
  1 20  1  0  0  0  0
  2  3  1  0  0  0  0
  2  9  1  0  0  0  0
  2 21  1  0  0  0  0
  3  4  1  0  0  0  0
  3 22  1  0  0  0  0
  3 23  1  0  0  0  0
  4  8  1  0  0  0  0
  4  5  1  0  0  0  0
  5  6  2  0  0  0  0
  5 24  1  0  0  0  0
  6  7  1  0  0  0  0
  6 25  1  0  0  0  0
  7  8  2  0  0  0  0
  7 26  1  0  0  0  0
  9 10  1  0  0  0  0
  9 27  1  0  0  0  0
  9 38  1  0  0  0  0
 10 11  1  0  0  0  0
 10 28  1  0  0  0  0
 10 29  1  0  0  0  0
 11 12  1  0  0  0  0
 11 30  1  0  0  0  0
 11 31  1  0  0  0  0
 12 16  1  0  0  0  0
 12 13  1  0  0  0  0
 13 14  1  0  0  0  0
 13 32  1  0  0  0  0
 13 33  1  0  0  0  0
 14 15  1  0  0  0  0
 14 34  1  0  0  0  0
 14 35  1  0  0  0  0
 15 16  1  0  0  0  0
 15 36  1  0  0  0  0
 15 37  1  0  0  0  0
 16 17  2  0  0  0  0
M  CHG  1   9   1
M  END
> <s_m_source_file>
AV-unprocessed.smi

> <i_m_source_file_index>
3140

> <i_lp_mmshare_version>
43012

> <i_f3d_flags>
0

> <s_epik_input>
bjFbY0hdW2NIXVtjSF1uMVtDSDJdW0NAQEhdKFtDSDNdKVtOSF1bQ0gyXVtDSDJdTjJbQ0gyXVtDSDJdW0NIMl1DMj1P

> <s_epik_cmdline>
J2VwaWtfcHl0aG9uJywgJy1waCcsICc3LjAnLCAnLXRuJywgJzgnLCAnLW1hJywgJzIwMCcsICctbWV0YWxfYmluZGluZycsICctaW1hZScsICc8aW5maWxlLm1hZT4nLCAnLW9tYWUnLCAnPG91dGZpbGUubWFlPic=

> <r_lp_tautomer_probability>
1

> <r_epik_Ionization_Penalty>
0.00826299

> <r_epik_Ionization_Penalty_Charging>
0.00825899

> <r_epik_Ionization_Penalty_Neutral>
3.99893e-06

> <r_epik_State_Penalty>
0.00621436

> <r_epik_Charging_Adjusted_Penalty>
0.0144734

> <i_epik_Tot_Q>
1

> <i_epik_Tot_abs_Q>
1

> <r_epik_Metal_State_Penalty>
0.00621472

> <b_epik_Metal_Only>
0

> <s_lp_Force_Field>
OPLS_2005

> <r_lp_Energy>
19.0418

> <b_lp_Chiralities_Consistent>
1

> <s_lp_Variant>
AV-unprocessed.smi:3140-2

> <Gold.Version>
5.8.1

> <Gold.Id.Protein>
6NUR|6NUR_protein|mol2

> <Gold.PLP.Fitness>
49.7427

> <Gold.PLP.PLP>
-39.6155

> <Gold.PLP.part.hbond>
-2.0000

> <Gold.PLP.part.metal>
0.0000

> <Gold.PLP.part.buried>
-5.4888

> <Gold.PLP.part.nonpolar>
-32.5976

> <Gold.PLP.part.repulsive>
0.1743

> <Gold.PLP.ligand.clash>
0.0000

> <Gold.PLP.ligand.torsion>
0.7047

> <Gold.PLP.Chemscore.Hbond>
2.7340

> <Gold.PLP.Chemscore.CHOScore>
1.0996

> <Gold.PLP.Chemscore.Metal>
0.0000

> <Gold.Chemscore.Hbonds>
donor molecule, donor type, donor heavy atom, donor atom, acceptor molecule, acceptor atom, score
      L1  H     9    27       P1  8028  1.92
      P1  H  7989  7998       L1     8  0.85
      L1  C     7    26       P1  7948  0.07
      L1  C     7    26       P1  7949  1.00

> <Gold.PLP.Chemscore.Internal.Correction>
0.0357

> <Gold.Rescore>
     Score         DG    S(hbond)    S(metal)    S(lipo)     H(rot)  DE(clash)    DE(int)     intcor
     16.09     -17.08       1.94        0.00      88.74       2.06       0.01       0.98       ----

> <Gold.Chemscore.Fitness>
16.0876

> <Gold.Chemscore.DG>
-17.0753

> <Gold.Chemscore.ZeroCoef>
-5.4800

> <Gold.Chemscore.Hbond>
1.9388

> <Gold.Chemscore.Metal>
0.0000

> <Gold.Chemscore.Lipo>
88.7379

> <Gold.Chemscore.Internal_Hbond>
0.0000

> <Gold.Chemscore.DEClash>
0.0063

> <Gold.Chemscore.DEInternal>
0.9814

> <Gold.Chemscore.Rot>
2.0557

> <Gold.Chemscore.Internal.Correction>
   9.000000E+99

> <Gold.Chemscore.Hbonds>
donor molecule, donor type, donor heavy atom, donor atom, acceptor molecule, acceptor atom, score
      L1  H     9    27       P1  8028  0.91
      P1  H  7989  7998       L1     8  0.14

> <Gold.Chemscore.Hbond.Weighted>
-6.4757

> <Gold.Chemscore.Metal.Weighted>
-0.0000

> <Gold.Chemscore.Lipo.Weighted>
-10.3823

> <Gold.Chemscore.Internal_Hbond.Weighted>
0.0000

> <Gold.Chemscore.DEClash.Weighted>
0.0063

> <Gold.Chemscore.DEInternal.Weighted>
0.9814

> <Gold.Chemscore.Rot.Weighted>
5.2627

> <Gold.Chemscore.Internal.Correction.Weighted>
   9.000000E+99

> <Gold.Protein.RotatedTorsions>
[ 6907 6896 6895 6894 ] final  -97.33 input  -60.11 | X-H torsion
[ 7974 7965 7964 7962 ] final  -10.05 input  175.53 | X-H torsion
[ 8008 7997 7996 7995 ] final  174.76 input   59.86 | X-H torsion
[ 10167 10162 10161 10158 ] final -127.50 input  -65.29 | X-H torsion
[ 10718 10713 10712 10709 ] final  132.62 input   66.30 | X-H torsion
[ 10763 10752 10751 10750 ] final -134.15 input  -60.55 | X-H torsion
[ 11005 11000 10999 10996 ] final  -67.18 input  -57.11 | X-H torsion

> <Gold.Protein.ActiveResidues>
 VAL166  LYS551  ARG553  GLY616  TRP617  ASP618  TYR619  PRO620  LYS621  CYS622 
 ASP623  PHE694  ASN695  SER759  ASP760  ASP761  ALA762  ILE779  LEU786  VAL792 
 PHE793  MET794  SER795  GLU796  ALA797  LYS798  CYS799  TRP800  GLU811  SER814 

> <Gold.Protein.RotatedAtoms>
  150.7013  134.1365  159.4088 H   0  0  0  0  0  0  0  0  0  0  0  0  # atno 6907 bound_to 6896
  151.9350  135.0237  160.0541 H   0  0  0  0  0  0  0  0  0  0  0  0  # atno 6908 bound_to 6896
  152.2143  133.4899  159.5164 H   0  0  0  0  0  0  0  0  0  0  0  0  # atno 6909 bound_to 6896
  146.2233  140.2707  142.8356 H   0  0  0  0  0  0  0  0  0  0  0  0  # atno 7974 bound_to 7965
  156.0941  140.1426  156.9554 H   0  0  0  0  0  0  0  0  0  0  0  0  # atno 8008 bound_to 7997
  154.4660  140.0926  156.7067 H   0  0  0  0  0  0  0  0  0  0  0  0  # atno 8009 bound_to 7997
  155.4871  140.3447  155.4351 H   0  0  0  0  0  0  0  0  0  0  0  0  # atno 8010 bound_to 7997
  139.9602  143.5959  152.2447 H   0  0  0  0  0  0  0  0  0  0  0  0  # atno 10167 bound_to 10162
  157.4853  131.1088  150.9628 H   0  0  0  0  0  0  0  0  0  0  0  0  # atno 10718 bound_to 10713
  154.8723  135.3744  154.4688 H   0  0  0  0  0  0  0  0  0  0  0  0  # atno 10763 bound_to 10752
  153.5350  135.7027  153.5669 H   0  0  0  0  0  0  0  0  0  0  0  0  # atno 10764 bound_to 10752
  153.3857  135.3985  155.1853 H   0  0  0  0  0  0  0  0  0  0  0  0  # atno 10765 bound_to 10752
  141.1501  133.6714  156.6253 H   0  0  0  0  0  0  0  0  0  0  0  0  # atno 11005 bound_to 11000
  144.9270  140.7932  143.5713 LP  0  0  0  0  0  0  0  0  0  0  0  0  # atno 17320 bound_to 7965
  145.2648  139.1978  143.4873 LP  0  0  0  0  0  0  0  0  0  0  0  0  # atno 17321 bound_to 7965
  139.6560  144.7662  151.2055 LP  0  0  0  0  0  0  0  0  0  0  0  0  # atno 17342 bound_to 10162
  140.7555  143.6085  150.8629 LP  0  0  0  0  0  0  0  0  0  0  0  0  # atno 17343 bound_to 10162
  157.0347  130.5725  149.5348 LP  0  0  0  0  0  0  0  0  0  0  0  0  # atno 17370 bound_to 10713
  156.0143  130.5237  150.8088 LP  0  0  0  0  0  0  0  0  0  0  0  0  # atno 17371 bound_to 10713
  140.3509  134.7770  157.4466 LP  0  0  0  0  0  0  0  0  0  0  0  0  # atno 17394 bound_to 11000
  140.0862  134.5664  155.8490 LP  0  0  0  0  0  0  0  0  0  0  0  0  # atno 17395 bound_to 11000

$$$$
