AV-unprocessed.smi:1897|AV-procd|sdf|7698|dock9
  -GOLD-   22720 9433D 1   1.00000     0.00000
 Structure written by MMmdl.
 38 40  0  0  0  0  0  0  0  0  3 V2000
  154.1878  140.2893  160.6692 C   0  0  0  0  0  0  0  0  0  0  0  0
  153.3465  140.3752  159.4421 C   0  0  0  0  0  0  0  0  0  0  0  0
  153.4858  139.5386  158.4110 N   0  0  0  0  0  0  0  0  0  0  0  0
  152.5926  139.8174  157.3875 N   0  0  0  0  0  0  0  0  0  0  0  0
  151.7816  140.8490  157.6638 C   0  0  0  0  0  0  0  0  0  0  0  0
  150.8330  141.2720  156.8075 N   0  5  0  0  0  0  0  0  0  0  0  0
  150.5252  140.5991  155.6686 C   0  0  0  0  0  0  0  0  0  0  0  0
  151.3544  139.9823  155.0012 O   0  0  0  0  0  0  0  0  0  0  0  0
  149.2401  140.6043  155.2651 N   0  0  0  0  0  0  0  0  0  0  0  0
  148.7014  139.8773  154.1207 C   0  0  2  0  0  0  0  0  0  0  0  0
  147.3775  140.4391  153.6196 C   0  0  0  0  0  0  0  0  0  0  0  0
  146.7998  139.2777  152.8052 C   0  0  0  0  0  0  0  0  0  0  0  0
  147.3572  138.0297  153.3820 N   0  3  2  0  0  0  0  0  0  0  0  0
  146.3242  137.0548  153.8231 C   0  0  0  0  0  0  0  0  0  0  0  0
  146.9339  135.9864  154.7423 C   0  0  0  0  0  0  0  0  0  0  0  0
  147.5087  136.6101  156.0278 C   0  0  0  0  0  0  0  0  0  0  0  0
  147.8737  138.0962  155.8496 C   0  0  0  0  0  0  0  0  0  0  0  0
  148.3673  138.4021  154.4130 C   0  0  2  0  0  0  0  0  0  0  0  0
  152.0859  141.5803  159.2385 S   0  0  0  0  0  0  0  0  0  0  0  0
  153.7996  139.5171  161.3332 H   0  0  0  0  0  0  0  0  0  0  0  0
  154.1834  141.2425  161.1984 H   0  0  0  0  0  0  0  0  0  0  0  0
  155.2167  140.0423  160.4063 H   0  0  0  0  0  0  0  0  0  0  0  0
  148.5808  141.1213  155.8283 H   0  0  0  0  0  0  0  0  0  0  0  0
  149.4148  139.9234  153.2952 H   0  0  0  0  0  0  0  0  0  0  0  0
  146.7194  140.6651  154.4602 H   0  0  0  0  0  0  0  0  0  0  0  0
  147.4962  141.3494  153.0312 H   0  0  0  0  0  0  0  0  0  0  0  0
  145.7091  139.2979  152.7943 H   0  0  0  0  0  0  0  0  0  0  0  0
  147.1354  139.3456  151.7699 H   0  0  0  0  0  0  0  0  0  0  0  0
  145.5229  137.5704  154.3555 H   0  0  0  0  0  0  0  0  0  0  0  0
  145.8734  136.5933  152.9441 H   0  0  0  0  0  0  0  0  0  0  0  0
  146.1909  135.2296  154.9956 H   0  0  0  0  0  0  0  0  0  0  0  0
  147.7267  135.4664  154.2030 H   0  0  0  0  0  0  0  0  0  0  0  0
  146.7904  136.5187  156.8433 H   0  0  0  0  0  0  0  0  0  0  0  0
  148.3882  136.0429  156.3348 H   0  0  0  0  0  0  0  0  0  0  0  0
  146.9999  138.7115  156.0689 H   0  0  0  0  0  0  0  0  0  0  0  0
  148.6256  138.3661  156.5918 H   0  0  0  0  0  0  0  0  0  0  0  0
  149.2611  137.8009  154.2402 H   0  0  0  0  0  0  0  0  0  0  0  0
  147.8775  137.5833  152.6404 H   0  0  0  0  0  0  0  0  0  0  0  0
  1  2  1  0  0  0  0
  1 20  1  0  0  0  0
  1 21  1  0  0  0  0
  1 22  1  0  0  0  0
  2 19  1  0  0  0  0
  2  3  2  0  0  0  0
  3  4  1  0  0  0  0
  4  5  2  0  0  0  0
  5  6  1  0  0  0  0
  5 19  1  0  0  0  0
  6  7  1  0  0  0  0
  7  8  2  0  0  0  0
  7  9  1  0  0  0  0
  9 10  1  0  0  0  0
  9 23  1  0  0  0  0
 10 18  1  0  0  0  0
 10 11  1  0  0  0  0
 10 24  1  0  0  0  0
 11 12  1  0  0  0  0
 11 25  1  0  0  0  0
 11 26  1  0  0  0  0
 12 13  1  0  0  0  0
 12 27  1  0  0  0  0
 12 28  1  0  0  0  0
 13 18  1  0  0  0  0
 13 14  1  0  0  0  0
 13 38  1  0  0  0  0
 14 15  1  0  0  0  0
 14 29  1  0  0  0  0
 14 30  1  0  0  0  0
 15 16  1  0  0  0  0
 15 31  1  0  0  0  0
 15 32  1  0  0  0  0
 16 17  1  0  0  0  0
 16 33  1  0  0  0  0
 16 34  1  0  0  0  0
 17 18  1  0  0  0  0
 17 35  1  0  0  0  0
 17 36  1  0  0  0  0
 18 37  1  0  0  0  0
M  CHG  1   6  -1
M  CHG  1  13   1
M  END
> <s_m_source_file>
AV-unprocessed.smi

> <i_m_source_file_index>
1897

> <i_lp_mmshare_version>
43012

> <i_f3d_flags>
0

> <s_epik_input>
W0NIM11jMW5uYyhzMSlbTkhdQyg9TylbTkhdW0NASF0oW0NIMl1bQ0gyXTIpW0NAQEhdKE4yMylbQ0gyXVtDSDJdW0NIMl1bQ0gyXTM=

> <s_epik_cmdline>
J2VwaWtfcHl0aG9uJywgJy1waCcsICc3LjAnLCAnLXRuJywgJzgnLCAnLW1hJywgJzIwMCcsICctbWV0YWxfYmluZGluZycsICctaW1hZScsICc8aW5maWxlLm1hZT4nLCAnLW9tYWUnLCAnPG91dGZpbGUubWFlPic=

> <r_lp_tautomer_probability>
1

> <r_epik_Ionization_Penalty>
3.77712

> <r_epik_Ionization_Penalty_Charging>
3.67739

> <r_epik_Ionization_Penalty_Neutral>
0.0997294

> <r_epik_State_Penalty>
3.67514

> <r_epik_Charging_Adjusted_Penalty>
7.35254

> <i_epik_Tot_Q>
0

> <i_epik_Tot_abs_Q>
2

> <r_epik_Metal_State_Penalty>
0.540795

> <b_epik_Metal_Only>
1

> <s_lp_Force_Field>
OPLS_2005

> <r_lp_Energy>
34.1596

> <b_lp_Chiralities_Consistent>
1

> <s_lp_Variant>
AV-unprocessed.smi:1897-15

> <Gold.Version>
5.8.1

> <Gold.Id.Protein>
6NUR|6NUR_protein|mol2

> <Gold.PLP.Fitness>
35.1863

> <Gold.PLP.PLP>
-25.5003

> <Gold.PLP.part.hbond>
-4.0000

> <Gold.PLP.part.metal>
0.0000

> <Gold.PLP.part.buried>
-3.4678

> <Gold.PLP.part.nonpolar>
-18.7647

> <Gold.PLP.part.repulsive>
0.2256

> <Gold.PLP.ligand.clash>
0.0000

> <Gold.PLP.ligand.torsion>
0.5589

> <Gold.PLP.Chemscore.Hbond>
3.6000

> <Gold.PLP.Chemscore.CHOScore>
0.0000

> <Gold.PLP.Chemscore.Metal>
0.0000

> <Gold.Chemscore.Hbonds>
donor molecule, donor type, donor heavy atom, donor atom, acceptor molecule, acceptor atom, score
      L1  H    13    38       P1  7948  2.00
      P1  H  7989  7998       L1     8  1.00
      P1  H  7997  8009       L1     3  0.53

> <Gold.PLP.Chemscore.Internal.Correction>
0.0039

> <Gold.Rescore>
     Score         DG    S(hbond)    S(metal)    S(lipo)     H(rot)  DE(clash)    DE(int)     intcor
     14.15     -16.50       2.26        0.00      51.52       1.00       0.25       2.10       ----

> <Gold.Chemscore.Fitness>
14.1472

> <Gold.Chemscore.DG>
-16.4966

> <Gold.Chemscore.ZeroCoef>
-5.4800

> <Gold.Chemscore.Hbond>
2.2601

> <Gold.Chemscore.Metal>
0.0000

> <Gold.Chemscore.Lipo>
51.5213

> <Gold.Chemscore.Internal_Hbond>
0.0000

> <Gold.Chemscore.DEClash>
0.2461

> <Gold.Chemscore.DEInternal>
2.1033

> <Gold.Chemscore.Rot>
1.0000

> <Gold.Chemscore.Internal.Correction>
   9.000000E+99

> <Gold.Chemscore.Hbonds>
donor molecule, donor type, donor heavy atom, donor atom, acceptor molecule, acceptor atom, score
      L1  H    13    38       P1  7948  0.99
      P1  H  7989  7998       L1     8  0.70
      P1  H  7997  8009       L1     3  0.04

> <Gold.Chemscore.Hbond.Weighted>
-7.5486

> <Gold.Chemscore.Metal.Weighted>
-0.0000

> <Gold.Chemscore.Lipo.Weighted>
-6.0280

> <Gold.Chemscore.Internal_Hbond.Weighted>
0.0000

> <Gold.Chemscore.DEClash.Weighted>
0.2461

> <Gold.Chemscore.DEInternal.Weighted>
2.1033

> <Gold.Chemscore.Rot.Weighted>
2.5600

> <Gold.Chemscore.Internal.Correction.Weighted>
   9.000000E+99

> <Gold.Protein.RotatedTorsions>
[ 6907 6896 6895 6894 ] final  115.53 input  -60.11 | X-H torsion
[ 7974 7965 7964 7962 ] final -109.17 input  175.53 | X-H torsion
[ 8008 7997 7996 7995 ] final  122.20 input   59.86 | X-H torsion
[ 10167 10162 10161 10158 ] final  179.02 input  -65.29 | X-H torsion
[ 10718 10713 10712 10709 ] final  168.30 input   66.30 | X-H torsion
[ 10763 10752 10751 10750 ] final  -75.68 input  -60.55 | X-H torsion
[ 11005 11000 10999 10996 ] final -131.54 input  -57.11 | X-H torsion

> <Gold.Protein.ActiveResidues>
 VAL166  LYS551  ARG553  GLY616  TRP617  ASP618  TYR619  PRO620  LYS621  CYS622 
 ASP623  PHE694  ASN695  SER759  ASP760  ASP761  ALA762  ILE779  LEU786  VAL792 
 PHE793  MET794  SER795  GLU796  ALA797  LYS798  CYS799  TRP800  GLU811  SER814 

> <Gold.Protein.RotatedAtoms>
  152.4736  133.8085  159.6990 H   0  0  0  0  0  0  0  0  0  0  0  0  # atno 6907 bound_to 6896
  150.8739  133.7457  159.2959 H   0  0  0  0  0  0  0  0  0  0  0  0  # atno 6908 bound_to 6896
  151.4983  135.1064  159.9874 H   0  0  0  0  0  0  0  0  0  0  0  0  # atno 6909 bound_to 6896
  145.1839  140.8984  143.3464 H   0  0  0  0  0  0  0  0  0  0  0  0  # atno 7974 bound_to 7965
  156.2718  140.2791  156.1429 H   0  0  0  0  0  0  0  0  0  0  0  0  # atno 8008 bound_to 7997
  155.0934  140.0389  157.2693 H   0  0  0  0  0  0  0  0  0  0  0  0  # atno 8009 bound_to 7997
  154.6871  140.2621  155.6855 H   0  0  0  0  0  0  0  0  0  0  0  0  # atno 8010 bound_to 7997
  139.5318  144.2611  152.0706 H   0  0  0  0  0  0  0  0  0  0  0  0  # atno 10167 bound_to 10162
  157.0390  131.0281  151.2719 H   0  0  0  0  0  0  0  0  0  0  0  0  # atno 10718 bound_to 10713
  154.4898  135.5823  153.6450 H   0  0  0  0  0  0  0  0  0  0  0  0  # atno 10763 bound_to 10752
  152.9860  135.6110  154.3140 H   0  0  0  0  0  0  0  0  0  0  0  0  # atno 10764 bound_to 10752
  154.3038  135.2846  155.2577 H   0  0  0  0  0  0  0  0  0  0  0  0  # atno 10765 bound_to 10752
  140.9249  134.1395  157.4283 H   0  0  0  0  0  0  0  0  0  0  0  0  # atno 11005 bound_to 11000
  145.0109  139.3511  143.6120 LP  0  0  0  0  0  0  0  0  0  0  0  0  # atno 17320 bound_to 7965
  146.3448  139.9371  142.8746 LP  0  0  0  0  0  0  0  0  0  0  0  0  # atno 17321 bound_to 7965
  140.2076  144.4595  150.6401 LP  0  0  0  0  0  0  0  0  0  0  0  0  # atno 17342 bound_to 10162
  140.6501  143.2223  151.6096 LP  0  0  0  0  0  0  0  0  0  0  0  0  # atno 17343 bound_to 10162
  157.5119  130.7944  149.7714 LP  0  0  0  0  0  0  0  0  0  0  0  0  # atno 17370 bound_to 10713
  156.0044  130.3863  150.2485 LP  0  0  0  0  0  0  0  0  0  0  0  0  # atno 17371 bound_to 10713
  139.8783  134.9985  156.5902 LP  0  0  0  0  0  0  0  0  0  0  0  0  # atno 17394 bound_to 11000
  140.7939  133.8560  155.8669 LP  0  0  0  0  0  0  0  0  0  0  0  0  # atno 17395 bound_to 11000

$$$$
