AV-unprocessed.smi:1713|AV-procd|sdf|6905|dock3
  -GOLD-   22720 8113D 1   1.00000     0.00000
 Structure written by MMmdl.
 38 39  0  0  0  0  0  0  0  0  1 V2000
  152.7688  130.8561  155.7658 C   0  0  0  0  0  0  0  0  0  0  0  0
  152.0383  131.7975  156.7303 C   0  0  0  0  0  0  0  0  0  0  0  0
  151.2891  132.8143  156.0189 N   0  0  0  0  0  0  0  0  0  0  0  0
  150.2943  132.6390  155.0778 C   0  0  0  0  0  0  0  0  0  0  0  0
  149.9151  133.8918  154.7001 C   0  0  0  0  0  0  0  0  0  0  0  0
  148.9135  134.1784  153.7393 N   0  0  0  0  0  0  0  0  0  0  0  0
  147.7994  133.4714  153.4911 C   0  0  0  0  0  0  0  0  0  0  0  0
  147.4776  132.4321  154.0667 O   0  0  0  0  0  0  0  0  0  0  0  0
  147.0680  134.0408  152.5222 N   0  0  0  0  0  0  0  0  0  0  0  0
  145.7991  133.5299  152.0116 C   0  0  2  0  0  0  0  0  0  0  0  0
  145.9944  132.1497  151.3495 C   0  0  0  0  0  0  0  0  0  0  0  0
  144.6845  131.6298  150.7353 C   0  0  0  0  0  0  0  0  0  0  0  0
  144.0993  132.6429  149.7367 C   0  0  1  0  0  0  0  0  0  0  0  0
  142.8650  132.1641  149.2463 O   0  0  0  0  0  0  0  0  0  0  0  0
  143.8923  134.0157  150.3992 C   0  0  0  0  0  0  0  0  0  0  0  0
  145.2025  134.5378  151.0106 C   0  0  0  0  0  0  0  0  0  0  0  0
  150.7247  134.7872  155.4550 C   0  0  0  0  0  0  0  0  0  0  0  0
  151.5535  134.1243  156.2479 N   0  0  0  0  0  0  0  0  0  0  0  0
  153.3243  130.0946  156.3131 H   0  0  0  0  0  0  0  0  0  0  0  0
  153.4776  131.4021  155.1426 H   0  0  0  0  0  0  0  0  0  0  0  0
  152.0659  130.3459  155.1063 H   0  0  0  0  0  0  0  0  0  0  0  0
  151.3484  131.2329  157.3586 H   0  0  0  0  0  0  0  0  0  0  0  0
  152.7504  132.2835  157.3988 H   0  0  0  0  0  0  0  0  0  0  0  0
  149.9553  131.6622  154.7662 H   0  0  0  0  0  0  0  0  0  0  0  0
  149.0575  135.0114  153.1875 H   0  0  0  0  0  0  0  0  0  0  0  0
  147.4125  134.8941  152.1070 H   0  0  0  0  0  0  0  0  0  0  0  0
  145.0991  133.4259  152.8431 H   0  0  0  0  0  0  0  0  0  0  0  0
  146.7562  132.2174  150.5717 H   0  0  0  0  0  0  0  0  0  0  0  0
  146.3637  131.4294  152.0805 H   0  0  0  0  0  0  0  0  0  0  0  0
  144.8635  130.6747  150.2397 H   0  0  0  0  0  0  0  0  0  0  0  0
  143.9648  131.4356  151.5319 H   0  0  0  0  0  0  0  0  0  0  0  0
  144.7781  132.7485  148.8894 H   0  0  0  0  0  0  0  0  0  0  0  0
  142.2769  132.8969  149.1453 H   0  0  0  0  0  0  0  0  0  0  0  0
  143.5154  134.7320  149.6680 H   0  0  0  0  0  0  0  0  0  0  0  0
  143.1342  133.9411  151.1801 H   0  0  0  0  0  0  0  0  0  0  0  0
  145.0205  135.4927  151.5053 H   0  0  0  0  0  0  0  0  0  0  0  0
  145.9189  134.7351  150.2118 H   0  0  0  0  0  0  0  0  0  0  0  0
  150.7485  135.8665  155.4601 H   0  0  0  0  0  0  0  0  0  0  0  0
  1  2  1  0  0  0  0
  1 19  1  0  0  0  0
  1 20  1  0  0  0  0
  1 21  1  0  0  0  0
  2  3  1  0  0  0  0
  2 22  1  0  0  0  0
  2 23  1  0  0  0  0
  3 18  1  0  0  0  0
  3  4  1  0  0  0  0
  4  5  2  0  0  0  0
  4 24  1  0  0  0  0
  5  6  1  0  0  0  0
  5 17  1  0  0  0  0
  6  7  1  0  0  0  0
  6 25  1  0  0  0  0
  7  8  2  0  0  0  0
  7  9  1  0  0  0  0
  9 10  1  0  0  0  0
  9 26  1  0  0  0  0
 10 16  1  0  0  0  0
 10 11  1  0  0  0  0
 10 27  1  0  0  0  0
 11 12  1  0  0  0  0
 11 28  1  0  0  0  0
 11 29  1  0  0  0  0
 12 13  1  0  0  0  0
 12 30  1  0  0  0  0
 12 31  1  0  0  0  0
 13 14  1  0  0  0  0
 13 15  1  0  0  0  0
 13 32  1  0  0  0  0
 14 33  1  0  0  0  0
 15 16  1  0  0  0  0
 15 34  1  0  0  0  0
 15 35  1  0  0  0  0
 16 36  1  0  0  0  0
 16 37  1  0  0  0  0
 17 18  2  0  0  0  0
 17 38  1  0  0  0  0
M  END
> <s_m_source_file>
AV-unprocessed.smi

> <i_m_source_file_index>
1713

> <i_lp_mmshare_version>
43012

> <i_f3d_flags>
0

> <s_epik_input>
W0NIM11bQ0gyXW4xW2NIXWMoW2NIXW4xKVtOSF1DKD1PKVtOSF1bQ0BASF0yW0NIMl1bQ0gyXVtDQEBIXShbT0hdKVtDSDJdW0NIMl0y

> <s_epik_cmdline>
J2VwaWtfcHl0aG9uJywgJy1waCcsICc3LjAnLCAnLXRuJywgJzgnLCAnLW1hJywgJzIwMCcsICctbWV0YWxfYmluZGluZycsICctaW1hZScsICc8aW5maWxlLm1hZT4nLCAnLW9tYWUnLCAnPG91dGZpbGUubWFlPic=

> <r_lp_tautomer_probability>
1

> <r_epik_Ionization_Penalty>
0.000190859

> <r_epik_Ionization_Penalty_Charging>
0

> <r_epik_Ionization_Penalty_Neutral>
0.000190859

> <r_epik_State_Penalty>
-0

> <r_epik_Charging_Adjusted_Penalty>
0

> <i_epik_Tot_Q>
0

> <i_epik_Tot_abs_Q>
0

> <r_epik_Metal_State_Penalty>
-0

> <b_epik_Metal_Only>
0

> <s_lp_Force_Field>
OPLS_2005

> <r_lp_Energy>
11.7927

> <b_lp_Chiralities_Consistent>
1

> <s_lp_Variant>
AV-unprocessed.smi:1713-1

> <Gold.Version>
5.8.1

> <Gold.Id.Protein>
6NUR|6NUR_protein|mol2

> <Gold.PLP.Fitness>
44.9004

> <Gold.PLP.PLP>
-34.0571

> <Gold.PLP.part.hbond>
-5.0858

> <Gold.PLP.part.metal>
0.0000

> <Gold.PLP.part.buried>
-4.6491

> <Gold.PLP.part.nonpolar>
-25.0449

> <Gold.PLP.part.repulsive>
0.0546

> <Gold.PLP.ligand.clash>
0.0000

> <Gold.PLP.ligand.torsion>
0.2496

> <Gold.PLP.Chemscore.Hbond>
3.7795

> <Gold.PLP.Chemscore.CHOScore>
0.0000

> <Gold.PLP.Chemscore.Metal>
0.0000

> <Gold.Chemscore.Hbonds>
donor molecule, donor type, donor heavy atom, donor atom, acceptor molecule, acceptor atom, score
      L1  H     6    25       P1  7948  0.85
      L1  H     9    26       P1  7948  0.98
      L1  H    14    33       P1 10186  1.00
      P1  H 10785 10796       L1    14  0.80

> <Gold.PLP.Chemscore.Internal.Correction>
0.0041

> <Gold.Rescore>
     Score         DG    S(hbond)    S(metal)    S(lipo)     H(rot)  DE(clash)    DE(int)     intcor
     18.03     -18.54       2.79        0.00      68.72       1.69       0.07       0.44       ----

> <Gold.Chemscore.Fitness>
18.0270

> <Gold.Chemscore.DG>
-18.5373

> <Gold.Chemscore.ZeroCoef>
-5.4800

> <Gold.Chemscore.Hbond>
2.7938

> <Gold.Chemscore.Metal>
0.0000

> <Gold.Chemscore.Lipo>
68.7218

> <Gold.Chemscore.Internal_Hbond>
0.0000

> <Gold.Chemscore.DEClash>
0.0688

> <Gold.Chemscore.DEInternal>
0.4414

> <Gold.Chemscore.Rot>
1.6853

> <Gold.Chemscore.Internal.Correction>
   9.000000E+99

> <Gold.Chemscore.Hbonds>
donor molecule, donor type, donor heavy atom, donor atom, acceptor molecule, acceptor atom, score
      L1  H     6    25       P1  7948  0.15
      L1  H     9    26       P1  7948  0.82
      L1  H    14    33       P1 10186  0.95
      P1  H 10785 10796       L1    14  0.43

> <Gold.Chemscore.Hbond.Weighted>
-9.3312

> <Gold.Chemscore.Metal.Weighted>
-0.0000

> <Gold.Chemscore.Lipo.Weighted>
-8.0405

> <Gold.Chemscore.Internal_Hbond.Weighted>
0.0000

> <Gold.Chemscore.DEClash.Weighted>
0.0688

> <Gold.Chemscore.DEInternal.Weighted>
0.4414

> <Gold.Chemscore.Rot.Weighted>
4.3144

> <Gold.Chemscore.Internal.Correction.Weighted>
   9.000000E+99

> <Gold.Protein.RotatedTorsions>
[ 6907 6896 6895 6894 ] final  -23.69 input  -60.11 | X-H torsion
[ 7974 7965 7964 7962 ] final  -44.72 input  175.53 | X-H torsion
[ 8008 7997 7996 7995 ] final  114.19 input   59.86 | X-H torsion
[ 10167 10162 10161 10158 ] final  -93.88 input  -65.29 | X-H torsion
[ 10718 10713 10712 10709 ] final  109.97 input   66.30 | X-H torsion
[ 10763 10752 10751 10750 ] final  136.53 input  -60.55 | X-H torsion
[ 11005 11000 10999 10996 ] final -145.50 input  -57.11 | X-H torsion

> <Gold.Protein.ActiveResidues>
 VAL166  LYS551  ARG553  GLY616  TRP617  ASP618  TYR619  PRO620  LYS621  CYS622 
 ASP623  PHE694  ASN695  SER759  ASP760  ASP761  ALA762  ILE779  LEU786  VAL792 
 PHE793  MET794  SER795  GLU796  ALA797  LYS798  CYS799  TRP800  GLU811  SER814 

> <Gold.Protein.RotatedAtoms>
  151.2003  135.0440  159.8869 H   0  0  0  0  0  0  0  0  0  0  0  0  # atno 6907 bound_to 6896
  152.5433  134.0857  159.8265 H   0  0  0  0  0  0  0  0  0  0  0  0  # atno 6908 bound_to 6896
  151.0997  133.5205  159.2642 H   0  0  0  0  0  0  0  0  0  0  0  0  # atno 6909 bound_to 6896
  145.9892  140.7199  142.9325 H   0  0  0  0  0  0  0  0  0  0  0  0  # atno 7974 bound_to 7965
  156.2305  140.2964  156.0177 H   0  0  0  0  0  0  0  0  0  0  0  0  # atno 8008 bound_to 7997
  155.2237  140.0416  157.2969 H   0  0  0  0  0  0  0  0  0  0  0  0  # atno 8009 bound_to 7997
  154.5988  140.2421  155.7827 H   0  0  0  0  0  0  0  0  0  0  0  0  # atno 8010 bound_to 7997
  140.3201  143.3054  152.0055 H   0  0  0  0  0  0  0  0  0  0  0  0  # atno 10167 bound_to 10162
  157.6516  131.0924  150.6533 H   0  0  0  0  0  0  0  0  0  0  0  0  # atno 10718 bound_to 10713
  153.8581  135.3071  155.3436 H   0  0  0  0  0  0  0  0  0  0  0  0  # atno 10763 bound_to 10752
  154.7861  135.4809  153.9952 H   0  0  0  0  0  0  0  0  0  0  0  0  # atno 10764 bound_to 10752
  153.1478  135.6837  153.9022 H   0  0  0  0  0  0  0  0  0  0  0  0  # atno 10765 bound_to 10752
  140.7916  134.2961  157.5011 H   0  0  0  0  0  0  0  0  0  0  0  0  # atno 11005 bound_to 11000
  144.6884  140.3041  143.7258 LP  0  0  0  0  0  0  0  0  0  0  0  0  # atno 17320 bound_to 7965
  145.7655  139.1839  143.2242 LP  0  0  0  0  0  0  0  0  0  0  0  0  # atno 17321 bound_to 7965
  139.4876  144.6317  151.7056 LP  0  0  0  0  0  0  0  0  0  0  0  0  # atno 17342 bound_to 10162
  140.5491  144.0455  150.6119 LP  0  0  0  0  0  0  0  0  0  0  0  0  # atno 17343 bound_to 10162
  156.6844  130.4576  149.5618 LP  0  0  0  0  0  0  0  0  0  0  0  0  # atno 17370 bound_to 10713
  156.1906  130.6557  151.1057 LP  0  0  0  0  0  0  0  0  0  0  0  0  # atno 17371 bound_to 10713
  139.8730  134.9378  156.3697 LP  0  0  0  0  0  0  0  0  0  0  0  0  # atno 17394 bound_to 11000
  140.9384  133.7531  156.0114 LP  0  0  0  0  0  0  0  0  0  0  0  0  # atno 17395 bound_to 11000

$$$$
