AV-unprocessed.smi:703|AV-procd|sdf|3434|dock6
  -GOLD-   22720 0423D 1   1.00000     0.00000
 Structure written by MMmdl.
 37 38  0  0  0  0  0  0  0  0  3 V2000
  150.2403  138.8291  154.2032 C   0  0  0  0  0  0  0  0  0  0  0  0
  150.8932  137.4832  154.5457 C   0  0  0  0  0  0  0  0  0  0  0  0
  149.9019  136.3828  154.6300 N   0  3  1  0  0  0  0  0  0  0  0  0
  150.4829  135.0384  154.8609 C   0  0  0  0  0  0  0  0  0  0  0  0
  149.4442  134.2827  155.6958 C   0  0  1  0  0  0  0  0  0  0  0  0
  149.9766  133.0170  156.4006 C   0  0  0  0  0  0  0  0  0  0  0  0
  148.8280  135.3853  156.5766 C   0  0  1  0  0  0  0  0  0  0  0  0
  149.6709  135.6698  157.7325 N   0  5  0  0  0  0  0  0  0  0  0  0
  149.2634  136.8730  158.7383 S   0  0  0  0  0  0  0  0  0  0  0  0
  150.0318  136.8381  159.9931 O   0  0  0  0  0  0  0  0  0  0  0  0
  149.1618  138.1712  158.0520 O   0  0  0  0  0  0  0  0  0  0  0  0
  147.5399  136.3830  159.1717 C   0  0  0  0  0  0  0  0  0  0  0  0
  147.4245  136.1499  160.6520 C   0  0  0  0  0  0  0  0  0  0  0  0
  147.2134  134.9240  161.3424 C   0  0  0  0  0  0  0  0  0  0  0  0
  147.1975  135.2955  162.6556 C   0  0  0  0  0  0  0  0  0  0  0  0
  147.3918  136.6331  162.7734 O   0  0  0  0  0  0  0  0  0  0  0  0
  147.5395  137.1694  161.4892 N   0  0  0  0  0  0  0  0  0  0  0  0
  148.8332  136.6033  155.6388 C   0  0  0  0  0  0  0  0  0  0  0  0
  150.9808  139.6291  154.2129 H   0  0  0  0  0  0  0  0  0  0  0  0
  149.4647  139.0866  154.9249 H   0  0  0  0  0  0  0  0  0  0  0  0
  149.7869  138.8163  153.2118 H   0  0  0  0  0  0  0  0  0  0  0  0
  151.6624  137.2343  153.8129 H   0  0  0  0  0  0  0  0  0  0  0  0
  151.3954  137.5744  155.5096 H   0  0  0  0  0  0  0  0  0  0  0  0
  150.6921  134.5364  153.9156 H   0  0  0  0  0  0  0  0  0  0  0  0
  151.4295  135.1178  155.4024 H   0  0  0  0  0  0  0  0  0  0  0  0
  148.6594  133.9564  155.0110 H   0  0  0  0  0  0  0  0  0  0  0  0
  150.8136  133.2312  157.0675 H   0  0  0  0  0  0  0  0  0  0  0  0
  150.3317  132.2944  155.6657 H   0  0  0  0  0  0  0  0  0  0  0  0
  149.2002  132.5239  156.9881 H   0  0  0  0  0  0  0  0  0  0  0  0
  147.8069  135.1261  156.8588 H   0  0  0  0  0  0  0  0  0  0  0  0
  146.8671  137.1766  158.8479 H   0  0  0  0  0  0  0  0  0  0  0  0
  147.2902  135.4841  158.6074 H   0  0  0  0  0  0  0  0  0  0  0  0
  147.0861  133.9318  160.9355 H   0  0  0  0  0  0  0  0  0  0  0  0
  147.0671  134.7512  163.5791 H   0  0  0  0  0  0  0  0  0  0  0  0
  148.9415  137.5475  156.1764 H   0  0  0  0  0  0  0  0  0  0  0  0
  147.8848  136.6566  155.1031 H   0  0  0  0  0  0  0  0  0  0  0  0
  149.4287  136.3443  153.7388 H   0  0  0  0  0  0  0  0  0  0  0  0
  1  2  1  0  0  0  0
  1 19  1  0  0  0  0
  1 20  1  0  0  0  0
  1 21  1  0  0  0  0
  2  3  1  0  0  0  0
  2 22  1  0  0  0  0
  2 23  1  0  0  0  0
  3 18  1  0  0  0  0
  3  4  1  0  0  0  0
  3 37  1  0  0  0  0
  4  5  1  0  0  0  0
  4 24  1  0  0  0  0
  4 25  1  0  0  0  0
  5  6  1  0  0  0  0
  5  7  1  0  0  0  0
  5 26  1  0  0  0  0
  6 27  1  0  0  0  0
  6 28  1  0  0  0  0
  6 29  1  0  0  0  0
  7  8  1  0  0  0  0
  7 18  1  0  0  0  0
  7 30  1  0  0  0  0
  8  9  1  0  0  0  0
  9 10  2  0  0  0  0
  9 11  2  0  0  0  0
  9 12  1  0  0  0  0
 12 13  1  0  0  0  0
 12 31  1  0  0  0  0
 12 32  1  0  0  0  0
 13 17  2  0  0  0  0
 13 14  1  0  0  0  0
 14 15  2  0  0  0  0
 14 33  1  0  0  0  0
 15 16  1  0  0  0  0
 15 34  1  0  0  0  0
 16 17  1  0  0  0  0
 18 35  1  0  0  0  0
 18 36  1  0  0  0  0
M  CHG  1   3   1
M  CHG  1   8  -1
M  END
> <s_m_source_file>
AV-unprocessed.smi

> <i_m_source_file_index>
703

> <i_lp_mmshare_version>
43012

> <i_f3d_flags>
0

> <s_epik_input>
W0NIM11bQ0gyXU4xW0NIMl1bQ0BASF0oW0NIM10pW0NASF0oW0NIMl0xKVtOSF1TKD1PKSg9TylbQ0gyXWMyW2NIXVtjSF1vbjI=

> <s_epik_cmdline>
J2VwaWtfcHl0aG9uJywgJy1waCcsICc3LjAnLCAnLXRuJywgJzgnLCAnLW1hJywgJzIwMCcsICctbWV0YWxfYmluZGluZycsICctaW1hZScsICc8aW5maWxlLm1hZT4nLCAnLW9tYWUnLCAnPG91dGZpbGUubWFlPic=

> <r_epik_Ionization_Penalty>
3.62494

> <r_epik_Ionization_Penalty_Charging>
3.62494

> <r_epik_Ionization_Penalty_Neutral>
2.0321e-10

> <r_epik_State_Penalty>
3.62558

> <r_epik_Charging_Adjusted_Penalty>
7.25052

> <i_epik_Tot_Q>
0

> <i_epik_Tot_abs_Q>
2

> <r_epik_Metal_State_Penalty>
0.530836

> <b_epik_Metal_Only>
1

> <s_lp_Force_Field>
OPLS_2005

> <r_lp_Energy>
18.2255

> <b_lp_Chiralities_Consistent>
1

> <s_lp_Variant>
AV-unprocessed.smi:703-9

> <Gold.Version>
5.8.1

> <Gold.Id.Protein>
6NUR|6NUR_protein|mol2

> <Gold.PLP.Fitness>
43.1016

> <Gold.PLP.PLP>
-29.5845

> <Gold.PLP.part.hbond>
-5.7080

> <Gold.PLP.part.metal>
0.0000

> <Gold.PLP.part.buried>
-4.7135

> <Gold.PLP.part.nonpolar>
-20.3620

> <Gold.PLP.part.repulsive>
0.0508

> <Gold.PLP.ligand.clash>
0.0000

> <Gold.PLP.ligand.torsion>
0.6295

> <Gold.PLP.Chemscore.Hbond>
4.5770

> <Gold.PLP.Chemscore.CHOScore>
0.0000

> <Gold.PLP.Chemscore.Metal>
0.0000

> <Gold.Chemscore.Hbonds>
donor molecule, donor type, donor heavy atom, donor atom, acceptor molecule, acceptor atom, score
      L1  H     3    37       P1  7948  2.00
      P1  H  6896  6908       L1    10  0.91
      P1  H  6931  6943       L1    17  0.77
      P1  H  6934  6947       L1    17  0.85

> <Gold.PLP.Chemscore.Internal.Correction>
1.0450

> <Gold.Rescore>
     Score         DG    S(hbond)    S(metal)    S(lipo)     H(rot)  DE(clash)    DE(int)     intcor
     15.97     -17.72       2.83        0.00      59.61       1.63       0.02       1.72       ----

> <Gold.Chemscore.Fitness>
15.9685

> <Gold.Chemscore.DG>
-17.7169

> <Gold.Chemscore.ZeroCoef>
-5.4800

> <Gold.Chemscore.Hbond>
2.8278

> <Gold.Chemscore.Metal>
0.0000

> <Gold.Chemscore.Lipo>
59.6121

> <Gold.Chemscore.Internal_Hbond>
0.0000

> <Gold.Chemscore.DEClash>
0.0243

> <Gold.Chemscore.DEInternal>
1.7240

> <Gold.Chemscore.Rot>
1.6338

> <Gold.Chemscore.Internal.Correction>
   9.000000E+99

> <Gold.Chemscore.Hbonds>
donor molecule, donor type, donor heavy atom, donor atom, acceptor molecule, acceptor atom, score
      L1  H     3    37       P1  7948  0.78
      P1  H  6896  6908       L1    10  0.39
      P1  H  6931  6943       L1    17  0.11
      P1  H  6934  6947       L1    17  0.81

> <Gold.Chemscore.Hbond.Weighted>
-9.4448

> <Gold.Chemscore.Metal.Weighted>
-0.0000

> <Gold.Chemscore.Lipo.Weighted>
-6.9746

> <Gold.Chemscore.Internal_Hbond.Weighted>
0.0000

> <Gold.Chemscore.DEClash.Weighted>
0.0243

> <Gold.Chemscore.DEInternal.Weighted>
1.7240

> <Gold.Chemscore.Rot.Weighted>
4.1825

> <Gold.Chemscore.Internal.Correction.Weighted>
   9.000000E+99

> <Gold.Protein.RotatedTorsions>
[ 6907 6896 6895 6894 ] final -148.45 input  -60.11 | X-H torsion
[ 7974 7965 7964 7962 ] final   60.71 input  175.53 | X-H torsion
[ 8008 7997 7996 7995 ] final  -37.23 input   59.86 | X-H torsion
[ 10167 10162 10161 10158 ] final   98.55 input  -65.29 | X-H torsion
[ 10718 10713 10712 10709 ] final    3.40 input   66.30 | X-H torsion
[ 10763 10752 10751 10750 ] final  124.89 input  -60.55 | X-H torsion
[ 11005 11000 10999 10996 ] final  147.06 input  -57.11 | X-H torsion

> <Gold.Protein.ActiveResidues>
 VAL166  LYS551  ARG553  GLY616  TRP617  ASP618  TYR619  PRO620  LYS621  CYS622 
 ASP623  PHE694  ASN695  SER759  ASP760  ASP761  ALA762  ILE779  LEU786  VAL792 
 PHE793  MET794  SER795  GLU796  ALA797  LYS798  CYS799  TRP800  GLU811  SER814 

> <Gold.Protein.RotatedAtoms>
  151.1700  133.4790  159.2593 H   0  0  0  0  0  0  0  0  0  0  0  0  # atno 6907 bound_to 6896
  151.1365  135.0157  159.8616 H   0  0  0  0  0  0  0  0  0  0  0  0  # atno 6908 bound_to 6896
  152.5461  134.1598  159.8606 H   0  0  0  0  0  0  0  0  0  0  0  0  # atno 6909 bound_to 6896
  145.8930  139.3525  143.0638 H   0  0  0  0  0  0  0  0  0  0  0  0  # atno 7974 bound_to 7965
  154.4057  140.1609  156.2504 H   0  0  0  0  0  0  0  0  0  0  0  0  # atno 8008 bound_to 7997
  155.9124  140.3426  155.6086 H   0  0  0  0  0  0  0  0  0  0  0  0  # atno 8009 bound_to 7997
  155.7320  140.0781  157.2275 H   0  0  0  0  0  0  0  0  0  0  0  0  # atno 8010 bound_to 7997
  139.7699  144.6926  151.0171 H   0  0  0  0  0  0  0  0  0  0  0  0  # atno 10167 bound_to 10162
  156.8772  130.5641  149.5654 H   0  0  0  0  0  0  0  0  0  0  0  0  # atno 10718 bound_to 10713
  153.6686  135.3334  155.3147 H   0  0  0  0  0  0  0  0  0  0  0  0  # atno 10763 bound_to 10752
  154.8497  135.4381  154.1729 H   0  0  0  0  0  0  0  0  0  0  0  0  # atno 10764 bound_to 10752
  153.2714  135.7000  153.7552 H   0  0  0  0  0  0  0  0  0  0  0  0  # atno 10765 bound_to 10752
  140.0844  134.9078  157.1552 H   0  0  0  0  0  0  0  0  0  0  0  0  # atno 11005 bound_to 11000
  145.8885  140.9318  143.0564 LP  0  0  0  0  0  0  0  0  0  0  0  0  # atno 17320 bound_to 7965
  144.6731  140.0874  143.7466 LP  0  0  0  0  0  0  0  0  0  0  0  0  # atno 17321 bound_to 7965
  140.7813  143.4601  151.0290 LP  0  0  0  0  0  0  0  0  0  0  0  0  # atno 17342 bound_to 10162
  139.8285  143.7724  152.3179 LP  0  0  0  0  0  0  0  0  0  0  0  0  # atno 17343 bound_to 10162
  156.0695  130.5731  150.9356 LP  0  0  0  0  0  0  0  0  0  0  0  0  # atno 17370 bound_to 10713
  157.6161  131.0933  150.8707 LP  0  0  0  0  0  0  0  0  0  0  0  0  # atno 17371 bound_to 10713
  140.3441  134.2671  155.7208 LP  0  0  0  0  0  0  0  0  0  0  0  0  # atno 17394 bound_to 11000
  141.2057  133.7851  157.0215 LP  0  0  0  0  0  0  0  0  0  0  0  0  # atno 17395 bound_to 11000

$$$$
