AV-unprocessed.smi:251|AV-procd|sdf|1935|dock3
  -GOLD-   2262021 53D 1   1.00000     0.00000
 Structure written by MMmdl.
 50 54  0  0  0  0  0  0  0  0  1 V2000
  154.7171  133.9957  158.2204 O   0  0  0  0  0  0  0  0  0  0  0  0
  155.2841  135.2617  158.4930 C   0  0  0  0  0  0  0  0  0  0  0  0
  155.9516  135.3186  159.8925 C   0  0  0  0  0  0  0  0  0  0  0  0
  156.7303  136.6608  160.0770 C   0  0  0  0  0  0  0  0  0  0  0  0
  155.9254  137.8671  159.9349 N   0  0  0  0  0  0  0  0  0  0  0  0
  155.2471  138.2723  158.8081 C   0  0  0  0  0  0  0  0  0  0  0  0
  154.5911  139.3926  158.9260 N   0  0  0  0  0  0  0  0  0  0  0  0
  154.8057  139.7841  160.2430 C   0  0  0  0  0  0  0  0  0  0  0  0
  154.3873  140.8923  161.0397 C   0  0  0  0  0  0  0  0  0  0  0  0
  153.6015  141.9088  160.5966 N   0  0  0  0  0  0  0  0  0  0  0  0
  152.7114  142.6358  161.5007 C   0  0  0  0  0  0  0  0  0  0  0  0
  151.8613  143.5077  160.6093 C   0  0  1  0  0  0  0  0  0  0  0  0
  152.4747  144.4925  159.6342 C   0  0  0  0  0  0  0  0  0  0  0  0
  152.1058  143.0921  159.1916 C   0  0  2  0  0  0  0  0  0  0  0  0
  150.9907  142.8666  158.1792 C   0  0  0  0  0  0  0  0  0  0  0  0
  149.9701  143.6796  158.4494 F   0  0  0  0  0  0  0  0  0  0  0  0
  151.4296  143.1153  156.9451 F   0  0  0  0  0  0  0  0  0  0  0  0
  150.5532  141.6078  158.2220 F   0  0  0  0  0  0  0  0  0  0  0  0
  153.1429  141.9880  159.2128 C   0  0  0  0  0  0  0  0  0  0  0  0
  154.8231  140.9287  162.3271 N   0  0  0  0  0  0  0  0  0  0  0  0
  155.5970  139.9542  162.8116 C   0  0  0  0  0  0  0  0  0  0  0  0
  156.0557  138.8683  162.1896 N   0  0  0  0  0  0  0  0  0  0  0  0
  155.6382  138.8261  160.8927 C   0  0  0  0  0  0  0  0  0  0  0  0
  154.8353  135.1380  160.9527 C   0  0  0  0  0  0  0  0  0  0  0  0
  155.3948  134.8962  162.3655 C   0  0  0  0  0  0  0  0  0  0  0  0
  156.2316  133.7473  162.3579 O   0  0  0  0  0  0  0  0  0  0  0  0
  157.3637  133.8939  161.5099 C   0  0  0  0  0  0  0  0  0  0  0  0
  156.9136  134.1144  160.0530 C   0  0  0  0  0  0  0  0  0  0  0  0
  155.3371  133.3282  158.4711 H   0  0  0  0  0  0  0  0  0  0  0  0
  155.9995  135.5040  157.7071 H   0  0  0  0  0  0  0  0  0  0  0  0
  154.4872  136.0023  158.4165 H   0  0  0  0  0  0  0  0  0  0  0  0
  157.2013  136.7065  161.0578 H   0  0  0  0  0  0  0  0  0  0  0  0
  157.5541  136.7190  159.3650 H   0  0  0  0  0  0  0  0  0  0  0  0
  155.2606  137.7126  157.8846 H   0  0  0  0  0  0  0  0  0  0  0  0
  152.0746  141.9439  162.0533 H   0  0  0  0  0  0  0  0  0  0  0  0
  153.2713  143.2489  162.2075 H   0  0  0  0  0  0  0  0  0  0  0  0
  150.8417  143.6995  160.9369 H   0  0  0  0  0  0  0  0  0  0  0  0
  151.8516  145.3195  159.3007 H   0  0  0  0  0  0  0  0  0  0  0  0
  153.5317  144.7271  159.7447 H   0  0  0  0  0  0  0  0  0  0  0  0
  153.9608  142.2374  158.5367 H   0  0  0  0  0  0  0  0  0  0  0  0
  152.7024  141.0393  158.9049 H   0  0  0  0  0  0  0  0  0  0  0  0
  155.8928  140.0614  163.8446 H   0  0  0  0  0  0  0  0  0  0  0  0
  154.1500  135.9848  160.9561 H   0  0  0  0  0  0  0  0  0  0  0  0
  154.2226  134.2749  160.6888 H   0  0  0  0  0  0  0  0  0  0  0  0
  155.9449  135.7614  162.7361 H   0  0  0  0  0  0  0  0  0  0  0  0
  154.5756  134.7244  163.0638 H   0  0  0  0  0  0  0  0  0  0  0  0
  157.9954  134.7087  161.8640 H   0  0  0  0  0  0  0  0  0  0  0  0
  157.9644  132.9868  161.5769 H   0  0  0  0  0  0  0  0  0  0  0  0
  156.4171  133.2049  159.7118 H   0  0  0  0  0  0  0  0  0  0  0  0
  157.7899  134.2358  159.4152 H   0  0  0  0  0  0  0  0  0  0  0  0
  1  2  1  0  0  0  0
  1 29  1  0  0  0  0
  2  3  1  0  0  0  0
  2 30  1  0  0  0  0
  2 31  1  0  0  0  0
  3 28  1  0  0  0  0
  3  4  1  0  0  0  0
  3 24  1  0  0  0  0
  4  5  1  0  0  0  0
  4 32  1  0  0  0  0
  4 33  1  0  0  0  0
  5 23  1  0  0  0  0
  5  6  1  0  0  0  0
  6  7  2  0  0  0  0
  6 34  1  0  0  0  0
  7  8  1  0  0  0  0
  8 23  2  0  0  0  0
  8  9  1  0  0  0  0
  9 10  1  0  0  0  0
  9 20  2  0  0  0  0
 10 19  1  0  0  0  0
 10 11  1  0  0  0  0
 11 12  1  0  0  0  0
 11 35  1  0  0  0  0
 11 36  1  0  0  0  0
 12 14  1  0  0  0  0
 12 13  1  0  0  0  0
 12 37  1  0  0  0  0
 13 14  1  0  0  0  0
 13 38  1  0  0  0  0
 13 39  1  0  0  0  0
 14 15  1  0  0  0  0
 14 19  1  0  0  0  0
 15 16  1  0  0  0  0
 15 17  1  0  0  0  0
 15 18  1  0  0  0  0
 19 40  1  0  0  0  0
 19 41  1  0  0  0  0
 20 21  1  0  0  0  0
 21 22  2  0  0  0  0
 21 42  1  0  0  0  0
 22 23  1  0  0  0  0
 24 25  1  0  0  0  0
 24 43  1  0  0  0  0
 24 44  1  0  0  0  0
 25 26  1  0  0  0  0
 25 45  1  0  0  0  0
 25 46  1  0  0  0  0
 26 27  1  0  0  0  0
 27 28  1  0  0  0  0
 27 47  1  0  0  0  0
 27 48  1  0  0  0  0
 28 49  1  0  0  0  0
 28 50  1  0  0  0  0
M  END
> <s_m_source_file>
AV-unprocessed.smi

> <i_m_source_file_index>
251

> <i_lp_mmshare_version>
43012

> <i_f3d_flags>
0

> <s_epik_input>
W0NIMl0xW0NIMl1PW0NIMl1bQ0gyXUMxKFtDSDJdW09IXSlbQ0gyXW4oW2NIXW4yKWMoYzIzKW5bY0hdbmMzTihbQ0gyXTQpW0NIMl1bQ0BIXShbQ0gyXTUpW0NAQF00NUMoRikoRilG

> <s_epik_cmdline>
J2VwaWtfcHl0aG9uJywgJy1waCcsICc3LjAnLCAnLXRuJywgJzgnLCAnLW1hJywgJzIwMCcsICctbWV0YWxfYmluZGluZycsICctaW1hZScsICc8aW5maWxlLm1hZT4nLCAnLW9tYWUnLCAnPG91dGZpbGUubWFlPic=

> <r_lp_tautomer_probability>
1

> <r_epik_Ionization_Penalty>
0.00226625

> <r_epik_Ionization_Penalty_Charging>
0

> <r_epik_Ionization_Penalty_Neutral>
0.00226625

> <r_epik_State_Penalty>
0.00138204

> <r_epik_Charging_Adjusted_Penalty>
0.00138204

> <i_epik_Tot_Q>
0

> <i_epik_Tot_abs_Q>
0

> <r_epik_Metal_State_Penalty>
-0

> <b_epik_Metal_Only>
0

> <s_lp_Force_Field>
OPLS_2005

> <r_lp_Energy>
66.9276

> <b_lp_Chiralities_Consistent>
1

> <s_lp_Variant>
AV-unprocessed.smi:251-2

> <Gold.Version>
5.8.1

> <Gold.Id.Protein>
6NUR|6NUR_protein|mol2

> <Gold.PLP.Fitness>
48.5613

> <Gold.PLP.PLP>
-43.1501

> <Gold.PLP.part.hbond>
-3.0000

> <Gold.PLP.part.metal>
0.0000

> <Gold.PLP.part.buried>
-4.4797

> <Gold.PLP.part.nonpolar>
-35.9131

> <Gold.PLP.part.repulsive>
0.0000

> <Gold.PLP.ligand.clash>
0.0000

> <Gold.PLP.ligand.torsion>
1.1802

> <Gold.PLP.Chemscore.Hbond>
2.0000

> <Gold.PLP.Chemscore.CHOScore>
0.0000

> <Gold.PLP.Chemscore.Metal>
0.0000

> <Gold.Chemscore.Hbonds>
donor molecule, donor type, donor heavy atom, donor atom, acceptor molecule, acceptor atom, score
      P1  H  7997  8009       L1     7  0.90

> <Gold.PLP.Chemscore.Internal.Correction>
1.7717

> <Gold.Rescore>
     Score         DG    S(hbond)    S(metal)    S(lipo)     H(rot)  DE(clash)    DE(int)     intcor
      9.85     -13.28       1.14        0.00      82.99       2.23       0.98       2.45       ----

> <Gold.Chemscore.Fitness>
9.8497

> <Gold.Chemscore.DG>
-13.2782

> <Gold.Chemscore.ZeroCoef>
-5.4800

> <Gold.Chemscore.Hbond>
1.1401

> <Gold.Chemscore.Metal>
0.0000

> <Gold.Chemscore.Lipo>
82.9942

> <Gold.Chemscore.Internal_Hbond>
0.0000

> <Gold.Chemscore.DEClash>
0.9796

> <Gold.Chemscore.DEInternal>
2.4489

> <Gold.Chemscore.Rot>
2.2344

> <Gold.Chemscore.Internal.Correction>
   9.000000E+99

> <Gold.Chemscore.Hbonds>
donor molecule, donor type, donor heavy atom, donor atom, acceptor molecule, acceptor atom, score
      P1  H  7997  8009       L1     7  0.17

> <Gold.Chemscore.Hbond.Weighted>
-3.8079

> <Gold.Chemscore.Metal.Weighted>
-0.0000

> <Gold.Chemscore.Lipo.Weighted>
-9.7103

> <Gold.Chemscore.Internal_Hbond.Weighted>
0.0000

> <Gold.Chemscore.DEClash.Weighted>
0.9796

> <Gold.Chemscore.DEInternal.Weighted>
2.4489

> <Gold.Chemscore.Rot.Weighted>
5.7200

> <Gold.Chemscore.Internal.Correction.Weighted>
   9.000000E+99

> <Gold.Protein.RotatedTorsions>
[ 6907 6896 6895 6894 ] final  109.95 input  -60.11 | X-H torsion
[ 7974 7965 7964 7962 ] final  -67.69 input  175.53 | X-H torsion
[ 8008 7997 7996 7995 ] final  139.52 input   59.86 | X-H torsion
[ 10167 10162 10161 10158 ] final   51.77 input  -65.29 | X-H torsion
[ 10718 10713 10712 10709 ] final  -29.45 input   66.30 | X-H torsion
[ 10763 10752 10751 10750 ] final -128.39 input  -60.55 | X-H torsion
[ 11005 11000 10999 10996 ] final   87.20 input  -57.11 | X-H torsion

> <Gold.Protein.ActiveResidues>
 VAL166  LYS551  ARG553  GLY616  TRP617  ASP618  TYR619  PRO620  LYS621  CYS622 
 ASP623  PHE694  ASN695  SER759  ASP760  ASP761  ALA762  ILE779  LEU786  VAL792 
 PHE793  MET794  SER795  GLU796  ALA797  LYS798  CYS799  TRP800  GLU811  SER814 

> <Gold.Protein.RotatedAtoms>
  152.5043  133.8870  159.7374 H   0  0  0  0  0  0  0  0  0  0  0  0  # atno 6907 bound_to 6896
  150.9318  133.6749  159.2816 H   0  0  0  0  0  0  0  0  0  0  0  0  # atno 6908 bound_to 6896
  151.4090  135.0987  159.9632 H   0  0  0  0  0  0  0  0  0  0  0  0  # atno 6909 bound_to 6896
  145.7260  140.9018  143.0605 H   0  0  0  0  0  0  0  0  0  0  0  0  # atno 7974 bound_to 7965
  156.2989  140.2365  156.4251 H   0  0  0  0  0  0  0  0  0  0  0  0  # atno 8008 bound_to 7997
  154.8321  140.0432  157.1504 H   0  0  0  0  0  0  0  0  0  0  0  0  # atno 8009 bound_to 7997
  154.9197  140.3002  155.5226 H   0  0  0  0  0  0  0  0  0  0  0  0  # atno 8010 bound_to 7997
  140.2584  144.3400  150.6325 H   0  0  0  0  0  0  0  0  0  0  0  0  # atno 10167 bound_to 10162
  156.4123  130.4410  149.7243 H   0  0  0  0  0  0  0  0  0  0  0  0  # atno 10718 bound_to 10713
  154.8756  135.3930  154.3748 H   0  0  0  0  0  0  0  0  0  0  0  0  # atno 10763 bound_to 10752
  153.4503  135.7028  153.6118 H   0  0  0  0  0  0  0  0  0  0  0  0  # atno 10764 bound_to 10752
  153.4660  135.3801  155.2334 H   0  0  0  0  0  0  0  0  0  0  0  0  # atno 10765 bound_to 10752
  139.8925  134.8406  156.2827 H   0  0  0  0  0  0  0  0  0  0  0  0  # atno 11005 bound_to 11000
  144.6905  139.9266  143.7470 LP  0  0  0  0  0  0  0  0  0  0  0  0  # atno 17320 bound_to 7965
  146.0582  139.3577  143.0597 LP  0  0  0  0  0  0  0  0  0  0  0  0  # atno 17321 bound_to 7965
  140.5985  143.2167  151.7118 LP  0  0  0  0  0  0  0  0  0  0  0  0  # atno 17342 bound_to 10162
  139.5024  144.3830  152.0357 LP  0  0  0  0  0  0  0  0  0  0  0  0  # atno 17343 bound_to 10162
  156.4217  130.7772  151.2789 LP  0  0  0  0  0  0  0  0  0  0  0  0  # atno 17370 bound_to 10713
  157.7507  131.0181  150.3611 LP  0  0  0  0  0  0  0  0  0  0  0  0  # atno 17371 bound_to 10713
  141.0028  133.7141  156.0988 LP  0  0  0  0  0  0  0  0  0  0  0  0  # atno 17394 bound_to 11000
  140.7474  134.4083  157.5546 LP  0  0  0  0  0  0  0  0  0  0  0  0  # atno 17395 bound_to 11000

$$$$
