AV-unprocessed.smi:538|AV-procd|sdf|2866|dock6
  -GOLD-   2262023353D 1   1.00000     0.00000
 Structure written by MMmdl.
 43 44  0  0  0  0  0  0  0  0  1 V2000
  146.4633  142.6863  154.0625 C   0  0  0  0  0  0  0  0  0  0  0  0
  146.8849  141.3387  153.9496 O   0  0  0  0  0  0  0  0  0  0  0  0
  148.2913  141.2209  153.8088 C   0  0  0  0  0  0  0  0  0  0  0  0
  148.9762  141.9097  154.9960 C   0  0  0  0  0  0  0  0  0  0  0  0
  150.0638  141.1128  155.5334 N   0  0  0  0  0  0  0  0  0  0  0  0
  150.8355  141.2428  156.6813 C   0  0  0  0  0  0  0  0  0  0  0  0
  150.6984  142.2215  157.5786 N   0  0  0  0  0  0  0  0  0  0  0  0
  151.6820  141.9212  158.5107 C   0  0  0  0  0  0  0  0  0  0  0  0
  152.3631  140.8057  158.1572 C   0  0  0  0  0  0  0  0  0  0  0  0
  153.4677  140.2629  158.9545 C   0  0  0  0  0  0  0  0  0  0  0  0
  154.0777  139.2508  158.6056 O   0  0  0  0  0  0  0  0  0  0  0  0
  153.7420  140.9784  160.0894 N   0  0  0  0  0  0  0  0  0  0  0  0
  154.8456  140.4610  160.9201 C   0  0  0  0  0  0  0  0  0  0  0  0
  153.0651  142.1155  160.4982 C   0  0  0  0  0  0  0  0  0  0  0  0
  153.3575  142.7001  161.5446 O   0  0  0  0  0  0  0  0  0  0  0  0
  152.0462  142.5882  159.7090 N   0  0  0  0  0  0  0  0  0  0  0  0
  151.3097  143.7914  160.1067 C   0  0  0  0  0  0  0  0  0  0  0  0
  151.8117  140.3441  156.9613 N   0  0  0  0  0  0  0  0  0  0  0  0
  152.1975  139.1691  156.1849 C   0  0  0  0  0  0  0  0  0  0  0  0
  152.0305  137.8689  156.9835 C   0  0  0  0  0  0  0  0  0  0  0  0
  152.0337  136.7614  156.0976 O   0  0  0  0  0  0  0  0  0  0  0  0
  150.9361  136.7776  155.2028 C   0  0  0  0  0  0  0  0  0  0  0  0
  145.3787  142.7236  154.1637 H   0  0  0  0  0  0  0  0  0  0  0  0
  146.7394  143.2623  153.1784 H   0  0  0  0  0  0  0  0  0  0  0  0
  146.8994  143.1627  154.9416 H   0  0  0  0  0  0  0  0  0  0  0  0
  148.5638  140.1647  153.7954 H   0  0  0  0  0  0  0  0  0  0  0  0
  148.6259  141.6540  152.8647 H   0  0  0  0  0  0  0  0  0  0  0  0
  149.3557  142.8886  154.7026 H   0  0  0  0  0  0  0  0  0  0  0  0
  148.2516  142.0764  155.7934 H   0  0  0  0  0  0  0  0  0  0  0  0
  150.2839  140.3030  154.9717 H   0  0  0  0  0  0  0  0  0  0  0  0
  155.1124  141.0846  161.7735 H   0  0  0  0  0  0  0  0  0  0  0  0
  155.7561  140.3541  160.3278 H   0  0  0  0  0  0  0  0  0  0  0  0
  154.5884  139.4778  161.3174 H   0  0  0  0  0  0  0  0  0  0  0  0
  151.9890  144.6368  160.2249 H   0  0  0  0  0  0  0  0  0  0  0  0
  150.7987  143.6288  161.0568 H   0  0  0  0  0  0  0  0  0  0  0  0
  150.5544  144.0853  159.3775 H   0  0  0  0  0  0  0  0  0  0  0  0
  151.6047  139.1358  155.2715 H   0  0  0  0  0  0  0  0  0  0  0  0
  153.2316  139.2744  155.8565 H   0  0  0  0  0  0  0  0  0  0  0  0
  152.8380  137.7685  157.7103 H   0  0  0  0  0  0  0  0  0  0  0  0
  151.0931  137.8969  157.5408 H   0  0  0  0  0  0  0  0  0  0  0  0
  150.9921  135.9144  154.5397 H   0  0  0  0  0  0  0  0  0  0  0  0
  150.9422  137.6773  154.5860 H   0  0  0  0  0  0  0  0  0  0  0  0
  149.9888  136.7277  155.7411 H   0  0  0  0  0  0  0  0  0  0  0  0
  1  2  1  0  0  0  0
  1 23  1  0  0  0  0
  1 24  1  0  0  0  0
  1 25  1  0  0  0  0
  2  3  1  0  0  0  0
  3  4  1  0  0  0  0
  3 26  1  0  0  0  0
  3 27  1  0  0  0  0
  4  5  1  0  0  0  0
  4 28  1  0  0  0  0
  4 29  1  0  0  0  0
  5  6  1  0  0  0  0
  5 30  1  0  0  0  0
  6 18  1  0  0  0  0
  6  7  2  0  0  0  0
  7  8  1  0  0  0  0
  8 16  1  0  0  0  0
  8  9  2  0  0  0  0
  9 10  1  0  0  0  0
  9 18  1  0  0  0  0
 10 11  2  0  0  0  0
 10 12  1  0  0  0  0
 12 13  1  0  0  0  0
 12 14  1  0  0  0  0
 13 31  1  0  0  0  0
 13 32  1  0  0  0  0
 13 33  1  0  0  0  0
 14 15  2  0  0  0  0
 14 16  1  0  0  0  0
 16 17  1  0  0  0  0
 17 34  1  0  0  0  0
 17 35  1  0  0  0  0
 17 36  1  0  0  0  0
 18 19  1  0  0  0  0
 19 20  1  0  0  0  0
 19 37  1  0  0  0  0
 19 38  1  0  0  0  0
 20 21  1  0  0  0  0
 20 39  1  0  0  0  0
 20 40  1  0  0  0  0
 21 22  1  0  0  0  0
 22 41  1  0  0  0  0
 22 42  1  0  0  0  0
 22 43  1  0  0  0  0
M  END
> <s_m_source_file>
AV-unprocessed.smi

> <i_m_source_file_index>
538

> <i_lp_mmshare_version>
43012

> <i_f3d_flags>
0

> <s_epik_input>
W0NIM11PW0NIMl1bQ0gyXVtOSF1jKG4xKW4oW0NIMl1bQ0gyXU9bQ0gzXSljKGMxMiljKD1PKW4oW0NIM10pYyg9TyluMltDSDNd

> <s_epik_cmdline>
J2VwaWtfcHl0aG9uJywgJy1waCcsICc3LjAnLCAnLXRuJywgJzgnLCAnLW1hJywgJzIwMCcsICctbWV0YWxfYmluZGluZycsICctaW1hZScsICc8aW5maWxlLm1hZT4nLCAnLW9tYWUnLCAnPG91dGZpbGUubWFlPic=

> <r_lp_tautomer_probability>
1

> <r_epik_Ionization_Penalty>
5.57243e-05

> <r_epik_Ionization_Penalty_Charging>
2.44156e-09

> <r_epik_Ionization_Penalty_Neutral>
5.57218e-05

> <r_epik_State_Penalty>
-0

> <r_epik_Charging_Adjusted_Penalty>
2.44156e-09

> <i_epik_Tot_Q>
0

> <i_epik_Tot_abs_Q>
0

> <r_epik_Metal_State_Penalty>
-0

> <b_epik_Metal_Only>
0

> <s_lp_Force_Field>
OPLS_2005

> <r_lp_Energy>
28.2468

> <b_lp_Chiralities_Consistent>
1

> <s_lp_Variant>
AV-unprocessed.smi:538-1

> <Gold.Version>
5.8.1

> <Gold.Id.Protein>
6NUR|6NUR_protein|mol2

> <Gold.PLP.Fitness>
43.4865

> <Gold.PLP.PLP>
-38.7767

> <Gold.PLP.part.hbond>
-2.0000

> <Gold.PLP.part.metal>
0.0000

> <Gold.PLP.part.buried>
-0.5403

> <Gold.PLP.part.nonpolar>
-35.2047

> <Gold.PLP.part.repulsive>
0.4330

> <Gold.PLP.ligand.clash>
0.0000

> <Gold.PLP.ligand.torsion>
0.4337

> <Gold.PLP.Chemscore.Hbond>
1.8480

> <Gold.PLP.Chemscore.CHOScore>
0.0000

> <Gold.PLP.Chemscore.Metal>
0.0000

> <Gold.Chemscore.Hbonds>
donor molecule, donor type, donor heavy atom, donor atom, acceptor molecule, acceptor atom, score
      P1  H  7997  8009       L1    11  0.85
      P1  H 10752 10763       L1    21  1.00

> <Gold.PLP.Chemscore.Internal.Correction>
0.0333

> <Gold.Rescore>
     Score         DG    S(hbond)    S(metal)    S(lipo)     H(rot)  DE(clash)    DE(int)     intcor
      8.35     -10.07       0.95        0.00      61.98       2.28       0.08       1.64       ----

> <Gold.Chemscore.Fitness>
8.3509

> <Gold.Chemscore.DG>
-10.0730

> <Gold.Chemscore.ZeroCoef>
-5.4800

> <Gold.Chemscore.Hbond>
0.9512

> <Gold.Chemscore.Metal>
0.0000

> <Gold.Chemscore.Lipo>
61.9840

> <Gold.Chemscore.Internal_Hbond>
0.0000

> <Gold.Chemscore.DEClash>
0.0836

> <Gold.Chemscore.DEInternal>
1.6385

> <Gold.Chemscore.Rot>
2.2797

> <Gold.Chemscore.Internal.Correction>
   9.000000E+99

> <Gold.Chemscore.Hbonds>
donor molecule, donor type, donor heavy atom, donor atom, acceptor molecule, acceptor atom, score
      P1  H  7997  8009       L1    11  0.21
      P1  H 10752 10763       L1    21  0.23

> <Gold.Chemscore.Hbond.Weighted>
-3.1770

> <Gold.Chemscore.Metal.Weighted>
-0.0000

> <Gold.Chemscore.Lipo.Weighted>
-7.2521

> <Gold.Chemscore.Internal_Hbond.Weighted>
0.0000

> <Gold.Chemscore.DEClash.Weighted>
0.0836

> <Gold.Chemscore.DEInternal.Weighted>
1.6385

> <Gold.Chemscore.Rot.Weighted>
5.8361

> <Gold.Chemscore.Internal.Correction.Weighted>
   9.000000E+99

> <Gold.Protein.RotatedTorsions>
[ 6907 6896 6895 6894 ] final   67.11 input  -60.11 | X-H torsion
[ 7974 7965 7964 7962 ] final  139.40 input  175.53 | X-H torsion
[ 8008 7997 7996 7995 ] final  109.15 input   59.86 | X-H torsion
[ 10167 10162 10161 10158 ] final  -41.00 input  -65.29 | X-H torsion
[ 10718 10713 10712 10709 ] final -110.91 input   66.30 | X-H torsion
[ 10763 10752 10751 10750 ] final   98.47 input  -60.55 | X-H torsion
[ 11005 11000 10999 10996 ] final -156.90 input  -57.11 | X-H torsion

> <Gold.Protein.ActiveResidues>
 VAL166  LYS551  ARG553  GLY616  TRP617  ASP618  TYR619  PRO620  LYS621  CYS622 
 ASP623  PHE694  ASN695  SER759  ASP760  ASP761  ALA762  ILE779  LEU786  VAL792 
 PHE793  MET794  SER795  GLU796  ALA797  LYS798  CYS799  TRP800  GLU811  SER814 

> <Gold.Protein.RotatedAtoms>
  152.4529  134.5355  159.9823 H   0  0  0  0  0  0  0  0  0  0  0  0  # atno 6907 bound_to 6896
  151.5423  133.3425  159.2945 H   0  0  0  0  0  0  0  0  0  0  0  0  # atno 6908 bound_to 6896
  150.8463  134.7804  159.7036 H   0  0  0  0  0  0  0  0  0  0  0  0  # atno 6909 bound_to 6896
  144.9282  139.5081  143.5630 H   0  0  0  0  0  0  0  0  0  0  0  0  # atno 7974 bound_to 7965
  156.1958  140.3063  155.9423 H   0  0  0  0  0  0  0  0  0  0  0  0  # atno 8008 bound_to 7997
  155.3070  140.0449  157.3050 H   0  0  0  0  0  0  0  0  0  0  0  0  # atno 8009 bound_to 7997
  154.5507  140.2290  155.8498 H   0  0  0  0  0  0  0  0  0  0  0  0  # atno 8010 bound_to 7997
  140.7016  143.3120  151.3004 H   0  0  0  0  0  0  0  0  0  0  0  0  # atno 10167 bound_to 10162
  156.0617  130.5840  150.8302 H   0  0  0  0  0  0  0  0  0  0  0  0  # atno 10718 bound_to 10713
  153.2895  135.4147  155.1154 H   0  0  0  0  0  0  0  0  0  0  0  0  # atno 10763 bound_to 10752
  154.8516  135.3515  154.6001 H   0  0  0  0  0  0  0  0  0  0  0  0  # atno 10764 bound_to 10752
  153.6423  135.7056  153.5295 H   0  0  0  0  0  0  0  0  0  0  0  0  # atno 10765 bound_to 10752
  140.6705  134.4253  157.5232 H   0  0  0  0  0  0  0  0  0  0  0  0  # atno 11005 bound_to 11000
  146.3235  139.8212  142.8926 LP  0  0  0  0  0  0  0  0  0  0  0  0  # atno 17320 bound_to 7965
  145.3185  141.0238  143.3514 LP  0  0  0  0  0  0  0  0  0  0  0  0  # atno 17321 bound_to 7965
  139.6546  144.0300  152.2650 LP  0  0  0  0  0  0  0  0  0  0  0  0  # atno 17342 bound_to 10162
  139.9847  144.6403  150.7868 LP  0  0  0  0  0  0  0  0  0  0  0  0  # atno 17343 bound_to 10162
  157.5631  131.0946  150.9530 LP  0  0  0  0  0  0  0  0  0  0  0  0  # atno 17370 bound_to 10713
  156.9763  130.5510  149.5293 LP  0  0  0  0  0  0  0  0  0  0  0  0  # atno 17371 bound_to 10713
  139.8983  134.8616  156.2006 LP  0  0  0  0  0  0  0  0  0  0  0  0  # atno 17394 bound_to 11000
  141.0396  133.6945  156.1574 LP  0  0  0  0  0  0  0  0  0  0  0  0  # atno 17395 bound_to 11000

$$$$
