#       Name:                AV-unprocessed.smi:2441
#       Creating user name   scv26
#       Creation time:       Fri Mar 27 13:25:19 2020


#       File generated by GOLD software.
#

@<TRIPOS>MOLECULE
AV-unprocessed.smi:2441
    44    45     1
SMALL
NO_CHARGES


@<TRIPOS>ATOM
      1 ****        -2.5128  -0.3852  -2.4416 C.3            1 S1                 0.0000
      2 ****        -2.9752  -1.0766  -1.1474 C.3            1 S1                 0.0000
      3 ****        -2.5822  -2.5685  -1.1287 C.3            1 S1                 0.0000
      4 ****        -3.0886  -3.2720   0.1408 C.3            1 S1                 0.0000
      5 ****        -2.5970  -2.5614   1.4107 C.3            1 S1                 0.0000
      6 ****        -2.9839  -1.0723   1.4018 C.3            1 S1                 0.0000
      7 ****        -2.4911  -0.3486   0.1323 C.3            1 S1                 0.0000
      8 ****        -1.0319  -0.2259   0.1639 N.am           1 S1                 0.0000
      9 ****        -0.3294   0.9152   0.1131 C.2            1 S1                 0.0000
     10 ****        -0.8464   2.0282   0.0215 O.2            1 S1                 0.0000
     11 ****         0.9903   0.6632   0.1930 N.am           1 S1                 0.0000
     12 ****         2.0756   1.5566   0.1640 C.2            1 S1                 0.0000
     13 ****         2.0030   2.8458  -0.2530 C.2            1 S1                 0.0000
     14 ****         3.1725   3.6908  -0.2560 C.2            1 S1                 0.0000
     15 ****         4.3363   3.1675   0.1530 C.2            1 S1                 0.0000
     16 ****         4.4398   1.8330   0.5770 N.am           1 S1                 0.0000
     17 ****         5.7761   1.3998   0.9957 C.3            1 S1                 0.0000
     18 ****         3.3646   0.9878   0.6064 C.2            1 S1                 0.0000
     19 ****         3.4737  -0.1812   0.9839 O.2            1 S1                 0.0000
     20 ****        -1.4304  -0.4341  -2.5623 H              1 S1                 0.0000
     21 ****        -2.8016   0.6661  -2.4483 H              1 S1                 0.0000
     22 ****        -2.9624  -0.8542  -3.3170 H              1 S1                 0.0000
     23 ****        -4.0656  -1.0325  -1.1443 H              1 S1                 0.0000
     24 ****        -2.9898  -3.0705  -2.0069 H              1 S1                 0.0000
     25 ****        -1.4981  -2.6696  -1.1951 H              1 S1                 0.0000
     26 ****        -4.1792  -3.2932   0.1348 H              1 S1                 0.0000
     27 ****        -2.7589  -4.3113   0.1460 H              1 S1                 0.0000
     28 ****        -3.0168  -3.0467   2.2922 H              1 S1                 0.0000
     29 ****        -1.5141  -2.6627   1.4923 H              1 S1                 0.0000
     30 ****        -4.0698  -0.9880   1.4616 H              1 S1                 0.0000
     31 ****        -2.5935  -0.5791   2.2931 H              1 S1                 0.0000
     32 ****        -2.9379   0.6471   0.1364 H              1 S1                 0.0000
     33 ****        -0.5152  -1.0898   0.2383 H              1 S1                 0.0000
     34 ****         1.2511  -0.3026   0.3304 H              1 S1                 0.0000
     35 ****         1.0830   3.2800  -0.6084 H              1 S1                 0.0000
     36 ****         3.1109   4.7196  -0.5789 H              1 S1                 0.0000
     37 ****         5.2591   3.7294   0.1838 H              1 S1                 0.0000
     38 ****         5.8504   0.3377   1.2317 H              1 S1                 0.0000
     39 ****         6.0851   1.9537   1.8829 H              1 S1                 0.0000
     40 ****         6.5004   1.6026   0.2058 H              1 S1                 0.0000
     41 ****        -1.8418   2.1154  -0.0190 LP             1 S1                 0.0000
     42 ****        -0.2711   2.8455  -0.0123 LP             1 S1                 0.0000
     43 ****         2.6722  -0.7790   0.9976 LP             1 S1                 0.0000
     44 ****         4.3636  -0.5311   1.2764 LP             1 S1                 0.0000
@<TRIPOS>BOND
    1    1    2 1     
    2    1   20 1     
    3    1   21 1     
    4    1   22 1     
    5    2    7 1     
    6    2    3 1     
    7    2   23 1     
    8    3    4 1     
    9    3   24 1     
   10    3   25 1     
   11    4    5 1     
   12    4   26 1     
   13    4   27 1     
   14    5    6 1     
   15    5   28 1     
   16    5   29 1     
   17    6    7 1     
   18    6   30 1     
   19    6   31 1     
   20    7    8 1     
   21    7   32 1     
   22    8    9 am    
   23    8   33 1     
   24    9   10 2     
   25    9   11 am    
   26   11   12 1     
   27   11   34 1     
   28   12   18 1     
   29   12   13 2     
   30   13   14 1     
   31   13   35 1     
   32   14   15 2     
   33   14   36 1     
   34   15   16 1     
   35   15   37 1     
   36   16   17 1     
   37   16   18 am    
   38   17   38 1     
   39   17   39 1     
   40   17   40 1     
   41   18   19 2     
   42   10   41 1     
   43   10   42 1     
   44   19   43 1     
   45   19   44 1     
@<TRIPOS>SUBSTRUCTURE
      1 S1             1
@<TRIPOS>SET
LONE_PAIRS      STATIC     ATOMS    <user>   **** ""
4 41 42 43 44
DONOR_HYDROGENS      STATIC     ATOMS    <user>   **** ""
2 33 34
ATOM$BLUE        STATIC     ATOMS    COLORGROUP SYSTEM
4 41 42 43 44
ATOM$RED        STATIC     ATOMS    COLORGROUP SYSTEM
2 33 34
