AV-unprocessed.smi:3166|AV-procd|sdf|12093|dock9
  -GOLD-   2272017523D 1   1.00000     0.00000
 Structure written by MMmdl.
 41 42  0  0  0  0  0  0  0  0  2 V2000
  151.4767  140.4574  156.5351 C   0  0  0  0  0  0  0  0  0  0  0  0
  150.9479  141.8985  156.5525 C   0  0  2  0  0  0  0  0  0  0  0  0
  150.3829  142.2724  157.9452 C   0  0  0  0  0  0  0  0  0  0  0  0
  151.4322  142.5007  158.9219 N   0  0  0  0  0  0  0  0  0  0  0  0
  152.5201  141.7029  159.2083 C   0  0  0  0  0  0  0  0  0  0  0  0
  153.2332  142.3261  160.1919 C   0  0  0  0  0  0  0  0  0  0  0  0
  152.4934  143.5149  160.4444 C   0  0  0  0  0  0  0  0  0  0  0  0
  151.4161  143.6160  159.6827 N   0  0  0  0  0  0  0  0  0  0  0  0
  149.9314  142.0556  155.4883 N   0  3  0  0  0  0  0  0  0  0  0  0
  148.7733  141.1388  155.5733 C   0  0  0  0  0  0  0  0  0  0  0  0
  147.9410  141.1225  154.2686 C   0  0  0  0  0  0  0  0  0  0  0  0
  148.7965  140.6690  153.2366 O   0  0  0  0  0  0  0  0  0  0  0  0
  146.7129  140.1811  154.3325 C   0  0  0  0  0  0  0  0  0  0  0  0
  145.6143  140.7154  155.2683 C   0  0  0  0  0  0  0  0  0  0  0  0
  145.1789  142.1315  154.8607 C   0  0  0  0  0  0  0  0  0  0  0  0
  146.3769  143.0914  154.7946 C   0  0  0  0  0  0  0  0  0  0  0  0
  147.4836  142.5464  153.8727 C   0  0  0  0  0  0  0  0  0  0  0  0
  152.2637  140.3204  157.2776 H   0  0  0  0  0  0  0  0  0  0  0  0
  151.8990  140.2052  155.5618 H   0  0  0  0  0  0  0  0  0  0  0  0
  150.6848  139.7393  156.7517 H   0  0  0  0  0  0  0  0  0  0  0  0
  151.7905  142.5470  156.3055 H   0  0  0  0  0  0  0  0  0  0  0  0
  149.7464  143.1576  157.8978 H   0  0  0  0  0  0  0  0  0  0  0  0
  149.7452  141.4754  158.3303 H   0  0  0  0  0  0  0  0  0  0  0  0
  152.6950  140.7693  158.6938 H   0  0  0  0  0  0  0  0  0  0  0  0
  154.1448  141.9850  160.6600 H   0  0  0  0  0  0  0  0  0  0  0  0
  152.7057  144.3019  161.1530 H   0  0  0  0  0  0  0  0  0  0  0  0
  149.5649  142.9952  155.5462 H   0  0  0  0  0  0  0  0  0  0  0  0
  149.1335  140.1372  155.7962 H   0  0  0  0  0  0  0  0  0  0  0  0
  148.1455  141.4395  156.4134 H   0  0  0  0  0  0  0  0  0  0  0  0
  148.4944  139.8212  152.9461 H   0  0  0  0  0  0  0  0  0  0  0  0
  146.2882  140.0728  153.3331 H   0  0  0  0  0  0  0  0  0  0  0  0
  147.0041  139.1761  154.6391 H   0  0  0  0  0  0  0  0  0  0  0  0
  144.7540  140.0459  155.2455 H   0  0  0  0  0  0  0  0  0  0  0  0
  145.9678  140.7196  156.2996 H   0  0  0  0  0  0  0  0  0  0  0  0
  144.6894  142.0944  153.8867 H   0  0  0  0  0  0  0  0  0  0  0  0
  144.4363  142.5099  155.5640 H   0  0  0  0  0  0  0  0  0  0  0  0
  146.0465  144.0660  154.4343 H   0  0  0  0  0  0  0  0  0  0  0  0
  146.7707  143.2587  155.7974 H   0  0  0  0  0  0  0  0  0  0  0  0
  148.3321  143.2320  153.8697 H   0  0  0  0  0  0  0  0  0  0  0  0
  147.1028  142.5359  152.8501 H   0  0  0  0  0  0  0  0  0  0  0  0
  150.3766  141.9420  154.5891 H   0  0  0  0  0  0  0  0  0  0  0  0
  1  2  1  0  0  0  0
  1 18  1  0  0  0  0
  1 19  1  0  0  0  0
  1 20  1  0  0  0  0
  2  3  1  0  0  0  0
  2  9  1  0  0  0  0
  2 21  1  0  0  0  0
  3  4  1  0  0  0  0
  3 22  1  0  0  0  0
  3 23  1  0  0  0  0
  4  8  1  0  0  0  0
  4  5  1  0  0  0  0
  5  6  2  0  0  0  0
  5 24  1  0  0  0  0
  6  7  1  0  0  0  0
  6 25  1  0  0  0  0
  7  8  2  0  0  0  0
  7 26  1  0  0  0  0
  9 10  1  0  0  0  0
  9 27  1  0  0  0  0
  9 41  1  0  0  0  0
 10 11  1  0  0  0  0
 10 28  1  0  0  0  0
 10 29  1  0  0  0  0
 11 17  1  0  0  0  0
 11 12  1  0  0  0  0
 11 13  1  0  0  0  0
 12 30  1  0  0  0  0
 13 14  1  0  0  0  0
 13 31  1  0  0  0  0
 13 32  1  0  0  0  0
 14 15  1  0  0  0  0
 14 33  1  0  0  0  0
 14 34  1  0  0  0  0
 15 16  1  0  0  0  0
 15 35  1  0  0  0  0
 15 36  1  0  0  0  0
 16 17  1  0  0  0  0
 16 37  1  0  0  0  0
 16 38  1  0  0  0  0
 17 39  1  0  0  0  0
 17 40  1  0  0  0  0
M  CHG  1   9   1
M  END
> <s_m_source_file>
AV-unprocessed.smi

> <i_m_source_file_index>
3166

> <i_lp_mmshare_version>
43012

> <i_f3d_flags>
0

> <s_epik_input>
bjFbY0hdW2NIXVtjSF1uMVtDSDJdW0NAQEhdKFtDSDNdKVtOSF1bQ0gyXUMyKFtPSF0pW0NIMl1bQ0gyXVtDSDJdW0NIMl1bQ0gyXTI=

> <s_epik_cmdline>
J2VwaWtfcHl0aG9uJywgJy1waCcsICc3LjAnLCAnLXRuJywgJzgnLCAnLW1hJywgJzIwMCcsICctbWV0YWxfYmluZGluZycsICctaW1hZScsICc8aW5maWxlLm1hZT4nLCAnLW9tYWUnLCAnPG91dGZpbGUubWFlPic=

> <r_lp_tautomer_probability>
1

> <r_epik_Ionization_Penalty>
0.0111521

> <r_epik_Ionization_Penalty_Charging>
0.0111472

> <r_epik_Ionization_Penalty_Neutral>
4.96355e-06

> <r_epik_State_Penalty>
0.00856328

> <r_epik_Charging_Adjusted_Penalty>
0.0197104

> <i_epik_Tot_Q>
1

> <i_epik_Tot_abs_Q>
1

> <r_epik_Metal_State_Penalty>
0.00856387

> <b_epik_Metal_Only>
0

> <s_lp_Force_Field>
OPLS_2005

> <r_lp_Energy>
18.587

> <b_lp_Chiralities_Consistent>
1

> <s_lp_Variant>
AV-unprocessed.smi:3166-1

> <Gold.Version>
5.8.1

> <Gold.Id.Protein>
6NUR|6NUR_protein|mol2

> <Gold.PLP.Fitness>
43.4937

> <Gold.PLP.PLP>
-34.3597

> <Gold.PLP.part.hbond>
-2.9393

> <Gold.PLP.part.metal>
0.0000

> <Gold.PLP.part.buried>
-3.5403

> <Gold.PLP.part.nonpolar>
-27.5326

> <Gold.PLP.part.repulsive>
0.1978

> <Gold.PLP.ligand.clash>
0.0000

> <Gold.PLP.ligand.torsion>
0.2851

> <Gold.PLP.Chemscore.Hbond>
3.2240

> <Gold.PLP.Chemscore.CHOScore>
0.0000

> <Gold.PLP.Chemscore.Metal>
0.0000

> <Gold.Chemscore.Hbonds>
donor molecule, donor type, donor heavy atom, donor atom, acceptor molecule, acceptor atom, score
      L1  H     9    27       P1  8028  2.00
      P1  H  8011  8017       L1    12  0.57

> <Gold.PLP.Chemscore.Internal.Correction>
0.0322

> <Gold.Rescore>
     Score         DG    S(hbond)    S(metal)    S(lipo)     H(rot)  DE(clash)    DE(int)     intcor
     17.13     -17.67       2.34        0.00      85.58       2.20       0.31       0.22       ----

> <Gold.Chemscore.Fitness>
17.1334

> <Gold.Chemscore.DG>
-17.6657

> <Gold.Chemscore.ZeroCoef>
-5.4800

> <Gold.Chemscore.Hbond>
2.3362

> <Gold.Chemscore.Metal>
0.0000

> <Gold.Chemscore.Lipo>
85.5766

> <Gold.Chemscore.Internal_Hbond>
0.0000

> <Gold.Chemscore.DEClash>
0.3129

> <Gold.Chemscore.DEInternal>
0.2194

> <Gold.Chemscore.Rot>
2.1991

> <Gold.Chemscore.Internal.Correction>
   9.000000E+99

> <Gold.Chemscore.Hbonds>
donor molecule, donor type, donor heavy atom, donor atom, acceptor molecule, acceptor atom, score
      L1  H     9    27       P1  8028  1.00
      P1  H  8011  8017       L1    12  0.41

> <Gold.Chemscore.Hbond.Weighted>
-7.8030

> <Gold.Chemscore.Metal.Weighted>
-0.0000

> <Gold.Chemscore.Lipo.Weighted>
-10.0125

> <Gold.Chemscore.Internal_Hbond.Weighted>
0.0000

> <Gold.Chemscore.DEClash.Weighted>
0.3129

> <Gold.Chemscore.DEInternal.Weighted>
0.2194

> <Gold.Chemscore.Rot.Weighted>
5.6298

> <Gold.Chemscore.Internal.Correction.Weighted>
   9.000000E+99

> <Gold.Protein.RotatedTorsions>
[ 6907 6896 6895 6894 ] final -151.36 input  -60.11 | X-H torsion
[ 7974 7965 7964 7962 ] final -172.31 input  175.53 | X-H torsion
[ 8008 7997 7996 7995 ] final -141.01 input   59.86 | X-H torsion
[ 10167 10162 10161 10158 ] final  -58.64 input  -65.29 | X-H torsion
[ 10718 10713 10712 10709 ] final   35.54 input   66.30 | X-H torsion
[ 10763 10752 10751 10750 ] final   64.36 input  -60.55 | X-H torsion
[ 11005 11000 10999 10996 ] final  -45.66 input  -57.11 | X-H torsion

> <Gold.Protein.ActiveResidues>
 VAL166  LYS551  ARG553  GLY616  TRP617  ASP618  TYR619  PRO620  LYS621  CYS622 
 ASP623  PHE694  ASN695  SER759  ASP760  ASP761  ALA762  ILE779  LEU786  VAL792 
 PHE793  MET794  SER795  GLU796  ALA797  LYS798  CYS799  TRP800  GLU811  SER814 

> <Gold.Protein.RotatedAtoms>
  151.2120  133.4550  159.2598 H   0  0  0  0  0  0  0  0  0  0  0  0  # atno 6907 bound_to 6896
  151.0967  134.9948  159.8439 H   0  0  0  0  0  0  0  0  0  0  0  0  # atno 6908 bound_to 6896
  152.5440  134.2050  159.8780 H   0  0  0  0  0  0  0  0  0  0  0  0  # atno 6909 bound_to 6896
  144.7147  140.1792  143.6360 H   0  0  0  0  0  0  0  0  0  0  0  0  # atno 7974 bound_to 7965
  155.4708  140.0553  157.2980 H   0  0  0  0  0  0  0  0  0  0  0  0  # atno 8008 bound_to 7997
  154.4699  140.2035  155.9975 H   0  0  0  0  0  0  0  0  0  0  0  0  # atno 8009 bound_to 7997
  156.1038  140.3215  155.7983 H   0  0  0  0  0  0  0  0  0  0  0  0  # atno 8010 bound_to 7997
  140.6185  143.2411  151.5539 H   0  0  0  0  0  0  0  0  0  0  0  0  # atno 10167 bound_to 10162
  157.3239  130.7463  149.6803 H   0  0  0  0  0  0  0  0  0  0  0  0  # atno 10718 bound_to 10713
  153.0053  135.5396  154.6497 H   0  0  0  0  0  0  0  0  0  0  0  0  # atno 10763 bound_to 10752
  154.5732  135.2843  155.0808 H   0  0  0  0  0  0  0  0  0  0  0  0  # atno 10764 bound_to 10752
  154.1966  135.6491  153.5127 H   0  0  0  0  0  0  0  0  0  0  0  0  # atno 10765 bound_to 10752
  141.0529  133.6736  156.3044 H   0  0  0  0  0  0  0  0  0  0  0  0  # atno 11005 bound_to 11000
  145.8872  139.2355  143.1570 LP  0  0  0  0  0  0  0  0  0  0  0  0  # atno 17320 bound_to 7965
  145.9938  140.8580  143.0053 LP  0  0  0  0  0  0  0  0  0  0  0  0  # atno 17321 bound_to 7965
  139.5418  144.2626  152.1366 LP  0  0  0  0  0  0  0  0  0  0  0  0  # atno 17342 bound_to 10162
  140.1841  144.4816  150.6513 LP  0  0  0  0  0  0  0  0  0  0  0  0  # atno 17343 bound_to 10162
  155.9688  130.4215  150.4472 LP  0  0  0  0  0  0  0  0  0  0  0  0  # atno 17370 bound_to 10713
  157.2492  131.0542  151.2390 LP  0  0  0  0  0  0  0  0  0  0  0  0  # atno 17371 bound_to 10713
  140.6020  134.5545  157.5519 LP  0  0  0  0  0  0  0  0  0  0  0  0  # atno 17394 bound_to 11000
  139.9366  134.7864  156.0788 LP  0  0  0  0  0  0  0  0  0  0  0  0  # atno 17395 bound_to 11000

$$$$
