AV-unprocessed.smi:1047|AV-procd|sdf|4586|dock4
  -GOLD-   22720 3 63D 1   1.00000     0.00000
 Structure written by MMmdl.
 58 60  0  0  0  0  0  0  0  0  4 V2000
  144.3472  135.2133  150.3996 C   0  0  0  0  0  0  0  0  0  0  0  0
  145.4536  135.8084  151.2817 C   0  0  0  0  0  0  0  0  0  0  0  0
  145.0701  137.1256  151.8554 N   0  3  1  0  0  0  0  0  0  0  0  0
  143.8570  137.1007  152.7110 C   0  0  0  0  0  0  0  0  0  0  0  0
  144.1686  136.5428  154.1121 C   0  0  0  0  0  0  0  0  0  0  0  0
  145.2221  137.2948  154.7023 O   0  0  0  0  0  0  0  0  0  0  0  0
  146.4336  137.2242  153.9562 C   0  0  2  0  0  0  0  0  0  0  0  0
  147.5041  138.0161  154.7233 C   0  0  0  0  0  0  0  0  0  0  0  0
  148.8666  137.6488  154.2862 N   0  3  0  0  0  0  0  0  0  0  0  0
  149.8413  138.7565  154.3600 C   0  0  0  0  0  0  0  0  0  0  0  0
  150.9281  138.4790  155.4126 C   0  0  1  0  0  0  0  0  0  0  0  0
  151.6399  137.3179  155.0318 O   0  0  0  0  0  0  0  0  0  0  0  0
  151.9062  139.6617  155.5545 C   0  0  0  0  0  0  0  0  0  0  0  0
  151.2975  140.8344  156.2009 N   0  0  0  0  0  0  0  0  0  0  0  0
  150.3164  141.6622  155.7475 C   0  0  0  0  0  0  0  0  0  0  0  0
  150.1074  142.6132  156.6990 N   0  3  0  0  0  0  0  0  0  0  0  0
  150.9698  142.3938  157.7747 C   0  0  0  0  0  0  0  0  0  0  0  0
  151.1334  143.0921  158.9651 C   0  0  0  0  0  0  0  0  0  0  0  0
  152.1098  142.6113  159.8663 C   0  0  0  0  0  0  0  0  0  0  0  0
  152.3182  143.3562  161.1741 C   0  0  0  0  0  0  0  0  0  0  0  0
  152.8822  141.4612  159.5596 C   0  0  0  0  0  0  0  0  0  0  0  0
  153.9305  140.9528  160.5348 C   0  0  0  0  0  0  0  0  0  0  0  0
  152.6972  140.7621  158.3452 C   0  0  0  0  0  0  0  0  0  0  0  0
  151.7353  141.2525  157.4644 C   0  0  0  0  0  0  0  0  0  0  0  0
  146.1815  137.8192  152.5529 C   0  0  0  0  0  0  0  0  0  0  0  0
  144.6918  134.2973  149.9191 H   0  0  0  0  0  0  0  0  0  0  0  0
  144.0545  135.9077  149.6114 H   0  0  0  0  0  0  0  0  0  0  0  0
  143.4559  134.9599  150.9730 H   0  0  0  0  0  0  0  0  0  0  0  0
  145.7326  135.1064  152.0672 H   0  0  0  0  0  0  0  0  0  0  0  0
  146.3390  135.9358  150.6576 H   0  0  0  0  0  0  0  0  0  0  0  0
  143.4913  138.1239  152.8091 H   0  0  0  0  0  0  0  0  0  0  0  0
  143.0516  136.5369  152.2421 H   0  0  0  0  0  0  0  0  0  0  0  0
  143.2862  136.6196  154.7476 H   0  0  0  0  0  0  0  0  0  0  0  0
  144.4347  135.4859  154.0733 H   0  0  0  0  0  0  0  0  0  0  0  0
  146.7533  136.1843  153.8674 H   0  0  0  0  0  0  0  0  0  0  0  0
  147.3650  139.0854  154.5577 H   0  0  0  0  0  0  0  0  0  0  0  0
  147.4021  137.8415  155.7954 H   0  0  0  0  0  0  0  0  0  0  0  0
  149.1989  136.8946  154.8705 H   0  0  0  0  0  0  0  0  0  0  0  0
  150.2903  138.9223  153.3792 H   0  0  0  0  0  0  0  0  0  0  0  0
  149.3027  139.6684  154.6214 H   0  0  0  0  0  0  0  0  0  0  0  0
  150.4589  138.2919  156.3797 H   0  0  0  0  0  0  0  0  0  0  0  0
  151.4665  137.1455  154.1184 H   0  0  0  0  0  0  0  0  0  0  0  0
  152.8047  139.3712  156.0990 H   0  0  0  0  0  0  0  0  0  0  0  0
  152.2420  139.9834  154.5677 H   0  0  0  0  0  0  0  0  0  0  0  0
  149.7993  141.5834  154.8020 H   0  0  0  0  0  0  0  0  0  0  0  0
  150.5423  143.9676  159.1915 H   0  0  0  0  0  0  0  0  0  0  0  0
  153.3104  143.8077  161.2004 H   0  0  0  0  0  0  0  0  0  0  0  0
  152.2225  142.6800  162.0236 H   0  0  0  0  0  0  0  0  0  0  0  0
  151.5848  144.1532  161.3008 H   0  0  0  0  0  0  0  0  0  0  0  0
  154.4940  140.1186  160.1157 H   0  0  0  0  0  0  0  0  0  0  0  0
  153.4592  140.6093  161.4560 H   0  0  0  0  0  0  0  0  0  0  0  0
  154.6423  141.7412  160.7816 H   0  0  0  0  0  0  0  0  0  0  0  0
  153.2838  139.8843  158.1185 H   0  0  0  0  0  0  0  0  0  0  0  0
  147.0883  137.7897  151.9477 H   0  0  0  0  0  0  0  0  0  0  0  0
  145.9144  138.8729  152.6480 H   0  0  0  0  0  0  0  0  0  0  0  0
  148.8281  137.3234  153.3303 H   0  0  0  0  0  0  0  0  0  0  0  0
  144.8459  137.7013  151.0558 H   0  0  0  0  0  0  0  0  0  0  0  0
  149.4287  143.3595  156.6158 H   0  0  0  0  0  0  0  0  0  0  0  0
  1  2  1  0  0  0  0
  1 26  1  0  0  0  0
  1 27  1  0  0  0  0
  1 28  1  0  0  0  0
  2  3  1  0  0  0  0
  2 29  1  0  0  0  0
  2 30  1  0  0  0  0
  3 25  1  0  0  0  0
  3  4  1  0  0  0  0
  3 57  1  0  0  0  0
  4  5  1  0  0  0  0
  4 31  1  0  0  0  0
  4 32  1  0  0  0  0
  5  6  1  0  0  0  0
  5 33  1  0  0  0  0
  5 34  1  0  0  0  0
  6  7  1  0  0  0  0
  7  8  1  0  0  0  0
  7 25  1  0  0  0  0
  7 35  1  0  0  0  0
  8  9  1  0  0  0  0
  8 36  1  0  0  0  0
  8 37  1  0  0  0  0
  9 10  1  0  0  0  0
  9 38  1  0  0  0  0
  9 56  1  0  0  0  0
 10 11  1  0  0  0  0
 10 39  1  0  0  0  0
 10 40  1  0  0  0  0
 11 12  1  0  0  0  0
 11 13  1  0  0  0  0
 11 41  1  0  0  0  0
 12 42  1  0  0  0  0
 13 14  1  0  0  0  0
 13 43  1  0  0  0  0
 13 44  1  0  0  0  0
 14 24  1  0  0  0  0
 14 15  1  0  0  0  0
 15 16  2  0  0  0  0
 15 45  1  0  0  0  0
 16 17  1  0  0  0  0
 16 58  1  0  0  0  0
 17 24  2  0  0  0  0
 17 18  1  0  0  0  0
 18 19  2  0  0  0  0
 18 46  1  0  0  0  0
 19 20  1  0  0  0  0
 19 21  1  0  0  0  0
 20 47  1  0  0  0  0
 20 48  1  0  0  0  0
 20 49  1  0  0  0  0
 21 22  1  0  0  0  0
 21 23  2  0  0  0  0
 22 50  1  0  0  0  0
 22 51  1  0  0  0  0
 22 52  1  0  0  0  0
 23 24  1  0  0  0  0
 23 53  1  0  0  0  0
 25 54  1  0  0  0  0
 25 55  1  0  0  0  0
M  CHG  1   3   1
M  CHG  1   9   1
M  CHG  1  16   1
M  END
> <s_m_source_file>
AV-unprocessed.smi

> <i_m_source_file_index>
1047

> <i_lp_mmshare_version>
43012

> <i_f3d_flags>
0

> <s_epik_input>
W0NIM11bQ0gyXU4xW0NIMl1bQ0gyXU9bQ0BIXShbQ0gyXTEpW0NIMl1bTkhdW0NIMl1bQ0BIXShbT0hdKVtDSDJdbihbY0hdbjIpYyhjMjMpW2NIXWMoW0NIM10pYyhbY0hdMylbQ0gzXQ==

> <s_epik_cmdline>
J2VwaWtfcHl0aG9uJywgJy1waCcsICc3LjAnLCAnLXRuJywgJzgnLCAnLW1hJywgJzIwMCcsICctbWV0YWxfYmluZGluZycsICctaW1hZScsICc8aW5maWxlLm1hZT4nLCAnLW9tYWUnLCAnPG91dGZpbGUubWFlPic=

> <r_epik_Ionization_Penalty>
1.6114

> <r_epik_Ionization_Penalty_Charging>
1.61139

> <r_epik_Ionization_Penalty_Neutral>
5.04732e-06

> <r_epik_State_Penalty>
1.63724

> <r_epik_Charging_Adjusted_Penalty>
3.24864

> <i_epik_Tot_Q>
3

> <i_epik_Tot_abs_Q>
3

> <r_epik_Metal_State_Penalty>
5.64594

> <b_epik_Metal_Only>
0

> <s_lp_Force_Field>
OPLS_2005

> <r_lp_Energy>
39.9268

> <b_lp_Chiralities_Consistent>
1

> <s_lp_Variant>
AV-unprocessed.smi:1047-27

> <Gold.Version>
5.8.1

> <Gold.Id.Protein>
6NUR|6NUR_protein|mol2

> <Gold.PLP.Fitness>
62.3910

> <Gold.PLP.PLP>
-48.9505

> <Gold.PLP.part.hbond>
-3.5995

> <Gold.PLP.part.metal>
0.0000

> <Gold.PLP.part.buried>
-5.0454

> <Gold.PLP.part.nonpolar>
-39.5375

> <Gold.PLP.part.repulsive>
0.1456

> <Gold.PLP.ligand.clash>
0.0000

> <Gold.PLP.ligand.torsion>
0.8755

> <Gold.PLP.Chemscore.Hbond>
5.0370

> <Gold.PLP.Chemscore.CHOScore>
0.0000

> <Gold.PLP.Chemscore.Metal>
0.0000

> <Gold.Chemscore.Hbonds>
donor molecule, donor type, donor heavy atom, donor atom, acceptor molecule, acceptor atom, score
      L1  H     3    57       P1 10171  1.00
      L1  H     9    56       P1  7948  2.00
      L1  H    16    58       P1  8028  1.86
      P1  H 10752 10765       L1    12  0.06

> <Gold.PLP.Chemscore.Internal.Correction>
0.0803

> <Gold.Rescore>
     Score         DG    S(hbond)    S(metal)    S(lipo)     H(rot)  DE(clash)    DE(int)     intcor
     21.69     -22.48       2.95        0.00     122.10       2.78       0.03       0.76       ----

> <Gold.Chemscore.Fitness>
21.6863

> <Gold.Chemscore.DG>
-22.4750

> <Gold.Chemscore.ZeroCoef>
-5.4800

> <Gold.Chemscore.Hbond>
2.9457

> <Gold.Chemscore.Metal>
0.0000

> <Gold.Chemscore.Lipo>
122.0983

> <Gold.Chemscore.Internal_Hbond>
0.0000

> <Gold.Chemscore.DEClash>
0.0314

> <Gold.Chemscore.DEInternal>
0.7574

> <Gold.Chemscore.Rot>
2.7848

> <Gold.Chemscore.Internal.Correction>
   9.000000E+99

> <Gold.Chemscore.Hbonds>
donor molecule, donor type, donor heavy atom, donor atom, acceptor molecule, acceptor atom, score
      L1  H     3    57       P1 10171  1.00
      L1  H     9    56       P1  7948  1.00
      L1  H    16    58       P1  8028  0.89

> <Gold.Chemscore.Hbond.Weighted>
-9.8386

> <Gold.Chemscore.Metal.Weighted>
-0.0000

> <Gold.Chemscore.Lipo.Weighted>
-14.2855

> <Gold.Chemscore.Internal_Hbond.Weighted>
0.0000

> <Gold.Chemscore.DEClash.Weighted>
0.0314

> <Gold.Chemscore.DEInternal.Weighted>
0.7574

> <Gold.Chemscore.Rot.Weighted>
7.1291

> <Gold.Chemscore.Internal.Correction.Weighted>
   9.000000E+99

> <Gold.Protein.RotatedTorsions>
[ 6907 6896 6895 6894 ] final  -52.03 input  -60.11 | X-H torsion
[ 7974 7965 7964 7962 ] final -126.01 input  175.53 | X-H torsion
[ 8008 7997 7996 7995 ] final -118.48 input   59.86 | X-H torsion
[ 10167 10162 10161 10158 ] final   92.24 input  -65.29 | X-H torsion
[ 10718 10713 10712 10709 ] final  159.98 input   66.30 | X-H torsion
[ 10763 10752 10751 10750 ] final -163.94 input  -60.55 | X-H torsion
[ 11005 11000 10999 10996 ] final   45.92 input  -57.11 | X-H torsion

> <Gold.Protein.ActiveResidues>
 VAL166  LYS551  ARG553  GLY616  TRP617  ASP618  TYR619  PRO620  LYS621  CYS622 
 ASP623  PHE694  ASN695  SER759  ASP760  ASP761  ALA762  ILE779  LEU786  VAL792 
 PHE793  MET794  SER795  GLU796  ALA797  LYS798  CYS799  TRP800  GLU811  SER814 

> <Gold.Protein.RotatedAtoms>
  150.8556  134.7893  159.7042 H   0  0  0  0  0  0  0  0  0  0  0  0  # atno 6907 bound_to 6896
  152.4608  134.5185  159.9785 H   0  0  0  0  0  0  0  0  0  0  0  0  # atno 6908 bound_to 6896
  151.5298  133.3413  159.2952 H   0  0  0  0  0  0  0  0  0  0  0  0  # atno 6909 bound_to 6896
  144.9917  140.7738  143.4550 H   0  0  0  0  0  0  0  0  0  0  0  0  # atno 7974 bound_to 7965
  155.1004  140.0396  157.2695 H   0  0  0  0  0  0  0  0  0  0  0  0  # atno 8008 bound_to 7997
  154.6762  140.2623  155.6930 H   0  0  0  0  0  0  0  0  0  0  0  0  # atno 8009 bound_to 7997
  156.2677  140.2787  156.1290 H   0  0  0  0  0  0  0  0  0  0  0  0  # atno 8010 bound_to 7997
  139.8296  144.6693  150.9416 H   0  0  0  0  0  0  0  0  0  0  0  0  # atno 10167 bound_to 10162
  157.1567  131.0577  151.2253 H   0  0  0  0  0  0  0  0  0  0  0  0  # atno 10718 bound_to 10713
  154.7075  135.3000  154.9247 H   0  0  0  0  0  0  0  0  0  0  0  0  # atno 10763 bound_to 10752
  154.0160  135.6689  153.4773 H   0  0  0  0  0  0  0  0  0  0  0  0  # atno 10764 bound_to 10752
  153.0729  135.5051  154.8255 H   0  0  0  0  0  0  0  0  0  0  0  0  # atno 10765 bound_to 10752
  140.1416  134.4576  155.8445 H   0  0  0  0  0  0  0  0  0  0  0  0  # atno 11005 bound_to 11000
  145.2277  139.2129  143.5059 LP  0  0  0  0  0  0  0  0  0  0  0  0  # atno 17320 bound_to 7965
  146.3433  140.2147  142.8590 LP  0  0  0  0  0  0  0  0  0  0  0  0  # atno 17321 bound_to 7965
  140.7807  143.4013  151.1144 LP  0  0  0  0  0  0  0  0  0  0  0  0  # atno 17342 bound_to 10162
  139.7668  143.8553  152.3112 LP  0  0  0  0  0  0  0  0  0  0  0  0  # atno 17343 bound_to 10162
  157.4171  130.7417  149.6884 LP  0  0  0  0  0  0  0  0  0  0  0  0  # atno 17370 bound_to 10713
  155.9761  130.4080  150.3804 LP  0  0  0  0  0  0  0  0  0  0  0  0  # atno 17371 bound_to 10713
  141.2187  133.6835  156.7257 LP  0  0  0  0  0  0  0  0  0  0  0  0  # atno 17394 bound_to 11000
  140.2715  134.8388  157.3851 LP  0  0  0  0  0  0  0  0  0  0  0  0  # atno 17395 bound_to 11000

$$$$
