AV-unprocessed.smi:1047|AV-procd|sdf|4573|dock4
  -GOLD-   22720 3 33D 1   1.00000     0.00000
 Structure written by MMmdl.
 56 58  0  0  0  0  0  0  0  0  2 V2000
  144.7780  131.8740  151.6439 C   0  0  0  0  0  0  0  0  0  0  0  0
  145.5774  132.4177  152.8364 C   0  0  0  0  0  0  0  0  0  0  0  0
  144.8488  133.4839  153.5739 N   0  3  2  0  0  0  0  0  0  0  0  0
  144.2289  134.4976  152.6863 C   0  0  0  0  0  0  0  0  0  0  0  0
  145.2782  135.4963  152.1659 C   0  0  0  0  0  0  0  0  0  0  0  0
  145.9401  136.1057  153.2679 O   0  0  0  0  0  0  0  0  0  0  0  0
  146.6445  135.1657  154.0728 C   0  0  1  0  0  0  0  0  0  0  0  0
  147.3711  135.9519  155.1748 C   0  0  0  0  0  0  0  0  0  0  0  0
  148.6160  136.5334  154.6816 N   0  0  0  0  0  0  0  0  0  0  0  0
  148.9951  137.7635  155.3698 C   0  0  0  0  0  0  0  0  0  0  0  0
  148.9896  138.9681  154.4098 C   0  0  2  0  0  0  0  0  0  0  0  0
  149.9770  138.7553  153.4205 O   0  0  0  0  0  0  0  0  0  0  0  0
  149.2734  140.3124  155.1152 C   0  0  0  0  0  0  0  0  0  0  0  0
  150.4439  140.2853  155.9789 N   0  0  0  0  0  0  0  0  0  0  0  0
  151.4525  139.3924  155.9511 C   0  0  0  0  0  0  0  0  0  0  0  0
  152.4322  139.5507  156.8359 N   0  0  0  0  0  0  0  0  0  0  0  0
  152.0060  140.6726  157.5256 C   0  0  0  0  0  0  0  0  0  0  0  0
  152.5990  141.3653  158.6038 C   0  0  0  0  0  0  0  0  0  0  0  0
  151.9768  142.5037  159.1636 C   0  0  0  0  0  0  0  0  0  0  0  0
  152.6494  143.2179  160.3227 C   0  0  0  0  0  0  0  0  0  0  0  0
  150.7409  142.9655  158.6437 C   0  0  0  0  0  0  0  0  0  0  0  0
  150.0533  144.1861  159.2291 C   0  0  0  0  0  0  0  0  0  0  0  0
  150.1353  142.2855  157.5665 C   0  0  0  0  0  0  0  0  0  0  0  0
  150.7644  141.1545  157.0169 C   0  0  0  0  0  0  0  0  0  0  0  0
  145.6314  134.1482  154.6475 C   0  0  0  0  0  0  0  0  0  0  0  0
  145.3820  131.1732  151.0675 H   0  0  0  0  0  0  0  0  0  0  0  0
  144.4758  132.6775  150.9718 H   0  0  0  0  0  0  0  0  0  0  0  0
  143.8813  131.3410  151.9583 H   0  0  0  0  0  0  0  0  0  0  0  0
  145.8629  131.6049  153.5035 H   0  0  0  0  0  0  0  0  0  0  0  0
  146.5077  132.8322  152.4463 H   0  0  0  0  0  0  0  0  0  0  0  0
  143.7040  134.0187  151.8589 H   0  0  0  0  0  0  0  0  0  0  0  0
  143.4718  135.0368  153.2570 H   0  0  0  0  0  0  0  0  0  0  0  0
  146.0019  135.0081  151.5117 H   0  0  0  0  0  0  0  0  0  0  0  0
  144.7927  136.2734  151.5755 H   0  0  0  0  0  0  0  0  0  0  0  0
  147.3890  134.6637  153.4528 H   0  0  0  0  0  0  0  0  0  0  0  0
  146.7182  136.7499  155.5302 H   0  0  0  0  0  0  0  0  0  0  0  0
  147.5642  135.3047  156.0313 H   0  0  0  0  0  0  0  0  0  0  0  0
  148.5464  136.7074  153.6839 H   0  0  0  0  0  0  0  0  0  0  0  0
  148.2780  137.9501  156.1702 H   0  0  0  0  0  0  0  0  0  0  0  0
  149.9699  137.6559  155.8478 H   0  0  0  0  0  0  0  0  0  0  0  0
  148.0206  139.0440  153.9143 H   0  0  0  0  0  0  0  0  0  0  0  0
  149.6539  139.0903  152.5978 H   0  0  0  0  0  0  0  0  0  0  0  0
  149.4037  141.1063  154.3788 H   0  0  0  0  0  0  0  0  0  0  0  0
  148.4122  140.5987  155.7205 H   0  0  0  0  0  0  0  0  0  0  0  0
  151.4704  138.5819  155.2370 H   0  0  0  0  0  0  0  0  0  0  0  0
  153.5399  141.0127  158.9998 H   0  0  0  0  0  0  0  0  0  0  0  0
  151.9945  143.2345  161.1940 H   0  0  0  0  0  0  0  0  0  0  0  0
  152.8902  144.2456  160.0497 H   0  0  0  0  0  0  0  0  0  0  0  0
  153.5766  142.7226  160.6117 H   0  0  0  0  0  0  0  0  0  0  0  0
  149.1272  144.4126  158.7002 H   0  0  0  0  0  0  0  0  0  0  0  0
  150.7005  145.0605  159.1588 H   0  0  0  0  0  0  0  0  0  0  0  0
  149.8077  144.0192  160.2780 H   0  0  0  0  0  0  0  0  0  0  0  0
  149.1943  142.6270  157.1608 H   0  0  0  0  0  0  0  0  0  0  0  0
  144.9293  134.6696  155.2995 H   0  0  0  0  0  0  0  0  0  0  0  0
  146.1320  133.4131  155.2761 H   0  0  0  0  0  0  0  0  0  0  0  0
  144.0815  133.0103  154.0293 H   0  0  0  0  0  0  0  0  0  0  0  0
  1  2  1  0  0  0  0
  1 26  1  0  0  0  0
  1 27  1  0  0  0  0
  1 28  1  0  0  0  0
  2  3  1  0  0  0  0
  2 29  1  0  0  0  0
  2 30  1  0  0  0  0
  3 25  1  0  0  0  0
  3  4  1  0  0  0  0
  3 56  1  0  0  0  0
  4  5  1  0  0  0  0
  4 31  1  0  0  0  0
  4 32  1  0  0  0  0
  5  6  1  0  0  0  0
  5 33  1  0  0  0  0
  5 34  1  0  0  0  0
  6  7  1  0  0  0  0
  7  8  1  0  0  0  0
  7 25  1  0  0  0  0
  7 35  1  0  0  0  0
  8  9  1  0  0  0  0
  8 36  1  0  0  0  0
  8 37  1  0  0  0  0
  9 10  1  0  0  0  0
  9 38  1  0  0  0  0
 10 11  1  0  0  0  0
 10 39  1  0  0  0  0
 10 40  1  0  0  0  0
 11 12  1  0  0  0  0
 11 13  1  0  0  0  0
 11 41  1  0  0  0  0
 12 42  1  0  0  0  0
 13 14  1  0  0  0  0
 13 43  1  0  0  0  0
 13 44  1  0  0  0  0
 14 24  1  0  0  0  0
 14 15  1  0  0  0  0
 15 16  2  0  0  0  0
 15 45  1  0  0  0  0
 16 17  1  0  0  0  0
 17 24  2  0  0  0  0
 17 18  1  0  0  0  0
 18 19  2  0  0  0  0
 18 46  1  0  0  0  0
 19 20  1  0  0  0  0
 19 21  1  0  0  0  0
 20 47  1  0  0  0  0
 20 48  1  0  0  0  0
 20 49  1  0  0  0  0
 21 22  1  0  0  0  0
 21 23  2  0  0  0  0
 22 50  1  0  0  0  0
 22 51  1  0  0  0  0
 22 52  1  0  0  0  0
 23 24  1  0  0  0  0
 23 53  1  0  0  0  0
 25 54  1  0  0  0  0
 25 55  1  0  0  0  0
M  CHG  1   3   1
M  END
> <s_m_source_file>
AV-unprocessed.smi

> <i_m_source_file_index>
1047

> <i_lp_mmshare_version>
43012

> <i_f3d_flags>
0

> <s_epik_input>
W0NIM11bQ0gyXU4xW0NIMl1bQ0gyXU9bQ0BIXShbQ0gyXTEpW0NIMl1bTkhdW0NIMl1bQ0BIXShbT0hdKVtDSDJdbihbY0hdbjIpYyhjMjMpW2NIXWMoW0NIM10pYyhbY0hdMylbQ0gzXQ==

> <s_epik_cmdline>
J2VwaWtfcHl0aG9uJywgJy1waCcsICc3LjAnLCAnLXRuJywgJzgnLCAnLW1hJywgJzIwMCcsICctbWV0YWxfYmluZGluZycsICctaW1hZScsICc8aW5maWxlLm1hZT4nLCAnLW9tYWUnLCAnPG91dGZpbGUubWFlPic=

> <r_epik_Ionization_Penalty>
1.19246

> <r_epik_Ionization_Penalty_Charging>
0.210041

> <r_epik_Ionization_Penalty_Neutral>
0.982415

> <r_epik_State_Penalty>
1.57595

> <r_epik_Charging_Adjusted_Penalty>
1.78599

> <i_epik_Tot_Q>
1

> <i_epik_Tot_abs_Q>
1

> <r_epik_Metal_State_Penalty>
1.46172

> <b_epik_Metal_Only>
0

> <s_lp_Force_Field>
OPLS_2005

> <r_lp_Energy>
32.195

> <b_lp_Chiralities_Consistent>
1

> <s_lp_Variant>
AV-unprocessed.smi:1047-14

> <Gold.Version>
5.8.1

> <Gold.Id.Protein>
6NUR|6NUR_protein|mol2

> <Gold.PLP.Fitness>
50.6337

> <Gold.PLP.PLP>
-37.8013

> <Gold.PLP.part.hbond>
-4.8023

> <Gold.PLP.part.metal>
0.0000

> <Gold.PLP.part.buried>
-6.5703

> <Gold.PLP.part.nonpolar>
-28.1775

> <Gold.PLP.part.repulsive>
0.1005

> <Gold.PLP.ligand.clash>
0.0717

> <Gold.PLP.ligand.torsion>
1.1437

> <Gold.PLP.Chemscore.Hbond>
5.0000

> <Gold.PLP.Chemscore.CHOScore>
0.0000

> <Gold.PLP.Chemscore.Metal>
0.0000

> <Gold.Chemscore.Hbonds>
donor molecule, donor type, donor heavy atom, donor atom, acceptor molecule, acceptor atom, score
      L1  H     3    56       P1 10957  2.00
      L1  H     9    38       P1  7948  1.00
      L1  H    12    42       P1  7957  1.00
      P1  H  7997  8008       L1    16  1.00

> <Gold.PLP.Chemscore.Internal.Correction>
0.1914

> <Gold.Rescore>
     Score         DG    S(hbond)    S(metal)    S(lipo)     H(rot)  DE(clash)    DE(int)     intcor
     19.77     -22.12       3.72        0.00      93.51       2.62       0.02       2.33       ----

> <Gold.Chemscore.Fitness>
19.7739

> <Gold.Chemscore.DG>
-22.1247

> <Gold.Chemscore.ZeroCoef>
-5.4800

> <Gold.Chemscore.Hbond>
3.7166

> <Gold.Chemscore.Metal>
0.0000

> <Gold.Chemscore.Lipo>
93.5115

> <Gold.Chemscore.Internal_Hbond>
0.0000

> <Gold.Chemscore.DEClash>
0.0174

> <Gold.Chemscore.DEInternal>
2.3334

> <Gold.Chemscore.Rot>
2.6209

> <Gold.Chemscore.Internal.Correction>
   9.000000E+99

> <Gold.Chemscore.Hbonds>
donor molecule, donor type, donor heavy atom, donor atom, acceptor molecule, acceptor atom, score
      L1  H     3    56       P1 10957  0.91
      L1  H     9    38       P1  7948  0.94
      L1  H    12    42       P1  7957  0.92
      P1  H  7997  8008       L1    16  0.24

> <Gold.Chemscore.Hbond.Weighted>
-12.4134

> <Gold.Chemscore.Metal.Weighted>
-0.0000

> <Gold.Chemscore.Lipo.Weighted>
-10.9408

> <Gold.Chemscore.Internal_Hbond.Weighted>
0.0000

> <Gold.Chemscore.DEClash.Weighted>
0.0174

> <Gold.Chemscore.DEInternal.Weighted>
2.3334

> <Gold.Chemscore.Rot.Weighted>
6.7096

> <Gold.Chemscore.Internal.Correction.Weighted>
   9.000000E+99

> <Gold.Protein.RotatedTorsions>
[ 6907 6896 6895 6894 ] final -176.67 input  -60.11 | X-H torsion
[ 7974 7965 7964 7962 ] final  127.66 input  175.53 | X-H torsion
[ 8008 7997 7996 7995 ] final  -46.26 input   59.86 | X-H torsion
[ 10167 10162 10161 10158 ] final  124.07 input  -65.29 | X-H torsion
[ 10718 10713 10712 10709 ] final -168.97 input   66.30 | X-H torsion
[ 10763 10752 10751 10750 ] final   -9.36 input  -60.55 | X-H torsion
[ 11005 11000 10999 10996 ] final -173.29 input  -57.11 | X-H torsion

> <Gold.Protein.ActiveResidues>
 VAL166  LYS551  ARG553  GLY616  TRP617  ASP618  TYR619  PRO620  LYS621  CYS622 
 ASP623  PHE694  ASN695  SER759  ASP760  ASP761  ALA762  ILE779  LEU786  VAL792 
 PHE793  MET794  SER795  GLU796  ALA797  LYS798  CYS799  TRP800  GLU811  SER814 

> <Gold.Protein.RotatedAtoms>
  151.6085  133.3349  159.3062 H   0  0  0  0  0  0  0  0  0  0  0  0  # atno 6907 bound_to 6896
  150.8169  134.7359  159.6749 H   0  0  0  0  0  0  0  0  0  0  0  0  # atno 6908 bound_to 6896
  152.4264  134.5865  160.0014 H   0  0  0  0  0  0  0  0  0  0  0  0  # atno 6909 bound_to 6896
  145.0481  139.3906  143.5068 H   0  0  0  0  0  0  0  0  0  0  0  0  # atno 7974 bound_to 7965
  154.4006  140.1376  156.3982 H   0  0  0  0  0  0  0  0  0  0  0  0  # atno 8008 bound_to 7997
  155.7850  140.3480  155.5297 H   0  0  0  0  0  0  0  0  0  0  0  0  # atno 8009 bound_to 7997
  155.8636  140.0960  157.1587 H   0  0  0  0  0  0  0  0  0  0  0  0  # atno 8010 bound_to 7997
  139.5763  144.6965  151.3645 H   0  0  0  0  0  0  0  0  0  0  0  0  # atno 10167 bound_to 10162
  156.7048  130.9210  151.3083 H   0  0  0  0  0  0  0  0  0  0  0  0  # atno 10718 bound_to 10713
  153.4537  135.7015  153.6093 H   0  0  0  0  0  0  0  0  0  0  0  0  # atno 10763 bound_to 10752
  153.4416  135.3779  155.2232 H   0  0  0  0  0  0  0  0  0  0  0  0  # atno 10764 bound_to 10752
  154.8728  135.3975  154.3953 H   0  0  0  0  0  0  0  0  0  0  0  0  # atno 10765 bound_to 10752
  140.4874  134.6018  157.4942 H   0  0  0  0  0  0  0  0  0  0  0  0  # atno 11005 bound_to 11000
  146.3515  140.0117  142.8666 LP  0  0  0  0  0  0  0  0  0  0  0  0  # atno 17320 bound_to 7965
  145.1561  140.9649  143.4404 LP  0  0  0  0  0  0  0  0  0  0  0  0  # atno 17321 bound_to 7965
  140.7045  143.7548  150.7459 LP  0  0  0  0  0  0  0  0  0  0  0  0  # atno 17342 bound_to 10162
  140.1069  143.4736  152.2393 LP  0  0  0  0  0  0  0  0  0  0  0  0  # atno 17343 bound_to 10162
  157.6959  130.9281  150.0644 LP  0  0  0  0  0  0  0  0  0  0  0  0  # atno 17370 bound_to 10713
  156.1703  130.3646  149.9174 LP  0  0  0  0  0  0  0  0  0  0  0  0  # atno 17371 bound_to 10713
  139.9790  134.7168  155.9895 LP  0  0  0  0  0  0  0  0  0  0  0  0  # atno 17394 bound_to 11000
  141.1501  133.6550  156.3988 LP  0  0  0  0  0  0  0  0  0  0  0  0  # atno 17395 bound_to 11000

$$$$
