AV-unprocessed.smi:160|AV-procd|sdf|1361|dock8
  -GOLD-   2262019 73D 1   1.00000     0.00000
 Structure written by MMmdl.
 28 29  0  0  0  0  0  0  0  0  2 V2000
  141.4329  134.2634  154.0249 N   0  5  0  0  0  0  0  0  0  0  0  0
  142.2745  135.2459  154.4145 C   0  0  0  0  0  0  0  0  0  0  0  0
  142.0768  136.0577  155.3182 O   0  0  0  0  0  0  0  0  0  0  0  0
  143.5678  135.3077  153.6368 C   0  0  0  0  0  0  0  0  0  0  0  0
  144.5086  136.2585  153.9221 N   0  0  0  0  0  0  0  0  0  0  0  0
  145.4255  135.9256  153.0236 C   0  0  0  0  0  0  0  0  0  0  0  0
  145.1008  134.8706  152.2708 N   0  0  0  0  0  0  0  0  0  0  0  0
  145.8602  134.2340  151.1461 C   0  0  2  0  0  0  0  0  0  0  0  0
  145.0274  134.2200  150.0257 O   0  0  0  0  0  0  0  0  0  0  0  0
  144.4220  132.9383  149.8907 C   0  0  1  0  0  0  0  0  0  0  0  0
  143.8784  132.7253  148.4664 C   0  0  0  0  0  0  0  0  0  0  0  0
  143.3467  133.9319  147.9623 O   0  0  0  0  0  0  0  0  0  0  0  0
  145.5610  132.0005  150.3146 C   0  0  1  0  0  0  0  0  0  0  0  0
  146.4448  131.7679  149.2287 O   0  0  0  0  0  0  0  0  0  0  0  0
  146.2267  132.7685  151.4592 C   0  0  1  0  0  0  0  0  0  0  0  0
  147.6237  132.5453  151.5255 O   0  0  0  0  0  0  0  0  0  0  0  0
  143.8646  134.4583  152.6487 N   0  0  0  0  0  0  0  0  0  0  0  0
  146.7183  134.8874  150.9825 H   0  0  0  0  0  0  0  0  0  0  0  0
  143.6097  132.8412  150.6128 H   0  0  0  0  0  0  0  0  0  0  0  0
  145.1810  131.0352  150.6508 H   0  0  0  0  0  0  0  0  0  0  0  0
  145.7882  132.4637  152.4097 H   0  0  0  0  0  0  0  0  0  0  0  0
  140.8146  134.4386  153.2238 H   0  0  0  0  0  0  0  0  0  0  0  0
  146.3557  136.4632  152.9124 H   0  0  0  0  0  0  0  0  0  0  0  0
  144.6510  132.3457  147.7968 H   0  0  0  0  0  0  0  0  0  0  0  0
  143.0694  131.9943  148.4797 H   0  0  0  0  0  0  0  0  0  0  0  0
  142.5017  134.0770  148.3592 H   0  0  0  0  0  0  0  0  0  0  0  0
  147.2833  131.5111  149.5811 H   0  0  0  0  0  0  0  0  0  0  0  0
  147.8550  131.9054  150.8697 H   0  0  0  0  0  0  0  0  0  0  0  0
  1  2  1  0  0  0  0
  1 22  1  0  0  0  0
  2  3  2  0  0  0  0
  2  4  1  0  0  0  0
  4 17  2  0  0  0  0
  4  5  1  0  0  0  0
  5  6  2  0  0  0  0
  6  7  1  0  0  0  0
  6 23  1  0  0  0  0
  7  8  1  0  0  0  0
  7 17  1  0  0  0  0
  8 18  1  0  0  0  0
  8 15  1  0  0  0  0
  8  9  1  0  0  0  0
  9 10  1  0  0  0  0
 10 19  1  0  0  0  0
 10 11  1  0  0  0  0
 10 13  1  0  0  0  0
 11 12  1  0  0  0  0
 11 24  1  0  0  0  0
 11 25  1  0  0  0  0
 12 26  1  0  0  0  0
 13 20  1  0  0  0  0
 13 14  1  0  0  0  0
 13 15  1  0  0  0  0
 14 27  1  0  0  0  0
 15 21  1  0  0  0  0
 15 16  1  0  0  0  0
 16 28  1  0  0  0  0
M  CHG  1   1  -1
M  END
> <s_m_source_file>
AV-unprocessed.smi

> <i_m_source_file_index>
160

> <i_lp_mmshare_version>
43012

> <i_f3d_flags>
0

> <s_epik_input>
W05IMl1DKD1PKWMxbltjSF1uKG4xKVtDQEBIXTJPW0NASF0oW0NIMl1bT0hdKVtDQEBIXShbT0hdKVtDQEhdMltPSF0=

> <s_epik_cmdline>
J2VwaWtfcHl0aG9uJywgJy1waCcsICc3LjAnLCAnLXRuJywgJzgnLCAnLW1hJywgJzIwMCcsICctbWV0YWxfYmluZGluZycsICctaW1hZScsICc8aW5maWxlLm1hZT4nLCAnLW9tYWUnLCAnPG91dGZpbGUubWFlPic=

> <r_lp_tautomer_probability>
1

> <r_epik_Ionization_Penalty>
6.6993

> <r_epik_Ionization_Penalty_Charging>
6.6993

> <r_epik_Ionization_Penalty_Neutral>
6.01698e-06

> <r_epik_State_Penalty>
6.69929

> <r_epik_Charging_Adjusted_Penalty>
13.3986

> <i_epik_Tot_Q>
-1

> <i_epik_Tot_abs_Q>
1

> <r_epik_Metal_State_Penalty>
2.62798

> <b_epik_Metal_Only>
1

> <s_epik_Chemistry_Notes>
This compound contains an acetal/aminal-like group ( X-CH(R)-Y where X, Y are N, S, or O) that may be acid/base labile, releasing an aldehyde.

> <s_lp_Force_Field>
OPLS_2005

> <r_lp_Energy>
44.8838

> <b_lp_Chiralities_Consistent>
1

> <s_lp_Variant>
AV-unprocessed.smi:160-19

> <Gold.Version>
5.8.1

> <Gold.Id.Protein>
6NUR|6NUR_protein|mol2

> <Gold.PLP.Fitness>
43.2441

> <Gold.PLP.PLP>
-29.5986

> <Gold.PLP.part.hbond>
-7.9891

> <Gold.PLP.part.metal>
0.0000

> <Gold.PLP.part.buried>
-7.9881

> <Gold.PLP.part.nonpolar>
-16.7168

> <Gold.PLP.part.repulsive>
3.2954

> <Gold.PLP.ligand.clash>
0.0000

> <Gold.PLP.ligand.torsion>
0.3335

> <Gold.PLP.Chemscore.Hbond>
3.8800

> <Gold.PLP.Chemscore.CHOScore>
0.8830

> <Gold.PLP.Chemscore.Metal>
0.0000

> <Gold.Chemscore.Hbonds>
donor molecule, donor type, donor heavy atom, donor atom, acceptor molecule, acceptor atom, score
      L1  H    12    26       P1 10186  1.00
      L1  H    14    27       P1 10747  1.00
      L1  H    16    28       P1 10747  0.96
      P1  H 11000 11005       L1     1  0.80
      L1  C     6    23       P1  7948  0.32

> <Gold.PLP.Chemscore.Internal.Correction>
0.0237

> <Gold.Rescore>
     Score         DG    S(hbond)    S(metal)    S(lipo)     H(rot)  DE(clash)    DE(int)     intcor
     10.59     -11.53       3.60        0.00      37.37       4.04       0.17       0.76       ----

> <Gold.Chemscore.Fitness>
10.5947

> <Gold.Chemscore.DG>
-11.5337

> <Gold.Chemscore.ZeroCoef>
-5.4800

> <Gold.Chemscore.Hbond>
3.6001

> <Gold.Chemscore.Metal>
0.0000

> <Gold.Chemscore.Lipo>
37.3726

> <Gold.Chemscore.Internal_Hbond>
0.0000

> <Gold.Chemscore.DEClash>
0.1744

> <Gold.Chemscore.DEInternal>
0.7646

> <Gold.Chemscore.Rot>
4.0403

> <Gold.Chemscore.Internal.Correction>
   9.000000E+99

> <Gold.Chemscore.Hbonds>
donor molecule, donor type, donor heavy atom, donor atom, acceptor molecule, acceptor atom, score
      L1  H    12    26       P1 10186  1.00
      L1  H    14    27       P1 10747  1.00
      L1  H    16    28       P1 10747  0.92
      P1  H 11000 11005       L1     1  0.09

> <Gold.Chemscore.Hbond.Weighted>
-12.0242

> <Gold.Chemscore.Metal.Weighted>
-0.0000

> <Gold.Chemscore.Lipo.Weighted>
-4.3726

> <Gold.Chemscore.Internal_Hbond.Weighted>
0.0000

> <Gold.Chemscore.DEClash.Weighted>
0.1744

> <Gold.Chemscore.DEInternal.Weighted>
0.7646

> <Gold.Chemscore.Rot.Weighted>
10.3431

> <Gold.Chemscore.Internal.Correction.Weighted>
   9.000000E+99

> <Gold.Protein.RotatedTorsions>
[ 6907 6896 6895 6894 ] final   45.86 input  -60.11 | X-H torsion
[ 7974 7965 7964 7962 ] final  145.99 input  175.53 | X-H torsion
[ 8008 7997 7996 7995 ] final  -76.88 input   59.86 | X-H torsion
[ 10167 10162 10161 10158 ] final  172.66 input  -65.29 | X-H torsion
[ 10718 10713 10712 10709 ] final   12.27 input   66.30 | X-H torsion
[ 10763 10752 10751 10750 ] final -131.90 input  -60.55 | X-H torsion
[ 11005 11000 10999 10996 ] final   21.77 input  -57.11 | X-H torsion

> <Gold.Protein.ActiveResidues>
 VAL166  LYS551  ARG553  GLY616  TRP617  ASP618  TYR619  PRO620  LYS621  CYS622 
 ASP623  PHE694  ASN695  SER759  ASP760  ASP761  ALA762  ILE779  LEU786  VAL792 
 PHE793  MET794  SER795  GLU796  ALA797  LYS798  CYS799  TRP800  GLU811  SER814 

> <Gold.Protein.RotatedAtoms>
  152.2495  134.8147  160.0447 H   0  0  0  0  0  0  0  0  0  0  0  0  # atno 6907 bound_to 6896
  151.8832  133.3494  159.3781 H   0  0  0  0  0  0  0  0  0  0  0  0  # atno 6908 bound_to 6896
  150.7079  134.4924  159.5566 H   0  0  0  0  0  0  0  0  0  0  0  0  # atno 6909 bound_to 6896
  144.8707  139.5851  143.5888 H   0  0  0  0  0  0  0  0  0  0  0  0  # atno 7974 bound_to 7965
  154.5545  140.0720  156.8721 H   0  0  0  0  0  0  0  0  0  0  0  0  # atno 8008 bound_to 7997
  155.2929  140.3379  155.4233 H   0  0  0  0  0  0  0  0  0  0  0  0  # atno 8009 bound_to 7997
  156.1990  140.1714  156.7925 H   0  0  0  0  0  0  0  0  0  0  0  0  # atno 8010 bound_to 7997
  139.5083  144.3349  152.0075 H   0  0  0  0  0  0  0  0  0  0  0  0  # atno 10167 bound_to 10162
  157.0077  130.6104  149.5704 H   0  0  0  0  0  0  0  0  0  0  0  0  # atno 10718 bound_to 10713
  154.8747  135.3815  154.4321 H   0  0  0  0  0  0  0  0  0  0  0  0  # atno 10763 bound_to 10752
  153.5014  135.7030  153.5835 H   0  0  0  0  0  0  0  0  0  0  0  0  # atno 10764 bound_to 10752
  153.4164  135.3912  155.2050 H   0  0  0  0  0  0  0  0  0  0  0  0  # atno 10765 bound_to 10752
  140.3879  134.1850  155.7663 H   0  0  0  0  0  0  0  0  0  0  0  0  # atno 11005 bound_to 11000
  146.2928  139.7189  142.9148 LP  0  0  0  0  0  0  0  0  0  0  0  0  # atno 17320 bound_to 7965
  145.4136  141.0399  143.3003 LP  0  0  0  0  0  0  0  0  0  0  0  0  # atno 17321 bound_to 7965
  140.2788  144.3883  150.6126 LP  0  0  0  0  0  0  0  0  0  0  0  0  # atno 17342 bound_to 10162
  140.6034  143.2167  151.7028 LP  0  0  0  0  0  0  0  0  0  0  0  0  # atno 17343 bound_to 10162
  156.0147  130.5241  150.8099 LP  0  0  0  0  0  0  0  0  0  0  0  0  # atno 17370 bound_to 10713
  157.5343  131.0938  150.9913 LP  0  0  0  0  0  0  0  0  0  0  0  0  # atno 17371 bound_to 10713
  141.1901  133.8224  157.0931 LP  0  0  0  0  0  0  0  0  0  0  0  0  # atno 17394 bound_to 11000
  140.0429  134.9845  157.0995 LP  0  0  0  0  0  0  0  0  0  0  0  0  # atno 17395 bound_to 11000

$$$$
