AV-unprocessed.smi:188|AV-procd|sdf|1473|dock4
  -GOLD-   2262019293D 1   1.00000     0.00000
 Structure written by MMmdl.
 48 52  0  0  0  0  0  0  0  0  2 V2000
  156.2023  138.2241  162.9021 O   0  0  0  0  0  0  0  0  0  0  0  0
  155.3708  138.0775  162.0092 C   0  0  0  0  0  0  0  0  0  0  0  0
  154.3046  137.2547  161.9929 N   0  5  0  0  0  0  0  0  0  0  0  0
  153.6216  137.3746  160.8339 C   0  0  0  0  0  0  0  0  0  0  0  0
  152.6026  136.7959  160.4593 O   0  0  0  0  0  0  0  0  0  0  0  0
  154.3524  138.4214  159.9754 C   0  0  0  0  0  0  0  0  0  0  0  0
  154.9168  137.8375  158.6589 C   0  0  0  0  0  0  0  0  0  0  0  0
  153.8235  137.6148  157.5979 C   0  0  0  0  0  0  0  0  0  0  0  0
  153.0442  138.8356  157.3821 N   0  0  0  0  0  0  0  0  0  0  0  0
  152.2603  138.8896  156.2751 C   0  0  0  0  0  0  0  0  0  0  0  0
  152.3927  137.9486  155.3016 N   0  0  0  0  0  0  0  0  0  0  0  0
  151.6145  137.9843  154.2165 C   0  0  0  0  0  0  0  0  0  0  0  0
  150.6589  138.8610  153.9041 N   0  0  0  0  0  0  0  0  0  0  0  0
  150.5289  139.8163  154.8680 C   0  0  0  0  0  0  0  0  0  0  0  0
  151.2802  139.9029  156.0747 C   0  0  0  0  0  0  0  0  0  0  0  0
  150.8718  141.0122  156.8061 N   0  0  0  0  0  0  0  0  0  0  0  0
  149.9261  141.5427  156.0802 C   0  0  0  0  0  0  0  0  0  0  0  0
  149.6620  140.8953  154.8940 N   0  0  0  0  0  0  0  0  0  0  0  0
  148.6671  141.2759  153.9023 C   0  0  0  0  0  0  0  0  0  0  0  0
  147.2074  141.0303  154.3394 C   0  0  0  0  0  0  0  0  0  0  0  0
  146.3311  142.2616  154.0486 C   0  0  0  0  0  0  0  0  0  0  0  0
  144.9838  142.0346  154.4111 O   0  0  0  0  0  0  0  0  0  0  0  0
  146.5872  139.6964  153.8977 C   0  0  0  0  0  0  0  0  0  0  0  0
  146.1535  139.3910  155.2394 O   0  0  0  0  0  0  0  0  0  0  0  0
  147.0246  140.4274  155.7392 C   0  0  0  0  0  0  0  0  0  0  0  0
  152.4313  139.4029  158.5833 C   0  0  0  0  0  0  0  0  0  0  0  0
  153.4881  139.6681  159.6719 C   0  0  0  0  0  0  0  0  0  0  0  0
  155.4350  138.7677  160.8724 N   0  0  0  0  0  0  0  0  0  0  0  0
  155.6650  138.5204  158.2539 H   0  0  0  0  0  0  0  0  0  0  0  0
  155.4374  136.8973  158.8475 H   0  0  0  0  0  0  0  0  0  0  0  0
  154.2917  137.3028  156.6634 H   0  0  0  0  0  0  0  0  0  0  0  0
  153.1567  136.8080  157.9029 H   0  0  0  0  0  0  0  0  0  0  0  0
  151.7821  137.1972  153.4961 H   0  0  0  0  0  0  0  0  0  0  0  0
  149.3976  142.4334  156.3880 H   0  0  0  0  0  0  0  0  0  0  0  0
  148.8232  142.3283  153.6618 H   0  0  0  0  0  0  0  0  0  0  0  0
  148.8823  140.7340  152.9805 H   0  0  0  0  0  0  0  0  0  0  0  0
  146.6978  143.1490  154.5647 H   0  0  0  0  0  0  0  0  0  0  0  0
  146.3530  142.5035  152.9855 H   0  0  0  0  0  0  0  0  0  0  0  0
  144.6295  141.3664  153.8443 H   0  0  0  0  0  0  0  0  0  0  0  0
  145.7574  139.8005  153.1977 H   0  0  0  0  0  0  0  0  0  0  0  0
  147.3095  138.9625  153.5382 H   0  0  0  0  0  0  0  0  0  0  0  0
  147.9402  140.0154  156.1668 H   0  0  0  0  0  0  0  0  0  0  0  0
  146.5269  141.0890  156.4491 H   0  0  0  0  0  0  0  0  0  0  0  0
  151.9111  140.3339  158.3611 H   0  0  0  0  0  0  0  0  0  0  0  0
  151.6726  138.7110  158.9499 H   0  0  0  0  0  0  0  0  0  0  0  0
  152.9957  140.0230  160.5786 H   0  0  0  0  0  0  0  0  0  0  0  0
  154.1342  140.4831  159.3423 H   0  0  0  0  0  0  0  0  0  0  0  0
  156.1458  139.4488  160.6504 H   0  0  0  0  0  0  0  0  0  0  0  0
  1  2  2  0  0  0  0
  2 28  1  0  0  0  0
  2  3  1  0  0  0  0
  3  4  1  0  0  0  0
  4  5  2  0  0  0  0
  4  6  1  0  0  0  0
  6 27  1  0  0  0  0
  6  7  1  0  0  0  0
  6 28  1  0  0  0  0
  7  8  1  0  0  0  0
  7 29  1  0  0  0  0
  7 30  1  0  0  0  0
  8  9  1  0  0  0  0
  8 31  1  0  0  0  0
  8 32  1  0  0  0  0
  9 10  1  0  0  0  0
  9 26  1  0  0  0  0
 10 15  1  0  0  0  0
 10 11  2  0  0  0  0
 11 12  1  0  0  0  0
 12 13  2  0  0  0  0
 12 33  1  0  0  0  0
 13 14  1  0  0  0  0
 14 18  1  0  0  0  0
 14 15  2  0  0  0  0
 15 16  1  0  0  0  0
 16 17  2  0  0  0  0
 17 18  1  0  0  0  0
 17 34  1  0  0  0  0
 18 19  1  0  0  0  0
 19 20  1  0  0  0  0
 19 35  1  0  0  0  0
 19 36  1  0  0  0  0
 20 25  1  0  0  0  0
 20 21  1  0  0  0  0
 20 23  1  0  0  0  0
 21 22  1  0  0  0  0
 21 37  1  0  0  0  0
 21 38  1  0  0  0  0
 22 39  1  0  0  0  0
 23 24  1  0  0  0  0
 23 40  1  0  0  0  0
 23 41  1  0  0  0  0
 24 25  1  0  0  0  0
 25 42  1  0  0  0  0
 25 43  1  0  0  0  0
 26 27  1  0  0  0  0
 26 44  1  0  0  0  0
 26 45  1  0  0  0  0
 27 46  1  0  0  0  0
 27 47  1  0  0  0  0
 28 48  1  0  0  0  0
M  CHG  1   3  -1
M  END
> <s_m_source_file>
AV-unprocessed.smi

> <i_m_source_file_index>
188

> <i_lp_mmshare_version>
43012

> <i_f3d_flags>
0

> <s_epik_input>
Tz1DKFtOSF0xKVtOSF1DKD1PKUMxMltDSDJdW0NIMl1OKFtDSDJdW0NIMl0yKWMobltjSF1uMyljKGMzNCluW2NIXW40W0NIMl1DNShbQ0gyXVtPSF0pW0NIMl1PW0NIMl01

> <s_epik_cmdline>
J2VwaWtfcHl0aG9uJywgJy1waCcsICc3LjAnLCAnLXRuJywgJzgnLCAnLW1hJywgJzIwMCcsICctbWV0YWxfYmluZGluZycsICctaW1hZScsICc8aW5maWxlLm1hZT4nLCAnLW9tYWUnLCAnPG91dGZpbGUubWFlPic=

> <r_lp_tautomer_probability>
1

> <r_epik_Ionization_Penalty>
2.63631

> <r_epik_Ionization_Penalty_Charging>
2.63472

> <r_epik_Ionization_Penalty_Neutral>
0.0015918

> <r_epik_State_Penalty>
2.63293

> <r_epik_Charging_Adjusted_Penalty>
5.26764

> <i_epik_Tot_Q>
-1

> <i_epik_Tot_abs_Q>
1

> <r_epik_Metal_State_Penalty>
0.446503

> <b_epik_Metal_Only>
1

> <s_lp_Force_Field>
OPLS_2005

> <r_lp_Energy>
37.7824

> <b_lp_Chiralities_Consistent>
1

> <s_lp_Variant>
AV-unprocessed.smi:188-2

> <Gold.Version>
5.8.1

> <Gold.Id.Protein>
6NUR|6NUR_protein|mol2

> <Gold.PLP.Fitness>
47.5955

> <Gold.PLP.PLP>
-35.1928

> <Gold.PLP.part.hbond>
-3.4742

> <Gold.PLP.part.metal>
0.0000

> <Gold.PLP.part.buried>
-3.5525

> <Gold.PLP.part.nonpolar>
-29.9484

> <Gold.PLP.part.repulsive>
0.3379

> <Gold.PLP.ligand.clash>
0.0000

> <Gold.PLP.ligand.torsion>
1.6517

> <Gold.PLP.Chemscore.Hbond>
3.0000

> <Gold.PLP.Chemscore.CHOScore>
2.0000

> <Gold.PLP.Chemscore.Metal>
0.0000

> <Gold.Chemscore.Hbonds>
donor molecule, donor type, donor heavy atom, donor atom, acceptor molecule, acceptor atom, score
      L1  H    22    39       P1 10175  1.00
      P1  H  6896  6908       L1     5  1.00
      P1  H  7997  8009       L1     9  0.95
      L1  C    12    33       P1  7949  1.00
      L1  C    17    34       P1  8028  1.00

> <Gold.PLP.Chemscore.Internal.Correction>
0.7061

> <Gold.Rescore>
     Score         DG    S(hbond)    S(metal)    S(lipo)     H(rot)  DE(clash)    DE(int)     intcor
      7.03     -10.85       1.85        0.00      55.36       2.84       0.02       3.79       ----

> <Gold.Chemscore.Fitness>
7.0348

> <Gold.Chemscore.DG>
-10.8469

> <Gold.Chemscore.ZeroCoef>
-5.4800

> <Gold.Chemscore.Hbond>
1.8480

> <Gold.Chemscore.Metal>
0.0000

> <Gold.Chemscore.Lipo>
55.3635

> <Gold.Chemscore.Internal_Hbond>
0.0000

> <Gold.Chemscore.DEClash>
0.0198

> <Gold.Chemscore.DEInternal>
3.7923

> <Gold.Chemscore.Rot>
2.8450

> <Gold.Chemscore.Internal.Correction>
   9.000000E+99

> <Gold.Chemscore.Hbonds>
donor molecule, donor type, donor heavy atom, donor atom, acceptor molecule, acceptor atom, score
      L1  H    22    39       P1 10175  0.30
      P1  H  6896  6908       L1     5  1.00
      P1  H  7997  8009       L1     9  0.03

> <Gold.Chemscore.Hbond.Weighted>
-6.1725

> <Gold.Chemscore.Metal.Weighted>
-0.0000

> <Gold.Chemscore.Lipo.Weighted>
-6.4775

> <Gold.Chemscore.Internal_Hbond.Weighted>
0.0000

> <Gold.Chemscore.DEClash.Weighted>
0.0198

> <Gold.Chemscore.DEInternal.Weighted>
3.7923

> <Gold.Chemscore.Rot.Weighted>
7.2831

> <Gold.Chemscore.Internal.Correction.Weighted>
   9.000000E+99

> <Gold.Protein.RotatedTorsions>
[ 6907 6896 6895 6894 ] final  -98.10 input  -60.11 | X-H torsion
[ 7974 7965 7964 7962 ] final -108.08 input  175.53 | X-H torsion
[ 8008 7997 7996 7995 ] final  166.86 input   59.86 | X-H torsion
[ 10167 10162 10161 10158 ] final   15.39 input  -65.29 | X-H torsion
[ 10718 10713 10712 10709 ] final   17.87 input   66.30 | X-H torsion
[ 10763 10752 10751 10750 ] final -129.85 input  -60.55 | X-H torsion
[ 11005 11000 10999 10996 ] final  106.09 input  -57.11 | X-H torsion

> <Gold.Protein.ActiveResidues>
 VAL166  LYS551  ARG553  GLY616  TRP617  ASP618  TYR619  PRO620  LYS621  CYS622 
 ASP623  PHE694  ASN695  SER759  ASP760  ASP761  ALA762  ILE779  LEU786  VAL792 
 PHE793  MET794  SER795  GLU796  ALA797  LYS798  CYS799  TRP800  GLU811  SER814 

> <Gold.Protein.RotatedAtoms>
  150.7036  134.1247  159.4047 H   0  0  0  0  0  0  0  0  0  0  0  0  # atno 6907 bound_to 6896
  151.9233  135.0286  160.0533 H   0  0  0  0  0  0  0  0  0  0  0  0  # atno 6908 bound_to 6896
  152.2238  133.4969  159.5214 H   0  0  0  0  0  0  0  0  0  0  0  0  # atno 6909 bound_to 6896
  145.1974  140.9041  143.3389 H   0  0  0  0  0  0  0  0  0  0  0  0  # atno 7974 bound_to 7965
  156.1683  140.1632  156.8493 H   0  0  0  0  0  0  0  0  0  0  0  0  # atno 8008 bound_to 7997
  154.5230  140.0774  156.8241 H   0  0  0  0  0  0  0  0  0  0  0  0  # atno 8009 bound_to 7997
  155.3566  140.3393  155.4242 H   0  0  0  0  0  0  0  0  0  0  0  0  # atno 8010 bound_to 7997
  140.5870  143.8870  150.6839 H   0  0  0  0  0  0  0  0  0  0  0  0  # atno 10167 bound_to 10162
  157.0883  130.6417  149.5842 H   0  0  0  0  0  0  0  0  0  0  0  0  # atno 10718 bound_to 10713
  154.8757  135.3882  154.3987 H   0  0  0  0  0  0  0  0  0  0  0  0  # atno 10763 bound_to 10752
  153.4714  135.7030  153.5996 H   0  0  0  0  0  0  0  0  0  0  0  0  # atno 10764 bound_to 10752
  153.4451  135.3847  155.2219 H   0  0  0  0  0  0  0  0  0  0  0  0  # atno 10765 bound_to 10752
  139.8810  134.9357  156.5613 H   0  0  0  0  0  0  0  0  0  0  0  0  # atno 11005 bound_to 11000
  144.9982  139.3624  143.6181 LP  0  0  0  0  0  0  0  0  0  0  0  0  # atno 17320 bound_to 7965
  146.3424  139.9193  142.8769 LP  0  0  0  0  0  0  0  0  0  0  0  0  # atno 17321 bound_to 7965
  140.2383  143.3683  152.1508 LP  0  0  0  0  0  0  0  0  0  0  0  0  # atno 17342 bound_to 10162
  139.5204  144.7032  151.5432 LP  0  0  0  0  0  0  0  0  0  0  0  0  # atno 17343 bound_to 10162
  155.9905  130.4956  150.7259 LP  0  0  0  0  0  0  0  0  0  0  0  0  # atno 17370 bound_to 10713
  157.4743  131.0896  151.0608 LP  0  0  0  0  0  0  0  0  0  0  0  0  # atno 17371 bound_to 10713
  140.8167  133.8386  155.8858 LP  0  0  0  0  0  0  0  0  0  0  0  0  # atno 17394 bound_to 11000
  140.9456  134.1845  157.4766 LP  0  0  0  0  0  0  0  0  0  0  0  0  # atno 17395 bound_to 11000

$$$$
