#       Name:                AV-unprocessed.smi:197
#       Creating user name   scv26
#       Creation time:       Thu Mar 26 19:41:51 2020


#       File generated by GOLD software.
#

@<TRIPOS>MOLECULE
AV-unprocessed.smi:197
    66    69     1
SMALL
NO_CHARGES


@<TRIPOS>ATOM
      1 ****        -1.3402  -0.1297   4.3347 C.3            1 S1                 0.0000
      2 ****        -2.7154   0.1285   4.0963 O.3            1 S1                 0.0000
      3 ****        -3.1255  -0.0868   2.7529 C.3            1 S1                 0.0000
      4 ****        -2.7419   1.0942   1.8421 C.3            1 S1                 0.0000
      5 ****        -3.1658   0.9051   0.3646 C.3            1 S1                 0.0000
      6 ****        -4.6944   0.9880   0.1589 C.3            1 S1                 0.0000
      7 ****        -5.1481   2.3203   0.3782 O.3            1 S1                 0.0000
      8 ****        -4.5787   3.2357  -0.5514 C.3            1 S1                 0.0000
      9 ****        -3.0490   3.2439  -0.4032 C.3            1 S1                 0.0000
     10 ****        -2.5251   1.8835  -0.5204 N.3            1 S1                 0.0000
     11 ****        -1.1922   1.7266  -0.7393 C.ar           1 S1                 0.0000
     12 ****        -0.3387   2.7436  -0.4427 N.ar           1 S1                 0.0000
     13 ****         0.9766   2.6009  -0.6266 C.ar           1 S1                 0.0000
     14 ****         1.6435   1.5430  -1.0900 N.ar           1 S1                 0.0000
     15 ****         0.7955   0.5209  -1.3988 C.ar           1 S1                 0.0000
     16 ****        -0.6221   0.5292  -1.2604 C.ar           1 S1                 0.0000
     17 ****        -1.1425  -0.6840  -1.6965 N.2            1 S1                 0.0000
     18 ****        -0.0945  -1.3736  -2.0549 C.2            1 S1                 0.0000
     19 ****         1.1117  -0.7292  -1.9013 N.pl3          1 S1                 0.0000
     20 ****         2.4284  -1.2623  -2.2158 C.3            1 S1                 0.0000
     21 ****         3.0456  -2.0962  -1.0624 C.3            1 S1                 0.0000
     22 ****         2.1958  -3.2074  -0.8281 O.3            1 S1                 0.0000
     23 ****         3.1803  -1.3268   0.2476 C.3            1 S1                 0.0000
     24 ****         4.3418  -2.0278   0.9351 C.3            1 S1                 0.0000
     25 ****         5.2310  -2.2777  -0.1391 O.3            1 S1                 0.0000
     26 ****         4.4816  -2.6449  -1.2956 C.3            1 S1                 0.0000
     27 ****         5.2368  -2.1020  -2.5192 C.3            1 S1                 0.0000
     28 ****        -1.1270   0.0020   5.3953 H              1 S1                 0.0000
     29 ****        -0.6938   0.5522   3.7829 H              1 S1                 0.0000
     30 ****        -1.0782  -1.1541   4.0672 H              1 S1                 0.0000
     31 ****        -2.7224  -1.0262   2.3712 H              1 S1                 0.0000
     32 ****        -4.2086  -0.2005   2.7711 H              1 S1                 0.0000
     33 ****        -3.1676   2.0146   2.2428 H              1 S1                 0.0000
     34 ****        -1.6612   1.2231   1.8813 H              1 S1                 0.0000
     35 ****        -2.8630  -0.0964   0.0656 H              1 S1                 0.0000
     36 ****        -4.9578   0.6752  -0.8530 H              1 S1                 0.0000
     37 ****        -5.2242   0.3147   0.8310 H              1 S1                 0.0000
     38 ****        -4.8676   2.9631  -1.5678 H              1 S1                 0.0000
     39 ****        -4.9798   4.2315  -0.3629 H              1 S1                 0.0000
     40 ****        -2.6160   3.8836  -1.1736 H              1 S1                 0.0000
     41 ****        -2.7672   3.6646   0.5628 H              1 S1                 0.0000
     42 ****         1.5810   3.4561  -0.3623 H              1 S1                 0.0000
     43 ****        -0.1716  -2.3804  -2.4393 H              1 S1                 0.0000
     44 ****         2.3418  -1.8679  -3.1188 H              1 S1                 0.0000
     45 ****         3.0736  -0.4208  -2.4691 H              1 S1                 0.0000
     46 ****         2.5632  -3.7210  -0.1250 H              1 S1                 0.0000
     47 ****         3.4657  -0.2936   0.0474 H              1 S1                 0.0000
     48 ****         2.2694  -1.3102   0.8476 H              1 S1                 0.0000
     49 ****         4.8071  -1.4170   1.7088 H              1 S1                 0.0000
     50 ****         4.0257  -2.9722   1.3804 H              1 S1                 0.0000
     51 ****         4.4693  -3.7350  -1.3553 H              1 S1                 0.0000
     52 ****         4.7265  -2.3552  -3.4486 H              1 S1                 0.0000
     53 ****         6.2385  -2.5291  -2.5720 H              1 S1                 0.0000
     54 ****         5.3471  -1.0183  -2.4730 H              1 S1                 0.0000
     55 ****        -2.9004   1.0828   4.3313 LP             1 S1                 0.0000
     56 ****        -3.2540  -0.4710   4.6883 LP             1 S1                 0.0000
     57 ****        -4.8939   2.6000   1.3041 LP             1 S1                 0.0000
     58 ****        -6.1434   2.3422   0.2849 LP             1 S1                 0.0000
     59 ****        -2.8477   1.6261  -1.4312 LP             1 S1                 0.0000
     60 ****        -0.6988   3.6049  -0.0841 LP             1 S1                 0.0000
     61 ****         2.6370   1.5044  -1.1971 LP             1 S1                 0.0000
     62 ****        -2.1018  -0.9643  -1.7283 LP             1 S1                 0.0000
     63 ****         2.1326  -3.7646  -1.6560 LP             1 S1                 0.0000
     64 ****         1.2840  -2.8870  -0.5715 LP             1 S1                 0.0000
     65 ****         5.8515  -3.0222   0.1072 LP             1 S1                 0.0000
     66 ****         5.7612  -1.4522  -0.3328 LP             1 S1                 0.0000
@<TRIPOS>BOND
    1    1    2 1     
    2    1   28 1     
    3    1   29 1     
    4    1   30 1     
    5    2    3 1     
    6    3    4 1     
    7    3   31 1     
    8    3   32 1     
    9    4    5 1     
   10    4   33 1     
   11    4   34 1     
   12    5   10 1     
   13    5    6 1     
   14    5   35 1     
   15    6    7 1     
   16    6   36 1     
   17    6   37 1     
   18    7    8 1     
   19    8    9 1     
   20    8   38 1     
   21    8   39 1     
   22    9   10 1     
   23    9   40 1     
   24    9   41 1     
   25   10   11 1     
   26   11   16 ar    
   27   11   12 ar    
   28   12   13 ar    
   29   13   14 ar    
   30   13   42 1     
   31   14   15 ar    
   32   15   19 1     
   33   15   16 ar    
   34   16   17 1     
   35   17   18 2     
   36   18   19 1     
   37   18   43 1     
   38   19   20 1     
   39   20   21 1     
   40   20   44 1     
   41   20   45 1     
   42   21   26 1     
   43   21   22 1     
   44   21   23 1     
   45   22   46 1     
   46   23   24 1     
   47   23   47 1     
   48   23   48 1     
   49   24   25 1     
   50   24   49 1     
   51   24   50 1     
   52   25   26 1     
   53   26   27 1     
   54   26   51 1     
   55   27   52 1     
   56   27   53 1     
   57   27   54 1     
   58    2   55 1     
   59    2   56 1     
   60    7   57 1     
   61    7   58 1     
   62   10   59 1     
   63   12   60 1     
   64   14   61 1     
   65   17   62 1     
   66   22   63 1     
   67   22   64 1     
   68   25   65 1     
   69   25   66 1     
@<TRIPOS>SUBSTRUCTURE
      1 S1             1
@<TRIPOS>SET
LONE_PAIRS      STATIC     ATOMS    <user>   **** ""
12 55 56 57 58 59 60 61 62 63 64 65 66
DONOR_HYDROGENS      STATIC     ATOMS    <user>   **** ""
1 46
ATOM$BLUE        STATIC     ATOMS    COLORGROUP SYSTEM
12 55 56 57 58 59 60 61 62 63 64 65 66
ATOM$RED        STATIC     ATOMS    COLORGROUP SYSTEM
1 46
