#       Name:                AV-unprocessed.smi:127
#       Creating user name   scv26
#       Creation time:       Thu Mar 26 18:29:03 2020


#       File generated by GOLD software.
#

@<TRIPOS>MOLECULE
AV-unprocessed.smi:127
    38    39     1
SMALL
NO_CHARGES


@<TRIPOS>ATOM
      1 ****        -4.1612   1.2651  -0.6142 O.co2          1 S1                 0.0000
      2 ****        -3.7209   0.8967  -1.7250 C.2            1 S1                 0.0000
      3 ****        -3.8333   1.5280  -2.7983 O.co2          1 S1                -1.0000
      4 ****        -2.9766  -0.4411  -1.7746 C.3            1 S1                 0.0000
      5 ****        -1.5559  -0.3056  -1.4848 N.am           1 S1                 0.0000
      6 ****        -0.6693  -0.1610  -2.5823 C.2            1 S1                 0.0000
      7 ****        -1.0717  -0.0202  -3.7386 O.2            1 S1                 0.0000
      8 ****         0.7459  -0.1849  -2.2288 C.2            1 S1                 0.0000
      9 ****         1.6740  -0.0254  -3.1878 F              1 S1                 0.0000
     10 ****         1.1434  -0.3628  -0.9510 C.2            1 S1                 0.0000
     11 ****         0.2571  -0.5385   0.0977 N.am           1 S1                 0.0000
     12 ****         0.7435  -0.7339   1.5167 C.3            1 S1                 0.0000
     13 ****         0.7996   0.6125   2.2473 C.3            1 S1                 0.0000
     14 ****         2.2375   1.0272   2.0237 C.3            1 S1                 0.0000
     15 ****         2.9541  -0.3177   2.0656 C.3            1 S1                 0.0000
     16 ****         2.0433  -1.2512   1.4896 O.3            1 S1                 0.0000
     17 ****        -1.1334  -0.5104  -0.1482 C.2            1 S1                 0.0000
     18 ****        -1.9375  -0.6491   0.7768 O.2            1 S1                 0.0000
     19 ****        -3.4078  -1.1536  -1.0697 H              1 S1                 0.0000
     20 ****        -3.0866  -0.9148  -2.7514 H              1 S1                 0.0000
     21 ****         2.2049  -0.3645  -0.7535 H              1 S1                 0.0000
     22 ****         0.0689  -1.4599   1.9731 H              1 S1                 0.0000
     23 ****         0.0658   1.3248   1.8679 H              1 S1                 0.0000
     24 ****         0.6112   0.4410   3.3078 H              1 S1                 0.0000
     25 ****         2.3492   1.4864   1.0408 H              1 S1                 0.0000
     26 ****         2.6030   1.7298   2.7729 H              1 S1                 0.0000
     27 ****         3.9046  -0.3042   1.5318 H              1 S1                 0.0000
     28 ****         3.1476  -0.6125   3.0978 H              1 S1                 0.0000
     29 ****        -4.6514   2.1330  -0.5336 LP             1 S1                 0.0000
     30 ****        -4.0231   0.6919   0.1934 LP             1 S1                 0.0000
     31 ****        -4.3091   2.4074  -2.8137 LP             1 S1                 0.0000
     32 ****        -3.4474   1.1535  -3.6415 LP             1 S1                 0.0000
     33 ****        -2.0535  -0.0051  -3.9280 LP             1 S1                 0.0000
     34 ****        -0.4164   0.0789  -4.4875 LP             1 S1                 0.0000
     35 ****         2.3083  -1.4304   0.5421 LP             1 S1                 0.0000
     36 ****         2.0707  -2.1044   2.0104 LP             1 S1                 0.0000
     37 ****        -2.9201  -0.6185   0.5939 LP             1 S1                 0.0000
     38 ****        -1.6067  -0.7921   1.7096 LP             1 S1                 0.0000
@<TRIPOS>BOND
    1    1    2 ar    
    2    2    3 ar    
    3    2    4 1     
    4    4    5 1     
    5    4   19 1     
    6    4   20 1     
    7    5   17 am    
    8    5    6 am    
    9    6    7 2     
   10    6    8 1     
   11    8    9 1     
   12    8   10 2     
   13   10   11 1     
   14   10   21 1     
   15   11   12 1     
   16   11   17 am    
   17   12   16 1     
   18   12   13 1     
   19   12   22 1     
   20   13   14 1     
   21   13   23 1     
   22   13   24 1     
   23   14   15 1     
   24   14   25 1     
   25   14   26 1     
   26   15   16 1     
   27   15   27 1     
   28   15   28 1     
   29   17   18 2     
   30    1   29 1     
   31    1   30 1     
   32    3   31 1     
   33    3   32 1     
   34    7   33 1     
   35    7   34 1     
   36   16   35 1     
   37   16   36 1     
   38   18   37 1     
   39   18   38 1     
@<TRIPOS>SUBSTRUCTURE
      1 S1             1
@<TRIPOS>SET
LONE_PAIRS      STATIC     ATOMS    <user>   **** ""
10 29 30 31 32 33 34 35 36 37 38
ATOM$BLUE        STATIC     ATOMS    COLORGROUP SYSTEM
10 29 30 31 32 33 34 35 36 37 38
