#       Name:                AV-unprocessed.smi:228
#       Creating user name   scv26
#       Creation time:       Thu Mar 26 20:25:29 2020


#       File generated by GOLD software.
#

@<TRIPOS>MOLECULE
AV-unprocessed.smi:228
    72    75     1
SMALL
NO_CHARGES


@<TRIPOS>ATOM
      1 ****        -3.7213  -2.4884   0.5544 C.3            1 S1                 0.0000
      2 ****        -3.0779  -1.2150   0.2558 N.3            1 S1                 0.0000
      3 ****        -3.8112  -0.0081   0.6465 C.3            1 S1                 0.0000
      4 ****        -3.3419   1.2637  -0.0982 C.3            1 S1                 0.0000
      5 ****        -4.1787   1.4489  -1.2220 O.3            1 S1                 0.0000
      6 ****        -3.4599   2.5182   0.7897 C.3            1 S1                 0.0000
      7 ****        -2.8183   3.7066   0.1731 N.4            1 S1                 1.0000
      8 ****        -3.3960   4.9828   0.6566 C.3            1 S1                 0.0000
      9 ****        -2.7373   6.1749  -0.0585 C.3            1 S1                 0.0000
     10 ****        -1.3304   6.1361   0.1452 O.3            1 S1                 0.0000
     11 ****        -0.7472   4.9539  -0.3891 C.3            1 S1                 0.0000
     12 ****        -1.3405   3.7225   0.3155 C.3            1 S1                 0.0000
     13 ****        -1.7360  -1.2493   0.4693 C.ar           1 S1                 0.0000
     14 ****        -1.1838  -0.4934   1.4568 N.ar           1 S1                 0.0000
     15 ****         0.1352  -0.5154   1.6658 C.ar           1 S1                 0.0000
     16 ****         1.0696  -1.2074   1.0134 N.ar           1 S1                 0.0000
     17 ****         0.5255  -1.9704   0.0222 C.ar           1 S1                 0.0000
     18 ****        -0.8564  -2.0505  -0.3115 C.ar           1 S1                 0.0000
     19 ****        -1.0350  -2.9175  -1.3822 N.2            1 S1                 0.0000
     20 ****         0.1702  -3.3328  -1.6610 C.2            1 S1                 0.0000
     21 ****         1.1706  -2.8129  -0.8698 N.pl3          1 S1                 0.0000
     22 ****         2.5753  -3.0953  -0.9751 C.3            1 S1                 0.0000
     23 ****         3.3905  -3.5550   0.2369 C.3            1 S1                 0.0000
     24 ****         4.6180  -2.7889  -0.3102 C.3            1 S1                 0.0000
     25 ****         5.4625  -2.0205   0.7257 C.3            1 S1                 0.0000
     26 ****         4.6756  -1.2021   1.5685 O.3            1 S1                 0.0000
     27 ****         5.5847  -3.6624  -1.1311 C.3            1 S1                 0.0000
     28 ****         6.4506  -2.8771  -1.9256 O.3            1 S1                 0.0000
     29 ****         3.6001  -1.9703  -1.1394 C.3            1 S1                 0.0000
     30 ****        -3.3844  -3.2730  -0.1231 H              1 S1                 0.0000
     31 ****        -4.8039  -2.4108   0.4501 H              1 S1                 0.0000
     32 ****        -3.5028  -2.8002   1.5767 H              1 S1                 0.0000
     33 ****        -4.8820  -0.1560   0.4988 H              1 S1                 0.0000
     34 ****        -3.6877   0.1203   1.7227 H              1 S1                 0.0000
     35 ****        -2.3180   1.1528  -0.4507 H              1 S1                 0.0000
     36 ****        -4.1281   0.6761  -1.7646 H              1 S1                 0.0000
     37 ****        -4.5161   2.7161   0.9806 H              1 S1                 0.0000
     38 ****        -3.0050   2.3417   1.7656 H              1 S1                 0.0000
     39 ****        -4.4712   4.9958   0.4737 H              1 S1                 0.0000
     40 ****        -3.2517   5.0655   1.7350 H              1 S1                 0.0000
     41 ****        -2.9630   6.1621  -1.1262 H              1 S1                 0.0000
     42 ****        -3.1264   7.1130   0.3379 H              1 S1                 0.0000
     43 ****        -0.9133   4.9051  -1.4665 H              1 S1                 0.0000
     44 ****         0.3312   4.9912  -0.2343 H              1 S1                 0.0000
     45 ****        -1.0743   3.7387   1.3736 H              1 S1                 0.0000
     46 ****        -0.9015   2.8195  -0.1072 H              1 S1                 0.0000
     47 ****         0.4938   0.1113   2.4688 H              1 S1                 0.0000
     48 ****         0.3620  -4.0322  -2.4619 H              1 S1                 0.0000
     49 ****         2.6865  -3.8149  -1.7886 H              1 S1                 0.0000
     50 ****         3.0093  -3.1597   1.1787 H              1 S1                 0.0000
     51 ****         3.5201  -4.6358   0.3019 H              1 S1                 0.0000
     52 ****         6.0214  -2.7109   1.3579 H              1 S1                 0.0000
     53 ****         6.1955  -1.3779   0.2374 H              1 S1                 0.0000
     54 ****         5.2473  -0.7609   2.1781 H              1 S1                 0.0000
     55 ****         6.1863  -4.2983  -0.4809 H              1 S1                 0.0000
     56 ****         5.0412  -4.3340  -1.7962 H              1 S1                 0.0000
     57 ****         7.0166  -3.4546  -2.4149 H              1 S1                 0.0000
     58 ****         3.8934  -1.7839  -2.1730 H              1 S1                 0.0000
     59 ****         3.2912  -1.0425  -0.6572 H              1 S1                 0.0000
     60 ****        -3.0249   3.6601  -0.8148 H              1 S1                 0.0000
     61 ****        -3.1494  -1.0965  -0.7346 LP             1 S1                 0.0000
     62 ****        -3.8734   2.2467  -1.7420 LP             1 S1                 0.0000
     63 ****        -5.1220   1.5884  -0.9208 LP             1 S1                 0.0000
     64 ****        -1.1452   6.1721   1.1273 LP             1 S1                 0.0000
     65 ****        -0.9175   6.9300  -0.3011 LP             1 S1                 0.0000
     66 ****        -1.7685   0.0816   2.0290 LP             1 S1                 0.0000
     67 ****         2.0465  -1.1716   1.2242 LP             1 S1                 0.0000
     68 ****        -1.8910  -3.1663  -1.8354 LP             1 S1                 0.0000
     69 ****         4.0196  -1.7664   2.0696 LP             1 S1                 0.0000
     70 ****         4.1833  -0.5270   1.0190 LP             1 S1                 0.0000
     71 ****         7.0010  -2.2834  -1.3385 LP             1 S1                 0.0000
     72 ****         5.9139  -2.3169  -2.5566 LP             1 S1                 0.0000
@<TRIPOS>BOND
    1    1    2 1     
    2    1   30 1     
    3    1   31 1     
    4    1   32 1     
    5    2    3 1     
    6    2   13 1     
    7    3    4 1     
    8    3   33 1     
    9    3   34 1     
   10    4    5 1     
   11    4    6 1     
   12    4   35 1     
   13    5   36 1     
   14    6    7 1     
   15    6   37 1     
   16    6   38 1     
   17    7   12 1     
   18    7    8 1     
   19    7   60 1     
   20    8    9 1     
   21    8   39 1     
   22    8   40 1     
   23    9   10 1     
   24    9   41 1     
   25    9   42 1     
   26   10   11 1     
   27   11   12 1     
   28   11   43 1     
   29   11   44 1     
   30   12   45 1     
   31   12   46 1     
   32   13   18 ar    
   33   13   14 ar    
   34   14   15 ar    
   35   15   16 ar    
   36   15   47 1     
   37   16   17 ar    
   38   17   21 1     
   39   17   18 ar    
   40   18   19 1     
   41   19   20 2     
   42   20   21 1     
   43   20   48 1     
   44   21   22 1     
   45   22   29 1     
   46   22   23 1     
   47   22   49 1     
   48   23   24 1     
   49   23   50 1     
   50   23   51 1     
   51   24   25 1     
   52   24   27 1     
   53   24   29 1     
   54   25   26 1     
   55   25   52 1     
   56   25   53 1     
   57   26   54 1     
   58   27   28 1     
   59   27   55 1     
   60   27   56 1     
   61   28   57 1     
   62   29   58 1     
   63   29   59 1     
   64    2   61 1     
   65    5   62 1     
   66    5   63 1     
   67   10   64 1     
   68   10   65 1     
   69   14   66 1     
   70   16   67 1     
   71   19   68 1     
   72   26   69 1     
   73   26   70 1     
   74   28   71 1     
   75   28   72 1     
@<TRIPOS>SUBSTRUCTURE
      1 S1             1
@<TRIPOS>SET
LONE_PAIRS      STATIC     ATOMS    <user>   **** ""
12 61 62 63 64 65 66 67 68 69 70 71 72
DONOR_HYDROGENS      STATIC     ATOMS    <user>   **** ""
4 36 60 54 57
ATOM$BLUE        STATIC     ATOMS    COLORGROUP SYSTEM
12 61 62 63 64 65 66 67 68 69 70 71 72
ATOM$RED        STATIC     ATOMS    COLORGROUP SYSTEM
4 36 60 54 57
