#       Name:                AV-unprocessed.smi:758
#       Creating user name   scv26
#       Creation time:       Fri Mar 27 01:01:30 2020


#       File generated by GOLD software.
#

@<TRIPOS>MOLECULE
AV-unprocessed.smi:758
    53    54     1
SMALL
NO_CHARGES


@<TRIPOS>ATOM
      1 ****        -3.9179  -0.5170   1.0053 C.3            1 S1                 0.0000
      2 ****        -3.1235  -1.8319   0.8479 C.3            1 S1                 0.0000
      3 ****        -3.4932  -2.7680   2.0204 C.3            1 S1                 0.0000
      4 ****        -3.5922  -2.5345  -0.4462 C.3            1 S1                 0.0000
      5 ****        -1.5736  -1.5909   0.8095 C.3            1 S1                 0.0000
      6 ****        -0.9911  -0.9847   2.1105 C.3            1 S1                 0.0000
      7 ****         0.5433  -0.8779   2.0650 C.3            1 S1                 0.0000
      8 ****         1.0627  -0.0728   0.8545 C.3            1 S1                 0.0000
      9 ****         0.6588   1.2734   1.0342 O.3            1 S1                 0.0000
     10 ****         2.6119  -0.0930   0.8435 C.3            1 S1                 0.0000
     11 ****         3.1847   0.4658  -0.3784 N.am           1 S1                 0.0000
     12 ****         3.6183   1.7274  -0.5212 C.2            1 S1                 0.0000
     13 ****         3.6266   2.5513   0.3934 O.2            1 S1                 0.0000
     14 ****         4.0976   2.1296  -1.9166 C.3            1 S1                 0.0000
     15 ****         3.1574   3.0386  -2.5488 N.pl3          1 S1                 0.0000
     16 ****         1.8933   2.8538  -2.9373 C.2            1 S1                 0.0000
     17 ****         1.3431   3.9219  -3.4979 N.2            1 S1                 0.0000
     18 ****         2.3973   4.7878  -3.4211 C.2            1 S1                 0.0000
     19 ****         3.5102   4.3065  -2.8672 N.2            1 S1                 0.0000
     20 ****         0.4441  -0.6265  -0.4505 C.3            1 S1                 0.0000
     21 ****        -1.0898  -0.7408  -0.3918 C.3            1 S1                 0.0000
     22 ****        -4.9908  -0.7107   1.0299 H              1 S1                 0.0000
     23 ****        -3.7394   0.1706   0.1790 H              1 S1                 0.0000
     24 ****        -3.6691   0.0027   1.9301 H              1 S1                 0.0000
     25 ****        -3.3394  -2.2956   2.9901 H              1 S1                 0.0000
     26 ****        -2.9056  -3.6864   1.9983 H              1 S1                 0.0000
     27 ****        -4.5448  -3.0550   1.9832 H              1 S1                 0.0000
     28 ****        -4.6407  -2.8284  -0.3812 H              1 S1                 0.0000
     29 ****        -3.0142  -3.4386  -0.6413 H              1 S1                 0.0000
     30 ****        -3.5091  -1.8892  -1.3202 H              1 S1                 0.0000
     31 ****        -1.1140  -2.5743   0.6954 H              1 S1                 0.0000
     32 ****        -1.4138   0.0035   2.2912 H              1 S1                 0.0000
     33 ****        -1.2525  -1.5921   2.9753 H              1 S1                 0.0000
     34 ****         0.9063  -0.4371   2.9947 H              1 S1                 0.0000
     35 ****         0.9573  -1.8866   2.0314 H              1 S1                 0.0000
     36 ****         1.0724   1.6107   1.8141 H              1 S1                 0.0000
     37 ****         3.0148   0.3994   1.7308 H              1 S1                 0.0000
     38 ****         2.9578  -1.1258   0.8975 H              1 S1                 0.0000
     39 ****         3.2182  -0.1415  -1.1842 H              1 S1                 0.0000
     40 ****         5.0754   2.6079  -1.8398 H              1 S1                 0.0000
     41 ****         4.2163   1.2526  -2.5548 H              1 S1                 0.0000
     42 ****         1.3649   1.9211  -2.8058 H              1 S1                 0.0000
     43 ****         2.3443   5.8019  -3.7886 H              1 S1                 0.0000
     44 ****         0.7184  -0.0019  -1.3011 H              1 S1                 0.0000
     45 ****         0.8611  -1.6139  -0.6528 H              1 S1                 0.0000
     46 ****        -1.4242  -1.1720  -1.3338 H              1 S1                 0.0000
     47 ****        -1.5185   0.2602  -0.3437 H              1 S1                 0.0000
     48 ****        -0.3352   1.3164   1.1345 LP             1 S1                 0.0000
     49 ****         0.9378   1.8173   0.2428 LP             1 S1                 0.0000
     50 ****         3.2981   2.2931   1.3019 LP             1 S1                 0.0000
     51 ****         3.9619   3.4788   0.2278 LP             1 S1                 0.0000
     52 ****         0.4241   4.0551  -3.8690 LP             1 S1                 0.0000
     53 ****         4.3863   4.7666  -2.7230 LP             1 S1                 0.0000
@<TRIPOS>BOND
    1    1    2 1     
    2    1   22 1     
    3    1   23 1     
    4    1   24 1     
    5    2    3 1     
    6    2    4 1     
    7    2    5 1     
    8    3   25 1     
    9    3   26 1     
   10    3   27 1     
   11    4   28 1     
   12    4   29 1     
   13    4   30 1     
   14    5   21 1     
   15    5    6 1     
   16    5   31 1     
   17    6    7 1     
   18    6   32 1     
   19    6   33 1     
   20    7    8 1     
   21    7   34 1     
   22    7   35 1     
   23    8    9 1     
   24    8   10 1     
   25    8   20 1     
   26    9   36 1     
   27   10   11 1     
   28   10   37 1     
   29   10   38 1     
   30   11   12 am    
   31   11   39 1     
   32   12   13 2     
   33   12   14 1     
   34   14   15 1     
   35   14   40 1     
   36   14   41 1     
   37   15   19 1     
   38   15   16 1     
   39   16   17 2     
   40   16   42 1     
   41   17   18 1     
   42   18   19 2     
   43   18   43 1     
   44   20   21 1     
   45   20   44 1     
   46   20   45 1     
   47   21   46 1     
   48   21   47 1     
   49    9   48 1     
   50    9   49 1     
   51   13   50 1     
   52   13   51 1     
   53   17   52 1     
   54   19   53 1     
@<TRIPOS>SUBSTRUCTURE
      1 S1             1
@<TRIPOS>SET
LONE_PAIRS      STATIC     ATOMS    <user>   **** ""
6 48 49 50 51 52 53
DONOR_HYDROGENS      STATIC     ATOMS    <user>   **** ""
2 36 39
ATOM$BLUE        STATIC     ATOMS    COLORGROUP SYSTEM
6 48 49 50 51 52 53
ATOM$RED        STATIC     ATOMS    COLORGROUP SYSTEM
2 36 39
