AV-unprocessed.smi:197|AV-procd|sdf|1547|dock3
  -GOLD-   2262019413D 1   1.00000     0.00000
 Structure written by MMmdl.
 54 57  0  0  0  0  0  0  0  0  1 V2000
  139.2801  136.6345  153.8745 C   0  0  0  0  0  0  0  0  0  0  0  0
  140.2938  135.7383  154.2937 O   0  0  0  0  0  0  0  0  0  0  0  0
  141.3584  135.6460  153.3615 C   0  0  0  0  0  0  0  0  0  0  0  0
  142.6654  135.3452  154.1108 C   0  0  0  0  0  0  0  0  0  0  0  0
  143.8522  134.9347  153.1978 C   0  0  1  0  0  0  0  0  0  0  0  0
  143.3630  134.0414  152.0317 C   0  0  0  0  0  0  0  0  0  0  0  0
  144.4347  133.7210  151.1531 O   0  0  0  0  0  0  0  0  0  0  0  0
  144.9896  134.8835  150.5555 C   0  0  0  0  0  0  0  0  0  0  0  0
  145.5765  135.7715  151.6587 C   0  0  0  0  0  0  0  0  0  0  0  0
  144.5563  136.1035  152.6485 N   0  0  0  0  0  0  0  0  0  0  0  0
  145.0542  137.0081  153.5262 C   0  0  0  0  0  0  0  0  0  0  0  0
  144.8279  136.8706  154.8602 N   0  0  0  0  0  0  0  0  0  0  0  0
  145.3431  137.7533  155.7212 C   0  0  0  0  0  0  0  0  0  0  0  0
  146.1068  138.8186  155.4680 N   0  0  0  0  0  0  0  0  0  0  0  0
  146.3453  138.9509  154.1314 C   0  0  0  0  0  0  0  0  0  0  0  0
  145.8606  138.0974  153.1017 C   0  0  0  0  0  0  0  0  0  0  0  0
  146.3046  138.5424  151.8633 N   0  0  0  0  0  0  0  0  0  0  0  0
  147.0165  139.5996  152.1453 C   0  0  0  0  0  0  0  0  0  0  0  0
  147.1010  139.9126  153.4839 N   0  0  0  0  0  0  0  0  0  0  0  0
  147.8328  141.0220  154.0751 C   0  0  0  0  0  0  0  0  0  0  0  0
  148.9418  140.5687  155.0541 C   0  0  2  0  0  0  0  0  0  0  0  0
  148.3262  139.9903  156.1948 O   0  0  0  0  0  0  0  0  0  0  0  0
  149.8596  141.6905  155.5173 C   0  0  0  0  0  0  0  0  0  0  0  0
  151.1188  140.9379  155.9284 C   0  0  0  0  0  0  0  0  0  0  0  0
  151.2250  139.8699  154.9957 O   0  0  0  0  0  0  0  0  0  0  0  0
  149.9504  139.5859  154.4195 C   0  0  1  0  0  0  0  0  0  0  0  0
  149.6169  138.0894  154.5315 C   0  0  0  0  0  0  0  0  0  0  0  0
  138.4905  136.6713  154.6249 H   0  0  0  0  0  0  0  0  0  0  0  0
  138.8344  136.3120  152.9325 H   0  0  0  0  0  0  0  0  0  0  0  0
  139.6730  137.6443  153.7493 H   0  0  0  0  0  0  0  0  0  0  0  0
  141.1488  134.8840  152.6107 H   0  0  0  0  0  0  0  0  0  0  0  0
  141.4583  136.5934  152.8296 H   0  0  0  0  0  0  0  0  0  0  0  0
  142.9496  136.2179  154.6998 H   0  0  0  0  0  0  0  0  0  0  0  0
  142.4442  134.5622  154.8355 H   0  0  0  0  0  0  0  0  0  0  0  0
  144.5698  134.3591  153.7843 H   0  0  0  0  0  0  0  0  0  0  0  0
  142.9586  133.1025  152.4077 H   0  0  0  0  0  0  0  0  0  0  0  0
  142.5629  134.5303  151.4731 H   0  0  0  0  0  0  0  0  0  0  0  0
  145.7711  134.5867  149.8559 H   0  0  0  0  0  0  0  0  0  0  0  0
  144.2305  135.4183  149.9822 H   0  0  0  0  0  0  0  0  0  0  0  0
  146.4029  135.2543  152.1490 H   0  0  0  0  0  0  0  0  0  0  0  0
  145.9853  136.6802  151.2140 H   0  0  0  0  0  0  0  0  0  0  0  0
  145.1137  137.5789  156.7619 H   0  0  0  0  0  0  0  0  0  0  0  0
  147.5103  140.1804  151.3796 H   0  0  0  0  0  0  0  0  0  0  0  0
  148.2583  141.6230  153.2701 H   0  0  0  0  0  0  0  0  0  0  0  0
  147.1156  141.6644  154.5879 H   0  0  0  0  0  0  0  0  0  0  0  0
  148.8893  139.3070  156.5245 H   0  0  0  0  0  0  0  0  0  0  0  0
  150.0960  142.3515  154.6826 H   0  0  0  0  0  0  0  0  0  0  0  0
  149.4415  142.3001  156.3197 H   0  0  0  0  0  0  0  0  0  0  0  0
  152.0079  141.5684  155.9188 H   0  0  0  0  0  0  0  0  0  0  0  0
  151.0070  140.5228  156.9309 H   0  0  0  0  0  0  0  0  0  0  0  0
  150.0538  139.8309  153.3616 H   0  0  0  0  0  0  0  0  0  0  0  0
  148.6406  137.8717  154.0978 H   0  0  0  0  0  0  0  0  0  0  0  0
  149.6102  137.7536  155.5688 H   0  0  0  0  0  0  0  0  0  0  0  0
  150.3563  137.4900  154.0004 H   0  0  0  0  0  0  0  0  0  0  0  0
  1  2  1  0  0  0  0
  1 28  1  0  0  0  0
  1 29  1  0  0  0  0
  1 30  1  0  0  0  0
  2  3  1  0  0  0  0
  3  4  1  0  0  0  0
  3 31  1  0  0  0  0
  3 32  1  0  0  0  0
  4  5  1  0  0  0  0
  4 33  1  0  0  0  0
  4 34  1  0  0  0  0
  5 10  1  0  0  0  0
  5  6  1  0  0  0  0
  5 35  1  0  0  0  0
  6  7  1  0  0  0  0
  6 36  1  0  0  0  0
  6 37  1  0  0  0  0
  7  8  1  0  0  0  0
  8  9  1  0  0  0  0
  8 38  1  0  0  0  0
  8 39  1  0  0  0  0
  9 10  1  0  0  0  0
  9 40  1  0  0  0  0
  9 41  1  0  0  0  0
 10 11  1  0  0  0  0
 11 16  1  0  0  0  0
 11 12  2  0  0  0  0
 12 13  1  0  0  0  0
 13 14  2  0  0  0  0
 13 42  1  0  0  0  0
 14 15  1  0  0  0  0
 15 19  1  0  0  0  0
 15 16  2  0  0  0  0
 16 17  1  0  0  0  0
 17 18  2  0  0  0  0
 18 19  1  0  0  0  0
 18 43  1  0  0  0  0
 19 20  1  0  0  0  0
 20 21  1  0  0  0  0
 20 44  1  0  0  0  0
 20 45  1  0  0  0  0
 21 26  1  0  0  0  0
 21 22  1  0  0  0  0
 21 23  1  0  0  0  0
 22 46  1  0  0  0  0
 23 24  1  0  0  0  0
 23 47  1  0  0  0  0
 23 48  1  0  0  0  0
 24 25  1  0  0  0  0
 24 49  1  0  0  0  0
 24 50  1  0  0  0  0
 25 26  1  0  0  0  0
 26 27  1  0  0  0  0
 26 51  1  0  0  0  0
 27 52  1  0  0  0  0
 27 53  1  0  0  0  0
 27 54  1  0  0  0  0
M  END
> <s_m_source_file>
AV-unprocessed.smi

> <i_m_source_file_index>
197

> <i_lp_mmshare_version>
43012

> <i_f3d_flags>
0

> <s_epik_input>
W0NIM11PW0NIMl1bQ0gyXVtDQEBIXTFbQ0gyXU9bQ0gyXVtDSDJdTjFjKG5bY0hdbjIpYyhjMjMpbltjSF1uM1tDSDJdW0NAQF00KFtPSF0pW0NIMl1bQ0gyXU9bQ0BIXTRbQ0gzXQ==

> <s_epik_cmdline>
J2VwaWtfcHl0aG9uJywgJy1waCcsICc3LjAnLCAnLXRuJywgJzgnLCAnLW1hJywgJzIwMCcsICctbWV0YWxfYmluZGluZycsICctaW1hZScsICc8aW5maWxlLm1hZT4nLCAnLW9tYWUnLCAnPG91dGZpbGUubWFlPic=

> <r_lp_tautomer_probability>
1

> <r_epik_Ionization_Penalty>
0.000106218

> <r_epik_Ionization_Penalty_Charging>
0

> <r_epik_Ionization_Penalty_Neutral>
0.000106218

> <r_epik_State_Penalty>
-0

> <r_epik_Charging_Adjusted_Penalty>
0

> <i_epik_Tot_Q>
0

> <i_epik_Tot_abs_Q>
0

> <r_epik_Metal_State_Penalty>
-0

> <b_epik_Metal_Only>
0

> <s_lp_Force_Field>
OPLS_2005

> <r_lp_Energy>
42.2665

> <b_lp_Chiralities_Consistent>
1

> <s_lp_Variant>
AV-unprocessed.smi:197-4

> <Gold.Version>
5.8.1

> <Gold.Id.Protein>
6NUR|6NUR_protein|mol2

> <Gold.PLP.Fitness>
46.2544

> <Gold.PLP.PLP>
-40.5345

> <Gold.PLP.part.hbond>
-2.0296

> <Gold.PLP.part.metal>
0.0000

> <Gold.PLP.part.buried>
-3.1439

> <Gold.PLP.part.nonpolar>
-35.5818

> <Gold.PLP.part.repulsive>
0.8142

> <Gold.PLP.ligand.clash>
0.0000

> <Gold.PLP.ligand.torsion>
0.7765

> <Gold.PLP.Chemscore.Hbond>
1.4500

> <Gold.PLP.Chemscore.CHOScore>
0.7984

> <Gold.PLP.Chemscore.Metal>
0.0000

> <Gold.Chemscore.Hbonds>
donor molecule, donor type, donor heavy atom, donor atom, acceptor molecule, acceptor atom, score
      P1  H  7989  7998       L1    25  0.41
      P1  H 11000 11005       L1     2  1.00
      L1  C    18    43       P1  7957  0.82

> <Gold.PLP.Chemscore.Internal.Correction>
0.5279

> <Gold.Rescore>
     Score         DG    S(hbond)    S(metal)    S(lipo)     H(rot)  DE(clash)    DE(int)     intcor
      6.30     -11.04       0.98        0.00      81.57       2.84       1.24       3.50       ----

> <Gold.Chemscore.Fitness>
6.2997

> <Gold.Chemscore.DG>
-11.0378

> <Gold.Chemscore.ZeroCoef>
-5.4800

> <Gold.Chemscore.Hbond>
0.9802

> <Gold.Chemscore.Metal>
0.0000

> <Gold.Chemscore.Lipo>
81.5670

> <Gold.Chemscore.Internal_Hbond>
0.0000

> <Gold.Chemscore.DEClash>
1.2385

> <Gold.Chemscore.DEInternal>
3.4995

> <Gold.Chemscore.Rot>
2.8358

> <Gold.Chemscore.Internal.Correction>
   9.000000E+99

> <Gold.Chemscore.Hbonds>
donor molecule, donor type, donor heavy atom, donor atom, acceptor molecule, acceptor atom, score
      P1  H 11000 11005       L1     2  0.96

> <Gold.Chemscore.Hbond.Weighted>
-3.2740

> <Gold.Chemscore.Metal.Weighted>
-0.0000

> <Gold.Chemscore.Lipo.Weighted>
-9.5433

> <Gold.Chemscore.Internal_Hbond.Weighted>
0.0000

> <Gold.Chemscore.DEClash.Weighted>
1.2385

> <Gold.Chemscore.DEInternal.Weighted>
3.4995

> <Gold.Chemscore.Rot.Weighted>
7.2596

> <Gold.Chemscore.Internal.Correction.Weighted>
   9.000000E+99

> <Gold.Protein.RotatedTorsions>
[ 6907 6896 6895 6894 ] final -103.16 input  -60.11 | X-H torsion
[ 7974 7965 7964 7962 ] final  153.55 input  175.53 | X-H torsion
[ 8008 7997 7996 7995 ] final   89.27 input   59.86 | X-H torsion
[ 10167 10162 10161 10158 ] final  120.55 input  -65.29 | X-H torsion
[ 10718 10713 10712 10709 ] final   84.40 input   66.30 | X-H torsion
[ 10763 10752 10751 10750 ] final  -57.27 input  -60.55 | X-H torsion
[ 11005 11000 10999 10996 ] final   45.46 input  -57.11 | X-H torsion

> <Gold.Protein.ActiveResidues>
 VAL166  LYS551  ARG553  GLY616  TRP617  ASP618  TYR619  PRO620  LYS621  CYS622 
 ASP623  PHE694  ASN695  SER759  ASP760  ASP761  ALA762  ILE779  LEU786  VAL792 
 PHE793  MET794  SER795  GLU796  ALA797  LYS798  CYS799  TRP800  GLU811  SER814 

> <Gold.Protein.RotatedAtoms>
  150.7228  134.0471  159.3785 H   0  0  0  0  0  0  0  0  0  0  0  0  # atno 6907 bound_to 6896
  151.8447  135.0576  160.0461 H   0  0  0  0  0  0  0  0  0  0  0  0  # atno 6908 bound_to 6896
  152.2836  133.5458  159.5549 H   0  0  0  0  0  0  0  0  0  0  0  0  # atno 6909 bound_to 6896
  144.8147  139.6815  143.6126 H   0  0  0  0  0  0  0  0  0  0  0  0  # atno 7974 bound_to 7965
  155.9979  140.3362  155.6817 H   0  0  0  0  0  0  0  0  0  0  0  0  # atno 8008 bound_to 7997
  155.6331  140.0687  157.2660 H   0  0  0  0  0  0  0  0  0  0  0  0  # atno 8009 bound_to 7997
  154.4240  140.1756  156.1480 H   0  0  0  0  0  0  0  0  0  0  0  0  # atno 8010 bound_to 7997
  139.5975  144.7046  151.3141 H   0  0  0  0  0  0  0  0  0  0  0  0  # atno 10167 bound_to 10162
  157.6897  131.0132  150.2667 H   0  0  0  0  0  0  0  0  0  0  0  0  # atno 10718 bound_to 10713
  154.2198  135.6380  153.5141 H   0  0  0  0  0  0  0  0  0  0  0  0  # atno 10763 bound_to 10752
  152.9971  135.5494  154.6127 H   0  0  0  0  0  0  0  0  0  0  0  0  # atno 10764 bound_to 10752
  154.5584  135.2907  155.0917 H   0  0  0  0  0  0  0  0  0  0  0  0  # atno 10765 bound_to 10752
  140.1458  134.4525  155.8417 H   0  0  0  0  0  0  0  0  0  0  0  0  # atno 11005 bound_to 11000
  146.2449  139.6078  142.9466 LP  0  0  0  0  0  0  0  0  0  0  0  0  # atno 17320 bound_to 7965
  145.5242  141.0430  143.2419 LP  0  0  0  0  0  0  0  0  0  0  0  0  # atno 17321 bound_to 7965
  140.7223  143.7100  150.7777 LP  0  0  0  0  0  0  0  0  0  0  0  0  # atno 17342 bound_to 10162
  140.0669  143.5099  152.2599 LP  0  0  0  0  0  0  0  0  0  0  0  0  # atno 17343 bound_to 10162
  156.3237  130.3790  149.7552 LP  0  0  0  0  0  0  0  0  0  0  0  0  # atno 17370 bound_to 10713
  156.5114  130.8173  151.3170 LP  0  0  0  0  0  0  0  0  0  0  0  0  # atno 17371 bound_to 10713
  141.2192  133.6852  156.7331 LP  0  0  0  0  0  0  0  0  0  0  0  0  # atno 17394 bound_to 11000
  140.2666  134.8425  157.3808 LP  0  0  0  0  0  0  0  0  0  0  0  0  # atno 17395 bound_to 11000

$$$$
