AV-unprocessed.smi:864|AV-procd|sdf|3987|dock1
  -GOLD-   22720 1463D 1   1.00000     0.00000
 Structure written by MMmdl.
 44 46  0  0  0  0  0  0  0  0  1 V2000
  135.2198  138.2887  154.8082 C   0  0  0  0  0  0  0  0  0  0  0  0
  136.6443  138.6413  154.4344 C   0  0  0  0  0  0  0  0  0  0  0  0
  136.9531  139.8976  153.8721 C   0  0  0  0  0  0  0  0  0  0  0  0
  138.2936  140.1722  153.5409 C   0  0  0  0  0  0  0  0  0  0  0  0
  139.2703  139.1831  153.7808 C   0  0  0  0  0  0  0  0  0  0  0  0
  140.7245  139.4113  153.4047 C   0  0  0  0  0  0  0  0  0  0  0  0
  141.6822  138.3517  153.9838 C   0  0  0  0  0  0  0  0  0  0  0  0
  142.9255  138.2672  153.2207 N   0  0  0  0  0  0  0  0  0  0  0  0
  143.5525  137.1310  152.8821 C   0  0  0  0  0  0  0  0  0  0  0  0
  143.2031  136.0108  153.2545 O   0  0  0  0  0  0  0  0  0  0  0  0
  144.5876  137.3641  152.0641 N   0  0  0  0  0  0  0  0  0  0  0  0
  145.4449  136.3408  151.4705 C   0  0  1  0  0  0  0  0  0  0  0  0
  146.0945  135.4545  152.5418 C   0  0  0  0  0  0  0  0  0  0  0  0
  145.8589  134.0450  152.0271 C   0  0  0  0  0  0  0  0  0  0  0  0
  146.3832  133.0560  152.5378 O   0  0  0  0  0  0  0  0  0  0  0  0
  145.0395  134.0430  150.9695 N   0  0  0  0  0  0  0  0  0  0  0  0
  144.7228  132.8890  150.1804 C   0  0  0  0  0  0  0  0  0  0  0  0
  145.0009  131.4900  150.6958 C   0  0  0  0  0  0  0  0  0  0  0  0
  145.8636  132.0797  149.6071 C   0  0  0  0  0  0  0  0  0  0  0  0
  144.6314  135.3855  150.5796 C   0  0  0  0  0  0  0  0  0  0  0  0
  138.8564  137.9611  154.3518 C   0  0  0  0  0  0  0  0  0  0  0  0
  137.5737  137.6904  154.6753 N   0  0  0  0  0  0  0  0  0  0  0  0
  134.5100  138.9615  154.3260 H   0  0  0  0  0  0  0  0  0  0  0  0
  135.0841  138.3637  155.8874 H   0  0  0  0  0  0  0  0  0  0  0  0
  134.9813  137.2700  154.5007 H   0  0  0  0  0  0  0  0  0  0  0  0
  136.1825  140.6331  153.6945 H   0  0  0  0  0  0  0  0  0  0  0  0
  138.5623  141.1201  153.0982 H   0  0  0  0  0  0  0  0  0  0  0  0
  140.8108  139.4255  152.3173 H   0  0  0  0  0  0  0  0  0  0  0  0
  141.0238  140.4031  153.7451 H   0  0  0  0  0  0  0  0  0  0  0  0
  141.9269  138.6029  155.0159 H   0  0  0  0  0  0  0  0  0  0  0  0
  141.1847  137.3810  154.0189 H   0  0  0  0  0  0  0  0  0  0  0  0
  143.3003  139.1366  152.8708 H   0  0  0  0  0  0  0  0  0  0  0  0
  144.7862  138.3218  151.8142 H   0  0  0  0  0  0  0  0  0  0  0  0
  146.2411  136.7913  150.8743 H   0  0  0  0  0  0  0  0  0  0  0  0
  147.1598  135.6612  152.6512 H   0  0  0  0  0  0  0  0  0  0  0  0
  145.6186  135.5628  153.5175 H   0  0  0  0  0  0  0  0  0  0  0  0
  143.8385  132.9806  149.5510 H   0  0  0  0  0  0  0  0  0  0  0  0
  145.4637  131.3593  151.6716 H   0  0  0  0  0  0  0  0  0  0  0  0
  144.3031  130.7057  150.4095 H   0  0  0  0  0  0  0  0  0  0  0  0
  145.7429  131.6861  148.5999 H   0  0  0  0  0  0  0  0  0  0  0  0
  146.8774  132.3719  149.8744 H   0  0  0  0  0  0  0  0  0  0  0  0
  143.5579  135.4908  150.7444 H   0  0  0  0  0  0  0  0  0  0  0  0
  144.8315  135.5686  149.5229 H   0  0  0  0  0  0  0  0  0  0  0  0
  139.5719  137.1748  154.5432 H   0  0  0  0  0  0  0  0  0  0  0  0
  1  2  1  0  0  0  0
  1 23  1  0  0  0  0
  1 24  1  0  0  0  0
  1 25  1  0  0  0  0
  2 22  1  0  0  0  0
  2  3  2  0  0  0  0
  3  4  1  0  0  0  0
  3 26  1  0  0  0  0
  4  5  2  0  0  0  0
  4 27  1  0  0  0  0
  5  6  1  0  0  0  0
  5 21  1  0  0  0  0
  6  7  1  0  0  0  0
  6 28  1  0  0  0  0
  6 29  1  0  0  0  0
  7  8  1  0  0  0  0
  7 30  1  0  0  0  0
  7 31  1  0  0  0  0
  8  9  1  0  0  0  0
  8 32  1  0  0  0  0
  9 10  2  0  0  0  0
  9 11  1  0  0  0  0
 11 12  1  0  0  0  0
 11 33  1  0  0  0  0
 12 20  1  0  0  0  0
 12 13  1  0  0  0  0
 12 34  1  0  0  0  0
 13 14  1  0  0  0  0
 13 35  1  0  0  0  0
 13 36  1  0  0  0  0
 14 15  2  0  0  0  0
 14 16  1  0  0  0  0
 16 17  1  0  0  0  0
 16 20  1  0  0  0  0
 17 19  1  0  0  0  0
 17 18  1  0  0  0  0
 17 37  1  0  0  0  0
 18 19  1  0  0  0  0
 18 38  1  0  0  0  0
 18 39  1  0  0  0  0
 19 40  1  0  0  0  0
 19 41  1  0  0  0  0
 20 42  1  0  0  0  0
 20 43  1  0  0  0  0
 21 22  2  0  0  0  0
 21 44  1  0  0  0  0
M  END
> <s_m_source_file>
AV-unprocessed.smi

> <i_m_source_file_index>
864

> <i_lp_mmshare_version>
43012

> <i_f3d_flags>
0

> <s_epik_input>
W0NIM11jMVtjSF1bY0hdYyhbY0hdbjEpW0NIMl1bQ0gyXVtOSF1DKD1PKVtOSF1bQ0BASF0yW0NIMl1DKD1PKU4oW0NIMl0yKVtDSF0zW0NIMl1bQ0gyXTM=

> <s_epik_cmdline>
J2VwaWtfcHl0aG9uJywgJy1waCcsICc3LjAnLCAnLXRuJywgJzgnLCAnLW1hJywgJzIwMCcsICctbWV0YWxfYmluZGluZycsICctaW1hZScsICc8aW5maWxlLm1hZT4nLCAnLW9tYWUnLCAnPG91dGZpbGUubWFlPic=

> <r_epik_Ionization_Penalty>
0.0559435

> <r_epik_Ionization_Penalty_Charging>
0

> <r_epik_Ionization_Penalty_Neutral>
0.0559435

> <r_epik_State_Penalty>
0.0481757

> <r_epik_Charging_Adjusted_Penalty>
0.0481757

> <i_epik_Tot_Q>
0

> <i_epik_Tot_abs_Q>
0

> <r_epik_Metal_State_Penalty>
0.0439988

> <b_epik_Metal_Only>
0

> <s_lp_Force_Field>
OPLS_2005

> <r_lp_Energy>
34.0483

> <b_lp_Chiralities_Consistent>
1

> <s_lp_Variant>
AV-unprocessed.smi:864-2

> <Gold.Version>
5.8.1

> <Gold.Id.Protein>
6NUR|6NUR_protein|mol2

> <Gold.PLP.Fitness>
42.7535

> <Gold.PLP.PLP>
-40.3095

> <Gold.PLP.part.hbond>
-2.1366

> <Gold.PLP.part.metal>
0.0000

> <Gold.PLP.part.buried>
-2.5588

> <Gold.PLP.part.nonpolar>
-35.0329

> <Gold.PLP.part.repulsive>
0.3518

> <Gold.PLP.ligand.clash>
0.0000

> <Gold.PLP.ligand.torsion>
0.5335

> <Gold.PLP.Chemscore.Hbond>
1.0889

> <Gold.PLP.Chemscore.CHOScore>
0.0000

> <Gold.PLP.Chemscore.Metal>
0.0000

> <Gold.Chemscore.Hbonds>
donor molecule, donor type, donor heavy atom, donor atom, acceptor molecule, acceptor atom, score
      L1  H     8    32       P1 10175  0.67
      L1  H    11    33       P1 10171  0.06

> <Gold.PLP.Chemscore.Internal.Correction>
0.2442

> <Gold.Rescore>
     Score         DG    S(hbond)    S(metal)    S(lipo)     H(rot)  DE(clash)    DE(int)     intcor
     13.06     -16.59       1.15        0.00     100.40       1.75       0.14       3.40       ----

> <Gold.Chemscore.Fitness>
13.0561

> <Gold.Chemscore.DG>
-16.5920

> <Gold.Chemscore.ZeroCoef>
-5.4800

> <Gold.Chemscore.Hbond>
1.1527

> <Gold.Chemscore.Metal>
0.0000

> <Gold.Chemscore.Lipo>
100.3989

> <Gold.Chemscore.Internal_Hbond>
0.0000

> <Gold.Chemscore.DEClash>
0.1370

> <Gold.Chemscore.DEInternal>
3.3989

> <Gold.Chemscore.Rot>
1.7518

> <Gold.Chemscore.Internal.Correction>
   9.000000E+99

> <Gold.Chemscore.Hbonds>
donor molecule, donor type, donor heavy atom, donor atom, acceptor molecule, acceptor atom, score
      L1  H     8    32       P1 10175  0.67
      L1  H    11    33       P1 10171  0.06

> <Gold.Chemscore.Hbond.Weighted>
-3.8499

> <Gold.Chemscore.Metal.Weighted>
-0.0000

> <Gold.Chemscore.Lipo.Weighted>
-11.7467

> <Gold.Chemscore.Internal_Hbond.Weighted>
0.0000

> <Gold.Chemscore.DEClash.Weighted>
0.1370

> <Gold.Chemscore.DEInternal.Weighted>
3.3989

> <Gold.Chemscore.Rot.Weighted>
4.4846

> <Gold.Chemscore.Internal.Correction.Weighted>
   9.000000E+99

> <Gold.Protein.RotatedTorsions>
[ 6907 6896 6895 6894 ] final -108.06 input  -60.11 | X-H torsion
[ 7974 7965 7964 7962 ] final  -92.07 input  175.53 | X-H torsion
[ 8008 7997 7996 7995 ] final   -6.28 input   59.86 | X-H torsion
[ 10167 10162 10161 10158 ] final -162.45 input  -65.29 | X-H torsion
[ 10718 10713 10712 10709 ] final  -59.33 input   66.30 | X-H torsion
[ 10763 10752 10751 10750 ] final   32.58 input  -60.55 | X-H torsion
[ 11005 11000 10999 10996 ] final  151.70 input  -57.11 | X-H torsion

> <Gold.Protein.ActiveResidues>
 VAL166  LYS551  ARG553  GLY616  TRP617  ASP618  TYR619  PRO620  LYS621  CYS622 
 ASP623  PHE694  ASN695  SER759  ASP760  ASP761  ALA762  ILE779  LEU786  VAL792 
 PHE793  MET794  SER795  GLU796  ALA797  LYS798  CYS799  TRP800  GLU811  SER814 

> <Gold.Protein.RotatedAtoms>
  150.7480  133.9733  159.3552 H   0  0  0  0  0  0  0  0  0  0  0  0  # atno 6907 bound_to 6896
  151.7669  135.0794  160.0363 H   0  0  0  0  0  0  0  0  0  0  0  0  # atno 6908 bound_to 6896
  152.3365  133.5981  159.5882 H   0  0  0  0  0  0  0  0  0  0  0  0  # atno 6909 bound_to 6896
  145.4047  140.9540  143.2268 H   0  0  0  0  0  0  0  0  0  0  0  0  # atno 7974 bound_to 7965
  154.5953  140.2437  155.7865 H   0  0  0  0  0  0  0  0  0  0  0  0  # atno 8008 bound_to 7997
  156.2275  140.2978  156.0057 H   0  0  0  0  0  0  0  0  0  0  0  0  # atno 8009 bound_to 7997
  155.2303  140.0403  157.2951 H   0  0  0  0  0  0  0  0  0  0  0  0  # atno 8010 bound_to 7997
  139.6391  144.0293  152.2078 H   0  0  0  0  0  0  0  0  0  0  0  0  # atno 10167 bound_to 10162
  156.1069  130.4179  150.0700 H   0  0  0  0  0  0  0  0  0  0  0  0  # atno 10718 bound_to 10713
  153.0255  135.6409  154.1377 H   0  0  0  0  0  0  0  0  0  0  0  0  # atno 10763 bound_to 10752
  154.1106  135.2853  155.3233 H   0  0  0  0  0  0  0  0  0  0  0  0  # atno 10764 bound_to 10752
  154.6334  135.5484  153.7769 H   0  0  0  0  0  0  0  0  0  0  0  0  # atno 10765 bound_to 10752
  140.1242  134.8844  157.2114 H   0  0  0  0  0  0  0  0  0  0  0  0  # atno 11005 bound_to 11000
  144.8350  139.5565  143.6926 LP  0  0  0  0  0  0  0  0  0  0  0  0  # atno 17320 bound_to 7965
  146.2735  139.6693  142.9279 LP  0  0  0  0  0  0  0  0  0  0  0  0  # atno 17321 bound_to 7965
  139.9978  144.6315  150.7756 LP  0  0  0  0  0  0  0  0  0  0  0  0  # atno 17342 bound_to 10162
  140.7481  143.2917  151.3312 LP  0  0  0  0  0  0  0  0  0  0  0  0  # atno 17343 bound_to 10162
  156.8673  130.9512  151.3612 LP  0  0  0  0  0  0  0  0  0  0  0  0  # atno 17370 bound_to 10713
  157.6247  130.8682  149.9169 LP  0  0  0  0  0  0  0  0  0  0  0  0  # atno 17371 bound_to 10713
  140.2926  134.3223  155.7311 LP  0  0  0  0  0  0  0  0  0  0  0  0  # atno 17394 bound_to 11000
  141.2158  133.7543  156.9525 LP  0  0  0  0  0  0  0  0  0  0  0  0  # atno 17395 bound_to 11000

$$$$
