AV-unprocessed.smi:713|AV-procd|sdf|3476|dock8
  -GOLD-   22720 0473D 1   1.00000     0.00000
 Structure written by MMmdl.
 41 42  0  0  0  0  0  0  0  0  1 V2000
  151.6508  145.2972  159.9588 C   0  0  0  0  0  0  0  0  0  0  0  0
  152.2506  144.0056  159.3664 C   0  0  2  0  0  0  0  0  0  0  0  0
  151.2064  143.1414  158.6426 C   0  0  0  0  0  0  0  0  0  0  0  0
  150.0201  143.4723  158.6200 O   0  0  0  0  0  0  0  0  0  0  0  0
  151.6661  142.0222  158.0608 N   0  0  0  0  0  0  0  0  0  0  0  0
  150.8472  141.0349  157.3656 C   0  0  1  0  0  0  0  0  0  0  0  0
  150.5594  141.5205  155.9338 C   0  0  0  0  0  0  0  0  0  0  0  0
  149.7544  140.4788  155.1424 C   0  0  0  0  0  0  0  0  0  0  0  0
  150.4701  139.1198  155.1251 C   0  0  0  0  0  0  0  0  0  0  0  0
  150.7552  138.6173  156.5520 C   0  0  1  0  0  0  0  0  0  0  0  0
  151.6520  137.0003  156.4769 S   0  0  0  0  0  0  0  0  0  0  0  0
  150.5189  135.9513  155.4750 C   0  0  0  0  0  0  0  0  0  0  0  0
  152.8951  137.1983  155.7161 O   0  0  0  0  0  0  0  0  0  0  0  0
  151.7144  136.4332  157.8326 O   0  0  0  0  0  0  0  0  0  0  0  0
  151.5561  139.6650  157.3504 C   0  0  0  0  0  0  0  0  0  0  0  0
  152.9526  143.2109  160.3679 N   0  0  0  0  0  0  0  0  0  0  0  0
  153.0159  143.4278  161.7296 C   0  0  0  0  0  0  0  0  0  0  0  0
  153.8194  142.4617  162.2633 C   0  0  0  0  0  0  0  0  0  0  0  0
  154.2193  141.6937  161.1349 C   0  0  0  0  0  0  0  0  0  0  0  0
  153.7076  142.1481  160.0031 N   0  0  0  0  0  0  0  0  0  0  0  0
  151.1800  145.9026  159.1835 H   0  0  0  0  0  0  0  0  0  0  0  0
  152.4267  145.9077  160.4216 H   0  0  0  0  0  0  0  0  0  0  0  0
  150.8965  145.0903  160.7189 H   0  0  0  0  0  0  0  0  0  0  0  0
  152.9902  144.3090  158.6236 H   0  0  0  0  0  0  0  0  0  0  0  0
  152.6544  141.8270  158.1264 H   0  0  0  0  0  0  0  0  0  0  0  0
  149.8930  140.9334  157.8865 H   0  0  0  0  0  0  0  0  0  0  0  0
  150.0119  142.4635  155.9611 H   0  0  0  0  0  0  0  0  0  0  0  0
  151.4978  141.7213  155.4143 H   0  0  0  0  0  0  0  0  0  0  0  0
  148.7648  140.3654  155.5870 H   0  0  0  0  0  0  0  0  0  0  0  0
  149.5965  140.8283  154.1218 H   0  0  0  0  0  0  0  0  0  0  0  0
  149.8620  138.3931  154.5861 H   0  0  0  0  0  0  0  0  0  0  0  0
  151.4065  139.2085  154.5725 H   0  0  0  0  0  0  0  0  0  0  0  0
  149.8063  138.4304  157.0561 H   0  0  0  0  0  0  0  0  0  0  0  0
  150.9990  134.9935  155.2763 H   0  0  0  0  0  0  0  0  0  0  0  0
  150.3002  136.4473  154.5297 H   0  0  0  0  0  0  0  0  0  0  0  0
  149.5927  135.7753  156.0204 H   0  0  0  0  0  0  0  0  0  0  0  0
  152.5514  139.7747  156.9169 H   0  0  0  0  0  0  0  0  0  0  0  0
  151.7024  139.3217  158.3741 H   0  0  0  0  0  0  0  0  0  0  0  0
  152.4896  144.2449  162.2008 H   0  0  0  0  0  0  0  0  0  0  0  0
  154.0861  142.3270  163.3010 H   0  0  0  0  0  0  0  0  0  0  0  0
  154.8653  140.8287  161.1040 H   0  0  0  0  0  0  0  0  0  0  0  0
  1  2  1  0  0  0  0
  1 21  1  0  0  0  0
  1 22  1  0  0  0  0
  1 23  1  0  0  0  0
  2  3  1  0  0  0  0
  2 16  1  0  0  0  0
  2 24  1  0  0  0  0
  3  4  2  0  0  0  0
  3  5  1  0  0  0  0
  5  6  1  0  0  0  0
  5 25  1  0  0  0  0
  6 15  1  0  0  0  0
  6  7  1  0  0  0  0
  6 26  1  0  0  0  0
  7  8  1  0  0  0  0
  7 27  1  0  0  0  0
  7 28  1  0  0  0  0
  8  9  1  0  0  0  0
  8 29  1  0  0  0  0
  8 30  1  0  0  0  0
  9 10  1  0  0  0  0
  9 31  1  0  0  0  0
  9 32  1  0  0  0  0
 10 11  1  0  0  0  0
 10 15  1  0  0  0  0
 10 33  1  0  0  0  0
 11 12  1  0  0  0  0
 11 13  2  0  0  0  0
 11 14  2  0  0  0  0
 12 34  1  0  0  0  0
 12 35  1  0  0  0  0
 12 36  1  0  0  0  0
 15 37  1  0  0  0  0
 15 38  1  0  0  0  0
 16 20  1  0  0  0  0
 16 17  1  0  0  0  0
 17 18  2  0  0  0  0
 17 39  1  0  0  0  0
 18 19  1  0  0  0  0
 18 40  1  0  0  0  0
 19 20  2  0  0  0  0
 19 41  1  0  0  0  0
M  END
> <s_m_source_file>
AV-unprocessed.smi

> <i_m_source_file_index>
713

> <i_lp_mmshare_version>
43012

> <i_f3d_flags>
0

> <s_epik_input>
bjFbY0hdW2NIXVtjSF1uMVtDQEhdKFtDSDNdKUMoPU8pW05IXVtDQEBIXTJbQ0gyXVtDSDJdW0NIMl1bQ0BIXShbQ0gyXTIpUyg9TykoPU8pW0NIM10=

> <s_epik_cmdline>
J2VwaWtfcHl0aG9uJywgJy1waCcsICc3LjAnLCAnLXRuJywgJzgnLCAnLW1hJywgJzIwMCcsICctbWV0YWxfYmluZGluZycsICctaW1hZScsICc8aW5maWxlLm1hZT4nLCAnLW9tYWUnLCAnPG91dGZpbGUubWFlPic=

> <r_lp_tautomer_probability>
1

> <r_epik_Ionization_Penalty>
4.07816e-05

> <r_epik_Ionization_Penalty_Charging>
0

> <r_epik_Ionization_Penalty_Neutral>
4.07816e-05

> <r_epik_State_Penalty>
-0

> <r_epik_Charging_Adjusted_Penalty>
0

> <i_epik_Tot_Q>
0

> <i_epik_Tot_abs_Q>
0

> <r_epik_Metal_State_Penalty>
-0

> <b_epik_Metal_Only>
0

> <s_lp_Force_Field>
OPLS_2005

> <r_lp_Energy>
6.63175

> <b_lp_Chiralities_Consistent>
1

> <s_lp_Variant>
AV-unprocessed.smi:713-3

> <Gold.Version>
5.8.1

> <Gold.Id.Protein>
6NUR|6NUR_protein|mol2

> <Gold.PLP.Fitness>
47.7368

> <Gold.PLP.PLP>
-43.5769

> <Gold.PLP.part.hbond>
-2.0000

> <Gold.PLP.part.metal>
0.0000

> <Gold.PLP.part.buried>
-6.0444

> <Gold.PLP.part.nonpolar>
-35.3600

> <Gold.PLP.part.repulsive>
0.6342

> <Gold.PLP.ligand.clash>
0.0000

> <Gold.PLP.ligand.torsion>
0.4898

> <Gold.PLP.Chemscore.Hbond>
1.6320

> <Gold.PLP.Chemscore.CHOScore>
0.0000

> <Gold.PLP.Chemscore.Metal>
0.0000

> <Gold.Chemscore.Hbonds>
donor molecule, donor type, donor heavy atom, donor atom, acceptor molecule, acceptor atom, score
      P1  H 10752 10765       L1    13  0.56

> <Gold.PLP.Chemscore.Internal.Correction>
0.2434

> <Gold.Rescore>
     Score         DG    S(hbond)    S(metal)    S(lipo)     H(rot)  DE(clash)    DE(int)     intcor
     16.02     -17.88       1.74        0.00      94.22       1.72       0.02       1.85       ----

> <Gold.Chemscore.Fitness>
16.0182

> <Gold.Chemscore.DG>
-17.8849

> <Gold.Chemscore.ZeroCoef>
-5.4800

> <Gold.Chemscore.Hbond>
1.7357

> <Gold.Chemscore.Metal>
0.0000

> <Gold.Chemscore.Lipo>
94.2169

> <Gold.Chemscore.Internal_Hbond>
0.0000

> <Gold.Chemscore.DEClash>
0.0170

> <Gold.Chemscore.DEInternal>
1.8498

> <Gold.Chemscore.Rot>
1.7249

> <Gold.Chemscore.Internal.Correction>
   9.000000E+99

> <Gold.Chemscore.Hbonds>
donor molecule, donor type, donor heavy atom, donor atom, acceptor molecule, acceptor atom, score
      P1  H 10752 10765       L1    13  0.19

> <Gold.Chemscore.Hbond.Weighted>
-5.7973

> <Gold.Chemscore.Metal.Weighted>
-0.0000

> <Gold.Chemscore.Lipo.Weighted>
-11.0234

> <Gold.Chemscore.Internal_Hbond.Weighted>
0.0000

> <Gold.Chemscore.DEClash.Weighted>
0.0170

> <Gold.Chemscore.DEInternal.Weighted>
1.8498

> <Gold.Chemscore.Rot.Weighted>
4.4157

> <Gold.Chemscore.Internal.Correction.Weighted>
   9.000000E+99

> <Gold.Protein.RotatedTorsions>
[ 6907 6896 6895 6894 ] final -161.25 input  -60.11 | X-H torsion
[ 7974 7965 7964 7962 ] final -114.70 input  175.53 | X-H torsion
[ 8008 7997 7996 7995 ] final -153.17 input   59.86 | X-H torsion
[ 10167 10162 10161 10158 ] final -131.75 input  -65.29 | X-H torsion
[ 10718 10713 10712 10709 ] final -164.72 input   66.30 | X-H torsion
[ 10763 10752 10751 10750 ] final -149.10 input  -60.55 | X-H torsion
[ 11005 11000 10999 10996 ] final  100.63 input  -57.11 | X-H torsion

> <Gold.Protein.ActiveResidues>
 VAL166  LYS551  ARG553  GLY616  TRP617  ASP618  TYR619  PRO620  LYS621  CYS622 
 ASP623  PHE694  ASN695  SER759  ASP760  ASP761  ALA762  ILE779  LEU786  VAL792 
 PHE793  MET794  SER795  GLU796  ALA797  LYS798  CYS799  TRP800  GLU811  SER814 

> <Gold.Protein.RotatedAtoms>
  151.3618  133.3887  159.2690 H   0  0  0  0  0  0  0  0  0  0  0  0  # atno 6907 bound_to 6896
  150.9720  134.9092  159.7804 H   0  0  0  0  0  0  0  0  0  0  0  0  # atno 6908 bound_to 6896
  152.5187  134.3580  159.9327 H   0  0  0  0  0  0  0  0  0  0  0  0  # atno 6909 bound_to 6896
  145.1171  140.8647  143.3836 H   0  0  0  0  0  0  0  0  0  0  0  0  # atno 7974 bound_to 7965
  155.6667  140.0728  157.2535 H   0  0  0  0  0  0  0  0  0  0  0  0  # atno 8008 bound_to 7997
  154.4131  140.1706  156.1886 H   0  0  0  0  0  0  0  0  0  0  0  0  # atno 8009 bound_to 7997
  155.9651  140.3366  155.6529 H   0  0  0  0  0  0  0  0  0  0  0  0  # atno 8010 bound_to 7997
  139.9157  143.6441  152.2565 H   0  0  0  0  0  0  0  0  0  0  0  0  # atno 10167 bound_to 10162
  156.6430  130.8976  151.2999 H   0  0  0  0  0  0  0  0  0  0  0  0  # atno 10718 bound_to 10713
  154.8196  135.3317  154.7077 H   0  0  0  0  0  0  0  0  0  0  0  0  # atno 10763 bound_to 10752
  153.7712  135.6925  153.4910 H   0  0  0  0  0  0  0  0  0  0  0  0  # atno 10764 bound_to 10752
  153.2044  135.4504  155.0253 H   0  0  0  0  0  0  0  0  0  0  0  0  # atno 10765 bound_to 10752
  139.8771  134.9148  156.4785 H   0  0  0  0  0  0  0  0  0  0  0  0  # atno 11005 bound_to 11000
  145.0782  139.2980  143.5797 LP  0  0  0  0  0  0  0  0  0  0  0  0  # atno 17320 bound_to 7965
  146.3523  140.0279  142.8653 LP  0  0  0  0  0  0  0  0  0  0  0  0  # atno 17321 bound_to 7965
  139.6904  144.7647  151.1448 LP  0  0  0  0  0  0  0  0  0  0  0  0  # atno 17342 bound_to 10162
  140.7674  143.5597  150.9113 LP  0  0  0  0  0  0  0  0  0  0  0  0  # atno 17343 bound_to 10162
  157.7165  130.9504  150.1274 LP  0  0  0  0  0  0  0  0  0  0  0  0  # atno 17370 bound_to 10713
  156.2144  130.3669  149.8631 LP  0  0  0  0  0  0  0  0  0  0  0  0  # atno 17371 bound_to 10713
  140.8744  133.7964  155.9399 LP  0  0  0  0  0  0  0  0  0  0  0  0  # atno 17394 bound_to 11000
  140.8919  134.2485  157.5090 LP  0  0  0  0  0  0  0  0  0  0  0  0  # atno 17395 bound_to 11000

$$$$
