AV-unprocessed.smi:769|AV-procd|sdf|3675|dock4
  -GOLD-   22720 1 83D 1   1.00000     0.00000
 Structure written by MMmdl.
 50 52  0  0  0  0  0  0  0  0  2 V2000
  144.6680  136.3976  152.7819 O   0  0  0  0  0  0  0  0  0  0  0  0
  145.8519  136.3063  152.4580 C   0  0  0  0  0  0  0  0  0  0  0  0
  146.7875  137.1840  152.8485 N   0  0  0  0  0  0  0  0  0  0  0  0
  146.5421  138.3312  153.7152 C   0  0  0  0  0  0  0  0  0  0  0  0
  147.4383  138.2985  154.9689 C   0  0  0  0  0  0  0  0  0  0  0  0
  148.5756  139.2481  154.8810 N   0  3  0  0  0  0  0  0  0  0  0  0
  148.3733  140.4441  155.7439 C   0  0  0  0  0  0  0  0  0  0  0  0
  149.5596  141.4216  155.6485 C   0  0  0  0  0  0  0  0  0  0  0  0
  150.7934  140.7017  155.9758 N   0  0  0  0  0  0  0  0  0  0  0  0
  151.5193  140.9540  157.0924 C   0  0  0  0  0  0  0  0  0  0  0  0
  152.4981  140.2728  157.4003 O   0  0  0  0  0  0  0  0  0  0  0  0
  151.1343  142.1587  157.9782 C   0  0  0  0  0  0  0  0  0  0  0  0
  151.6105  143.5450  157.4998 C   0  0  0  0  0  0  0  0  0  0  0  0
  152.7426  143.4942  158.5301 C   0  0  0  0  0  0  0  0  0  0  0  0
  152.0240  142.3310  159.2211 C   0  0  0  0  0  0  0  0  0  0  0  0
  151.0463  139.6277  155.0111 C   0  0  0  0  0  0  0  0  0  0  0  0
  149.9016  138.6019  155.0946 C   0  0  0  0  0  0  0  0  0  0  0  0
  146.3783  135.3519  151.6705 N   0  0  0  0  0  0  0  0  0  0  0  0
  145.7361  134.2409  151.0571 C   0  0  0  0  0  0  0  0  0  0  0  0
  146.5545  133.1893  150.5951 C   0  0  0  0  0  0  0  0  0  0  0  0
  145.9477  132.0681  149.9946 C   0  0  0  0  0  0  0  0  0  0  0  0
  144.6132  131.9403  149.8417 N   0  0  0  0  0  0  0  0  0  0  0  0
  143.8299  132.9416  150.2952 C   0  0  0  0  0  0  0  0  0  0  0  0
  144.3341  134.1051  150.9105 C   0  0  0  0  0  0  0  0  0  0  0  0
  147.7372  137.0397  152.5367 H   0  0  0  0  0  0  0  0  0  0  0  0
  146.6898  139.2455  153.1398 H   0  0  0  0  0  0  0  0  0  0  0  0
  145.4922  138.3154  154.0085 H   0  0  0  0  0  0  0  0  0  0  0  0
  146.8218  138.5586  155.8308 H   0  0  0  0  0  0  0  0  0  0  0  0
  147.8195  137.2936  155.1569 H   0  0  0  0  0  0  0  0  0  0  0  0
  147.4556  140.9561  155.4518 H   0  0  0  0  0  0  0  0  0  0  0  0
  148.2428  140.1234  156.7790 H   0  0  0  0  0  0  0  0  0  0  0  0
  149.6351  141.8250  154.6376 H   0  0  0  0  0  0  0  0  0  0  0  0
  149.3804  142.2800  156.2972 H   0  0  0  0  0  0  0  0  0  0  0  0
  150.0673  142.1754  158.2030 H   0  0  0  0  0  0  0  0  0  0  0  0
  151.9553  143.6145  156.4676 H   0  0  0  0  0  0  0  0  0  0  0  0
  150.8825  144.3281  157.7160 H   0  0  0  0  0  0  0  0  0  0  0  0
  153.6965  143.1979  158.0916 H   0  0  0  0  0  0  0  0  0  0  0  0
  152.8396  144.3929  159.1398 H   0  0  0  0  0  0  0  0  0  0  0  0
  151.4572  142.6414  160.0998 H   0  0  0  0  0  0  0  0  0  0  0  0
  152.6762  141.4867  159.4495 H   0  0  0  0  0  0  0  0  0  0  0  0
  151.0863  140.0556  154.0082 H   0  0  0  0  0  0  0  0  0  0  0  0
  152.0057  139.1308  155.1460 H   0  0  0  0  0  0  0  0  0  0  0  0
  149.9154  138.1148  156.0710 H   0  0  0  0  0  0  0  0  0  0  0  0
  150.0686  137.8242  154.3507 H   0  0  0  0  0  0  0  0  0  0  0  0
  147.3571  135.4556  151.4470 H   0  0  0  0  0  0  0  0  0  0  0  0
  147.6293  133.2371  150.6926 H   0  0  0  0  0  0  0  0  0  0  0  0
  146.5519  131.2514  149.6284 H   0  0  0  0  0  0  0  0  0  0  0  0
  142.7654  132.8096  150.1688 H   0  0  0  0  0  0  0  0  0  0  0  0
  143.6386  134.8510  151.2615 H   0  0  0  0  0  0  0  0  0  0  0  0
  148.5803  139.5982  153.9336 H   0  0  0  0  0  0  0  0  0  0  0  0
  1  2  2  0  0  0  0
  2  3  1  0  0  0  0
  2 18  1  0  0  0  0
  3  4  1  0  0  0  0
  3 25  1  0  0  0  0
  4  5  1  0  0  0  0
  4 26  1  0  0  0  0
  4 27  1  0  0  0  0
  5  6  1  0  0  0  0
  5 28  1  0  0  0  0
  5 29  1  0  0  0  0
  6 17  1  0  0  0  0
  6  7  1  0  0  0  0
  6 50  1  0  0  0  0
  7  8  1  0  0  0  0
  7 30  1  0  0  0  0
  7 31  1  0  0  0  0
  8  9  1  0  0  0  0
  8 32  1  0  0  0  0
  8 33  1  0  0  0  0
  9 10  1  0  0  0  0
  9 16  1  0  0  0  0
 10 11  2  0  0  0  0
 10 12  1  0  0  0  0
 12 15  1  0  0  0  0
 12 13  1  0  0  0  0
 12 34  1  0  0  0  0
 13 14  1  0  0  0  0
 13 35  1  0  0  0  0
 13 36  1  0  0  0  0
 14 15  1  0  0  0  0
 14 37  1  0  0  0  0
 14 38  1  0  0  0  0
 15 39  1  0  0  0  0
 15 40  1  0  0  0  0
 16 17  1  0  0  0  0
 16 41  1  0  0  0  0
 16 42  1  0  0  0  0
 17 43  1  0  0  0  0
 17 44  1  0  0  0  0
 18 19  1  0  0  0  0
 18 45  1  0  0  0  0
 19 24  1  0  0  0  0
 19 20  2  0  0  0  0
 20 21  1  0  0  0  0
 20 46  1  0  0  0  0
 21 22  2  0  0  0  0
 21 47  1  0  0  0  0
 22 23  1  0  0  0  0
 23 24  2  0  0  0  0
 23 48  1  0  0  0  0
 24 49  1  0  0  0  0
M  CHG  1   6   1
M  END
> <s_m_source_file>
AV-unprocessed.smi

> <i_m_source_file_index>
769

> <i_lp_mmshare_version>
43012

> <i_f3d_flags>
0

> <s_epik_input>
W2NIXTFbY0hdbltjSF1bY0hdYzFbTkhdQyg9TylbTkhdW0NIMl1bQ0gyXU4yW0NIMl1bQ0gyXU4oW0NIMl1bQ0gyXTIpQyg9TylbQ0hdM1tDSDJdW0NIMl1bQ0gyXTM=

> <s_epik_cmdline>
J2VwaWtfcHl0aG9uJywgJy1waCcsICc3LjAnLCAnLXRuJywgJzgnLCAnLW1hJywgJzIwMCcsICctbWV0YWxfYmluZGluZycsICctaW1hZScsICc8aW5maWxlLm1hZT4nLCAnLW9tYWUnLCAnPG91dGZpbGUubWFlPic=

> <r_epik_Ionization_Penalty>
0.680309

> <r_epik_Ionization_Penalty_Charging>
0.581996

> <r_epik_Ionization_Penalty_Neutral>
0.0983131

> <r_epik_State_Penalty>
0.686881

> <r_epik_Charging_Adjusted_Penalty>
1.26888

> <i_epik_Tot_Q>
1

> <i_epik_Tot_abs_Q>
1

> <r_epik_Metal_State_Penalty>
0.68612

> <b_epik_Metal_Only>
0

> <s_lp_Force_Field>
OPLS_2005

> <r_lp_Energy>
56.1037

> <b_lp_Chiralities_Consistent>
1

> <s_lp_Variant>
AV-unprocessed.smi:769-2

> <Gold.Version>
5.8.1

> <Gold.Id.Protein>
6NUR|6NUR_protein|mol2

> <Gold.PLP.Fitness>
54.2817

> <Gold.PLP.PLP>
-41.9246

> <Gold.PLP.part.hbond>
-3.3362

> <Gold.PLP.part.metal>
0.0000

> <Gold.PLP.part.buried>
-4.5718

> <Gold.PLP.part.nonpolar>
-34.2715

> <Gold.PLP.part.repulsive>
0.3927

> <Gold.PLP.ligand.clash>
0.0000

> <Gold.PLP.ligand.torsion>
1.3732

> <Gold.PLP.Chemscore.Hbond>
2.9920

> <Gold.PLP.Chemscore.CHOScore>
1.9031

> <Gold.PLP.Chemscore.Metal>
0.0000

> <Gold.Chemscore.Hbonds>
donor molecule, donor type, donor heavy atom, donor atom, acceptor molecule, acceptor atom, score
      L1  H     3    25       P1  7948  1.00
      L1  H    18    45       P1  7948  0.99
      P1  H  7997  8009       L1    11  0.99
      L1  C    21    47       P1 10747  0.91
      L1  C    23    48       P1 10186  1.00

> <Gold.PLP.Chemscore.Internal.Correction>
0.4183

> <Gold.Rescore>
     Score         DG    S(hbond)    S(metal)    S(lipo)     H(rot)  DE(clash)    DE(int)     intcor
     20.65     -23.28       2.87        0.00     107.78       1.72       0.23       2.40       ----

> <Gold.Chemscore.Fitness>
20.6528

> <Gold.Chemscore.DG>
-23.2833

> <Gold.Chemscore.ZeroCoef>
-5.4800

> <Gold.Chemscore.Hbond>
2.8729

> <Gold.Chemscore.Metal>
0.0000

> <Gold.Chemscore.Lipo>
107.7759

> <Gold.Chemscore.Internal_Hbond>
0.0000

> <Gold.Chemscore.DEClash>
0.2293

> <Gold.Chemscore.DEInternal>
2.4012

> <Gold.Chemscore.Rot>
1.7195

> <Gold.Chemscore.Internal.Correction>
   9.000000E+99

> <Gold.Chemscore.Hbonds>
donor molecule, donor type, donor heavy atom, donor atom, acceptor molecule, acceptor atom, score
      L1  H     3    25       P1  7948  0.97
      L1  H    18    45       P1  7948  0.87
      P1  H  7997  8009       L1    11  0.88

> <Gold.Chemscore.Hbond.Weighted>
-9.5955

> <Gold.Chemscore.Metal.Weighted>
-0.0000

> <Gold.Chemscore.Lipo.Weighted>
-12.6098

> <Gold.Chemscore.Internal_Hbond.Weighted>
0.0000

> <Gold.Chemscore.DEClash.Weighted>
0.2293

> <Gold.Chemscore.DEInternal.Weighted>
2.4012

> <Gold.Chemscore.Rot.Weighted>
4.4020

> <Gold.Chemscore.Internal.Correction.Weighted>
   9.000000E+99

> <Gold.Protein.RotatedTorsions>
[ 6907 6896 6895 6894 ] final -148.55 input  -60.11 | X-H torsion
[ 7974 7965 7964 7962 ] final   86.15 input  175.53 | X-H torsion
[ 8008 7997 7996 7995 ] final  173.84 input   59.86 | X-H torsion
[ 10167 10162 10161 10158 ] final  -47.79 input  -65.29 | X-H torsion
[ 10718 10713 10712 10709 ] final -138.24 input   66.30 | X-H torsion
[ 10763 10752 10751 10750 ] final -155.77 input  -60.55 | X-H torsion
[ 11005 11000 10999 10996 ] final -131.38 input  -57.11 | X-H torsion

> <Gold.Protein.ActiveResidues>
 VAL166  LYS551  ARG553  GLY616  TRP617  ASP618  TYR619  PRO620  LYS621  CYS622 
 ASP623  PHE694  ASN695  SER759  ASP760  ASP761  ALA762  ILE779  LEU786  VAL792 
 PHE793  MET794  SER795  GLU796  ALA797  LYS798  CYS799  TRP800  GLU811  SER814 

> <Gold.Protein.RotatedAtoms>
  151.1715  133.4781  159.2593 H   0  0  0  0  0  0  0  0  0  0  0  0  # atno 6907 bound_to 6896
  151.1352  135.0150  159.8610 H   0  0  0  0  0  0  0  0  0  0  0  0  # atno 6908 bound_to 6896
  152.5461  134.1613  159.8612 H   0  0  0  0  0  0  0  0  0  0  0  0  # atno 6909 bound_to 6896
  145.5760  139.2319  143.2379 H   0  0  0  0  0  0  0  0  0  0  0  0  # atno 7974 bound_to 7965
  156.1034  140.1449  156.9436 H   0  0  0  0  0  0  0  0  0  0  0  0  # atno 8008 bound_to 7997
  154.4718  140.0907  156.7208 H   0  0  0  0  0  0  0  0  0  0  0  0  # atno 8009 bound_to 7997
  155.4720  140.3442  155.4329 H   0  0  0  0  0  0  0  0  0  0  0  0  # atno 8010 bound_to 7997
  140.6760  143.2769  151.3977 H   0  0  0  0  0  0  0  0  0  0  0  0  # atno 10167 bound_to 10162
  156.2971  130.7407  151.1449 H   0  0  0  0  0  0  0  0  0  0  0  0  # atno 10718 bound_to 10713
  154.7763  135.3160  154.8085 H   0  0  0  0  0  0  0  0  0  0  0  0  # atno 10763 bound_to 10752
  153.8808  135.6835  153.4771 H   0  0  0  0  0  0  0  0  0  0  0  0  # atno 10764 bound_to 10752
  153.1387  135.4748  154.9399 H   0  0  0  0  0  0  0  0  0  0  0  0  # atno 10765 bound_to 10752
  140.9264  134.1377  157.4272 H   0  0  0  0  0  0  0  0  0  0  0  0  # atno 11005 bound_to 11000
  146.1750  140.6587  142.9215 LP  0  0  0  0  0  0  0  0  0  0  0  0  # atno 17320 bound_to 7965
  144.7415  140.4956  143.6865 LP  0  0  0  0  0  0  0  0  0  0  0  0  # atno 17321 bound_to 7965
  139.6052  144.1211  152.2242 LP  0  0  0  0  0  0  0  0  0  0  0  0  # atno 17342 bound_to 10162
  140.0608  144.5858  150.7264 LP  0  0  0  0  0  0  0  0  0  0  0  0  # atno 17343 bound_to 10162
  157.7358  131.0568  150.5449 LP  0  0  0  0  0  0  0  0  0  0  0  0  # atno 17370 bound_to 10713
  156.5572  130.4246  149.6080 LP  0  0  0  0  0  0  0  0  0  0  0  0  # atno 17371 bound_to 10713
  139.8786  134.9989  156.5928 LP  0  0  0  0  0  0  0  0  0  0  0  0  # atno 17394 bound_to 11000
  140.7921  133.8574  155.8654 LP  0  0  0  0  0  0  0  0  0  0  0  0  # atno 17395 bound_to 11000

$$$$
