#       Name:                AV-unprocessed.smi:54
#       Creating user name   scv26
#       Creation time:       Thu Mar 26 16:42:54 2020


#       File generated by GOLD software.
#

@<TRIPOS>MOLECULE
AV-unprocessed.smi:54
    58    60     1
SMALL
NO_CHARGES


@<TRIPOS>ATOM
      1 ****        -0.4236   5.5170  -1.9038 C.3            1 S1                 0.0000
      2 ****        -1.1170   4.9660  -0.6471 C.3            1 S1                 0.0000
      3 ****        -0.6839   5.7343   0.6118 C.3            1 S1                 0.0000
      4 ****        -0.8370   3.4673  -0.4869 C.2            1 S1                 0.0000
      5 ****         0.3069   3.0263  -0.3695 O.2            1 S1                 0.0000
      6 ****        -2.0113   2.6129  -0.4781 N.am           1 S1                 0.0000
      7 ****        -2.0491   1.2661  -0.3503 C.2            1 S1                 0.0000
      8 ****        -0.9644   0.5040  -0.3581 N.2            1 S1                 0.0000
      9 ****        -1.2085  -0.8344  -0.2222 C.2            1 S1                 0.0000
     10 ****        -2.4420  -1.4357  -0.0849 C.2            1 S1                 0.0000
     11 ****        -2.2937  -2.8133   0.0299 N.2            1 S1                 0.0000
     12 ****        -1.0053  -2.9996  -0.0413 C.2            1 S1                 0.0000
     13 ****        -0.2718  -1.8453  -0.1878 N.pl3          1 S1                 0.0000
     14 ****         1.2121  -1.6714  -0.3022 C.3            1 S1                 0.0000
     15 ****         1.7278  -2.8464  -0.8535 O.3            1 S1                 0.0000
     16 ****         2.6898  -3.4419   0.0160 C.3            1 S1                 0.0000
     17 ****         2.6741  -4.9755  -0.1116 C.3            1 S1                 0.0000
     18 ****         3.4187  -5.3756  -1.2422 O.3            1 S1                 0.0000
     19 ****         2.3590  -2.8873   1.4093 C.3            1 S1                 0.0000
     20 ****         1.3692  -3.6667   2.0606 O.3            1 S1                 0.0000
     21 ****         1.8758  -1.4828   1.0747 C.3            1 S1                 0.0000
     22 ****         1.0525  -0.9204   2.0820 O.3            1 S1                 0.0000
     23 ****        -3.6256  -0.6257  -0.0796 C.2            1 S1                 0.0000
     24 ****        -4.7954  -0.9865   0.0297 O.2            1 S1                 0.0000
     25 ****        -3.3336   0.7372  -0.2208 N.am           1 S1                 0.0000
     26 ****         1.3440  -0.8232  -0.9749 H              1 S1                 0.0000
     27 ****         3.6712  -3.0557  -0.2657 H              1 S1                 0.0000
     28 ****         3.2412  -2.8652   2.0499 H              1 S1                 0.0000
     29 ****         2.7422  -0.8364   0.9289 H              1 S1                 0.0000
     30 ****        -0.7211   4.9646  -2.7961 H              1 S1                 0.0000
     31 ****         0.6625   5.4576  -1.8221 H              1 S1                 0.0000
     32 ****        -0.6849   6.5631  -2.0654 H              1 S1                 0.0000
     33 ****        -2.1926   5.1001  -0.7712 H              1 S1                 0.0000
     34 ****        -1.1790   5.3469   1.5032 H              1 S1                 0.0000
     35 ****        -0.9398   6.7908   0.5300 H              1 S1                 0.0000
     36 ****         0.3930   5.6674   0.7729 H              1 S1                 0.0000
     37 ****        -2.8997   3.0848  -0.5592 H              1 S1                 0.0000
     38 ****        -0.5596  -3.9821   0.0117 H              1 S1                 0.0000
     39 ****         3.1411  -5.4304   0.7624 H              1 S1                 0.0000
     40 ****         1.6556  -5.3597  -0.1745 H              1 S1                 0.0000
     41 ****         3.3920  -6.3183  -1.3015 H              1 S1                 0.0000
     42 ****         1.1746  -3.2650   2.8938 H              1 S1                 0.0000
     43 ****         0.2574  -1.4293   2.1308 H              1 S1                 0.0000
     44 ****        -4.1213   1.3683  -0.2251 H              1 S1                 0.0000
     45 ****         1.0871   3.6517  -0.3770 LP             1 S1                 0.0000
     46 ****         0.4555   2.0427  -0.2667 LP             1 S1                 0.0000
     47 ****        -0.0421   0.8778  -0.4556 LP             1 S1                 0.0000
     48 ****        -3.0099  -3.5022   0.1413 LP             1 S1                 0.0000
     49 ****         2.1650  -2.6330  -1.7272 LP             1 S1                 0.0000
     50 ****         0.9795  -3.4924  -1.0043 LP             1 S1                 0.0000
     51 ****         4.3662  -5.0705  -1.1471 LP             1 S1                 0.0000
     52 ****         3.0206  -4.9745  -2.0673 LP             1 S1                 0.0000
     53 ****         1.7111  -4.5953   2.2048 LP             1 S1                 0.0000
     54 ****         0.5419  -3.6995   1.4998 LP             1 S1                 0.0000
     55 ****         0.8342   0.0277   1.8507 LP             1 S1                 0.0000
     56 ****         1.5269  -0.9482   2.9618 LP             1 S1                 0.0000
     57 ****        -5.0118  -1.9576   0.1309 LP             1 S1                 0.0000
     58 ****        -5.5308  -0.3090   0.0173 LP             1 S1                 0.0000
@<TRIPOS>BOND
    1    1    2 1     
    2    1   30 1     
    3    1   31 1     
    4    1   32 1     
    5    2    3 1     
    6    2    4 1     
    7    2   33 1     
    8    3   34 1     
    9    3   35 1     
   10    3   36 1     
   11    4    5 2     
   12    4    6 am    
   13    6   37 1     
   14    6    7 1     
   15    7   25 1     
   16    7    8 2     
   17    8    9 1     
   18    9   13 1     
   19    9   10 2     
   20   10   11 1     
   21   10   23 1     
   22   11   12 2     
   23   12   13 1     
   24   12   38 1     
   25   13   14 1     
   26   14   26 1     
   27   14   21 1     
   28   14   15 1     
   29   15   16 1     
   30   16   27 1     
   31   16   17 1     
   32   16   19 1     
   33   17   18 1     
   34   17   39 1     
   35   17   40 1     
   36   18   41 1     
   37   19   28 1     
   38   19   20 1     
   39   19   21 1     
   40   20   42 1     
   41   21   29 1     
   42   21   22 1     
   43   22   43 1     
   44   23   24 2     
   45   23   25 am    
   46   25   44 1     
   47    5   45 1     
   48    5   46 1     
   49    8   47 1     
   50   11   48 1     
   51   15   49 1     
   52   15   50 1     
   53   18   51 1     
   54   18   52 1     
   55   20   53 1     
   56   20   54 1     
   57   22   55 1     
   58   22   56 1     
   59   24   57 1     
   60   24   58 1     
@<TRIPOS>SUBSTRUCTURE
      1 S1             1
@<TRIPOS>SET
LONE_PAIRS      STATIC     ATOMS    <user>   **** ""
14 45 46 47 48 49 50 51 52 53 54 55 56 57 58
DONOR_HYDROGENS      STATIC     ATOMS    <user>   **** ""
5 37 41 42 43 44
ATOM$BLUE        STATIC     ATOMS    COLORGROUP SYSTEM
14 45 46 47 48 49 50 51 52 53 54 55 56 57 58
ATOM$RED        STATIC     ATOMS    COLORGROUP SYSTEM
5 37 41 42 43 44
