AV-unprocessed.smi:2100|AV-procd|sdf|8573|dock2
  -GOLD-   2272011303D 1   1.00000     0.00000
 Structure written by MMmdl.
 41 42  0  0  0  0  0  0  0  0  1 V2000
  150.4708  134.2390  156.3240 C   0  0  0  0  0  0  0  0  0  0  0  0
  150.0267  135.6560  156.7027 C   0  0  2  0  0  0  0  0  0  0  0  0
  151.0207  136.7204  156.2079 C   0  0  0  0  0  0  0  0  0  0  0  0
  150.6437  138.0568  156.6954 N   0  0  0  0  0  0  0  0  0  0  0  0
  151.4223  139.4216  155.9703 S   0  0  0  0  0  0  0  0  0  0  0  0
  152.7436  139.6017  156.5912 O   0  0  0  0  0  0  0  0  0  0  0  0
  151.2812  139.3213  154.5096 O   0  0  0  0  0  0  0  0  0  0  0  0
  150.3876  140.6774  156.5479 N   0  0  0  0  0  0  0  0  0  0  0  0
  150.5580  141.1967  157.9060 C   0  0  0  0  0  0  0  0  0  0  0  0
  151.8935  141.9411  158.0628 C   0  0  0  0  0  0  0  0  0  0  0  0
  151.9944  142.6551  159.3974 C   0  0  0  0  0  0  0  0  0  0  0  0
  151.6011  144.0045  159.5254 C   0  0  0  0  0  0  0  0  0  0  0  0
  151.7068  144.6168  160.7894 C   0  0  0  0  0  0  0  0  0  0  0  0
  152.1975  143.8601  161.8709 C   0  0  0  0  0  0  0  0  0  0  0  0
  152.5626  142.5188  161.6394 C   0  0  0  0  0  0  0  0  0  0  0  0
  152.4654  141.9223  160.4317 N   0  0  0  0  0  0  0  0  0  0  0  0
  150.4434  138.1007  158.1521 C   0  0  0  0  0  0  0  0  0  0  0  0
  149.4989  136.9804  158.6291 C   0  0  1  0  0  0  0  0  0  0  0  0
  148.0163  137.2641  158.3276 C   0  0  0  0  0  0  0  0  0  0  0  0
  149.9193  135.7168  158.1203 O   0  0  0  0  0  0  0  0  0  0  0  0
  150.5600  134.1308  155.2428 H   0  0  0  0  0  0  0  0  0  0  0  0
  149.7501  133.4991  156.6732 H   0  0  0  0  0  0  0  0  0  0  0  0
  151.4377  133.9965  156.7660 H   0  0  0  0  0  0  0  0  0  0  0  0
  149.0505  135.8317  156.2504 H   0  0  0  0  0  0  0  0  0  0  0  0
  152.0288  136.4916  156.5568 H   0  0  0  0  0  0  0  0  0  0  0  0
  151.0538  136.7148  155.1187 H   0  0  0  0  0  0  0  0  0  0  0  0
  149.4119  140.5223  156.2953 H   0  0  0  0  0  0  0  0  0  0  0  0
  149.7318  141.8756  158.1189 H   0  0  0  0  0  0  0  0  0  0  0  0
  150.4848  140.3739  158.6183 H   0  0  0  0  0  0  0  0  0  0  0  0
  152.7306  141.2468  157.9827 H   0  0  0  0  0  0  0  0  0  0  0  0
  152.0157  142.6649  157.2556 H   0  0  0  0  0  0  0  0  0  0  0  0
  151.2257  144.5583  158.6774 H   0  0  0  0  0  0  0  0  0  0  0  0
  151.4160  145.6478  160.9269 H   0  0  0  0  0  0  0  0  0  0  0  0
  152.2918  144.2964  162.8542 H   0  0  0  0  0  0  0  0  0  0  0  0
  152.9427  141.9088  162.4455 H   0  0  0  0  0  0  0  0  0  0  0  0
  151.4155  137.9965  158.6361 H   0  0  0  0  0  0  0  0  0  0  0  0
  150.0490  139.0735  158.4462 H   0  0  0  0  0  0  0  0  0  0  0  0
  149.5897  136.9117  159.7135 H   0  0  0  0  0  0  0  0  0  0  0  0
  147.6795  138.1570  158.8548 H   0  0  0  0  0  0  0  0  0  0  0  0
  147.3875  136.4342  158.6509 H   0  0  0  0  0  0  0  0  0  0  0  0
  147.8344  137.4302  157.2661 H   0  0  0  0  0  0  0  0  0  0  0  0
  1  2  1  0  0  0  0
  1 21  1  0  0  0  0
  1 22  1  0  0  0  0
  1 23  1  0  0  0  0
  2 20  1  0  0  0  0
  2  3  1  0  0  0  0
  2 24  1  0  0  0  0
  3  4  1  0  0  0  0
  3 25  1  0  0  0  0
  3 26  1  0  0  0  0
  4  5  1  0  0  0  0
  4 17  1  0  0  0  0
  5  6  2  0  0  0  0
  5  7  2  0  0  0  0
  5  8  1  0  0  0  0
  8  9  1  0  0  0  0
  8 27  1  0  0  0  0
  9 10  1  0  0  0  0
  9 28  1  0  0  0  0
  9 29  1  0  0  0  0
 10 11  1  0  0  0  0
 10 30  1  0  0  0  0
 10 31  1  0  0  0  0
 11 16  1  0  0  0  0
 11 12  2  0  0  0  0
 12 13  1  0  0  0  0
 12 32  1  0  0  0  0
 13 14  2  0  0  0  0
 13 33  1  0  0  0  0
 14 15  1  0  0  0  0
 14 34  1  0  0  0  0
 15 16  2  0  0  0  0
 15 35  1  0  0  0  0
 17 18  1  0  0  0  0
 17 36  1  0  0  0  0
 17 37  1  0  0  0  0
 18 19  1  0  0  0  0
 18 20  1  0  0  0  0
 18 38  1  0  0  0  0
 19 39  1  0  0  0  0
 19 40  1  0  0  0  0
 19 41  1  0  0  0  0
M  END
> <s_m_source_file>
AV-unprocessed.smi

> <i_m_source_file_index>
2100

> <i_lp_mmshare_version>
43012

> <i_f3d_flags>
0

> <s_epik_input>
W0NIM11bQ0BASF0xW0NIMl1OKFtDSDJdW0NASF0oTzEpW0NIM10pUyg9TykoPU8pW05IXVtDSDJdW0NIMl1jMltjSF1bY0hdW2NIXVtjSF1uMg==

> <s_epik_cmdline>
J2VwaWtfcHl0aG9uJywgJy1waCcsICc3LjAnLCAnLXRuJywgJzgnLCAnLW1hJywgJzIwMCcsICctbWV0YWxfYmluZGluZycsICctaW1hZScsICc8aW5maWxlLm1hZT4nLCAnLW9tYWUnLCAnPG91dGZpbGUubWFlPic=

> <r_epik_Ionization_Penalty>
0.085378

> <r_epik_Ionization_Penalty_Charging>
0

> <r_epik_Ionization_Penalty_Neutral>
0.085378

> <r_epik_State_Penalty>
0.0441186

> <r_epik_Charging_Adjusted_Penalty>
0.0441186

> <i_epik_Tot_Q>
0

> <i_epik_Tot_abs_Q>
0

> <r_epik_Metal_State_Penalty>
0.24397

> <b_epik_Metal_Only>
0

> <s_lp_Force_Field>
OPLS_2005

> <r_lp_Energy>
7.96462

> <b_lp_Chiralities_Consistent>
1

> <s_lp_Variant>
AV-unprocessed.smi:2100-1

> <Gold.Version>
5.8.1

> <Gold.Id.Protein>
6NUR|6NUR_protein|mol2

> <Gold.PLP.Fitness>
43.1753

> <Gold.PLP.PLP>
-35.9970

> <Gold.PLP.part.hbond>
-3.0000

> <Gold.PLP.part.metal>
0.0000

> <Gold.PLP.part.buried>
-6.9294

> <Gold.PLP.part.nonpolar>
-26.0838

> <Gold.PLP.part.repulsive>
0.1139

> <Gold.PLP.ligand.clash>
0.0000

> <Gold.PLP.ligand.torsion>
1.1496

> <Gold.PLP.Chemscore.Hbond>
2.9120

> <Gold.PLP.Chemscore.CHOScore>
0.0000

> <Gold.PLP.Chemscore.Metal>
0.0000

> <Gold.Chemscore.Hbonds>
donor molecule, donor type, donor heavy atom, donor atom, acceptor molecule, acceptor atom, score
      P1  H  6896  6907       L1    20  0.98
      P1  H  7989  7998       L1     7  1.00
      P1  H  7997  8010       L1     6  1.00

> <Gold.PLP.Chemscore.Internal.Correction>
0.7415

> <Gold.Rescore>
     Score         DG    S(hbond)    S(metal)    S(lipo)     H(rot)  DE(clash)    DE(int)     intcor
     19.44     -21.94       2.93        0.00      94.32       1.71       0.02       2.47       ----

> <Gold.Chemscore.Fitness>
19.4442

> <Gold.Chemscore.DG>
-21.9392

> <Gold.Chemscore.ZeroCoef>
-5.4800

> <Gold.Chemscore.Hbond>
2.9314

> <Gold.Chemscore.Metal>
0.0000

> <Gold.Chemscore.Lipo>
94.3214

> <Gold.Chemscore.Internal_Hbond>
0.0000

> <Gold.Chemscore.DEClash>
0.0204

> <Gold.Chemscore.DEInternal>
2.4746

> <Gold.Chemscore.Rot>
1.7060

> <Gold.Chemscore.Internal.Correction>
   9.000000E+99

> <Gold.Chemscore.Hbonds>
donor molecule, donor type, donor heavy atom, donor atom, acceptor molecule, acceptor atom, score
      P1  H  6896  6907       L1    20  0.69
      P1  H  7989  7998       L1     7  0.96
      P1  H  7997  8010       L1     6  1.00

> <Gold.Chemscore.Hbond.Weighted>
-9.7910

> <Gold.Chemscore.Metal.Weighted>
-0.0000

> <Gold.Chemscore.Lipo.Weighted>
-11.0356

> <Gold.Chemscore.Internal_Hbond.Weighted>
0.0000

> <Gold.Chemscore.DEClash.Weighted>
0.0204

> <Gold.Chemscore.DEInternal.Weighted>
2.4746

> <Gold.Chemscore.Rot.Weighted>
4.3674

> <Gold.Chemscore.Internal.Correction.Weighted>
   9.000000E+99

> <Gold.Protein.RotatedTorsions>
[ 6907 6896 6895 6894 ] final  -65.12 input  -60.11 | X-H torsion
[ 7974 7965 7964 7962 ] final -177.37 input  175.53 | X-H torsion
[ 8008 7997 7996 7995 ] final   73.51 input   59.86 | X-H torsion
[ 10167 10162 10161 10158 ] final  127.94 input  -65.29 | X-H torsion
[ 10718 10713 10712 10709 ] final -179.77 input   66.30 | X-H torsion
[ 10763 10752 10751 10750 ] final -109.36 input  -60.55 | X-H torsion
[ 11005 11000 10999 10996 ] final   96.24 input  -57.11 | X-H torsion

> <Gold.Protein.ActiveResidues>
 VAL166  LYS551  ARG553  GLY616  TRP617  ASP618  TYR619  PRO620  LYS621  CYS622 
 ASP623  PHE694  ASN695  SER759  ASP760  ASP761  ALA762  ILE779  LEU786  VAL792 
 PHE793  MET794  SER795  GLU796  ALA797  LYS798  CYS799  TRP800  GLU811  SER814 

> <Gold.Protein.RotatedAtoms>
  150.7543  134.6205  159.6133 H   0  0  0  0  0  0  0  0  0  0  0  0  # atno 6907 bound_to 6896
  152.3512  134.6999  160.0244 H   0  0  0  0  0  0  0  0  0  0  0  0  # atno 6908 bound_to 6896
  151.7419  133.3286  159.3404 H   0  0  0  0  0  0  0  0  0  0  0  0  # atno 6909 bound_to 6896
  144.7127  140.1029  143.6415 H   0  0  0  0  0  0  0  0  0  0  0  0  # atno 7974 bound_to 7965
  155.7848  140.3481  155.5317 H   0  0  0  0  0  0  0  0  0  0  0  0  # atno 8008 bound_to 7997
  155.8693  140.0984  157.1582 H   0  0  0  0  0  0  0  0  0  0  0  0  # atno 8009 bound_to 7997
  154.4016  140.1343  156.4045 H   0  0  0  0  0  0  0  0  0  0  0  0  # atno 8010 bound_to 7997
  139.5552  144.6843  151.4202 H   0  0  0  0  0  0  0  0  0  0  0  0  # atno 10167 bound_to 10162
  156.8640  130.9761  151.3080 H   0  0  0  0  0  0  0  0  0  0  0  0  # atno 10718 bound_to 10713
  154.8189  135.4604  154.0721 H   0  0  0  0  0  0  0  0  0  0  0  0  # atno 10763 bound_to 10752
  153.2091  135.6879  153.8142 H   0  0  0  0  0  0  0  0  0  0  0  0  # atno 10764 bound_to 10752
  153.7600  135.3285  155.3312 H   0  0  0  0  0  0  0  0  0  0  0  0  # atno 10765 bound_to 10752
  139.8783  134.8940  156.4130 H   0  0  0  0  0  0  0  0  0  0  0  0  # atno 11005 bound_to 11000
  145.9522  139.2741  143.1205 LP  0  0  0  0  0  0  0  0  0  0  0  0  # atno 17320 bound_to 7965
  145.9311  140.9048  143.0356 LP  0  0  0  0  0  0  0  0  0  0  0  0  # atno 17321 bound_to 7965
  140.6824  143.8052  150.7139 LP  0  0  0  0  0  0  0  0  0  0  0  0  # atno 17342 bound_to 10162
  140.1509  143.4358  152.2132 LP  0  0  0  0  0  0  0  0  0  0  0  0  # atno 17343 bound_to 10162
  157.6234  130.8672  149.9147 LP  0  0  0  0  0  0  0  0  0  0  0  0  # atno 17370 bound_to 10713
  156.0761  130.3678  150.0674 LP  0  0  0  0  0  0  0  0  0  0  0  0  # atno 17371 bound_to 10713
  140.9187  133.7660  155.9880 LP  0  0  0  0  0  0  0  0  0  0  0  0  # atno 17394 bound_to 11000
  140.8464  134.3006  157.5293 LP  0  0  0  0  0  0  0  0  0  0  0  0  # atno 17395 bound_to 11000

$$$$
