AV-unprocessed.smi:356|AV-procd|sdf|2410|dock9
  -GOLD-   2262022343D 1   1.00000     0.00000
 Structure written by MMmdl.
 42 44  0  0  0  0  0  0  0  0  2 V2000
  151.8598  137.9894  155.2496 C   0  0  0  0  0  0  0  0  0  0  0  0
  151.5605  139.1831  156.1001 C   0  0  0  0  0  0  0  0  0  0  0  0
  152.5115  139.8331  156.7704 N   0  0  0  0  0  0  0  0  0  0  0  0
  151.8064  140.8445  157.3936 C   0  0  0  0  0  0  0  0  0  0  0  0
  152.2462  141.8760  158.2535 C   0  0  0  0  0  0  0  0  0  0  0  0
  151.3271  142.8082  158.7782 C   0  0  0  0  0  0  0  0  0  0  0  0
  149.9584  142.7232  158.4514 C   0  0  0  0  0  0  0  0  0  0  0  0
  149.4985  141.7027  157.5970 C   0  0  0  0  0  0  0  0  0  0  0  0
  150.4200  140.7740  157.0762 C   0  0  0  0  0  0  0  0  0  0  0  0
  150.3022  139.6698  156.2366 N   0  0  0  0  0  0  0  0  0  0  0  0
  149.0752  139.1630  155.6379 C   0  0  0  0  0  0  0  0  0  0  0  0
  149.1172  139.1522  154.0958 C   0  0  2  0  0  0  0  0  0  0  0  0
  149.8264  140.3016  153.6789 O   0  0  0  0  0  0  0  0  0  0  0  0
  147.7195  139.1653  153.4374 C   0  0  0  0  0  0  0  0  0  0  0  0
  147.1874  137.8011  153.1911 N   0  3  0  0  0  0  0  0  0  0  0  0
  146.9031  137.0378  154.4321 C   0  0  0  0  0  0  0  0  0  0  0  0
  146.3929  135.6273  154.0908 C   0  0  0  0  0  0  0  0  0  0  0  0
  145.2393  135.7215  153.2643 O   0  0  0  0  0  0  0  0  0  0  0  0
  145.5195  136.3746  152.0326 C   0  0  0  0  0  0  0  0  0  0  0  0
  145.9972  137.8102  152.3074 C   0  0  0  0  0  0  0  0  0  0  0  0
  152.9320  137.7911  155.2342 H   0  0  0  0  0  0  0  0  0  0  0  0
  151.5315  138.1614  154.2246 H   0  0  0  0  0  0  0  0  0  0  0  0
  151.3561  137.1068  155.6420 H   0  0  0  0  0  0  0  0  0  0  0  0
  153.2928  141.9505  158.5096 H   0  0  0  0  0  0  0  0  0  0  0  0
  151.6745  143.5933  159.4339 H   0  0  0  0  0  0  0  0  0  0  0  0
  149.2619  143.4428  158.8570 H   0  0  0  0  0  0  0  0  0  0  0  0
  148.4504  141.6358  157.3467 H   0  0  0  0  0  0  0  0  0  0  0  0
  148.9003  138.1547  156.0154 H   0  0  0  0  0  0  0  0  0  0  0  0
  148.2376  139.7645  155.9925 H   0  0  0  0  0  0  0  0  0  0  0  0
  149.6790  138.2782  153.7707 H   0  0  0  0  0  0  0  0  0  0  0  0
  149.6003  140.4861  152.7794 H   0  0  0  0  0  0  0  0  0  0  0  0
  147.0006  139.7111  154.0488 H   0  0  0  0  0  0  0  0  0  0  0  0
  147.7893  139.7071  152.4927 H   0  0  0  0  0  0  0  0  0  0  0  0
  147.7991  136.9552  155.0464 H   0  0  0  0  0  0  0  0  0  0  0  0
  146.1570  137.5685  155.0259 H   0  0  0  0  0  0  0  0  0  0  0  0
  147.1671  135.0429  153.5908 H   0  0  0  0  0  0  0  0  0  0  0  0
  146.1299  135.0923  155.0035 H   0  0  0  0  0  0  0  0  0  0  0  0
  146.2691  135.8144  151.4711 H   0  0  0  0  0  0  0  0  0  0  0  0
  144.6133  136.3898  151.4268 H   0  0  0  0  0  0  0  0  0  0  0  0
  145.1981  138.3875  152.7753 H   0  0  0  0  0  0  0  0  0  0  0  0
  146.2390  138.3017  151.3642 H   0  0  0  0  0  0  0  0  0  0  0  0
  147.9087  137.3009  152.6902 H   0  0  0  0  0  0  0  0  0  0  0  0
  1  2  1  0  0  0  0
  1 21  1  0  0  0  0
  1 22  1  0  0  0  0
  1 23  1  0  0  0  0
  2 10  1  0  0  0  0
  2  3  2  0  0  0  0
  3  4  1  0  0  0  0
  4  9  2  0  0  0  0
  4  5  1  0  0  0  0
  5  6  2  0  0  0  0
  5 24  1  0  0  0  0
  6  7  1  0  0  0  0
  6 25  1  0  0  0  0
  7  8  2  0  0  0  0
  7 26  1  0  0  0  0
  8  9  1  0  0  0  0
  8 27  1  0  0  0  0
  9 10  1  0  0  0  0
 10 11  1  0  0  0  0
 11 12  1  0  0  0  0
 11 28  1  0  0  0  0
 11 29  1  0  0  0  0
 12 13  1  0  0  0  0
 12 14  1  0  0  0  0
 12 30  1  0  0  0  0
 13 31  1  0  0  0  0
 14 15  1  0  0  0  0
 14 32  1  0  0  0  0
 14 33  1  0  0  0  0
 15 20  1  0  0  0  0
 15 16  1  0  0  0  0
 15 42  1  0  0  0  0
 16 17  1  0  0  0  0
 16 34  1  0  0  0  0
 16 35  1  0  0  0  0
 17 18  1  0  0  0  0
 17 36  1  0  0  0  0
 17 37  1  0  0  0  0
 18 19  1  0  0  0  0
 19 20  1  0  0  0  0
 19 38  1  0  0  0  0
 19 39  1  0  0  0  0
 20 40  1  0  0  0  0
 20 41  1  0  0  0  0
M  CHG  1  15   1
M  END
> <s_m_source_file>
AV-unprocessed.smi

> <i_m_source_file_index>
356

> <i_lp_mmshare_version>
43012

> <i_f3d_flags>
0

> <s_epik_input>
W2NIXTFbY0hdW2NIXVtjSF1jKGMxMiluKGMobjIpW0NIM10pW0NIMl1bQ0BIXShbT0hdKVtDSDJdTjNbQ0gyXVtDSDJdT1tDSDJdW0NIMl0z

> <s_epik_cmdline>
J2VwaWtfcHl0aG9uJywgJy1waCcsICc3LjAnLCAnLXRuJywgJzgnLCAnLW1hJywgJzIwMCcsICctbWV0YWxfYmluZGluZycsICctaW1hZScsICc8aW5maWxlLm1hZT4nLCAnLW9tYWUnLCAnPG91dGZpbGUubWFlPic=

> <r_epik_Ionization_Penalty>
0.706388

> <r_epik_Ionization_Penalty_Charging>
0.608065

> <r_epik_Ionization_Penalty_Neutral>
0.0983237

> <r_epik_State_Penalty>
0.742533

> <r_epik_Charging_Adjusted_Penalty>
1.3506

> <i_epik_Tot_Q>
1

> <i_epik_Tot_abs_Q>
1

> <r_epik_Metal_State_Penalty>
0.651809

> <b_epik_Metal_Only>
0

> <s_lp_Force_Field>
OPLS_2005

> <r_lp_Energy>
21.62

> <b_lp_Chiralities_Consistent>
1

> <s_lp_Variant>
AV-unprocessed.smi:356-3

> <Gold.Version>
5.8.1

> <Gold.Id.Protein>
6NUR|6NUR_protein|mol2

> <Gold.PLP.Fitness>
39.6414

> <Gold.PLP.PLP>
-27.7737

> <Gold.PLP.part.hbond>
-4.0000

> <Gold.PLP.part.metal>
0.0000

> <Gold.PLP.part.buried>
-3.6437

> <Gold.PLP.part.nonpolar>
-20.7555

> <Gold.PLP.part.repulsive>
0.0974

> <Gold.PLP.ligand.clash>
0.0000

> <Gold.PLP.ligand.torsion>
0.6724

> <Gold.PLP.Chemscore.Hbond>
4.3968

> <Gold.PLP.Chemscore.CHOScore>
0.0000

> <Gold.PLP.Chemscore.Metal>
0.0000

> <Gold.Chemscore.Hbonds>
donor molecule, donor type, donor heavy atom, donor atom, acceptor molecule, acceptor atom, score
      L1  H    13    31       P1  7957  1.00
      L1  H    15    42       P1  7948  2.00
      P1  H  7989  7998       L1    13  0.41
      P1  H  7997  8009       L1     3  1.00

> <Gold.PLP.Chemscore.Internal.Correction>
0.0221

> <Gold.Rescore>
     Score         DG    S(hbond)    S(metal)    S(lipo)     H(rot)  DE(clash)    DE(int)     intcor
     18.21     -18.96       2.93        0.00      76.71       2.07       0.16       0.60       ----

> <Gold.Chemscore.Fitness>
18.2070

> <Gold.Chemscore.DG>
-18.9604

> <Gold.Chemscore.ZeroCoef>
-5.4800

> <Gold.Chemscore.Hbond>
2.9322

> <Gold.Chemscore.Metal>
0.0000

> <Gold.Chemscore.Lipo>
76.7078

> <Gold.Chemscore.Internal_Hbond>
0.0000

> <Gold.Chemscore.DEClash>
0.1553

> <Gold.Chemscore.DEInternal>
0.5981

> <Gold.Chemscore.Rot>
2.0656

> <Gold.Chemscore.Internal.Correction>
   9.000000E+99

> <Gold.Chemscore.Hbonds>
donor molecule, donor type, donor heavy atom, donor atom, acceptor molecule, acceptor atom, score
      L1  H    13    31       P1  7957  0.94
      L1  H    15    42       P1  7948  1.00
      P1  H  7989  7998       L1    13  0.04
      P1  H  7997  8009       L1     3  0.95

> <Gold.Chemscore.Hbond.Weighted>
-9.7935

> <Gold.Chemscore.Metal.Weighted>
-0.0000

> <Gold.Chemscore.Lipo.Weighted>
-8.9748

> <Gold.Chemscore.Internal_Hbond.Weighted>
0.0000

> <Gold.Chemscore.DEClash.Weighted>
0.1553

> <Gold.Chemscore.DEInternal.Weighted>
0.5981

> <Gold.Chemscore.Rot.Weighted>
5.2879

> <Gold.Chemscore.Internal.Correction.Weighted>
   9.000000E+99

> <Gold.Protein.RotatedTorsions>
[ 6907 6896 6895 6894 ] final   69.59 input  -60.11 | X-H torsion
[ 7974 7965 7964 7962 ] final  -39.64 input  175.53 | X-H torsion
[ 8008 7997 7996 7995 ] final -164.81 input   59.86 | X-H torsion
[ 10167 10162 10161 10158 ] final    4.80 input  -65.29 | X-H torsion
[ 10718 10713 10712 10709 ] final  -40.24 input   66.30 | X-H torsion
[ 10763 10752 10751 10750 ] final    6.87 input  -60.55 | X-H torsion
[ 11005 11000 10999 10996 ] final -130.76 input  -57.11 | X-H torsion

> <Gold.Protein.ActiveResidues>
 VAL166  LYS551  ARG553  GLY616  TRP617  ASP618  TYR619  PRO620  LYS621  CYS622 
 ASP623  PHE694  ASN695  SER759  ASP760  ASP761  ALA762  ILE779  LEU786  VAL792 
 PHE793  MET794  SER795  GLU796  ALA797  LYS798  CYS799  TRP800  GLU811  SER814 

> <Gold.Protein.RotatedAtoms>
  152.4696  134.4993  159.9719 H   0  0  0  0  0  0  0  0  0  0  0  0  # atno 6907 bound_to 6896
  151.5022  133.3496  159.2879 H   0  0  0  0  0  0  0  0  0  0  0  0  # atno 6908 bound_to 6896
  150.8699  134.8098  159.7208 H   0  0  0  0  0  0  0  0  0  0  0  0  # atno 6909 bound_to 6896
  146.0377  140.6649  142.9102 H   0  0  0  0  0  0  0  0  0  0  0  0  # atno 7974 bound_to 7965
  155.8409  140.0948  157.1735 H   0  0  0  0  0  0  0  0  0  0  0  0  # atno 8008 bound_to 7997
  154.3982  140.1401  156.3789 H   0  0  0  0  0  0  0  0  0  0  0  0  # atno 8009 bound_to 7997
  155.8065  140.3451  155.5435 H   0  0  0  0  0  0  0  0  0  0  0  0  # atno 8010 bound_to 7997
  140.6515  143.7532  150.7583 H   0  0  0  0  0  0  0  0  0  0  0  0  # atno 10167 bound_to 10162
  156.2835  130.4220  149.8312 H   0  0  0  0  0  0  0  0  0  0  0  0  # atno 10718 bound_to 10713
  153.2427  135.6905  153.7765 H   0  0  0  0  0  0  0  0  0  0  0  0  # atno 10763 bound_to 10752
  153.6888  135.3316  155.3198 H   0  0  0  0  0  0  0  0  0  0  0  0  # atno 10764 bound_to 10752
  154.8362  135.4540  154.1356 H   0  0  0  0  0  0  0  0  0  0  0  0  # atno 10765 bound_to 10752
  140.9318  134.1309  157.4228 H   0  0  0  0  0  0  0  0  0  0  0  0  # atno 11005 bound_to 11000
  144.7060  140.3851  143.7118 LP  0  0  0  0  0  0  0  0  0  0  0  0  # atno 17320 bound_to 7965
  145.6936  139.1644  143.2633 LP  0  0  0  0  0  0  0  0  0  0  0  0  # atno 17321 bound_to 7965
  140.1184  143.4635  152.2328 LP  0  0  0  0  0  0  0  0  0  0  0  0  # atno 17342 bound_to 10162
  139.5731  144.7473  151.3836 LP  0  0  0  0  0  0  0  0  0  0  0  0  # atno 17343 bound_to 10162
  156.5751  130.8441  151.3367 LP  0  0  0  0  0  0  0  0  0  0  0  0  # atno 17370 bound_to 10713
  157.7321  130.9711  150.1914 LP  0  0  0  0  0  0  0  0  0  0  0  0  # atno 17371 bound_to 10713
  139.8798  135.0007  156.6028 LP  0  0  0  0  0  0  0  0  0  0  0  0  # atno 17394 bound_to 11000
  140.7852  133.8627  155.8600 LP  0  0  0  0  0  0  0  0  0  0  0  0  # atno 17395 bound_to 11000

$$$$
