AV-unprocessed.smi:1360|AV-procd|sdf|5552|dock7
  -GOLD-   22720 5143D 1   1.00000     0.00000
 Structure written by MMmdl.
 36 37  0  0  0  0  0  0  0  0  1 V2000
  153.1435  137.5066  160.5932 C   0  0  0  0  0  0  0  0  0  0  0  0
  154.2241  138.4045  161.2178 C   0  0  1  0  0  0  0  0  0  0  0  0
  155.5790  138.3299  160.4804 C   0  0  0  0  0  0  0  0  0  0  0  0
  156.6259  139.0771  161.1540 N   0  0  0  0  0  0  0  0  0  0  0  0
  157.4480  140.0538  160.6327 C   0  0  0  0  0  0  0  0  0  0  0  0
  158.2741  140.4685  161.6377 C   0  0  0  0  0  0  0  0  0  0  0  0
  157.8784  139.6740  162.7499 C   0  0  0  0  0  0  0  0  0  0  0  0
  156.8922  138.8415  162.4573 N   0  0  0  0  0  0  0  0  0  0  0  0
  153.7421  139.7824  161.2457 N   0  0  0  0  0  0  0  0  0  0  0  0
  153.4824  140.5400  160.1684 C   0  0  0  0  0  0  0  0  0  0  0  0
  153.6239  140.1409  159.0119 O   0  0  0  0  0  0  0  0  0  0  0  0
  152.9866  141.9667  160.4402 C   0  0  2  0  0  0  0  0  0  0  0  0
  151.6829  141.9609  161.2720 C   0  0  0  0  0  0  0  0  0  0  0  0
  151.0394  143.3350  161.3372 C   0  0  0  0  0  0  0  0  0  0  0  0
  151.3619  144.3425  160.5080 C   0  0  0  0  0  0  0  0  0  0  0  0
  152.4018  144.2195  159.4083 C   0  0  0  0  0  0  0  0  0  0  0  0
  152.7856  142.7537  159.1297 C   0  0  0  0  0  0  0  0  0  0  0  0
  153.4229  136.4539  160.6379 H   0  0  0  0  0  0  0  0  0  0  0  0
  152.9727  137.7619  159.5469 H   0  0  0  0  0  0  0  0  0  0  0  0
  152.1948  137.6109  161.1207 H   0  0  0  0  0  0  0  0  0  0  0  0
  154.3702  138.0675  162.2460 H   0  0  0  0  0  0  0  0  0  0  0  0
  155.8967  137.2909  160.3760 H   0  0  0  0  0  0  0  0  0  0  0  0
  155.4837  138.7272  159.4689 H   0  0  0  0  0  0  0  0  0  0  0  0
  157.3748  140.3696  159.6022 H   0  0  0  0  0  0  0  0  0  0  0  0
  159.0442  141.2237  161.5864 H   0  0  0  0  0  0  0  0  0  0  0  0
  158.2760  139.6772  163.7541 H   0  0  0  0  0  0  0  0  0  0  0  0
  153.5974  140.1936  162.1563 H   0  0  0  0  0  0  0  0  0  0  0  0
  153.7516  142.4864  161.0205 H   0  0  0  0  0  0  0  0  0  0  0  0
  150.9494  141.2670  160.8585 H   0  0  0  0  0  0  0  0  0  0  0  0
  151.8959  141.6283  162.2885 H   0  0  0  0  0  0  0  0  0  0  0  0
  150.2778  143.4811  162.0890 H   0  0  0  0  0  0  0  0  0  0  0  0
  150.8772  145.3018  160.6146 H   0  0  0  0  0  0  0  0  0  0  0  0
  152.0204  144.6831  158.4982 H   0  0  0  0  0  0  0  0  0  0  0  0
  153.2814  144.7887  159.7102 H   0  0  0  0  0  0  0  0  0  0  0  0
  153.6871  142.7221  158.5162 H   0  0  0  0  0  0  0  0  0  0  0  0
  151.9961  142.2840  158.5404 H   0  0  0  0  0  0  0  0  0  0  0  0
  1  2  1  0  0  0  0
  1 18  1  0  0  0  0
  1 19  1  0  0  0  0
  1 20  1  0  0  0  0
  2  3  1  0  0  0  0
  2  9  1  0  0  0  0
  2 21  1  0  0  0  0
  3  4  1  0  0  0  0
  3 22  1  0  0  0  0
  3 23  1  0  0  0  0
  4  8  1  0  0  0  0
  4  5  1  0  0  0  0
  5  6  2  0  0  0  0
  5 24  1  0  0  0  0
  6  7  1  0  0  0  0
  6 25  1  0  0  0  0
  7  8  2  0  0  0  0
  7 26  1  0  0  0  0
  9 10  1  0  0  0  0
  9 27  1  0  0  0  0
 10 11  2  0  0  0  0
 10 12  1  0  0  0  0
 12 17  1  0  0  0  0
 12 13  1  0  0  0  0
 12 28  1  0  0  0  0
 13 14  1  0  0  0  0
 13 29  1  0  0  0  0
 13 30  1  0  0  0  0
 14 15  2  0  0  0  0
 14 31  1  0  0  0  0
 15 16  1  0  0  0  0
 15 32  1  0  0  0  0
 16 17  1  0  0  0  0
 16 33  1  0  0  0  0
 16 34  1  0  0  0  0
 17 35  1  0  0  0  0
 17 36  1  0  0  0  0
M  END
> <s_m_source_file>
AV-unprocessed.smi

> <i_m_source_file_index>
1360

> <i_lp_mmshare_version>
43012

> <i_f3d_flags>
0

> <s_epik_input>
bjFbY0hdW2NIXVtjSF1uMVtDSDJdW0NAQEhdKFtDSDNdKVtOSF1DKD1PKVtDQEBIXTJbQ0gyXVtDSF09W0NIXVtDSDJdW0NIMl0y

> <s_epik_cmdline>
J2VwaWtfcHl0aG9uJywgJy1waCcsICc3LjAnLCAnLXRuJywgJzgnLCAnLW1hJywgJzIwMCcsICctbWV0YWxfYmluZGluZycsICctaW1hZScsICc8aW5maWxlLm1hZT4nLCAnLW9tYWUnLCAnPG91dGZpbGUubWFlPic=

> <r_lp_tautomer_probability>
1

> <r_epik_Ionization_Penalty>
0.000315076

> <r_epik_Ionization_Penalty_Charging>
0

> <r_epik_Ionization_Penalty_Neutral>
0.000315076

> <r_epik_State_Penalty>
-0

> <r_epik_Charging_Adjusted_Penalty>
0

> <i_epik_Tot_Q>
0

> <i_epik_Tot_abs_Q>
0

> <r_epik_Metal_State_Penalty>
-0

> <b_epik_Metal_Only>
0

> <s_lp_Force_Field>
OPLS_2005

> <r_lp_Energy>
7.97441

> <b_lp_Chiralities_Consistent>
1

> <s_lp_Variant>
AV-unprocessed.smi:1360-2

> <Gold.Version>
5.8.1

> <Gold.Id.Protein>
6NUR|6NUR_protein|mol2

> <Gold.PLP.Fitness>
44.0837

> <Gold.PLP.PLP>
-41.4787

> <Gold.PLP.part.hbond>
-2.0000

> <Gold.PLP.part.metal>
0.0000

> <Gold.PLP.part.buried>
-4.4765

> <Gold.PLP.part.nonpolar>
-35.3682

> <Gold.PLP.part.repulsive>
0.0899

> <Gold.PLP.ligand.clash>
0.0000

> <Gold.PLP.ligand.torsion>
0.0730

> <Gold.PLP.Chemscore.Hbond>
0.9040

> <Gold.PLP.Chemscore.CHOScore>
0.0000

> <Gold.PLP.Chemscore.Metal>
0.0000

> <Gold.Chemscore.Hbonds>
donor molecule, donor type, donor heavy atom, donor atom, acceptor molecule, acceptor atom, score
      P1  H  7997  8008       L1    11  0.60

> <Gold.PLP.Chemscore.Internal.Correction>
0.0389

> <Gold.Rescore>
     Score         DG    S(hbond)    S(metal)    S(lipo)     H(rot)  DE(clash)    DE(int)     intcor
     17.29     -18.54       0.91        0.00     118.57       1.51       0.25       1.01       ----

> <Gold.Chemscore.Fitness>
17.2860

> <Gold.Chemscore.DG>
-18.5441

> <Gold.Chemscore.ZeroCoef>
-5.4800

> <Gold.Chemscore.Hbond>
0.9120

> <Gold.Chemscore.Metal>
0.0000

> <Gold.Chemscore.Lipo>
118.5682

> <Gold.Chemscore.Internal_Hbond>
0.0000

> <Gold.Chemscore.DEClash>
0.2475

> <Gold.Chemscore.DEInternal>
1.0106

> <Gold.Chemscore.Rot>
1.5057

> <Gold.Chemscore.Internal.Correction>
   9.000000E+99

> <Gold.Chemscore.Hbonds>
donor molecule, donor type, donor heavy atom, donor atom, acceptor molecule, acceptor atom, score
      P1  H  7997  8008       L1    11  0.58

> <Gold.Chemscore.Hbond.Weighted>
-3.0462

> <Gold.Chemscore.Metal.Weighted>
-0.0000

> <Gold.Chemscore.Lipo.Weighted>
-13.8725

> <Gold.Chemscore.Internal_Hbond.Weighted>
0.0000

> <Gold.Chemscore.DEClash.Weighted>
0.2475

> <Gold.Chemscore.DEInternal.Weighted>
1.0106

> <Gold.Chemscore.Rot.Weighted>
3.8546

> <Gold.Chemscore.Internal.Correction.Weighted>
   9.000000E+99

> <Gold.Protein.RotatedTorsions>
[ 6907 6896 6895 6894 ] final  -38.55 input  -60.11 | X-H torsion
[ 7974 7965 7964 7962 ] final  156.55 input  175.53 | X-H torsion
[ 8008 7997 7996 7995 ] final -110.25 input   59.86 | X-H torsion
[ 10167 10162 10161 10158 ] final  -55.79 input  -65.29 | X-H torsion
[ 10718 10713 10712 10709 ] final   32.55 input   66.30 | X-H torsion
[ 10763 10752 10751 10750 ] final  -49.53 input  -60.55 | X-H torsion
[ 11005 11000 10999 10996 ] final  -87.72 input  -57.11 | X-H torsion

> <Gold.Protein.ActiveResidues>
 VAL166  LYS551  ARG553  GLY616  TRP617  ASP618  TYR619  PRO620  LYS621  CYS622 
 ASP623  PHE694  ASN695  SER759  ASP760  ASP761  ALA762  ILE779  LEU786  VAL792 
 PHE793  MET794  SER795  GLU796  ALA797  LYS798  CYS799  TRP800  GLU811  SER814 

> <Gold.Protein.RotatedAtoms>
  151.0010  134.9322  159.7953 H   0  0  0  0  0  0  0  0  0  0  0  0  # atno 6907 bound_to 6896
  152.5278  134.3154  159.9139 H   0  0  0  0  0  0  0  0  0  0  0  0  # atno 6908 bound_to 6896
  151.3160  133.4019  159.2685 H   0  0  0  0  0  0  0  0  0  0  0  0  # atno 6909 bound_to 6896
  144.7956  139.7219  143.6203 H   0  0  0  0  0  0  0  0  0  0  0  0  # atno 7974 bound_to 7965
  154.9716  140.0397  157.2237 H   0  0  0  0  0  0  0  0  0  0  0  0  # atno 8008 bound_to 7997
  154.7796  140.2816  155.6052 H   0  0  0  0  0  0  0  0  0  0  0  0  # atno 8009 bound_to 7997
  156.2934  140.2594  156.2618 H   0  0  0  0  0  0  0  0  0  0  0  0  # atno 8010 bound_to 7997
  140.6355  143.2480  151.5130 H   0  0  0  0  0  0  0  0  0  0  0  0  # atno 10167 bound_to 10162
  157.2866  130.7282  149.6587 H   0  0  0  0  0  0  0  0  0  0  0  0  # atno 10718 bound_to 10713
  154.0956  135.6571  153.4859 H   0  0  0  0  0  0  0  0  0  0  0  0  # atno 10763 bound_to 10752
  153.0306  135.5213  154.7337 H   0  0  0  0  0  0  0  0  0  0  0  0  # atno 10764 bound_to 10752
  154.6474  135.2996  154.9998 H   0  0  0  0  0  0  0  0  0  0  0  0  # atno 10765 bound_to 10752
  141.1613  133.7528  156.9348 H   0  0  0  0  0  0  0  0  0  0  0  0  # atno 11005 bound_to 11000
  146.2223  139.5659  142.9610 LP  0  0  0  0  0  0  0  0  0  0  0  0  # atno 17320 bound_to 7965
  145.5681  141.0397  143.2189 LP  0  0  0  0  0  0  0  0  0  0  0  0  # atno 17321 bound_to 7965
  139.5565  144.2262  152.1621 LP  0  0  0  0  0  0  0  0  0  0  0  0  # atno 17342 bound_to 10162
  140.1517  144.5108  150.6683 LP  0  0  0  0  0  0  0  0  0  0  0  0  # atno 17343 bound_to 10162
  155.9666  130.4321  150.4951 LP  0  0  0  0  0  0  0  0  0  0  0  0  # atno 17370 bound_to 10713
  157.2905  131.0625  151.2137 LP  0  0  0  0  0  0  0  0  0  0  0  0  # atno 17371 bound_to 10713
  140.1362  134.9324  157.2404 LP  0  0  0  0  0  0  0  0  0  0  0  0  # atno 17394 bound_to 11000
  140.2892  134.3260  155.7320 LP  0  0  0  0  0  0  0  0  0  0  0  0  # atno 17395 bound_to 11000

$$$$
