AV-unprocessed.smi:262|AV-procd|sdf|2001|dock1
  -GOLD-   2262021193D 1   1.00000     0.00000
 Structure written by MMmdl.
 59 63  0  0  0  0  0  0  0  0  1 V2000
  145.9088  134.9775  150.4763 O   0  0  0  0  0  0  0  0  0  0  0  0
  145.0235  134.3036  151.3542 C   0  0  0  0  0  0  0  0  0  0  0  0
  144.2764  135.3710  152.1921 C   0  0  0  0  0  0  0  0  0  0  0  0
  145.1484  136.3682  152.7938 N   0  0  0  0  0  0  0  0  0  0  0  0
  145.1981  137.7107  152.4933 C   0  0  0  0  0  0  0  0  0  0  0  0
  146.0701  138.4015  153.1752 N   0  0  0  0  0  0  0  0  0  0  0  0
  146.6653  137.4660  154.0139 C   0  0  0  0  0  0  0  0  0  0  0  0
  147.6783  137.5314  155.0124 C   0  0  0  0  0  0  0  0  0  0  0  0
  148.3243  138.6830  155.3276 N   0  0  0  0  0  0  0  0  0  0  0  0
  148.2025  139.1857  156.6943 C   0  0  0  0  0  0  0  0  0  0  0  0
  148.7594  140.6171  156.7899 C   0  0  0  0  0  0  0  0  0  0  0  0
  150.1623  140.6378  156.3685 N   0  0  0  0  0  0  0  0  0  0  0  0
  150.6892  141.9920  156.5394 C   0  0  0  0  0  0  0  0  0  0  0  0
  151.0268  142.3126  158.0096 C   0  0  2  0  0  0  0  0  0  0  0  0
  151.7187  143.6459  158.2175 C   0  0  0  0  0  0  0  0  0  0  0  0
  152.3515  143.4605  159.5928 C   0  0  0  0  0  0  0  0  0  0  0  0
  152.6648  142.0741  159.6894 O   0  0  0  0  0  0  0  0  0  0  0  0
  152.0579  141.3608  158.6157 C   0  0  0  0  0  0  0  0  0  0  0  0
  150.2210  140.2160  154.9640 C   0  0  0  0  0  0  0  0  0  0  0  0
  149.6901  138.7774  154.8209 C   0  0  0  0  0  0  0  0  0  0  0  0
  147.9881  136.3772  155.6627 N   0  0  0  0  0  0  0  0  0  0  0  0
  147.3619  135.2379  155.3546 C   0  0  0  0  0  0  0  0  0  0  0  0
  146.4076  135.0296  154.4461 N   0  0  0  0  0  0  0  0  0  0  0  0
  146.0872  136.1835  153.7936 C   0  0  0  0  0  0  0  0  0  0  0  0
  144.0655  133.4386  150.5054 C   0  0  0  0  0  0  0  0  0  0  0  0
  144.7871  132.2491  149.8469 C   0  0  0  0  0  0  0  0  0  0  0  0
  145.4555  131.4734  150.8343 O   0  0  0  0  0  0  0  0  0  0  0  0
  146.4737  132.2035  151.5074 C   0  0  0  0  0  0  0  0  0  0  0  0
  145.8537  133.3854  152.2736 C   0  0  0  0  0  0  0  0  0  0  0  0
  145.7568  134.6657  149.5971 H   0  0  0  0  0  0  0  0  0  0  0  0
  143.5504  135.8936  151.5676 H   0  0  0  0  0  0  0  0  0  0  0  0
  143.7015  134.8946  152.9876 H   0  0  0  0  0  0  0  0  0  0  0  0
  144.5660  138.1633  151.7427 H   0  0  0  0  0  0  0  0  0  0  0  0
  147.1549  139.1841  156.9981 H   0  0  0  0  0  0  0  0  0  0  0  0
  148.7408  138.5282  157.3789 H   0  0  0  0  0  0  0  0  0  0  0  0
  148.1678  141.2985  156.1761 H   0  0  0  0  0  0  0  0  0  0  0  0
  148.6793  140.9625  157.8213 H   0  0  0  0  0  0  0  0  0  0  0  0
  151.5664  142.1330  155.9060 H   0  0  0  0  0  0  0  0  0  0  0  0
  149.9438  142.7117  156.1972 H   0  0  0  0  0  0  0  0  0  0  0  0
  150.1343  142.2741  158.6343 H   0  0  0  0  0  0  0  0  0  0  0  0
  152.4941  143.7962  157.4648 H   0  0  0  0  0  0  0  0  0  0  0  0
  151.0352  144.4946  158.1772 H   0  0  0  0  0  0  0  0  0  0  0  0
  153.2358  144.0823  159.7326 H   0  0  0  0  0  0  0  0  0  0  0  0
  151.6350  143.7086  160.3768 H   0  0  0  0  0  0  0  0  0  0  0  0
  151.6102  140.4285  158.9608 H   0  0  0  0  0  0  0  0  0  0  0  0
  152.8326  141.1137  157.8885 H   0  0  0  0  0  0  0  0  0  0  0  0
  149.6411  140.8970  154.3387 H   0  0  0  0  0  0  0  0  0  0  0  0
  151.2465  140.2430  154.5988 H   0  0  0  0  0  0  0  0  0  0  0  0
  150.3259  138.0859  155.3759 H   0  0  0  0  0  0  0  0  0  0  0  0
  149.7446  138.4807  153.7742 H   0  0  0  0  0  0  0  0  0  0  0  0
  147.6695  134.3689  155.9174 H   0  0  0  0  0  0  0  0  0  0  0  0
  143.2702  133.0517  151.1438 H   0  0  0  0  0  0  0  0  0  0  0  0
  143.5779  134.0382  149.7360 H   0  0  0  0  0  0  0  0  0  0  0  0
  144.0645  131.6144  149.3338 H   0  0  0  0  0  0  0  0  0  0  0  0
  145.4979  132.5895  149.0924 H   0  0  0  0  0  0  0  0  0  0  0  0
  146.9815  131.5350  152.2027 H   0  0  0  0  0  0  0  0  0  0  0  0
  147.2255  132.5458  150.7946 H   0  0  0  0  0  0  0  0  0  0  0  0
  146.6349  133.9542  152.7797 H   0  0  0  0  0  0  0  0  0  0  0  0
  145.2112  132.9858  153.0595 H   0  0  0  0  0  0  0  0  0  0  0  0
  1  2  1  0  0  0  0
  1 30  1  0  0  0  0
  2 29  1  0  0  0  0
  2  3  1  0  0  0  0
  2 25  1  0  0  0  0
  3  4  1  0  0  0  0
  3 31  1  0  0  0  0
  3 32  1  0  0  0  0
  4 24  1  0  0  0  0
  4  5  1  0  0  0  0
  5  6  2  0  0  0  0
  5 33  1  0  0  0  0
  6  7  1  0  0  0  0
  7 24  2  0  0  0  0
  7  8  1  0  0  0  0
  8  9  1  0  0  0  0
  8 21  2  0  0  0  0
  9 20  1  0  0  0  0
  9 10  1  0  0  0  0
 10 11  1  0  0  0  0
 10 34  1  0  0  0  0
 10 35  1  0  0  0  0
 11 12  1  0  0  0  0
 11 36  1  0  0  0  0
 11 37  1  0  0  0  0
 12 13  1  0  0  0  0
 12 19  1  0  0  0  0
 13 14  1  0  0  0  0
 13 38  1  0  0  0  0
 13 39  1  0  0  0  0
 14 18  1  0  0  0  0
 14 15  1  0  0  0  0
 14 40  1  0  0  0  0
 15 16  1  0  0  0  0
 15 41  1  0  0  0  0
 15 42  1  0  0  0  0
 16 17  1  0  0  0  0
 16 43  1  0  0  0  0
 16 44  1  0  0  0  0
 17 18  1  0  0  0  0
 18 45  1  0  0  0  0
 18 46  1  0  0  0  0
 19 20  1  0  0  0  0
 19 47  1  0  0  0  0
 19 48  1  0  0  0  0
 20 49  1  0  0  0  0
 20 50  1  0  0  0  0
 21 22  1  0  0  0  0
 22 23  2  0  0  0  0
 22 51  1  0  0  0  0
 23 24  1  0  0  0  0
 25 26  1  0  0  0  0
 25 52  1  0  0  0  0
 25 53  1  0  0  0  0
 26 27  1  0  0  0  0
 26 54  1  0  0  0  0
 26 55  1  0  0  0  0
 27 28  1  0  0  0  0
 28 29  1  0  0  0  0
 28 56  1  0  0  0  0
 28 57  1  0  0  0  0
 29 58  1  0  0  0  0
 29 59  1  0  0  0  0
M  END
> <s_m_source_file>
AV-unprocessed.smi

> <i_m_source_file_index>
262

> <i_lp_mmshare_version>
43012

> <i_f3d_flags>
0

> <s_epik_input>
W0NIMl0xW0NIMl1PW0NIMl1bQ0gyXUMxKFtPSF0pW0NIMl1uKFtjSF1uMiljKGMyMyluW2NIXW5jM040W0NIMl1bQ0gyXU4oW0NIMl1bQ0gyXTQpW0NIMl1bQ0BASF01W0NIMl1bQ0gyXU9bQ0gyXTU=

> <s_epik_cmdline>
J2VwaWtfcHl0aG9uJywgJy1waCcsICc3LjAnLCAnLXRuJywgJzgnLCAnLW1hJywgJzIwMCcsICctbWV0YWxfYmluZGluZycsICctaW1hZScsICc8aW5maWxlLm1hZT4nLCAnLW9tYWUnLCAnPG91dGZpbGUubWFlPic=

> <r_lp_tautomer_probability>
1

> <r_epik_Ionization_Penalty>
2.38637

> <r_epik_Ionization_Penalty_Charging>
0

> <r_epik_Ionization_Penalty_Neutral>
2.38637

> <r_epik_State_Penalty>
2.53316

> <r_epik_Charging_Adjusted_Penalty>
2.53316

> <i_epik_Tot_Q>
0

> <i_epik_Tot_abs_Q>
0

> <r_epik_Metal_State_Penalty>
2.52423

> <b_epik_Metal_Only>
0

> <s_lp_Force_Field>
OPLS_2005

> <r_lp_Energy>
56.9797

> <b_lp_Chiralities_Consistent>
1

> <s_lp_Variant>
AV-unprocessed.smi:262-3

> <Gold.Version>
5.8.1

> <Gold.Id.Protein>
6NUR|6NUR_protein|mol2

> <Gold.PLP.Fitness>
44.1554

> <Gold.PLP.PLP>
-36.7165

> <Gold.PLP.part.hbond>
-1.0000

> <Gold.PLP.part.metal>
0.0000

> <Gold.PLP.part.buried>
-2.9566

> <Gold.PLP.part.nonpolar>
-33.2184

> <Gold.PLP.part.repulsive>
0.5388

> <Gold.PLP.ligand.clash>
0.0000

> <Gold.PLP.ligand.torsion>
0.4719

> <Gold.PLP.Chemscore.Hbond>
0.9204

> <Gold.PLP.Chemscore.CHOScore>
1.7270

> <Gold.PLP.Chemscore.Metal>
0.0000

> <Gold.Chemscore.Hbonds>
donor molecule, donor type, donor heavy atom, donor atom, acceptor molecule, acceptor atom, score
      L1  H     1    30       P1  7921  0.96
      L1  C     5    33       P1 10171  1.00
      L1  C     5    33       P1 10175  0.64

> <Gold.PLP.Chemscore.Internal.Correction>
0.4404

> <Gold.Rescore>
     Score         DG    S(hbond)    S(metal)    S(lipo)     H(rot)  DE(clash)    DE(int)     intcor
     12.29     -14.49       0.88        0.00     106.24       2.49       0.31       1.90       ----

> <Gold.Chemscore.Fitness>
12.2851

> <Gold.Chemscore.DG>
-14.4926

> <Gold.Chemscore.ZeroCoef>
-5.4800

> <Gold.Chemscore.Hbond>
0.8819

> <Gold.Chemscore.Metal>
0.0000

> <Gold.Chemscore.Lipo>
106.2374

> <Gold.Chemscore.Internal_Hbond>
0.0000

> <Gold.Chemscore.DEClash>
0.3090

> <Gold.Chemscore.DEInternal>
1.8985

> <Gold.Chemscore.Rot>
2.4855

> <Gold.Chemscore.Internal.Correction>
   9.000000E+99

> <Gold.Chemscore.Hbonds>
donor molecule, donor type, donor heavy atom, donor atom, acceptor molecule, acceptor atom, score
      L1  H     1    30       P1  7921  0.76

> <Gold.Chemscore.Hbond.Weighted>
-2.9457

> <Gold.Chemscore.Metal.Weighted>
-0.0000

> <Gold.Chemscore.Lipo.Weighted>
-12.4298

> <Gold.Chemscore.Internal_Hbond.Weighted>
0.0000

> <Gold.Chemscore.DEClash.Weighted>
0.3090

> <Gold.Chemscore.DEInternal.Weighted>
1.8985

> <Gold.Chemscore.Rot.Weighted>
6.3629

> <Gold.Chemscore.Internal.Correction.Weighted>
   9.000000E+99

> <Gold.Protein.RotatedTorsions>
[ 6907 6896 6895 6894 ] final -175.61 input  -60.11 | X-H torsion
[ 7974 7965 7964 7962 ] final -111.22 input  175.53 | X-H torsion
[ 8008 7997 7996 7995 ] final   31.03 input   59.86 | X-H torsion
[ 10167 10162 10161 10158 ] final  -42.75 input  -65.29 | X-H torsion
[ 10718 10713 10712 10709 ] final   48.02 input   66.30 | X-H torsion
[ 10763 10752 10751 10750 ] final   80.06 input  -60.55 | X-H torsion
[ 11005 11000 10999 10996 ] final  150.77 input  -57.11 | X-H torsion

> <Gold.Protein.ActiveResidues>
 VAL166  LYS551  ARG553  GLY616  TRP617  ASP618  TYR619  PRO620  LYS621  CYS622 
 ASP623  PHE694  ASN695  SER759  ASP760  ASP761  ALA762  ILE779  LEU786  VAL792 
 PHE793  MET794  SER795  GLU796  ALA797  LYS798  CYS799  TRP800  GLU811  SER814 

> <Gold.Protein.RotatedAtoms>
  151.5913  133.3366  159.3028 H   0  0  0  0  0  0  0  0  0  0  0  0  # atno 6907 bound_to 6896
  150.8259  134.7492  159.6823 H   0  0  0  0  0  0  0  0  0  0  0  0  # atno 6908 bound_to 6896
  152.4348  134.5714  159.9974 H   0  0  0  0  0  0  0  0  0  0  0  0  # atno 6909 bound_to 6896
  145.1588  140.8867  143.3603 H   0  0  0  0  0  0  0  0  0  0  0  0  # atno 7974 bound_to 7965
  155.0999  140.3228  155.4550 H   0  0  0  0  0  0  0  0  0  0  0  0  # atno 8008 bound_to 7997
  156.2720  140.2063  156.6072 H   0  0  0  0  0  0  0  0  0  0  0  0  # atno 8009 bound_to 7997
  154.6837  140.0523  157.0279 H   0  0  0  0  0  0  0  0  0  0  0  0  # atno 8010 bound_to 7997
  140.6958  143.3020  151.3253 H   0  0  0  0  0  0  0  0  0  0  0  0  # atno 10167 bound_to 10162
  157.4645  130.8217  149.7921 H   0  0  0  0  0  0  0  0  0  0  0  0  # atno 10718 bound_to 10713
  153.1003  135.4816  154.8854 H   0  0  0  0  0  0  0  0  0  0  0  0  # atno 10763 bound_to 10752
  154.7371  135.3073  154.8795 H   0  0  0  0  0  0  0  0  0  0  0  0  # atno 10764 bound_to 10752
  153.9414  135.6833  153.4797 H   0  0  0  0  0  0  0  0  0  0  0  0  # atno 10765 bound_to 10752
  140.1160  134.8894  157.2005 H   0  0  0  0  0  0  0  0  0  0  0  0  # atno 11005 bound_to 11000
  145.0353  139.3306  143.6004 LP  0  0  0  0  0  0  0  0  0  0  0  0  # atno 17320 bound_to 7965
  146.3485  139.9706  142.8707 LP  0  0  0  0  0  0  0  0  0  0  0  0  # atno 17321 bound_to 7965
  139.6412  144.0536  152.2556 LP  0  0  0  0  0  0  0  0  0  0  0  0  # atno 17342 bound_to 10162
  140.0042  144.6271  150.7703 LP  0  0  0  0  0  0  0  0  0  0  0  0  # atno 17343 bound_to 10162
  156.0044  130.3863  150.2486 LP  0  0  0  0  0  0  0  0  0  0  0  0  # atno 17370 bound_to 10713
  157.0666  131.0105  151.3204 LP  0  0  0  0  0  0  0  0  0  0  0  0  # atno 17371 bound_to 10713
  140.3027  134.3113  155.7285 LP  0  0  0  0  0  0  0  0  0  0  0  0  # atno 17394 bound_to 11000
  141.2141  133.7602  156.9664 LP  0  0  0  0  0  0  0  0  0  0  0  0  # atno 17395 bound_to 11000

$$$$
