AV-unprocessed.smi:2780|AV-procd|sdf|10715|dock4
  -GOLD-   2272015153D 1   1.00000     0.00000
 Structure written by MMmdl.
 47 49  0  0  0  0  0  0  0  0  2 V2000
  145.9715  130.3783  151.8358 C   0  0  0  0  0  0  0  0  0  0  0  0
  145.5033  131.7077  151.2678 C   0  0  0  0  0  0  0  0  0  0  0  0
  144.5988  131.7260  150.2701 C   0  0  0  0  0  0  0  0  0  0  0  0
  144.0060  132.9843  149.6797 C   0  0  0  0  0  0  0  0  0  0  0  0
  144.1517  134.1643  150.6433 C   0  0  0  0  0  0  0  0  0  0  0  0
  145.5934  134.2909  151.1621 C   0  0  1  0  0  0  0  0  0  0  0  0
  145.7093  135.5452  152.0502 C   0  0  0  0  0  0  0  0  0  0  0  0
  146.0775  132.9979  151.8889 C   0  0  2  0  0  0  0  0  0  0  0  0
  147.6266  132.9820  151.9725 C   0  0  0  0  0  0  0  0  0  0  0  0
  148.1546  133.8922  153.0092 N   0  3  0  0  0  0  0  0  0  0  0  0
  149.4502  133.4718  153.5778 C   0  0  0  0  0  0  0  0  0  0  0  0
  149.3142  132.1835  154.4044 C   0  0  0  0  0  0  0  0  0  0  0  0
  150.4779  131.9358  155.2406 N   0  0  0  0  0  0  0  0  0  0  0  0
  150.8962  132.6306  156.3104 C   0  0  0  0  0  0  0  0  0  0  0  0
  152.0220  132.1872  156.8669 N   0  0  0  0  0  0  0  0  0  0  0  0
  152.3936  131.1106  156.0874 N   0  0  0  0  0  0  0  0  0  0  0  0
  151.4465  131.0006  155.1486 C   0  0  0  0  0  0  0  0  0  0  0  0
  151.4739  129.9756  154.0598 C   0  0  0  0  0  0  0  0  0  0  0  0
  151.3449  128.5040  154.3837 C   0  0  0  0  0  0  0  0  0  0  0  0
  152.6543  129.0468  153.8755 C   0  0  0  0  0  0  0  0  0  0  0  0
  145.8528  130.3644  152.9187 H   0  0  0  0  0  0  0  0  0  0  0  0
  147.0162  130.1921  151.5885 H   0  0  0  0  0  0  0  0  0  0  0  0
  145.3904  129.5482  151.4320 H   0  0  0  0  0  0  0  0  0  0  0  0
  144.2399  130.7974  149.8499 H   0  0  0  0  0  0  0  0  0  0  0  0
  144.5009  133.1925  148.7306 H   0  0  0  0  0  0  0  0  0  0  0  0
  142.9511  132.8151  149.4618 H   0  0  0  0  0  0  0  0  0  0  0  0
  143.8438  135.0815  150.1396 H   0  0  0  0  0  0  0  0  0  0  0  0
  143.4714  134.0322  151.4859 H   0  0  0  0  0  0  0  0  0  0  0  0
  146.2288  134.4449  150.2881 H   0  0  0  0  0  0  0  0  0  0  0  0
  145.1011  135.4493  152.9503 H   0  0  0  0  0  0  0  0  0  0  0  0
  145.3664  136.4325  151.5168 H   0  0  0  0  0  0  0  0  0  0  0  0
  146.7332  135.7425  152.3630 H   0  0  0  0  0  0  0  0  0  0  0  0
  145.6802  133.0324  152.9047 H   0  0  0  0  0  0  0  0  0  0  0  0
  147.9731  131.9651  152.1629 H   0  0  0  0  0  0  0  0  0  0  0  0
  148.0768  133.2850  151.0285 H   0  0  0  0  0  0  0  0  0  0  0  0
  148.2609  134.8114  152.6040 H   0  0  0  0  0  0  0  0  0  0  0  0
  150.1519  133.3047  152.7598 H   0  0  0  0  0  0  0  0  0  0  0  0
  149.8626  134.2751  154.1901 H   0  0  0  0  0  0  0  0  0  0  0  0
  148.4156  132.2169  155.0208 H   0  0  0  0  0  0  0  0  0  0  0  0
  149.1988  131.3296  153.7361 H   0  0  0  0  0  0  0  0  0  0  0  0
  150.3632  133.4889  156.6931 H   0  0  0  0  0  0  0  0  0  0  0  0
  150.9788  130.3492  153.1654 H   0  0  0  0  0  0  0  0  0  0  0  0
  151.3093  128.2118  155.4310 H   0  0  0  0  0  0  0  0  0  0  0  0
  150.7562  127.8898  153.7055 H   0  0  0  0  0  0  0  0  0  0  0  0
  152.9405  128.7963  152.8562 H   0  0  0  0  0  0  0  0  0  0  0  0
  153.4759  129.1169  154.5857 H   0  0  0  0  0  0  0  0  0  0  0  0
  147.4799  133.9458  153.7588 H   0  0  0  0  0  0  0  0  0  0  0  0
  1  2  1  0  0  0  0
  1 21  1  0  0  0  0
  1 22  1  0  0  0  0
  1 23  1  0  0  0  0
  2  8  1  0  0  0  0
  2  3  2  0  0  0  0
  3  4  1  0  0  0  0
  3 24  1  0  0  0  0
  4  5  1  0  0  0  0
  4 25  1  0  0  0  0
  4 26  1  0  0  0  0
  5  6  1  0  0  0  0
  5 27  1  0  0  0  0
  5 28  1  0  0  0  0
  6  7  1  0  0  0  0
  6  8  1  0  0  0  0
  6 29  1  0  0  0  0
  7 30  1  0  0  0  0
  7 31  1  0  0  0  0
  7 32  1  0  0  0  0
  8  9  1  0  0  0  0
  8 33  1  0  0  0  0
  9 10  1  0  0  0  0
  9 34  1  0  0  0  0
  9 35  1  0  0  0  0
 10 11  1  0  0  0  0
 10 36  1  0  0  0  0
 10 47  1  0  0  0  0
 11 12  1  0  0  0  0
 11 37  1  0  0  0  0
 11 38  1  0  0  0  0
 12 13  1  0  0  0  0
 12 39  1  0  0  0  0
 12 40  1  0  0  0  0
 13 17  1  0  0  0  0
 13 14  1  0  0  0  0
 14 15  2  0  0  0  0
 14 41  1  0  0  0  0
 15 16  1  0  0  0  0
 16 17  2  0  0  0  0
 17 18  1  0  0  0  0
 18 20  1  0  0  0  0
 18 19  1  0  0  0  0
 18 42  1  0  0  0  0
 19 20  1  0  0  0  0
 19 43  1  0  0  0  0
 19 44  1  0  0  0  0
 20 45  1  0  0  0  0
 20 46  1  0  0  0  0
M  CHG  1  10   1
M  END
> <s_m_source_file>
AV-unprocessed.smi

> <i_m_source_file_index>
2780

> <i_lp_mmshare_version>
43012

> <i_f3d_flags>
0

> <s_epik_input>
W0NIM11DMT1bQ0hdW0NIMl1bQ0gyXVtDQEBIXShbQ0gzXSlbQ0BIXTFbQ0gyXVtOSF1bQ0gyXVtDSDJdbjJbY0hdbm5jMltDSF0zW0NIMl1bQ0gyXTM=

> <s_epik_cmdline>
J2VwaWtfcHl0aG9uJywgJy1waCcsICc3LjAnLCAnLXRuJywgJzgnLCAnLW1hJywgJzIwMCcsICctbWV0YWxfYmluZGluZycsICctaW1hZScsICc8aW5maWxlLm1hZT4nLCAnLW9tYWUnLCAnPG91dGZpbGUubWFlPic=

> <r_lp_tautomer_probability>
1

> <r_epik_Ionization_Penalty>
0.00176214

> <r_epik_Ionization_Penalty_Charging>
0.00175191

> <r_epik_Ionization_Penalty_Neutral>
1.02377e-05

> <r_epik_State_Penalty>
-0

> <r_epik_Charging_Adjusted_Penalty>
0.00175191

> <i_epik_Tot_Q>
1

> <i_epik_Tot_abs_Q>
1

> <r_epik_Metal_State_Penalty>
-0

> <b_epik_Metal_Only>
0

> <s_lp_Force_Field>
OPLS_2005

> <r_lp_Energy>
22.3616

> <b_lp_Chiralities_Consistent>
1

> <s_lp_Variant>
AV-unprocessed.smi:2780-3

> <Gold.Version>
5.8.1

> <Gold.Id.Protein>
6NUR|6NUR_protein|mol2

> <Gold.PLP.Fitness>
48.6226

> <Gold.PLP.PLP>
-40.4961

> <Gold.PLP.part.hbond>
-2.0000

> <Gold.PLP.part.metal>
0.0000

> <Gold.PLP.part.buried>
-2.8589

> <Gold.PLP.part.nonpolar>
-35.6604

> <Gold.PLP.part.repulsive>
0.0000

> <Gold.PLP.ligand.clash>
0.0000

> <Gold.PLP.ligand.torsion>
0.5735

> <Gold.PLP.Chemscore.Hbond>
3.0000

> <Gold.PLP.Chemscore.CHOScore>
0.0000

> <Gold.PLP.Chemscore.Metal>
0.0000

> <Gold.Chemscore.Hbonds>
donor molecule, donor type, donor heavy atom, donor atom, acceptor molecule, acceptor atom, score
      L1  H    10    36       P1  7948  2.00

> <Gold.PLP.Chemscore.Internal.Correction>
0.2734

> <Gold.Rescore>
     Score         DG    S(hbond)    S(metal)    S(lipo)     H(rot)  DE(clash)    DE(int)     intcor
     16.75     -17.82       1.88        0.00      95.17       1.98       0.12       0.94       ----

> <Gold.Chemscore.Fitness>
16.7543

> <Gold.Chemscore.DG>
-17.8164

> <Gold.Chemscore.ZeroCoef>
-5.4800

> <Gold.Chemscore.Hbond>
1.8771

> <Gold.Chemscore.Metal>
0.0000

> <Gold.Chemscore.Lipo>
95.1740

> <Gold.Chemscore.Internal_Hbond>
0.0000

> <Gold.Chemscore.DEClash>
0.1239

> <Gold.Chemscore.DEInternal>
0.9382

> <Gold.Chemscore.Rot>
1.9799

> <Gold.Chemscore.Internal.Correction>
   9.000000E+99

> <Gold.Chemscore.Hbonds>
donor molecule, donor type, donor heavy atom, donor atom, acceptor molecule, acceptor atom, score
      L1  H    10    36       P1  7948  0.50

> <Gold.Chemscore.Hbond.Weighted>
-6.2696

> <Gold.Chemscore.Metal.Weighted>
-0.0000

> <Gold.Chemscore.Lipo.Weighted>
-11.1354

> <Gold.Chemscore.Internal_Hbond.Weighted>
0.0000

> <Gold.Chemscore.DEClash.Weighted>
0.1239

> <Gold.Chemscore.DEInternal.Weighted>
0.9382

> <Gold.Chemscore.Rot.Weighted>
5.0685

> <Gold.Chemscore.Internal.Correction.Weighted>
   9.000000E+99

> <Gold.Protein.RotatedTorsions>
[ 6907 6896 6895 6894 ] final  -39.13 input  -60.11 | X-H torsion
[ 7974 7965 7964 7962 ] final    0.56 input  175.53 | X-H torsion
[ 8008 7997 7996 7995 ] final   39.62 input   59.86 | X-H torsion
[ 10167 10162 10161 10158 ] final  105.34 input  -65.29 | X-H torsion
[ 10718 10713 10712 10709 ] final  -12.30 input   66.30 | X-H torsion
[ 10763 10752 10751 10750 ] final   84.07 input  -60.55 | X-H torsion
[ 11005 11000 10999 10996 ] final  154.20 input  -57.11 | X-H torsion

> <Gold.Protein.ActiveResidues>
 VAL166  LYS551  ARG553  GLY616  TRP617  ASP618  TYR619  PRO620  LYS621  CYS622 
 ASP623  PHE694  ASN695  SER759  ASP760  ASP761  ALA762  ILE779  LEU786  VAL792 
 PHE793  MET794  SER795  GLU796  ALA797  LYS798  CYS799  TRP800  GLU811  SER814 

> <Gold.Protein.RotatedAtoms>
  150.9940  134.9268  159.7915 H   0  0  0  0  0  0  0  0  0  0  0  0  # atno 6907 bound_to 6896
  152.5259  134.3243  159.9169 H   0  0  0  0  0  0  0  0  0  0  0  0  # atno 6908 bound_to 6896
  151.3249  133.3983  159.2692 H   0  0  0  0  0  0  0  0  0  0  0  0  # atno 6909 bound_to 6896
  146.2435  140.1119  142.8343 H   0  0  0  0  0  0  0  0  0  0  0  0  # atno 7974 bound_to 7965
  155.2396  140.3344  155.4294 H   0  0  0  0  0  0  0  0  0  0  0  0  # atno 8008 bound_to 7997
  156.2261  140.1830  156.7404 H   0  0  0  0  0  0  0  0  0  0  0  0  # atno 8009 bound_to 7997
  154.5902  140.0639  156.9213 H   0  0  0  0  0  0  0  0  0  0  0  0  # atno 8010 bound_to 7997
  139.7101  144.7079  151.1041 H   0  0  0  0  0  0  0  0  0  0  0  0  # atno 10167 bound_to 10162
  156.6467  130.4943  149.6076 H   0  0  0  0  0  0  0  0  0  0  0  0  # atno 10718 bound_to 10713
  153.1348  135.4668  154.9405 H   0  0  0  0  0  0  0  0  0  0  0  0  # atno 10763 bound_to 10752
  154.7696  135.3155  154.8219 H   0  0  0  0  0  0  0  0  0  0  0  0  # atno 10764 bound_to 10752
  153.8754  135.6899  153.4825 H   0  0  0  0  0  0  0  0  0  0  0  0  # atno 10765 bound_to 10752
  140.1467  134.8702  157.2402 H   0  0  0  0  0  0  0  0  0  0  0  0  # atno 11005 bound_to 11000
  145.0480  140.8996  143.5013 LP  0  0  0  0  0  0  0  0  0  0  0  0  # atno 17320 bound_to 7965
  145.1212  139.2692  143.5588 LP  0  0  0  0  0  0  0  0  0  0  0  0  # atno 17321 bound_to 7965
  140.7731  143.5305  150.9429 LP  0  0  0  0  0  0  0  0  0  0  0  0  # atno 17342 bound_to 10162
  139.8989  143.6860  152.3134 LP  0  0  0  0  0  0  0  0  0  0  0  0  # atno 17343 bound_to 10162
  156.2117  130.6683  151.1276 LP  0  0  0  0  0  0  0  0  0  0  0  0  # atno 17370 bound_to 10713
  157.7154  131.0712  150.6346 LP  0  0  0  0  0  0  0  0  0  0  0  0  # atno 17371 bound_to 10713
  140.2655  134.3522  155.7391 LP  0  0  0  0  0  0  0  0  0  0  0  0  # atno 17394 bound_to 11000
  141.2193  133.7393  156.9144 LP  0  0  0  0  0  0  0  0  0  0  0  0  # atno 17395 bound_to 11000

$$$$
