AV-unprocessed.smi:2916|AV-procd|sdf|11188|dock10
  -GOLD-   2272016 83D 1   1.00000     0.00000
 Structure written by MMmdl.
 38 39  0  0  0  0  0  0  0  0  2 V2000
  150.4702  138.9590  156.0210 N   0  0  0  0  0  0  0  0  0  0  0  0
  150.4648  140.1771  155.4687 C   0  0  0  0  0  0  0  0  0  0  0  0
  151.2833  140.4821  154.6034 O   0  0  0  0  0  0  0  0  0  0  0  0
  149.3659  141.1761  155.9202 C   0  0  0  0  0  0  0  0  0  0  0  0
  150.0408  142.4022  156.4279 N   0  3  0  0  0  0  0  0  0  0  0  0
  150.7994  142.3099  157.7002 C   0  0  0  0  0  0  0  0  0  0  0  0
  151.2538  143.7015  158.1728 C   0  0  0  0  0  0  0  0  0  0  0  0
  151.8011  143.6886  159.5189 N   0  0  0  0  0  0  0  0  0  0  0  0
  151.3847  144.4094  160.6184 C   0  0  0  0  0  0  0  0  0  0  0  0
  152.2088  144.0809  161.6562 C   0  0  0  0  0  0  0  0  0  0  0  0
  153.1199  143.1501  161.0836 C   0  0  0  0  0  0  0  0  0  0  0  0
  152.8759  142.9213  159.8036 N   0  0  0  0  0  0  0  0  0  0  0  0
  148.4761  141.6059  154.7186 C   0  0  0  0  0  0  0  0  0  0  0  0
  147.5823  140.4756  154.1769 C   0  0  0  0  0  0  0  0  0  0  0  0
  146.6746  139.9222  155.2826 C   0  0  0  0  0  0  0  0  0  0  0  0
  147.5001  139.4571  156.4893 C   0  0  0  0  0  0  0  0  0  0  0  0
  148.4247  140.5765  157.0106 C   0  0  0  0  0  0  0  0  0  0  0  0
  151.1903  138.2992  155.7621 H   0  0  0  0  0  0  0  0  0  0  0  0
  149.7766  138.7061  156.7097 H   0  0  0  0  0  0  0  0  0  0  0  0
  150.6741  142.7241  155.7106 H   0  0  0  0  0  0  0  0  0  0  0  0
  150.1909  141.8465  158.4761 H   0  0  0  0  0  0  0  0  0  0  0  0
  151.6776  141.6777  157.5686 H   0  0  0  0  0  0  0  0  0  0  0  0
  152.0166  144.0948  157.4998 H   0  0  0  0  0  0  0  0  0  0  0  0
  150.4173  144.4010  158.1416 H   0  0  0  0  0  0  0  0  0  0  0  0
  150.5446  145.0869  160.5733 H   0  0  0  0  0  0  0  0  0  0  0  0
  152.1704  144.4532  162.6693 H   0  0  0  0  0  0  0  0  0  0  0  0
  153.9459  142.6391  161.5560 H   0  0  0  0  0  0  0  0  0  0  0  0
  147.8311  142.4293  155.0300 H   0  0  0  0  0  0  0  0  0  0  0  0
  149.0794  142.0113  153.9053 H   0  0  0  0  0  0  0  0  0  0  0  0
  146.9717  140.8505  153.3550 H   0  0  0  0  0  0  0  0  0  0  0  0
  148.1935  139.6736  153.7618 H   0  0  0  0  0  0  0  0  0  0  0  0
  145.9699  140.6933  155.5973 H   0  0  0  0  0  0  0  0  0  0  0  0
  146.0768  139.0955  154.8975 H   0  0  0  0  0  0  0  0  0  0  0  0
  146.8314  139.1325  157.2870 H   0  0  0  0  0  0  0  0  0  0  0  0
  148.0850  138.5798  156.2129 H   0  0  0  0  0  0  0  0  0  0  0  0
  148.9964  140.1814  157.8511 H   0  0  0  0  0  0  0  0  0  0  0  0
  147.8037  141.3724  157.4247 H   0  0  0  0  0  0  0  0  0  0  0  0
  149.3285  143.1065  156.5591 H   0  0  0  0  0  0  0  0  0  0  0  0
  1  2  1  0  0  0  0
  1 18  1  0  0  0  0
  1 19  1  0  0  0  0
  2  3  2  0  0  0  0
  2  4  1  0  0  0  0
  4 17  1  0  0  0  0
  4  5  1  0  0  0  0
  4 13  1  0  0  0  0
  5  6  1  0  0  0  0
  5 20  1  0  0  0  0
  5 38  1  0  0  0  0
  6  7  1  0  0  0  0
  6 21  1  0  0  0  0
  6 22  1  0  0  0  0
  7  8  1  0  0  0  0
  7 23  1  0  0  0  0
  7 24  1  0  0  0  0
  8 12  1  0  0  0  0
  8  9  1  0  0  0  0
  9 10  2  0  0  0  0
  9 25  1  0  0  0  0
 10 11  1  0  0  0  0
 10 26  1  0  0  0  0
 11 12  2  0  0  0  0
 11 27  1  0  0  0  0
 13 14  1  0  0  0  0
 13 28  1  0  0  0  0
 13 29  1  0  0  0  0
 14 15  1  0  0  0  0
 14 30  1  0  0  0  0
 14 31  1  0  0  0  0
 15 16  1  0  0  0  0
 15 32  1  0  0  0  0
 15 33  1  0  0  0  0
 16 17  1  0  0  0  0
 16 34  1  0  0  0  0
 16 35  1  0  0  0  0
 17 36  1  0  0  0  0
 17 37  1  0  0  0  0
M  CHG  1   5   1
M  END
> <s_m_source_file>
AV-unprocessed.smi

> <i_m_source_file_index>
2916

> <i_lp_mmshare_version>
43012

> <i_f3d_flags>
0

> <s_epik_input>
W0NIMl0xW0NIMl1bQ0gyXVtDSDJdW0NIMl1DMShDKD1PKVtOSDJdKVtOSF1bQ0gyXVtDSDJdbjJbY0hdW2NIXVtjSF1uMg==

> <s_epik_cmdline>
J2VwaWtfcHl0aG9uJywgJy1waCcsICc3LjAnLCAnLXRuJywgJzgnLCAnLW1hJywgJzIwMCcsICctbWV0YWxfYmluZGluZycsICctaW1hZScsICc8aW5maWxlLm1hZT4nLCAnLW9tYWUnLCAnPG91dGZpbGUubWFlPic=

> <r_lp_tautomer_probability>
1

> <r_epik_Ionization_Penalty>
0.147888

> <r_epik_Ionization_Penalty_Charging>
0.147883

> <r_epik_Ionization_Penalty_Neutral>
4.65475e-06

> <r_epik_State_Penalty>
0.137176

> <r_epik_Charging_Adjusted_Penalty>
0.285059

> <i_epik_Tot_Q>
1

> <i_epik_Tot_abs_Q>
1

> <r_epik_Metal_State_Penalty>
0.137393

> <b_epik_Metal_Only>
0

> <s_lp_Force_Field>
OPLS_2005

> <r_lp_Energy>
14.4928

> <b_lp_Chiralities_Consistent>
1

> <s_lp_Variant>
AV-unprocessed.smi:2916-1

> <Gold.Version>
5.8.1

> <Gold.Id.Protein>
6NUR|6NUR_protein|mol2

> <Gold.PLP.Fitness>
44.4214

> <Gold.PLP.PLP>
-35.5922

> <Gold.PLP.part.hbond>
-2.0000

> <Gold.PLP.part.metal>
0.0000

> <Gold.PLP.part.buried>
-4.2996

> <Gold.PLP.part.nonpolar>
-29.7580

> <Gold.PLP.part.repulsive>
0.1640

> <Gold.PLP.ligand.clash>
0.0000

> <Gold.PLP.ligand.torsion>
0.1024

> <Gold.PLP.Chemscore.Hbond>
3.0000

> <Gold.PLP.Chemscore.CHOScore>
0.0000

> <Gold.PLP.Chemscore.Metal>
0.0000

> <Gold.Chemscore.Hbonds>
donor molecule, donor type, donor heavy atom, donor atom, acceptor molecule, acceptor atom, score
      L1  H     5    38       P1  8028  1.38
      P1  H  7989  7998       L1     3  0.23

> <Gold.PLP.Chemscore.Internal.Correction>
0.0340

> <Gold.Rescore>
     Score         DG    S(hbond)    S(metal)    S(lipo)     H(rot)  DE(clash)    DE(int)     intcor
     15.64     -16.44       1.99        0.00      86.35       2.26       0.47       0.32       ----

> <Gold.Chemscore.Fitness>
15.6445

> <Gold.Chemscore.DG>
-16.4364

> <Gold.Chemscore.ZeroCoef>
-5.4800

> <Gold.Chemscore.Hbond>
1.9894

> <Gold.Chemscore.Metal>
0.0000

> <Gold.Chemscore.Lipo>
86.3451

> <Gold.Chemscore.Internal_Hbond>
0.0000

> <Gold.Chemscore.DEClash>
0.4720

> <Gold.Chemscore.DEInternal>
0.3200

> <Gold.Chemscore.Rot>
2.2619

> <Gold.Chemscore.Internal.Correction>
   9.000000E+99

> <Gold.Chemscore.Hbonds>
donor molecule, donor type, donor heavy atom, donor atom, acceptor molecule, acceptor atom, score
      L1  H     5    38       P1  8028  0.68
      P1  H  7989  7998       L1     3  0.23

> <Gold.Chemscore.Hbond.Weighted>
-6.6444

> <Gold.Chemscore.Metal.Weighted>
-0.0000

> <Gold.Chemscore.Lipo.Weighted>
-10.1024

> <Gold.Chemscore.Internal_Hbond.Weighted>
0.0000

> <Gold.Chemscore.DEClash.Weighted>
0.4720

> <Gold.Chemscore.DEInternal.Weighted>
0.3200

> <Gold.Chemscore.Rot.Weighted>
5.7904

> <Gold.Chemscore.Internal.Correction.Weighted>
   9.000000E+99

> <Gold.Protein.RotatedTorsions>
[ 6907 6896 6895 6894 ] final  136.75 input  -60.11 | X-H torsion
[ 7974 7965 7964 7962 ] final  174.27 input  175.53 | X-H torsion
[ 8008 7997 7996 7995 ] final  -51.33 input   59.86 | X-H torsion
[ 10167 10162 10161 10158 ] final   27.35 input  -65.29 | X-H torsion
[ 10718 10713 10712 10709 ] final  -97.24 input   66.30 | X-H torsion
[ 10763 10752 10751 10750 ] final  -70.16 input  -60.55 | X-H torsion
[ 11005 11000 10999 10996 ] final  106.52 input  -57.11 | X-H torsion

> <Gold.Protein.ActiveResidues>
 VAL166  LYS551  ARG553  GLY616  TRP617  ASP618  TYR619  PRO620  LYS621  CYS622 
 ASP623  PHE694  ASN695  SER759  ASP760  ASP761  ALA762  ILE779  LEU786  VAL792 
 PHE793  MET794  SER795  GLU796  ALA797  LYS798  CYS799  TRP800  GLU811  SER814 

> <Gold.Protein.RotatedAtoms>
  152.2859  133.5514  159.5526 H   0  0  0  0  0  0  0  0  0  0  0  0  # atno 6907 bound_to 6896
  150.7215  134.0498  159.3803 H   0  0  0  0  0  0  0  0  0  0  0  0  # atno 6908 bound_to 6896
  151.8406  135.0591  160.0498 H   0  0  0  0  0  0  0  0  0  0  0  0  # atno 6909 bound_to 6896
  144.7225  139.9772  143.6438 H   0  0  0  0  0  0  0  0  0  0  0  0  # atno 7974 bound_to 7965
  154.4080  140.1250  156.4811 H   0  0  0  0  0  0  0  0  0  0  0  0  # atno 8008 bound_to 7997
  155.7084  140.3494  155.4943 H   0  0  0  0  0  0  0  0  0  0  0  0  # atno 8009 bound_to 7997
  155.9323  140.1072  157.1113 H   0  0  0  0  0  0  0  0  0  0  0  0  # atno 8010 bound_to 7997
  140.4946  144.0413  150.6309 H   0  0  0  0  0  0  0  0  0  0  0  0  # atno 10167 bound_to 10162
  156.0079  130.5186  150.6345 H   0  0  0  0  0  0  0  0  0  0  0  0  # atno 10718 bound_to 10713
  154.4137  135.6003  153.5968 H   0  0  0  0  0  0  0  0  0  0  0  0  # atno 10763 bound_to 10752
  152.9791  135.5935  154.4039 H   0  0  0  0  0  0  0  0  0  0  0  0  # atno 10764 bound_to 10752
  154.3855  135.2841  155.2164 H   0  0  0  0  0  0  0  0  0  0  0  0  # atno 10765 bound_to 10752
  139.8815  134.9372  156.5678 H   0  0  0  0  0  0  0  0  0  0  0  0  # atno 11005 bound_to 11000
  146.0516  139.3516  143.0636 LP  0  0  0  0  0  0  0  0  0  0  0  0  # atno 17320 bound_to 7965
  145.8208  140.9680  143.0900 LP  0  0  0  0  0  0  0  0  0  0  0  0  # atno 17321 bound_to 7965
  140.3692  143.2864  152.0298 LP  0  0  0  0  0  0  0  0  0  0  0  0  # atno 17342 bound_to 10162
  139.4858  144.6243  151.7194 LP  0  0  0  0  0  0  0  0  0  0  0  0  # atno 17343 bound_to 10162
  157.4137  131.0827  151.1197 LP  0  0  0  0  0  0  0  0  0  0  0  0  # atno 17370 bound_to 10713
  157.1820  130.6314  149.5675 LP  0  0  0  0  0  0  0  0  0  0  0  0  # atno 17371 bound_to 10713
  140.8121  133.8421  155.8819 LP  0  0  0  0  0  0  0  0  0  0  0  0  # atno 17394 bound_to 11000
  140.9497  134.1795  157.4737 LP  0  0  0  0  0  0  0  0  0  0  0  0  # atno 17395 bound_to 11000

$$$$
