AV-unprocessed.smi:1648|AV-procd|sdf|6628|dock5
  -GOLD-   22720 7323D 1   1.00000     0.00000
 Structure written by MMmdl.
 42 42  0  0  0  0  0  0  0  0  2 V2000
  146.4950  138.8442  151.1207 C   0  0  0  0  0  0  0  0  0  0  0  0
  146.8030  138.8124  152.6189 C   0  0  0  0  0  0  0  0  0  0  0  0
  146.2686  137.9623  153.3270 O   0  0  0  0  0  0  0  0  0  0  0  0
  147.6556  139.7142  153.1362 N   0  0  0  0  0  0  0  0  0  0  0  0
  148.0762  139.8473  154.5344 C   0  0  1  0  0  0  0  0  0  0  0  0
  149.5880  140.1484  154.5694 C   0  0  0  0  0  0  0  0  0  0  0  0
  150.0938  140.9127  153.7461 O   0  0  0  0  0  0  0  0  0  0  0  0
  150.2920  139.5406  155.5376 N   0  0  0  0  0  0  0  0  0  0  0  0
  151.7408  139.6113  155.7216 C   0  0  2  0  0  0  0  0  0  0  0  0
  152.3206  138.1999  155.5562 C   0  0  0  0  0  0  0  0  0  0  0  0
  152.1122  140.2072  157.0979 C   0  0  0  0  0  0  0  0  0  0  0  0
  151.3855  141.4431  157.4126 N   0  0  0  0  0  0  0  0  0  0  0  0
  150.9784  141.8756  158.6493 C   0  0  0  0  0  0  0  0  0  0  0  0
  150.3353  143.0705  158.4543 C   0  0  0  0  0  0  0  0  0  0  0  0
  150.3618  143.3091  157.1067 N   0  3  0  0  0  0  0  0  0  0  0  0
  150.9914  142.3136  156.4742 C   0  0  0  0  0  0  0  0  0  0  0  0
  147.2868  141.0200  155.1886 C   0  0  0  0  0  0  0  0  0  0  0  0
  145.8461  140.6286  155.5754 C   0  0  0  0  0  0  0  0  0  0  0  0
  147.2358  142.2655  154.2807 C   0  0  0  0  0  0  0  0  0  0  0  0
  146.0621  139.8020  150.8317 H   0  0  0  0  0  0  0  0  0  0  0  0
  145.7796  138.0632  150.8609 H   0  0  0  0  0  0  0  0  0  0  0  0
  147.3995  138.6759  150.5362 H   0  0  0  0  0  0  0  0  0  0  0  0
  148.0684  140.3701  152.4890 H   0  0  0  0  0  0  0  0  0  0  0  0
  147.8623  138.9259  155.0790 H   0  0  0  0  0  0  0  0  0  0  0  0
  149.7873  138.9385  156.1723 H   0  0  0  0  0  0  0  0  0  0  0  0
  152.1767  140.2277  154.9333 H   0  0  0  0  0  0  0  0  0  0  0  0
  153.4074  138.2083  155.6447 H   0  0  0  0  0  0  0  0  0  0  0  0
  152.0756  137.7862  154.5771 H   0  0  0  0  0  0  0  0  0  0  0  0
  151.9310  137.5179  156.3130 H   0  0  0  0  0  0  0  0  0  0  0  0
  151.9406  139.4811  157.8944 H   0  0  0  0  0  0  0  0  0  0  0  0
  153.1735  140.4574  157.1241 H   0  0  0  0  0  0  0  0  0  0  0  0
  151.1799  141.3207  159.5542 H   0  0  0  0  0  0  0  0  0  0  0  0
  149.8701  143.7489  159.1545 H   0  0  0  0  0  0  0  0  0  0  0  0
  151.1533  142.2346  155.4140 H   0  0  0  0  0  0  0  0  0  0  0  0
  147.8010  141.3154  156.1051 H   0  0  0  0  0  0  0  0  0  0  0  0
  145.2811  140.2971  154.7037 H   0  0  0  0  0  0  0  0  0  0  0  0
  145.3138  141.4743  156.0116 H   0  0  0  0  0  0  0  0  0  0  0  0
  145.8202  139.8272  156.3113 H   0  0  0  0  0  0  0  0  0  0  0  0
  146.7678  142.0367  153.3227 H   0  0  0  0  0  0  0  0  0  0  0  0
  148.2283  142.6678  154.0785 H   0  0  0  0  0  0  0  0  0  0  0  0
  146.6611  143.0671  154.7457 H   0  0  0  0  0  0  0  0  0  0  0  0
  149.9603  144.1196  156.6519 H   0  0  0  0  0  0  0  0  0  0  0  0
  1  2  1  0  0  0  0
  1 20  1  0  0  0  0
  1 21  1  0  0  0  0
  1 22  1  0  0  0  0
  2  3  2  0  0  0  0
  2  4  1  0  0  0  0
  4  5  1  0  0  0  0
  4 23  1  0  0  0  0
  5  6  1  0  0  0  0
  5 17  1  0  0  0  0
  5 24  1  0  0  0  0
  6  7  2  0  0  0  0
  6  8  1  0  0  0  0
  8  9  1  0  0  0  0
  8 25  1  0  0  0  0
  9 10  1  0  0  0  0
  9 11  1  0  0  0  0
  9 26  1  0  0  0  0
 10 27  1  0  0  0  0
 10 28  1  0  0  0  0
 10 29  1  0  0  0  0
 11 12  1  0  0  0  0
 11 30  1  0  0  0  0
 11 31  1  0  0  0  0
 12 16  1  0  0  0  0
 12 13  1  0  0  0  0
 13 14  2  0  0  0  0
 13 32  1  0  0  0  0
 14 15  1  0  0  0  0
 14 33  1  0  0  0  0
 15 16  2  0  0  0  0
 15 42  1  0  0  0  0
 16 34  1  0  0  0  0
 17 18  1  0  0  0  0
 17 19  1  0  0  0  0
 17 35  1  0  0  0  0
 18 36  1  0  0  0  0
 18 37  1  0  0  0  0
 18 38  1  0  0  0  0
 19 39  1  0  0  0  0
 19 40  1  0  0  0  0
 19 41  1  0  0  0  0
M  CHG  1  15   1
M  END
> <s_m_source_file>
AV-unprocessed.smi

> <i_m_source_file_index>
1648

> <i_lp_mmshare_version>
43012

> <i_f3d_flags>
0

> <s_epik_input>
W0NIM11DKD1PKVtOSF1bQ0BASF0oW0NIXShbQ0gzXSlbQ0gzXSlDKD1PKVtOSF1bQ0BIXShbQ0gzXSlbQ0gyXW4xW2NIXVtjSF1uW2NIXTE=

> <s_epik_cmdline>
J2VwaWtfcHl0aG9uJywgJy1waCcsICc3LjAnLCAnLXRuJywgJzgnLCAnLW1hJywgJzIwMCcsICctbWV0YWxfYmluZGluZycsICctaW1hZScsICc8aW5maWxlLm1hZT4nLCAnLW9tYWUnLCAnPG91dGZpbGUubWFlPic=

> <r_lp_tautomer_probability>
1

> <r_epik_Ionization_Penalty>
0.251562

> <r_epik_Ionization_Penalty_Charging>
0

> <r_epik_Ionization_Penalty_Neutral>
0.251562

> <r_epik_State_Penalty>
0.242926

> <r_epik_Charging_Adjusted_Penalty>
0.242926

> <i_epik_Tot_Q>
1

> <i_epik_Tot_abs_Q>
1

> <r_epik_Metal_State_Penalty>
0.53388

> <b_epik_Metal_Only>
0

> <s_lp_Force_Field>
OPLS_2005

> <r_lp_Energy>
11.0591

> <b_lp_Chiralities_Consistent>
1

> <s_lp_Variant>
AV-unprocessed.smi:1648-2

> <Gold.Version>
5.8.1

> <Gold.Id.Protein>
6NUR|6NUR_protein|mol2

> <Gold.PLP.Fitness>
37.5597

> <Gold.PLP.PLP>
-29.2760

> <Gold.PLP.part.hbond>
-2.8725

> <Gold.PLP.part.metal>
0.0000

> <Gold.PLP.part.buried>
1.8684

> <Gold.PLP.part.nonpolar>
-28.4651

> <Gold.PLP.part.repulsive>
2.6907

> <Gold.PLP.ligand.clash>
0.0000

> <Gold.PLP.ligand.torsion>
1.5048

> <Gold.PLP.Chemscore.Hbond>
3.7295

> <Gold.PLP.Chemscore.CHOScore>
0.0000

> <Gold.PLP.Chemscore.Metal>
0.0000

> <Gold.Chemscore.Hbonds>
donor molecule, donor type, donor heavy atom, donor atom, acceptor molecule, acceptor atom, score
      L1  H     4    23       P1  7957  0.55
      L1  H    15    42       P1  8028  2.00
      P1  H  7989  7998       L1     7  0.41
      P1  H  8011  8017       L1     7  0.77

> <Gold.PLP.Chemscore.Internal.Correction>
0.1047

> <Gold.Rescore>
     Score         DG    S(hbond)    S(metal)    S(lipo)     H(rot)  DE(clash)    DE(int)     intcor
     10.37     -14.31       2.51        0.00      60.93       2.61       2.50       1.44       ----

> <Gold.Chemscore.Fitness>
10.3708

> <Gold.Chemscore.DG>
-14.3105

> <Gold.Chemscore.ZeroCoef>
-5.4800

> <Gold.Chemscore.Hbond>
2.5127

> <Gold.Chemscore.Metal>
0.0000

> <Gold.Chemscore.Lipo>
60.9283

> <Gold.Chemscore.Internal_Hbond>
0.0000

> <Gold.Chemscore.DEClash>
2.4982

> <Gold.Chemscore.DEInternal>
1.4415

> <Gold.Chemscore.Rot>
2.6135

> <Gold.Chemscore.Internal.Correction>
   9.000000E+99

> <Gold.Chemscore.Hbonds>
donor molecule, donor type, donor heavy atom, donor atom, acceptor molecule, acceptor atom, score
      L1  H     4    23       P1  7957  0.53
      L1  H    15    42       P1  8028  0.90
      P1  H  7989  7998       L1     7  0.38
      P1  H  8011  8017       L1     7  0.74

> <Gold.Chemscore.Hbond.Weighted>
-8.3925

> <Gold.Chemscore.Metal.Weighted>
-0.0000

> <Gold.Chemscore.Lipo.Weighted>
-7.1286

> <Gold.Chemscore.Internal_Hbond.Weighted>
0.0000

> <Gold.Chemscore.DEClash.Weighted>
2.4982

> <Gold.Chemscore.DEInternal.Weighted>
1.4415

> <Gold.Chemscore.Rot.Weighted>
6.6906

> <Gold.Chemscore.Internal.Correction.Weighted>
   9.000000E+99

> <Gold.Protein.RotatedTorsions>
[ 6907 6896 6895 6894 ] final  147.54 input  -60.11 | X-H torsion
[ 7974 7965 7964 7962 ] final   98.48 input  175.53 | X-H torsion
[ 8008 7997 7996 7995 ] final   41.03 input   59.86 | X-H torsion
[ 10167 10162 10161 10158 ] final -125.54 input  -65.29 | X-H torsion
[ 10718 10713 10712 10709 ] final  109.39 input   66.30 | X-H torsion
[ 10763 10752 10751 10750 ] final -153.39 input  -60.55 | X-H torsion
[ 11005 11000 10999 10996 ] final  -25.78 input  -57.11 | X-H torsion

> <Gold.Protein.ActiveResidues>
 VAL166  LYS551  ARG553  GLY616  TRP617  ASP618  TYR619  PRO620  LYS621  CYS622 
 ASP623  PHE694  ASN695  SER759  ASP760  ASP761  ALA762  ILE779  LEU786  VAL792 
 PHE793  MET794  SER795  GLU796  ALA797  LYS798  CYS799  TRP800  GLU811  SER814 

> <Gold.Protein.RotatedAtoms>
  152.1534  133.4536  159.4824 H   0  0  0  0  0  0  0  0  0  0  0  0  # atno 6907 bound_to 6896
  150.6898  134.2161  159.4387 H   0  0  0  0  0  0  0  0  0  0  0  0  # atno 6908 bound_to 6896
  152.0059  134.9902  160.0617 H   0  0  0  0  0  0  0  0  0  0  0  0  # atno 6909 bound_to 6896
  145.4116  139.2333  143.3245 H   0  0  0  0  0  0  0  0  0  0  0  0  # atno 7974 bound_to 7965
  155.2629  140.3360  155.4271 H   0  0  0  0  0  0  0  0  0  0  0  0  # atno 8008 bound_to 7997
  156.2167  140.1792  156.7616 H   0  0  0  0  0  0  0  0  0  0  0  0  # atno 8009 bound_to 7997
  154.5763  140.0661  156.9024 H   0  0  0  0  0  0  0  0  0  0  0  0  # atno 8010 bound_to 7997
  139.9810  143.5742  152.2378 H   0  0  0  0  0  0  0  0  0  0  0  0  # atno 10167 bound_to 10162
  157.6543  131.0913  150.6447 H   0  0  0  0  0  0  0  0  0  0  0  0  # atno 10718 bound_to 10713
  154.7931  135.3214  154.7731 H   0  0  0  0  0  0  0  0  0  0  0  0  # atno 10763 bound_to 10752
  153.8415  135.6870  153.4806 H   0  0  0  0  0  0  0  0  0  0  0  0  # atno 10764 bound_to 10752
  153.1610  135.4661  154.9712 H   0  0  0  0  0  0  0  0  0  0  0  0  # atno 10765 bound_to 10752
  140.8969  133.7550  156.0493 H   0  0  0  0  0  0  0  0  0  0  0  0  # atno 11005 bound_to 11000
  146.2702  140.4828  142.8817 LP  0  0  0  0  0  0  0  0  0  0  0  0  # atno 17320 bound_to 7965
  144.8305  140.6699  143.6294 LP  0  0  0  0  0  0  0  0  0  0  0  0  # atno 17321 bound_to 7965
  139.6410  144.7654  151.2340 LP  0  0  0  0  0  0  0  0  0  0  0  0  # atno 17342 bound_to 10162
  140.7489  143.6318  150.8416 LP  0  0  0  0  0  0  0  0  0  0  0  0  # atno 17343 bound_to 10162
  156.6755  130.4552  149.5644 LP  0  0  0  0  0  0  0  0  0  0  0  0  # atno 17370 bound_to 10713
  156.1967  130.6594  151.1122 LP  0  0  0  0  0  0  0  0  0  0  0  0  # atno 17371 bound_to 10713
  140.8278  134.3214  157.5360 LP  0  0  0  0  0  0  0  0  0  0  0  0  # atno 17394 bound_to 11000
  139.8737  134.9346  156.3610 LP  0  0  0  0  0  0  0  0  0  0  0  0  # atno 17395 bound_to 11000

$$$$
