#       Name:                AV-unprocessed.smi:1966
#       Creating user name   scv26
#       Creation time:       Fri Mar 27 10:12:09 2020


#       File generated by GOLD software.
#

@<TRIPOS>MOLECULE
AV-unprocessed.smi:1966
    61    62     1
SMALL
NO_CHARGES


@<TRIPOS>ATOM
      1 ****        -5.4154  -2.7213  -3.1630 C.3            1 S1                 0.0000
      2 ****        -4.8312  -1.7566  -2.1369 C.2            1 S1                 0.0000
      3 ****        -4.5905  -0.5917  -2.4521 O.2            1 S1                 0.0000
      4 ****        -4.6112  -2.2538  -0.9094 N.am           1 S1                 0.0000
      5 ****        -4.0519  -1.5080   0.2206 C.3            1 S1                 0.0000
      6 ****        -2.5167  -1.4773   0.0853 C.2            1 S1                 0.0000
      7 ****        -1.8986  -2.5192  -0.1382 O.2            1 S1                 0.0000
      8 ****        -1.9433  -0.2675   0.2222 N.am           1 S1                 0.0000
      9 ****        -0.5617   0.0606   0.1850 C.ar           1 S1                 0.0000
     10 ****         0.4745  -0.8430   0.5188 C.ar           1 S1                 0.0000
     11 ****         1.8089  -0.3969   0.4697 C.ar           1 S1                 0.0000
     12 ****         2.0670   0.9380   0.0972 C.ar           1 S1                 0.0000
     13 ****         3.3953   1.3838   0.0479 N.3            1 S1                 0.0000
     14 ****         3.7003   2.4156   1.0304 C.3            1 S1                 0.0000
     15 ****         5.2039   2.7555   1.0163 C.3            1 S1                 0.0000
     16 ****         6.0842   1.6781   1.6743 C.3            1 S1                 0.0000
     17 ****         5.6282   3.0578  -0.3160 O.3            1 S1                 0.0000
     18 ****         5.3494   2.0423  -1.2808 C.3            1 S1                 0.0000
     19 ****         5.8466   2.5333  -2.6441 C.3            1 S1                 0.0000
     20 ****         3.8389   1.7457  -1.2908 C.3            1 S1                 0.0000
     21 ****         1.0799   1.8127  -0.2100 N.ar           1 S1                 0.0000
     22 ****        -0.1976   1.3790  -0.1593 C.ar           1 S1                 0.0000
     23 ****        -4.4557  -2.2203   1.5457 C.3            1 S1                 0.0000
     24 ****        -5.9854  -2.3486   1.6871 C.3            1 S1                 0.0000
     25 ****        -3.8915  -1.5233   2.8015 C.3            1 S1                 0.0000
     26 ****        -4.9402  -3.7000  -3.0892 H              1 S1                 0.0000
     27 ****        -5.2637  -2.3453  -4.1753 H              1 S1                 0.0000
     28 ****        -6.4863  -2.8429  -2.9993 H              1 S1                 0.0000
     29 ****        -4.8318  -3.2253  -0.7453 H              1 S1                 0.0000
     30 ****        -4.4497  -0.4907   0.2211 H              1 S1                 0.0000
     31 ****        -2.5754   0.5162   0.3016 H              1 S1                 0.0000
     32 ****         0.2722  -1.8578   0.8247 H              1 S1                 0.0000
     33 ****         2.6175  -1.0683   0.7191 H              1 S1                 0.0000
     34 ****         3.1246   3.3126   0.7975 H              1 S1                 0.0000
     35 ****         3.3932   2.0896   2.0249 H              1 S1                 0.0000
     36 ****         5.3415   3.6697   1.5940 H              1 S1                 0.0000
     37 ****         5.8168   1.5502   2.7235 H              1 S1                 0.0000
     38 ****         7.1369   1.9586   1.6350 H              1 S1                 0.0000
     39 ****         5.9781   0.7060   1.1937 H              1 S1                 0.0000
     40 ****         5.8984   1.1351  -1.0279 H              1 S1                 0.0000
     41 ****         5.6627   1.7900  -3.4201 H              1 S1                 0.0000
     42 ****         6.9188   2.7295  -2.6199 H              1 S1                 0.0000
     43 ****         5.3454   3.4560  -2.9380 H              1 S1                 0.0000
     44 ****         3.6196   0.9324  -1.9840 H              1 S1                 0.0000
     45 ****         3.2877   2.6220  -1.6353 H              1 S1                 0.0000
     46 ****        -0.9536   2.1100  -0.4068 H              1 S1                 0.0000
     47 ****        -4.0517  -3.2343   1.5312 H              1 S1                 0.0000
     48 ****        -6.4663  -1.3702   1.6702 H              1 S1                 0.0000
     49 ****        -6.2540  -2.8328   2.6264 H              1 S1                 0.0000
     50 ****        -6.4208  -2.9478   0.8874 H              1 S1                 0.0000
     51 ****        -4.2156  -0.4835   2.8543 H              1 S1                 0.0000
     52 ****        -2.8017  -1.5350   2.8251 H              1 S1                 0.0000
     53 ****        -4.2295  -2.0208   3.7110 H              1 S1                 0.0000
     54 ****        -4.7780  -0.2765  -3.3824 LP             1 S1                 0.0000
     55 ****        -4.2073   0.0398  -1.7780 LP             1 S1                 0.0000
     56 ****        -2.3928  -3.3835  -0.2317 LP             1 S1                 0.0000
     57 ****        -0.9026  -2.5006  -0.2262 LP             1 S1                 0.0000
     58 ****         3.9371   0.5854   0.3104 LP             1 S1                 0.0000
     59 ****         6.6166   3.2087  -0.3006 LP             1 S1                 0.0000
     60 ****         5.1675   3.8967  -0.6060 LP             1 S1                 0.0000
     61 ****         1.2917   2.7554  -0.4677 LP             1 S1                 0.0000
@<TRIPOS>BOND
    1    1    2 1     
    2    1   26 1     
    3    1   27 1     
    4    1   28 1     
    5    2    3 2     
    6    2    4 am    
    7    4    5 1     
    8    4   29 1     
    9    5    6 1     
   10    5   23 1     
   11    5   30 1     
   12    6    7 2     
   13    6    8 am    
   14    8    9 1     
   15    8   31 1     
   16    9   22 ar    
   17    9   10 ar    
   18   10   11 ar    
   19   10   32 1     
   20   11   12 ar    
   21   11   33 1     
   22   12   13 1     
   23   12   21 ar    
   24   13   20 1     
   25   13   14 1     
   26   14   15 1     
   27   14   34 1     
   28   14   35 1     
   29   15   16 1     
   30   15   17 1     
   31   15   36 1     
   32   16   37 1     
   33   16   38 1     
   34   16   39 1     
   35   17   18 1     
   36   18   19 1     
   37   18   20 1     
   38   18   40 1     
   39   19   41 1     
   40   19   42 1     
   41   19   43 1     
   42   20   44 1     
   43   20   45 1     
   44   21   22 ar    
   45   22   46 1     
   46   23   24 1     
   47   23   25 1     
   48   23   47 1     
   49   24   48 1     
   50   24   49 1     
   51   24   50 1     
   52   25   51 1     
   53   25   52 1     
   54   25   53 1     
   55    3   54 1     
   56    3   55 1     
   57    7   56 1     
   58    7   57 1     
   59   13   58 1     
   60   17   59 1     
   61   17   60 1     
   62   21   61 1     
@<TRIPOS>SUBSTRUCTURE
      1 S1             1
@<TRIPOS>SET
LONE_PAIRS      STATIC     ATOMS    <user>   **** ""
8 54 55 56 57 58 59 60 61
DONOR_HYDROGENS      STATIC     ATOMS    <user>   **** ""
2 29 31
ATOM$BLUE        STATIC     ATOMS    COLORGROUP SYSTEM
8 54 55 56 57 58 59 60 61
ATOM$RED        STATIC     ATOMS    COLORGROUP SYSTEM
2 29 31
