AV-unprocessed.smi:2837|AV-procd|sdf|10922|dock2
  -GOLD-   2272015373D 1   1.00000     0.00000
 Structure written by MMmdl.
 32 34  0  0  0  0  0  0  0  0  1 V2000
  147.6633  141.0683  153.9404 F   0  0  0  0  0  0  0  0  0  0  0  0
  148.0617  139.8143  154.2667 C   0  0  0  0  0  0  0  0  0  0  0  0
  147.5704  138.9714  153.3268 F   0  0  0  0  0  0  0  0  0  0  0  0
  149.4189  139.7376  154.2882 O   0  0  0  0  0  0  0  0  0  0  0  0
  150.0951  140.1241  155.4228 C   0  0  0  0  0  0  0  0  0  0  0  0
  150.9635  139.2738  156.1473 C   0  0  0  0  0  0  0  0  0  0  0  0
  151.5955  139.7676  157.3046 C   0  0  0  0  0  0  0  0  0  0  0  0
  151.3365  141.0930  157.7094 C   0  0  0  0  0  0  0  0  0  0  0  0
  151.9751  141.5797  158.8589 N   0  0  0  0  0  0  0  0  0  0  0  0
  152.6135  142.8926  158.8713 C   0  0  2  0  0  0  0  0  0  0  0  0
  152.8464  143.4307  160.2850 C   0  0  0  0  0  0  0  0  0  0  0  0
  152.1669  144.8054  160.2158 C   0  0  2  0  0  0  0  0  0  0  0  0
  150.6380  144.6792  160.2351 C   0  0  0  0  0  0  0  0  0  0  0  0
  150.3536  144.1393  158.8348 C   0  0  0  0  0  0  0  0  0  0  0  0
  151.7695  144.0217  158.2453 C   0  0  1  0  0  0  0  0  0  0  0  0
  152.3824  145.1449  158.8561 O   0  0  0  0  0  0  0  0  0  0  0  0
  150.5000  141.9083  157.0258 N   0  0  0  0  0  0  0  0  0  0  0  0
  149.8960  141.4283  155.9183 C   0  0  0  0  0  0  0  0  0  0  0  0
  147.6268  139.5330  155.2262 H   0  0  0  0  0  0  0  0  0  0  0  0
  151.1466  138.2568  155.8343 H   0  0  0  0  0  0  0  0  0  0  0  0
  152.2640  139.1349  157.8705 H   0  0  0  0  0  0  0  0  0  0  0  0
  151.8124  141.1194  159.7427 H   0  0  0  0  0  0  0  0  0  0  0  0
  153.5766  142.8320  158.3624 H   0  0  0  0  0  0  0  0  0  0  0  0
  152.4228  142.8046  161.0717 H   0  0  0  0  0  0  0  0  0  0  0  0
  153.9150  143.5347  160.4762 H   0  0  0  0  0  0  0  0  0  0  0  0
  152.5598  145.5295  160.9299 H   0  0  0  0  0  0  0  0  0  0  0  0
  150.2862  144.0146  161.0249 H   0  0  0  0  0  0  0  0  0  0  0  0
  150.1681  145.6535  160.3720 H   0  0  0  0  0  0  0  0  0  0  0  0
  149.8116  143.1934  158.8430 H   0  0  0  0  0  0  0  0  0  0  0  0
  149.7622  144.8577  158.2662 H   0  0  0  0  0  0  0  0  0  0  0  0
  151.7948  144.0416  157.1555 H   0  0  0  0  0  0  0  0  0  0  0  0
  149.2336  142.1105  155.4061 H   0  0  0  0  0  0  0  0  0  0  0  0
  1  2  1  0  0  0  0
  2  3  1  0  0  0  0
  2  4  1  0  0  0  0
  2 19  1  0  0  0  0
  4  5  1  0  0  0  0
  5 18  1  0  0  0  0
  5  6  2  0  0  0  0
  6  7  1  0  0  0  0
  6 20  1  0  0  0  0
  7  8  2  0  0  0  0
  7 21  1  0  0  0  0
  8  9  1  0  0  0  0
  8 17  1  0  0  0  0
  9 10  1  0  0  0  0
  9 22  1  0  0  0  0
 10 15  1  0  0  0  0
 10 11  1  0  0  0  0
 10 23  1  0  0  0  0
 11 12  1  0  0  0  0
 11 24  1  0  0  0  0
 11 25  1  0  0  0  0
 12 16  1  0  0  0  0
 12 13  1  0  0  0  0
 12 26  1  0  0  0  0
 13 14  1  0  0  0  0
 13 27  1  0  0  0  0
 13 28  1  0  0  0  0
 14 15  1  0  0  0  0
 14 29  1  0  0  0  0
 14 30  1  0  0  0  0
 15 16  1  0  0  0  0
 15 31  1  0  0  0  0
 17 18  2  0  0  0  0
 18 32  1  0  0  0  0
M  END
> <s_m_source_file>
AV-unprocessed.smi

> <i_m_source_file_index>
2837

> <i_lp_mmshare_version>
43012

> <i_f3d_flags>
0

> <s_epik_input>
RltDSF0oRilPYzFbY0hdW2NIXWMobltjSF0xKVtOSF1bQ0BIXShbQ0gyXVtDQEBIXTIzKVtDQEBIXShPMylbQ0gyXVtDSDJdMg==

> <s_epik_cmdline>
J2VwaWtfcHl0aG9uJywgJy1waCcsICc3LjAnLCAnLXRuJywgJzgnLCAnLW1hJywgJzIwMCcsICctbWV0YWxfYmluZGluZycsICctaW1hZScsICc8aW5maWxlLm1hZT4nLCAnLW9tYWUnLCAnPG91dGZpbGUubWFlPic=

> <r_lp_tautomer_probability>
1

> <r_epik_Ionization_Penalty>
0.0124072

> <r_epik_Ionization_Penalty_Charging>
0

> <r_epik_Ionization_Penalty_Neutral>
0.0124072

> <r_epik_State_Penalty>
0.00959565

> <r_epik_Charging_Adjusted_Penalty>
0.00959565

> <i_epik_Tot_Q>
0

> <i_epik_Tot_abs_Q>
0

> <r_epik_Metal_State_Penalty>
9.67369e-06

> <b_epik_Metal_Only>
0

> <s_lp_Force_Field>
OPLS_2005

> <r_lp_Energy>
39.9144

> <b_lp_Chiralities_Consistent>
1

> <s_lp_Variant>
AV-unprocessed.smi:2837-3

> <Gold.Version>
5.8.1

> <Gold.Id.Protein>
6NUR|6NUR_protein|mol2

> <Gold.PLP.Fitness>
37.8254

> <Gold.PLP.PLP>
-36.5126

> <Gold.PLP.part.hbond>
-0.0348

> <Gold.PLP.part.metal>
0.0000

> <Gold.PLP.part.buried>
-4.2312

> <Gold.PLP.part.nonpolar>
-33.4308

> <Gold.PLP.part.repulsive>
1.2993

> <Gold.PLP.ligand.clash>
0.0000

> <Gold.PLP.ligand.torsion>
0.8561

> <Gold.PLP.Chemscore.Hbond>
0.0000

> <Gold.PLP.Chemscore.CHOScore>
1.0000

> <Gold.PLP.Chemscore.Metal>
0.0000

> <Gold.Chemscore.Hbonds>
donor molecule, donor type, donor heavy atom, donor atom, acceptor molecule, acceptor atom, score
      L1  C    18    32       P1  8028  0.73

> <Gold.PLP.Chemscore.Internal.Correction>
0.0251

> <Gold.Rescore>
     Score         DG    S(hbond)    S(metal)    S(lipo)     H(rot)  DE(clash)    DE(int)     intcor
     10.58     -13.07       0.00        0.00      93.82       1.32       0.29       2.20       ----

> <Gold.Chemscore.Fitness>
10.5816

> <Gold.Chemscore.DG>
-13.0744

> <Gold.Chemscore.ZeroCoef>
-5.4800

> <Gold.Chemscore.Hbond>
0.0000

> <Gold.Chemscore.Metal>
0.0000

> <Gold.Chemscore.Lipo>
93.8194

> <Gold.Chemscore.Internal_Hbond>
0.0000

> <Gold.Chemscore.DEClash>
0.2896

> <Gold.Chemscore.DEInternal>
2.2032

> <Gold.Chemscore.Rot>
1.3213

> <Gold.Chemscore.Internal.Correction>
   9.000000E+99

> <Gold.Chemscore.Hbond.Weighted>
-0.0000

> <Gold.Chemscore.Metal.Weighted>
-0.0000

> <Gold.Chemscore.Lipo.Weighted>
-10.9769

> <Gold.Chemscore.Internal_Hbond.Weighted>
0.0000

> <Gold.Chemscore.DEClash.Weighted>
0.2896

> <Gold.Chemscore.DEInternal.Weighted>
2.2032

> <Gold.Chemscore.Rot.Weighted>
3.3825

> <Gold.Chemscore.Internal.Correction.Weighted>
   9.000000E+99

> <Gold.Protein.RotatedTorsions>
[ 6907 6896 6895 6894 ] final  -59.54 input  -60.11 | X-H torsion
[ 7974 7965 7964 7962 ] final -139.11 input  175.53 | X-H torsion
[ 8008 7997 7996 7995 ] final  -75.50 input   59.86 | X-H torsion
[ 10167 10162 10161 10158 ] final   -4.43 input  -65.29 | X-H torsion
[ 10718 10713 10712 10709 ] final  -52.11 input   66.30 | X-H torsion
[ 10763 10752 10751 10750 ] final  141.62 input  -60.55 | X-H torsion
[ 11005 11000 10999 10996 ] final -116.24 input  -57.11 | X-H torsion

> <Gold.Protein.ActiveResidues>
 VAL166  LYS551  ARG553  GLY616  TRP617  ASP618  TYR619  PRO620  LYS621  CYS622 
 ASP623  PHE694  ASN695  SER759  ASP760  ASP761  ALA762  ILE779  LEU786  VAL792 
 PHE793  MET794  SER795  GLU796  ALA797  LYS798  CYS799  TRP800  GLU811  SER814 

> <Gold.Protein.RotatedAtoms>
  150.7922  134.6955  159.6520 H   0  0  0  0  0  0  0  0  0  0  0  0  # atno 6907 bound_to 6896
  152.4030  134.6251  160.0071 H   0  0  0  0  0  0  0  0  0  0  0  0  # atno 6908 bound_to 6896
  151.6517  133.3284  159.3189 H   0  0  0  0  0  0  0  0  0  0  0  0  # atno 6909 bound_to 6896
  144.8703  140.6357  143.5271 H   0  0  0  0  0  0  0  0  0  0  0  0  # atno 7974 bound_to 7965
  154.5422  140.0743  156.8529 H   0  0  0  0  0  0  0  0  0  0  0  0  # atno 8008 bound_to 7997
  155.3157  140.3393  155.4224 H   0  0  0  0  0  0  0  0  0  0  0  0  # atno 8009 bound_to 7997
  156.1885  140.1677  156.8124 H   0  0  0  0  0  0  0  0  0  0  0  0  # atno 8010 bound_to 7997
  140.6927  143.6424  150.8423 H   0  0  0  0  0  0  0  0  0  0  0  0  # atno 10167 bound_to 10162
  156.1650  130.4149  149.9734 H   0  0  0  0  0  0  0  0  0  0  0  0  # atno 10718 bound_to 10713
  153.9422  135.2979  155.3442 H   0  0  0  0  0  0  0  0  0  0  0  0  # atno 10763 bound_to 10752
  154.7471  135.4998  153.9226 H   0  0  0  0  0  0  0  0  0  0  0  0  # atno 10764 bound_to 10752
  153.1036  135.6741  153.9734 H   0  0  0  0  0  0  0  0  0  0  0  0  # atno 10765 bound_to 10752
  141.0435  133.9798  157.2955 H   0  0  0  0  0  0  0  0  0  0  0  0  # atno 11005 bound_to 11000
  145.4143  139.1575  143.4109 LP  0  0  0  0  0  0  0  0  0  0  0  0  # atno 17320 bound_to 7965
  146.2925  140.4249  142.8734 LP  0  0  0  0  0  0  0  0  0  0  0  0  # atno 17321 bound_to 7965
  140.0139  143.5614  152.2828 LP  0  0  0  0  0  0  0  0  0  0  0  0  # atno 17342 bound_to 10162
  139.6347  144.7648  151.2462 LP  0  0  0  0  0  0  0  0  0  0  0  0  # atno 17343 bound_to 10162
  156.7551  130.9130  151.3639 LP  0  0  0  0  0  0  0  0  0  0  0  0  # atno 17370 bound_to 10713
  157.6761  130.9096  150.0154 LP  0  0  0  0  0  0  0  0  0  0  0  0  # atno 17371 bound_to 10713
  139.9294  135.0200  156.8347 LP  0  0  0  0  0  0  0  0  0  0  0  0  # atno 17394 bound_to 11000
  140.6190  134.0012  155.7610 LP  0  0  0  0  0  0  0  0  0  0  0  0  # atno 17395 bound_to 11000

$$$$
