AV-unprocessed.smi:1236|AV-procd|sdf|5180|dock3
  -GOLD-   22720 4263D 1   1.00000     0.00000
 Structure written by MMmdl.
 39 40  0  0  0  0  0  0  0  0  1 V2000
  146.3039  138.0902  155.1993 C   0  0  0  0  0  0  0  0  0  0  0  0
  146.2591  138.4263  153.7028 C   0  0  1  0  0  0  0  0  0  0  0  0
  147.2763  139.5322  153.3475 C   0  0  0  0  0  0  0  0  0  0  0  0
  148.3576  139.7335  154.3134 N   0  0  0  0  0  0  0  0  0  0  0  0
  149.4831  138.8259  154.1007 C   0  0  0  0  0  0  0  0  0  0  0  0
  150.6083  139.0635  155.1222 C   0  0  0  0  0  0  0  0  0  0  0  0
  151.0326  140.4214  155.0595 O   0  0  0  0  0  0  0  0  0  0  0  0
  149.9720  141.3399  155.3020 C   0  0  0  0  0  0  0  0  0  0  0  0
  148.8456  141.1076  154.2804 C   0  0  0  0  0  0  0  0  0  0  0  0
  146.5400  137.2153  152.9324 N   0  0  0  0  0  0  0  0  0  0  0  0
  145.6273  136.3415  152.4814 C   0  0  0  0  0  0  0  0  0  0  0  0
  144.4191  136.4441  152.6959 O   0  0  0  0  0  0  0  0  0  0  0  0
  146.2082  135.3596  151.7695 N   0  0  0  0  0  0  0  0  0  0  0  0
  145.5866  134.2595  151.1206 C   0  0  0  0  0  0  0  0  0  0  0  0
  146.4761  133.3230  150.5470 C   0  0  0  0  0  0  0  0  0  0  0  0
  145.9596  132.1956  149.8793 C   0  0  0  0  0  0  0  0  0  0  0  0
  144.5648  132.0329  149.8032 C   0  0  0  0  0  0  0  0  0  0  0  0
  143.7498  133.0111  150.4019 C   0  0  0  0  0  0  0  0  0  0  0  0
  144.2427  134.0924  151.0417 N   0  0  0  0  0  0  0  0  0  0  0  0
  146.0808  138.9692  155.8044 H   0  0  0  0  0  0  0  0  0  0  0  0
  147.2868  137.7227  155.4964 H   0  0  0  0  0  0  0  0  0  0  0  0
  145.5707  137.3233  155.4514 H   0  0  0  0  0  0  0  0  0  0  0  0
  145.2502  138.7836  153.4942 H   0  0  0  0  0  0  0  0  0  0  0  0
  147.7028  139.3277  152.3643 H   0  0  0  0  0  0  0  0  0  0  0  0
  146.7242  140.4670  153.2407 H   0  0  0  0  0  0  0  0  0  0  0  0
  149.1582  137.7897  154.1791 H   0  0  0  0  0  0  0  0  0  0  0  0
  149.8775  138.9545  153.0918 H   0  0  0  0  0  0  0  0  0  0  0  0
  150.2681  138.8267  156.1313 H   0  0  0  0  0  0  0  0  0  0  0  0
  151.4574  138.4138  154.9098 H   0  0  0  0  0  0  0  0  0  0  0  0
  149.6004  141.2169  156.3204 H   0  0  0  0  0  0  0  0  0  0  0  0
  150.3550  142.3571  155.2207 H   0  0  0  0  0  0  0  0  0  0  0  0
  149.2105  141.3473  153.2805 H   0  0  0  0  0  0  0  0  0  0  0  0
  148.0260  141.7971  154.4870 H   0  0  0  0  0  0  0  0  0  0  0  0
  147.5078  137.0453  152.7025 H   0  0  0  0  0  0  0  0  0  0  0  0
  147.2115  135.4091  151.6736 H   0  0  0  0  0  0  0  0  0  0  0  0
  147.5452  133.4635  150.6150 H   0  0  0  0  0  0  0  0  0  0  0  0
  146.6226  131.4691  149.4337 H   0  0  0  0  0  0  0  0  0  0  0  0
  144.1310  131.1813  149.3003 H   0  0  0  0  0  0  0  0  0  0  0  0
  142.6740  132.9234  150.3669 H   0  0  0  0  0  0  0  0  0  0  0  0
  1  2  1  0  0  0  0
  1 20  1  0  0  0  0
  1 21  1  0  0  0  0
  1 22  1  0  0  0  0
  2  3  1  0  0  0  0
  2 10  1  0  0  0  0
  2 23  1  0  0  0  0
  3  4  1  0  0  0  0
  3 24  1  0  0  0  0
  3 25  1  0  0  0  0
  4  9  1  0  0  0  0
  4  5  1  0  0  0  0
  5  6  1  0  0  0  0
  5 26  1  0  0  0  0
  5 27  1  0  0  0  0
  6  7  1  0  0  0  0
  6 28  1  0  0  0  0
  6 29  1  0  0  0  0
  7  8  1  0  0  0  0
  8  9  1  0  0  0  0
  8 30  1  0  0  0  0
  8 31  1  0  0  0  0
  9 32  1  0  0  0  0
  9 33  1  0  0  0  0
 10 11  1  0  0  0  0
 10 34  1  0  0  0  0
 11 12  2  0  0  0  0
 11 13  1  0  0  0  0
 13 14  1  0  0  0  0
 13 35  1  0  0  0  0
 14 19  1  0  0  0  0
 14 15  2  0  0  0  0
 15 16  1  0  0  0  0
 15 36  1  0  0  0  0
 16 17  2  0  0  0  0
 16 37  1  0  0  0  0
 17 18  1  0  0  0  0
 17 38  1  0  0  0  0
 18 19  2  0  0  0  0
 18 39  1  0  0  0  0
M  END
> <s_m_source_file>
AV-unprocessed.smi

> <i_m_source_file_index>
1236

> <i_lp_mmshare_version>
43012

> <i_f3d_flags>
0

> <s_epik_input>
W0NIMl0xW0NIMl1PW0NIMl1bQ0gyXU4xW0NIMl1bQ0BASF0oW0NIM10pW05IXUMoPU8pW05IXWMyW2NIXVtjSF1bY0hdW2NIXW4y

> <s_epik_cmdline>
J2VwaWtfcHl0aG9uJywgJy1waCcsICc3LjAnLCAnLXRuJywgJzgnLCAnLW1hJywgJzIwMCcsICctbWV0YWxfYmluZGluZycsICctaW1hZScsICc8aW5maWxlLm1hZT4nLCAnLW9tYWUnLCAnPG91dGZpbGUubWFlPic=

> <r_epik_Ionization_Penalty>
0.26604

> <r_epik_Ionization_Penalty_Charging>
0

> <r_epik_Ionization_Penalty_Neutral>
0.26604

> <r_epik_State_Penalty>
0.257924

> <r_epik_Charging_Adjusted_Penalty>
0.257924

> <i_epik_Tot_Q>
0

> <i_epik_Tot_abs_Q>
0

> <r_epik_Metal_State_Penalty>
0.257923

> <b_epik_Metal_Only>
0

> <s_lp_Force_Field>
OPLS_2005

> <r_lp_Energy>
27.6221

> <b_lp_Chiralities_Consistent>
1

> <s_lp_Variant>
AV-unprocessed.smi:1236-2

> <Gold.Version>
5.8.1

> <Gold.Id.Protein>
6NUR|6NUR_protein|mol2

> <Gold.PLP.Fitness>
42.7387

> <Gold.PLP.PLP>
-33.2251

> <Gold.PLP.part.hbond>
-3.0000

> <Gold.PLP.part.metal>
0.0000

> <Gold.PLP.part.buried>
-3.3741

> <Gold.PLP.part.nonpolar>
-26.9974

> <Gold.PLP.part.repulsive>
0.5368

> <Gold.PLP.ligand.clash>
0.0000

> <Gold.PLP.ligand.torsion>
1.2590

> <Gold.PLP.Chemscore.Hbond>
3.0000

> <Gold.PLP.Chemscore.CHOScore>
1.0000

> <Gold.PLP.Chemscore.Metal>
0.0000

> <Gold.Chemscore.Hbonds>
donor molecule, donor type, donor heavy atom, donor atom, acceptor molecule, acceptor atom, score
      L1  H    10    34       P1  7948  1.00
      L1  H    13    35       P1  7948  1.00
      P1  H  7989  7998       L1     7  1.00
      L1  C    18    39       P1 10186  1.00

> <Gold.PLP.Chemscore.Internal.Correction>
0.0317

> <Gold.Rescore>
     Score         DG    S(hbond)    S(metal)    S(lipo)     H(rot)  DE(clash)    DE(int)     intcor
     17.00     -19.78       2.55        0.00      82.45       1.51       0.19       2.59       ----

> <Gold.Chemscore.Fitness>
16.9973

> <Gold.Chemscore.DG>
-19.7807

> <Gold.Chemscore.ZeroCoef>
-5.4800

> <Gold.Chemscore.Hbond>
2.5510

> <Gold.Chemscore.Metal>
0.0000

> <Gold.Chemscore.Lipo>
82.4517

> <Gold.Chemscore.Internal_Hbond>
0.0000

> <Gold.Chemscore.DEClash>
0.1912

> <Gold.Chemscore.DEInternal>
2.5922

> <Gold.Chemscore.Rot>
1.5104

> <Gold.Chemscore.Internal.Correction>
   9.000000E+99

> <Gold.Chemscore.Hbonds>
donor molecule, donor type, donor heavy atom, donor atom, acceptor molecule, acceptor atom, score
      L1  H    10    34       P1  7948  0.99
      L1  H    13    35       P1  7948  0.97
      P1  H  7989  7998       L1     7  0.38

> <Gold.Chemscore.Hbond.Weighted>
-8.5203

> <Gold.Chemscore.Metal.Weighted>
-0.0000

> <Gold.Chemscore.Lipo.Weighted>
-9.6469

> <Gold.Chemscore.Internal_Hbond.Weighted>
0.0000

> <Gold.Chemscore.DEClash.Weighted>
0.1912

> <Gold.Chemscore.DEInternal.Weighted>
2.5922

> <Gold.Chemscore.Rot.Weighted>
3.8665

> <Gold.Chemscore.Internal.Correction.Weighted>
   9.000000E+99

> <Gold.Protein.RotatedTorsions>
[ 6907 6896 6895 6894 ] final -137.21 input  -60.11 | X-H torsion
[ 7974 7965 7964 7962 ] final   32.44 input  175.53 | X-H torsion
[ 8008 7997 7996 7995 ] final   96.52 input   59.86 | X-H torsion
[ 10167 10162 10161 10158 ] final  -59.58 input  -65.29 | X-H torsion
[ 10718 10713 10712 10709 ] final   66.37 input   66.30 | X-H torsion
[ 10763 10752 10751 10750 ] final  134.52 input  -60.55 | X-H torsion
[ 11005 11000 10999 10996 ] final   87.54 input  -57.11 | X-H torsion

> <Gold.Protein.ActiveResidues>
 VAL166  LYS551  ARG553  GLY616  TRP617  ASP618  TYR619  PRO620  LYS621  CYS622 
 ASP623  PHE694  ASN695  SER759  ASP760  ASP761  ALA762  ILE779  LEU786  VAL792 
 PHE793  MET794  SER795  GLU796  ALA797  LYS798  CYS799  TRP800  GLU811  SER814 

> <Gold.Protein.RotatedAtoms>
  151.0197  133.5888  159.2672 H   0  0  0  0  0  0  0  0  0  0  0  0  # atno 6907 bound_to 6896
  151.3010  135.0767  159.9248 H   0  0  0  0  0  0  0  0  0  0  0  0  # atno 6908 bound_to 6896
  152.5320  133.9878  159.7891 H   0  0  0  0  0  0  0  0  0  0  0  0  # atno 6909 bound_to 6896
  146.1486  139.6526  142.9114 H   0  0  0  0  0  0  0  0  0  0  0  0  # atno 7974 bound_to 7965
  156.0805  140.3271  155.7688 H   0  0  0  0  0  0  0  0  0  0  0  0  # atno 8008 bound_to 7997
  155.5160  140.0581  157.2932 H   0  0  0  0  0  0  0  0  0  0  0  0  # atno 8009 bound_to 7997
  154.4579  140.1952  156.0343 H   0  0  0  0  0  0  0  0  0  0  0  0  # atno 8010 bound_to 7997
  140.6126  143.2392  151.5673 H   0  0  0  0  0  0  0  0  0  0  0  0  # atno 10167 bound_to 10162
  157.6165  130.9264  150.0100 H   0  0  0  0  0  0  0  0  0  0  0  0  # atno 10718 bound_to 10713
  153.8250  135.3111  155.3413 H   0  0  0  0  0  0  0  0  0  0  0  0  # atno 10763 bound_to 10752
  154.7997  135.4734  154.0249 H   0  0  0  0  0  0  0  0  0  0  0  0  # atno 10764 bound_to 10752
  153.1670  135.6871  153.8752 H   0  0  0  0  0  0  0  0  0  0  0  0  # atno 10765 bound_to 10752
  139.8917  134.8429  156.2874 H   0  0  0  0  0  0  0  0  0  0  0  0  # atno 11005 bound_to 11000
  145.4877  141.0438  143.2610 LP  0  0  0  0  0  0  0  0  0  0  0  0  # atno 17320 bound_to 7965
  144.7876  139.6394  143.7127 LP  0  0  0  0  0  0  0  0  0  0  0  0  # atno 17321 bound_to 7965
  139.5373  144.2745  152.1278 LP  0  0  0  0  0  0  0  0  0  0  0  0  # atno 17342 bound_to 10162
  140.1947  144.4717  150.6461 LP  0  0  0  0  0  0  0  0  0  0  0  0  # atno 17343 bound_to 10162
  156.1289  130.3644  149.9764 LP  0  0  0  0  0  0  0  0  0  0  0  0  # atno 17370 bound_to 10713
  156.7829  130.9228  151.3646 LP  0  0  0  0  0  0  0  0  0  0  0  0  # atno 17371 bound_to 10713
  140.9998  133.7158  156.0943 LP  0  0  0  0  0  0  0  0  0  0  0  0  # atno 17394 bound_to 11000
  140.7512  134.4042  157.5541 LP  0  0  0  0  0  0  0  0  0  0  0  0  # atno 17395 bound_to 11000

$$$$
