AV-unprocessed.smi:2510|AV-procd|sdf|9882|dock5
  -GOLD-   2272013513D 1   1.00000     0.00000
 Structure written by MMmdl.
 48 49  0  0  0  0  0  0  0  0  1 V2000
  147.0156  140.7087  154.4660 C   0  0  0  0  0  0  0  0  0  0  0  0
  148.4517  140.3780  154.0213 C   0  0  0  0  0  0  0  0  0  0  0  0
  149.3179  139.5223  154.9890 C   0  0  0  0  0  0  0  0  0  0  0  0
  149.5854  140.4051  156.2328 C   0  0  0  0  0  0  0  0  0  0  0  0
  150.3873  141.6896  155.9577 C   0  0  0  0  0  0  0  0  0  0  0  0
  148.8377  138.0823  155.3420 C   0  0  1  0  0  0  0  0  0  0  0  0
  148.0240  137.4553  154.3027 N   0  0  0  0  0  0  0  0  0  0  0  0
  146.6827  137.4358  154.2671 C   0  0  0  0  0  0  0  0  0  0  0  0
  145.9780  137.9843  155.1136 O   0  0  0  0  0  0  0  0  0  0  0  0
  146.0297  136.7063  153.0875 C   0  0  0  0  0  0  0  0  0  0  0  0
  144.5374  136.6522  153.2109 C   0  0  0  0  0  0  0  0  0  0  0  0
  143.6790  135.5983  153.3580 C   0  0  0  0  0  0  0  0  0  0  0  0
  142.3856  136.1973  153.3835 C   0  0  0  0  0  0  0  0  0  0  0  0
  141.0537  135.5199  153.5171 C   0  0  0  0  0  0  0  0  0  0  0  0
  142.4367  137.5160  153.2680 N   0  0  0  0  0  0  0  0  0  0  0  0
  143.7519  137.7821  153.1665 N   0  0  0  0  0  0  0  0  0  0  0  0
  150.2967  137.5928  155.2891 C   0  0  1  0  0  0  0  0  0  0  0  0
  150.6230  136.1908  154.7761 C   0  0  0  0  0  0  0  0  0  0  0  0
  150.5776  138.8187  154.4069 C   0  0  2  0  0  0  0  0  0  0  0  0
  151.7795  139.5149  154.7030 O   0  0  0  0  0  0  0  0  0  0  0  0
  152.9325  138.6941  154.6378 C   0  0  0  0  0  0  0  0  0  0  0  0
  144.0946  138.7273  153.0661 H   0  0  0  0  0  0  0  0  0  0  0  0
  146.5293  141.3469  153.7282 H   0  0  0  0  0  0  0  0  0  0  0  0
  146.9829  141.2363  155.4182 H   0  0  0  0  0  0  0  0  0  0  0  0
  146.4108  139.8061  154.5558 H   0  0  0  0  0  0  0  0  0  0  0  0
  148.3621  139.8833  153.0535 H   0  0  0  0  0  0  0  0  0  0  0  0
  148.9660  141.3160  153.8098 H   0  0  0  0  0  0  0  0  0  0  0  0
  148.6441  140.7004  156.6968 H   0  0  0  0  0  0  0  0  0  0  0  0
  150.1019  139.8270  157.0001 H   0  0  0  0  0  0  0  0  0  0  0  0
  150.4966  142.2732  156.8720 H   0  0  0  0  0  0  0  0  0  0  0  0
  149.8950  142.3261  155.2231 H   0  0  0  0  0  0  0  0  0  0  0  0
  151.3908  141.4729  155.5922 H   0  0  0  0  0  0  0  0  0  0  0  0
  148.4172  137.9821  156.3435 H   0  0  0  0  0  0  0  0  0  0  0  0
  148.5215  136.9821  153.5622 H   0  0  0  0  0  0  0  0  0  0  0  0
  146.3026  137.2083  152.1585 H   0  0  0  0  0  0  0  0  0  0  0  0
  146.4427  135.6984  153.0311 H   0  0  0  0  0  0  0  0  0  0  0  0
  143.9365  134.5517  153.4269 H   0  0  0  0  0  0  0  0  0  0  0  0
  141.1617  134.4352  153.5173 H   0  0  0  0  0  0  0  0  0  0  0  0
  140.3920  135.7866  152.6925 H   0  0  0  0  0  0  0  0  0  0  0  0
  140.5607  135.8043  154.4471 H   0  0  0  0  0  0  0  0  0  0  0  0
  150.7450  137.7429  156.2725 H   0  0  0  0  0  0  0  0  0  0  0  0
  150.3475  136.0678  153.7282 H   0  0  0  0  0  0  0  0  0  0  0  0
  150.0909  135.4297  155.3472 H   0  0  0  0  0  0  0  0  0  0  0  0
  151.6880  135.9759  154.8595 H   0  0  0  0  0  0  0  0  0  0  0  0
  150.4939  138.5652  153.3495 H   0  0  0  0  0  0  0  0  0  0  0  0
  153.8195  139.2969  154.8317 H   0  0  0  0  0  0  0  0  0  0  0  0
  153.0422  138.2431  153.6508 H   0  0  0  0  0  0  0  0  0  0  0  0
  152.8995  137.9015  155.3851 H   0  0  0  0  0  0  0  0  0  0  0  0
  1  2  1  0  0  0  0
  1 23  1  0  0  0  0
  1 24  1  0  0  0  0
  1 25  1  0  0  0  0
  2  3  1  0  0  0  0
  2 26  1  0  0  0  0
  2 27  1  0  0  0  0
  3 19  1  0  0  0  0
  3  4  1  0  0  0  0
  3  6  1  0  0  0  0
  4  5  1  0  0  0  0
  4 28  1  0  0  0  0
  4 29  1  0  0  0  0
  5 30  1  0  0  0  0
  5 31  1  0  0  0  0
  5 32  1  0  0  0  0
  6  7  1  0  0  0  0
  6 17  1  0  0  0  0
  6 33  1  0  0  0  0
  7  8  1  0  0  0  0
  7 34  1  0  0  0  0
  8  9  2  0  0  0  0
  8 10  1  0  0  0  0
 10 35  1  0  0  0  0
 10 36  1  0  0  0  0
 10 11  1  0  0  0  0
 11 16  1  0  0  0  0
 11 12  2  0  0  0  0
 12 13  1  0  0  0  0
 12 37  1  0  0  0  0
 13 14  1  0  0  0  0
 13 15  2  0  0  0  0
 14 38  1  0  0  0  0
 14 39  1  0  0  0  0
 14 40  1  0  0  0  0
 15 16  1  0  0  0  0
 16 22  1  0  0  0  0
 17 18  1  0  0  0  0
 17 19  1  0  0  0  0
 17 41  1  0  0  0  0
 18 42  1  0  0  0  0
 18 43  1  0  0  0  0
 18 44  1  0  0  0  0
 19 20  1  0  0  0  0
 19 45  1  0  0  0  0
 20 21  1  0  0  0  0
 21 46  1  0  0  0  0
 21 47  1  0  0  0  0
 21 48  1  0  0  0  0
M  END
> <s_m_source_file>
AV-unprocessed.smi

> <i_m_source_file_index>
2510

> <i_lp_mmshare_version>
43012

> <i_f3d_flags>
0

> <s_epik_input>
W0NIM11PW0NAQEhdMVtDQEhdKFtDSDNdKVtDQEBIXShDMShbQ0gyXVtDSDNdKVtDSDJdW0NIM10pW05IXUMoPU8pW0NIMl1jMltjSF1jKFtDSDNdKVtuSF1uMg==

> <s_epik_cmdline>
J2VwaWtfcHl0aG9uJywgJy1waCcsICc3LjAnLCAnLXRuJywgJzgnLCAnLW1hJywgJzIwMCcsICctbWV0YWxfYmluZGluZycsICctaW1hZScsICc8aW5maWxlLm1hZT4nLCAnLW9tYWUnLCAnPG91dGZpbGUubWFlPic=

> <r_lp_tautomer_probability>
0.5

> <r_epik_Ionization_Penalty>
0.000134763

> <r_epik_Ionization_Penalty_Charging>
0

> <r_epik_Ionization_Penalty_Neutral>
0.000134763

> <r_epik_State_Penalty>
0.41068

> <r_epik_Charging_Adjusted_Penalty>
0.41068

> <i_epik_Tot_Q>
0

> <i_epik_Tot_abs_Q>
0

> <r_epik_Metal_State_Penalty>
0.410661

> <b_epik_Metal_Only>
0

> <s_lp_Force_Field>
OPLS_2005

> <r_lp_Energy>
26.4004

> <b_lp_Chiralities_Consistent>
1

> <s_lp_Variant>
AV-unprocessed.smi:2510-13

> <Gold.Version>
5.8.1

> <Gold.Id.Protein>
6NUR|6NUR_protein|mol2

> <Gold.PLP.Fitness>
38.4698

> <Gold.PLP.PLP>
-30.4452

> <Gold.PLP.part.hbond>
-3.0000

> <Gold.PLP.part.metal>
0.0000

> <Gold.PLP.part.buried>
-4.9164

> <Gold.PLP.part.nonpolar>
-23.0259

> <Gold.PLP.part.repulsive>
0.3205

> <Gold.PLP.ligand.clash>
0.0000

> <Gold.PLP.ligand.torsion>
0.6091

> <Gold.PLP.Chemscore.Hbond>
2.8800

> <Gold.PLP.Chemscore.CHOScore>
0.0000

> <Gold.PLP.Chemscore.Metal>
0.0000

> <Gold.Chemscore.Hbonds>
donor molecule, donor type, donor heavy atom, donor atom, acceptor molecule, acceptor atom, score
      L1  H     7    34       P1  7948  1.00
      L1  H    16    22       P1 10175  0.88
      P1  H  7989  7998       L1    20  1.00

> <Gold.PLP.Chemscore.Internal.Correction>
0.6028

> <Gold.Rescore>
     Score         DG    S(hbond)    S(metal)    S(lipo)     H(rot)  DE(clash)    DE(int)     intcor
     16.94     -18.42       2.39        0.00      82.05       1.81       0.18       1.29       ----

> <Gold.Chemscore.Fitness>
16.9440

> <Gold.Chemscore.DG>
-18.4171

> <Gold.Chemscore.ZeroCoef>
-5.4800

> <Gold.Chemscore.Hbond>
2.3867

> <Gold.Chemscore.Metal>
0.0000

> <Gold.Chemscore.Lipo>
82.0466

> <Gold.Chemscore.Internal_Hbond>
0.0000

> <Gold.Chemscore.DEClash>
0.1811

> <Gold.Chemscore.DEInternal>
1.2919

> <Gold.Chemscore.Rot>
1.8102

> <Gold.Chemscore.Internal.Correction>
   9.000000E+99

> <Gold.Chemscore.Hbonds>
donor molecule, donor type, donor heavy atom, donor atom, acceptor molecule, acceptor atom, score
      L1  H     7    34       P1  7948  1.00
      L1  H    16    22       P1 10175  0.86
      P1  H  7989  7998       L1    20  0.23

> <Gold.Chemscore.Hbond.Weighted>
-7.9717

> <Gold.Chemscore.Metal.Weighted>
-0.0000

> <Gold.Chemscore.Lipo.Weighted>
-9.5994

> <Gold.Chemscore.Internal_Hbond.Weighted>
0.0000

> <Gold.Chemscore.DEClash.Weighted>
0.1811

> <Gold.Chemscore.DEInternal.Weighted>
1.2919

> <Gold.Chemscore.Rot.Weighted>
4.6341

> <Gold.Chemscore.Internal.Correction.Weighted>
   9.000000E+99

> <Gold.Protein.RotatedTorsions>
[ 6907 6896 6895 6894 ] final   93.53 input  -60.11 | X-H torsion
[ 7974 7965 7964 7962 ] final -123.80 input  175.53 | X-H torsion
[ 8008 7997 7996 7995 ] final  -13.14 input   59.86 | X-H torsion
[ 10167 10162 10161 10158 ] final  -30.34 input  -65.29 | X-H torsion
[ 10718 10713 10712 10709 ] final  -58.01 input   66.30 | X-H torsion
[ 10763 10752 10751 10750 ] final  -85.00 input  -60.55 | X-H torsion
[ 11005 11000 10999 10996 ] final  -64.76 input  -57.11 | X-H torsion

> <Gold.Protein.ActiveResidues>
 VAL166  LYS551  ARG553  GLY616  TRP617  ASP618  TYR619  PRO620  LYS621  CYS622 
 ASP623  PHE694  ASN695  SER759  ASP760  ASP761  ALA762  ILE779  LEU786  VAL792 
 PHE793  MET794  SER795  GLU796  ALA797  LYS798  CYS799  TRP800  GLU811  SER814 

> <Gold.Protein.RotatedAtoms>
  152.5452  134.1334  159.8448 H   0  0  0  0  0  0  0  0  0  0  0  0  # atno 6907 bound_to 6896
  151.1377  133.4986  159.2605 H   0  0  0  0  0  0  0  0  0  0  0  0  # atno 6908 bound_to 6896
  151.1607  135.0282  159.8763 H   0  0  0  0  0  0  0  0  0  0  0  0  # atno 6909 bound_to 6896
  145.0148  140.7937  143.4416 H   0  0  0  0  0  0  0  0  0  0  0  0  # atno 7974 bound_to 7965
  154.5318  140.2257  155.8792 H   0  0  0  0  0  0  0  0  0  0  0  0  # atno 8008 bound_to 7997
  156.1771  140.3109  155.9042 H   0  0  0  0  0  0  0  0  0  0  0  0  # atno 8009 bound_to 7997
  155.3437  140.0452  157.3036 H   0  0  0  0  0  0  0  0  0  0  0  0  # atno 8010 bound_to 7997
  140.7250  143.3857  151.1521 H   0  0  0  0  0  0  0  0  0  0  0  0  # atno 10167 bound_to 10162
  156.1167  130.4170  150.0519 H   0  0  0  0  0  0  0  0  0  0  0  0  # atno 10718 bound_to 10713
  154.6061  135.5500  153.7424 H   0  0  0  0  0  0  0  0  0  0  0  0  # atno 10763 bound_to 10752
  153.0175  135.6378  154.1645 H   0  0  0  0  0  0  0  0  0  0  0  0  # atno 10764 bound_to 10752
  154.1584  135.2898  155.3095 H   0  0  0  0  0  0  0  0  0  0  0  0  # atno 10765 bound_to 10752
  141.1434  133.6671  156.5882 H   0  0  0  0  0  0  0  0  0  0  0  0  # atno 11005 bound_to 11000
  145.1974  139.2269  143.5211 LP  0  0  0  0  0  0  0  0  0  0  0  0  # atno 17320 bound_to 7965
  146.3476  140.1784  142.8589 LP  0  0  0  0  0  0  0  0  0  0  0  0  # atno 17321 bound_to 7965
  139.7453  143.8861  152.3062 LP  0  0  0  0  0  0  0  0  0  0  0  0  # atno 17342 bound_to 10162
  139.8696  144.7075  150.9003 LP  0  0  0  0  0  0  0  0  0  0  0  0  # atno 17343 bound_to 10162
  156.8468  130.9445  151.3628 LP  0  0  0  0  0  0  0  0  0  0  0  0  # atno 17370 bound_to 10713
  157.6350  130.8760  149.9343 LP  0  0  0  0  0  0  0  0  0  0  0  0  # atno 17371 bound_to 10713
  140.3784  134.7545  157.4645 LP  0  0  0  0  0  0  0  0  0  0  0  0  # atno 17394 bound_to 11000
  140.0657  134.5933  155.8698 LP  0  0  0  0  0  0  0  0  0  0  0  0  # atno 17395 bound_to 11000

$$$$
