AV-unprocessed.smi:3032|AV-procd|sdf|11557|dock10
  -GOLD-   2272016523D 1   1.00000     0.00000
 Structure written by MMmdl.
 37 38  0  0  0  0  0  0  0  0  1 V2000
  151.1705  145.2012  159.7763 C   0  0  0  0  0  0  0  0  0  0  0  0
  151.7256  143.8185  160.1460 C   0  0  2  0  0  0  0  0  0  0  0  0
  152.2259  143.7826  161.6019 C   0  0  0  0  0  0  0  0  0  0  0  0
  152.7607  142.3931  161.9813 C   0  0  0  0  0  0  0  0  0  0  0  0
  153.8530  141.9142  161.0037 C   0  0  0  0  0  0  0  0  0  0  0  0
  153.4381  141.9992  159.5141 C   0  0  1  0  0  0  0  0  0  0  0  0
  152.4900  140.8724  159.0634 C   0  0  0  0  0  0  0  0  0  0  0  0
  151.3170  141.1018  158.7690 O   0  0  0  0  0  0  0  0  0  0  0  0
  153.0273  139.6444  159.0033 N   0  0  0  0  0  0  0  0  0  0  0  0
  152.3458  138.4464  158.5207 C   0  0  0  0  0  0  0  0  0  0  0  0
  152.9063  137.9261  157.1801 C   0  0  0  0  0  0  0  0  0  0  0  0
  152.0859  138.3086  155.9877 C   0  0  0  0  0  0  0  0  0  0  0  0
  151.7662  139.5767  155.7201 N   0  0  0  0  0  0  0  0  0  0  0  0
  151.0485  139.6244  154.5786 N   0  0  0  0  0  0  0  0  0  0  0  0
  150.9838  138.3389  154.2370 C   0  0  0  0  0  0  0  0  0  0  0  0
  151.6137  137.4638  155.0775 N   0  0  0  0  0  0  0  0  0  0  0  0
  152.8585  143.3946  159.1887 C   0  0  0  0  0  0  0  0  0  0  0  0
  152.0120  140.3989  156.2532 H   0  0  0  0  0  0  0  0  0  0  0  0
  151.9390  145.9710  159.8524 H   0  0  0  0  0  0  0  0  0  0  0  0
  150.3491  145.4834  160.4351 H   0  0  0  0  0  0  0  0  0  0  0  0
  150.7899  145.2108  158.7545 H   0  0  0  0  0  0  0  0  0  0  0  0
  150.9052  143.1061  160.0510 H   0  0  0  0  0  0  0  0  0  0  0  0
  153.0137  144.5245  161.7392 H   0  0  0  0  0  0  0  0  0  0  0  0
  151.4195  144.0598  162.2817 H   0  0  0  0  0  0  0  0  0  0  0  0
  153.1641  142.4199  162.9938 H   0  0  0  0  0  0  0  0  0  0  0  0
  151.9352  141.6826  162.0100 H   0  0  0  0  0  0  0  0  0  0  0  0
  154.7431  142.5272  161.1505 H   0  0  0  0  0  0  0  0  0  0  0  0
  154.1518  140.8959  161.2566 H   0  0  0  0  0  0  0  0  0  0  0  0
  154.3492  141.8770  158.9258 H   0  0  0  0  0  0  0  0  0  0  0  0
  153.9963  139.5394  159.2676 H   0  0  0  0  0  0  0  0  0  0  0  0
  152.4762  137.6785  159.2835 H   0  0  0  0  0  0  0  0  0  0  0  0
  151.2727  138.6256  158.4437 H   0  0  0  0  0  0  0  0  0  0  0  0
  153.9223  138.2959  157.0382 H   0  0  0  0  0  0  0  0  0  0  0  0
  152.9847  136.8387  157.2122 H   0  0  0  0  0  0  0  0  0  0  0  0
  150.4641  138.0179  153.3463 H   0  0  0  0  0  0  0  0  0  0  0  0
  152.5000  143.4199  158.1583 H   0  0  0  0  0  0  0  0  0  0  0  0
  153.6629  144.1297  159.2365 H   0  0  0  0  0  0  0  0  0  0  0  0
  1  2  1  0  0  0  0
  1 19  1  0  0  0  0
  1 20  1  0  0  0  0
  1 21  1  0  0  0  0
  2 17  1  0  0  0  0
  2  3  1  0  0  0  0
  2 22  1  0  0  0  0
  3  4  1  0  0  0  0
  3 23  1  0  0  0  0
  3 24  1  0  0  0  0
  4  5  1  0  0  0  0
  4 25  1  0  0  0  0
  4 26  1  0  0  0  0
  5  6  1  0  0  0  0
  5 27  1  0  0  0  0
  5 28  1  0  0  0  0
  6  7  1  0  0  0  0
  6 17  1  0  0  0  0
  6 29  1  0  0  0  0
  7  8  2  0  0  0  0
  7  9  1  0  0  0  0
  9 10  1  0  0  0  0
  9 30  1  0  0  0  0
 10 11  1  0  0  0  0
 10 31  1  0  0  0  0
 10 32  1  0  0  0  0
 11 33  1  0  0  0  0
 11 34  1  0  0  0  0
 11 12  1  0  0  0  0
 12 16  2  0  0  0  0
 12 13  1  0  0  0  0
 13 18  1  0  0  0  0
 13 14  1  0  0  0  0
 14 15  2  0  0  0  0
 15 16  1  0  0  0  0
 15 35  1  0  0  0  0
 17 36  1  0  0  0  0
 17 37  1  0  0  0  0
M  END
> <s_m_source_file>
AV-unprocessed.smi

> <i_m_source_file_index>
3032

> <i_lp_mmshare_version>
43012

> <i_f3d_flags>
0

> <s_epik_input>
W0NIM11bQ0BASF0xW0NIMl1bQ0gyXVtDSDJdW0NASF0oW0NIMl0xKUMoPU8pW05IXVtDSDJdW0NIMl1jMm5uW2NIXVtuSF0y

> <s_epik_cmdline>
J2VwaWtfcHl0aG9uJywgJy1waCcsICc3LjAnLCAnLXRuJywgJzgnLCAnLW1hJywgJzIwMCcsICctbWV0YWxfYmluZGluZycsICctaW1hZScsICc8aW5maWxlLm1hZT4nLCAnLW9tYWUnLCAnPG91dGZpbGUubWFlPic=

> <r_lp_tautomer_probability>
0.948284

> <r_epik_Ionization_Penalty>
0.000474052

> <r_epik_Ionization_Penalty_Charging>
0

> <r_epik_Ionization_Penalty_Neutral>
0.000474052

> <r_epik_State_Penalty>
0.271807

> <r_epik_Charging_Adjusted_Penalty>
0.271807

> <i_epik_Tot_Q>
0

> <i_epik_Tot_abs_Q>
0

> <r_epik_Metal_State_Penalty>
0.397201

> <b_epik_Metal_Only>
0

> <s_lp_Force_Field>
OPLS_2005

> <r_lp_Energy>
8.45965

> <b_lp_Chiralities_Consistent>
1

> <s_lp_Variant>
AV-unprocessed.smi:3032-1

> <Gold.Version>
5.8.1

> <Gold.Id.Protein>
6NUR|6NUR_protein|mol2

> <Gold.PLP.Fitness>
47.2060

> <Gold.PLP.PLP>
-39.1094

> <Gold.PLP.part.hbond>
-2.0000

> <Gold.PLP.part.metal>
0.0000

> <Gold.PLP.part.buried>
-6.5171

> <Gold.PLP.part.nonpolar>
-31.2702

> <Gold.PLP.part.repulsive>
0.4280

> <Gold.PLP.ligand.clash>
0.0000

> <Gold.PLP.ligand.torsion>
0.6275

> <Gold.PLP.Chemscore.Hbond>
1.9920

> <Gold.PLP.Chemscore.CHOScore>
1.1093

> <Gold.PLP.Chemscore.Metal>
0.0000

> <Gold.Chemscore.Hbonds>
donor molecule, donor type, donor heavy atom, donor atom, acceptor molecule, acceptor atom, score
      P1  H  7989  7998       L1    14  1.00
      P1  H 10752 10764       L1    16  0.24
      L1  C    15    35       P1  7948  0.44
      L1  C    15    35       P1  7949  0.13

> <Gold.PLP.Chemscore.Internal.Correction>
0.0476

> <Gold.Rescore>
     Score         DG    S(hbond)    S(metal)    S(lipo)     H(rot)  DE(clash)    DE(int)     intcor
     15.77     -16.13       1.83        0.00      88.09       2.25       0.00       0.36       ----

> <Gold.Chemscore.Fitness>
15.7657

> <Gold.Chemscore.DG>
-16.1289

> <Gold.Chemscore.ZeroCoef>
-5.4800

> <Gold.Chemscore.Hbond>
1.8270

> <Gold.Chemscore.Metal>
0.0000

> <Gold.Chemscore.Lipo>
88.0938

> <Gold.Chemscore.Internal_Hbond>
0.0000

> <Gold.Chemscore.DEClash>
0.0029

> <Gold.Chemscore.DEInternal>
0.3602

> <Gold.Chemscore.Rot>
2.2501

> <Gold.Chemscore.Internal.Correction>
   9.000000E+99

> <Gold.Chemscore.Hbonds>
donor molecule, donor type, donor heavy atom, donor atom, acceptor molecule, acceptor atom, score
      P1  H  7989  7998       L1    14  0.81
      P1  H 10752 10764       L1    16  0.22

> <Gold.Chemscore.Hbond.Weighted>
-6.1022

> <Gold.Chemscore.Metal.Weighted>
-0.0000

> <Gold.Chemscore.Lipo.Weighted>
-10.3070

> <Gold.Chemscore.Internal_Hbond.Weighted>
0.0000

> <Gold.Chemscore.DEClash.Weighted>
0.0029

> <Gold.Chemscore.DEInternal.Weighted>
0.3602

> <Gold.Chemscore.Rot.Weighted>
5.7603

> <Gold.Chemscore.Internal.Correction.Weighted>
   9.000000E+99

> <Gold.Protein.RotatedTorsions>
[ 6907 6896 6895 6894 ] final   -5.36 input  -60.11 | X-H torsion
[ 7974 7965 7964 7962 ] final   87.29 input  175.53 | X-H torsion
[ 8008 7997 7996 7995 ] final -146.02 input   59.86 | X-H torsion
[ 10167 10162 10161 10158 ] final  -67.98 input  -65.29 | X-H torsion
[ 10718 10713 10712 10709 ] final   18.68 input   66.30 | X-H torsion
[ 10763 10752 10751 10750 ] final  -58.66 input  -60.55 | X-H torsion
[ 11005 11000 10999 10996 ] final  -82.45 input  -57.11 | X-H torsion

> <Gold.Protein.ActiveResidues>
 VAL166  LYS551  ARG553  GLY616  TRP617  ASP618  TYR619  PRO620  LYS621  CYS622 
 ASP623  PHE694  ASN695  SER759  ASP760  ASP761  ALA762  ILE779  LEU786  VAL792 
 PHE793  MET794  SER795  GLU796  ALA797  LYS798  CYS799  TRP800  GLU811  SER814 

> <Gold.Protein.RotatedAtoms>
  151.4828  135.1053  159.9782 H   0  0  0  0  0  0  0  0  0  0  0  0  # atno 6907 bound_to 6896
  152.4772  133.8163  159.7040 H   0  0  0  0  0  0  0  0  0  0  0  0  # atno 6908 bound_to 6896
  150.8818  133.7299  159.2956 H   0  0  0  0  0  0  0  0  0  0  0  0  # atno 6909 bound_to 6896
  145.5610  139.2304  143.2459 H   0  0  0  0  0  0  0  0  0  0  0  0  # atno 7974 bound_to 7965
  155.5526  140.0618  157.2846 H   0  0  0  0  0  0  0  0  0  0  0  0  # atno 8008 bound_to 7997
  154.4416  140.1900  156.0747 H   0  0  0  0  0  0  0  0  0  0  0  0  # atno 8009 bound_to 7997
  156.0505  140.3285  155.7349 H   0  0  0  0  0  0  0  0  0  0  0  0  # atno 8010 bound_to 7997
  140.5542  143.2312  151.6853 H   0  0  0  0  0  0  0  0  0  0  0  0  # atno 10167 bound_to 10162
  157.0998  130.6463  149.5869 H   0  0  0  0  0  0  0  0  0  0  0  0  # atno 10718 bound_to 10713
  154.2416  135.6342  153.5209 H   0  0  0  0  0  0  0  0  0  0  0  0  # atno 10763 bound_to 10752
  152.9929  135.5543  154.5904 H   0  0  0  0  0  0  0  0  0  0  0  0  # atno 10764 bound_to 10752
  154.5411  135.2895  155.1069 H   0  0  0  0  0  0  0  0  0  0  0  0  # atno 10765 bound_to 10752
  141.1663  133.7245  156.8573 H   0  0  0  0  0  0  0  0  0  0  0  0  # atno 11005 bound_to 11000
  146.1851  140.6435  142.9171 LP  0  0  0  0  0  0  0  0  0  0  0  0  # atno 17320 bound_to 7965
  144.7483  140.5125  143.6820 LP  0  0  0  0  0  0  0  0  0  0  0  0  # atno 17321 bound_to 7965
  139.5040  144.3768  152.0415 LP  0  0  0  0  0  0  0  0  0  0  0  0  # atno 17342 bound_to 10162
  140.2888  144.3777  150.6095 LP  0  0  0  0  0  0  0  0  0  0  0  0  # atno 17343 bound_to 10162
  155.9876  130.4917  150.7135 LP  0  0  0  0  0  0  0  0  0  0  0  0  # atno 17370 bound_to 10713
  157.4651  131.0887  151.0704 LP  0  0  0  0  0  0  0  0  0  0  0  0  # atno 17371 bound_to 10713
  140.1873  134.8990  157.3020 LP  0  0  0  0  0  0  0  0  0  0  0  0  # atno 17394 bound_to 11000
  140.2328  134.3888  155.7514 LP  0  0  0  0  0  0  0  0  0  0  0  0  # atno 17395 bound_to 11000

$$$$
