AV-unprocessed.smi:2455|AV-procd|sdf|9699|dock3
  -GOLD-   2272013333D 1   1.00000     0.00000
 Structure written by MMmdl.
 36 36  0  0  0  0  0  0  0  0  2 V2000
  150.0276  137.0155  158.5038 C   0  0  0  0  0  0  0  0  0  0  0  0
  151.1808  137.7069  159.2557 C   0  0  0  0  0  0  0  0  0  0  0  0
  152.4642  138.0173  158.4219 C   0  0  0  0  0  0  0  0  0  0  0  0
  152.0028  138.5512  157.0305 C   0  0  0  0  0  0  0  0  0  0  0  0
  151.2113  139.8737  157.0224 C   0  0  0  0  0  0  0  0  0  0  0  0
  153.3639  139.0645  159.1549 C   0  0  0  0  0  0  0  0  0  0  0  0
  152.6006  140.1370  159.7911 N   0  0  0  0  0  0  0  0  0  0  0  0
  153.1068  141.2592  160.3246 C   0  0  0  0  0  0  0  0  0  0  0  0
  154.3081  141.5245  160.3486 O   0  0  0  0  0  0  0  0  0  0  0  0
  152.0978  142.2358  160.9297 C   0  0  0  0  0  0  0  0  0  0  0  0
  151.9622  143.4250  160.1068 N   0  0  0  0  0  0  0  0  0  0  0  0
  151.2668  144.5849  160.3817 C   0  0  0  0  0  0  0  0  0  0  0  0
  151.4260  145.4186  159.3120 C   0  0  0  0  0  0  0  0  0  0  0  0
  152.2413  144.6692  158.4185 C   0  0  0  0  0  0  0  0  0  0  0  0
  152.5579  143.4762  158.8953 N   0  0  0  0  0  0  0  0  0  0  0  0
  153.2445  136.6903  158.2092 C   0  0  0  0  0  0  0  0  0  0  0  0
  153.5737  136.0178  159.2123 O   0  0  0  0  0  0  0  0  0  0  0  0
  153.5099  136.3659  157.0298 O   0  5  0  0  0  0  0  0  0  0  0  0
  149.1750  136.8704  159.1673 H   0  0  0  0  0  0  0  0  0  0  0  0
  150.3188  136.0327  158.1345 H   0  0  0  0  0  0  0  0  0  0  0  0
  149.6807  137.6057  157.6557 H   0  0  0  0  0  0  0  0  0  0  0  0
  150.7924  138.6306  159.6874 H   0  0  0  0  0  0  0  0  0  0  0  0
  151.4434  137.0927  160.1176 H   0  0  0  0  0  0  0  0  0  0  0  0
  152.8730  138.6826  156.3854 H   0  0  0  0  0  0  0  0  0  0  0  0
  151.4009  137.7911  156.5323 H   0  0  0  0  0  0  0  0  0  0  0  0
  150.9332  140.1420  156.0033 H   0  0  0  0  0  0  0  0  0  0  0  0
  151.7949  140.7018  157.4241 H   0  0  0  0  0  0  0  0  0  0  0  0
  150.2899  139.8028  157.5981 H   0  0  0  0  0  0  0  0  0  0  0  0
  153.9322  138.5834  159.9517 H   0  0  0  0  0  0  0  0  0  0  0  0
  154.1185  139.4751  158.4828 H   0  0  0  0  0  0  0  0  0  0  0  0
  151.5991  140.0145  159.8205 H   0  0  0  0  0  0  0  0  0  0  0  0
  151.1288  141.7436  161.0282 H   0  0  0  0  0  0  0  0  0  0  0  0
  152.4062  142.5377  161.9318 H   0  0  0  0  0  0  0  0  0  0  0  0
  150.7262  144.7198  161.3069 H   0  0  0  0  0  0  0  0  0  0  0  0
  151.0217  146.4120  159.1865 H   0  0  0  0  0  0  0  0  0  0  0  0
  152.6089  144.9544  157.4437 H   0  0  0  0  0  0  0  0  0  0  0  0
  1  2  1  0  0  0  0
  1 19  1  0  0  0  0
  1 20  1  0  0  0  0
  1 21  1  0  0  0  0
  2  3  1  0  0  0  0
  2 22  1  0  0  0  0
  2 23  1  0  0  0  0
  3  4  1  0  0  0  0
  3  6  1  0  0  0  0
  3 16  1  0  0  0  0
  4  5  1  0  0  0  0
  4 24  1  0  0  0  0
  4 25  1  0  0  0  0
  5 26  1  0  0  0  0
  5 27  1  0  0  0  0
  5 28  1  0  0  0  0
  6  7  1  0  0  0  0
  6 29  1  0  0  0  0
  6 30  1  0  0  0  0
  7  8  1  0  0  0  0
  7 31  1  0  0  0  0
  8  9  2  0  0  0  0
  8 10  1  0  0  0  0
 10 11  1  0  0  0  0
 10 32  1  0  0  0  0
 10 33  1  0  0  0  0
 11 15  1  0  0  0  0
 11 12  1  0  0  0  0
 12 13  2  0  0  0  0
 12 34  1  0  0  0  0
 13 14  1  0  0  0  0
 13 35  1  0  0  0  0
 14 15  2  0  0  0  0
 14 36  1  0  0  0  0
 16 17  2  0  0  0  0
 16 18  1  0  0  0  0
M  CHG  1  18  -1
M  END
> <s_m_source_file>
AV-unprocessed.smi

> <i_m_source_file_index>
2455

> <i_lp_mmshare_version>
43012

> <i_f3d_flags>
0

> <s_epik_input>
W0NIM11bQ0gyXUMoW0NIMl1bQ0gzXSkoQyg9TylbT0hdKVtDSDJdW05IXUMoPU8pW0NIMl1uMVtjSF1bY0hdW2NIXW4x

> <s_epik_cmdline>
J2VwaWtfcHl0aG9uJywgJy1waCcsICc3LjAnLCAnLXRuJywgJzgnLCAnLW1hJywgJzIwMCcsICctbWV0YWxfYmluZGluZycsICctaW1hZScsICc8aW5maWxlLm1hZT4nLCAnLW9tYWUnLCAnPG91dGZpbGUubWFlPic=

> <r_lp_tautomer_probability>
1

> <r_epik_Ionization_Penalty>
0.00236672

> <r_epik_Ionization_Penalty_Charging>
0.00235221

> <r_epik_Ionization_Penalty_Neutral>
1.45156e-05

> <r_epik_State_Penalty>
0.00162453

> <r_epik_Charging_Adjusted_Penalty>
0.00397673

> <i_epik_Tot_Q>
-1

> <i_epik_Tot_abs_Q>
1

> <r_epik_Metal_State_Penalty>
-0

> <b_epik_Metal_Only>
0

> <s_lp_Force_Field>
OPLS_2005

> <r_lp_Energy>
9.36787

> <b_lp_Chiralities_Consistent>
1

> <s_lp_Variant>
AV-unprocessed.smi:2455-1

> <Gold.Version>
5.8.1

> <Gold.Id.Protein>
6NUR|6NUR_protein|mol2

> <Gold.PLP.Fitness>
47.8969

> <Gold.PLP.PLP>
-37.3784

> <Gold.PLP.part.hbond>
-2.2179

> <Gold.PLP.part.metal>
0.0000

> <Gold.PLP.part.buried>
-5.0005

> <Gold.PLP.part.nonpolar>
-30.9225

> <Gold.PLP.part.repulsive>
0.1159

> <Gold.PLP.ligand.clash>
0.0000

> <Gold.PLP.ligand.torsion>
0.8190

> <Gold.PLP.Chemscore.Hbond>
4.0000

> <Gold.PLP.Chemscore.CHOScore>
0.0000

> <Gold.PLP.Chemscore.Metal>
0.0000

> <Gold.Chemscore.Hbonds>
donor molecule, donor type, donor heavy atom, donor atom, acceptor molecule, acceptor atom, score
      P1  H  6896  6909       L1    17  2.00
      P1  H 10752 10764       L1    18  2.00

> <Gold.PLP.Chemscore.Internal.Correction>
0.1564

> <Gold.Rescore>
     Score         DG    S(hbond)    S(metal)    S(lipo)     H(rot)  DE(clash)    DE(int)     intcor
     12.72     -14.42       1.93        0.00      78.96       2.63       0.00       1.70       ----

> <Gold.Chemscore.Fitness>
12.7198

> <Gold.Chemscore.DG>
-14.4231

> <Gold.Chemscore.ZeroCoef>
-5.4800

> <Gold.Chemscore.Hbond>
1.9288

> <Gold.Chemscore.Metal>
0.0000

> <Gold.Chemscore.Lipo>
78.9553

> <Gold.Chemscore.Internal_Hbond>
0.0000

> <Gold.Chemscore.DEClash>
0.0000

> <Gold.Chemscore.DEInternal>
1.7033

> <Gold.Chemscore.Rot>
2.6316

> <Gold.Chemscore.Internal.Correction>
   9.000000E+99

> <Gold.Chemscore.Hbonds>
donor molecule, donor type, donor heavy atom, donor atom, acceptor molecule, acceptor atom, score
      P1  H  6896  6909       L1    17  0.94
      P1  H 10752 10764       L1    18  0.99

> <Gold.Chemscore.Hbond.Weighted>
-6.4423

> <Gold.Chemscore.Metal.Weighted>
-0.0000

> <Gold.Chemscore.Lipo.Weighted>
-9.2378

> <Gold.Chemscore.Internal_Hbond.Weighted>
0.0000

> <Gold.Chemscore.DEClash.Weighted>
0.0000

> <Gold.Chemscore.DEInternal.Weighted>
1.7033

> <Gold.Chemscore.Rot.Weighted>
6.7370

> <Gold.Chemscore.Internal.Correction.Weighted>
   9.000000E+99

> <Gold.Protein.RotatedTorsions>
[ 6907 6896 6895 6894 ] final  173.15 input  -60.11 | X-H torsion
[ 7974 7965 7964 7962 ] final  -71.04 input  175.53 | X-H torsion
[ 8008 7997 7996 7995 ] final  173.70 input   59.86 | X-H torsion
[ 10167 10162 10161 10158 ] final  131.80 input  -65.29 | X-H torsion
[ 10718 10713 10712 10709 ] final   64.12 input   66.30 | X-H torsion
[ 10763 10752 10751 10750 ] final    6.24 input  -60.55 | X-H torsion
[ 11005 11000 10999 10996 ] final -116.99 input  -57.11 | X-H torsion

> <Gold.Protein.ActiveResidues>
 VAL166  LYS551  ARG553  GLY616  TRP617  ASP618  TYR619  PRO620  LYS621  CYS622 
 ASP623  PHE694  ASN695  SER759  ASP760  ASP761  ALA762  ILE779  LEU786  VAL792 
 PHE793  MET794  SER795  GLU796  ALA797  LYS798  CYS799  TRP800  GLU811  SER814 

> <Gold.Protein.RotatedAtoms>
  151.7729  133.3343  159.3449 H   0  0  0  0  0  0  0  0  0  0  0  0  # atno 6907 bound_to 6896
  150.7455  134.6002  159.6042 H   0  0  0  0  0  0  0  0  0  0  0  0  # atno 6908 bound_to 6896
  152.3329  134.7238  160.0336 H   0  0  0  0  0  0  0  0  0  0  0  0  # atno 6909 bound_to 6896
  145.6832  140.9180  143.0821 H   0  0  0  0  0  0  0  0  0  0  0  0  # atno 7974 bound_to 7965
  156.1048  140.1453  156.9418 H   0  0  0  0  0  0  0  0  0  0  0  0  # atno 8008 bound_to 7997
  154.4727  140.0904  156.7229 H   0  0  0  0  0  0  0  0  0  0  0  0  # atno 8009 bound_to 7997
  155.4697  140.3441  155.4326 H   0  0  0  0  0  0  0  0  0  0  0  0  # atno 8010 bound_to 7997
  139.5368  144.6690  151.4760 H   0  0  0  0  0  0  0  0  0  0  0  0  # atno 10167 bound_to 10162
  157.6018  130.9142  149.9804 H   0  0  0  0  0  0  0  0  0  0  0  0  # atno 10718 bound_to 10713
  153.2500  135.6912  153.7689 H   0  0  0  0  0  0  0  0  0  0  0  0  # atno 10763 bound_to 10752
  153.6787  135.3332  155.3173 H   0  0  0  0  0  0  0  0  0  0  0  0  # atno 10764 bound_to 10752
  154.8390  135.4517  154.1453 H   0  0  0  0  0  0  0  0  0  0  0  0  # atno 10765 bound_to 10752
  141.0385  133.9872  157.3032 H   0  0  0  0  0  0  0  0  0  0  0  0  # atno 11005 bound_to 11000
  144.7019  139.8724  143.7441 LP  0  0  0  0  0  0  0  0  0  0  0  0  # atno 17320 bound_to 7965
  146.0946  139.3937  143.0384 LP  0  0  0  0  0  0  0  0  0  0  0  0  # atno 17321 bound_to 7965
  140.6578  143.8563  150.6854 LP  0  0  0  0  0  0  0  0  0  0  0  0  # atno 17342 bound_to 10162
  140.1947  143.4007  152.1836 LP  0  0  0  0  0  0  0  0  0  0  0  0  # atno 17343 bound_to 10162
  156.1093  130.3651  150.0078 LP  0  0  0  0  0  0  0  0  0  0  0  0  # atno 17370 bound_to 10713
  156.8179  130.9348  151.3642 LP  0  0  0  0  0  0  0  0  0  0  0  0  # atno 17371 bound_to 10713
  139.9258  135.0201  156.8229 LP  0  0  0  0  0  0  0  0  0  0  0  0  # atno 17394 bound_to 11000
  140.6278  133.9934  155.7647 LP  0  0  0  0  0  0  0  0  0  0  0  0  # atno 17395 bound_to 11000

$$$$
