AV-unprocessed.smi:35|AV-procd|sdf|272|dock1
  -GOLD-   2262016 43D 1   1.00000     0.00000
 Structure written by MMmdl.
 28 29  0  0  0  0  0  0  0  0  2 V2000
  151.8840  135.3407  157.2422 O   0  0  0  0  0  0  0  0  0  0  0  0
  151.6904  136.4712  156.7991 C   0  0  0  0  0  0  0  0  0  0  0  0
  152.3104  136.9456  155.6807 N   0  5  0  0  0  0  0  0  0  0  0  0
  152.1079  138.2092  155.2044 C   0  0  0  0  0  0  0  0  0  0  0  0
  152.6229  138.6196  154.1646 O   0  0  0  0  0  0  0  0  0  0  0  0
  151.2580  139.0946  155.9276 N   0  0  0  0  0  0  0  0  0  0  0  0
  151.0131  140.4977  155.3918 C   0  0  1  0  0  0  0  0  0  0  0  0
  150.4595  140.4157  154.1061 O   0  0  0  0  0  0  0  0  0  0  0  0
  149.0673  140.7314  154.1080 C   0  0  1  0  0  0  0  0  0  0  0  0
  148.2115  139.4677  154.3590 C   0  0  0  0  0  0  0  0  0  0  0  0
  148.1680  138.6736  153.1927 O   0  0  0  0  0  0  0  0  0  0  0  0
  149.0007  141.7902  155.2139 C   0  0  1  0  0  0  0  0  0  0  0  0
  147.7072  141.9443  155.7648 O   0  0  0  0  0  0  0  0  0  0  0  0
  149.9997  141.2918  156.2494 C   0  0  2  0  0  0  0  0  0  0  0  0
  150.6026  142.3997  156.8872 O   0  0  0  0  0  0  0  0  0  0  0  0
  150.5620  138.6118  157.0262 C   0  0  0  0  0  0  0  0  0  0  0  0
  150.7531  137.3575  157.4812 C   0  0  0  0  0  0  0  0  0  0  0  0
  149.7046  136.8204  159.0744 Br  0  0  0  0  0  0  0  0  0  0  0  0
  152.0061  140.9474  155.3369 H   0  0  0  0  0  0  0  0  0  0  0  0
  148.7842  141.1745  153.1523 H   0  0  0  0  0  0  0  0  0  0  0  0
  148.5629  138.8848  155.2088 H   0  0  0  0  0  0  0  0  0  0  0  0
  147.1799  139.7424  154.5777 H   0  0  0  0  0  0  0  0  0  0  0  0
  148.7412  139.0582  152.5474 H   0  0  0  0  0  0  0  0  0  0  0  0
  149.3300  142.7452  154.8000 H   0  0  0  0  0  0  0  0  0  0  0  0
  147.5793  142.8588  155.9666 H   0  0  0  0  0  0  0  0  0  0  0  0
  149.5165  140.6321  156.9725 H   0  0  0  0  0  0  0  0  0  0  0  0
  150.0904  143.1682  156.6815 H   0  0  0  0  0  0  0  0  0  0  0  0
  149.8493  139.2356  157.5430 H   0  0  0  0  0  0  0  0  0  0  0  0
  1  2  2  0  0  0  0
  2 17  1  0  0  0  0
  2  3  1  0  0  0  0
  3  4  1  0  0  0  0
  4  5  2  0  0  0  0
  4  6  1  0  0  0  0
  6  7  1  0  0  0  0
  6 16  1  0  0  0  0
  7 14  1  0  0  0  0
  7  8  1  0  0  0  0
  7 19  1  0  0  0  0
  8  9  1  0  0  0  0
  9 10  1  0  0  0  0
  9 12  1  0  0  0  0
  9 20  1  0  0  0  0
 10 11  1  0  0  0  0
 10 21  1  0  0  0  0
 10 22  1  0  0  0  0
 11 23  1  0  0  0  0
 12 13  1  0  0  0  0
 12 14  1  0  0  0  0
 12 24  1  0  0  0  0
 13 25  1  0  0  0  0
 14 15  1  0  0  0  0
 14 26  1  0  0  0  0
 15 27  1  0  0  0  0
 16 17  2  0  0  0  0
 16 28  1  0  0  0  0
 17 18  1  0  0  0  0
M  CHG  1   3  -1
M  END
> <s_m_source_file>
AV-unprocessed.smi

> <i_m_source_file_index>
35

> <i_lp_mmshare_version>
43012

> <i_f3d_flags>
0

> <s_epik_input>
Tz1jMVtuSF1jKD1PKW4oW2NIXWMxQnIpW0NAQEhdMk9bQ0BASF0oW0NIMl1bT0hdKVtDQEBIXShbT0hdKVtDQEhdMltPSF0=

> <s_epik_cmdline>
J2VwaWtfcHl0aG9uJywgJy1waCcsICc3LjAnLCAnLXRuJywgJzgnLCAnLW1hJywgJzIwMCcsICctbWV0YWxfYmluZGluZycsICctaW1hZScsICc8aW5maWxlLm1hZT4nLCAnLW9tYWUnLCAnPG91dGZpbGUubWFlPic=

> <r_epik_Ionization_Penalty>
1.06112

> <r_epik_Ionization_Penalty_Charging>
2.1796e-09

> <r_epik_Ionization_Penalty_Neutral>
1.06112

> <r_epik_State_Penalty>
1.11484

> <r_epik_Charging_Adjusted_Penalty>
1.11484

> <i_epik_Tot_Q>
-1

> <i_epik_Tot_abs_Q>
1

> <r_epik_Metal_State_Penalty>
0.0032876

> <b_epik_Metal_Only>
0

> <s_epik_Chemistry_Notes>
This compound contains an acetal/aminal-like group ( X-CH(R)-Y where X, Y are N, S, or O) that may be acid/base labile, releasing an aldehyde.

> <s_lp_Force_Field>
OPLS_2005

> <r_lp_Energy>
39.1744

> <b_lp_Chiralities_Consistent>
1

> <s_lp_Variant>
AV-unprocessed.smi:35-26

> <Gold.Version>
5.8.1

> <Gold.Id.Protein>
6NUR|6NUR_protein|mol2

> <Gold.PLP.Fitness>
39.2663

> <Gold.PLP.PLP>
-23.4216

> <Gold.PLP.part.hbond>
-6.1969

> <Gold.PLP.part.metal>
0.0000

> <Gold.PLP.part.buried>
0.2093

> <Gold.PLP.part.nonpolar>
-17.4482

> <Gold.PLP.part.repulsive>
0.2077

> <Gold.PLP.ligand.clash>
0.0000

> <Gold.PLP.ligand.torsion>
0.1128

> <Gold.PLP.Chemscore.Hbond>
5.3362

> <Gold.PLP.Chemscore.CHOScore>
0.0000

> <Gold.PLP.Chemscore.Metal>
0.0000

> <Gold.Chemscore.Hbonds>
donor molecule, donor type, donor heavy atom, donor atom, acceptor molecule, acceptor atom, score
      L1  H    11    23       P1  7957  1.00
      L1  H    13    25       P1  8028  0.27
      L1  H    15    27       P1  8028  0.55
      P1  H  7989  7998       L1     8  0.43
      P1  H 10752 10763       L1     3  1.76

> <Gold.PLP.Chemscore.Internal.Correction>
0.0617

> <Gold.Rescore>
     Score         DG    S(hbond)    S(metal)    S(lipo)     H(rot)  DE(clash)    DE(int)     intcor
      7.89     -10.38       2.97        0.00      36.59       3.63       0.99       1.51       ----

> <Gold.Chemscore.Fitness>
7.8858

> <Gold.Chemscore.DG>
-10.3837

> <Gold.Chemscore.ZeroCoef>
-5.4800

> <Gold.Chemscore.Hbond>
2.9656

> <Gold.Chemscore.Metal>
0.0000

> <Gold.Chemscore.Lipo>
36.5935

> <Gold.Chemscore.Internal_Hbond>
0.0000

> <Gold.Chemscore.DEClash>
0.9881

> <Gold.Chemscore.DEInternal>
1.5098

> <Gold.Chemscore.Rot>
3.6261

> <Gold.Chemscore.Internal.Correction>
   9.000000E+99

> <Gold.Chemscore.Hbonds>
donor molecule, donor type, donor heavy atom, donor atom, acceptor molecule, acceptor atom, score
      L1  H    11    23       P1  7957  1.00
      L1  H    13    25       P1  8028  0.07
      L1  H    15    27       P1  8028  0.54
      P1  H  7989  7998       L1     8  0.04
      P1  H 10752 10763       L1     3  0.39

> <Gold.Chemscore.Hbond.Weighted>
-9.9050

> <Gold.Chemscore.Metal.Weighted>
-0.0000

> <Gold.Chemscore.Lipo.Weighted>
-4.2814

> <Gold.Chemscore.Internal_Hbond.Weighted>
0.0000

> <Gold.Chemscore.DEClash.Weighted>
0.9881

> <Gold.Chemscore.DEInternal.Weighted>
1.5098

> <Gold.Chemscore.Rot.Weighted>
9.2828

> <Gold.Chemscore.Internal.Correction.Weighted>
   9.000000E+99

> <Gold.Protein.RotatedTorsions>
[ 6907 6896 6895 6894 ] final  -69.66 input  -60.11 | X-H torsion
[ 7974 7965 7964 7962 ] final   90.88 input  175.53 | X-H torsion
[ 8008 7997 7996 7995 ] final  -54.65 input   59.86 | X-H torsion
[ 10167 10162 10161 10158 ] final -116.10 input  -65.29 | X-H torsion
[ 10718 10713 10712 10709 ] final  136.93 input   66.30 | X-H torsion
[ 10763 10752 10751 10750 ] final   84.87 input  -60.55 | X-H torsion
[ 11005 11000 10999 10996 ] final    6.75 input  -57.11 | X-H torsion

> <Gold.Protein.ActiveResidues>
 VAL166  LYS551  ARG553  GLY616  TRP617  ASP618  TYR619  PRO620  LYS621  CYS622 
 ASP623  PHE694  ASN695  SER759  ASP760  ASP761  ALA762  ILE779  LEU786  VAL792 
 PHE793  MET794  SER795  GLU796  ALA797  LYS798  CYS799  TRP800  GLU811  SER814 

> <Gold.Protein.RotatedAtoms>
  150.7295  134.5565  159.5820 H   0  0  0  0  0  0  0  0  0  0  0  0  # atno 6907 bound_to 6896
  152.3039  134.7575  160.0361 H   0  0  0  0  0  0  0  0  0  0  0  0  # atno 6908 bound_to 6896
  151.8146  133.3351  159.3602 H   0  0  0  0  0  0  0  0  0  0  0  0  # atno 6909 bound_to 6896
  145.5131  139.2277  143.2713 H   0  0  0  0  0  0  0  0  0  0  0  0  # atno 7974 bound_to 7965
  154.4169  140.1171  156.5350 H   0  0  0  0  0  0  0  0  0  0  0  0  # atno 8008 bound_to 7997
  155.6566  140.3496  155.4748 H   0  0  0  0  0  0  0  0  0  0  0  0  # atno 8009 bound_to 7997
  155.9748  140.1148  157.0770 H   0  0  0  0  0  0  0  0  0  0  0  0  # atno 8010 bound_to 7997
  140.0829  143.4771  152.1915 H   0  0  0  0  0  0  0  0  0  0  0  0  # atno 10167 bound_to 10162
  157.4415  131.1058  151.0138 H   0  0  0  0  0  0  0  0  0  0  0  0  # atno 10718 bound_to 10713
  153.1422  135.4638  154.9513 H   0  0  0  0  0  0  0  0  0  0  0  0  # atno 10763 bound_to 10752
  154.7756  135.3172  154.8100 H   0  0  0  0  0  0  0  0  0  0  0  0  # atno 10764 bound_to 10752
  153.8621  135.6911  153.4836 H   0  0  0  0  0  0  0  0  0  0  0  0  # atno 10765 bound_to 10752
  140.5559  134.0238  155.7954 H   0  0  0  0  0  0  0  0  0  0  0  0  # atno 11005 bound_to 11000
  146.2154  140.5939  142.9041 LP  0  0  0  0  0  0  0  0  0  0  0  0  # atno 17320 bound_to 7965
  144.7716  140.5651  143.6666 LP  0  0  0  0  0  0  0  0  0  0  0  0  # atno 17321 bound_to 7965
  139.5769  144.7492  151.3742 LP  0  0  0  0  0  0  0  0  0  0  0  0  # atno 17342 bound_to 10162
  140.7068  143.7492  150.7496 LP  0  0  0  0  0  0  0  0  0  0  0  0  # atno 17343 bound_to 10162
  157.0999  130.5977  149.5458 LP  0  0  0  0  0  0  0  0  0  0  0  0  # atno 17370 bound_to 10713
  155.9950  130.5016  150.7444 LP  0  0  0  0  0  0  0  0  0  0  0  0  # atno 17371 bound_to 10713
  141.1144  133.9565  157.2851 LP  0  0  0  0  0  0  0  0  0  0  0  0  # atno 17394 bound_to 11000
  139.9432  135.0188  156.8771 LP  0  0  0  0  0  0  0  0  0  0  0  0  # atno 17395 bound_to 11000

$$$$
