AV-unprocessed.smi:1056|AV-procd|sdf|4631|dock2
  -GOLD-   22720 3133D 1   1.00000     0.00000
 Structure written by MMmdl.
 45 47  0  0  0  0  0  0  0  0  2 V2000
  153.1716  142.4572  161.1314 C   0  0  0  0  0  0  0  0  0  0  0  0
  152.6480  141.7463  159.8958 C   0  0  0  0  0  0  0  0  0  0  0  0
  151.8002  142.4463  159.0080 C   0  0  0  0  0  0  0  0  0  0  0  0
  151.2952  141.8231  157.8460 C   0  0  0  0  0  0  0  0  0  0  0  0
  150.4647  142.3113  156.8519 N   0  0  0  0  0  0  0  0  0  0  0  0
  150.3592  141.2571  156.0483 C   0  0  0  0  0  0  0  0  0  0  0  0
  151.0218  140.1401  156.4069 N   0  0  0  0  0  0  0  0  0  0  0  0
  151.0561  138.8723  155.7004 C   0  0  0  0  0  0  0  0  0  0  0  0
  150.0226  138.8099  154.5596 C   0  0  1  0  0  0  0  0  0  0  0  0
  150.5378  138.0201  153.5042 O   0  0  0  0  0  0  0  0  0  0  0  0
  148.6849  138.2040  155.0269 C   0  0  0  0  0  0  0  0  0  0  0  0
  147.7269  138.0169  153.9079 N   0  3  2  0  0  0  0  0  0  0  0  0
  147.3970  139.2698  153.1875 C   0  0  0  0  0  0  0  0  0  0  0  0
  146.5840  138.9526  151.9202 C   0  0  0  0  0  0  0  0  0  0  0  0
  145.5378  137.9582  152.1475 N   0  0  0  0  0  0  0  0  0  0  0  0
  145.4459  137.1563  153.2209 C   0  0  0  0  0  0  0  0  0  0  0  0
  144.5403  136.3352  153.3391 O   0  0  0  0  0  0  0  0  0  0  0  0
  146.5057  137.2823  154.3264 C   0  0  0  0  0  0  0  0  0  0  0  0
  151.6627  140.4686  157.5961 C   0  0  0  0  0  0  0  0  0  0  0  0
  152.5045  139.7609  158.4719 C   0  0  0  0  0  0  0  0  0  0  0  0
  153.0025  140.3997  159.6269 C   0  0  0  0  0  0  0  0  0  0  0  0
  153.9151  139.6294  160.5648 C   0  0  0  0  0  0  0  0  0  0  0  0
  152.7586  143.4627  161.2169 H   0  0  0  0  0  0  0  0  0  0  0  0
  154.2576  142.5426  161.0894 H   0  0  0  0  0  0  0  0  0  0  0  0
  152.9013  141.9091  162.0341 H   0  0  0  0  0  0  0  0  0  0  0  0
  151.5309  143.4723  159.2120 H   0  0  0  0  0  0  0  0  0  0  0  0
  149.7620  141.2976  155.1491 H   0  0  0  0  0  0  0  0  0  0  0  0
  152.0646  138.7111  155.3165 H   0  0  0  0  0  0  0  0  0  0  0  0
  150.8674  138.0779  156.4236 H   0  0  0  0  0  0  0  0  0  0  0  0
  149.8662  139.8192  154.1797 H   0  0  0  0  0  0  0  0  0  0  0  0
  149.8157  137.6819  152.9963 H   0  0  0  0  0  0  0  0  0  0  0  0
  148.8872  137.2432  155.5038 H   0  0  0  0  0  0  0  0  0  0  0  0
  148.2238  138.8310  155.7917 H   0  0  0  0  0  0  0  0  0  0  0  0
  146.8225  139.9213  153.8480 H   0  0  0  0  0  0  0  0  0  0  0  0
  148.2964  139.8182  152.9099 H   0  0  0  0  0  0  0  0  0  0  0  0
  146.1373  139.8620  151.5177 H   0  0  0  0  0  0  0  0  0  0  0  0
  147.2478  138.5606  151.1488 H   0  0  0  0  0  0  0  0  0  0  0  0
  144.8324  137.8663  151.4301 H   0  0  0  0  0  0  0  0  0  0  0  0
  146.7841  136.2829  154.6633 H   0  0  0  0  0  0  0  0  0  0  0  0
  146.0489  137.7923  155.1757 H   0  0  0  0  0  0  0  0  0  0  0  0
  152.7667  138.7362  158.2551 H   0  0  0  0  0  0  0  0  0  0  0  0
  154.0979  138.6180  160.2008 H   0  0  0  0  0  0  0  0  0  0  0  0
  153.4676  139.5520  161.5558 H   0  0  0  0  0  0  0  0  0  0  0  0
  154.8788  140.1309  160.6579 H   0  0  0  0  0  0  0  0  0  0  0  0
  148.1914  137.4182  153.2399 H   0  0  0  0  0  0  0  0  0  0  0  0
  1  2  1  0  0  0  0
  1 23  1  0  0  0  0
  1 24  1  0  0  0  0
  1 25  1  0  0  0  0
  2 21  1  0  0  0  0
  2  3  2  0  0  0  0
  3  4  1  0  0  0  0
  3 26  1  0  0  0  0
  4 19  2  0  0  0  0
  4  5  1  0  0  0  0
  5  6  2  0  0  0  0
  6  7  1  0  0  0  0
  6 27  1  0  0  0  0
  7  8  1  0  0  0  0
  7 19  1  0  0  0  0
  8  9  1  0  0  0  0
  8 28  1  0  0  0  0
  8 29  1  0  0  0  0
  9 10  1  0  0  0  0
  9 11  1  0  0  0  0
  9 30  1  0  0  0  0
 10 31  1  0  0  0  0
 11 12  1  0  0  0  0
 11 32  1  0  0  0  0
 11 33  1  0  0  0  0
 12 18  1  0  0  0  0
 12 13  1  0  0  0  0
 12 45  1  0  0  0  0
 13 14  1  0  0  0  0
 13 34  1  0  0  0  0
 13 35  1  0  0  0  0
 14 15  1  0  0  0  0
 14 36  1  0  0  0  0
 14 37  1  0  0  0  0
 15 16  1  0  0  0  0
 15 38  1  0  0  0  0
 16 17  2  0  0  0  0
 16 18  1  0  0  0  0
 18 39  1  0  0  0  0
 18 40  1  0  0  0  0
 19 20  1  0  0  0  0
 20 21  2  0  0  0  0
 20 41  1  0  0  0  0
 21 22  1  0  0  0  0
 22 42  1  0  0  0  0
 22 43  1  0  0  0  0
 22 44  1  0  0  0  0
M  CHG  1  12   1
M  END
> <s_m_source_file>
AV-unprocessed.smi

> <i_m_source_file_index>
1056

> <i_lp_mmshare_version>
43012

> <i_f3d_flags>
0

> <s_epik_input>
W0NIM11jKFtjSF0xKWMoW0NIM10pW2NIXWMoYzEyKW4oW2NIXW4yKVtDSDJdW0NASF0oW09IXSlbQ0gyXU4zW0NIMl1bQ0gyXVtOSF1DKD1PKVtDSDJdMw==

> <s_epik_cmdline>
J2VwaWtfcHl0aG9uJywgJy1waCcsICc3LjAnLCAnLXRuJywgJzgnLCAnLW1hJywgJzIwMCcsICctbWV0YWxfYmluZGluZycsICctaW1hZScsICc8aW5maWxlLm1hZT4nLCAnLW9tYWUnLCAnPG91dGZpbGUubWFlPic=

> <r_epik_Ionization_Penalty>
0.153633

> <r_epik_Ionization_Penalty_Charging>
0.0674887

> <r_epik_Ionization_Penalty_Neutral>
0.0861443

> <r_epik_State_Penalty>
0.135155

> <r_epik_Charging_Adjusted_Penalty>
0.202644

> <i_epik_Tot_Q>
1

> <i_epik_Tot_abs_Q>
1

> <r_epik_Metal_State_Penalty>
0.190685

> <b_epik_Metal_Only>
0

> <s_lp_Force_Field>
OPLS_2005

> <r_lp_Energy>
24.3112

> <b_lp_Chiralities_Consistent>
1

> <s_lp_Variant>
AV-unprocessed.smi:1056-2

> <Gold.Version>
5.8.1

> <Gold.Id.Protein>
6NUR|6NUR_protein|mol2

> <Gold.PLP.Fitness>
50.9626

> <Gold.PLP.PLP>
-40.0369

> <Gold.PLP.part.hbond>
-5.4263

> <Gold.PLP.part.metal>
0.0000

> <Gold.PLP.part.buried>
-0.4344

> <Gold.PLP.part.nonpolar>
-34.8350

> <Gold.PLP.part.repulsive>
0.4846

> <Gold.PLP.ligand.clash>
0.0000

> <Gold.PLP.ligand.torsion>
0.5546

> <Gold.PLP.Chemscore.Hbond>
4.0000

> <Gold.PLP.Chemscore.CHOScore>
0.0000

> <Gold.PLP.Chemscore.Metal>
0.0000

> <Gold.Chemscore.Hbonds>
donor molecule, donor type, donor heavy atom, donor atom, acceptor molecule, acceptor atom, score
      L1  H    10    31       P1  7948  1.00
      L1  H    12    45       P1  7948  2.00
      L1  H    15    38       P1 10171  1.00

> <Gold.PLP.Chemscore.Internal.Correction>
0.0349

> <Gold.Rescore>
     Score         DG    S(hbond)    S(metal)    S(lipo)     H(rot)  DE(clash)    DE(int)     intcor
     18.08     -18.78       2.37        0.00      97.92       2.38       0.20       0.50       ----

> <Gold.Chemscore.Fitness>
18.0812

> <Gold.Chemscore.DG>
-18.7811

> <Gold.Chemscore.ZeroCoef>
-5.4800

> <Gold.Chemscore.Hbond>
2.3750

> <Gold.Chemscore.Metal>
0.0000

> <Gold.Chemscore.Lipo>
97.9238

> <Gold.Chemscore.Internal_Hbond>
0.0000

> <Gold.Chemscore.DEClash>
0.1956

> <Gold.Chemscore.DEInternal>
0.5043

> <Gold.Chemscore.Rot>
2.3783

> <Gold.Chemscore.Internal.Correction>
   9.000000E+99

> <Gold.Chemscore.Hbonds>
donor molecule, donor type, donor heavy atom, donor atom, acceptor molecule, acceptor atom, score
      L1  H    10    31       P1  7948  0.46
      L1  H    12    45       P1  7948  0.98
      L1  H    15    38       P1 10171  0.89

> <Gold.Chemscore.Hbond.Weighted>
-7.9324

> <Gold.Chemscore.Metal.Weighted>
-0.0000

> <Gold.Chemscore.Lipo.Weighted>
-11.4571

> <Gold.Chemscore.Internal_Hbond.Weighted>
0.0000

> <Gold.Chemscore.DEClash.Weighted>
0.1956

> <Gold.Chemscore.DEInternal.Weighted>
0.5043

> <Gold.Chemscore.Rot.Weighted>
6.0884

> <Gold.Chemscore.Internal.Correction.Weighted>
   9.000000E+99

> <Gold.Protein.RotatedTorsions>
[ 6907 6896 6895 6894 ] final  124.46 input  -60.11 | X-H torsion
[ 7974 7965 7964 7962 ] final -141.49 input  175.53 | X-H torsion
[ 8008 7997 7996 7995 ] final  -79.98 input   59.86 | X-H torsion
[ 10167 10162 10161 10158 ] final -107.97 input  -65.29 | X-H torsion
[ 10718 10713 10712 10709 ] final   47.96 input   66.30 | X-H torsion
[ 10763 10752 10751 10750 ] final -103.45 input  -60.55 | X-H torsion
[ 11005 11000 10999 10996 ] final  170.14 input  -57.11 | X-H torsion

> <Gold.Protein.ActiveResidues>
 VAL166  LYS551  ARG553  GLY616  TRP617  ASP618  TYR619  PRO620  LYS621  CYS622 
 ASP623  PHE694  ASN695  SER759  ASP760  ASP761  ALA762  ILE779  LEU786  VAL792 
 PHE793  MET794  SER795  GLU796  ALA797  LYS798  CYS799  TRP800  GLU811  SER814 

> <Gold.Protein.RotatedAtoms>
  152.4076  133.6913  159.6369 H   0  0  0  0  0  0  0  0  0  0  0  0  # atno 6907 bound_to 6896
  150.7959  133.8682  159.3260 H   0  0  0  0  0  0  0  0  0  0  0  0  # atno 6908 bound_to 6896
  151.6432  135.1012  160.0197 H   0  0  0  0  0  0  0  0  0  0  0  0  # atno 6909 bound_to 6896
  144.8515  140.6073  143.5387 H   0  0  0  0  0  0  0  0  0  0  0  0  # atno 7974 bound_to 7965
  154.5838  140.0670  156.9142 H   0  0  0  0  0  0  0  0  0  0  0  0  # atno 8008 bound_to 7997
  155.2415  140.3345  155.4273 H   0  0  0  0  0  0  0  0  0  0  0  0  # atno 8009 bound_to 7997
  156.2208  140.1798  156.7465 H   0  0  0  0  0  0  0  0  0  0  0  0  # atno 8010 bound_to 7997
  140.1712  143.4041  152.1353 H   0  0  0  0  0  0  0  0  0  0  0  0  # atno 10167 bound_to 10162
  157.4638  130.8213  149.7915 H   0  0  0  0  0  0  0  0  0  0  0  0  # atno 10718 bound_to 10713
  154.7808  135.4823  153.9841 H   0  0  0  0  0  0  0  0  0  0  0  0  # atno 10763 bound_to 10752
  153.1491  135.6788  153.8916 H   0  0  0  0  0  0  0  0  0  0  0  0  # atno 10764 bound_to 10752
  153.8566  135.3160  155.3414 H   0  0  0  0  0  0  0  0  0  0  0  0  # atno 10765 bound_to 10752
  140.3052  134.7562  157.3948 H   0  0  0  0  0  0  0  0  0  0  0  0  # atno 11005 bound_to 11000
  145.4490  139.1526  143.3929 LP  0  0  0  0  0  0  0  0  0  0  0  0  # atno 17320 bound_to 7965
  146.2789  140.4615  142.8784 LP  0  0  0  0  0  0  0  0  0  0  0  0  # atno 17321 bound_to 7965
  139.5337  144.7187  151.4967 LP  0  0  0  0  0  0  0  0  0  0  0  0  # atno 17342 bound_to 10162
  140.6581  143.8557  150.6857 LP  0  0  0  0  0  0  0  0  0  0  0  0  # atno 17343 bound_to 10162
  156.0041  130.3864  150.2496 LP  0  0  0  0  0  0  0  0  0  0  0  0  # atno 17370 bound_to 10713
  157.0675  131.0107  151.3202 LP  0  0  0  0  0  0  0  0  0  0  0  0  # atno 17371 bound_to 10713
  140.1074  134.5391  155.8297 LP  0  0  0  0  0  0  0  0  0  0  0  0  # atno 17394 bound_to 11000
  141.2120  133.6713  156.6624 LP  0  0  0  0  0  0  0  0  0  0  0  0  # atno 17395 bound_to 11000

$$$$
