#       Name:                AV-unprocessed.smi:1383
#       Creating user name   scv26
#       Creation time:       Fri Mar 27 05:23:51 2020


#       File generated by GOLD software.
#

@<TRIPOS>MOLECULE
AV-unprocessed.smi:1383
    36    36     1
SMALL
NO_CHARGES


@<TRIPOS>ATOM
      1 ****        -3.1189  -0.3506  -1.9749 C.3            1 S1                 0.0000
      2 ****        -3.4847  -1.0415  -0.6516 C.3            1 S1                 0.0000
      3 ****        -2.9325  -0.3362   0.6069 C.3            1 S1                 0.0000
      4 ****        -3.4830  -0.9876   1.8875 C.3            1 S1                 0.0000
      5 ****        -1.3959  -0.3323   0.6311 C.2            1 S1                 0.0000
      6 ****        -0.7852  -1.3987   0.7136 O.2            1 S1                 0.0000
      7 ****        -0.8113   0.8781   0.5526 N.am           1 S1                 0.0000
      8 ****         0.5737   1.1872   0.5313 C.2            1 S1                 0.0000
      9 ****         1.5511   0.2803   0.6370 N.2            1 S1                 0.0000
     10 ****         2.8229   0.8604   0.5739 C.2            1 S1                 0.0000
     11 ****         4.0485  -0.0025   0.6721 C.3            1 S1                 0.0000
     12 ****         4.3383  -0.6913  -0.6645 C.2            1 S1                 0.0000
     13 ****         4.7249   0.0821  -1.6834 N.am           1 S1                 0.0000
     14 ****         4.2259  -1.9103  -0.7741 O.2            1 S1                 0.0000
     15 ****         2.7869   2.2269   0.4312 C.2            1 S1                 0.0000
     16 ****         1.1549   2.8356   0.3596 S.3            1 S1                 0.0000
     17 ****        -3.5882  -0.8590  -2.8172 H              1 S1                 0.0000
     18 ****        -2.0427  -0.3561  -2.1495 H              1 S1                 0.0000
     19 ****        -3.4559   0.6863  -1.9838 H              1 S1                 0.0000
     20 ****        -4.5720  -1.0887  -0.5813 H              1 S1                 0.0000
     21 ****        -3.1440  -2.0776  -0.6801 H              1 S1                 0.0000
     22 ****        -3.2808   0.6980   0.5934 H              1 S1                 0.0000
     23 ****        -3.0963  -0.4966   2.7814 H              1 S1                 0.0000
     24 ****        -3.2186  -2.0443   1.9467 H              1 S1                 0.0000
     25 ****        -4.5705  -0.9184   1.9234 H              1 S1                 0.0000
     26 ****        -1.4335   1.6700   0.4851 H              1 S1                 0.0000
     27 ****         4.9170   0.5902   0.9616 H              1 S1                 0.0000
     28 ****         3.9214  -0.7588   1.4481 H              1 S1                 0.0000
     29 ****         4.9376  -0.3311  -2.5796 H              1 S1                 0.0000
     30 ****         4.8138   1.0788  -1.5481 H              1 S1                 0.0000
     31 ****         3.6199   2.9105   0.3624 H              1 S1                 0.0000
     32 ****        -1.2893  -2.2609   0.7644 LP             1 S1                 0.0000
     33 ****         0.2146  -1.4023   0.7298 LP             1 S1                 0.0000
     34 ****         1.3912  -0.7005   0.7484 LP             1 S1                 0.0000
     35 ****         3.9435  -2.4591   0.0127 LP             1 S1                 0.0000
     36 ****         4.4168  -2.3533  -1.6501 LP             1 S1                 0.0000
@<TRIPOS>BOND
    1    1    2 1     
    2    1   17 1     
    3    1   18 1     
    4    1   19 1     
    5    2    3 1     
    6    2   20 1     
    7    2   21 1     
    8    3    4 1     
    9    3    5 1     
   10    3   22 1     
   11    4   23 1     
   12    4   24 1     
   13    4   25 1     
   14    5    6 2     
   15    5    7 am    
   16    7    8 1     
   17    7   26 1     
   18    8   16 1     
   19    8    9 2     
   20    9   10 1     
   21   10   11 1     
   22   10   15 2     
   23   11   12 1     
   24   11   27 1     
   25   11   28 1     
   26   12   13 am    
   27   12   14 2     
   28   13   29 1     
   29   13   30 1     
   30   15   16 1     
   31   15   31 1     
   32    6   32 1     
   33    6   33 1     
   34    9   34 1     
   35   14   35 1     
   36   14   36 1     
@<TRIPOS>SUBSTRUCTURE
      1 S1             1
@<TRIPOS>SET
LONE_PAIRS      STATIC     ATOMS    <user>   **** ""
5 32 33 34 35 36
DONOR_HYDROGENS      STATIC     ATOMS    <user>   **** ""
3 26 29 30
ATOM$BLUE        STATIC     ATOMS    COLORGROUP SYSTEM
5 32 33 34 35 36
ATOM$RED        STATIC     ATOMS    COLORGROUP SYSTEM
3 26 29 30
