#       Name:                AV-unprocessed.smi:2813
#       Creating user name   scv26
#       Creation time:       Fri Mar 27 15:27:46 2020


#       File generated by GOLD software.
#

@<TRIPOS>MOLECULE
AV-unprocessed.smi:2813
    48    49     1
SMALL
NO_CHARGES


@<TRIPOS>ATOM
      1 ****        -2.8095   5.8295   0.0482 C.3            1 S1                 0.0000
      2 ****        -2.2506   4.4396  -0.1990 C.2            1 S1                 0.0000
      3 ****        -2.0073   4.1156  -1.5370 N.2            1 S1                 0.0000
      4 ****        -1.5393   2.9499  -1.8434 C.2            1 S1                 0.0000
      5 ****        -1.2667   1.9835  -0.8619 N.am           1 S1                 0.0000
      6 ****        -0.7442   0.6945  -1.3431 C.3            1 S1                 0.0000
      7 ****         0.7953   0.6143  -1.2281 C.3            1 S1                 0.0000
      8 ****         1.3659   1.1058  -2.4244 O.3            1 S1                 0.0000
      9 ****         1.2929  -0.8276  -1.0443 C.3            1 S1                 0.0000
     10 ****         0.8959  -1.2829   0.2426 O.3            1 S1                 0.0000
     11 ****         1.2117  -2.5731   0.6086 C.ar           1 S1                 0.0000
     12 ****         0.7596  -3.0061   1.8711 C.ar           1 S1                 0.0000
     13 ****         1.0342  -4.3094   2.3249 C.ar           1 S1                 0.0000
     14 ****         1.7697  -5.1964   1.5175 C.ar           1 S1                 0.0000
     15 ****         2.2359  -4.7810   0.2515 C.ar           1 S1                 0.0000
     16 ****         3.0319  -5.7215  -0.6411 C.3            1 S1                 0.0000
     17 ****         4.1689  -5.1336  -1.0132 F              1 S1                 0.0000
     18 ****         3.3327  -6.8630  -0.0208 F              1 S1                 0.0000
     19 ****         2.3192  -6.0052  -1.7309 F              1 S1                 0.0000
     20 ****         1.9530  -3.4731  -0.1978 C.ar           1 S1                 0.0000
     21 ****        -1.4551   2.2240   0.4681 C.2            1 S1                 0.0000
     22 ****        -1.1865   1.3774   1.3228 O.2            1 S1                 0.0000
     23 ****        -1.9956   3.5521   0.8011 C.2            1 S1                 0.0000
     24 ****        -2.2388   3.8502   2.2754 C.3            1 S1                 0.0000
     25 ****        -3.7907   5.7669   0.5192 H              1 S1                 0.0000
     26 ****        -2.9212   6.3852  -0.8839 H              1 S1                 0.0000
     27 ****        -2.1453   6.3990   0.6987 H              1 S1                 0.0000
     28 ****        -1.3268   2.6493  -2.8709 H              1 S1                 0.0000
     29 ****        -1.1994  -0.0987  -0.7469 H              1 S1                 0.0000
     30 ****        -1.0685   0.4718  -2.3619 H              1 S1                 0.0000
     31 ****         1.1610   1.2192  -0.3971 H              1 S1                 0.0000
     32 ****         1.0825   0.5582  -3.1406 H              1 S1                 0.0000
     33 ****         0.8847  -1.4700  -1.8268 H              1 S1                 0.0000
     34 ****         2.3818  -0.8539  -1.1159 H              1 S1                 0.0000
     35 ****         0.1937  -2.3319   2.4973 H              1 S1                 0.0000
     36 ****         0.6795  -4.6292   3.2937 H              1 S1                 0.0000
     37 ****         1.9702  -6.1941   1.8790 H              1 S1                 0.0000
     38 ****         2.3187  -3.1821  -1.1706 H              1 S1                 0.0000
     39 ****        -1.3002   3.8015   2.8284 H              1 S1                 0.0000
     40 ****        -2.9210   3.1133   2.7007 H              1 S1                 0.0000
     41 ****        -2.6720   4.8339   2.4493 H              1 S1                 0.0000
     42 ****        -2.1950   4.7845  -2.2562 LP             1 S1                 0.0000
     43 ****         2.3633   1.0822  -2.3564 LP             1 S1                 0.0000
     44 ****         1.0645   2.0465  -2.5798 LP             1 S1                 0.0000
     45 ****        -0.0991  -1.1969   0.2925 LP             1 S1                 0.0000
     46 ****         1.3172  -0.6738   0.9145 LP             1 S1                 0.0000
     47 ****        -0.8208   0.4881   1.0482 LP             1 S1                 0.0000
     48 ****        -1.3343   1.5798   2.2909 LP             1 S1                 0.0000
@<TRIPOS>BOND
    1    1    2 1     
    2    1   25 1     
    3    1   26 1     
    4    1   27 1     
    5    2   23 2     
    6    2    3 1     
    7    3    4 2     
    8    4    5 1     
    9    4   28 1     
   10    5    6 1     
   11    5   21 am    
   12    6    7 1     
   13    6   29 1     
   14    6   30 1     
   15    7    8 1     
   16    7    9 1     
   17    7   31 1     
   18    8   32 1     
   19    9   10 1     
   20    9   33 1     
   21    9   34 1     
   22   10   11 1     
   23   11   20 ar    
   24   11   12 ar    
   25   12   13 ar    
   26   12   35 1     
   27   13   14 ar    
   28   13   36 1     
   29   14   15 ar    
   30   14   37 1     
   31   15   16 1     
   32   15   20 ar    
   33   16   17 1     
   34   16   18 1     
   35   16   19 1     
   36   20   38 1     
   37   21   22 2     
   38   21   23 1     
   39   23   24 1     
   40   24   39 1     
   41   24   40 1     
   42   24   41 1     
   43    3   42 1     
   44    8   43 1     
   45    8   44 1     
   46   10   45 1     
   47   10   46 1     
   48   22   47 1     
   49   22   48 1     
@<TRIPOS>SUBSTRUCTURE
      1 S1             1
@<TRIPOS>SET
LONE_PAIRS      STATIC     ATOMS    <user>   **** ""
7 42 43 44 45 46 47 48
DONOR_HYDROGENS      STATIC     ATOMS    <user>   **** ""
1 32
ATOM$BLUE        STATIC     ATOMS    COLORGROUP SYSTEM
7 42 43 44 45 46 47 48
ATOM$RED        STATIC     ATOMS    COLORGROUP SYSTEM
1 32
