AV-unprocessed.smi:2071|AV-procd|sdf|8440|dock5
  -GOLD-   2272011143D 1   1.00000     0.00000
 Structure written by MMmdl.
 45 47  0  0  0  0  0  0  0  0  1 V2000
  149.2674  135.5821  158.5626 O   0  0  0  0  0  0  0  0  0  0  0  0
  149.0325  136.5770  159.2479 C   0  0  0  0  0  0  0  0  0  0  0  0
  149.5022  137.7992  158.9600 N   0  0  0  0  0  0  0  0  0  0  0  0
  150.3515  138.1236  157.8197 C   0  0  0  0  0  0  0  0  0  0  0  0
  151.7073  138.6896  158.2700 C   0  0  0  0  0  0  0  0  0  0  0  0
  152.3611  139.5715  157.1932 C   0  0  0  0  0  0  0  0  0  0  0  0
  151.7768  140.9154  157.1762 N   0  0  0  0  0  0  0  0  0  0  0  0
  150.9609  141.3746  156.2099 C   0  0  0  0  0  0  0  0  0  0  0  0
  150.5993  140.7627  155.2060 O   0  0  0  0  0  0  0  0  0  0  0  0
  150.5947  142.6242  156.5231 N   0  0  0  0  0  0  0  0  0  0  0  0
  151.1622  143.0755  157.7779 C   0  0  0  0  0  0  0  0  0  0  0  0
  150.1098  143.4519  158.8286 C   0  0  0  0  0  0  0  0  0  0  0  0
  150.8431  144.3736  159.8126 C   0  0  0  0  0  0  0  0  0  0  0  0
  152.0515  144.9524  159.0545 C   0  0  0  0  0  0  0  0  0  0  0  0
  152.0253  144.3373  157.6474 C   0  0  0  0  0  0  0  0  0  0  0  0
  151.9590  141.8274  158.1405 C   0  0  0  0  0  0  0  0  0  0  0  0
  152.6394  141.7063  159.1599 O   0  0  0  0  0  0  0  0  0  0  0  0
  148.2744  136.5992  160.3578 N   0  0  0  0  0  0  0  0  0  0  0  0
  147.5982  135.5252  160.9988 C   0  0  0  0  0  0  0  0  0  0  0  0
  146.8169  135.6551  162.1730 C   0  0  0  0  0  0  0  0  0  0  0  0
  146.1853  134.5116  162.6995 C   0  0  0  0  0  0  0  0  0  0  0  0
  146.3508  133.2833  162.0311 C   0  0  0  0  0  0  0  0  0  0  0  0
  147.0816  133.1468  160.9050 N   0  0  0  0  0  0  0  0  0  0  0  0
  147.6843  134.2472  160.4063 C   0  0  0  0  0  0  0  0  0  0  0  0
  149.2556  138.5613  159.5746 H   0  0  0  0  0  0  0  0  0  0  0  0
  150.4933  137.2416  157.1929 H   0  0  0  0  0  0  0  0  0  0  0  0
  149.8282  138.8582  157.2073 H   0  0  0  0  0  0  0  0  0  0  0  0
  151.5716  139.2695  159.1840 H   0  0  0  0  0  0  0  0  0  0  0  0
  152.3805  137.8689  158.5224 H   0  0  0  0  0  0  0  0  0  0  0  0
  153.4364  139.6356  157.3688 H   0  0  0  0  0  0  0  0  0  0  0  0
  152.2504  139.1060  156.2123 H   0  0  0  0  0  0  0  0  0  0  0  0
  149.9815  143.1967  155.9612 H   0  0  0  0  0  0  0  0  0  0  0  0
  149.2930  143.9983  158.3547 H   0  0  0  0  0  0  0  0  0  0  0  0
  149.6728  142.5863  159.3290 H   0  0  0  0  0  0  0  0  0  0  0  0
  150.1845  145.1566  160.1892 H   0  0  0  0  0  0  0  0  0  0  0  0
  151.1908  143.8010  160.6735 H   0  0  0  0  0  0  0  0  0  0  0  0
  152.0168  146.0414  159.0085 H   0  0  0  0  0  0  0  0  0  0  0  0
  152.9738  144.6791  159.5685 H   0  0  0  0  0  0  0  0  0  0  0  0
  153.0299  144.1341  157.2731 H   0  0  0  0  0  0  0  0  0  0  0  0
  151.5570  145.0358  156.9521 H   0  0  0  0  0  0  0  0  0  0  0  0
  148.1228  137.5085  160.7692 H   0  0  0  0  0  0  0  0  0  0  0  0
  146.6769  136.6011  162.6717 H   0  0  0  0  0  0  0  0  0  0  0  0
  145.5837  134.5763  163.5942 H   0  0  0  0  0  0  0  0  0  0  0  0
  145.8794  132.3880  162.4084 H   0  0  0  0  0  0  0  0  0  0  0  0
  148.2592  134.0998  159.5033 H   0  0  0  0  0  0  0  0  0  0  0  0
  1  2  2  0  0  0  0
  2  3  1  0  0  0  0
  2 18  1  0  0  0  0
  3  4  1  0  0  0  0
  3 25  1  0  0  0  0
  4  5  1  0  0  0  0
  4 26  1  0  0  0  0
  4 27  1  0  0  0  0
  5  6  1  0  0  0  0
  5 28  1  0  0  0  0
  5 29  1  0  0  0  0
  6  7  1  0  0  0  0
  6 30  1  0  0  0  0
  6 31  1  0  0  0  0
  7 16  1  0  0  0  0
  7  8  1  0  0  0  0
  8  9  2  0  0  0  0
  8 10  1  0  0  0  0
 10 11  1  0  0  0  0
 10 32  1  0  0  0  0
 11 15  1  0  0  0  0
 11 12  1  0  0  0  0
 11 16  1  0  0  0  0
 12 13  1  0  0  0  0
 12 33  1  0  0  0  0
 12 34  1  0  0  0  0
 13 14  1  0  0  0  0
 13 35  1  0  0  0  0
 13 36  1  0  0  0  0
 14 15  1  0  0  0  0
 14 37  1  0  0  0  0
 14 38  1  0  0  0  0
 15 39  1  0  0  0  0
 15 40  1  0  0  0  0
 16 17  2  0  0  0  0
 18 19  1  0  0  0  0
 18 41  1  0  0  0  0
 19 24  1  0  0  0  0
 19 20  2  0  0  0  0
 20 21  1  0  0  0  0
 20 42  1  0  0  0  0
 21 22  2  0  0  0  0
 21 43  1  0  0  0  0
 22 23  1  0  0  0  0
 22 44  1  0  0  0  0
 23 24  2  0  0  0  0
 24 45  1  0  0  0  0
M  END
> <s_m_source_file>
AV-unprocessed.smi

> <i_m_source_file_index>
2071

> <i_lp_mmshare_version>
43012

> <i_f3d_flags>
0

> <s_epik_input>
W2NIXTFuW2NIXVtjSF1bY0hdYzFbTkhdQyg9TylbTkhdW0NIMl1bQ0gyXVtDSDJdTihDMj1PKUMoPU8pW05IXUMyM1tDSDJdW0NIMl1bQ0gyXVtDSDJdMw==

> <s_epik_cmdline>
J2VwaWtfcHl0aG9uJywgJy1waCcsICc3LjAnLCAnLXRuJywgJzgnLCAnLW1hJywgJzIwMCcsICctbWV0YWxfYmluZGluZycsICctaW1hZScsICc8aW5maWxlLm1hZT4nLCAnLW9tYWUnLCAnPG91dGZpbGUubWFlPic=

> <r_lp_tautomer_probability>
1

> <r_epik_Ionization_Penalty>
0.00482956

> <r_epik_Ionization_Penalty_Charging>
0

> <r_epik_Ionization_Penalty_Neutral>
0.00482956

> <r_epik_State_Penalty>
0.00344413

> <r_epik_Charging_Adjusted_Penalty>
0.00344413

> <i_epik_Tot_Q>
0

> <i_epik_Tot_abs_Q>
0

> <r_epik_Metal_State_Penalty>
0.0123255

> <b_epik_Metal_Only>
0

> <s_lp_Force_Field>
OPLS_2005

> <r_lp_Energy>
39.9018

> <b_lp_Chiralities_Consistent>
1

> <s_lp_Variant>
AV-unprocessed.smi:2071-1

> <Gold.Version>
5.8.1

> <Gold.Id.Protein>
6NUR|6NUR_protein|mol2

> <Gold.PLP.Fitness>
53.8405

> <Gold.PLP.PLP>
-45.9583

> <Gold.PLP.part.hbond>
-3.0000

> <Gold.PLP.part.metal>
0.0000

> <Gold.PLP.part.buried>
-7.0972

> <Gold.PLP.part.nonpolar>
-36.4316

> <Gold.PLP.part.repulsive>
0.5961

> <Gold.PLP.ligand.clash>
0.0000

> <Gold.PLP.ligand.torsion>
0.3382

> <Gold.PLP.Chemscore.Hbond>
2.8480

> <Gold.PLP.Chemscore.CHOScore>
0.0000

> <Gold.PLP.Chemscore.Metal>
0.0000

> <Gold.Chemscore.Hbonds>
donor molecule, donor type, donor heavy atom, donor atom, acceptor molecule, acceptor atom, score
      L1  H    10    32       P1  8028  1.00
      P1  H  6896  6909       L1     1  1.00
      P1  H  7989  7998       L1     9  0.85

> <Gold.PLP.Chemscore.Internal.Correction>
0.0148

> <Gold.Rescore>
     Score         DG    S(hbond)    S(metal)    S(lipo)     H(rot)  DE(clash)    DE(int)     intcor
     20.07     -21.91       2.78        0.00     104.03       1.96       0.04       1.80       ----

> <Gold.Chemscore.Fitness>
20.0682

> <Gold.Chemscore.DG>
-21.9136

> <Gold.Chemscore.ZeroCoef>
-5.4800

> <Gold.Chemscore.Hbond>
2.7808

> <Gold.Chemscore.Metal>
0.0000

> <Gold.Chemscore.Lipo>
104.0334

> <Gold.Chemscore.Internal_Hbond>
0.0000

> <Gold.Chemscore.DEClash>
0.0429

> <Gold.Chemscore.DEInternal>
1.8025

> <Gold.Chemscore.Rot>
1.9634

> <Gold.Chemscore.Internal.Correction>
   9.000000E+99

> <Gold.Chemscore.Hbonds>
donor molecule, donor type, donor heavy atom, donor atom, acceptor molecule, acceptor atom, score
      L1  H    10    32       P1  8028  0.97
      P1  H  6896  6909       L1     1  0.71
      P1  H  7989  7998       L1     9  0.81

> <Gold.Chemscore.Hbond.Weighted>
-9.2880

> <Gold.Chemscore.Metal.Weighted>
-0.0000

> <Gold.Chemscore.Lipo.Weighted>
-12.1719

> <Gold.Chemscore.Internal_Hbond.Weighted>
0.0000

> <Gold.Chemscore.DEClash.Weighted>
0.0429

> <Gold.Chemscore.DEInternal.Weighted>
1.8025

> <Gold.Chemscore.Rot.Weighted>
5.0263

> <Gold.Chemscore.Internal.Correction.Weighted>
   9.000000E+99

> <Gold.Protein.RotatedTorsions>
[ 6907 6896 6895 6894 ] final   39.38 input  -60.11 | X-H torsion
[ 7974 7965 7964 7962 ] final  -66.53 input  175.53 | X-H torsion
[ 8008 7997 7996 7995 ] final   50.73 input   59.86 | X-H torsion
[ 10167 10162 10161 10158 ] final  -60.14 input  -65.29 | X-H torsion
[ 10718 10713 10712 10709 ] final  115.45 input   66.30 | X-H torsion
[ 10763 10752 10751 10750 ] final -174.27 input  -60.55 | X-H torsion
[ 11005 11000 10999 10996 ] final  -60.79 input  -57.11 | X-H torsion

> <Gold.Protein.ActiveResidues>
 VAL166  LYS551  ARG553  GLY616  TRP617  ASP618  TYR619  PRO620  LYS621  CYS622 
 ASP623  PHE694  ASN695  SER759  ASP760  ASP761  ALA762  ILE779  LEU786  VAL792 
 PHE793  MET794  SER795  GLU796  ALA797  LYS798  CYS799  TRP800  GLU811  SER814 

> <Gold.Protein.RotatedAtoms>
  152.1688  134.8851  160.0535 H   0  0  0  0  0  0  0  0  0  0  0  0  # atno 6907 bound_to 6896
  151.9819  133.3756  159.4119 H   0  0  0  0  0  0  0  0  0  0  0  0  # atno 6908 bound_to 6896
  150.6898  134.3952  159.5138 H   0  0  0  0  0  0  0  0  0  0  0  0  # atno 6909 bound_to 6896
  145.7406  140.8955  143.0532 H   0  0  0  0  0  0  0  0  0  0  0  0  # atno 7974 bound_to 7965
  155.4236  140.3447  155.4273 H   0  0  0  0  0  0  0  0  0  0  0  0  # atno 8008 bound_to 7997
  156.1378  140.1533  156.8998 H   0  0  0  0  0  0  0  0  0  0  0  0  # atno 8009 bound_to 7997
  154.4946  140.0831  156.7649 H   0  0  0  0  0  0  0  0  0  0  0  0  # atno 8010 bound_to 7997
  140.6091  143.2382  151.5753 H   0  0  0  0  0  0  0  0  0  0  0  0  # atno 10167 bound_to 10162
  157.6221  131.1012  150.7331 H   0  0  0  0  0  0  0  0  0  0  0  0  # atno 10718 bound_to 10713
  154.5982  135.2852  155.0563 H   0  0  0  0  0  0  0  0  0  0  0  0  # atno 10763 bound_to 10752
  154.1838  135.6452  153.5045 H   0  0  0  0  0  0  0  0  0  0  0  0  # atno 10764 bound_to 10752
  153.0147  135.5430  154.6692 H   0  0  0  0  0  0  0  0  0  0  0  0  # atno 10765 bound_to 10752
  141.1300  133.6625  156.5276 H   0  0  0  0  0  0  0  0  0  0  0  0  # atno 11005 bound_to 11000
  144.6871  139.9456  143.7476 LP  0  0  0  0  0  0  0  0  0  0  0  0  # atno 17320 bound_to 7965
  146.0451  139.3458  143.0673 LP  0  0  0  0  0  0  0  0  0  0  0  0  # atno 17321 bound_to 7965
  139.5347  144.2815  152.1225 LP  0  0  0  0  0  0  0  0  0  0  0  0  # atno 17342 bound_to 10162
  140.2010  144.4657  150.6431 LP  0  0  0  0  0  0  0  0  0  0  0  0  # atno 17343 bound_to 10162
  156.7686  130.4821  149.5423 LP  0  0  0  0  0  0  0  0  0  0  0  0  # atno 17370 bound_to 10713
  156.1373  130.6220  151.0418 LP  0  0  0  0  0  0  0  0  0  0  0  0  # atno 17371 bound_to 10713
  140.4241  134.7160  157.4906 LP  0  0  0  0  0  0  0  0  0  0  0  0  # atno 17394 bound_to 11000
  140.0339  134.6366  155.9070 LP  0  0  0  0  0  0  0  0  0  0  0  0  # atno 17395 bound_to 11000

$$$$
