AV-unprocessed.smi:3195|AV-procd|sdf|12214|dock2
  -GOLD-   2272018 53D 1   1.00000     0.00000
 Structure written by MMmdl.
 30 31  0  0  0  0  0  0  0  0  1 V2000
  152.7504  138.8967  154.5635 C   0  0  0  0  0  0  0  0  0  0  0  0
  151.5681  139.2807  155.4697 C   0  0  2  0  0  0  0  0  0  0  0  0
  152.0707  140.0410  156.7162 C   0  0  0  0  0  0  0  0  0  0  0  0
  152.9186  139.5136  157.4375 O   0  0  0  0  0  0  0  0  0  0  0  0
  151.5438  141.2611  156.9359 N   0  0  0  0  0  0  0  0  0  0  0  0
  151.8106  142.1695  157.9967 C   0  0  0  0  0  0  0  0  0  0  0  0
  152.4281  141.8035  159.1480 N   0  0  0  0  0  0  0  0  0  0  0  0
  152.6448  142.7282  160.1062 C   0  0  0  0  0  0  0  0  0  0  0  0
  152.2596  144.0745  159.9774 C   0  0  0  0  0  0  0  0  0  0  0  0
  151.6191  144.4689  158.7901 C   0  0  0  0  0  0  0  0  0  0  0  0
  151.3895  143.5074  157.7856 C   0  0  0  0  0  0  0  0  0  0  0  0
  150.7657  143.8843  156.6284 O   0  0  0  0  0  0  0  0  0  0  0  0
  150.7091  138.0530  155.8546 C   0  0  0  0  0  0  0  0  0  0  0  0
  149.3791  138.2873  155.1610 C   0  0  0  0  0  0  0  0  0  0  0  0
  149.3421  139.8000  155.0184 C   0  0  0  0  0  0  0  0  0  0  0  0
  150.6904  140.1150  154.7049 O   0  0  0  0  0  0  0  0  0  0  0  0
  153.4335  138.2106  155.0658 H   0  0  0  0  0  0  0  0  0  0  0  0
  153.3220  139.7758  154.2631 H   0  0  0  0  0  0  0  0  0  0  0  0
  152.4018  138.4069  153.6539 H   0  0  0  0  0  0  0  0  0  0  0  0
  150.8612  141.5759  156.2615 H   0  0  0  0  0  0  0  0  0  0  0  0
  153.1404  142.3841  161.0018 H   0  0  0  0  0  0  0  0  0  0  0  0
  152.4515  144.7845  160.7682 H   0  0  0  0  0  0  0  0  0  0  0  0
  151.3091  145.4945  158.6534 H   0  0  0  0  0  0  0  0  0  0  0  0
  149.8346  144.0070  156.7322 H   0  0  0  0  0  0  0  0  0  0  0  0
  151.1574  137.1078  155.5460 H   0  0  0  0  0  0  0  0  0  0  0  0
  150.5472  137.9914  156.9323 H   0  0  0  0  0  0  0  0  0  0  0  0
  149.3878  137.8236  154.1739 H   0  0  0  0  0  0  0  0  0  0  0  0
  148.5299  137.8903  155.7175 H   0  0  0  0  0  0  0  0  0  0  0  0
  148.6582  140.1359  154.2389 H   0  0  0  0  0  0  0  0  0  0  0  0
  149.0579  140.2756  155.9584 H   0  0  0  0  0  0  0  0  0  0  0  0
  1  2  1  0  0  0  0
  1 17  1  0  0  0  0
  1 18  1  0  0  0  0
  1 19  1  0  0  0  0
  2 16  1  0  0  0  0
  2  3  1  0  0  0  0
  2 13  1  0  0  0  0
  3  4  2  0  0  0  0
  3  5  1  0  0  0  0
  5  6  1  0  0  0  0
  5 20  1  0  0  0  0
  6 11  1  0  0  0  0
  6  7  2  0  0  0  0
  7  8  1  0  0  0  0
  8  9  2  0  0  0  0
  8 21  1  0  0  0  0
  9 10  1  0  0  0  0
  9 22  1  0  0  0  0
 10 11  2  0  0  0  0
 10 23  1  0  0  0  0
 11 12  1  0  0  0  0
 12 24  1  0  0  0  0
 13 14  1  0  0  0  0
 13 25  1  0  0  0  0
 13 26  1  0  0  0  0
 14 15  1  0  0  0  0
 14 27  1  0  0  0  0
 14 28  1  0  0  0  0
 15 16  1  0  0  0  0
 15 29  1  0  0  0  0
 15 30  1  0  0  0  0
M  END
> <s_m_source_file>
AV-unprocessed.smi

> <i_m_source_file_index>
3195

> <i_lp_mmshare_version>
43012

> <i_f3d_flags>
0

> <s_epik_input>
TzFbQ0gyXVtDSDJdW0NIMl1bQ0BAXTEoW0NIM10pQyg9TylbTkhdYzJuW2NIXVtjSF1bY0hdYzJbT0hd

> <s_epik_cmdline>
J2VwaWtfcHl0aG9uJywgJy1waCcsICc3LjAnLCAnLXRuJywgJzgnLCAnLW1hJywgJzIwMCcsICctbWV0YWxfYmluZGluZycsICctaW1hZScsICc8aW5maWxlLm1hZT4nLCAnLW9tYWUnLCAnPG91dGZpbGUubWFlPic=

> <r_lp_tautomer_probability>
0.43658

> <r_epik_Ionization_Penalty>
0.0203228

> <r_epik_Ionization_Penalty_Charging>
0

> <r_epik_Ionization_Penalty_Neutral>
0.0203228

> <r_epik_State_Penalty>
0.430346

> <r_epik_Charging_Adjusted_Penalty>
0.430346

> <i_epik_Tot_Q>
0

> <i_epik_Tot_abs_Q>
0

> <r_epik_Metal_State_Penalty>
0.387439

> <b_epik_Metal_Only>
0

> <s_lp_Force_Field>
OPLS_2005

> <r_lp_Energy>
21.4304

> <b_lp_Chiralities_Consistent>
1

> <s_lp_Variant>
AV-unprocessed.smi:3195-2

> <Gold.Version>
5.8.1

> <Gold.Id.Protein>
6NUR|6NUR_protein|mol2

> <Gold.PLP.Fitness>
41.9088

> <Gold.PLP.PLP>
-33.4079

> <Gold.PLP.part.hbond>
-2.8043

> <Gold.PLP.part.metal>
0.0000

> <Gold.PLP.part.buried>
-4.8248

> <Gold.PLP.part.nonpolar>
-26.7222

> <Gold.PLP.part.repulsive>
0.1976

> <Gold.PLP.ligand.clash>
0.0000

> <Gold.PLP.ligand.torsion>
0.1922

> <Gold.PLP.Chemscore.Hbond>
2.9510

> <Gold.PLP.Chemscore.CHOScore>
0.0000

> <Gold.PLP.Chemscore.Metal>
0.0000

> <Gold.Chemscore.Hbonds>
donor molecule, donor type, donor heavy atom, donor atom, acceptor molecule, acceptor atom, score
      L1  H    12    24       P1  8028  0.50
      P1  H  7989  7998       L1    16  1.00
      P1  H  7997  8009       L1     4  1.00

> <Gold.PLP.Chemscore.Internal.Correction>
0.0325

> <Gold.Rescore>
     Score         DG    S(hbond)    S(metal)    S(lipo)     H(rot)  DE(clash)    DE(int)     intcor
     16.24     -17.63       1.98        0.00      79.46       1.46       0.05       1.34       ----

> <Gold.Chemscore.Fitness>
16.2427

> <Gold.Chemscore.DG>
-17.6341

> <Gold.Chemscore.ZeroCoef>
-5.4800

> <Gold.Chemscore.Hbond>
1.9765

> <Gold.Chemscore.Metal>
0.0000

> <Gold.Chemscore.Lipo>
79.4589

> <Gold.Chemscore.Internal_Hbond>
0.0000

> <Gold.Chemscore.DEClash>
0.0514

> <Gold.Chemscore.DEInternal>
1.3399

> <Gold.Chemscore.Rot>
1.4625

> <Gold.Chemscore.Internal.Correction>
   9.000000E+99

> <Gold.Chemscore.Hbonds>
donor molecule, donor type, donor heavy atom, donor atom, acceptor molecule, acceptor atom, score
      L1  H    12    24       P1  8028  0.48
      P1  H  7989  7998       L1    16  0.65
      P1  H  7997  8009       L1     4  0.74

> <Gold.Chemscore.Hbond.Weighted>
-6.6014

> <Gold.Chemscore.Metal.Weighted>
-0.0000

> <Gold.Chemscore.Lipo.Weighted>
-9.2967

> <Gold.Chemscore.Internal_Hbond.Weighted>
0.0000

> <Gold.Chemscore.DEClash.Weighted>
0.0514

> <Gold.Chemscore.DEInternal.Weighted>
1.3399

> <Gold.Chemscore.Rot.Weighted>
3.7440

> <Gold.Chemscore.Internal.Correction.Weighted>
   9.000000E+99

> <Gold.Protein.RotatedTorsions>
[ 6907 6896 6895 6894 ] final  -95.74 input  -60.11 | X-H torsion
[ 7974 7965 7964 7962 ] final  124.05 input  175.53 | X-H torsion
[ 8008 7997 7996 7995 ] final  157.71 input   59.86 | X-H torsion
[ 10167 10162 10161 10158 ] final  135.36 input  -65.29 | X-H torsion
[ 10718 10713 10712 10709 ] final  -36.68 input   66.30 | X-H torsion
[ 10763 10752 10751 10750 ] final  173.75 input  -60.55 | X-H torsion
[ 11005 11000 10999 10996 ] final  -75.29 input  -57.11 | X-H torsion

> <Gold.Protein.ActiveResidues>
 VAL166  LYS551  ARG553  GLY616  TRP617  ASP618  TYR619  PRO620  LYS621  CYS622 
 ASP623  PHE694  ASN695  SER759  ASP760  ASP761  ALA762  ILE779  LEU786  VAL792 
 PHE793  MET794  SER795  GLU796  ALA797  LYS798  CYS799  TRP800  GLU811  SER814 

> <Gold.Protein.RotatedAtoms>
  150.6971  134.1610  159.4175 H   0  0  0  0  0  0  0  0  0  0  0  0  # atno 6907 bound_to 6896
  151.9591  135.0130  160.0556 H   0  0  0  0  0  0  0  0  0  0  0  0  # atno 6908 bound_to 6896
  152.1943  133.4760  159.5061 H   0  0  0  0  0  0  0  0  0  0  0  0  # atno 6909 bound_to 6896
  145.0889  139.3602  143.4871 H   0  0  0  0  0  0  0  0  0  0  0  0  # atno 7974 bound_to 7965
  156.2347  140.1878  156.7150 H   0  0  0  0  0  0  0  0  0  0  0  0  # atno 8008 bound_to 7997
  154.6085  140.0625  156.9490 H   0  0  0  0  0  0  0  0  0  0  0  0  # atno 8009 bound_to 7997
  155.2055  140.3296  155.4339 H   0  0  0  0  0  0  0  0  0  0  0  0  # atno 8010 bound_to 7997
  139.5220  144.6521  151.5272 H   0  0  0  0  0  0  0  0  0  0  0  0  # atno 10167 bound_to 10162
  156.3240  130.4270  149.7933 H   0  0  0  0  0  0  0  0  0  0  0  0  # atno 10718 bound_to 10713
  154.4444  135.2763  155.1825 H   0  0  0  0  0  0  0  0  0  0  0  0  # atno 10763 bound_to 10752
  154.3678  135.6115  153.5728 H   0  0  0  0  0  0  0  0  0  0  0  0  # atno 10764 bound_to 10752
  152.9843  135.5850  154.4777 H   0  0  0  0  0  0  0  0  0  0  0  0  # atno 10765 bound_to 10752
  141.1644  133.6941  156.7495 H   0  0  0  0  0  0  0  0  0  0  0  0  # atno 11005 bound_to 11000
  146.3531  140.0714  142.8623 LP  0  0  0  0  0  0  0  0  0  0  0  0  # atno 17320 bound_to 7965
  145.1090  140.9393  143.4668 LP  0  0  0  0  0  0  0  0  0  0  0  0  # atno 17321 bound_to 7965
  140.6330  143.9039  150.6622 LP  0  0  0  0  0  0  0  0  0  0  0  0  # atno 17342 bound_to 10162
  140.2349  143.3707  152.1535 LP  0  0  0  0  0  0  0  0  0  0  0  0  # atno 17343 bound_to 10162
  156.5230  130.8223  151.3210 LP  0  0  0  0  0  0  0  0  0  0  0  0  # atno 17370 bound_to 10713
  157.7417  130.9876  150.2468 LP  0  0  0  0  0  0  0  0  0  0  0  0  # atno 17371 bound_to 10713
  140.2615  134.8463  157.3763 LP  0  0  0  0  0  0  0  0  0  0  0  0  # atno 17394 bound_to 11000
  140.1607  134.4732  155.7897 LP  0  0  0  0  0  0  0  0  0  0  0  0  # atno 17395 bound_to 11000

$$$$
