AV-unprocessed.smi:786|AV-procd|sdf|3722|dock9
  -GOLD-   22720 1153D 1   1.00000     0.00000
 Structure written by MMmdl.
 40 41  0  0  0  0  0  0  0  0  2 V2000
  149.6504  141.1891  154.0889 O   0  0  0  0  0  0  0  0  0  0  0  0
  148.3201  141.0474  154.6992 S   0  0  0  0  0  0  0  0  0  0  0  0
  147.1690  141.7731  154.1409 O   0  0  0  0  0  0  0  0  0  0  0  0
  147.9225  139.2463  154.8512 C   0  0  0  0  0  0  0  0  0  0  0  0
  149.1200  138.3933  155.3166 C   0  0  0  0  0  0  0  0  0  0  0  0
  150.2857  138.4721  154.3169 C   0  0  0  0  0  0  0  0  0  0  0  0
  151.4532  137.5768  154.7637 C   0  0  0  0  0  0  0  0  0  0  0  0
  151.0062  136.2344  154.9165 O   0  0  0  0  0  0  0  0  0  0  0  0
  150.0020  136.0952  155.9154 C   0  0  0  0  0  0  0  0  0  0  0  0
  148.7579  136.9105  155.5272 C   0  0  0  0  0  0  0  0  0  0  0  0
  148.4833  141.5209  156.3523 N   0  0  0  0  0  0  0  0  0  0  0  0
  149.5226  140.8865  157.1637 C   0  0  0  0  0  0  0  0  0  0  0  0
  150.9188  141.3814  156.7539 C   0  0  0  0  0  0  0  0  0  0  0  0
  151.4923  142.3683  157.7521 C   0  0  0  0  0  0  0  0  0  0  0  0
  152.2758  141.9528  158.8504 C   0  0  0  0  0  0  0  0  0  0  0  0
  152.7741  142.9207  159.7471 C   0  0  0  0  0  0  0  0  0  0  0  0
  152.4786  144.2822  159.5274 C   0  0  0  0  0  0  0  0  0  0  0  0
  151.6897  144.6413  158.4154 C   0  0  0  0  0  0  0  0  0  0  0  0
  151.2307  143.6844  157.5790 N   0  3  0  0  0  0  0  0  0  0  0  0
  147.0939  139.1418  155.5521 H   0  0  0  0  0  0  0  0  0  0  0  0
  147.5530  138.9128  153.8813 H   0  0  0  0  0  0  0  0  0  0  0  0
  149.4788  138.8018  156.2625 H   0  0  0  0  0  0  0  0  0  0  0  0
  149.9480  138.1586  153.3282 H   0  0  0  0  0  0  0  0  0  0  0  0
  150.6299  139.5020  154.2172 H   0  0  0  0  0  0  0  0  0  0  0  0
  152.2485  137.5996  154.0186 H   0  0  0  0  0  0  0  0  0  0  0  0
  151.8837  137.9365  155.6995 H   0  0  0  0  0  0  0  0  0  0  0  0
  149.7440  135.0403  156.0089 H   0  0  0  0  0  0  0  0  0  0  0  0
  150.3903  136.4148  156.8837 H   0  0  0  0  0  0  0  0  0  0  0  0
  147.9949  136.7943  156.2952 H   0  0  0  0  0  0  0  0  0  0  0  0
  148.3336  136.5001  154.6099 H   0  0  0  0  0  0  0  0  0  0  0  0
  147.5810  141.4870  156.8268 H   0  0  0  0  0  0  0  0  0  0  0  0
  149.3363  141.1238  158.2114 H   0  0  0  0  0  0  0  0  0  0  0  0
  149.4477  139.8026  157.0657 H   0  0  0  0  0  0  0  0  0  0  0  0
  151.6103  140.5448  156.6537 H   0  0  0  0  0  0  0  0  0  0  0  0
  150.8728  141.8566  155.7730 H   0  0  0  0  0  0  0  0  0  0  0  0
  152.4917  140.9055  159.0065 H   0  0  0  0  0  0  0  0  0  0  0  0
  153.3752  142.6218  160.5934 H   0  0  0  0  0  0  0  0  0  0  0  0
  152.8510  145.0393  160.2022 H   0  0  0  0  0  0  0  0  0  0  0  0
  151.4140  145.6570  158.1719 H   0  0  0  0  0  0  0  0  0  0  0  0
  150.6614  143.9673  156.7810 H   0  0  0  0  0  0  0  0  0  0  0  0
  1  2  2  0  0  0  0
  2  3  2  0  0  0  0
  2  4  1  0  0  0  0
  2 11  1  0  0  0  0
  4  5  1  0  0  0  0
  4 20  1  0  0  0  0
  4 21  1  0  0  0  0
  5 10  1  0  0  0  0
  5  6  1  0  0  0  0
  5 22  1  0  0  0  0
  6  7  1  0  0  0  0
  6 23  1  0  0  0  0
  6 24  1  0  0  0  0
  7  8  1  0  0  0  0
  7 25  1  0  0  0  0
  7 26  1  0  0  0  0
  8  9  1  0  0  0  0
  9 10  1  0  0  0  0
  9 27  1  0  0  0  0
  9 28  1  0  0  0  0
 10 29  1  0  0  0  0
 10 30  1  0  0  0  0
 11 12  1  0  0  0  0
 11 31  1  0  0  0  0
 12 13  1  0  0  0  0
 12 32  1  0  0  0  0
 12 33  1  0  0  0  0
 13 14  1  0  0  0  0
 13 34  1  0  0  0  0
 13 35  1  0  0  0  0
 14 19  1  0  0  0  0
 14 15  2  0  0  0  0
 15 16  1  0  0  0  0
 15 36  1  0  0  0  0
 16 17  2  0  0  0  0
 16 37  1  0  0  0  0
 17 18  1  0  0  0  0
 17 38  1  0  0  0  0
 18 19  2  0  0  0  0
 18 39  1  0  0  0  0
 19 40  1  0  0  0  0
M  CHG  1  19   1
M  END
> <s_m_source_file>
AV-unprocessed.smi

> <i_m_source_file_index>
786

> <i_lp_mmshare_version>
43012

> <i_f3d_flags>
0

> <s_epik_input>
W0NIMl0xW0NIMl1PW0NIMl1bQ0gyXVtDSF0xW0NIMl1TKD1PKSg9TylbTkhdW0NIMl1bQ0gyXWMyW2NIXVtjSF1bY0hdW2NIXW4y

> <s_epik_cmdline>
J2VwaWtfcHl0aG9uJywgJy1waCcsICc3LjAnLCAnLXRuJywgJzgnLCAnLW1hJywgJzIwMCcsICctbWV0YWxfYmluZGluZycsICctaW1hZScsICc8aW5maWxlLm1hZT4nLCAnLW9tYWUnLCAnPG91dGZpbGUubWFlPic=

> <r_epik_Ionization_Penalty>
1.99786

> <r_epik_Ionization_Penalty_Charging>
1.99784

> <r_epik_Ionization_Penalty_Neutral>
1.9654e-05

> <r_epik_State_Penalty>
2.12638

> <r_epik_Charging_Adjusted_Penalty>
4.12422

> <i_epik_Tot_Q>
1

> <i_epik_Tot_abs_Q>
1

> <r_epik_Metal_State_Penalty>
2.17464

> <b_epik_Metal_Only>
0

> <s_lp_Force_Field>
OPLS_2005

> <r_lp_Energy>
11.1046

> <b_lp_Chiralities_Consistent>
1

> <s_lp_Variant>
AV-unprocessed.smi:786-2

> <Gold.Version>
5.8.1

> <Gold.Id.Protein>
6NUR|6NUR_protein|mol2

> <Gold.PLP.Fitness>
48.1271

> <Gold.PLP.PLP>
-38.3289

> <Gold.PLP.part.hbond>
-4.0701

> <Gold.PLP.part.metal>
0.0000

> <Gold.PLP.part.buried>
-6.4594

> <Gold.PLP.part.nonpolar>
-28.2775

> <Gold.PLP.part.repulsive>
0.5335

> <Gold.PLP.ligand.clash>
0.0000

> <Gold.PLP.ligand.torsion>
0.9567

> <Gold.PLP.Chemscore.Hbond>
3.8427

> <Gold.PLP.Chemscore.CHOScore>
0.0000

> <Gold.PLP.Chemscore.Metal>
0.0000

> <Gold.Chemscore.Hbonds>
donor molecule, donor type, donor heavy atom, donor atom, acceptor molecule, acceptor atom, score
      L1  H    19    40       P1  8028  1.11
      P1  H  7989  7998       L1     1  0.36
      P1  H  8011  8017       L1     1  0.55
      P1  H 10752 10763       L1     8  0.42

> <Gold.PLP.Chemscore.Internal.Correction>
0.1834

> <Gold.Rescore>
     Score         DG    S(hbond)    S(metal)    S(lipo)     H(rot)  DE(clash)    DE(int)     intcor
     18.61     -21.51       2.94        0.00      95.59       1.94       0.45       2.45       ----

> <Gold.Chemscore.Fitness>
18.6131

> <Gold.Chemscore.DG>
-21.5147

> <Gold.Chemscore.ZeroCoef>
-5.4800

> <Gold.Chemscore.Hbond>
2.9413

> <Gold.Chemscore.Metal>
0.0000

> <Gold.Chemscore.Lipo>
95.5887

> <Gold.Chemscore.Internal_Hbond>
0.0000

> <Gold.Chemscore.DEClash>
0.4494

> <Gold.Chemscore.DEInternal>
2.4522

> <Gold.Chemscore.Rot>
1.9426

> <Gold.Chemscore.Internal.Correction>
   9.000000E+99

> <Gold.Chemscore.Hbonds>
donor molecule, donor type, donor heavy atom, donor atom, acceptor molecule, acceptor atom, score
      L1  H    19    40       P1  8028  0.54
      P1  H  7989  7998       L1     1  0.34
      P1  H  8011  8017       L1     1  0.51
      P1  H 10752 10763       L1     8  0.01

> <Gold.Chemscore.Hbond.Weighted>
-9.8239

> <Gold.Chemscore.Metal.Weighted>
-0.0000

> <Gold.Chemscore.Lipo.Weighted>
-11.1839

> <Gold.Chemscore.Internal_Hbond.Weighted>
0.0000

> <Gold.Chemscore.DEClash.Weighted>
0.4494

> <Gold.Chemscore.DEInternal.Weighted>
2.4522

> <Gold.Chemscore.Rot.Weighted>
4.9731

> <Gold.Chemscore.Internal.Correction.Weighted>
   9.000000E+99

> <Gold.Protein.RotatedTorsions>
[ 6907 6896 6895 6894 ] final  -52.47 input  -60.11 | X-H torsion
[ 7974 7965 7964 7962 ] final  148.81 input  175.53 | X-H torsion
[ 8008 7997 7996 7995 ] final -102.63 input   59.86 | X-H torsion
[ 10167 10162 10161 10158 ] final -157.14 input  -65.29 | X-H torsion
[ 10718 10713 10712 10709 ] final  -18.91 input   66.30 | X-H torsion
[ 10763 10752 10751 10750 ] final   58.78 input  -60.55 | X-H torsion
[ 11005 11000 10999 10996 ] final   25.65 input  -57.11 | X-H torsion

> <Gold.Protein.ActiveResidues>
 VAL166  LYS551  ARG553  GLY616  TRP617  ASP618  TYR619  PRO620  LYS621  CYS622 
 ASP623  PHE694  ASN695  SER759  ASP760  ASP761  ALA762  ILE779  LEU786  VAL792 
 PHE793  MET794  SER795  GLU796  ALA797  LYS798  CYS799  TRP800  GLU811  SER814 

> <Gold.Protein.RotatedAtoms>
  150.8515  134.7841  159.7012 H   0  0  0  0  0  0  0  0  0  0  0  0  # atno 6907 bound_to 6896
  152.4579  134.5248  159.9803 H   0  0  0  0  0  0  0  0  0  0  0  0  # atno 6908 bound_to 6896
  151.5368  133.3401  159.2964 H   0  0  0  0  0  0  0  0  0  0  0  0  # atno 6909 bound_to 6896
  144.8485  139.6201  143.5984 H   0  0  0  0  0  0  0  0  0  0  0  0  # atno 7974 bound_to 7965
  154.8594  140.0427  157.1656 H   0  0  0  0  0  0  0  0  0  0  0  0  # atno 8008 bound_to 7997
  154.8856  140.2979  155.5379 H   0  0  0  0  0  0  0  0  0  0  0  0  # atno 8009 bound_to 7997
  156.2998  140.2403  156.3865 H   0  0  0  0  0  0  0  0  0  0  0  0  # atno 8010 bound_to 7997
  139.6794  143.9607  152.2328 H   0  0  0  0  0  0  0  0  0  0  0  0  # atno 10167 bound_to 10162
  156.5529  130.4706  149.6443 H   0  0  0  0  0  0  0  0  0  0  0  0  # atno 10718 bound_to 10713
  152.9879  135.5594  154.5608 H   0  0  0  0  0  0  0  0  0  0  0  0  # atno 10763 bound_to 10752
  154.5027  135.2798  155.1409 H   0  0  0  0  0  0  0  0  0  0  0  0  # atno 10764 bound_to 10752
  154.2833  135.6340  153.5409 H   0  0  0  0  0  0  0  0  0  0  0  0  # atno 10765 bound_to 10752
  140.3456  134.2285  155.7685 H   0  0  0  0  0  0  0  0  0  0  0  0  # atno 11005 bound_to 11000
  146.2765  139.6766  142.9259 LP  0  0  0  0  0  0  0  0  0  0  0  0  # atno 17320 bound_to 7965
  145.4547  141.0430  143.2785 LP  0  0  0  0  0  0  0  0  0  0  0  0  # atno 17321 bound_to 7965
  139.9393  144.6692  150.8282 LP  0  0  0  0  0  0  0  0  0  0  0  0  # atno 17342 bound_to 10162
  140.7647  143.3255  151.2525 LP  0  0  0  0  0  0  0  0  0  0  0  0  # atno 17343 bound_to 10162
  156.2868  130.7102  151.1940 LP  0  0  0  0  0  0  0  0  0  0  0  0  # atno 17370 bound_to 10713
  157.7384  131.0541  150.5298 LP  0  0  0  0  0  0  0  0  0  0  0  0  # atno 17371 bound_to 10713
  141.2026  133.7932  157.0380 LP  0  0  0  0  0  0  0  0  0  0  0  0  # atno 17394 bound_to 11000
  140.0745  134.9683  157.1523 LP  0  0  0  0  0  0  0  0  0  0  0  0  # atno 17395 bound_to 11000

$$$$
