AV-unprocessed.smi:213|AV-procd|sdf|1646|dock6
  -GOLD-   2262020 23D 1   1.00000     0.00000
 Structure written by MMmdl.
 58 61  0  0  0  0  0  0  0  0  1 V2000
  151.5682  140.0724  155.6165 C   0  0  0  0  0  0  0  0  0  0  0  0
  150.1381  140.3295  156.1339 C   0  0  1  0  0  0  0  0  0  0  0  0
  149.9908  141.7135  156.8123 C   0  0  0  0  0  0  0  0  0  0  0  0
  151.1933  142.2385  157.4617 N   0  0  0  0  0  0  0  0  0  0  0  0
  151.4406  141.5535  158.7259 C   0  0  0  0  0  0  0  0  0  0  0  0
  152.7130  142.0655  159.4207 C   0  0  0  0  0  0  0  0  0  0  0  0
  152.6072  143.4699  159.6253 O   0  0  0  0  0  0  0  0  0  0  0  0
  152.4162  144.1850  158.4093 C   0  0  0  0  0  0  0  0  0  0  0  0
  151.1493  143.6783  157.6973 C   0  0  0  0  0  0  0  0  0  0  0  0
  149.1792  140.1817  155.0350 N   0  0  0  0  0  0  0  0  0  0  0  0
  148.8179  141.3249  154.1985 C   0  0  0  0  0  0  0  0  0  0  0  0
  148.4515  139.0411  154.8892 C   0  0  0  0  0  0  0  0  0  0  0  0
  148.6615  138.0409  155.7865 N   0  0  0  0  0  0  0  0  0  0  0  0
  147.9750  136.8980  155.7067 C   0  0  0  0  0  0  0  0  0  0  0  0
  147.0458  136.5440  154.8185 N   0  0  0  0  0  0  0  0  0  0  0  0
  146.8356  137.5338  153.9053 C   0  0  0  0  0  0  0  0  0  0  0  0
  147.4861  138.8015  153.8639 C   0  0  0  0  0  0  0  0  0  0  0  0
  147.0135  139.5251  152.7736 N   0  0  0  0  0  0  0  0  0  0  0  0
  146.1323  138.7424  152.2158 C   0  0  0  0  0  0  0  0  0  0  0  0
  145.9637  137.5248  152.8315 N   0  0  0  0  0  0  0  0  0  0  0  0
  145.0603  136.4613  152.4288 C   0  0  0  0  0  0  0  0  0  0  0  0
  145.6129  135.6315  151.2531 C   0  0  2  0  0  0  0  0  0  0  0  0
  145.1062  136.1509  150.0377 O   0  0  0  0  0  0  0  0  0  0  0  0
  145.2272  134.1442  151.3568 C   0  0  1  0  0  0  0  0  0  0  0  0
  143.7228  133.8802  151.3837 C   0  0  0  0  0  0  0  0  0  0  0  0
  143.6541  132.4223  150.9816 C   0  0  0  0  0  0  0  0  0  0  0  0
  144.8409  132.2702  150.0282 C   0  0  0  0  0  0  0  0  0  0  0  0
  145.6431  133.4366  150.1956 O   0  0  0  0  0  0  0  0  0  0  0  0
  152.3048  140.0893  156.4173 H   0  0  0  0  0  0  0  0  0  0  0  0
  151.8764  140.8186  154.8841 H   0  0  0  0  0  0  0  0  0  0  0  0
  151.6369  139.0943  155.1393 H   0  0  0  0  0  0  0  0  0  0  0  0
  149.9375  139.5499  156.8681 H   0  0  0  0  0  0  0  0  0  0  0  0
  149.5997  142.4404  156.0990 H   0  0  0  0  0  0  0  0  0  0  0  0
  149.2208  141.6255  157.5807 H   0  0  0  0  0  0  0  0  0  0  0  0
  150.5877  141.6889  159.3927 H   0  0  0  0  0  0  0  0  0  0  0  0
  151.5340  140.4807  158.5541 H   0  0  0  0  0  0  0  0  0  0  0  0
  152.8439  141.5735  160.3844 H   0  0  0  0  0  0  0  0  0  0  0  0
  153.5974  141.8413  158.8222 H   0  0  0  0  0  0  0  0  0  0  0  0
  152.3264  145.2484  158.6315 H   0  0  0  0  0  0  0  0  0  0  0  0
  153.2914  144.0644  157.7690 H   0  0  0  0  0  0  0  0  0  0  0  0
  151.0612  144.2091  156.7508 H   0  0  0  0  0  0  0  0  0  0  0  0
  150.2699  143.9312  158.2912 H   0  0  0  0  0  0  0  0  0  0  0  0
  147.7392  141.3741  154.0437 H   0  0  0  0  0  0  0  0  0  0  0  0
  149.3037  141.2491  153.2254 H   0  0  0  0  0  0  0  0  0  0  0  0
  149.1243  142.2641  154.6586 H   0  0  0  0  0  0  0  0  0  0  0  0
  148.2029  136.1621  156.4636 H   0  0  0  0  0  0  0  0  0  0  0  0
  145.5835  139.0322  151.3317 H   0  0  0  0  0  0  0  0  0  0  0  0
  144.8854  135.8219  153.2948 H   0  0  0  0  0  0  0  0  0  0  0  0
  144.0967  136.9011  152.1676 H   0  0  0  0  0  0  0  0  0  0  0  0
  146.6998  135.7202  151.2291 H   0  0  0  0  0  0  0  0  0  0  0  0
  145.4067  135.6029  149.3290 H   0  0  0  0  0  0  0  0  0  0  0  0
  145.6974  133.6850  152.2287 H   0  0  0  0  0  0  0  0  0  0  0  0
  143.2714  134.0740  152.3573 H   0  0  0  0  0  0  0  0  0  0  0  0
  143.2128  134.4965  150.6415 H   0  0  0  0  0  0  0  0  0  0  0  0
  143.7971  131.7883  151.8578 H   0  0  0  0  0  0  0  0  0  0  0  0
  142.7025  132.1543  150.5216 H   0  0  0  0  0  0  0  0  0  0  0  0
  145.4173  131.3728  150.2553 H   0  0  0  0  0  0  0  0  0  0  0  0
  144.5132  132.2089  148.9901 H   0  0  0  0  0  0  0  0  0  0  0  0
  1  2  1  0  0  0  0
  1 29  1  0  0  0  0
  1 30  1  0  0  0  0
  1 31  1  0  0  0  0
  2  3  1  0  0  0  0
  2 10  1  0  0  0  0
  2 32  1  0  0  0  0
  3  4  1  0  0  0  0
  3 33  1  0  0  0  0
  3 34  1  0  0  0  0
  4  9  1  0  0  0  0
  4  5  1  0  0  0  0
  5  6  1  0  0  0  0
  5 35  1  0  0  0  0
  5 36  1  0  0  0  0
  6  7  1  0  0  0  0
  6 37  1  0  0  0  0
  6 38  1  0  0  0  0
  7  8  1  0  0  0  0
  8  9  1  0  0  0  0
  8 39  1  0  0  0  0
  8 40  1  0  0  0  0
  9 41  1  0  0  0  0
  9 42  1  0  0  0  0
 10 11  1  0  0  0  0
 10 12  1  0  0  0  0
 11 43  1  0  0  0  0
 11 44  1  0  0  0  0
 11 45  1  0  0  0  0
 12 17  1  0  0  0  0
 12 13  2  0  0  0  0
 13 14  1  0  0  0  0
 14 15  2  0  0  0  0
 14 46  1  0  0  0  0
 15 16  1  0  0  0  0
 16 20  1  0  0  0  0
 16 17  2  0  0  0  0
 17 18  1  0  0  0  0
 18 19  2  0  0  0  0
 19 20  1  0  0  0  0
 19 47  1  0  0  0  0
 20 21  1  0  0  0  0
 21 22  1  0  0  0  0
 21 48  1  0  0  0  0
 21 49  1  0  0  0  0
 22 23  1  0  0  0  0
 22 24  1  0  0  0  0
 22 50  1  0  0  0  0
 23 51  1  0  0  0  0
 24 28  1  0  0  0  0
 24 25  1  0  0  0  0
 24 52  1  0  0  0  0
 25 26  1  0  0  0  0
 25 53  1  0  0  0  0
 25 54  1  0  0  0  0
 26 27  1  0  0  0  0
 26 55  1  0  0  0  0
 26 56  1  0  0  0  0
 27 28  1  0  0  0  0
 27 57  1  0  0  0  0
 27 58  1  0  0  0  0
M  END
> <s_m_source_file>
AV-unprocessed.smi

> <i_m_source_file_index>
213

> <i_lp_mmshare_version>
43012

> <i_f3d_flags>
0

> <s_epik_input>
W0NIMl0xW0NIMl1PW0NIMl1bQ0gyXU4xW0NIMl1bQ0BASF0oW0NIM10pTihbQ0gzXSljKG5bY0hdbjIpYyhjMjMpbltjSF1uM1tDSDJdW0NASF0oW09IXSlbQ0BASF00W0NIMl1bQ0gyXVtDSDJdTzQ=

> <s_epik_cmdline>
J2VwaWtfcHl0aG9uJywgJy1waCcsICc3LjAnLCAnLXRuJywgJzgnLCAnLW1hJywgJzIwMCcsICctbWV0YWxfYmluZGluZycsICctaW1hZScsICc8aW5maWxlLm1hZT4nLCAnLW9tYWUnLCAnPG91dGZpbGUubWFlPic=

> <r_lp_tautomer_probability>
1

> <r_epik_Ionization_Penalty>
0.423322

> <r_epik_Ionization_Penalty_Charging>
0

> <r_epik_Ionization_Penalty_Neutral>
0.423322

> <r_epik_State_Penalty>
0.569486

> <r_epik_Charging_Adjusted_Penalty>
0.569486

> <i_epik_Tot_Q>
0

> <i_epik_Tot_abs_Q>
0

> <r_epik_Metal_State_Penalty>
0.568671

> <b_epik_Metal_Only>
0

> <s_lp_Force_Field>
OPLS_2005

> <r_lp_Energy>
53.3549

> <b_lp_Chiralities_Consistent>
1

> <s_lp_Variant>
AV-unprocessed.smi:213-14

> <Gold.Version>
5.8.1

> <Gold.Id.Protein>
6NUR|6NUR_protein|mol2

> <Gold.PLP.Fitness>
50.5367

> <Gold.PLP.PLP>
-47.2659

> <Gold.PLP.part.hbond>
-2.0000

> <Gold.PLP.part.metal>
0.0000

> <Gold.PLP.part.buried>
-6.3343

> <Gold.PLP.part.nonpolar>
-42.7088

> <Gold.PLP.part.repulsive>
2.4739

> <Gold.PLP.ligand.clash>
0.0000

> <Gold.PLP.ligand.torsion>
1.8441

> <Gold.PLP.Chemscore.Hbond>
1.0000

> <Gold.PLP.Chemscore.CHOScore>
1.2100

> <Gold.PLP.Chemscore.Metal>
0.0000

> <Gold.Chemscore.Hbonds>
donor molecule, donor type, donor heavy atom, donor atom, acceptor molecule, acceptor atom, score
      L1  H    23    51       P1  7921  1.00
      L1  C    19    47       P1 10171  1.00
      L1  C    19    47       P1 10175  0.32

> <Gold.PLP.Chemscore.Internal.Correction>
0.3287

> <Gold.Rescore>
     Score         DG    S(hbond)    S(metal)    S(lipo)     H(rot)  DE(clash)    DE(int)     intcor
     11.56     -15.25       0.98        0.00     115.51       2.74       0.41       3.28       ----

> <Gold.Chemscore.Fitness>
11.5639

> <Gold.Chemscore.DG>
-15.2490

> <Gold.Chemscore.ZeroCoef>
-5.4800

> <Gold.Chemscore.Hbond>
0.9770

> <Gold.Chemscore.Metal>
0.0000

> <Gold.Chemscore.Lipo>
115.5081

> <Gold.Chemscore.Internal_Hbond>
0.0000

> <Gold.Chemscore.DEClash>
0.4063

> <Gold.Chemscore.DEInternal>
3.2788

> <Gold.Chemscore.Rot>
2.7378

> <Gold.Chemscore.Internal.Correction>
   9.000000E+99

> <Gold.Chemscore.Hbonds>
donor molecule, donor type, donor heavy atom, donor atom, acceptor molecule, acceptor atom, score
      L1  H    23    51       P1  7921  0.97

> <Gold.Chemscore.Hbond.Weighted>
-3.2632

> <Gold.Chemscore.Metal.Weighted>
-0.0000

> <Gold.Chemscore.Lipo.Weighted>
-13.5144

> <Gold.Chemscore.Internal_Hbond.Weighted>
0.0000

> <Gold.Chemscore.DEClash.Weighted>
0.4063

> <Gold.Chemscore.DEInternal.Weighted>
3.2788

> <Gold.Chemscore.Rot.Weighted>
7.0087

> <Gold.Chemscore.Internal.Correction.Weighted>
   9.000000E+99

> <Gold.Protein.RotatedTorsions>
[ 6907 6896 6895 6894 ] final    6.28 input  -60.11 | X-H torsion
[ 7974 7965 7964 7962 ] final -149.03 input  175.53 | X-H torsion
[ 8008 7997 7996 7995 ] final   69.97 input   59.86 | X-H torsion
[ 10167 10162 10161 10158 ] final   49.67 input  -65.29 | X-H torsion
[ 10718 10713 10712 10709 ] final   74.16 input   66.30 | X-H torsion
[ 10763 10752 10751 10750 ] final  -60.17 input  -60.55 | X-H torsion
[ 11005 11000 10999 10996 ] final   -1.90 input  -57.11 | X-H torsion

> <Gold.Protein.ActiveResidues>
 VAL166  LYS551  ARG553  GLY616  TRP617  ASP618  TYR619  PRO620  LYS621  CYS622 
 ASP623  PHE694  ASN695  SER759  ASP760  ASP761  ALA762  ILE779  LEU786  VAL792 
 PHE793  MET794  SER795  GLU796  ALA797  LYS798  CYS799  TRP800  GLU811  SER814 

> <Gold.Protein.RotatedAtoms>
  151.6712  135.0976  160.0197 H   0  0  0  0  0  0  0  0  0  0  0  0  # atno 6907 bound_to 6896
  152.3890  133.6648  159.6231 H   0  0  0  0  0  0  0  0  0  0  0  0  # atno 6908 bound_to 6896
  150.7810  133.8902  159.3352 H   0  0  0  0  0  0  0  0  0  0  0  0  # atno 6909 bound_to 6896
  144.7992  140.5118  143.5719 H   0  0  0  0  0  0  0  0  0  0  0  0  # atno 7974 bound_to 7965
  155.7318  140.3492  155.5063 H   0  0  0  0  0  0  0  0  0  0  0  0  # atno 8008 bound_to 7997
  155.9176  140.1061  157.1253 H   0  0  0  0  0  0  0  0  0  0  0  0  # atno 8009 bound_to 7997
  154.4065  140.1256  156.4624 H   0  0  0  0  0  0  0  0  0  0  0  0  # atno 8010 bound_to 7997
  140.2804  144.3162  150.6266 H   0  0  0  0  0  0  0  0  0  0  0  0  # atno 10167 bound_to 10162
  157.6580  130.9664  150.1171 H   0  0  0  0  0  0  0  0  0  0  0  0  # atno 10718 bound_to 10713
  154.2650  135.6301  153.5288 H   0  0  0  0  0  0  0  0  0  0  0  0  # atno 10763 bound_to 10752
  152.9889  135.5596  154.5663 H   0  0  0  0  0  0  0  0  0  0  0  0  # atno 10764 bound_to 10752
  154.5220  135.2883  155.1229 H   0  0  0  0  0  0  0  0  0  0  0  0  # atno 10765 bound_to 10752
  140.6525  133.9392  155.8388 H   0  0  0  0  0  0  0  0  0  0  0  0  # atno 11005 bound_to 11000
  145.5595  139.1479  143.3349 LP  0  0  0  0  0  0  0  0  0  0  0  0  # atno 17320 bound_to 7965
  146.2269  140.5732  142.8992 LP  0  0  0  0  0  0  0  0  0  0  0  0  # atno 17321 bound_to 7965
  140.5816  143.2172  151.7418 LP  0  0  0  0  0  0  0  0  0  0  0  0  # atno 17342 bound_to 10162
  139.4964  144.4072  152.0119 LP  0  0  0  0  0  0  0  0  0  0  0  0  # atno 17343 bound_to 10162
  156.2052  130.3663  149.8738 LP  0  0  0  0  0  0  0  0  0  0  0  0  # atno 17370 bound_to 10713
  156.6631  130.8790  151.3550 LP  0  0  0  0  0  0  0  0  0  0  0  0  # atno 17371 bound_to 10713
  141.0526  134.0462  157.3763 LP  0  0  0  0  0  0  0  0  0  0  0  0  # atno 17394 bound_to 11000
  139.9041  135.0174  156.7405 LP  0  0  0  0  0  0  0  0  0  0  0  0  # atno 17395 bound_to 11000

$$$$
