AV-unprocessed.smi:506|AV-procd|sdf|2751|dock6
  -GOLD-   2262023223D 1   1.00000     0.00000
 Structure written by MMmdl.
 41 43  0  0  0  0  0  0  0  0  2 V2000
  155.9126  139.1241  164.5890 C   0  0  0  0  0  0  0  0  0  0  0  0
  155.2598  138.0009  164.0153 O   0  0  0  0  0  0  0  0  0  0  0  0
  154.6978  138.1466  162.7651 C   0  0  0  0  0  0  0  0  0  0  0  0
  154.0556  137.0199  162.2154 C   0  0  0  0  0  0  0  0  0  0  0  0
  153.4515  137.0828  160.9456 C   0  0  0  0  0  0  0  0  0  0  0  0
  153.4751  138.2740  160.1940 C   0  0  0  0  0  0  0  0  0  0  0  0
  152.8544  138.2510  158.9637 O   0  0  0  0  0  0  0  0  0  0  0  0
  152.8142  139.4535  158.2093 C   0  0  0  0  0  0  0  0  0  0  0  0
  151.3504  139.7751  157.8857 C   0  0  0  0  0  0  0  0  0  0  0  0
  151.1681  141.1871  157.5270 N   0  0  0  0  0  0  0  0  0  0  0  0
  150.5151  141.7505  156.4704 C   0  0  0  0  0  0  0  0  0  0  0  0
  149.7980  141.0220  155.3784 C   0  0  0  0  0  0  0  0  0  0  0  0
  150.6418  140.1782  154.6231 O   0  0  0  0  0  0  0  0  0  0  0  0
  150.6384  143.1029  156.5983 N   0  3  0  0  0  0  0  0  0  0  0  0
  151.3691  143.4061  157.7476 C   0  0  0  0  0  0  0  0  0  0  0  0
  151.7470  144.6295  158.2922 C   0  0  0  0  0  0  0  0  0  0  0  0
  152.4911  144.5863  159.4897 C   0  0  0  0  0  0  0  0  0  0  0  0
  152.8301  143.3610  160.0998 C   0  0  0  0  0  0  0  0  0  0  0  0
  152.4421  142.1267  159.5379 C   0  0  0  0  0  0  0  0  0  0  0  0
  151.7094  142.1788  158.3523 C   0  0  0  0  0  0  0  0  0  0  0  0
  154.1244  139.4085  160.7403 C   0  0  0  0  0  0  0  0  0  0  0  0
  154.7281  139.3457  162.0114 C   0  0  0  0  0  0  0  0  0  0  0  0
  156.2973  138.8529  165.5721 H   0  0  0  0  0  0  0  0  0  0  0  0
  155.2243  139.9598  164.7229 H   0  0  0  0  0  0  0  0  0  0  0  0
  156.7594  139.4464  163.9814 H   0  0  0  0  0  0  0  0  0  0  0  0
  154.0231  136.0963  162.7745 H   0  0  0  0  0  0  0  0  0  0  0  0
  152.9625  136.2067  160.5456 H   0  0  0  0  0  0  0  0  0  0  0  0
  153.2502  140.2742  158.7810 H   0  0  0  0  0  0  0  0  0  0  0  0
  153.3852  139.3379  157.2866 H   0  0  0  0  0  0  0  0  0  0  0  0
  150.9786  139.1500  157.0732 H   0  0  0  0  0  0  0  0  0  0  0  0
  150.7195  139.5662  158.7503 H   0  0  0  0  0  0  0  0  0  0  0  0
  148.9966  140.4248  155.8142 H   0  0  0  0  0  0  0  0  0  0  0  0
  149.3356  141.7470  154.7078 H   0  0  0  0  0  0  0  0  0  0  0  0
  150.1347  139.4403  154.3198 H   0  0  0  0  0  0  0  0  0  0  0  0
  151.4866  145.5695  157.8277 H   0  0  0  0  0  0  0  0  0  0  0  0
  152.8073  145.5112  159.9501 H   0  0  0  0  0  0  0  0  0  0  0  0
  153.3996  143.3677  161.0180 H   0  0  0  0  0  0  0  0  0  0  0  0
  152.7052  141.1938  160.0141 H   0  0  0  0  0  0  0  0  0  0  0  0
  154.1732  140.3436  160.2037 H   0  0  0  0  0  0  0  0  0  0  0  0
  155.2088  140.2360  162.3875 H   0  0  0  0  0  0  0  0  0  0  0  0
  150.2435  143.7658  155.9434 H   0  0  0  0  0  0  0  0  0  0  0  0
  1  2  1  0  0  0  0
  1 23  1  0  0  0  0
  1 24  1  0  0  0  0
  1 25  1  0  0  0  0
  2  3  1  0  0  0  0
  3 22  1  0  0  0  0
  3  4  2  0  0  0  0
  4  5  1  0  0  0  0
  4 26  1  0  0  0  0
  5  6  2  0  0  0  0
  5 27  1  0  0  0  0
  6  7  1  0  0  0  0
  6 21  1  0  0  0  0
  7  8  1  0  0  0  0
  8  9  1  0  0  0  0
  8 28  1  0  0  0  0
  8 29  1  0  0  0  0
  9 10  1  0  0  0  0
  9 30  1  0  0  0  0
  9 31  1  0  0  0  0
 10 20  1  0  0  0  0
 10 11  1  0  0  0  0
 11 12  1  0  0  0  0
 11 14  2  0  0  0  0
 12 13  1  0  0  0  0
 12 32  1  0  0  0  0
 12 33  1  0  0  0  0
 13 34  1  0  0  0  0
 14 15  1  0  0  0  0
 14 41  1  0  0  0  0
 15 20  2  0  0  0  0
 15 16  1  0  0  0  0
 16 17  2  0  0  0  0
 16 35  1  0  0  0  0
 17 18  1  0  0  0  0
 17 36  1  0  0  0  0
 18 19  2  0  0  0  0
 18 37  1  0  0  0  0
 19 20  1  0  0  0  0
 19 38  1  0  0  0  0
 21 22  2  0  0  0  0
 21 39  1  0  0  0  0
 22 40  1  0  0  0  0
M  CHG  1  14   1
M  END
> <s_m_source_file>
AV-unprocessed.smi

> <i_m_source_file_index>
506

> <i_lp_mmshare_version>
43012

> <i_f3d_flags>
0

> <s_epik_input>
W0NIM11PYzFbY0hdW2NIXWMoW2NIXVtjSF0xKU9bQ0gyXVtDSDJdbihjKG4yKVtDSDJdW09IXSljKGMyMylbY0hdW2NIXVtjSF1bY0hdMw==

> <s_epik_cmdline>
J2VwaWtfcHl0aG9uJywgJy1waCcsICc3LjAnLCAnLXRuJywgJzgnLCAnLW1hJywgJzIwMCcsICctbWV0YWxfYmluZGluZycsICctaW1hZScsICc8aW5maWxlLm1hZT4nLCAnLW9tYWUnLCAnPG91dGZpbGUubWFlPic=

> <r_lp_tautomer_probability>
1

> <r_epik_Ionization_Penalty>
1.51027

> <r_epik_Ionization_Penalty_Charging>
1.50942

> <r_epik_Ionization_Penalty_Neutral>
0.000855784

> <r_epik_State_Penalty>
1.60032

> <r_epik_Charging_Adjusted_Penalty>
3.10973

> <i_epik_Tot_Q>
1

> <i_epik_Tot_abs_Q>
1

> <r_epik_Metal_State_Penalty>
5.65193

> <b_epik_Metal_Only>
0

> <s_lp_Force_Field>
OPLS_2005

> <r_lp_Energy>
22.2088

> <b_lp_Chiralities_Consistent>
1

> <s_lp_Variant>
AV-unprocessed.smi:506-2

> <Gold.Version>
5.8.1

> <Gold.Id.Protein>
6NUR|6NUR_protein|mol2

> <Gold.PLP.Fitness>
54.7887

> <Gold.PLP.PLP>
-47.7453

> <Gold.PLP.part.hbond>
-2.0000

> <Gold.PLP.part.metal>
0.0000

> <Gold.PLP.part.buried>
-6.5149

> <Gold.PLP.part.nonpolar>
-39.7667

> <Gold.PLP.part.repulsive>
0.0948

> <Gold.PLP.ligand.clash>
0.0000

> <Gold.PLP.ligand.torsion>
0.5793

> <Gold.PLP.Chemscore.Hbond>
2.7280

> <Gold.PLP.Chemscore.CHOScore>
0.0000

> <Gold.PLP.Chemscore.Metal>
0.0000

> <Gold.Chemscore.Hbonds>
donor molecule, donor type, donor heavy atom, donor atom, acceptor molecule, acceptor atom, score
      L1  H    14    41       P1  8028  1.73
      P1  H  7989  7998       L1    13  1.00

> <Gold.PLP.Chemscore.Internal.Correction>
0.0179

> <Gold.Rescore>
     Score         DG    S(hbond)    S(metal)    S(lipo)     H(rot)  DE(clash)    DE(int)     intcor
     18.81     -20.54       1.88        0.00     130.58       2.54       0.01       1.71       ----

> <Gold.Chemscore.Fitness>
18.8090

> <Gold.Chemscore.DG>
-20.5365

> <Gold.Chemscore.ZeroCoef>
-5.4800

> <Gold.Chemscore.Hbond>
1.8828

> <Gold.Chemscore.Metal>
0.0000

> <Gold.Chemscore.Lipo>
130.5842

> <Gold.Chemscore.Internal_Hbond>
0.0000

> <Gold.Chemscore.DEClash>
0.0128

> <Gold.Chemscore.DEInternal>
1.7147

> <Gold.Chemscore.Rot>
2.5431

> <Gold.Chemscore.Internal.Correction>
   9.000000E+99

> <Gold.Chemscore.Hbonds>
donor molecule, donor type, donor heavy atom, donor atom, acceptor molecule, acceptor atom, score
      L1  H    14    41       P1  8028  0.86
      P1  H  7989  7998       L1    13  0.86

> <Gold.Chemscore.Hbond.Weighted>
-6.2885

> <Gold.Chemscore.Metal.Weighted>
-0.0000

> <Gold.Chemscore.Lipo.Weighted>
-15.2783

> <Gold.Chemscore.Internal_Hbond.Weighted>
0.0000

> <Gold.Chemscore.DEClash.Weighted>
0.0128

> <Gold.Chemscore.DEInternal.Weighted>
1.7147

> <Gold.Chemscore.Rot.Weighted>
6.5103

> <Gold.Chemscore.Internal.Correction.Weighted>
   9.000000E+99

> <Gold.Protein.RotatedTorsions>
[ 6907 6896 6895 6894 ] final   -9.51 input  -60.11 | X-H torsion
[ 7974 7965 7964 7962 ] final   41.47 input  175.53 | X-H torsion
[ 8008 7997 7996 7995 ] final  112.98 input   59.86 | X-H torsion
[ 10167 10162 10161 10158 ] final  137.98 input  -65.29 | X-H torsion
[ 10718 10713 10712 10709 ] final    1.12 input   66.30 | X-H torsion
[ 10763 10752 10751 10750 ] final   35.73 input  -60.55 | X-H torsion
[ 11005 11000 10999 10996 ] final   87.17 input  -57.11 | X-H torsion

> <Gold.Protein.ActiveResidues>
 VAL166  LYS551  ARG553  GLY616  TRP617  ASP618  TYR619  PRO620  LYS621  CYS622 
 ASP623  PHE694  ASN695  SER759  ASP760  ASP761  ALA762  ILE779  LEU786  VAL792 
 PHE793  MET794  SER795  GLU796  ALA797  LYS798  CYS799  TRP800  GLU811  SER814 

> <Gold.Protein.RotatedAtoms>
  151.4166  135.0992  159.9601 H   0  0  0  0  0  0  0  0  0  0  0  0  # atno 6907 bound_to 6896
  152.5002  133.8747  159.7326 H   0  0  0  0  0  0  0  0  0  0  0  0  # atno 6908 bound_to 6896
  150.9253  133.6774  159.2851 H   0  0  0  0  0  0  0  0  0  0  0  0  # atno 6909 bound_to 6896
  146.0820  139.5412  142.9530 H   0  0  0  0  0  0  0  0  0  0  0  0  # atno 7974 bound_to 7965
  156.2228  140.2988  155.9994 H   0  0  0  0  0  0  0  0  0  0  0  0  # atno 8008 bound_to 7997
  155.2436  140.0423  157.2995 H   0  0  0  0  0  0  0  0  0  0  0  0  # atno 8009 bound_to 7997
  154.5868  140.2390  155.7984 H   0  0  0  0  0  0  0  0  0  0  0  0  # atno 8010 bound_to 7997
  139.5126  144.6379  151.5647 H   0  0  0  0  0  0  0  0  0  0  0  0  # atno 10167 bound_to 10162
  156.8435  130.5529  149.5675 H   0  0  0  0  0  0  0  0  0  0  0  0  # atno 10718 bound_to 10713
  153.0107  135.6325  154.1873 H   0  0  0  0  0  0  0  0  0  0  0  0  # atno 10763 bound_to 10752
  154.1615  135.2823  155.3109 H   0  0  0  0  0  0  0  0  0  0  0  0  # atno 10764 bound_to 10752
  154.5978  135.5597  153.7404 H   0  0  0  0  0  0  0  0  0  0  0  0  # atno 10765 bound_to 10752
  139.8926  134.8404  156.2822 H   0  0  0  0  0  0  0  0  0  0  0  0  # atno 11005 bound_to 11000
  145.6199  141.0324  143.1920 LP  0  0  0  0  0  0  0  0  0  0  0  0  # atno 17320 bound_to 7965
  144.7300  139.7755  143.7351 LP  0  0  0  0  0  0  0  0  0  0  0  0  # atno 17321 bound_to 7965
  140.6135  143.9392  150.6471 LP  0  0  0  0  0  0  0  0  0  0  0  0  # atno 17342 bound_to 10162
  140.2642  143.3502  152.1296 LP  0  0  0  0  0  0  0  0  0  0  0  0  # atno 17343 bound_to 10162
  156.0867  130.5864  150.9661 LP  0  0  0  0  0  0  0  0  0  0  0  0  # atno 17370 bound_to 10713
  157.6342  131.0918  150.8381 LP  0  0  0  0  0  0  0  0  0  0  0  0  # atno 17371 bound_to 10713
  141.0031  133.7139  156.0992 LP  0  0  0  0  0  0  0  0  0  0  0  0  # atno 17394 bound_to 11000
  140.7470  134.4087  157.5547 LP  0  0  0  0  0  0  0  0  0  0  0  0  # atno 17395 bound_to 11000

$$$$
