AV-unprocessed.smi:1295|AV-procd|sdf|5406|dock3
  -GOLD-   22720 4563D 1   1.00000     0.00000
 Structure written by MMmdl.
 43 44  0  0  0  0  0  0  0  0  1 V2000
  151.2466  134.3987  156.4684 C   0  0  0  0  0  0  0  0  0  0  0  0
  151.0715  135.8409  156.8923 C   0  0  0  0  0  0  0  0  0  0  0  0
  151.3784  136.7545  155.8975 N   0  0  0  0  0  0  0  0  0  0  0  0
  151.2471  138.1002  156.1915 C   0  0  0  0  0  0  0  0  0  0  0  0
  151.6014  139.0343  155.0470 C   0  0  0  0  0  0  0  0  0  0  0  0
  150.8357  138.5146  157.4168 C   0  0  0  0  0  0  0  0  0  0  0  0
  150.6847  139.9906  157.7805 C   0  0  0  0  0  0  0  0  0  0  0  0
  151.9833  140.7159  158.1407 C   0  0  0  0  0  0  0  0  0  0  0  0
  153.0625  140.1300  158.0562 O   0  0  0  0  0  0  0  0  0  0  0  0
  151.8601  141.9924  158.5358 N   0  0  0  0  0  0  0  0  0  0  0  0
  152.9548  142.8981  158.8902 C   0  0  1  0  0  0  0  0  0  0  0  0
  152.7067  144.2817  158.2566 C   0  0  0  0  0  0  0  0  0  0  0  0
  151.5294  145.0205  158.9166 C   0  0  0  0  0  0  0  0  0  0  0  0
  151.7257  145.1352  160.4356 C   0  0  0  0  0  0  0  0  0  0  0  0
  151.9527  143.7570  161.0775 C   0  0  0  0  0  0  0  0  0  0  0  0
  153.1376  143.0146  160.4255 C   0  0  1  0  0  0  0  0  0  0  0  0
  153.4018  141.6620  161.1090 C   0  0  0  0  0  0  0  0  0  0  0  0
  150.5284  137.4899  158.4427 C   0  0  0  0  0  0  0  0  0  0  0  0
  150.1625  137.8012  159.5753 O   0  0  0  0  0  0  0  0  0  0  0  0
  150.6709  136.1377  158.0910 N   0  0  0  0  0  0  0  0  0  0  0  0
  151.6918  136.4892  154.9749 H   0  0  0  0  0  0  0  0  0  0  0  0
  150.8526  133.7191  157.2251 H   0  0  0  0  0  0  0  0  0  0  0  0
  152.3034  134.1733  156.3230 H   0  0  0  0  0  0  0  0  0  0  0  0
  150.7192  134.2078  155.5332 H   0  0  0  0  0  0  0  0  0  0  0  0
  150.7390  139.6395  154.7675 H   0  0  0  0  0  0  0  0  0  0  0  0
  151.9226  138.4824  154.1629 H   0  0  0  0  0  0  0  0  0  0  0  0
  152.4132  139.7023  155.3363 H   0  0  0  0  0  0  0  0  0  0  0  0
  149.9843  140.1182  158.6062 H   0  0  0  0  0  0  0  0  0  0  0  0
  150.2147  140.5014  156.9393 H   0  0  0  0  0  0  0  0  0  0  0  0
  150.9286  142.3799  158.5783 H   0  0  0  0  0  0  0  0  0  0  0  0
  153.8859  142.5162  158.4678 H   0  0  0  0  0  0  0  0  0  0  0  0
  153.6079  144.8878  158.3572 H   0  0  0  0  0  0  0  0  0  0  0  0
  152.5301  144.1795  157.1850 H   0  0  0  0  0  0  0  0  0  0  0  0
  151.4249  146.0144  158.4805 H   0  0  0  0  0  0  0  0  0  0  0  0
  150.5972  144.4945  158.7066 H   0  0  0  0  0  0  0  0  0  0  0  0
  152.5798  145.7805  160.6453 H   0  0  0  0  0  0  0  0  0  0  0  0
  150.8577  145.6164  160.8867 H   0  0  0  0  0  0  0  0  0  0  0  0
  152.1350  143.8814  162.1455 H   0  0  0  0  0  0  0  0  0  0  0  0
  151.0446  143.1590  160.9904 H   0  0  0  0  0  0  0  0  0  0  0  0
  154.0273  143.6238  160.5922 H   0  0  0  0  0  0  0  0  0  0  0  0
  152.5365  141.0016  161.0472 H   0  0  0  0  0  0  0  0  0  0  0  0
  153.6350  141.7975  162.1653 H   0  0  0  0  0  0  0  0  0  0  0  0
  154.2468  141.1492  160.6491 H   0  0  0  0  0  0  0  0  0  0  0  0
  1 22  1  0  0  0  0
  1 23  1  0  0  0  0
  1 24  1  0  0  0  0
  1  2  1  0  0  0  0
  2  3  1  0  0  0  0
  2 20  2  0  0  0  0
  3  4  1  0  0  0  0
  3 21  1  0  0  0  0
  4  6  2  0  0  0  0
  4  5  1  0  0  0  0
  5 25  1  0  0  0  0
  5 26  1  0  0  0  0
  5 27  1  0  0  0  0
  6 18  1  0  0  0  0
  6  7  1  0  0  0  0
  7  8  1  0  0  0  0
  7 28  1  0  0  0  0
  7 29  1  0  0  0  0
  8  9  2  0  0  0  0
  8 10  1  0  0  0  0
 10 11  1  0  0  0  0
 10 30  1  0  0  0  0
 11 16  1  0  0  0  0
 11 12  1  0  0  0  0
 11 31  1  0  0  0  0
 12 13  1  0  0  0  0
 12 32  1  0  0  0  0
 12 33  1  0  0  0  0
 13 14  1  0  0  0  0
 13 34  1  0  0  0  0
 13 35  1  0  0  0  0
 14 15  1  0  0  0  0
 14 36  1  0  0  0  0
 14 37  1  0  0  0  0
 15 16  1  0  0  0  0
 15 38  1  0  0  0  0
 15 39  1  0  0  0  0
 16 17  1  0  0  0  0
 16 40  1  0  0  0  0
 17 41  1  0  0  0  0
 17 42  1  0  0  0  0
 17 43  1  0  0  0  0
 18 19  2  0  0  0  0
 18 20  1  0  0  0  0
M  END
> <s_m_source_file>
AV-unprocessed.smi

> <i_m_source_file_index>
1295

> <i_lp_mmshare_version>
43012

> <i_f3d_flags>
0

> <s_epik_input>
W0NIM11jMW5jKFtDSDNdKWMoYyg9TylbbkhdMSlbQ0gyXUMoPU8pW05IXVtDQEBIXTJbQ0gyXVtDSDJdW0NIMl1bQ0gyXVtDQEhdMltDSDNd

> <s_epik_cmdline>
J2VwaWtfcHl0aG9uJywgJy1waCcsICc3LjAnLCAnLXRuJywgJzgnLCAnLW1hJywgJzIwMCcsICctbWV0YWxfYmluZGluZycsICctaW1hZScsICc8aW5maWxlLm1hZT4nLCAnLW9tYWUnLCAnPG91dGZpbGUubWFlPic=

> <r_lp_tautomer_probability>
0.156392

> <r_epik_Ionization_Penalty>
0.0136057

> <r_epik_Ionization_Penalty_Charging>
0.0134742

> <r_epik_Ionization_Penalty_Neutral>
0.000131572

> <r_epik_State_Penalty>
1.15342

> <r_epik_Charging_Adjusted_Penalty>
1.16689

> <i_epik_Tot_Q>
0

> <i_epik_Tot_abs_Q>
0

> <r_epik_Metal_State_Penalty>
1.31351

> <b_epik_Metal_Only>
0

> <s_lp_Force_Field>
OPLS_2005

> <r_lp_Energy>
15.3468

> <b_lp_Chiralities_Consistent>
1

> <s_lp_Variant>
AV-unprocessed.smi:1295-6

> <Gold.Version>
5.8.1

> <Gold.Id.Protein>
6NUR|6NUR_protein|mol2

> <Gold.PLP.Fitness>
46.3798

> <Gold.PLP.PLP>
-42.3853

> <Gold.PLP.part.hbond>
-3.0000

> <Gold.PLP.part.metal>
0.0000

> <Gold.PLP.part.buried>
-5.4408

> <Gold.PLP.part.nonpolar>
-34.5570

> <Gold.PLP.part.repulsive>
0.1783

> <Gold.PLP.ligand.clash>
0.0000

> <Gold.PLP.ligand.torsion>
0.5429

> <Gold.PLP.Chemscore.Hbond>
1.6903

> <Gold.PLP.Chemscore.CHOScore>
0.0000

> <Gold.PLP.Chemscore.Metal>
0.0000

> <Gold.Chemscore.Hbonds>
donor molecule, donor type, donor heavy atom, donor atom, acceptor molecule, acceptor atom, score
      P1  H  6896  6907       L1    20  0.67
      P1  H  7997  8008       L1     9  0.99

> <Gold.PLP.Chemscore.Internal.Correction>
0.0093

> <Gold.Rescore>
     Score         DG    S(hbond)    S(metal)    S(lipo)     H(rot)  DE(clash)    DE(int)     intcor
     19.47     -20.11       1.65        0.00     110.32       1.48       0.04       0.60       ----

> <Gold.Chemscore.Fitness>
19.4685

> <Gold.Chemscore.DG>
-20.1116

> <Gold.Chemscore.ZeroCoef>
-5.4800

> <Gold.Chemscore.Hbond>
1.6505

> <Gold.Chemscore.Metal>
0.0000

> <Gold.Chemscore.Lipo>
110.3250

> <Gold.Chemscore.Internal_Hbond>
0.0000

> <Gold.Chemscore.DEClash>
0.0402

> <Gold.Chemscore.DEInternal>
0.6028

> <Gold.Chemscore.Rot>
1.4801

> <Gold.Chemscore.Internal.Correction>
   9.000000E+99

> <Gold.Chemscore.Hbonds>
donor molecule, donor type, donor heavy atom, donor atom, acceptor molecule, acceptor atom, score
      P1  H  6896  6907       L1    20  0.56
      P1  H  7997  8008       L1     9  0.93

> <Gold.Chemscore.Hbond.Weighted>
-5.5127

> <Gold.Chemscore.Metal.Weighted>
-0.0000

> <Gold.Chemscore.Lipo.Weighted>
-12.9080

> <Gold.Chemscore.Internal_Hbond.Weighted>
0.0000

> <Gold.Chemscore.DEClash.Weighted>
0.0402

> <Gold.Chemscore.DEInternal.Weighted>
0.6028

> <Gold.Chemscore.Rot.Weighted>
3.7891

> <Gold.Chemscore.Internal.Correction.Weighted>
   9.000000E+99

> <Gold.Protein.RotatedTorsions>
[ 6907 6896 6895 6894 ] final  -51.28 input  -60.11 | X-H torsion
[ 7974 7965 7964 7962 ] final  171.48 input  175.53 | X-H torsion
[ 8008 7997 7996 7995 ] final  -73.76 input   59.86 | X-H torsion
[ 10167 10162 10161 10158 ] final -161.71 input  -65.29 | X-H torsion
[ 10718 10713 10712 10709 ] final  151.31 input   66.30 | X-H torsion
[ 10763 10752 10751 10750 ] final   23.35 input  -60.55 | X-H torsion
[ 11005 11000 10999 10996 ] final  158.14 input  -57.11 | X-H torsion

> <Gold.Protein.ActiveResidues>
 VAL166  LYS551  ARG553  GLY616  TRP617  ASP618  TYR619  PRO620  LYS621  CYS622 
 ASP623  PHE694  ASN695  SER759  ASP760  ASP761  ALA762  ILE779  LEU786  VAL792 
 PHE793  MET794  SER795  GLU796  ALA797  LYS798  CYS799  TRP800  GLU811  SER814 

> <Gold.Protein.RotatedAtoms>
  150.8626  134.7982  159.7094 H   0  0  0  0  0  0  0  0  0  0  0  0  # atno 6907 bound_to 6896
  152.4658  134.5075  159.9753 H   0  0  0  0  0  0  0  0  0  0  0  0  # atno 6908 bound_to 6896
  151.5176  133.3434  159.2931 H   0  0  0  0  0  0  0  0  0  0  0  0  # atno 6909 bound_to 6896
  144.7293  139.9357  143.6426 H   0  0  0  0  0  0  0  0  0  0  0  0  # atno 7974 bound_to 7965
  154.5274  140.0773  156.8283 H   0  0  0  0  0  0  0  0  0  0  0  0  # atno 8008 bound_to 7997
  155.3447  140.3409  155.4221 H   0  0  0  0  0  0  0  0  0  0  0  0  # atno 8009 bound_to 7997
  156.1746  140.1631  156.8373 H   0  0  0  0  0  0  0  0  0  0  0  0  # atno 8010 bound_to 7997
  139.6445  144.0197  152.2117 H   0  0  0  0  0  0  0  0  0  0  0  0  # atno 10167 bound_to 10162
  157.2724  131.0819  151.1590 H   0  0  0  0  0  0  0  0  0  0  0  0  # atno 10718 bound_to 10713
  153.0845  135.6629  153.9976 H   0  0  0  0  0  0  0  0  0  0  0  0  # atno 10763 bound_to 10752
  153.9589  135.2976  155.3436 H   0  0  0  0  0  0  0  0  0  0  0  0  # atno 10764 bound_to 10752
  154.7251  135.5147  153.8945 H   0  0  0  0  0  0  0  0  0  0  0  0  # atno 10765 bound_to 10752
  140.1836  134.8458  157.2831 H   0  0  0  0  0  0  0  0  0  0  0  0  # atno 11005 bound_to 11000
  146.0824  139.3811  143.0456 LP  0  0  0  0  0  0  0  0  0  0  0  0  # atno 17320 bound_to 7965
  145.7823  140.9851  143.1092 LP  0  0  0  0  0  0  0  0  0  0  0  0  # atno 17321 bound_to 7965
  139.9896  144.6371  150.7827 LP  0  0  0  0  0  0  0  0  0  0  0  0  # atno 17342 bound_to 10162
  140.7508  143.2961  151.3201 LP  0  0  0  0  0  0  0  0  0  0  0  0  # atno 17343 bound_to 10162
  157.3057  130.6865  149.6188 LP  0  0  0  0  0  0  0  0  0  0  0  0  # atno 17370 bound_to 10713
  155.9663  130.4378  150.5193 LP  0  0  0  0  0  0  0  0  0  0  0  0  # atno 17371 bound_to 10713
  140.2239  134.3990  155.7553 LP  0  0  0  0  0  0  0  0  0  0  0  0  # atno 17394 bound_to 11000
  141.2224  133.7180  156.8534 LP  0  0  0  0  0  0  0  0  0  0  0  0  # atno 17395 bound_to 11000

$$$$
