AV-unprocessed.smi:244|AV-procd|sdf|1875|dock4
  -GOLD-   2262020513D 1   1.00000     0.00000
 Structure written by MMmdl.
 56 60  0  0  0  0  0  0  0  0  1 V2000
  145.2384  137.3058  160.5230 C   0  0  0  0  0  0  0  0  0  0  0  0
  146.5961  137.2814  161.0560 N   0  0  0  0  0  0  0  0  0  0  0  0
  146.6371  136.9141  162.4744 C   0  0  0  0  0  0  0  0  0  0  0  0
  146.3497  135.4168  162.7092 C   0  0  0  0  0  0  0  0  0  0  0  0
  147.3171  134.5552  161.8912 C   0  0  1  0  0  0  0  0  0  0  0  0
  147.0045  133.1755  162.0515 O   0  0  0  0  0  0  0  0  0  0  0  0
  147.9250  132.3455  161.3495 C   0  0  0  0  0  0  0  0  0  0  0  0
  147.8692  132.6697  159.8472 C   0  0  0  0  0  0  0  0  0  0  0  0
  148.1165  134.0915  159.6245 N   0  0  0  0  0  0  0  0  0  0  0  0
  148.1922  134.4054  158.3120 C   0  0  0  0  0  0  0  0  0  0  0  0
  149.3992  134.6449  157.7338 N   0  0  0  0  0  0  0  0  0  0  0  0
  149.4682  134.9188  156.4274 C   0  0  0  0  0  0  0  0  0  0  0  0
  148.4771  134.9910  155.5355 N   0  0  0  0  0  0  0  0  0  0  0  0
  147.2668  134.7493  156.1174 C   0  0  0  0  0  0  0  0  0  0  0  0
  147.0374  134.4593  157.4902 C   0  0  0  0  0  0  0  0  0  0  0  0
  145.6807  134.2758  157.7215 N   0  0  0  0  0  0  0  0  0  0  0  0
  145.1366  134.4467  156.5473 C   0  0  0  0  0  0  0  0  0  0  0  0
  146.0177  134.7123  155.5226 N   0  0  0  0  0  0  0  0  0  0  0  0
  145.6881  134.9245  154.1220 C   0  0  0  0  0  0  0  0  0  0  0  0
  146.2437  133.8401  153.1630 C   0  0  0  0  0  0  0  0  0  0  0  0
  147.6503  134.0013  153.1922 O   0  0  0  0  0  0  0  0  0  0  0  0
  145.9081  132.4028  153.6176 C   0  0  0  0  0  0  0  0  0  0  0  0
  146.3895  131.3517  152.6010 C   0  0  0  0  0  0  0  0  0  0  0  0
  145.8397  131.6267  151.3177 O   0  0  0  0  0  0  0  0  0  0  0  0
  146.2557  132.8825  150.7938 C   0  0  0  0  0  0  0  0  0  0  0  0
  145.7654  134.0218  151.7057 C   0  0  0  0  0  0  0  0  0  0  0  0
  147.2121  134.9402  160.4028 C   0  0  2  0  0  0  0  0  0  0  0  0
  147.5017  136.4571  160.2502 C   0  0  0  0  0  0  0  0  0  0  0  0
  144.6202  137.9969  161.0965 H   0  0  0  0  0  0  0  0  0  0  0  0
  144.7621  136.3265  160.5506 H   0  0  0  0  0  0  0  0  0  0  0  0
  145.2440  137.6495  159.4883 H   0  0  0  0  0  0  0  0  0  0  0  0
  147.6296  137.1529  162.8583 H   0  0  0  0  0  0  0  0  0  0  0  0
  145.9341  137.5306  163.0355 H   0  0  0  0  0  0  0  0  0  0  0  0
  146.4546  135.1846  163.7693 H   0  0  0  0  0  0  0  0  0  0  0  0
  145.3188  135.1787  162.4462 H   0  0  0  0  0  0  0  0  0  0  0  0
  148.3325  134.7337  162.2517 H   0  0  0  0  0  0  0  0  0  0  0  0
  148.9336  132.4886  161.7407 H   0  0  0  0  0  0  0  0  0  0  0  0
  147.6635  131.3011  161.5191 H   0  0  0  0  0  0  0  0  0  0  0  0
  148.6099  132.0754  159.3103 H   0  0  0  0  0  0  0  0  0  0  0  0
  146.8894  132.3970  159.4520 H   0  0  0  0  0  0  0  0  0  0  0  0
  150.4597  135.1003  156.0398 H   0  0  0  0  0  0  0  0  0  0  0  0
  144.0703  134.3683  156.3921 H   0  0  0  0  0  0  0  0  0  0  0  0
  144.6017  134.9795  154.0378 H   0  0  0  0  0  0  0  0  0  0  0  0
  146.0633  135.9075  153.8330 H   0  0  0  0  0  0  0  0  0  0  0  0
  147.8773  134.7569  152.6717 H   0  0  0  0  0  0  0  0  0  0  0  0
  146.3366  132.2014  154.6002 H   0  0  0  0  0  0  0  0  0  0  0  0
  144.8294  132.2903  153.7248 H   0  0  0  0  0  0  0  0  0  0  0  0
  147.4786  131.3253  152.5444 H   0  0  0  0  0  0  0  0  0  0  0  0
  146.0673  130.3583  152.9134 H   0  0  0  0  0  0  0  0  0  0  0  0
  147.3409  132.9025  150.6832 H   0  0  0  0  0  0  0  0  0  0  0  0
  145.8361  133.0002  149.7946 H   0  0  0  0  0  0  0  0  0  0  0  0
  144.6764  134.0258  151.6697 H   0  0  0  0  0  0  0  0  0  0  0  0
  146.0899  134.9861  151.3125 H   0  0  0  0  0  0  0  0  0  0  0  0
  146.1979  134.7321  160.0600 H   0  0  0  0  0  0  0  0  0  0  0  0
  147.4231  136.7717  159.2090 H   0  0  0  0  0  0  0  0  0  0  0  0
  148.5268  136.6661  160.5592 H   0  0  0  0  0  0  0  0  0  0  0  0
  1  2  1  0  0  0  0
  1 29  1  0  0  0  0
  1 30  1  0  0  0  0
  1 31  1  0  0  0  0
  2 28  1  0  0  0  0
  2  3  1  0  0  0  0
  3  4  1  0  0  0  0
  3 32  1  0  0  0  0
  3 33  1  0  0  0  0
  4  5  1  0  0  0  0
  4 34  1  0  0  0  0
  4 35  1  0  0  0  0
  5 27  1  0  0  0  0
  5  6  1  0  0  0  0
  5 36  1  0  0  0  0
  6  7  1  0  0  0  0
  7  8  1  0  0  0  0
  7 37  1  0  0  0  0
  7 38  1  0  0  0  0
  8  9  1  0  0  0  0
  8 39  1  0  0  0  0
  8 40  1  0  0  0  0
  9 10  1  0  0  0  0
  9 27  1  0  0  0  0
 10 15  1  0  0  0  0
 10 11  2  0  0  0  0
 11 12  1  0  0  0  0
 12 13  2  0  0  0  0
 12 41  1  0  0  0  0
 13 14  1  0  0  0  0
 14 18  1  0  0  0  0
 14 15  2  0  0  0  0
 15 16  1  0  0  0  0
 16 17  2  0  0  0  0
 17 18  1  0  0  0  0
 17 42  1  0  0  0  0
 18 19  1  0  0  0  0
 19 20  1  0  0  0  0
 19 43  1  0  0  0  0
 19 44  1  0  0  0  0
 20 26  1  0  0  0  0
 20 21  1  0  0  0  0
 20 22  1  0  0  0  0
 21 45  1  0  0  0  0
 22 23  1  0  0  0  0
 22 46  1  0  0  0  0
 22 47  1  0  0  0  0
 23 24  1  0  0  0  0
 23 48  1  0  0  0  0
 23 49  1  0  0  0  0
 24 25  1  0  0  0  0
 25 26  1  0  0  0  0
 25 50  1  0  0  0  0
 25 51  1  0  0  0  0
 26 52  1  0  0  0  0
 26 53  1  0  0  0  0
 27 28  1  0  0  0  0
 27 54  1  0  0  0  0
 28 55  1  0  0  0  0
 28 56  1  0  0  0  0
M  END
> <s_m_source_file>
AV-unprocessed.smi

> <i_m_source_file_index>
244

> <i_lp_mmshare_version>
43012

> <i_f3d_flags>
0

> <s_epik_input>
W0NIMl0xW0NIMl1OKFtDSDNdKVtDSDJdW0NAQEhdKFtDQEhdMTIpTihbQ0gyXVtDSDJdTzIpYyhuW2NIXW4zKWMoYzM0KW5bY0hdbjRbQ0gyXUM1KFtPSF0pW0NIMl1bQ0gyXU9bQ0gyXVtDSDJdNQ==

> <s_epik_cmdline>
J2VwaWtfcHl0aG9uJywgJy1waCcsICc3LjAnLCAnLXRuJywgJzgnLCAnLW1hJywgJzIwMCcsICctbWV0YWxfYmluZGluZycsICctaW1hZScsICc8aW5maWxlLm1hZT4nLCAnLW9tYWUnLCAnPG91dGZpbGUubWFlPic=

> <r_lp_tautomer_probability>
1

> <r_epik_Ionization_Penalty>
2.27765

> <r_epik_Ionization_Penalty_Charging>
0

> <r_epik_Ionization_Penalty_Neutral>
2.27765

> <r_epik_State_Penalty>
2.4114

> <r_epik_Charging_Adjusted_Penalty>
2.4114

> <i_epik_Tot_Q>
0

> <i_epik_Tot_abs_Q>
0

> <r_epik_Metal_State_Penalty>
2.39769

> <b_epik_Metal_Only>
0

> <s_lp_Force_Field>
OPLS_2005

> <r_lp_Energy>
45.6912

> <b_lp_Chiralities_Consistent>
1

> <s_lp_Variant>
AV-unprocessed.smi:244-12

> <Gold.Version>
5.8.1

> <Gold.Id.Protein>
6NUR|6NUR_protein|mol2

> <Gold.PLP.Fitness>
41.1884

> <Gold.PLP.PLP>
-32.8172

> <Gold.PLP.part.hbond>
-3.1494

> <Gold.PLP.part.metal>
0.0000

> <Gold.PLP.part.buried>
-6.8934

> <Gold.PLP.part.nonpolar>
-24.1134

> <Gold.PLP.part.repulsive>
0.1717

> <Gold.PLP.ligand.clash>
0.0000

> <Gold.PLP.ligand.torsion>
0.2924

> <Gold.PLP.Chemscore.Hbond>
2.9500

> <Gold.PLP.Chemscore.CHOScore>
0.0000

> <Gold.PLP.Chemscore.Metal>
0.0000

> <Gold.Chemscore.Hbonds>
donor molecule, donor type, donor heavy atom, donor atom, acceptor molecule, acceptor atom, score
      L1  H    21    45       P1  7948  1.00
      P1  H  6896  6908       L1    11  0.74
      P1  H  6934  6947       L1     2  1.00

> <Gold.PLP.Chemscore.Internal.Correction>
0.1060

> <Gold.Rescore>
     Score         DG    S(hbond)    S(metal)    S(lipo)     H(rot)  DE(clash)    DE(int)     intcor
     14.84     -15.23       1.90        0.00      74.06       2.06       0.05       0.34       ----

> <Gold.Chemscore.Fitness>
14.8404

> <Gold.Chemscore.DG>
-15.2311

> <Gold.Chemscore.ZeroCoef>
-5.4800

> <Gold.Chemscore.Hbond>
1.9048

> <Gold.Chemscore.Metal>
0.0000

> <Gold.Chemscore.Lipo>
74.0643

> <Gold.Chemscore.Internal_Hbond>
0.0000

> <Gold.Chemscore.DEClash>
0.0484

> <Gold.Chemscore.DEInternal>
0.3423

> <Gold.Chemscore.Rot>
2.0611

> <Gold.Chemscore.Internal.Correction>
   9.000000E+99

> <Gold.Chemscore.Hbonds>
donor molecule, donor type, donor heavy atom, donor atom, acceptor molecule, acceptor atom, score
      L1  H    21    45       P1  7948  0.84
      P1  H  6896  6908       L1    11  0.16
      P1  H  6934  6947       L1     2  0.18

> <Gold.Chemscore.Hbond.Weighted>
-6.3621

> <Gold.Chemscore.Metal.Weighted>
-0.0000

> <Gold.Chemscore.Lipo.Weighted>
-8.6655

> <Gold.Chemscore.Internal_Hbond.Weighted>
0.0000

> <Gold.Chemscore.DEClash.Weighted>
0.0484

> <Gold.Chemscore.DEInternal.Weighted>
0.3423

> <Gold.Chemscore.Rot.Weighted>
5.2765

> <Gold.Chemscore.Internal.Correction.Weighted>
   9.000000E+99

> <Gold.Protein.RotatedTorsions>
[ 6907 6896 6895 6894 ] final  139.49 input  -60.11 | X-H torsion
[ 7974 7965 7964 7962 ] final   53.83 input  175.53 | X-H torsion
[ 8008 7997 7996 7995 ] final  161.00 input   59.86 | X-H torsion
[ 10167 10162 10161 10158 ] final  -60.37 input  -65.29 | X-H torsion
[ 10718 10713 10712 10709 ] final  -12.90 input   66.30 | X-H torsion
[ 10763 10752 10751 10750 ] final  125.80 input  -60.55 | X-H torsion
[ 11005 11000 10999 10996 ] final  -52.98 input  -57.11 | X-H torsion

> <Gold.Protein.ActiveResidues>
 VAL166  LYS551  ARG553  GLY616  TRP617  ASP618  TYR619  PRO620  LYS621  CYS622 
 ASP623  PHE694  ASN695  SER759  ASP760  ASP761  ALA762  ILE779  LEU786  VAL792 
 PHE793  MET794  SER795  GLU796  ALA797  LYS798  CYS799  TRP800  GLU811  SER814 

> <Gold.Protein.RotatedAtoms>
  152.2543  133.5242  159.5343 H   0  0  0  0  0  0  0  0  0  0  0  0  # atno 6907 bound_to 6896
  150.7104  134.0917  159.3943 H   0  0  0  0  0  0  0  0  0  0  0  0  # atno 6908 bound_to 6896
  151.8836  135.0444  160.0542 H   0  0  0  0  0  0  0  0  0  0  0  0  # atno 6909 bound_to 6896
  145.9671  139.4113  143.0213 H   0  0  0  0  0  0  0  0  0  0  0  0  # atno 7974 bound_to 7965
  156.2134  140.1789  156.7644 H   0  0  0  0  0  0  0  0  0  0  0  0  # atno 8008 bound_to 7997
  154.5755  140.0675  156.9057 H   0  0  0  0  0  0  0  0  0  0  0  0  # atno 8009 bound_to 7997
  155.2595  140.3335  155.4277 H   0  0  0  0  0  0  0  0  0  0  0  0  # atno 8010 bound_to 7997
  140.6076  143.2378  151.5786 H   0  0  0  0  0  0  0  0  0  0  0  0  # atno 10167 bound_to 10162
  156.6379  130.4920  149.6105 H   0  0  0  0  0  0  0  0  0  0  0  0  # atno 10718 bound_to 10713
  153.6832  135.3311  155.3183 H   0  0  0  0  0  0  0  0  0  0  0  0  # atno 10763 bound_to 10752
  154.8460  135.4414  154.1585 H   0  0  0  0  0  0  0  0  0  0  0  0  # atno 10764 bound_to 10752
  153.2607  135.6991  153.7659 H   0  0  0  0  0  0  0  0  0  0  0  0  # atno 10765 bound_to 10752
  141.0952  133.6626  156.4104 H   0  0  0  0  0  0  0  0  0  0  0  0  # atno 11005 bound_to 11000
  145.7958  140.9793  143.1024 LP  0  0  0  0  0  0  0  0  0  0  0  0  # atno 17320 bound_to 7965
  144.6828  139.9740  143.7482 LP  0  0  0  0  0  0  0  0  0  0  0  0  # atno 17321 bound_to 7965
  139.5336  144.2844  152.1203 LP  0  0  0  0  0  0  0  0  0  0  0  0  # atno 17342 bound_to 10162
  140.2037  144.4632  150.6419 LP  0  0  0  0  0  0  0  0  0  0  0  0  # atno 17343 bound_to 10162
  156.2182  130.6721  151.1341 LP  0  0  0  0  0  0  0  0  0  0  0  0  # atno 17370 bound_to 10713
  157.7180  131.0698  150.6251 LP  0  0  0  0  0  0  0  0  0  0  0  0  # atno 17371 bound_to 10713
  140.5156  134.6353  157.5300 LP  0  0  0  0  0  0  0  0  0  0  0  0  # atno 17394 bound_to 11000
  139.9787  134.7172  155.9900 LP  0  0  0  0  0  0  0  0  0  0  0  0  # atno 17395 bound_to 11000

$$$$
