#       Name:                AV-unprocessed.smi:798
#       Creating user name   scv26
#       Creation time:       Fri Mar 27 01:20:28 2020


#       File generated by GOLD software.
#

@<TRIPOS>MOLECULE
AV-unprocessed.smi:798
    40    42     1
SMALL
NO_CHARGES


@<TRIPOS>ATOM
      1 ****        -1.0658   2.0246  -0.5296 O.2            1 S1                 0.0000
      2 ****        -1.5646   0.8994  -0.5656 C.2            1 S1                 0.0000
      3 ****        -2.8819   0.6336  -0.6097 N.am           1 S1                 0.0000
      4 ****        -3.9652   1.5520  -0.5992 C.2            1 S1                 0.0000
      5 ****        -3.8115   2.8841  -0.5378 N.2            1 S1                 0.0000
      6 ****        -5.0311   3.5485  -0.5354 N.2            1 S1                 0.0000
      7 ****        -6.0553   2.6928  -0.5959 C.2            1 S1                 0.0000
      8 ****        -5.6301   0.9911  -0.6624 S.3            1 S1                 0.0000
      9 ****        -0.8411  -0.2289  -0.5655 N.am           1 S1                 0.0000
     10 ****         0.6175  -0.2878  -0.5079 C.3            1 S1                 0.0000
     11 ****         1.1206  -1.6925  -0.9074 C.3            1 S1                 0.0000
     12 ****         2.6235  -1.6055  -1.2288 C.3            1 S1                 0.0000
     13 ****         3.2513  -1.4217   0.1656 C.3            1 S1                 0.0000
     14 ****         2.0229  -1.4116   1.1012 C.3            1 S1                 0.0000
     15 ****         1.1321  -2.4437   0.4215 C.3            1 S1                 0.0000
     16 ****         1.1701  -0.1293   0.9323 C.3            1 S1                 0.0000
     17 ****         1.8922   1.2080   1.1874 C.3            1 S1                 0.0000
     18 ****         2.3709   1.2630   2.5145 O.3            1 S1                 0.0000
     19 ****        -3.1416  -0.3412  -0.6451 H              1 S1                 0.0000
     20 ****        -7.0683   3.0669  -0.6004 H              1 S1                 0.0000
     21 ****        -1.3305  -1.1111  -0.5986 H              1 S1                 0.0000
     22 ****         1.0298   0.4630  -1.1852 H              1 S1                 0.0000
     23 ****         0.5396  -2.1647  -1.7007 H              1 S1                 0.0000
     24 ****         2.9772  -2.5286  -1.6896 H              1 S1                 0.0000
     25 ****         2.8604  -0.7833  -1.9052 H              1 S1                 0.0000
     26 ****         3.8983  -2.2683   0.3997 H              1 S1                 0.0000
     27 ****         3.8617  -0.5229   0.2398 H              1 S1                 0.0000
     28 ****         2.2648  -1.6386   2.1399 H              1 S1                 0.0000
     29 ****         0.1451  -2.5351   0.8784 H              1 S1                 0.0000
     30 ****         1.5860  -3.4342   0.3563 H              1 S1                 0.0000
     31 ****         0.3427  -0.1933   1.6424 H              1 S1                 0.0000
     32 ****         2.7162   1.3679   0.4932 H              1 S1                 0.0000
     33 ****         1.1990   2.0368   1.0426 H              1 S1                 0.0000
     34 ****         2.7640   2.1106   2.6564 H              1 S1                 0.0000
     35 ****        -1.6546   2.8329  -0.5319 LP             1 S1                 0.0000
     36 ****        -0.0719   2.1302  -0.4982 LP             1 S1                 0.0000
     37 ****        -2.9241   3.3436  -0.4985 LP             1 S1                 0.0000
     38 ****        -5.1302   4.5427  -0.4937 LP             1 S1                 0.0000
     39 ****         3.0537   0.5464   2.6568 LP             1 S1                 0.0000
     40 ****         1.6122   1.1319   3.1525 LP             1 S1                 0.0000
@<TRIPOS>BOND
    1    1    2 2     
    2    2    3 am    
    3    2    9 am    
    4    3    4 1     
    5    3   19 1     
    6    4    8 1     
    7    4    5 2     
    8    5    6 1     
    9    6    7 2     
   10    7    8 1     
   11    7   20 1     
   12    9   10 1     
   13    9   21 1     
   14   10   16 1     
   15   10   11 1     
   16   10   22 1     
   17   11   15 1     
   18   11   12 1     
   19   11   23 1     
   20   12   13 1     
   21   12   24 1     
   22   12   25 1     
   23   13   14 1     
   24   13   26 1     
   25   13   27 1     
   26   14   15 1     
   27   14   16 1     
   28   14   28 1     
   29   15   29 1     
   30   15   30 1     
   31   16   17 1     
   32   16   31 1     
   33   17   18 1     
   34   17   32 1     
   35   17   33 1     
   36   18   34 1     
   37    1   35 1     
   38    1   36 1     
   39    5   37 1     
   40    6   38 1     
   41   18   39 1     
   42   18   40 1     
@<TRIPOS>SUBSTRUCTURE
      1 S1             1
@<TRIPOS>SET
LONE_PAIRS      STATIC     ATOMS    <user>   **** ""
6 35 36 37 38 39 40
DONOR_HYDROGENS      STATIC     ATOMS    <user>   **** ""
3 19 21 34
ATOM$BLUE        STATIC     ATOMS    COLORGROUP SYSTEM
6 35 36 37 38 39 40
ATOM$RED        STATIC     ATOMS    COLORGROUP SYSTEM
3 19 21 34
