#       Name:                AV-unprocessed.smi:2970
#       Creating user name   scv26
#       Creation time:       Fri Mar 27 16:24:14 2020


#       File generated by GOLD software.
#

@<TRIPOS>MOLECULE
AV-unprocessed.smi:2970
    42    43     1
SMALL
NO_CHARGES


@<TRIPOS>ATOM
      1 ****        -3.3727   1.5357  -2.3820 C.3            1 S1                 0.0000
      2 ****        -3.9408   0.1320  -2.2631 C.2            1 S1                 0.0000
      3 ****        -5.2390  -0.1870  -2.2892 C.2            1 S1                 0.0000
      4 ****        -5.5182  -1.8992  -2.0865 S.3            1 S1                 0.0000
      5 ****        -3.7452  -2.1815  -1.9536 C.2            1 S1                 0.0000
      6 ****        -3.2587  -3.2979  -1.7811 O.2            1 S1                 0.0000
      7 ****        -3.0820  -0.9613  -2.0812 N.am           1 S1                 0.0000
      8 ****        -1.6186  -0.8431  -2.0309 C.3            1 S1                 0.0000
      9 ****        -1.0734  -0.6323  -0.6120 C.2            1 S1                 0.0000
     10 ****        -1.8322  -0.5374   0.3540 O.2            1 S1                 0.0000
     11 ****         0.2620  -0.5495  -0.5080 N.am           1 S1                 0.0000
     12 ****         1.0070  -0.3488   0.7329 C.3            1 S1                 0.0000
     13 ****         1.0354   1.1560   1.0746 C.3            1 S1                 0.0000
     14 ****         1.8228   1.5266   2.3432 C.3            1 S1                 0.0000
     15 ****         3.3447   1.4518   2.1426 C.3            1 S1                 0.0000
     16 ****         3.9738   0.0661   2.3702 C.3            1 S1                 0.0000
     17 ****         3.1460  -1.1493   1.9175 C.3            1 S1                 0.0000
     18 ****         2.4033  -0.9874   0.5803 C.3            1 S1                 0.0000
     19 ****        -4.1516   2.2760  -2.1974 H              1 S1                 0.0000
     20 ****        -2.9786   1.7015  -3.3847 H              1 S1                 0.0000
     21 ****        -2.5776   1.7124  -1.6576 H              1 S1                 0.0000
     22 ****        -6.0645   0.4992  -2.4076 H              1 S1                 0.0000
     23 ****        -1.1675  -1.7493  -2.4384 H              1 S1                 0.0000
     24 ****        -1.2736  -0.0355  -2.6766 H              1 S1                 0.0000
     25 ****         0.8068  -0.6362  -1.3538 H              1 S1                 0.0000
     26 ****         0.4833  -0.8774   1.5318 H              1 S1                 0.0000
     27 ****         1.4240   1.7225   0.2272 H              1 S1                 0.0000
     28 ****         0.0086   1.4994   1.2075 H              1 S1                 0.0000
     29 ****         1.5699   2.5568   2.5966 H              1 S1                 0.0000
     30 ****         1.5055   0.9253   3.1960 H              1 S1                 0.0000
     31 ****         3.5950   1.8068   1.1421 H              1 S1                 0.0000
     32 ****         3.8272   2.1543   2.8231 H              1 S1                 0.0000
     33 ****         4.9424   0.0465   1.8693 H              1 S1                 0.0000
     34 ****         4.1931  -0.0543   3.4317 H              1 S1                 0.0000
     35 ****         3.8221  -2.0018   1.8438 H              1 S1                 0.0000
     36 ****         2.4338  -1.4189   2.6982 H              1 S1                 0.0000
     37 ****         2.2747  -1.9852   0.1580 H              1 S1                 0.0000
     38 ****         3.0130  -0.4374  -0.1380 H              1 S1                 0.0000
     39 ****        -3.8550  -4.0974  -1.7087 LP             1 S1                 0.0000
     40 ****        -2.2669  -3.4060  -1.7132 LP             1 S1                 0.0000
     41 ****        -2.8214  -0.5975   0.2206 LP             1 S1                 0.0000
     42 ****        -1.4589  -0.4001   1.2715 LP             1 S1                 0.0000
@<TRIPOS>BOND
    1    1    2 1     
    2    1   19 1     
    3    1   20 1     
    4    1   21 1     
    5    2    7 1     
    6    2    3 2     
    7    3    4 1     
    8    3   22 1     
    9    4    5 1     
   10    5    6 2     
   11    5    7 am    
   12    7    8 1     
   13    8    9 1     
   14    8   23 1     
   15    8   24 1     
   16    9   10 2     
   17    9   11 am    
   18   11   12 1     
   19   11   25 1     
   20   12   18 1     
   21   12   13 1     
   22   12   26 1     
   23   13   14 1     
   24   13   27 1     
   25   13   28 1     
   26   14   15 1     
   27   14   29 1     
   28   14   30 1     
   29   15   16 1     
   30   15   31 1     
   31   15   32 1     
   32   16   17 1     
   33   16   33 1     
   34   16   34 1     
   35   17   18 1     
   36   17   35 1     
   37   17   36 1     
   38   18   37 1     
   39   18   38 1     
   40    6   39 1     
   41    6   40 1     
   42   10   41 1     
   43   10   42 1     
@<TRIPOS>SUBSTRUCTURE
      1 S1             1
@<TRIPOS>SET
LONE_PAIRS      STATIC     ATOMS    <user>   **** ""
4 39 40 41 42
DONOR_HYDROGENS      STATIC     ATOMS    <user>   **** ""
1 25
ATOM$BLUE        STATIC     ATOMS    COLORGROUP SYSTEM
4 39 40 41 42
ATOM$RED        STATIC     ATOMS    COLORGROUP SYSTEM
1 25
