AV-unprocessed.smi:1786|AV-procd|sdf|7202|dock3
  -GOLD-   22720 8443D 1   1.00000     0.00000
 Structure written by MMmdl.
 44 45  0  0  0  0  0  0  0  0  2 V2000
  153.4886  141.2233  160.3465 C   0  0  0  0  0  0  0  0  0  0  0  0
  153.0182  142.6216  159.8987 C   0  0  2  0  0  0  0  0  0  0  0  0
  152.6934  143.4690  161.1486 C   0  0  0  0  0  0  0  0  0  0  0  0
  152.2064  144.8736  160.7794 C   0  0  0  0  0  0  0  0  0  0  0  0
  151.0028  144.7660  159.8411 C   0  0  0  0  0  0  0  0  0  0  0  0
  151.3587  143.9301  158.6036 C   0  0  0  0  0  0  0  0  0  0  0  0
  151.8422  142.5712  158.9717 N   0  3  1  0  0  0  0  0  0  0  0  0
  152.0492  141.7253  157.7644 C   0  0  0  0  0  0  0  0  0  0  0  0
  151.5521  140.2857  157.9919 C   0  0  0  0  0  0  0  0  0  0  0  0
  150.7179  139.8251  156.8888 N   0  0  0  0  0  0  0  0  0  0  0  0
  151.1028  139.7828  155.6042 C   0  0  0  0  0  0  0  0  0  0  0  0
  152.2139  140.1551  155.2245 O   0  0  0  0  0  0  0  0  0  0  0  0
  150.0607  139.2591  154.6054 C   0  0  0  0  0  0  0  0  0  0  0  0
  149.7133  137.8431  154.8115 N   0  0  0  0  0  0  0  0  0  0  0  0
  148.3705  137.5503  155.1227 C   0  0  0  0  0  0  0  0  0  0  0  0
  147.9473  136.2931  155.3289 C   0  0  0  0  0  0  0  0  0  0  0  0
  148.9108  135.2229  155.2256 C   0  0  0  0  0  0  0  0  0  0  0  0
  150.1971  135.4914  154.9247 C   0  0  0  0  0  0  0  0  0  0  0  0
  150.6631  136.8639  154.6946 C   0  0  0  0  0  0  0  0  0  0  0  0
  151.8347  137.1185  154.4131 O   0  0  0  0  0  0  0  0  0  0  0  0
  154.3116  141.3013  161.0573 H   0  0  0  0  0  0  0  0  0  0  0  0
  153.8537  140.6209  159.5153 H   0  0  0  0  0  0  0  0  0  0  0  0
  152.6857  140.6718  160.8366 H   0  0  0  0  0  0  0  0  0  0  0  0
  153.8418  143.1007  159.3662 H   0  0  0  0  0  0  0  0  0  0  0  0
  151.9296  142.9680  161.7455 H   0  0  0  0  0  0  0  0  0  0  0  0
  153.5751  143.5497  161.7853 H   0  0  0  0  0  0  0  0  0  0  0  0
  151.9366  145.4287  161.6784 H   0  0  0  0  0  0  0  0  0  0  0  0
  153.0089  145.4309  160.2943 H   0  0  0  0  0  0  0  0  0  0  0  0
  150.1627  144.3099  160.3666 H   0  0  0  0  0  0  0  0  0  0  0  0
  150.6763  145.7614  159.5381 H   0  0  0  0  0  0  0  0  0  0  0  0
  150.4735  143.8445  157.9717 H   0  0  0  0  0  0  0  0  0  0  0  0
  152.1225  144.4403  158.0142 H   0  0  0  0  0  0  0  0  0  0  0  0
  151.5029  142.1352  156.9134 H   0  0  0  0  0  0  0  0  0  0  0  0
  153.0967  141.7442  157.4612 H   0  0  0  0  0  0  0  0  0  0  0  0
  152.3826  139.5938  158.1330 H   0  0  0  0  0  0  0  0  0  0  0  0
  150.9586  140.2409  158.9054 H   0  0  0  0  0  0  0  0  0  0  0  0
  149.7871  139.5055  157.1173 H   0  0  0  0  0  0  0  0  0  0  0  0
  149.1618  139.8760  154.6631 H   0  0  0  0  0  0  0  0  0  0  0  0
  150.4486  139.4148  153.5978 H   0  0  0  0  0  0  0  0  0  0  0  0
  147.7122  138.4053  155.1753 H   0  0  0  0  0  0  0  0  0  0  0  0
  146.9130  136.0870  155.5627 H   0  0  0  0  0  0  0  0  0  0  0  0
  148.5983  134.2021  155.3897 H   0  0  0  0  0  0  0  0  0  0  0  0
  150.9038  134.6779  154.8515 H   0  0  0  0  0  0  0  0  0  0  0  0
  151.0879  142.1424  159.4887 H   0  0  0  0  0  0  0  0  0  0  0  0
  1  2  1  0  0  0  0
  1 21  1  0  0  0  0
  1 22  1  0  0  0  0
  1 23  1  0  0  0  0
  2  7  1  0  0  0  0
  2  3  1  0  0  0  0
  2 24  1  0  0  0  0
  3  4  1  0  0  0  0
  3 25  1  0  0  0  0
  3 26  1  0  0  0  0
  4  5  1  0  0  0  0
  4 27  1  0  0  0  0
  4 28  1  0  0  0  0
  5  6  1  0  0  0  0
  5 29  1  0  0  0  0
  5 30  1  0  0  0  0
  6  7  1  0  0  0  0
  6 31  1  0  0  0  0
  6 32  1  0  0  0  0
  7  8  1  0  0  0  0
  7 44  1  0  0  0  0
  8  9  1  0  0  0  0
  8 33  1  0  0  0  0
  8 34  1  0  0  0  0
  9 10  1  0  0  0  0
  9 35  1  0  0  0  0
  9 36  1  0  0  0  0
 10 11  1  0  0  0  0
 10 37  1  0  0  0  0
 11 12  2  0  0  0  0
 11 13  1  0  0  0  0
 13 14  1  0  0  0  0
 13 38  1  0  0  0  0
 13 39  1  0  0  0  0
 14 19  1  0  0  0  0
 14 15  1  0  0  0  0
 15 16  2  0  0  0  0
 15 40  1  0  0  0  0
 16 17  1  0  0  0  0
 16 41  1  0  0  0  0
 17 18  2  0  0  0  0
 17 42  1  0  0  0  0
 18 19  1  0  0  0  0
 18 43  1  0  0  0  0
 19 20  2  0  0  0  0
M  CHG  1   7   1
M  END
> <s_m_source_file>
AV-unprocessed.smi

> <i_m_source_file_index>
1786

> <i_lp_mmshare_version>
43012

> <i_f3d_flags>
0

> <s_epik_input>
W0NIM11bQ0BASF0xW0NIMl1bQ0gyXVtDSDJdW0NIMl1OMVtDSDJdW0NIMl1bTkhdQyg9TylbQ0gyXW4yW2NIXVtjSF1bY0hdW2NIXWMyPU8=

> <s_epik_cmdline>
J2VwaWtfcHl0aG9uJywgJy1waCcsICc3LjAnLCAnLXRuJywgJzgnLCAnLW1hJywgJzIwMCcsICctbWV0YWxfYmluZGluZycsICctaW1hZScsICc8aW5maWxlLm1hZT4nLCAnLW9tYWUnLCAnPG91dGZpbGUubWFlPic=

> <r_lp_tautomer_probability>
1

> <r_epik_Ionization_Penalty>
0.00237247

> <r_epik_Ionization_Penalty_Charging>
0.00237238

> <r_epik_Ionization_Penalty_Neutral>
8.2065e-08

> <r_epik_State_Penalty>
0.00163922

> <r_epik_Charging_Adjusted_Penalty>
0.0040116

> <i_epik_Tot_Q>
1

> <i_epik_Tot_abs_Q>
1

> <r_epik_Metal_State_Penalty>
-0

> <b_epik_Metal_Only>
0

> <s_lp_Force_Field>
OPLS_2005

> <r_lp_Energy>
28.1092

> <b_lp_Chiralities_Consistent>
1

> <s_lp_Variant>
AV-unprocessed.smi:1786-1

> <Gold.Version>
5.8.1

> <Gold.Id.Protein>
6NUR|6NUR_protein|mol2

> <Gold.PLP.Fitness>
44.3191

> <Gold.PLP.PLP>
-39.9793

> <Gold.PLP.part.hbond>
-2.6729

> <Gold.PLP.part.metal>
0.0000

> <Gold.PLP.part.buried>
-6.0136

> <Gold.PLP.part.nonpolar>
-32.3238

> <Gold.PLP.part.repulsive>
0.2500

> <Gold.PLP.ligand.clash>
0.0000

> <Gold.PLP.ligand.torsion>
0.8766

> <Gold.PLP.Chemscore.Hbond>
2.0180

> <Gold.PLP.Chemscore.CHOScore>
0.0000

> <Gold.PLP.Chemscore.Metal>
0.0000

> <Gold.Chemscore.Hbonds>
donor molecule, donor type, donor heavy atom, donor atom, acceptor molecule, acceptor atom, score
      P1  H  7989  7998       L1    12  0.60
      P1  H  7997  8009       L1    12  0.29
      P1  H 10752 10765       L1    20  1.00

> <Gold.PLP.Chemscore.Internal.Correction>
0.0391

> <Gold.Rescore>
     Score         DG    S(hbond)    S(metal)    S(lipo)     H(rot)  DE(clash)    DE(int)     intcor
     16.76     -18.85       1.94        0.00      99.54       1.86       0.15       1.94       ----

> <Gold.Chemscore.Fitness>
16.7571

> <Gold.Chemscore.DG>
-18.8479

> <Gold.Chemscore.ZeroCoef>
-5.4800

> <Gold.Chemscore.Hbond>
1.9399

> <Gold.Chemscore.Metal>
0.0000

> <Gold.Chemscore.Lipo>
99.5446

> <Gold.Chemscore.Internal_Hbond>
0.0000

> <Gold.Chemscore.DEClash>
0.1500

> <Gold.Chemscore.DEInternal>
1.9408

> <Gold.Chemscore.Rot>
1.8586

> <Gold.Chemscore.Internal.Correction>
   9.000000E+99

> <Gold.Chemscore.Hbonds>
donor molecule, donor type, donor heavy atom, donor atom, acceptor molecule, acceptor atom, score
      P1  H  7989  7998       L1    12  0.12
      P1  H  7997  8009       L1    12  0.29
      P1  H 10752 10765       L1    20  0.91

> <Gold.Chemscore.Hbond.Weighted>
-6.4793

> <Gold.Chemscore.Metal.Weighted>
-0.0000

> <Gold.Chemscore.Lipo.Weighted>
-11.6467

> <Gold.Chemscore.Internal_Hbond.Weighted>
0.0000

> <Gold.Chemscore.DEClash.Weighted>
0.1500

> <Gold.Chemscore.DEInternal.Weighted>
1.9408

> <Gold.Chemscore.Rot.Weighted>
4.7581

> <Gold.Chemscore.Internal.Correction.Weighted>
   9.000000E+99

> <Gold.Protein.RotatedTorsions>
[ 6907 6896 6895 6894 ] final  161.98 input  -60.11 | X-H torsion
[ 7974 7965 7964 7962 ] final  -30.10 input  175.53 | X-H torsion
[ 8008 7997 7996 7995 ] final -143.84 input   59.86 | X-H torsion
[ 10167 10162 10161 10158 ] final -178.15 input  -65.29 | X-H torsion
[ 10718 10713 10712 10709 ] final -146.39 input   66.30 | X-H torsion
[ 10763 10752 10751 10750 ] final  157.64 input  -60.55 | X-H torsion
[ 11005 11000 10999 10996 ] final   36.69 input  -57.11 | X-H torsion

> <Gold.Protein.ActiveResidues>
 VAL166  LYS551  ARG553  GLY616  TRP617  ASP618  TYR619  PRO620  LYS621  CYS622 
 ASP623  PHE694  ASN695  SER759  ASP760  ASP761  ALA762  ILE779  LEU786  VAL792 
 PHE793  MET794  SER795  GLU796  ALA797  LYS798  CYS799  TRP800  GLU811  SER814 

> <Gold.Protein.RotatedAtoms>
  151.9473  133.3655  159.3986 H   0  0  0  0  0  0  0  0  0  0  0  0  # atno 6907 bound_to 6896
  150.6987  134.4377  159.5287 H   0  0  0  0  0  0  0  0  0  0  0  0  # atno 6908 bound_to 6896
  152.2044  134.8559  160.0555 H   0  0  0  0  0  0  0  0  0  0  0  0  # atno 6909 bound_to 6896
  146.1168  140.5497  142.8753 H   0  0  0  0  0  0  0  0  0  0  0  0  # atno 7974 bound_to 7965
  155.5172  140.0588  157.2913 H   0  0  0  0  0  0  0  0  0  0  0  0  # atno 8008 bound_to 7997
  154.4531  140.1959  156.0408 H   0  0  0  0  0  0  0  0  0  0  0  0  # atno 8009 bound_to 7997
  156.0744  140.3255  155.7619 H   0  0  0  0  0  0  0  0  0  0  0  0  # atno 8010 bound_to 7997
  139.5446  144.2271  152.0962 H   0  0  0  0  0  0  0  0  0  0  0  0  # atno 10167 bound_to 10162
  156.3943  130.7901  151.2106 H   0  0  0  0  0  0  0  0  0  0  0  0  # atno 10718 bound_to 10713
  154.2035  135.2789  155.2983 H   0  0  0  0  0  0  0  0  0  0  0  0  # atno 10763 bound_to 10752
  154.5835  135.5582  153.7212 H   0  0  0  0  0  0  0  0  0  0  0  0  # atno 10764 bound_to 10752
  153.0082  135.6350  154.2174 H   0  0  0  0  0  0  0  0  0  0  0  0  # atno 10765 bound_to 10752
  140.2300  134.3539  155.7968 H   0  0  0  0  0  0  0  0  0  0  0  0  # atno 11005 bound_to 11000
  144.7560  140.5309  143.6768 LP  0  0  0  0  0  0  0  0  0  0  0  0  # atno 17320 bound_to 7965
  145.5550  139.1477  143.3373 LP  0  0  0  0  0  0  0  0  0  0  0  0  # atno 17321 bound_to 7965
  140.1755  144.4895  150.6556 LP  0  0  0  0  0  0  0  0  0  0  0  0  # atno 17342 bound_to 10162
  140.6689  143.2278  151.5674 LP  0  0  0  0  0  0  0  0  0  0  0  0  # atno 17343 bound_to 10162
  157.7501  131.0306  150.4145 LP  0  0  0  0  0  0  0  0  0  0  0  0  # atno 17370 bound_to 10713
  156.4412  130.3992  149.6696 LP  0  0  0  0  0  0  0  0  0  0  0  0  # atno 17371 bound_to 10713
  141.2218  133.7240  156.8716 LP  0  0  0  0  0  0  0  0  0  0  0  0  # atno 17394 bound_to 11000
  140.1760  134.9066  157.2892 LP  0  0  0  0  0  0  0  0  0  0  0  0  # atno 17395 bound_to 11000

$$$$
