AV-unprocessed.smi:21|AV-procd|sdf|159|dock4
  -GOLD-   2262015393D 1   1.00000     0.00000
 Structure written by MMmdl.
 61 64  0  0  0  0  0  0  0  0  1 V2000
  151.6200  143.5998  157.7037 C   0  0  0  0  0  0  0  0  0  0  0  0
  150.9367  142.4462  158.1664 O   0  0  0  0  0  0  0  0  0  0  0  0
  151.2479  141.2710  157.4311 C   0  0  1  0  0  0  0  0  0  0  0  0
  150.4684  140.0702  157.9890 C   0  0  0  0  0  0  0  0  0  0  0  0
  149.5776  139.6067  156.8247 C   0  0  2  0  0  0  0  0  0  0  0  0
  149.2414  138.0995  156.8633 C   0  0  0  0  0  0  0  0  0  0  0  0
  148.1373  137.7912  157.7727 N   0  0  0  0  0  0  0  0  0  0  0  0
  147.3372  138.8912  158.2951 C   0  0  0  0  0  0  0  0  0  0  0  0
  148.1481  136.6035  158.4338 C   0  0  0  0  0  0  0  0  0  0  0  0
  148.5181  135.4940  157.7417 N   0  0  0  0  0  0  0  0  0  0  0  0
  148.5504  134.2995  158.3382 C   0  0  0  0  0  0  0  0  0  0  0  0
  148.2583  133.9909  159.6019 N   0  0  0  0  0  0  0  0  0  0  0  0
  147.8917  135.0979  160.3077 C   0  0  0  0  0  0  0  0  0  0  0  0
  147.8104  136.4306  159.8098 C   0  0  0  0  0  0  0  0  0  0  0  0
  147.4250  137.2864  160.8368 N   0  0  0  0  0  0  0  0  0  0  0  0
  147.2798  136.5077  161.8730 C   0  0  0  0  0  0  0  0  0  0  0  0
  147.5195  135.1735  161.6384 N   0  0  0  0  0  0  0  0  0  0  0  0
  147.4394  134.0937  162.6058 C   0  0  0  0  0  0  0  0  0  0  0  0
  146.2904  133.0771  162.3566 C   0  0  1  0  0  0  0  0  0  0  0  0
  144.9789  133.8541  162.0856 C   0  0  0  0  0  0  0  0  0  0  0  0
  143.8601  132.9913  162.0836 O   0  0  0  0  0  0  0  0  0  0  0  0
  146.6061  132.0674  161.2119 C   0  0  2  0  0  0  0  0  0  0  0  0
  145.7604  130.8017  161.2114 C   0  0  0  0  0  0  0  0  0  0  0  0
  146.5856  129.8596  160.3486 C   0  0  0  0  0  0  0  0  0  0  0  0
  147.9231  130.1255  160.7355 O   0  0  0  0  0  0  0  0  0  0  0  0
  148.0207  131.4584  161.2288 C   0  0  0  0  0  0  0  0  0  0  0  0
  150.2846  140.0390  155.6298 N   0  0  0  0  0  0  0  0  0  0  0  0
  149.4583  140.0556  154.4299 C   0  0  0  0  0  0  0  0  0  0  0  0
  150.7722  141.3600  155.9749 C   0  0  0  0  0  0  0  0  0  0  0  0
  152.3169  141.0549  157.4780 H   0  0  0  0  0  0  0  0  0  0  0  0
  148.6446  140.1702  156.8853 H   0  0  0  0  0  0  0  0  0  0  0  0
  151.3492  144.4556  158.3218 H   0  0  0  0  0  0  0  0  0  0  0  0
  151.3564  143.8362  156.6723 H   0  0  0  0  0  0  0  0  0  0  0  0
  152.7009  143.4694  157.7675 H   0  0  0  0  0  0  0  0  0  0  0  0
  151.1687  139.2855  158.2784 H   0  0  0  0  0  0  0  0  0  0  0  0
  149.8780  140.3250  158.8702 H   0  0  0  0  0  0  0  0  0  0  0  0
  148.9405  137.7632  155.8714 H   0  0  0  0  0  0  0  0  0  0  0  0
  150.1349  137.5236  157.1050 H   0  0  0  0  0  0  0  0  0  0  0  0
  146.3649  138.5384  158.6405 H   0  0  0  0  0  0  0  0  0  0  0  0
  147.1626  139.6360  157.5186 H   0  0  0  0  0  0  0  0  0  0  0  0
  147.8475  139.3822  159.1238 H   0  0  0  0  0  0  0  0  0  0  0  0
  148.8531  133.4727  157.7126 H   0  0  0  0  0  0  0  0  0  0  0  0
  146.9808  136.8870  162.8393 H   0  0  0  0  0  0  0  0  0  0  0  0
  148.4059  133.5895  162.5926 H   0  0  0  0  0  0  0  0  0  0  0  0
  147.3390  134.5287  163.6010 H   0  0  0  0  0  0  0  0  0  0  0  0
  146.1331  132.5005  163.2691 H   0  0  0  0  0  0  0  0  0  0  0  0
  144.8301  134.6374  162.8294 H   0  0  0  0  0  0  0  0  0  0  0  0
  144.9936  134.3373  161.1099 H   0  0  0  0  0  0  0  0  0  0  0  0
  143.7798  132.6051  161.2251 H   0  0  0  0  0  0  0  0  0  0  0  0
  146.4550  132.5628  160.2513 H   0  0  0  0  0  0  0  0  0  0  0  0
  145.6701  130.3982  162.2211 H   0  0  0  0  0  0  0  0  0  0  0  0
  144.7589  130.9533  160.8081 H   0  0  0  0  0  0  0  0  0  0  0  0
  146.3245  128.8115  160.4955 H   0  0  0  0  0  0  0  0  0  0  0  0
  146.4640  130.1009  159.2916 H   0  0  0  0  0  0  0  0  0  0  0  0
  148.7158  132.0265  160.6120 H   0  0  0  0  0  0  0  0  0  0  0  0
  148.4262  131.4124  162.2400 H   0  0  0  0  0  0  0  0  0  0  0  0
  150.0229  140.4457  153.5826 H   0  0  0  0  0  0  0  0  0  0  0  0
  148.5751  140.6810  154.5648 H   0  0  0  0  0  0  0  0  0  0  0  0
  149.1274  139.0510  154.1676 H   0  0  0  0  0  0  0  0  0  0  0  0
  149.9575  142.0831  155.9048 H   0  0  0  0  0  0  0  0  0  0  0  0
  151.5628  141.6862  155.2986 H   0  0  0  0  0  0  0  0  0  0  0  0
  1  2  1  0  0  0  0
  1 32  1  0  0  0  0
  1 33  1  0  0  0  0
  1 34  1  0  0  0  0
  2  3  1  0  0  0  0
  3 30  1  0  0  0  0
  3 29  1  0  0  0  0
  3  4  1  0  0  0  0
  4  5  1  0  0  0  0
  4 35  1  0  0  0  0
  4 36  1  0  0  0  0
  5 31  1  0  0  0  0
  5  6  1  0  0  0  0
  5 27  1  0  0  0  0
  6  7  1  0  0  0  0
  6 37  1  0  0  0  0
  6 38  1  0  0  0  0
  7  8  1  0  0  0  0
  7  9  1  0  0  0  0
  8 39  1  0  0  0  0
  8 40  1  0  0  0  0
  8 41  1  0  0  0  0
  9 14  1  0  0  0  0
  9 10  2  0  0  0  0
 10 11  1  0  0  0  0
 11 12  2  0  0  0  0
 11 42  1  0  0  0  0
 12 13  1  0  0  0  0
 13 17  1  0  0  0  0
 13 14  2  0  0  0  0
 14 15  1  0  0  0  0
 15 16  2  0  0  0  0
 16 17  1  0  0  0  0
 16 43  1  0  0  0  0
 17 18  1  0  0  0  0
 18 19  1  0  0  0  0
 18 44  1  0  0  0  0
 18 45  1  0  0  0  0
 19 20  1  0  0  0  0
 19 22  1  0  0  0  0
 19 46  1  0  0  0  0
 20 21  1  0  0  0  0
 20 47  1  0  0  0  0
 20 48  1  0  0  0  0
 21 49  1  0  0  0  0
 22 26  1  0  0  0  0
 22 23  1  0  0  0  0
 22 50  1  0  0  0  0
 23 24  1  0  0  0  0
 23 51  1  0  0  0  0
 23 52  1  0  0  0  0
 24 25  1  0  0  0  0
 24 53  1  0  0  0  0
 24 54  1  0  0  0  0
 25 26  1  0  0  0  0
 26 55  1  0  0  0  0
 26 56  1  0  0  0  0
 27 28  1  0  0  0  0
 27 29  1  0  0  0  0
 28 57  1  0  0  0  0
 28 58  1  0  0  0  0
 28 59  1  0  0  0  0
 29 60  1  0  0  0  0
 29 61  1  0  0  0  0
M  END
> <s_m_source_file>
AV-unprocessed.smi

> <i_m_source_file_index>
21

> <i_lp_mmshare_version>
43012

> <i_f3d_flags>
0

> <s_epik_input>
W0NIM11PW0NASF0xW0NIMl1bQ0BIXShOKFtDSDNdKVtDSDJdMSlbQ0gyXU4oW0NIM10pYyhuW2NIXW4yKWMoYzIzKW5bY0hdbjNbQ0gyXVtDQEhdKFtDSDJdW09IXSlbQ0BASF00W0NIMl1bQ0gyXU9bQ0gyXTQ=

> <s_epik_cmdline>
J2VwaWtfcHl0aG9uJywgJy1waCcsICc3LjAnLCAnLXRuJywgJzgnLCAnLW1hJywgJzIwMCcsICctbWV0YWxfYmluZGluZycsICctaW1hZScsICc8aW5maWxlLm1hZT4nLCAnLW9tYWUnLCAnPG91dGZpbGUubWFlPic=

> <r_lp_tautomer_probability>
1

> <r_epik_Ionization_Penalty>
2.17574

> <r_epik_Ionization_Penalty_Charging>
0

> <r_epik_Ionization_Penalty_Neutral>
2.17574

> <r_epik_State_Penalty>
2.31336

> <r_epik_Charging_Adjusted_Penalty>
2.31336

> <i_epik_Tot_Q>
0

> <i_epik_Tot_abs_Q>
0

> <r_epik_Metal_State_Penalty>
2.31025

> <b_epik_Metal_Only>
0

> <s_lp_Force_Field>
OPLS_2005

> <r_lp_Energy>
70.5477

> <b_lp_Chiralities_Consistent>
1

> <s_lp_Variant>
AV-unprocessed.smi:21-39

> <Gold.Version>
5.8.1

> <Gold.Id.Protein>
6NUR|6NUR_protein|mol2

> <Gold.PLP.Fitness>
41.9199

> <Gold.PLP.PLP>
-40.2989

> <Gold.PLP.part.hbond>
-3.1448

> <Gold.PLP.part.metal>
0.0000

> <Gold.PLP.part.buried>
-2.4917

> <Gold.PLP.part.nonpolar>
-35.7930

> <Gold.PLP.part.repulsive>
0.1055

> <Gold.PLP.ligand.clash>
0.0000

> <Gold.PLP.ligand.torsion>
1.3618

> <Gold.PLP.Chemscore.Hbond>
1.2191

> <Gold.PLP.Chemscore.CHOScore>
0.0000

> <Gold.PLP.Chemscore.Metal>
0.0000

> <Gold.Chemscore.Hbonds>
donor molecule, donor type, donor heavy atom, donor atom, acceptor molecule, acceptor atom, score
      P1  H  6931  6943       L1    15  0.21
      P1  H  6934  6947       L1    15  1.00

> <Gold.PLP.Chemscore.Internal.Correction>
0.6873

> <Gold.Rescore>
     Score         DG    S(hbond)    S(metal)    S(lipo)     H(rot)  DE(clash)    DE(int)     intcor
      8.51     -11.30       0.96        0.00      87.98       3.00       0.30       2.49       ----

> <Gold.Chemscore.Fitness>
8.5095

> <Gold.Chemscore.DG>
-11.3018

> <Gold.Chemscore.ZeroCoef>
-5.4800

> <Gold.Chemscore.Hbond>
0.9628

> <Gold.Chemscore.Metal>
0.0000

> <Gold.Chemscore.Lipo>
87.9830

> <Gold.Chemscore.Internal_Hbond>
0.0000

> <Gold.Chemscore.DEClash>
0.3008

> <Gold.Chemscore.DEInternal>
2.4915

> <Gold.Chemscore.Rot>
3.0031

> <Gold.Chemscore.Internal.Correction>
   9.000000E+99

> <Gold.Chemscore.Hbonds>
donor molecule, donor type, donor heavy atom, donor atom, acceptor molecule, acceptor atom, score
      P1  H  6931  6943       L1    15  0.01
      P1  H  6934  6947       L1    15  0.96

> <Gold.Chemscore.Hbond.Weighted>
-3.2158

> <Gold.Chemscore.Metal.Weighted>
-0.0000

> <Gold.Chemscore.Lipo.Weighted>
-10.2940

> <Gold.Chemscore.Internal_Hbond.Weighted>
0.0000

> <Gold.Chemscore.DEClash.Weighted>
0.3008

> <Gold.Chemscore.DEInternal.Weighted>
2.4915

> <Gold.Chemscore.Rot.Weighted>
7.6880

> <Gold.Chemscore.Internal.Correction.Weighted>
   9.000000E+99

> <Gold.Protein.RotatedTorsions>
[ 6907 6896 6895 6894 ] final   30.56 input  -60.11 | X-H torsion
[ 7974 7965 7964 7962 ] final  161.70 input  175.53 | X-H torsion
[ 8008 7997 7996 7995 ] final   96.65 input   59.86 | X-H torsion
[ 10167 10162 10161 10158 ] final  121.69 input  -65.29 | X-H torsion
[ 10718 10713 10712 10709 ] final  156.46 input   66.30 | X-H torsion
[ 10763 10752 10751 10750 ] final   59.92 input  -60.55 | X-H torsion
[ 11005 11000 10999 10996 ] final   61.48 input  -57.11 | X-H torsion

> <Gold.Protein.ActiveResidues>
 VAL166  LYS551  ARG553  GLY616  TRP617  ASP618  TYR619  PRO620  LYS621  CYS622 
 ASP623  PHE694  ASN695  SER759  ASP760  ASP761  ALA762  ILE779  LEU786  VAL792 
 PHE793  MET794  SER795  GLU796  ALA797  LYS798  CYS799  TRP800  GLU811  SER814 

> <Gold.Protein.RotatedAtoms>
  152.0477  134.9673  160.0574 H   0  0  0  0  0  0  0  0  0  0  0  0  # atno 6907 bound_to 6896
  152.1086  133.4284  159.4629 H   0  0  0  0  0  0  0  0  0  0  0  0  # atno 6908 bound_to 6896
  150.6842  134.2594  159.4586 H   0  0  0  0  0  0  0  0  0  0  0  0  # atno 6909 bound_to 6896
  144.7673  139.7935  143.6310 H   0  0  0  0  0  0  0  0  0  0  0  0  # atno 7974 bound_to 7965
  156.0819  140.3269  155.7705 H   0  0  0  0  0  0  0  0  0  0  0  0  # atno 8008 bound_to 7997
  155.5139  140.0579  157.2936 H   0  0  0  0  0  0  0  0  0  0  0  0  # atno 8009 bound_to 7997
  154.4587  140.1956  156.0323 H   0  0  0  0  0  0  0  0  0  0  0  0  # atno 8010 bound_to 7997
  139.5904  144.7023  151.3304 H   0  0  0  0  0  0  0  0  0  0  0  0  # atno 10167 bound_to 10162
  157.2046  131.0684  151.2005 H   0  0  0  0  0  0  0  0  0  0  0  0  # atno 10718 bound_to 10713
  152.9907  135.5554  154.5791 H   0  0  0  0  0  0  0  0  0  0  0  0  # atno 10763 bound_to 10752
  154.5176  135.2806  155.1292 H   0  0  0  0  0  0  0  0  0  0  0  0  # atno 10764 bound_to 10752
  154.2659  135.6372  153.5344 H   0  0  0  0  0  0  0  0  0  0  0  0  # atno 10765 bound_to 10752
  140.0158  134.6226  155.9711 H   0  0  0  0  0  0  0  0  0  0  0  0  # atno 11005 bound_to 11000
  146.1791  139.4975  142.9878 LP  0  0  0  0  0  0  0  0  0  0  0  0  # atno 17320 bound_to 7965
  145.6431  141.0280  143.1801 LP  0  0  0  0  0  0  0  0  0  0  0  0  # atno 17321 bound_to 7965
  140.7168  143.7245  150.7671 LP  0  0  0  0  0  0  0  0  0  0  0  0  # atno 17342 bound_to 10162
  140.0799  143.4979  152.2535 LP  0  0  0  0  0  0  0  0  0  0  0  0  # atno 17343 bound_to 10162
  157.3733  130.7192  149.6579 LP  0  0  0  0  0  0  0  0  0  0  0  0  # atno 17370 bound_to 10713
  155.9697  130.4193  150.4367 LP  0  0  0  0  0  0  0  0  0  0  0  0  # atno 17371 bound_to 10713
  141.1742  133.6539  156.4765 LP  0  0  0  0  0  0  0  0  0  0  0  0  # atno 17394 bound_to 11000
  140.4473  134.6961  157.5022 LP  0  0  0  0  0  0  0  0  0  0  0  0  # atno 17395 bound_to 11000

$$$$
