AV-unprocessed.smi:3185|AV-procd|sdf|12172|dock9
  -GOLD-   2272018 13D 1   1.00000     0.00000
 Structure written by MMmdl.
 37 38  0  0  0  0  0  0  0  0  1 V2000
  152.9005  139.6095  154.9920 N   0  0  0  0  0  0  0  0  0  0  0  0
  151.7528  139.5103  155.0988 C   0  0  0  0  0  0  0  0  0  0  0  0
  150.2940  139.3851  155.2344 C   0  0  0  0  0  0  0  0  0  0  0  0
  149.7083  140.3926  156.2320 C   0  0  0  0  0  0  0  0  0  0  0  0
  150.2789  140.2374  157.6478 C   0  0  0  0  0  0  0  0  0  0  0  0
  151.3252  141.2259  157.8648 N   0  0  0  0  0  0  0  0  0  0  0  0
  152.0195  141.0227  159.1335 C   0  0  1  0  0  0  0  0  0  0  0  0
  152.8385  139.7121  159.0908 C   0  0  0  0  0  0  0  0  0  0  0  0
  153.6750  139.5240  160.3657 C   0  0  0  0  0  0  0  0  0  0  0  0
  154.5941  140.7283  160.6119 C   0  0  0  0  0  0  0  0  0  0  0  0
  153.7847  142.0312  160.6756 C   0  0  0  0  0  0  0  0  0  0  0  0
  152.9464  142.2387  159.3970 C   0  0  2  0  0  0  0  0  0  0  0  0
  152.2058  143.4932  159.4649 N   0  0  0  0  0  0  0  0  0  0  0  0
  152.2050  144.4247  160.4827 C   0  0  0  0  0  0  0  0  0  0  0  0
  151.3684  145.4374  160.1103 C   0  0  0  0  0  0  0  0  0  0  0  0
  150.8937  145.0305  158.8326 C   0  0  0  0  0  0  0  0  0  0  0  0
  151.3959  143.8685  158.4485 N   0  0  0  0  0  0  0  0  0  0  0  0
  149.8525  139.5228  154.2471 H   0  0  0  0  0  0  0  0  0  0  0  0
  150.0785  138.3631  155.5467 H   0  0  0  0  0  0  0  0  0  0  0  0
  149.8679  141.4106  155.8738 H   0  0  0  0  0  0  0  0  0  0  0  0
  148.6277  140.2531  156.2735 H   0  0  0  0  0  0  0  0  0  0  0  0
  149.4808  140.3957  158.3742 H   0  0  0  0  0  0  0  0  0  0  0  0
  150.6573  139.2259  157.7933 H   0  0  0  0  0  0  0  0  0  0  0  0
  150.8988  142.1418  157.8784 H   0  0  0  0  0  0  0  0  0  0  0  0
  151.2875  140.9649  159.9407 H   0  0  0  0  0  0  0  0  0  0  0  0
  152.1834  138.8495  158.9731 H   0  0  0  0  0  0  0  0  0  0  0  0
  153.5010  139.7171  158.2240 H   0  0  0  0  0  0  0  0  0  0  0  0
  153.0116  139.3890  161.2207 H   0  0  0  0  0  0  0  0  0  0  0  0
  154.2694  138.6132  160.2891 H   0  0  0  0  0  0  0  0  0  0  0  0
  155.1478  140.5893  161.5410 H   0  0  0  0  0  0  0  0  0  0  0  0
  155.3360  140.7943  159.8150 H   0  0  0  0  0  0  0  0  0  0  0  0
  153.1340  142.0042  161.5508 H   0  0  0  0  0  0  0  0  0  0  0  0
  154.4604  142.8750  160.8194 H   0  0  0  0  0  0  0  0  0  0  0  0
  153.6417  142.3241  158.5596 H   0  0  0  0  0  0  0  0  0  0  0  0
  152.7954  144.2923  161.3774 H   0  0  0  0  0  0  0  0  0  0  0  0
  151.1312  146.3323  160.6665 H   0  0  0  0  0  0  0  0  0  0  0  0
  150.2044  145.5416  158.1769 H   0  0  0  0  0  0  0  0  0  0  0  0
  1  2  3  0  0  0  0
  2  3  1  0  0  0  0
  3  4  1  0  0  0  0
  3 18  1  0  0  0  0
  3 19  1  0  0  0  0
  4  5  1  0  0  0  0
  4 20  1  0  0  0  0
  4 21  1  0  0  0  0
  5  6  1  0  0  0  0
  5 22  1  0  0  0  0
  5 23  1  0  0  0  0
  6  7  1  0  0  0  0
  6 24  1  0  0  0  0
  7 12  1  0  0  0  0
  7  8  1  0  0  0  0
  7 25  1  0  0  0  0
  8  9  1  0  0  0  0
  8 26  1  0  0  0  0
  8 27  1  0  0  0  0
  9 10  1  0  0  0  0
  9 28  1  0  0  0  0
  9 29  1  0  0  0  0
 10 11  1  0  0  0  0
 10 30  1  0  0  0  0
 10 31  1  0  0  0  0
 11 12  1  0  0  0  0
 11 32  1  0  0  0  0
 11 33  1  0  0  0  0
 12 13  1  0  0  0  0
 12 34  1  0  0  0  0
 13 17  1  0  0  0  0
 13 14  1  0  0  0  0
 14 15  2  0  0  0  0
 14 35  1  0  0  0  0
 15 16  1  0  0  0  0
 15 36  1  0  0  0  0
 16 17  2  0  0  0  0
 16 37  1  0  0  0  0
M  END
> <s_m_source_file>
AV-unprocessed.smi

> <i_m_source_file_index>
3185

> <i_lp_mmshare_version>
43012

> <i_f3d_flags>
0

> <s_epik_input>
TiNDW0NIMl1bQ0gyXVtDSDJdW05IXVtDQEBIXTFbQ0gyXVtDSDJdW0NIMl1bQ0gyXVtDQEhdMW4yW2NIXVtjSF1bY0hdbjI=

> <s_epik_cmdline>
J2VwaWtfcHl0aG9uJywgJy1waCcsICc3LjAnLCAnLXRuJywgJzgnLCAnLW1hJywgJzIwMCcsICctbWV0YWxfYmluZGluZycsICctaW1hZScsICc8aW5maWxlLm1hZT4nLCAnLW9tYWUnLCAnPG91dGZpbGUubWFlPic=

> <r_lp_tautomer_probability>
1

> <r_epik_Ionization_Penalty>
2.21326

> <r_epik_Ionization_Penalty_Charging>
0

> <r_epik_Ionization_Penalty_Neutral>
2.21326

> <r_epik_State_Penalty>
2.35651

> <r_epik_Charging_Adjusted_Penalty>
2.35651

> <i_epik_Tot_Q>
0

> <i_epik_Tot_abs_Q>
0

> <r_epik_Metal_State_Penalty>
2.3555

> <b_epik_Metal_Only>
0

> <s_lp_Force_Field>
OPLS_2005

> <r_lp_Energy>
16.6477

> <b_lp_Chiralities_Consistent>
1

> <s_lp_Variant>
AV-unprocessed.smi:3185-8

> <Gold.Version>
5.8.1

> <Gold.Id.Protein>
6NUR|6NUR_protein|mol2

> <Gold.PLP.Fitness>
45.8929

> <Gold.PLP.PLP>
-40.5585

> <Gold.PLP.part.hbond>
-2.0000

> <Gold.PLP.part.metal>
0.0000

> <Gold.PLP.part.buried>
-5.1467

> <Gold.PLP.part.nonpolar>
-34.2169

> <Gold.PLP.part.repulsive>
0.1128

> <Gold.PLP.ligand.clash>
0.0000

> <Gold.PLP.ligand.torsion>
0.3517

> <Gold.PLP.Chemscore.Hbond>
1.0000

> <Gold.PLP.Chemscore.CHOScore>
0.9971

> <Gold.PLP.Chemscore.Metal>
0.0000

> <Gold.Chemscore.Hbonds>
donor molecule, donor type, donor heavy atom, donor atom, acceptor molecule, acceptor atom, score
      P1  H  7997  8008       L1     1  1.00
      L1  C    16    37       P1  8028  0.01
      L1  C    16    37       P1  8029  1.00

> <Gold.PLP.Chemscore.Internal.Correction>
0.0463

> <Gold.Rescore>
     Score         DG    S(hbond)    S(metal)    S(lipo)     H(rot)  DE(clash)    DE(int)     intcor
     14.31     -16.13       1.00        0.00     102.19       1.81       0.03       1.79       ----

> <Gold.Chemscore.Fitness>
14.3093

> <Gold.Chemscore.DG>
-16.1270

> <Gold.Chemscore.ZeroCoef>
-5.4800

> <Gold.Chemscore.Hbond>
0.9961

> <Gold.Chemscore.Metal>
0.0000

> <Gold.Chemscore.Lipo>
102.1916

> <Gold.Chemscore.Internal_Hbond>
0.0000

> <Gold.Chemscore.DEClash>
0.0272

> <Gold.Chemscore.DEInternal>
1.7905

> <Gold.Chemscore.Rot>
1.8110

> <Gold.Chemscore.Internal.Correction>
   9.000000E+99

> <Gold.Chemscore.Hbonds>
donor molecule, donor type, donor heavy atom, donor atom, acceptor molecule, acceptor atom, score
      P1  H  7997  8008       L1     1  0.95

> <Gold.Chemscore.Hbond.Weighted>
-3.3268

> <Gold.Chemscore.Metal.Weighted>
-0.0000

> <Gold.Chemscore.Lipo.Weighted>
-11.9564

> <Gold.Chemscore.Internal_Hbond.Weighted>
0.0000

> <Gold.Chemscore.DEClash.Weighted>
0.0272

> <Gold.Chemscore.DEInternal.Weighted>
1.7905

> <Gold.Chemscore.Rot.Weighted>
4.6362

> <Gold.Chemscore.Internal.Correction.Weighted>
   9.000000E+99

> <Gold.Protein.RotatedTorsions>
[ 6907 6896 6895 6894 ] final   -8.64 input  -60.11 | X-H torsion
[ 7974 7965 7964 7962 ] final  161.67 input  175.53 | X-H torsion
[ 8008 7997 7996 7995 ] final  -36.97 input   59.86 | X-H torsion
[ 10167 10162 10161 10158 ] final -118.60 input  -65.29 | X-H torsion
[ 10718 10713 10712 10709 ] final -160.97 input   66.30 | X-H torsion
[ 10763 10752 10751 10750 ] final -177.22 input  -60.55 | X-H torsion
[ 11005 11000 10999 10996 ] final  -14.70 input  -57.11 | X-H torsion

> <Gold.Protein.ActiveResidues>
 VAL166  LYS551  ARG553  GLY616  TRP617  ASP618  TYR619  PRO620  LYS621  CYS622 
 ASP623  PHE694  ASN695  SER759  ASP760  ASP761  ALA762  ILE779  LEU786  VAL792 
 PHE793  MET794  SER795  GLU796  ALA797  LYS798  CYS799  TRP800  GLU811  SER814 

> <Gold.Protein.RotatedAtoms>
  151.4304  135.1009  159.9640 H   0  0  0  0  0  0  0  0  0  0  0  0  # atno 6907 bound_to 6896
  152.4958  133.8622  159.7266 H   0  0  0  0  0  0  0  0  0  0  0  0  # atno 6908 bound_to 6896
  150.9159  133.6882  159.2871 H   0  0  0  0  0  0  0  0  0  0  0  0  # atno 6909 bound_to 6896
  144.7674  139.7930  143.6310 H   0  0  0  0  0  0  0  0  0  0  0  0  # atno 7974 bound_to 7965
  154.4062  140.1616  156.2460 H   0  0  0  0  0  0  0  0  0  0  0  0  # atno 8008 bound_to 7997
  155.9160  140.3424  155.6113 H   0  0  0  0  0  0  0  0  0  0  0  0  # atno 8009 bound_to 7997
  155.7279  140.0776  157.2292 H   0  0  0  0  0  0  0  0  0  0  0  0  # atno 8010 bound_to 7997
  140.0558  143.5016  152.2058 H   0  0  0  0  0  0  0  0  0  0  0  0  # atno 10167 bound_to 10162
  156.5896  130.8764  151.2886 H   0  0  0  0  0  0  0  0  0  0  0  0  # atno 10718 bound_to 10713
  154.5627  135.2821  155.0903 H   0  0  0  0  0  0  0  0  0  0  0  0  # atno 10763 bound_to 10752
  154.2306  135.6375  153.5178 H   0  0  0  0  0  0  0  0  0  0  0  0  # atno 10764 bound_to 10752
  153.0034  135.5536  154.6226 H   0  0  0  0  0  0  0  0  0  0  0  0  # atno 10765 bound_to 10752
  140.7891  133.8302  155.9363 H   0  0  0  0  0  0  0  0  0  0  0  0  # atno 11005 bound_to 11000
  146.1793  139.4979  142.9876 LP  0  0  0  0  0  0  0  0  0  0  0  0  # atno 17320 bound_to 7965
  145.6427  141.0281  143.1803 LP  0  0  0  0  0  0  0  0  0  0  0  0  # atno 17321 bound_to 7965
  139.5925  144.7555  151.3367 LP  0  0  0  0  0  0  0  0  0  0  0  0  # atno 17342 bound_to 10162
  140.7195  143.7174  150.7722 LP  0  0  0  0  0  0  0  0  0  0  0  0  # atno 17343 bound_to 10162
  157.7307  130.9689  150.1844 LP  0  0  0  0  0  0  0  0  0  0  0  0  # atno 17370 bound_to 10713
  156.2561  130.3705  149.8180 LP  0  0  0  0  0  0  0  0  0  0  0  0  # atno 17371 bound_to 10713
  140.9407  134.1904  157.4799 LP  0  0  0  0  0  0  0  0  0  0  0  0  # atno 17394 bound_to 11000
  139.8733  134.9870  156.5351 LP  0  0  0  0  0  0  0  0  0  0  0  0  # atno 17395 bound_to 11000

$$$$
