#       Name:                AV-unprocessed.smi:3145
#       Creating user name   scv26
#       Creation time:       Fri Mar 27 17:38:11 2020


#       File generated by GOLD software.
#

@<TRIPOS>MOLECULE
AV-unprocessed.smi:3145
    39    39     1
SMALL
NO_CHARGES


@<TRIPOS>ATOM
      1 ****        -2.7335   1.8038  -2.4560 C.3            1 S1                 0.0000
      2 ****        -1.8180   1.5594  -1.2487 C.3            1 S1                 0.0000
      3 ****        -2.6161   1.6635   0.0685 C.3            1 S1                 0.0000
      4 ****        -1.7772   1.5701   1.2497 N.pl3          1 S1                 0.0000
      5 ****        -1.0693   2.5716   1.8802 C.2            1 S1                 0.0000
      6 ****        -0.4214   2.0046   2.9400 C.2            1 S1                 0.0000
      7 ****        -0.8025   0.6351   2.8775 C.2            1 S1                 0.0000
      8 ****        -1.6132   0.3778   1.8635 N.2            1 S1                 0.0000
      9 ****        -1.1739   0.2329  -1.3827 N.4            1 S1                 1.0000
     10 ****         0.2683   0.1983  -1.0573 C.3            1 S1                 0.0000
     11 ****         0.8243  -1.2250  -1.0980 C.2            1 S1                 0.0000
     12 ****         0.3077  -2.0769  -1.8217 O.2            1 S1                 0.0000
     13 ****         1.8917  -1.4675  -0.3240 N.am           1 S1                 0.0000
     14 ****         2.5658  -2.7556  -0.2329 C.3            1 S1                 0.0000
     15 ****         3.6609  -2.7163   0.8381 C.3            1 S1                 0.0000
     16 ****         4.3709  -3.9977   0.9690 C.1            1 S1                 0.0000
     17 ****         4.9291  -5.0056   1.0720 N.1            1 S1                 0.0000
     18 ****        -3.2030   2.7864  -2.4005 H              1 S1                 0.0000
     19 ****        -3.5287   1.0592  -2.5098 H              1 S1                 0.0000
     20 ****        -2.1731   1.7615  -3.3907 H              1 S1                 0.0000
     21 ****        -1.0499   2.3348  -1.2622 H              1 S1                 0.0000
     22 ****        -3.1412   2.6187   0.1112 H              1 S1                 0.0000
     23 ****        -3.3835   0.8886   0.1147 H              1 S1                 0.0000
     24 ****        -1.0831   3.5918   1.5253 H              1 S1                 0.0000
     25 ****         0.2245   2.4944   3.6537 H              1 S1                 0.0000
     26 ****        -0.5154  -0.1737   3.5335 H              1 S1                 0.0000
     27 ****        -1.6602  -0.4230  -0.7879 H              1 S1                 0.0000
     28 ****         0.8152   0.8111  -1.7747 H              1 S1                 0.0000
     29 ****         0.4417   0.6261  -0.0698 H              1 S1                 0.0000
     30 ****         2.2601  -0.7142   0.2390 H              1 S1                 0.0000
     31 ****         1.8406  -3.5348   0.0075 H              1 S1                 0.0000
     32 ****         3.0000  -3.0053  -1.2021 H              1 S1                 0.0000
     33 ****         4.3988  -1.9491   0.6028 H              1 S1                 0.0000
     34 ****         3.2348  -2.4714   1.8113 H              1 S1                 0.0000
     35 ****        -1.2720  -0.0743  -2.3399 H              1 S1                 0.0000
     36 ****        -2.0144  -0.5020   1.6088 LP             1 S1                 0.0000
     37 ****        -0.4814  -1.8397  -2.3883 LP             1 S1                 0.0000
     38 ****         0.6773  -3.0058  -1.8427 LP             1 S1                 0.0000
     39 ****         5.4117  -5.8769   1.1611 LP             1 S1                 0.0000
@<TRIPOS>BOND
    1    1    2 1     
    2    1   18 1     
    3    1   19 1     
    4    1   20 1     
    5    2    3 1     
    6    2    9 1     
    7    2   21 1     
    8    3    4 1     
    9    3   22 1     
   10    3   23 1     
   11    4    8 1     
   12    4    5 1     
   13    5    6 2     
   14    5   24 1     
   15    6    7 1     
   16    6   25 1     
   17    7    8 2     
   18    7   26 1     
   19    9   10 1     
   20    9   27 1     
   21    9   35 1     
   22   10   11 1     
   23   10   28 1     
   24   10   29 1     
   25   11   12 2     
   26   11   13 am    
   27   13   14 1     
   28   13   30 1     
   29   14   15 1     
   30   14   31 1     
   31   14   32 1     
   32   15   16 1     
   33   15   33 1     
   34   15   34 1     
   35   16   17 3     
   36    8   36 1     
   37   12   37 1     
   38   12   38 1     
   39   17   39 1     
@<TRIPOS>SUBSTRUCTURE
      1 S1             1
@<TRIPOS>SET
LONE_PAIRS      STATIC     ATOMS    <user>   **** ""
4 36 37 38 39
DONOR_HYDROGENS      STATIC     ATOMS    <user>   **** ""
3 27 35 30
ATOM$BLUE        STATIC     ATOMS    COLORGROUP SYSTEM
4 36 37 38 39
ATOM$RED        STATIC     ATOMS    COLORGROUP SYSTEM
3 27 35 30
