AV-unprocessed.smi:3237|AV-procd|sdf|12374|dock4
  -GOLD-   2272018233D 1   1.00000     0.00000
 Structure written by MMmdl.
 36 38  0  0  0  0  0  0  0  0  3 V2000
  136.3241  137.3406  154.5672 C   0  0  0  0  0  0  0  0  0  0  0  0
  137.7655  137.0287  154.7808 C   0  0  0  0  0  0  0  0  0  0  0  0
  138.7561  136.5925  153.9470 C   0  0  0  0  0  0  0  0  0  0  0  0
  139.8838  136.5040  154.8061 C   0  0  0  0  0  0  0  0  0  0  0  0
  141.1424  136.0760  154.3064 N   0  0  0  0  0  0  0  0  0  0  0  0
  142.3613  136.2170  154.8588 C   0  0  0  0  0  0  0  0  0  0  0  0
  142.4894  136.7771  155.9536 O   0  0  0  0  0  0  0  0  0  0  0  0
  143.3440  135.6871  154.0789 N   0  5  0  0  0  0  0  0  0  0  0  0
  143.2550  135.4954  152.6302 C   0  0  1  0  0  0  0  0  0  0  0  0
  144.5835  135.7997  151.9365 C   0  0  0  0  0  0  0  0  0  0  0  0
  144.5595  134.9296  150.6716 C   0  0  0  0  0  0  0  0  0  0  0  0
  143.4950  133.9178  150.8706 N   0  3  1  0  0  0  0  0  0  0  0  0
  143.8716  132.5476  150.4614 C   0  0  0  0  0  0  0  0  0  0  0  0
  145.3393  132.2463  150.6482 C   0  0  0  0  0  0  0  0  0  0  0  0
  144.7884  132.5041  149.2624 C   0  0  0  0  0  0  0  0  0  0  0  0
  143.0329  134.0281  152.2683 C   0  0  0  0  0  0  0  0  0  0  0  0
  139.6050  136.8556  156.0527 N   0  0  0  0  0  0  0  0  0  0  0  0
  138.2464  137.1929  156.0428 O   0  0  0  0  0  0  0  0  0  0  0  0
  136.0600  137.2594  153.5127 H   0  0  0  0  0  0  0  0  0  0  0  0
  136.0950  138.3546  154.8954 H   0  0  0  0  0  0  0  0  0  0  0  0
  135.6927  136.6516  155.1281 H   0  0  0  0  0  0  0  0  0  0  0  0
  138.6841  136.3729  152.8923 H   0  0  0  0  0  0  0  0  0  0  0  0
  141.1187  135.6061  153.4138 H   0  0  0  0  0  0  0  0  0  0  0  0
  142.4719  136.0893  152.1559 H   0  0  0  0  0  0  0  0  0  0  0  0
  144.7036  136.8602  151.7129 H   0  0  0  0  0  0  0  0  0  0  0  0
  145.4235  135.4967  152.5643 H   0  0  0  0  0  0  0  0  0  0  0  0
  144.3237  135.5192  149.7844 H   0  0  0  0  0  0  0  0  0  0  0  0
  145.5343  134.4675  150.5067 H   0  0  0  0  0  0  0  0  0  0  0  0
  143.1234  131.7719  150.6155 H   0  0  0  0  0  0  0  0  0  0  0  0
  145.9712  133.0153  151.0894 H   0  0  0  0  0  0  0  0  0  0  0  0
  145.6138  131.2223  150.8933 H   0  0  0  0  0  0  0  0  0  0  0  0
  144.7026  131.6495  148.5943 H   0  0  0  0  0  0  0  0  0  0  0  0
  145.0525  133.4448  148.7824 H   0  0  0  0  0  0  0  0  0  0  0  0
  143.6393  133.3796  152.9042 H   0  0  0  0  0  0  0  0  0  0  0  0
  141.9907  133.7242  152.3705 H   0  0  0  0  0  0  0  0  0  0  0  0
  142.7183  134.2101  150.2952 H   0  0  0  0  0  0  0  0  0  0  0  0
  1  2  1  0  0  0  0
  1 19  1  0  0  0  0
  1 20  1  0  0  0  0
  1 21  1  0  0  0  0
  2 18  1  0  0  0  0
  2  3  2  0  0  0  0
  3  4  1  0  0  0  0
  3 22  1  0  0  0  0
  4  5  1  0  0  0  0
  4 17  2  0  0  0  0
  5  6  1  0  0  0  0
  5 23  1  0  0  0  0
  6  7  2  0  0  0  0
  6  8  1  0  0  0  0
  8  9  1  0  0  0  0
  9 16  1  0  0  0  0
  9 10  1  0  0  0  0
  9 24  1  0  0  0  0
 10 11  1  0  0  0  0
 10 25  1  0  0  0  0
 10 26  1  0  0  0  0
 11 12  1  0  0  0  0
 11 27  1  0  0  0  0
 11 28  1  0  0  0  0
 12 13  1  0  0  0  0
 12 16  1  0  0  0  0
 12 36  1  0  0  0  0
 13 15  1  0  0  0  0
 13 14  1  0  0  0  0
 13 29  1  0  0  0  0
 14 15  1  0  0  0  0
 14 30  1  0  0  0  0
 14 31  1  0  0  0  0
 15 32  1  0  0  0  0
 15 33  1  0  0  0  0
 16 34  1  0  0  0  0
 16 35  1  0  0  0  0
 17 18  1  0  0  0  0
M  CHG  1   8  -1
M  CHG  1  12   1
M  END
> <s_m_source_file>
AV-unprocessed.smi

> <i_m_source_file_index>
3237

> <i_lp_mmshare_version>
43012

> <i_f3d_flags>
0

> <s_epik_input>
W0NIM11jMVtjSF1jKG5vMSlbTkhdQyg9TylbTkhdW0NAQEhdMltDSDJdW0NIMl1OKFtDSDJdMilbQ0hdM1tDSDJdW0NIMl0z

> <s_epik_cmdline>
J2VwaWtfcHl0aG9uJywgJy1waCcsICc3LjAnLCAnLXRuJywgJzgnLCAnLW1hJywgJzIwMCcsICctbWV0YWxfYmluZGluZycsICctaW1hZScsICc8aW5maWxlLm1hZT4nLCAnLW9tYWUnLCAnPG91dGZpbGUubWFlPic=

> <r_epik_Ionization_Penalty>
6.76456

> <r_epik_Ionization_Penalty_Charging>
6.76456

> <r_epik_Ionization_Penalty_Neutral>
5.76722e-06

> <r_epik_State_Penalty>
6.78919

> <r_epik_Charging_Adjusted_Penalty>
13.5538

> <i_epik_Tot_Q>
0

> <i_epik_Tot_abs_Q>
2

> <r_epik_Metal_State_Penalty>
2.728

> <b_epik_Metal_Only>
1

> <s_lp_Force_Field>
OPLS_2005

> <r_lp_Energy>
31.1689

> <b_lp_Chiralities_Consistent>
1

> <s_lp_Variant>
AV-unprocessed.smi:3237-12

> <Gold.Version>
5.8.1

> <Gold.Id.Protein>
6NUR|6NUR_protein|mol2

> <Gold.PLP.Fitness>
38.6256

> <Gold.PLP.PLP>
-33.4769

> <Gold.PLP.part.hbond>
-1.3985

> <Gold.PLP.part.metal>
0.0000

> <Gold.PLP.part.buried>
-6.5280

> <Gold.PLP.part.nonpolar>
-25.5610

> <Gold.PLP.part.repulsive>
0.1203

> <Gold.PLP.ligand.clash>
0.0000

> <Gold.PLP.ligand.torsion>
1.0704

> <Gold.PLP.Chemscore.Hbond>
2.0000

> <Gold.PLP.Chemscore.CHOScore>
0.0000

> <Gold.PLP.Chemscore.Metal>
0.0000

> <Gold.Chemscore.Hbonds>
donor molecule, donor type, donor heavy atom, donor atom, acceptor molecule, acceptor atom, score
      L1  H    12    36       P1 10186  2.00

> <Gold.PLP.Chemscore.Internal.Correction>
1.2895

> <Gold.Rescore>
     Score         DG    S(hbond)    S(metal)    S(lipo)     H(rot)  DE(clash)    DE(int)     intcor
     12.48     -14.78       0.98        0.00      78.74       1.25       0.06       2.24       ----

> <Gold.Chemscore.Fitness>
12.4841

> <Gold.Chemscore.DG>
-14.7811

> <Gold.Chemscore.ZeroCoef>
-5.4800

> <Gold.Chemscore.Hbond>
0.9817

> <Gold.Chemscore.Metal>
0.0000

> <Gold.Chemscore.Lipo>
78.7447

> <Gold.Chemscore.Internal_Hbond>
0.0000

> <Gold.Chemscore.DEClash>
0.0605

> <Gold.Chemscore.DEInternal>
2.2365

> <Gold.Chemscore.Rot>
1.2464

> <Gold.Chemscore.Internal.Correction>
   9.000000E+99

> <Gold.Chemscore.Hbonds>
donor molecule, donor type, donor heavy atom, donor atom, acceptor molecule, acceptor atom, score
      L1  H    12    36       P1 10186  0.88

> <Gold.Chemscore.Hbond.Weighted>
-3.2788

> <Gold.Chemscore.Metal.Weighted>
-0.0000

> <Gold.Chemscore.Lipo.Weighted>
-9.2131

> <Gold.Chemscore.Internal_Hbond.Weighted>
0.0000

> <Gold.Chemscore.DEClash.Weighted>
0.0605

> <Gold.Chemscore.DEInternal.Weighted>
2.2365

> <Gold.Chemscore.Rot.Weighted>
3.1909

> <Gold.Chemscore.Internal.Correction.Weighted>
   9.000000E+99

> <Gold.Protein.RotatedTorsions>
[ 6907 6896 6895 6894 ] final  142.88 input  -60.11 | X-H torsion
[ 7974 7965 7964 7962 ] final  -94.13 input  175.53 | X-H torsion
[ 8008 7997 7996 7995 ] final  -75.27 input   59.86 | X-H torsion
[ 10167 10162 10161 10158 ] final  -49.60 input  -65.29 | X-H torsion
[ 10718 10713 10712 10709 ] final  120.71 input   66.30 | X-H torsion
[ 10763 10752 10751 10750 ] final   74.37 input  -60.55 | X-H torsion
[ 11005 11000 10999 10996 ] final  -53.46 input  -57.11 | X-H torsion

> <Gold.Protein.ActiveResidues>
 VAL166  LYS551  ARG553  GLY616  TRP617  ASP618  TYR619  PRO620  LYS621  CYS622 
 ASP623  PHE694  ASN695  SER759  ASP760  ASP761  ALA762  ILE779  LEU786  VAL792 
 PHE793  MET794  SER795  GLU796  ALA797  LYS798  CYS799  TRP800  GLU811  SER814 

> <Gold.Protein.RotatedAtoms>
  152.2133  133.4927  159.5121 H   0  0  0  0  0  0  0  0  0  0  0  0  # atno 6907 bound_to 6896
  150.6995  134.1439  159.4124 H   0  0  0  0  0  0  0  0  0  0  0  0  # atno 6908 bound_to 6896
  151.9358  135.0235  160.0583 H   0  0  0  0  0  0  0  0  0  0  0  0  # atno 6909 bound_to 6896
  145.3773  140.9513  143.2413 H   0  0  0  0  0  0  0  0  0  0  0  0  # atno 7974 bound_to 7965
  154.5402  140.0747  156.8497 H   0  0  0  0  0  0  0  0  0  0  0  0  # atno 8008 bound_to 7997
  155.3196  140.3395  155.4223 H   0  0  0  0  0  0  0  0  0  0  0  0  # atno 8009 bound_to 7997
  156.1867  140.1671  156.8157 H   0  0  0  0  0  0  0  0  0  0  0  0  # atno 8010 bound_to 7997
  140.6677  143.2691  151.4239 H   0  0  0  0  0  0  0  0  0  0  0  0  # atno 10167 bound_to 10162
  157.5871  131.1068  150.8073 H   0  0  0  0  0  0  0  0  0  0  0  0  # atno 10718 bound_to 10713
  153.0582  135.5028  154.8032 H   0  0  0  0  0  0  0  0  0  0  0  0  # atno 10763 bound_to 10752
  154.6841  135.2973  154.9574 H   0  0  0  0  0  0  0  0  0  0  0  0  # atno 10764 bound_to 10752
  154.0350  135.6724  153.4837 H   0  0  0  0  0  0  0  0  0  0  0  0  # atno 10765 bound_to 10752
  141.0977  133.6622  156.4176 H   0  0  0  0  0  0  0  0  0  0  0  0  # atno 11005 bound_to 11000
  144.8533  139.5289  143.6846 LP  0  0  0  0  0  0  0  0  0  0  0  0  # atno 17320 bound_to 7965
  146.2858  139.7000  142.9196 LP  0  0  0  0  0  0  0  0  0  0  0  0  # atno 17321 bound_to 7965
  139.5933  144.1453  152.2114 LP  0  0  0  0  0  0  0  0  0  0  0  0  # atno 17342 bound_to 10162
  140.0814  144.5697  150.7120 LP  0  0  0  0  0  0  0  0  0  0  0  0  # atno 17343 bound_to 10162
  156.8504  130.5078  149.5312 LP  0  0  0  0  0  0  0  0  0  0  0  0  # atno 17370 bound_to 10713
  156.0921  130.5904  150.9751 LP  0  0  0  0  0  0  0  0  0  0  0  0  # atno 17371 bound_to 10713
  140.5099  134.6405  157.5280 LP  0  0  0  0  0  0  0  0  0  0  0  0  # atno 17394 bound_to 11000
  139.9819  134.7124  155.9845 LP  0  0  0  0  0  0  0  0  0  0  0  0  # atno 17395 bound_to 11000

$$$$
