AV-unprocessed.smi:2224|AV-procd|sdf|8997|dock9
  -GOLD-   2272012203D 1   1.00000     0.00000
 Structure written by MMmdl.
 44 46  0  0  0  0  0  0  0  0  1 V2000
  151.8637  145.7034  160.0556 C   0  0  0  0  0  0  0  0  0  0  0  0
  152.1007  144.2242  159.8349 C   0  0  0  0  0  0  0  0  0  0  0  0
  152.9646  143.4974  160.6763 C   0  0  0  0  0  0  0  0  0  0  0  0
  153.1433  142.1241  160.4187 C   0  0  0  0  0  0  0  0  0  0  0  0
  154.0553  141.2816  161.2856 C   0  0  0  0  0  0  0  0  0  0  0  0
  152.5248  141.4778  159.4074 N   0  0  0  0  0  0  0  0  0  0  0  0
  151.6909  142.1675  158.5901 C   0  0  0  0  0  0  0  0  0  0  0  0
  150.9921  141.5814  157.5009 N   0  0  0  0  0  0  0  0  0  0  0  0
  151.3528  140.5202  156.7579 C   0  0  0  0  0  0  0  0  0  0  0  0
  152.3917  139.8735  156.8937 O   0  0  0  0  0  0  0  0  0  0  0  0
  150.4249  140.2360  155.8336 N   0  0  0  0  0  0  0  0  0  0  0  0
  150.5215  139.1298  154.8748 C   0  0  2  0  0  0  0  0  0  0  0  0
  149.2324  138.9266  154.0738 C   0  0  2  0  0  0  0  0  0  0  0  0
  148.0221  139.7369  153.7790 C   0  0  0  0  0  0  0  0  0  0  0  0
  146.9808  138.5967  153.9462 C   0  0  0  0  0  0  0  0  0  0  0  0
  147.7019  137.4774  154.5230 O   0  0  0  0  0  0  0  0  0  0  0  0
  148.7569  138.0865  155.2408 C   0  0  1  0  0  0  0  0  0  0  0  0
  150.2337  137.6903  155.4621 C   0  0  0  0  0  0  0  0  0  0  0  0
  150.7646  136.4849  154.6651 C   0  0  0  0  0  0  0  0  0  0  0  0
  150.6313  137.4333  156.9199 C   0  0  0  0  0  0  0  0  0  0  0  0
  151.4574  143.5485  158.7782 C   0  0  0  0  0  0  0  0  0  0  0  0
  152.3688  146.0559  160.9553 H   0  0  0  0  0  0  0  0  0  0  0  0
  150.7975  145.9035  160.1632 H   0  0  0  0  0  0  0  0  0  0  0  0
  152.2380  146.2761  159.2069 H   0  0  0  0  0  0  0  0  0  0  0  0
  153.4761  143.9791  161.4970 H   0  0  0  0  0  0  0  0  0  0  0  0
  154.6560  141.9048  161.9489 H   0  0  0  0  0  0  0  0  0  0  0  0
  154.7340  140.6926  160.6680 H   0  0  0  0  0  0  0  0  0  0  0  0
  153.4673  140.5981  161.8985 H   0  0  0  0  0  0  0  0  0  0  0  0
  150.1107  142.0140  157.2682 H   0  0  0  0  0  0  0  0  0  0  0  0
  149.5993  140.8147  155.7853 H   0  0  0  0  0  0  0  0  0  0  0  0
  151.4095  139.1696  154.2418 H   0  0  0  0  0  0  0  0  0  0  0  0
  149.4697  138.3271  153.1915 H   0  0  0  0  0  0  0  0  0  0  0  0
  147.8728  140.5378  154.5041 H   0  0  0  0  0  0  0  0  0  0  0  0
  148.0266  140.1579  152.7734 H   0  0  0  0  0  0  0  0  0  0  0  0
  146.1682  138.9062  154.6046 H   0  0  0  0  0  0  0  0  0  0  0  0
  146.5472  138.2973  152.9917 H   0  0  0  0  0  0  0  0  0  0  0  0
  148.3593  138.6694  156.0780 H   0  0  0  0  0  0  0  0  0  0  0  0
  150.2446  135.5682  154.9447 H   0  0  0  0  0  0  0  0  0  0  0  0
  151.8271  136.3246  154.8508 H   0  0  0  0  0  0  0  0  0  0  0  0
  150.6546  136.5925  153.5873 H   0  0  0  0  0  0  0  0  0  0  0  0
  150.3002  136.4512  157.2587 H   0  0  0  0  0  0  0  0  0  0  0  0
  150.1912  138.1633  157.5994 H   0  0  0  0  0  0  0  0  0  0  0  0
  151.7128  137.4805  157.0521 H   0  0  0  0  0  0  0  0  0  0  0  0
  150.7907  144.0874  158.1203 H   0  0  0  0  0  0  0  0  0  0  0  0
  1  2  1  0  0  0  0
  1 22  1  0  0  0  0
  1 23  1  0  0  0  0
  1 24  1  0  0  0  0
  2 21  1  0  0  0  0
  2  3  2  0  0  0  0
  3  4  1  0  0  0  0
  3 25  1  0  0  0  0
  4  5  1  0  0  0  0
  4  6  2  0  0  0  0
  5 26  1  0  0  0  0
  5 27  1  0  0  0  0
  5 28  1  0  0  0  0
  6  7  1  0  0  0  0
  7  8  1  0  0  0  0
  7 21  2  0  0  0  0
  8  9  1  0  0  0  0
  8 29  1  0  0  0  0
  9 10  2  0  0  0  0
  9 11  1  0  0  0  0
 11 12  1  0  0  0  0
 11 30  1  0  0  0  0
 12 18  1  0  0  0  0
 12 13  1  0  0  0  0
 12 31  1  0  0  0  0
 13 17  1  0  0  0  0
 13 14  1  0  0  0  0
 13 32  1  0  0  0  0
 14 15  1  0  0  0  0
 14 33  1  0  0  0  0
 14 34  1  0  0  0  0
 15 16  1  0  0  0  0
 15 35  1  0  0  0  0
 15 36  1  0  0  0  0
 16 17  1  0  0  0  0
 17 18  1  0  0  0  0
 17 37  1  0  0  0  0
 18 19  1  0  0  0  0
 18 20  1  0  0  0  0
 19 38  1  0  0  0  0
 19 39  1  0  0  0  0
 19 40  1  0  0  0  0
 20 41  1  0  0  0  0
 20 42  1  0  0  0  0
 20 43  1  0  0  0  0
 21 44  1  0  0  0  0
M  END
> <s_m_source_file>
AV-unprocessed.smi

> <i_m_source_file_index>
2224

> <i_lp_mmshare_version>
43012

> <i_f3d_flags>
0

> <s_epik_input>
W0NIM11jMVtjSF1jKFtDSDNdKW5jKFtjSF0xKVtOSF1DKD1PKVtOSF1bQ0BIXTJDKFtDSDNdKShbQ0gzXSlbQ0BIXShbQ0BASF0yMylPW0NIMl1bQ0gyXTM=

> <s_epik_cmdline>
J2VwaWtfcHl0aG9uJywgJy1waCcsICc3LjAnLCAnLXRuJywgJzgnLCAnLW1hJywgJzIwMCcsICctbWV0YWxfYmluZGluZycsICctaW1hZScsICc8aW5maWxlLm1hZT4nLCAnLW9tYWUnLCAnPG91dGZpbGUubWFlPic=

> <r_lp_tautomer_probability>
1

> <r_epik_Ionization_Penalty>
0.000276544

> <r_epik_Ionization_Penalty_Charging>
0

> <r_epik_Ionization_Penalty_Neutral>
0.000276544

> <r_epik_State_Penalty>
-0

> <r_epik_Charging_Adjusted_Penalty>
0

> <i_epik_Tot_Q>
0

> <i_epik_Tot_abs_Q>
0

> <r_epik_Metal_State_Penalty>
-0

> <b_epik_Metal_Only>
0

> <s_lp_Force_Field>
OPLS_2005

> <r_lp_Energy>
64.3879

> <b_lp_Chiralities_Consistent>
1

> <s_lp_Variant>
AV-unprocessed.smi:2224-7

> <Gold.Version>
5.8.1

> <Gold.Id.Protein>
6NUR|6NUR_protein|mol2

> <Gold.PLP.Fitness>
39.0439

> <Gold.PLP.PLP>
-36.3915

> <Gold.PLP.part.hbond>
-1.0000

> <Gold.PLP.part.metal>
0.0000

> <Gold.PLP.part.buried>
-3.9388

> <Gold.PLP.part.nonpolar>
-31.2564

> <Gold.PLP.part.repulsive>
0.2426

> <Gold.PLP.ligand.clash>
0.0000

> <Gold.PLP.ligand.torsion>
0.3033

> <Gold.PLP.Chemscore.Hbond>
1.0000

> <Gold.PLP.Chemscore.CHOScore>
0.0000

> <Gold.PLP.Chemscore.Metal>
0.0000

> <Gold.Chemscore.Hbonds>
donor molecule, donor type, donor heavy atom, donor atom, acceptor molecule, acceptor atom, score
      P1  H  7997  8010       L1    10  1.00

> <Gold.PLP.Chemscore.Internal.Correction>
0.2589

> <Gold.Rescore>
     Score         DG    S(hbond)    S(metal)    S(lipo)     H(rot)  DE(clash)    DE(int)     intcor
     16.64     -18.08       1.00        0.00     101.06       1.00       0.03       1.40       ----

> <Gold.Chemscore.Fitness>
16.6442

> <Gold.Chemscore.DG>
-18.0781

> <Gold.Chemscore.ZeroCoef>
-5.4800

> <Gold.Chemscore.Hbond>
0.9982

> <Gold.Chemscore.Metal>
0.0000

> <Gold.Chemscore.Lipo>
101.0601

> <Gold.Chemscore.Internal_Hbond>
0.0000

> <Gold.Chemscore.DEClash>
0.0306

> <Gold.Chemscore.DEInternal>
1.4032

> <Gold.Chemscore.Rot>
1.0000

> <Gold.Chemscore.Internal.Correction>
   9.000000E+99

> <Gold.Chemscore.Hbonds>
donor molecule, donor type, donor heavy atom, donor atom, acceptor molecule, acceptor atom, score
      P1  H  7997  8010       L1    10  0.96

> <Gold.Chemscore.Hbond.Weighted>
-3.3340

> <Gold.Chemscore.Metal.Weighted>
-0.0000

> <Gold.Chemscore.Lipo.Weighted>
-11.8240

> <Gold.Chemscore.Internal_Hbond.Weighted>
0.0000

> <Gold.Chemscore.DEClash.Weighted>
0.0306

> <Gold.Chemscore.DEInternal.Weighted>
1.4032

> <Gold.Chemscore.Rot.Weighted>
2.5600

> <Gold.Chemscore.Internal.Correction.Weighted>
   9.000000E+99

> <Gold.Protein.RotatedTorsions>
[ 6907 6896 6895 6894 ] final  -65.45 input  -60.11 | X-H torsion
[ 7974 7965 7964 7962 ] final  -39.62 input  175.53 | X-H torsion
[ 8008 7997 7996 7995 ] final   63.19 input   59.86 | X-H torsion
[ 10167 10162 10161 10158 ] final  119.00 input  -65.29 | X-H torsion
[ 10718 10713 10712 10709 ] final -166.82 input   66.30 | X-H torsion
[ 10763 10752 10751 10750 ] final    7.12 input  -60.55 | X-H torsion
[ 11005 11000 10999 10996 ] final  -15.98 input  -57.11 | X-H torsion

> <Gold.Protein.ActiveResidues>
 VAL166  LYS551  ARG553  GLY616  TRP617  ASP618  TYR619  PRO620  LYS621  CYS622 
 ASP623  PHE694  ASN695  SER759  ASP760  ASP761  ALA762  ILE779  LEU786  VAL792 
 PHE793  MET794  SER795  GLU796  ALA797  LYS798  CYS799  TRP800  GLU811  SER814 

> <Gold.Protein.RotatedAtoms>
  150.7523  134.6159  159.6109 H   0  0  0  0  0  0  0  0  0  0  0  0  # atno 6907 bound_to 6896
  152.3479  134.7042  160.0254 H   0  0  0  0  0  0  0  0  0  0  0  0  # atno 6908 bound_to 6896
  151.7473  133.3289  159.3418 H   0  0  0  0  0  0  0  0  0  0  0  0  # atno 6909 bound_to 6896
  146.0379  140.6647  142.9101 H   0  0  0  0  0  0  0  0  0  0  0  0  # atno 7974 bound_to 7965
  155.6263  140.3496  155.4668 H   0  0  0  0  0  0  0  0  0  0  0  0  # atno 8008 bound_to 7997
  156.0039  140.1219  157.0544 H   0  0  0  0  0  0  0  0  0  0  0  0  # atno 8009 bound_to 7997
  154.4258  140.1095  156.5721 H   0  0  0  0  0  0  0  0  0  0  0  0  # atno 8010 bound_to 7997
  139.6074  144.7073  151.2921 H   0  0  0  0  0  0  0  0  0  0  0  0  # atno 10167 bound_to 10162
  156.6734  130.9093  151.3047 H   0  0  0  0  0  0  0  0  0  0  0  0  # atno 10718 bound_to 10713
  153.2399  135.6902  153.7795 H   0  0  0  0  0  0  0  0  0  0  0  0  # atno 10763 bound_to 10752
  153.6928  135.3310  155.3207 H   0  0  0  0  0  0  0  0  0  0  0  0  # atno 10764 bound_to 10752
  154.8351  135.4549  154.1317 H   0  0  0  0  0  0  0  0  0  0  0  0  # atno 10765 bound_to 10752
  140.8022  133.8205  155.9481 H   0  0  0  0  0  0  0  0  0  0  0  0  # atno 11005 bound_to 11000
  144.7060  140.3855  143.7117 LP  0  0  0  0  0  0  0  0  0  0  0  0  # atno 17320 bound_to 7965
  145.6933  139.1644  143.2634 LP  0  0  0  0  0  0  0  0  0  0  0  0  # atno 17321 bound_to 7965
  140.7295  143.6907  150.7925 LP  0  0  0  0  0  0  0  0  0  0  0  0  # atno 17342 bound_to 10162
  140.0495  143.5264  152.2680 LP  0  0  0  0  0  0  0  0  0  0  0  0  # atno 17343 bound_to 10162
  157.7069  130.9395  150.0961 LP  0  0  0  0  0  0  0  0  0  0  0  0  # atno 17370 bound_to 10713
  156.1922  130.3655  149.8895 LP  0  0  0  0  0  0  0  0  0  0  0  0  # atno 17371 bound_to 10713
  140.9283  134.2054  157.4881 LP  0  0  0  0  0  0  0  0  0  0  0  0  # atno 17394 bound_to 11000
  139.8721  134.9822  156.5146 LP  0  0  0  0  0  0  0  0  0  0  0  0  # atno 17395 bound_to 11000

$$$$
