#       Name:                AV-unprocessed.smi:530
#       Creating user name   scv26
#       Creation time:       Thu Mar 26 23:33:35 2020


#       File generated by GOLD software.
#

@<TRIPOS>MOLECULE
AV-unprocessed.smi:530
    38    40     1
SMALL
NO_CHARGES


@<TRIPOS>ATOM
      1 ****        -1.4615   1.2590  -2.9303 C.3            1 S1                 0.0000
      2 ****        -1.4538   1.6623  -1.4940 C.2            1 S1                 0.0000
      3 ****        -1.8644   2.8630  -0.9960 N.pl3          1 S1                 1.0000
      4 ****        -1.7122   2.8760   0.3914 C.ar           1 S1                 0.0000
      5 ****        -1.9916   3.8638   1.3309 C.ar           1 S1                 0.0000
      6 ****        -1.7182   3.5504   2.6788 C.ar           1 S1                 0.0000
      7 ****        -1.1867   2.2975   3.0485 C.ar           1 S1                 0.0000
      8 ****        -0.9066   1.3043   2.0868 C.ar           1 S1                 0.0000
      9 ****        -1.1820   1.6221   0.7572 C.ar           1 S1                 0.0000
     10 ****        -1.0396   0.9074  -0.4366 N.pl3          1 S1                 0.0000
     11 ****        -0.5048  -0.4617  -0.3930 C.3            1 S1                 0.0000
     12 ****         1.0334  -0.5051  -0.2960 C.3            1 S1                 0.0000
     13 ****         1.6018   0.1692  -1.4018 O.3            1 S1                 0.0000
     14 ****         1.5366  -1.9343  -0.1736 C.ar           1 S1                 0.0000
     15 ****         1.9902  -2.4185   1.0725 C.ar           1 S1                 0.0000
     16 ****         2.4464  -3.7454   1.1950 C.ar           1 S1                 0.0000
     17 ****         2.4497  -4.5962   0.0731 C.ar           1 S1                 0.0000
     18 ****         1.9963  -4.1196  -1.1718 C.ar           1 S1                 0.0000
     19 ****         1.5407  -2.7926  -1.2953 C.ar           1 S1                 0.0000
     20 ****        -1.8272   2.0738  -3.5553 H              1 S1                 0.0000
     21 ****        -2.1087   0.3937  -3.0743 H              1 S1                 0.0000
     22 ****        -0.4539   0.9989  -3.2544 H              1 S1                 0.0000
     23 ****        -2.3983   4.8243   1.0500 H              1 S1                 0.0000
     24 ****        -1.9201   4.2858   3.4442 H              1 S1                 0.0000
     25 ****        -0.9902   2.0931   4.0910 H              1 S1                 0.0000
     26 ****        -0.4990   0.3477   2.3788 H              1 S1                 0.0000
     27 ****        -0.9616  -0.9799   0.4511 H              1 S1                 0.0000
     28 ****        -0.8459  -0.9808  -1.2896 H              1 S1                 0.0000
     29 ****         1.3477   0.0424   0.5932 H              1 S1                 0.0000
     30 ****         2.5400   0.1913  -1.2883 H              1 S1                 0.0000
     31 ****         1.9890  -1.7750   1.9401 H              1 S1                 0.0000
     32 ****         2.7927  -4.1113   2.1505 H              1 S1                 0.0000
     33 ****         2.7983  -5.6140   0.1678 H              1 S1                 0.0000
     34 ****         1.9962  -4.7725  -2.0322 H              1 S1                 0.0000
     35 ****         1.1910  -2.4364  -2.2533 H              1 S1                 0.0000
     36 ****        -2.2232   3.6176  -1.5667 H              1 S1                 0.0000
     37 ****         1.2452   1.1023  -1.4479 LP             1 S1                 0.0000
     38 ****         1.3752  -0.3163  -2.2461 LP             1 S1                 0.0000
@<TRIPOS>BOND
    1    1    2 1     
    2    1   20 1     
    3    1   21 1     
    4    1   22 1     
    5    2   10 1     
    6    2    3 2     
    7    3    4 1     
    8    3   36 1     
    9    4    9 ar    
   10    4    5 ar    
   11    5    6 ar    
   12    5   23 1     
   13    6    7 ar    
   14    6   24 1     
   15    7    8 ar    
   16    7   25 1     
   17    8    9 ar    
   18    8   26 1     
   19    9   10 1     
   20   10   11 1     
   21   11   12 1     
   22   11   27 1     
   23   11   28 1     
   24   12   13 1     
   25   12   14 1     
   26   12   29 1     
   27   13   30 1     
   28   14   19 ar    
   29   14   15 ar    
   30   15   16 ar    
   31   15   31 1     
   32   16   17 ar    
   33   16   32 1     
   34   17   18 ar    
   35   17   33 1     
   36   18   19 ar    
   37   18   34 1     
   38   19   35 1     
   39   13   37 1     
   40   13   38 1     
@<TRIPOS>SUBSTRUCTURE
      1 S1             1
@<TRIPOS>SET
LONE_PAIRS      STATIC     ATOMS    <user>   **** ""
2 37 38
DONOR_HYDROGENS      STATIC     ATOMS    <user>   **** ""
2 36 30
ATOM$BLUE        STATIC     ATOMS    COLORGROUP SYSTEM
2 37 38
ATOM$RED        STATIC     ATOMS    COLORGROUP SYSTEM
2 36 30
