AV-unprocessed.smi:10|AV-procd|sdf|54|dock3
  -GOLD-   2262015173D 1   1.00000     0.00000
 Structure written by MMmdl.
 34 36  0  0  0  0  0  0  0  0  1 V2000
  152.1806  145.2274  160.4002 C   0  0  0  0  0  0  0  0  0  0  0  0
  152.1620  143.8119  160.0942 N   0  0  0  0  0  0  0  0  0  0  0  0
  152.5836  142.8005  160.8763 C   0  0  0  0  0  0  0  0  0  0  0  0
  152.4531  141.5849  160.3477 N   0  0  0  0  0  0  0  0  0  0  0  0
  151.8931  141.8600  159.1051 C   0  0  0  0  0  0  0  0  0  0  0  0
  151.4939  140.9525  158.0050 C   0  0  0  0  0  0  0  0  0  0  0  0
  151.6183  139.7298  158.0806 O   0  0  0  0  0  0  0  0  0  0  0  0
  150.9838  141.6140  156.9234 N   0  0  0  0  0  0  0  0  0  0  0  0
  150.5442  140.8786  155.7275 C   0  0  0  0  0  0  0  0  0  0  0  0
  149.0990  141.2365  155.3178 C   0  0  1  0  0  0  0  0  0  0  0  0
  149.1541  142.2326  154.3150 O   0  0  0  0  0  0  0  0  0  0  0  0
  148.3459  140.0223  154.7651 C   0  0  0  0  0  0  0  0  0  0  0  0
  148.8324  139.2903  153.5038 C   0  0  0  0  0  0  0  0  0  0  0  0
  147.3661  138.9939  153.1710 C   0  0  0  0  0  0  0  0  0  0  0  0
  146.9830  140.1748  154.0697 C   0  0  0  0  0  0  0  0  0  0  0  0
  150.8391  143.0337  156.8861 C   0  0  0  0  0  0  0  0  0  0  0  0
  151.1807  143.8593  157.8410 N   0  0  0  0  0  0  0  0  0  0  0  0
  151.7073  143.2030  158.9310 C   0  0  0  0  0  0  0  0  0  0  0  0
  152.5468  145.3902  161.4143 H   0  0  0  0  0  0  0  0  0  0  0  0
  151.1727  145.6345  160.3170 H   0  0  0  0  0  0  0  0  0  0  0  0
  152.8352  145.7450  159.6988 H   0  0  0  0  0  0  0  0  0  0  0  0
  152.9988  142.9591  161.8608 H   0  0  0  0  0  0  0  0  0  0  0  0
  151.2271  141.0170  154.8864 H   0  0  0  0  0  0  0  0  0  0  0  0
  150.6025  139.8103  155.9448 H   0  0  0  0  0  0  0  0  0  0  0  0
  148.5490  141.6383  156.1697 H   0  0  0  0  0  0  0  0  0  0  0  0
  149.0368  143.0760  154.7249 H   0  0  0  0  0  0  0  0  0  0  0  0
  148.2289  139.2777  155.5559 H   0  0  0  0  0  0  0  0  0  0  0  0
  149.3020  139.9522  152.7746 H   0  0  0  0  0  0  0  0  0  0  0  0
  149.4446  138.4088  153.6971 H   0  0  0  0  0  0  0  0  0  0  0  0
  147.1030  139.1155  152.1199 H   0  0  0  0  0  0  0  0  0  0  0  0
  147.0284  138.0343  153.5656 H   0  0  0  0  0  0  0  0  0  0  0  0
  146.1214  139.9964  154.7136 H   0  0  0  0  0  0  0  0  0  0  0  0
  146.8787  141.1059  153.5108 H   0  0  0  0  0  0  0  0  0  0  0  0
  150.3978  143.4042  155.9592 H   0  0  0  0  0  0  0  0  0  0  0  0
  1  2  1  0  0  0  0
  1 19  1  0  0  0  0
  1 20  1  0  0  0  0
  1 21  1  0  0  0  0
  2 18  1  0  0  0  0
  2  3  1  0  0  0  0
  3  4  2  0  0  0  0
  3 22  1  0  0  0  0
  4  5  1  0  0  0  0
  5 18  2  0  0  0  0
  5  6  1  0  0  0  0
  6  7  2  0  0  0  0
  6  8  1  0  0  0  0
  8  9  1  0  0  0  0
  8 16  1  0  0  0  0
  9 10  1  0  0  0  0
  9 23  1  0  0  0  0
  9 24  1  0  0  0  0
 10 11  1  0  0  0  0
 10 12  1  0  0  0  0
 10 25  1  0  0  0  0
 11 26  1  0  0  0  0
 12 15  1  0  0  0  0
 12 13  1  0  0  0  0
 12 27  1  0  0  0  0
 13 14  1  0  0  0  0
 13 28  1  0  0  0  0
 13 29  1  0  0  0  0
 14 15  1  0  0  0  0
 14 30  1  0  0  0  0
 14 31  1  0  0  0  0
 15 32  1  0  0  0  0
 15 33  1  0  0  0  0
 16 17  2  0  0  0  0
 16 34  1  0  0  0  0
 17 18  1  0  0  0  0
M  END
> <s_m_source_file>
AV-unprocessed.smi

> <i_m_source_file_index>
10

> <i_lp_mmshare_version>
43012

> <i_f3d_flags>
0

> <s_epik_input>
bjFbY0hdbihbQ0gzXSljKGMxMiluW2NIXW4oYzI9TylbQ0gyXVtDQEhdKFtPSF0pW0NIXTNbQ0gyXVtDSDJdW0NIMl0z

> <s_epik_cmdline>
J2VwaWtfcHl0aG9uJywgJy1waCcsICc3LjAnLCAnLXRuJywgJzgnLCAnLW1hJywgJzIwMCcsICctbWV0YWxfYmluZGluZycsICctaW1hZScsICc8aW5maWxlLm1hZT4nLCAnLW9tYWUnLCAnPG91dGZpbGUubWFlPic=

> <r_lp_tautomer_probability>
1

> <r_epik_Ionization_Penalty>
0.0003743

> <r_epik_Ionization_Penalty_Charging>
2.98177e-12

> <r_epik_Ionization_Penalty_Neutral>
0.000374299

> <r_epik_State_Penalty>
0.000224514

> <r_epik_Charging_Adjusted_Penalty>
0.000224514

> <i_epik_Tot_Q>
0

> <i_epik_Tot_abs_Q>
0

> <r_epik_Metal_State_Penalty>
-0

> <b_epik_Metal_Only>
0

> <s_lp_Force_Field>
OPLS_2005

> <r_lp_Energy>
33.6231

> <b_lp_Chiralities_Consistent>
1

> <s_lp_Variant>
AV-unprocessed.smi:10-2

> <Gold.Version>
5.8.1

> <Gold.Id.Protein>
6NUR|6NUR_protein|mol2

> <Gold.PLP.Fitness>
38.2555

> <Gold.PLP.PLP>
-32.6458

> <Gold.PLP.part.hbond>
-2.2949

> <Gold.PLP.part.metal>
0.0000

> <Gold.PLP.part.buried>
2.8213

> <Gold.PLP.part.nonpolar>
-32.4517

> <Gold.PLP.part.repulsive>
0.1473

> <Gold.PLP.ligand.clash>
0.0000

> <Gold.PLP.ligand.torsion>
0.5946

> <Gold.PLP.Chemscore.Hbond>
1.2413

> <Gold.PLP.Chemscore.CHOScore>
0.9988

> <Gold.PLP.Chemscore.Metal>
0.0000

> <Gold.Chemscore.Hbonds>
donor molecule, donor type, donor heavy atom, donor atom, acceptor molecule, acceptor atom, score
      L1  H    11    26       P1  8028  1.00
      P1  H  8011  8017       L1    11  0.22
      L1  C    16    34       P1  8028  0.97

> <Gold.PLP.Chemscore.Internal.Correction>
0.0787

> <Gold.Rescore>
     Score         DG    S(hbond)    S(metal)    S(lipo)     H(rot)  DE(clash)    DE(int)     intcor
      7.69     -10.33       1.17        0.00      57.94       2.28       2.03       0.61       ----

> <Gold.Chemscore.Fitness>
7.6887

> <Gold.Chemscore.DG>
-10.3326

> <Gold.Chemscore.ZeroCoef>
-5.4800

> <Gold.Chemscore.Hbond>
1.1726

> <Gold.Chemscore.Metal>
0.0000

> <Gold.Chemscore.Lipo>
57.9411

> <Gold.Chemscore.Internal_Hbond>
0.0000

> <Gold.Chemscore.DEClash>
2.0347

> <Gold.Chemscore.DEInternal>
0.6091

> <Gold.Chemscore.Rot>
2.2824

> <Gold.Chemscore.Internal.Correction>
   9.000000E+99

> <Gold.Chemscore.Hbonds>
donor molecule, donor type, donor heavy atom, donor atom, acceptor molecule, acceptor atom, score
      L1  H    11    26       P1  8028  1.00
      P1  H  8011  8017       L1    11  0.18

> <Gold.Chemscore.Hbond.Weighted>
-3.9165

> <Gold.Chemscore.Metal.Weighted>
-0.0000

> <Gold.Chemscore.Lipo.Weighted>
-6.7791

> <Gold.Chemscore.Internal_Hbond.Weighted>
0.0000

> <Gold.Chemscore.DEClash.Weighted>
2.0347

> <Gold.Chemscore.DEInternal.Weighted>
0.6091

> <Gold.Chemscore.Rot.Weighted>
5.8431

> <Gold.Chemscore.Internal.Correction.Weighted>
   9.000000E+99

> <Gold.Protein.RotatedTorsions>
[ 6907 6896 6895 6894 ] final  -95.36 input  -60.11 | X-H torsion
[ 7974 7965 7964 7962 ] final  105.08 input  175.53 | X-H torsion
[ 8008 7997 7996 7995 ] final  129.08 input   59.86 | X-H torsion
[ 10167 10162 10161 10158 ] final   80.80 input  -65.29 | X-H torsion
[ 10718 10713 10712 10709 ] final  122.89 input   66.30 | X-H torsion
[ 10763 10752 10751 10750 ] final   94.32 input  -60.55 | X-H torsion
[ 11005 11000 10999 10996 ] final -167.22 input  -57.11 | X-H torsion

> <Gold.Protein.ActiveResidues>
 VAL166  LYS551  ARG553  GLY616  TRP617  ASP618  TYR619  PRO620  LYS621  CYS622 
 ASP623  PHE694  ASN695  SER759  ASP760  ASP761  ALA762  ILE779  LEU786  VAL792 
 PHE793  MET794  SER795  GLU796  ALA797  LYS798  CYS799  TRP800  GLU811  SER814 

> <Gold.Protein.RotatedAtoms>
  150.6962  134.1669  159.4197 H   0  0  0  0  0  0  0  0  0  0  0  0  # atno 6907 bound_to 6896
  151.9648  135.0103  160.0559 H   0  0  0  0  0  0  0  0  0  0  0  0  # atno 6908 bound_to 6896
  152.1894  133.4727  159.5037 H   0  0  0  0  0  0  0  0  0  0  0  0  # atno 6909 bound_to 6896
  145.3243  139.2504  143.3695 H   0  0  0  0  0  0  0  0  0  0  0  0  # atno 7974 bound_to 7965
  156.2929  140.2629  156.2541 H   0  0  0  0  0  0  0  0  0  0  0  0  # atno 8008 bound_to 7997
  154.9853  140.0389  157.2314 H   0  0  0  0  0  0  0  0  0  0  0  0  # atno 8009 bound_to 7997
  154.7734  140.2782  155.6124 H   0  0  0  0  0  0  0  0  0  0  0  0  # atno 8010 bound_to 7997
  139.9460  144.6058  150.8206 H   0  0  0  0  0  0  0  0  0  0  0  0  # atno 10167 bound_to 10162
  157.5707  131.1083  150.8372 H   0  0  0  0  0  0  0  0  0  0  0  0  # atno 10718 bound_to 10713
  153.2403  135.4294  155.0690 H   0  0  0  0  0  0  0  0  0  0  0  0  # atno 10763 bound_to 10752
  154.8337  135.3401  154.6659 H   0  0  0  0  0  0  0  0  0  0  0  0  # atno 10764 bound_to 10752
  153.7083  135.7024  153.5100 H   0  0  0  0  0  0  0  0  0  0  0  0  # atno 10765 bound_to 10752
  140.5556  134.5384  157.5132 H   0  0  0  0  0  0  0  0  0  0  0  0  # atno 11005 bound_to 11000
  146.3070  140.3807  142.8683 LP  0  0  0  0  0  0  0  0  0  0  0  0  # atno 17320 bound_to 7965
  144.8914  140.7529  143.5924 LP  0  0  0  0  0  0  0  0  0  0  0  0  # atno 17321 bound_to 7965
  140.7597  143.3135  151.2789 LP  0  0  0  0  0  0  0  0  0  0  0  0  # atno 17342 bound_to 10162
  139.6666  144.0094  152.2727 LP  0  0  0  0  0  0  0  0  0  0  0  0  # atno 17343 bound_to 10162
  156.8845  130.5191  149.5289 LP  0  0  0  0  0  0  0  0  0  0  0  0  # atno 17370 bound_to 10713
  156.0753  130.5776  150.9461 LP  0  0  0  0  0  0  0  0  0  0  0  0  # atno 17371 bound_to 10713
  139.9433  134.7747  156.0624 LP  0  0  0  0  0  0  0  0  0  0  0  0  # atno 17394 bound_to 11000
  141.1145  133.6632  156.3060 LP  0  0  0  0  0  0  0  0  0  0  0  0  # atno 17395 bound_to 11000

$$$$
