AV-unprocessed.smi:3250|AV-procd|sdf|12426|dock3
  -GOLD-   2272018313D 1   1.00000     0.00000
 Structure written by MMmdl.
 39 40  0  0  0  0  0  0  0  0  2 V2000
  146.7503  138.8189  152.3970 C   0  0  0  0  0  0  0  0  0  0  0  0
  147.8198  139.4890  153.2711 C   0  0  0  0  0  0  0  0  0  0  0  0
  148.7741  138.5081  153.8535 N   0  3  2  0  0  0  0  0  0  0  0  0
  148.2105  137.7351  154.9869 C   0  0  0  0  0  0  0  0  0  0  0  0
  148.2041  138.5695  156.2800 C   0  0  0  0  0  0  0  0  0  0  0  0
  149.5254  139.0134  156.5607 O   0  0  0  0  0  0  0  0  0  0  0  0
  150.0458  139.8622  155.5419 C   0  0  1  0  0  0  0  0  0  0  0  0
  151.4414  140.3292  155.9770 C   0  0  0  0  0  0  0  0  0  0  0  0
  151.6803  140.0689  157.3887 N   0  0  0  0  0  0  0  0  0  0  0  0
  152.0435  141.0390  158.3033 C   0  0  0  0  0  0  0  0  0  0  0  0
  152.7591  140.6082  159.3441 N   0  0  0  0  0  0  0  0  0  0  0  0
  153.1316  141.5324  160.2563 C   0  0  0  0  0  0  0  0  0  0  0  0
  152.7832  142.8910  160.1216 C   0  0  0  0  0  0  0  0  0  0  0  0
  152.0256  143.2364  158.9844 C   0  0  0  0  0  0  0  0  0  0  0  0
  151.6517  144.5501  158.7920 O   0  0  0  0  0  0  0  0  0  0  0  0
  151.8385  145.4647  159.8661 C   0  0  0  0  0  0  0  0  0  0  0  0
  151.6573  142.2994  158.0749 N   0  0  0  0  0  0  0  0  0  0  0  0
  150.1016  139.0678  154.2181 C   0  0  0  0  0  0  0  0  0  0  0  0
  146.0119  139.5508  152.0687 H   0  0  0  0  0  0  0  0  0  0  0  0
  146.2204  138.0414  152.9481 H   0  0  0  0  0  0  0  0  0  0  0  0
  147.1757  138.3676  151.5010 H   0  0  0  0  0  0  0  0  0  0  0  0
  148.3450  140.2592  152.7065 H   0  0  0  0  0  0  0  0  0  0  0  0
  147.3043  140.0049  154.0820 H   0  0  0  0  0  0  0  0  0  0  0  0
  147.2085  137.3753  154.7508 H   0  0  0  0  0  0  0  0  0  0  0  0
  148.8264  136.8472  155.1358 H   0  0  0  0  0  0  0  0  0  0  0  0
  147.5261  139.4205  156.2019 H   0  0  0  0  0  0  0  0  0  0  0  0
  147.8537  137.9617  157.1145 H   0  0  0  0  0  0  0  0  0  0  0  0
  149.4032  140.7363  155.4260 H   0  0  0  0  0  0  0  0  0  0  0  0
  152.2100  139.8386  155.3784 H   0  0  0  0  0  0  0  0  0  0  0  0
  151.5385  141.4021  155.8074 H   0  0  0  0  0  0  0  0  0  0  0  0
  151.6433  139.1149  157.7171 H   0  0  0  0  0  0  0  0  0  0  0  0
  153.7113  141.1859  161.0991 H   0  0  0  0  0  0  0  0  0  0  0  0
  153.0818  143.6286  160.8517 H   0  0  0  0  0  0  0  0  0  0  0  0
  151.4955  146.4534  159.5619 H   0  0  0  0  0  0  0  0  0  0  0  0
  152.8911  145.5492  160.1394 H   0  0  0  0  0  0  0  0  0  0  0  0
  151.2630  145.1708  160.7451 H   0  0  0  0  0  0  0  0  0  0  0  0
  150.7969  138.2344  154.3281 H   0  0  0  0  0  0  0  0  0  0  0  0
  150.4997  139.6857  153.4142 H   0  0  0  0  0  0  0  0  0  0  0  0
  148.9381  137.8355  153.1177 H   0  0  0  0  0  0  0  0  0  0  0  0
  1  2  1  0  0  0  0
  1 19  1  0  0  0  0
  1 20  1  0  0  0  0
  1 21  1  0  0  0  0
  2  3  1  0  0  0  0
  2 22  1  0  0  0  0
  2 23  1  0  0  0  0
  3 18  1  0  0  0  0
  3  4  1  0  0  0  0
  3 39  1  0  0  0  0
  4  5  1  0  0  0  0
  4 24  1  0  0  0  0
  4 25  1  0  0  0  0
  5  6  1  0  0  0  0
  5 26  1  0  0  0  0
  5 27  1  0  0  0  0
  6  7  1  0  0  0  0
  7  8  1  0  0  0  0
  7 18  1  0  0  0  0
  7 28  1  0  0  0  0
  8  9  1  0  0  0  0
  8 29  1  0  0  0  0
  8 30  1  0  0  0  0
  9 10  1  0  0  0  0
  9 31  1  0  0  0  0
 10 17  1  0  0  0  0
 10 11  2  0  0  0  0
 11 12  1  0  0  0  0
 12 13  2  0  0  0  0
 12 32  1  0  0  0  0
 13 14  1  0  0  0  0
 13 33  1  0  0  0  0
 14 15  1  0  0  0  0
 14 17  2  0  0  0  0
 15 16  1  0  0  0  0
 16 34  1  0  0  0  0
 16 35  1  0  0  0  0
 16 36  1  0  0  0  0
 18 37  1  0  0  0  0
 18 38  1  0  0  0  0
M  CHG  1   3   1
M  END
> <s_m_source_file>
AV-unprocessed.smi

> <i_m_source_file_index>
3250

> <i_lp_mmshare_version>
43012

> <i_f3d_flags>
0

> <s_epik_input>
W0NIM11bQ0gyXU4xW0NIMl1bQ0gyXU9bQ0BIXShbQ0gyXTEpW0NIMl1bTkhdYzJuW2NIXVtjSF1jKG4yKU9bQ0gzXQ==

> <s_epik_cmdline>
J2VwaWtfcHl0aG9uJywgJy1waCcsICc3LjAnLCAnLXRuJywgJzgnLCAnLW1hJywgJzIwMCcsICctbWV0YWxfYmluZGluZycsICctaW1hZScsICc8aW5maWxlLm1hZT4nLCAnLW9tYWUnLCAnPG91dGZpbGUubWFlPic=

> <r_lp_tautomer_probability>
1

> <r_epik_Ionization_Penalty>
0.19684

> <r_epik_Ionization_Penalty_Charging>
0.178504

> <r_epik_Ionization_Penalty_Neutral>
0.0183356

> <r_epik_State_Penalty>
0.162939

> <r_epik_Charging_Adjusted_Penalty>
0.341443

> <i_epik_Tot_Q>
1

> <i_epik_Tot_abs_Q>
1

> <r_epik_Metal_State_Penalty>
0.1608

> <b_epik_Metal_Only>
0

> <s_lp_Force_Field>
OPLS_2005

> <r_lp_Energy>
11.5983

> <b_lp_Chiralities_Consistent>
1

> <s_lp_Variant>
AV-unprocessed.smi:3250-2

> <Gold.Version>
5.8.1

> <Gold.Id.Protein>
6NUR|6NUR_protein|mol2

> <Gold.PLP.Fitness>
36.6416

> <Gold.PLP.PLP>
-32.8671

> <Gold.PLP.part.hbond>
-1.6822

> <Gold.PLP.part.metal>
0.0000

> <Gold.PLP.part.buried>
-0.8312

> <Gold.PLP.part.nonpolar>
-30.7372

> <Gold.PLP.part.repulsive>
0.2340

> <Gold.PLP.ligand.clash>
0.0000

> <Gold.PLP.ligand.torsion>
1.1263

> <Gold.PLP.Chemscore.Hbond>
2.0000

> <Gold.PLP.Chemscore.CHOScore>
0.0000

> <Gold.PLP.Chemscore.Metal>
0.0000

> <Gold.Chemscore.Hbonds>
donor molecule, donor type, donor heavy atom, donor atom, acceptor molecule, acceptor atom, score
      L1  H     3    39       P1  7948  2.00

> <Gold.PLP.Chemscore.Internal.Correction>
0.0272

> <Gold.Rescore>
     Score         DG    S(hbond)    S(metal)    S(lipo)     H(rot)  DE(clash)    DE(int)     intcor
     11.58     -12.79       1.00        0.00      71.49       1.71       0.12       1.10       ----

> <Gold.Chemscore.Fitness>
11.5764

> <Gold.Chemscore.DG>
-12.7937

> <Gold.Chemscore.ZeroCoef>
-5.4800

> <Gold.Chemscore.Hbond>
0.9983

> <Gold.Chemscore.Metal>
0.0000

> <Gold.Chemscore.Lipo>
71.4874

> <Gold.Chemscore.Internal_Hbond>
0.0000

> <Gold.Chemscore.DEClash>
0.1172

> <Gold.Chemscore.DEInternal>
1.1001

> <Gold.Chemscore.Rot>
1.7127

> <Gold.Chemscore.Internal.Correction>
   9.000000E+99

> <Gold.Chemscore.Hbonds>
donor molecule, donor type, donor heavy atom, donor atom, acceptor molecule, acceptor atom, score
      L1  H     3    39       P1  7948  0.95

> <Gold.Chemscore.Hbond.Weighted>
-3.3342

> <Gold.Chemscore.Metal.Weighted>
-0.0000

> <Gold.Chemscore.Lipo.Weighted>
-8.3640

> <Gold.Chemscore.Internal_Hbond.Weighted>
0.0000

> <Gold.Chemscore.DEClash.Weighted>
0.1172

> <Gold.Chemscore.DEInternal.Weighted>
1.1001

> <Gold.Chemscore.Rot.Weighted>
4.3846

> <Gold.Chemscore.Internal.Correction.Weighted>
   9.000000E+99

> <Gold.Protein.RotatedTorsions>
[ 6907 6896 6895 6894 ] final  -49.56 input  -60.11 | X-H torsion
[ 7974 7965 7964 7962 ] final  -33.09 input  175.53 | X-H torsion
[ 8008 7997 7996 7995 ] final   56.48 input   59.86 | X-H torsion
[ 10167 10162 10161 10158 ] final  -81.48 input  -65.29 | X-H torsion
[ 10718 10713 10712 10709 ] final  -48.13 input   66.30 | X-H torsion
[ 10763 10752 10751 10750 ] final  -17.52 input  -60.55 | X-H torsion
[ 11005 11000 10999 10996 ] final  131.18 input  -57.11 | X-H torsion

> <Gold.Protein.ActiveResidues>
 VAL166  LYS551  ARG553  GLY616  TRP617  ASP618  TYR619  PRO620  LYS621  CYS622 
 ASP623  PHE694  ASN695  SER759  ASP760  ASP761  ALA762  ILE779  LEU786  VAL792 
 PHE793  MET794  SER795  GLU796  ALA797  LYS798  CYS799  TRP800  GLU811  SER814 

> <Gold.Protein.RotatedAtoms>
  150.8793  134.8181  159.7212 H   0  0  0  0  0  0  0  0  0  0  0  0  # atno 6907 bound_to 6896
  152.4767  134.4821  159.9679 H   0  0  0  0  0  0  0  0  0  0  0  0  # atno 6908 bound_to 6896
  151.4898  133.3489  159.2887 H   0  0  0  0  0  0  0  0  0  0  0  0  # atno 6909 bound_to 6896
  146.0938  140.5873  142.8852 H   0  0  0  0  0  0  0  0  0  0  0  0  # atno 7974 bound_to 7965
  155.5182  140.3479  155.4401 H   0  0  0  0  0  0  0  0  0  0  0  0  # atno 8008 bound_to 7997
  156.0803  140.1385  156.9748 H   0  0  0  0  0  0  0  0  0  0  0  0  # atno 8009 bound_to 7997
  154.4576  140.0947  156.6778 H   0  0  0  0  0  0  0  0  0  0  0  0  # atno 8010 bound_to 7997
  140.4407  143.2515  151.8629 H   0  0  0  0  0  0  0  0  0  0  0  0  # atno 10167 bound_to 10162
  156.2018  130.4156  149.9231 H   0  0  0  0  0  0  0  0  0  0  0  0  # atno 10718 bound_to 10713
  153.5752  135.7006  153.5487 H   0  0  0  0  0  0  0  0  0  0  0  0  # atno 10763 bound_to 10752
  153.3310  135.4047  155.1495 H   0  0  0  0  0  0  0  0  0  0  0  0  # atno 10764 bound_to 10752
  154.8627  135.3719  154.5276 H   0  0  0  0  0  0  0  0  0  0  0  0  # atno 10765 bound_to 10752
  139.9715  134.9576  156.9402 H   0  0  0  0  0  0  0  0  0  0  0  0  # atno 11005 bound_to 11000
  144.7380  140.4863  143.6890 LP  0  0  0  0  0  0  0  0  0  0  0  0  # atno 17320 bound_to 7965
  145.5987  139.1502  143.3141 LP  0  0  0  0  0  0  0  0  0  0  0  0  # atno 17321 bound_to 7965
  139.4789  144.5231  151.8773 LP  0  0  0  0  0  0  0  0  0  0  0  0  # atno 17342 bound_to 10162
  140.4321  144.2101  150.5888 LP  0  0  0  0  0  0  0  0  0  0  0  0  # atno 17343 bound_to 10162
  156.6938  130.8906  151.3591 LP  0  0  0  0  0  0  0  0  0  0  0  0  # atno 17370 bound_to 10713
  157.6990  130.9312  150.0728 LP  0  0  0  0  0  0  0  0  0  0  0  0  # atno 17371 bound_to 10713
  140.5283  134.0839  155.7309 LP  0  0  0  0  0  0  0  0  0  0  0  0  # atno 17394 bound_to 11000
  141.1395  133.9164  157.2359 LP  0  0  0  0  0  0  0  0  0  0  0  0  # atno 17395 bound_to 11000

$$$$
