AV-unprocessed.smi:1120|AV-procd|sdf|4824|dock9
  -GOLD-   22720 3383D 1   1.00000     0.00000
 Structure written by MMmdl.
 48 49  0  0  0  0  0  0  0  0  3 V2000
  151.6039  144.2972  160.4403 C   0  0  0  0  0  0  0  0  0  0  0  0
  152.3350  143.1191  159.7822 C   0  0  2  0  0  0  0  0  0  0  0  0
  151.3727  142.2281  158.9623 C   0  0  0  0  0  0  0  0  0  0  0  0
  152.0805  141.0045  158.3278 C   0  0  0  0  0  0  0  0  0  0  0  0
  152.8165  140.1201  159.3623 C   0  0  1  0  0  0  0  0  0  0  0  0
  153.5556  139.0691  158.6780 N   0  5  0  0  0  0  0  0  0  0  0  0
  152.7527  137.8700  157.9404 S   0  0  0  0  0  0  0  0  0  0  0  0
  153.0902  136.5426  158.4819 O   0  0  0  0  0  0  0  0  0  0  0  0
  151.3220  138.1694  157.7659 O   0  0  0  0  0  0  0  0  0  0  0  0
  153.5014  137.9442  156.2549 C   0  0  0  0  0  0  0  0  0  0  0  0
  152.6223  138.7787  155.3257 C   0  0  0  0  0  0  0  0  0  0  0  0
  153.0799  139.7834  154.7812 O   0  0  0  0  0  0  0  0  0  0  0  0
  151.3590  138.3559  155.1587 N   0  0  0  0  0  0  0  0  0  0  0  0
  150.3430  139.0155  154.3433 C   0  0  0  0  0  0  0  0  0  0  0  0
  150.3335  140.5455  154.5277 C   0  0  0  0  0  0  0  0  0  0  0  0
  149.0128  141.2048  154.1685 C   0  0  0  0  0  0  0  0  0  0  0  0
  148.2525  141.9219  155.1176 C   0  0  0  0  0  0  0  0  0  0  0  0
  147.0214  142.4896  154.7277 C   0  0  0  0  0  0  0  0  0  0  0  0
  146.5775  142.3309  153.3985 C   0  0  0  0  0  0  0  0  0  0  0  0
  147.3767  141.6057  152.4921 C   0  0  0  0  0  0  0  0  0  0  0  0
  148.5481  141.0749  152.9045 N   0  3  0  0  0  0  0  0  0  0  0  0
  153.7727  141.0142  160.1902 C   0  0  0  0  0  0  0  0  0  0  0  0
  153.0681  142.2406  160.8231 C   0  0  0  0  0  0  0  0  0  0  0  0
  150.8416  143.9504  161.1386 H   0  0  0  0  0  0  0  0  0  0  0  0
  151.1125  144.9204  159.6927 H   0  0  0  0  0  0  0  0  0  0  0  0
  152.2990  144.9299  160.9926 H   0  0  0  0  0  0  0  0  0  0  0  0
  153.0811  143.5286  159.0995 H   0  0  0  0  0  0  0  0  0  0  0  0
  150.5491  141.8946  159.5973 H   0  0  0  0  0  0  0  0  0  0  0  0
  150.9137  142.8224  158.1716 H   0  0  0  0  0  0  0  0  0  0  0  0
  151.3476  140.4051  157.7864 H   0  0  0  0  0  0  0  0  0  0  0  0
  152.7912  141.3620  157.5808 H   0  0  0  0  0  0  0  0  0  0  0  0
  152.0654  139.7058  160.0363 H   0  0  0  0  0  0  0  0  0  0  0  0
  154.4956  138.3842  156.3364 H   0  0  0  0  0  0  0  0  0  0  0  0
  153.6114  136.9285  155.8749 H   0  0  0  0  0  0  0  0  0  0  0  0
  151.0742  137.5210  155.6512 H   0  0  0  0  0  0  0  0  0  0  0  0
  150.4713  138.7665  153.2886 H   0  0  0  0  0  0  0  0  0  0  0  0
  149.3722  138.6120  154.6313 H   0  0  0  0  0  0  0  0  0  0  0  0
  150.5721  140.7873  155.5641 H   0  0  0  0  0  0  0  0  0  0  0  0
  151.1260  140.9913  153.9250 H   0  0  0  0  0  0  0  0  0  0  0  0
  148.6026  142.0277  156.1342 H   0  0  0  0  0  0  0  0  0  0  0  0
  146.4227  143.0365  155.4412 H   0  0  0  0  0  0  0  0  0  0  0  0
  145.6349  142.7515  153.0800 H   0  0  0  0  0  0  0  0  0  0  0  0
  147.1113  141.4211  151.4610 H   0  0  0  0  0  0  0  0  0  0  0  0
  154.2420  140.4278  160.9805 H   0  0  0  0  0  0  0  0  0  0  0  0
  154.5847  141.3682  159.5529 H   0  0  0  0  0  0  0  0  0  0  0  0
  153.8096  142.8438  161.3477 H   0  0  0  0  0  0  0  0  0  0  0  0
  152.3618  141.9100  161.5876 H   0  0  0  0  0  0  0  0  0  0  0  0
  149.0983  140.5366  152.2335 H   0  0  0  0  0  0  0  0  0  0  0  0
  1  2  1  0  0  0  0
  1 24  1  0  0  0  0
  1 25  1  0  0  0  0
  1 26  1  0  0  0  0
  2 23  1  0  0  0  0
  2  3  1  0  0  0  0
  2 27  1  0  0  0  0
  3  4  1  0  0  0  0
  3 28  1  0  0  0  0
  3 29  1  0  0  0  0
  4  5  1  0  0  0  0
  4 30  1  0  0  0  0
  4 31  1  0  0  0  0
  5  6  1  0  0  0  0
  5 22  1  0  0  0  0
  5 32  1  0  0  0  0
  6  7  1  0  0  0  0
  7  8  2  0  0  0  0
  7  9  2  0  0  0  0
  7 10  1  0  0  0  0
 10 11  1  0  0  0  0
 10 33  1  0  0  0  0
 10 34  1  0  0  0  0
 11 12  2  0  0  0  0
 11 13  1  0  0  0  0
 13 14  1  0  0  0  0
 13 35  1  0  0  0  0
 14 15  1  0  0  0  0
 14 36  1  0  0  0  0
 14 37  1  0  0  0  0
 15 16  1  0  0  0  0
 15 38  1  0  0  0  0
 15 39  1  0  0  0  0
 16 21  1  0  0  0  0
 16 17  2  0  0  0  0
 17 18  1  0  0  0  0
 17 40  1  0  0  0  0
 18 19  2  0  0  0  0
 18 41  1  0  0  0  0
 19 20  1  0  0  0  0
 19 42  1  0  0  0  0
 20 21  2  0  0  0  0
 20 43  1  0  0  0  0
 21 48  1  0  0  0  0
 22 23  1  0  0  0  0
 22 44  1  0  0  0  0
 22 45  1  0  0  0  0
 23 46  1  0  0  0  0
 23 47  1  0  0  0  0
M  CHG  1   6  -1
M  CHG  1  21   1
M  END
> <s_m_source_file>
AV-unprocessed.smi

> <i_m_source_file_index>
1120

> <i_lp_mmshare_version>
43012

> <i_f3d_flags>
0

> <s_epik_input>
W0NIM11bQ0BASF0xW0NIMl1bQ0gyXVtDQEhdKFtDSDJdW0NIMl0xKVtOSF1TKD1PKSg9TylbQ0gyXUMoPU8pW05IXVtDSDJdW0NIMl1jMltjSF1bY0hdW2NIXVtjSF1uMg==

> <s_epik_cmdline>
J2VwaWtfcHl0aG9uJywgJy1waCcsICc3LjAnLCAnLXRuJywgJzgnLCAnLW1hJywgJzIwMCcsICctbWV0YWxfYmluZGluZycsICctaW1hZScsICc8aW5maWxlLm1hZT4nLCAnLW9tYWUnLCAnPG91dGZpbGUubWFlPic=

> <r_epik_Ionization_Penalty>
7.48373

> <r_epik_Ionization_Penalty_Charging>
7.48373

> <r_epik_Ionization_Penalty_Neutral>
1.58512e-08

> <r_epik_State_Penalty>
7.71683

> <r_epik_Charging_Adjusted_Penalty>
15.2006

> <i_epik_Tot_Q>
0

> <i_epik_Tot_abs_Q>
2

> <r_epik_Metal_State_Penalty>
3.7254

> <b_epik_Metal_Only>
1

> <s_lp_Force_Field>
OPLS_2005

> <r_lp_Energy>
6.08915

> <b_lp_Chiralities_Consistent>
1

> <s_lp_Variant>
AV-unprocessed.smi:1120-7

> <Gold.Version>
5.8.1

> <Gold.Id.Protein>
6NUR|6NUR_protein|mol2

> <Gold.PLP.Fitness>
55.6003

> <Gold.PLP.PLP>
-44.4851

> <Gold.PLP.part.hbond>
-4.1922

> <Gold.PLP.part.metal>
0.0000

> <Gold.PLP.part.buried>
-1.3953

> <Gold.PLP.part.nonpolar>
-38.1915

> <Gold.PLP.part.repulsive>
0.2819

> <Gold.PLP.ligand.clash>
0.0000

> <Gold.PLP.ligand.torsion>
1.3654

> <Gold.PLP.Chemscore.Hbond>
4.2366

> <Gold.PLP.Chemscore.CHOScore>
0.0000

> <Gold.PLP.Chemscore.Metal>
0.0000

> <Gold.Chemscore.Hbonds>
donor molecule, donor type, donor heavy atom, donor atom, acceptor molecule, acceptor atom, score
      L1  H    21    48       P1  7957  0.37
      P1  H  7989  7998       L1    12  0.21
      P1  H  7997  8009       L1     6  1.04
      P1  H  7997  8010       L1    12  1.00

> <Gold.PLP.Chemscore.Internal.Correction>
1.1362

> <Gold.Rescore>
     Score         DG    S(hbond)    S(metal)    S(lipo)     H(rot)  DE(clash)    DE(int)     intcor
     18.93     -21.86       2.23        0.00     119.70       1.98       0.03       2.90       ----

> <Gold.Chemscore.Fitness>
18.9299

> <Gold.Chemscore.DG>
-21.8648

> <Gold.Chemscore.ZeroCoef>
-5.4800

> <Gold.Chemscore.Hbond>
2.2327

> <Gold.Chemscore.Metal>
0.0000

> <Gold.Chemscore.Lipo>
119.6967

> <Gold.Chemscore.Internal_Hbond>
0.0000

> <Gold.Chemscore.DEClash>
0.0339

> <Gold.Chemscore.DEInternal>
2.9010

> <Gold.Chemscore.Rot>
1.9832

> <Gold.Chemscore.Internal.Correction>
   9.000000E+99

> <Gold.Chemscore.Hbonds>
donor molecule, donor type, donor heavy atom, donor atom, acceptor molecule, acceptor atom, score
      L1  H    21    48       P1  7957  0.37
      P1  H  7989  7998       L1    12  0.20
      P1  H  7997  8009       L1     6  0.28
      P1  H  7997  8010       L1    12  0.65

> <Gold.Chemscore.Hbond.Weighted>
-7.4571

> <Gold.Chemscore.Metal.Weighted>
-0.0000

> <Gold.Chemscore.Lipo.Weighted>
-14.0045

> <Gold.Chemscore.Internal_Hbond.Weighted>
0.0000

> <Gold.Chemscore.DEClash.Weighted>
0.0339

> <Gold.Chemscore.DEInternal.Weighted>
2.9010

> <Gold.Chemscore.Rot.Weighted>
5.0769

> <Gold.Chemscore.Internal.Correction.Weighted>
   9.000000E+99

> <Gold.Protein.RotatedTorsions>
[ 6907 6896 6895 6894 ] final   78.72 input  -60.11 | X-H torsion
[ 7974 7965 7964 7962 ] final  127.92 input  175.53 | X-H torsion
[ 8008 7997 7996 7995 ] final  123.48 input   59.86 | X-H torsion
[ 10167 10162 10161 10158 ] final  152.11 input  -65.29 | X-H torsion
[ 10718 10713 10712 10709 ] final  128.08 input   66.30 | X-H torsion
[ 10763 10752 10751 10750 ] final  177.05 input  -60.55 | X-H torsion
[ 11005 11000 10999 10996 ] final   73.95 input  -57.11 | X-H torsion

> <Gold.Protein.ActiveResidues>
 VAL166  LYS551  ARG553  GLY616  TRP617  ASP618  TYR619  PRO620  LYS621  CYS622 
 ASP623  PHE694  ASN695  SER759  ASP760  ASP761  ALA762  ILE779  LEU786  VAL792 
 PHE793  MET794  SER795  GLU796  ALA797  LYS798  CYS799  TRP800  GLU811  SER814 

> <Gold.Protein.RotatedAtoms>
  152.5170  134.3621  159.9288 H   0  0  0  0  0  0  0  0  0  0  0  0  # atno 6907 bound_to 6896
  151.3573  133.3896  159.2694 H   0  0  0  0  0  0  0  0  0  0  0  0  # atno 6908 bound_to 6896
  150.9679  134.9076  159.7828 H   0  0  0  0  0  0  0  0  0  0  0  0  # atno 6909 bound_to 6896
  145.0452  139.3929  143.5082 H   0  0  0  0  0  0  0  0  0  0  0  0  # atno 7974 bound_to 7965
  156.2767  140.2762  156.1634 H   0  0  0  0  0  0  0  0  0  0  0  0  # atno 8008 bound_to 7997
  155.0729  140.0387  157.2632 H   0  0  0  0  0  0  0  0  0  0  0  0  # atno 8009 bound_to 7997
  154.7025  140.2652  155.6711 H   0  0  0  0  0  0  0  0  0  0  0  0  # atno 8010 bound_to 7997
  139.4835  144.5385  151.7604 H   0  0  0  0  0  0  0  0  0  0  0  0  # atno 10167 bound_to 10162
  157.5277  131.1098  150.9058 H   0  0  0  0  0  0  0  0  0  0  0  0  # atno 10718 bound_to 10713
  154.4893  135.2778  155.1509 H   0  0  0  0  0  0  0  0  0  0  0  0  # atno 10763 bound_to 10752
  154.3187  135.6214  153.5501 H   0  0  0  0  0  0  0  0  0  0  0  0  # atno 10764 bound_to 10752
  152.9886  135.5737  154.5311 H   0  0  0  0  0  0  0  0  0  0  0  0  # atno 10765 bound_to 10752
  139.9415  134.7391  156.1088 H   0  0  0  0  0  0  0  0  0  0  0  0  # atno 11005 bound_to 11000
  146.3513  140.0074  142.8670 LP  0  0  0  0  0  0  0  0  0  0  0  0  # atno 17320 bound_to 7965
  145.1597  140.9666  143.4385 LP  0  0  0  0  0  0  0  0  0  0  0  0  # atno 17321 bound_to 7965
  140.4921  144.1294  150.5952 LP  0  0  0  0  0  0  0  0  0  0  0  0  # atno 17342 bound_to 10162
  140.4159  143.2634  151.9776 LP  0  0  0  0  0  0  0  0  0  0  0  0  # atno 17343 bound_to 10162
  156.9649  130.5469  149.5287 LP  0  0  0  0  0  0  0  0  0  0  0  0  # atno 17370 bound_to 10713
  156.0399  130.5482  150.8745 LP  0  0  0  0  0  0  0  0  0  0  0  0  # atno 17371 bound_to 10713
  141.1051  133.6663  156.2844 LP  0  0  0  0  0  0  0  0  0  0  0  0  # atno 17394 bound_to 11000
  140.5941  134.5621  157.5505 LP  0  0  0  0  0  0  0  0  0  0  0  0  # atno 17395 bound_to 11000

$$$$
