AV-unprocessed.smi:2772|AV-procd|sdf|10666|dock10
  -GOLD-   2272015113D 1   1.00000     0.00000
 Structure written by MMmdl.
 55 57  0  0  0  0  0  0  0  0  3 V2000
  154.5766  142.7529  164.7013 C   0  0  0  0  0  0  0  0  0  0  0  0
  154.1668  142.2831  163.3211 C   0  0  0  0  0  0  0  0  0  0  0  0
  153.0879  142.8836  162.6402 C   0  0  0  0  0  0  0  0  0  0  0  0
  152.7568  142.4076  161.3571 C   0  0  0  0  0  0  0  0  0  0  0  0
  153.5027  141.3467  160.8036 C   0  0  0  0  0  0  0  0  0  0  0  0
  153.1689  140.9005  159.4962 N   0  0  0  0  0  0  0  0  0  0  0  0
  152.2811  141.4343  158.6399 C   0  0  0  0  0  0  0  0  0  0  0  0
  151.6583  142.4793  158.8267 O   0  0  0  0  0  0  0  0  0  0  0  0
  152.1709  140.6931  157.5272 N   0  0  0  0  0  0  0  0  0  0  0  0
  151.3011  140.9925  156.3916 C   0  0  2  0  0  0  0  0  0  0  0  0
  149.9437  141.5063  156.8791 C   0  0  0  0  0  0  0  0  0  0  0  0
  148.9967  141.7743  155.6975 C   0  0  0  0  0  0  0  0  0  0  0  0
  148.7968  140.5686  154.8373 N   0  3  1  0  0  0  0  0  0  0  0  0
  147.8253  140.7971  153.7109 C   0  0  2  0  0  0  0  0  0  0  0  0
  146.6628  141.7583  154.0669 C   0  0  0  0  0  0  0  0  0  0  0  0
  145.7056  141.1424  155.1042 C   0  0  0  0  0  0  0  0  0  0  0  0
  145.1421  139.8604  154.6114 N   0  3  2  0  0  0  0  0  0  0  0  0
  144.1536  139.2804  155.5458 C   0  0  0  0  0  0  0  0  0  0  0  0
  146.1980  138.8903  154.2276 C   0  0  0  0  0  0  0  0  0  0  0  0
  147.1560  139.5010  153.1880 C   0  0  0  0  0  0  0  0  0  0  0  0
  150.1112  140.0248  154.3788 C   0  0  0  0  0  0  0  0  0  0  0  0
  151.0709  139.7370  155.5456 C   0  0  0  0  0  0  0  0  0  0  0  0
  154.5731  140.8221  161.5695 C   0  0  0  0  0  0  0  0  0  0  0  0
  154.8982  141.2751  162.7994 N   0  0  0  0  0  0  0  0  0  0  0  0
  153.9530  143.5808  165.0395 H   0  0  0  0  0  0  0  0  0  0  0  0
  155.6138  143.0896  164.6941 H   0  0  0  0  0  0  0  0  0  0  0  0
  154.4836  141.9398  165.4217 H   0  0  0  0  0  0  0  0  0  0  0  0
  152.5276  143.6922  163.0861 H   0  0  0  0  0  0  0  0  0  0  0  0
  151.9384  142.8516  160.8094 H   0  0  0  0  0  0  0  0  0  0  0  0
  153.6894  140.1016  159.1644 H   0  0  0  0  0  0  0  0  0  0  0  0
  152.7293  139.8541  157.4648 H   0  0  0  0  0  0  0  0  0  0  0  0
  151.7500  141.7606  155.7589 H   0  0  0  0  0  0  0  0  0  0  0  0
  149.4877  140.7806  157.5546 H   0  0  0  0  0  0  0  0  0  0  0  0
  150.0780  142.4228  157.4552 H   0  0  0  0  0  0  0  0  0  0  0  0
  148.0562  142.1067  156.1304 H   0  0  0  0  0  0  0  0  0  0  0  0
  149.3792  142.5959  155.0896 H   0  0  0  0  0  0  0  0  0  0  0  0
  148.3912  141.2410  152.8903 H   0  0  0  0  0  0  0  0  0  0  0  0
  147.0084  142.7382  154.3900 H   0  0  0  0  0  0  0  0  0  0  0  0
  146.0935  141.9659  153.1595 H   0  0  0  0  0  0  0  0  0  0  0  0
  146.2234  140.9798  156.0508 H   0  0  0  0  0  0  0  0  0  0  0  0
  144.8911  141.8395  155.3053 H   0  0  0  0  0  0  0  0  0  0  0  0
  144.6211  139.0093  156.4933 H   0  0  0  0  0  0  0  0  0  0  0  0
  143.7001  138.3853  155.1189 H   0  0  0  0  0  0  0  0  0  0  0  0
  143.3528  139.9919  155.7499 H   0  0  0  0  0  0  0  0  0  0  0  0
  146.7500  138.5738  155.1140 H   0  0  0  0  0  0  0  0  0  0  0  0
  145.7310  137.9971  153.8104 H   0  0  0  0  0  0  0  0  0  0  0  0
  146.5789  139.7438  152.2944 H   0  0  0  0  0  0  0  0  0  0  0  0
  147.8764  138.7621  152.8433 H   0  0  0  0  0  0  0  0  0  0  0  0
  149.9827  139.0837  153.8494 H   0  0  0  0  0  0  0  0  0  0  0  0
  150.5714  140.7255  153.6801 H   0  0  0  0  0  0  0  0  0  0  0  0
  152.0218  139.3709  155.1558 H   0  0  0  0  0  0  0  0  0  0  0  0
  150.6620  138.9369  156.1648 H   0  0  0  0  0  0  0  0  0  0  0  0
  155.2115  140.0374  161.1944 H   0  0  0  0  0  0  0  0  0  0  0  0
  148.3907  139.8616  155.4332 H   0  0  0  0  0  0  0  0  0  0  0  0
  144.6346  140.0790  153.7652 H   0  0  0  0  0  0  0  0  0  0  0  0
  1  2  1  0  0  0  0
  1 25  1  0  0  0  0
  1 26  1  0  0  0  0
  1 27  1  0  0  0  0
  2 24  1  0  0  0  0
  2  3  2  0  0  0  0
  3  4  1  0  0  0  0
  3 28  1  0  0  0  0
  4  5  2  0  0  0  0
  4 29  1  0  0  0  0
  5  6  1  0  0  0  0
  5 23  1  0  0  0  0
  6  7  1  0  0  0  0
  6 30  1  0  0  0  0
  7  8  2  0  0  0  0
  7  9  1  0  0  0  0
  9 10  1  0  0  0  0
  9 31  1  0  0  0  0
 10 22  1  0  0  0  0
 10 11  1  0  0  0  0
 10 32  1  0  0  0  0
 11 12  1  0  0  0  0
 11 33  1  0  0  0  0
 11 34  1  0  0  0  0
 12 13  1  0  0  0  0
 12 35  1  0  0  0  0
 12 36  1  0  0  0  0
 13 14  1  0  0  0  0
 13 21  1  0  0  0  0
 13 54  1  0  0  0  0
 14 20  1  0  0  0  0
 14 15  1  0  0  0  0
 14 37  1  0  0  0  0
 15 16  1  0  0  0  0
 15 38  1  0  0  0  0
 15 39  1  0  0  0  0
 16 17  1  0  0  0  0
 16 40  1  0  0  0  0
 16 41  1  0  0  0  0
 17 18  1  0  0  0  0
 17 19  1  0  0  0  0
 17 55  1  0  0  0  0
 18 42  1  0  0  0  0
 18 43  1  0  0  0  0
 18 44  1  0  0  0  0
 19 20  1  0  0  0  0
 19 45  1  0  0  0  0
 19 46  1  0  0  0  0
 20 47  1  0  0  0  0
 20 48  1  0  0  0  0
 21 22  1  0  0  0  0
 21 49  1  0  0  0  0
 21 50  1  0  0  0  0
 22 51  1  0  0  0  0
 22 52  1  0  0  0  0
 23 24  2  0  0  0  0
 23 53  1  0  0  0  0
M  CHG  1  13   1
M  CHG  1  17   1
M  END
> <s_m_source_file>
AV-unprocessed.smi

> <i_m_source_file_index>
2772

> <i_lp_mmshare_version>
43012

> <i_f3d_flags>
0

> <s_epik_input>
W0NIM11jMVtjSF1bY0hdYyhbY0hdbjEpW05IXUMoPU8pW05IXVtDSF0yW0NIMl1bQ0gyXU4oW0NIMl1bQ0gyXTIpW0NIXTNbQ0gyXVtDSDJdTihbQ0gzXSlbQ0gyXVtDSDJdMw==

> <s_epik_cmdline>
J2VwaWtfcHl0aG9uJywgJy1waCcsICc3LjAnLCAnLXRuJywgJzgnLCAnLW1hJywgJzIwMCcsICctbWV0YWxfYmluZGluZycsICctaW1hZScsICc8aW5maWxlLm1hZT4nLCAnLW9tYWUnLCAnPG91dGZpbGUubWFlPic=

> <r_epik_Ionization_Penalty>
0.196786

> <r_epik_Ionization_Penalty_Charging>
0.180787

> <r_epik_Ionization_Penalty_Neutral>
0.0159988

> <r_epik_State_Penalty>
0.163322

> <r_epik_Charging_Adjusted_Penalty>
0.344109

> <i_epik_Tot_Q>
2

> <i_epik_Tot_abs_Q>
2

> <r_epik_Metal_State_Penalty>
0.163596

> <b_epik_Metal_Only>
0

> <s_lp_Force_Field>
OPLS_2005

> <r_lp_Energy>
49.2909

> <b_lp_Chiralities_Consistent>
1

> <s_lp_Variant>
AV-unprocessed.smi:2772-3

> <Gold.Version>
5.8.1

> <Gold.Id.Protein>
6NUR|6NUR_protein|mol2

> <Gold.PLP.Fitness>
49.5257

> <Gold.PLP.PLP>
-44.9167

> <Gold.PLP.part.hbond>
-2.0000

> <Gold.PLP.part.metal>
0.0000

> <Gold.PLP.part.buried>
1.1180

> <Gold.PLP.part.nonpolar>
-42.7296

> <Gold.PLP.part.repulsive>
0.3061

> <Gold.PLP.ligand.clash>
0.0000

> <Gold.PLP.ligand.torsion>
0.7096

> <Gold.PLP.Chemscore.Hbond>
2.0000

> <Gold.PLP.Chemscore.CHOScore>
0.0000

> <Gold.PLP.Chemscore.Metal>
0.0000

> <Gold.Chemscore.Hbonds>
donor molecule, donor type, donor heavy atom, donor atom, acceptor molecule, acceptor atom, score
      L1  H    17    55       P1 10175  2.00

> <Gold.PLP.Chemscore.Internal.Correction>
0.0281

> <Gold.Rescore>
     Score         DG    S(hbond)    S(metal)    S(lipo)     H(rot)  DE(clash)    DE(int)     intcor
     13.58     -20.43       0.97        0.00     126.42       1.21       3.30       3.55       ----

> <Gold.Chemscore.Fitness>
13.5751

> <Gold.Chemscore.DG>
-20.4272

> <Gold.Chemscore.ZeroCoef>
-5.4800

> <Gold.Chemscore.Hbond>
0.9736

> <Gold.Chemscore.Metal>
0.0000

> <Gold.Chemscore.Lipo>
126.4173

> <Gold.Chemscore.Internal_Hbond>
0.0000

> <Gold.Chemscore.DEClash>
3.3048

> <Gold.Chemscore.DEInternal>
3.5473

> <Gold.Chemscore.Rot>
1.2092

> <Gold.Chemscore.Internal.Correction>
   9.000000E+99

> <Gold.Chemscore.Hbonds>
donor molecule, donor type, donor heavy atom, donor atom, acceptor molecule, acceptor atom, score
      L1  H    17    55       P1 10175  1.00

> <Gold.Chemscore.Hbond.Weighted>
-3.2518

> <Gold.Chemscore.Metal.Weighted>
-0.0000

> <Gold.Chemscore.Lipo.Weighted>
-14.7908

> <Gold.Chemscore.Internal_Hbond.Weighted>
0.0000

> <Gold.Chemscore.DEClash.Weighted>
3.3048

> <Gold.Chemscore.DEInternal.Weighted>
3.5473

> <Gold.Chemscore.Rot.Weighted>
3.0955

> <Gold.Chemscore.Internal.Correction.Weighted>
   9.000000E+99

> <Gold.Protein.RotatedTorsions>
[ 6907 6896 6895 6894 ] final  -57.38 input  -60.11 | X-H torsion
[ 7974 7965 7964 7962 ] final  -90.71 input  175.53 | X-H torsion
[ 8008 7997 7996 7995 ] final  -28.48 input   59.86 | X-H torsion
[ 10167 10162 10161 10158 ] final   -6.80 input  -65.29 | X-H torsion
[ 10718 10713 10712 10709 ] final -155.23 input   66.30 | X-H torsion
[ 10763 10752 10751 10750 ] final -145.64 input  -60.55 | X-H torsion
[ 11005 11000 10999 10996 ] final   26.48 input  -57.11 | X-H torsion

> <Gold.Protein.ActiveResidues>
 VAL166  LYS551  ARG553  GLY616  TRP617  ASP618  TYR619  PRO620  LYS621  CYS622 
 ASP623  PHE694  ASN695  SER759  ASP760  ASP761  ALA762  ILE779  LEU786  VAL792 
 PHE793  MET794  SER795  GLU796  ALA797  LYS798  CYS799  TRP800  GLU811  SER814 

> <Gold.Protein.RotatedAtoms>
  150.8091  134.7234  159.6670 H   0  0  0  0  0  0  0  0  0  0  0  0  # atno 6907 bound_to 6896
  152.4211  134.5950  159.9994 H   0  0  0  0  0  0  0  0  0  0  0  0  # atno 6908 bound_to 6896
  151.6166  133.3305  159.3115 H   0  0  0  0  0  0  0  0  0  0  0  0  # atno 6909 bound_to 6896
  145.4229  140.9552  143.2171 H   0  0  0  0  0  0  0  0  0  0  0  0  # atno 7974 bound_to 7965
  154.4330  140.1844  156.1096 H   0  0  0  0  0  0  0  0  0  0  0  0  # atno 8008 bound_to 7997
  156.0228  140.3339  155.7031 H   0  0  0  0  0  0  0  0  0  0  0  0  # atno 8009 bound_to 7997
  155.5952  140.0635  157.2739 H   0  0  0  0  0  0  0  0  0  0  0  0  # atno 8010 bound_to 7997
  140.7009  143.6152  150.8665 H   0  0  0  0  0  0  0  0  0  0  0  0  # atno 10167 bound_to 10162
  156.5101  130.8431  151.2643 H   0  0  0  0  0  0  0  0  0  0  0  0  # atno 10718 bound_to 10713
  154.8374  135.3407  154.6536 H   0  0  0  0  0  0  0  0  0  0  0  0  # atno 10763 bound_to 10752
  153.7150  135.6961  153.5032 H   0  0  0  0  0  0  0  0  0  0  0  0  # atno 10764 bound_to 10752
  153.2423  135.4380  155.0664 H   0  0  0  0  0  0  0  0  0  0  0  0  # atno 10765 bound_to 10752
  140.3365  134.2380  155.7695 H   0  0  0  0  0  0  0  0  0  0  0  0  # atno 11005 bound_to 11000
  144.8233  139.5753  143.6977 LP  0  0  0  0  0  0  0  0  0  0  0  0  # atno 17320 bound_to 7965
  146.2647  139.6493  142.9337 LP  0  0  0  0  0  0  0  0  0  0  0  0  # atno 17321 bound_to 7965
  139.9874  143.5884  152.2922 LP  0  0  0  0  0  0  0  0  0  0  0  0  # atno 17342 bound_to 10162
  139.6527  144.7661  151.2117 LP  0  0  0  0  0  0  0  0  0  0  0  0  # atno 17343 bound_to 10162
  157.7451  130.9952  150.2737 LP  0  0  0  0  0  0  0  0  0  0  0  0  # atno 17370 bound_to 10713
  156.3249  130.3791  149.7542 LP  0  0  0  0  0  0  0  0  0  0  0  0  # atno 17371 bound_to 10713
  141.2050  133.7872  157.0258 LP  0  0  0  0  0  0  0  0  0  0  0  0  # atno 17394 bound_to 11000
  140.0816  134.9644  157.1634 LP  0  0  0  0  0  0  0  0  0  0  0  0  # atno 17395 bound_to 11000

$$$$
