AV-unprocessed.smi:278|AV-procd|sdf|2089|dock1
  -GOLD-   2262021363D 1   1.00000     0.00000
 Structure written by MMmdl.
 50 54  0  0  0  0  0  0  0  0  1 V2000
  149.4863  132.9003  158.0003 O   0  0  0  0  0  0  0  0  0  0  0  0
  150.2068  132.0789  157.0150 S   0  0  0  0  0  0  0  0  0  0  0  0
  150.9484  130.8771  157.4255 O   0  0  0  0  0  0  0  0  0  0  0  0
  149.0779  131.6718  155.6413 C   0  0  0  0  0  0  0  0  0  0  0  0
  149.0071  132.9583  154.8096 C   0  0  0  0  0  0  0  0  0  0  0  0
  150.3857  133.6675  154.8302 C   0  0  1  0  0  0  0  0  0  0  0  0
  150.3148  135.1806  155.0668 C   0  0  0  0  0  0  0  0  0  0  0  0
  151.5254  135.5124  155.8012 N   0  0  0  0  0  0  0  0  0  0  0  0
  151.5297  136.7339  156.3764 C   0  0  0  0  0  0  0  0  0  0  0  0
  151.8328  136.7870  157.6964 N   0  0  0  0  0  0  0  0  0  0  0  0
  151.8583  137.9641  158.3295 C   0  0  0  0  0  0  0  0  0  0  0  0
  151.6179  139.1823  157.8393 N   0  0  0  0  0  0  0  0  0  0  0  0
  151.3120  139.1303  156.5110 C   0  0  0  0  0  0  0  0  0  0  0  0
  151.2457  137.9584  155.7062 C   0  0  0  0  0  0  0  0  0  0  0  0
  150.9065  138.2992  154.4017 N   0  0  0  0  0  0  0  0  0  0  0  0
  150.7773  139.5977  154.4345 C   0  0  0  0  0  0  0  0  0  0  0  0
  151.0024  140.1776  155.6625 N   0  0  0  0  0  0  0  0  0  0  0  0
  150.9314  141.5914  155.9874 C   0  0  0  0  0  0  0  0  0  0  0  0
  150.2733  141.8491  157.3572 C   0  0  2  0  0  0  0  0  0  0  0  0
  148.9780  142.3830  157.1573 O   0  0  0  0  0  0  0  0  0  0  0  0
  151.0888  142.8289  158.2210 C   0  0  1  0  0  0  0  0  0  0  0  0
  151.3002  144.2044  157.5912 C   0  0  0  0  0  0  0  0  0  0  0  0
  151.6400  145.0583  158.7955 C   0  0  0  0  0  0  0  0  0  0  0  0
  150.8749  144.3818  159.9358 C   0  0  0  0  0  0  0  0  0  0  0  0
  150.3847  143.1505  159.4126 O   0  0  0  0  0  0  0  0  0  0  0  0
  151.7989  134.4000  156.6996 C   0  0  0  0  0  0  0  0  0  0  0  0
  151.2700  133.1536  155.9784 C   0  0  1  0  0  0  0  0  0  0  0  0
  150.9097  133.4769  153.8926 H   0  0  0  0  0  0  0  0  0  0  0  0
  152.0848  132.5481  155.5802 H   0  0  0  0  0  0  0  0  0  0  0  0
  149.5229  130.8603  155.0650 H   0  0  0  0  0  0  0  0  0  0  0  0
  148.1105  131.3484  156.0254 H   0  0  0  0  0  0  0  0  0  0  0  0
  148.6749  132.7575  153.7909 H   0  0  0  0  0  0  0  0  0  0  0  0
  148.2519  133.6047  155.2580 H   0  0  0  0  0  0  0  0  0  0  0  0
  150.2646  135.7292  154.1258 H   0  0  0  0  0  0  0  0  0  0  0  0
  149.4342  135.4432  155.6532 H   0  0  0  0  0  0  0  0  0  0  0  0
  152.1072  137.9240  159.3797 H   0  0  0  0  0  0  0  0  0  0  0  0
  150.5101  140.1707  153.5585 H   0  0  0  0  0  0  0  0  0  0  0  0
  151.9466  141.9899  155.9739 H   0  0  0  0  0  0  0  0  0  0  0  0
  150.3844  142.1062  155.1963 H   0  0  0  0  0  0  0  0  0  0  0  0
  150.1680  140.9032  157.8903 H   0  0  0  0  0  0  0  0  0  0  0  0
  149.0223  143.0267  156.4669 H   0  0  0  0  0  0  0  0  0  0  0  0
  152.0524  142.3934  158.4925 H   0  0  0  0  0  0  0  0  0  0  0  0
  152.0830  144.2115  156.8321 H   0  0  0  0  0  0  0  0  0  0  0  0
  150.3762  144.5592  157.1324 H   0  0  0  0  0  0  0  0  0  0  0  0
  152.7121  145.0174  158.9916 H   0  0  0  0  0  0  0  0  0  0  0  0
  151.3610  146.1036  158.6605 H   0  0  0  0  0  0  0  0  0  0  0  0
  151.5272  144.1963  160.7897 H   0  0  0  0  0  0  0  0  0  0  0  0
  150.0364  144.9899  160.2757 H   0  0  0  0  0  0  0  0  0  0  0  0
  152.8708  134.3186  156.8812 H   0  0  0  0  0  0  0  0  0  0  0  0
  151.3159  134.5430  157.6654 H   0  0  0  0  0  0  0  0  0  0  0  0
  1  2  2  0  0  0  0
  2 27  1  0  0  0  0
  2  3  2  0  0  0  0
  2  4  1  0  0  0  0
  4  5  1  0  0  0  0
  4 30  1  0  0  0  0
  4 31  1  0  0  0  0
  5  6  1  0  0  0  0
  5 32  1  0  0  0  0
  5 33  1  0  0  0  0
  6 28  1  0  0  0  0
  6 27  1  0  0  0  0
  6  7  1  0  0  0  0
  7  8  1  0  0  0  0
  7 34  1  0  0  0  0
  7 35  1  0  0  0  0
  8  9  1  0  0  0  0
  8 26  1  0  0  0  0
  9 14  1  0  0  0  0
  9 10  2  0  0  0  0
 10 11  1  0  0  0  0
 11 12  2  0  0  0  0
 11 36  1  0  0  0  0
 12 13  1  0  0  0  0
 13 17  1  0  0  0  0
 13 14  2  0  0  0  0
 14 15  1  0  0  0  0
 15 16  2  0  0  0  0
 16 17  1  0  0  0  0
 16 37  1  0  0  0  0
 17 18  1  0  0  0  0
 18 19  1  0  0  0  0
 18 38  1  0  0  0  0
 18 39  1  0  0  0  0
 19 20  1  0  0  0  0
 19 21  1  0  0  0  0
 19 40  1  0  0  0  0
 20 41  1  0  0  0  0
 21 25  1  0  0  0  0
 21 22  1  0  0  0  0
 21 42  1  0  0  0  0
 22 23  1  0  0  0  0
 22 43  1  0  0  0  0
 22 44  1  0  0  0  0
 23 24  1  0  0  0  0
 23 45  1  0  0  0  0
 23 46  1  0  0  0  0
 24 25  1  0  0  0  0
 24 47  1  0  0  0  0
 24 48  1  0  0  0  0
 26 27  1  0  0  0  0
 26 49  1  0  0  0  0
 26 50  1  0  0  0  0
 27 29  1  0  0  0  0
M  END
> <s_m_source_file>
AV-unprocessed.smi

> <i_m_source_file_index>
278

> <i_lp_mmshare_version>
43012

> <i_f3d_flags>
0

> <s_epik_input>
W0NIMl0xW0NIMl1TKD1PKSg9TylbQ0BASF0oW0NAQEhdMTIpW0NIMl1OKFtDSDJdMiljKG5bY0hdbjMpYyhjMzQpbltjSF1uNFtDSDJdW0NASF0oW09IXSlbQ0BASF01W0NIMl1bQ0gyXVtDSDJdTzU=

> <s_epik_cmdline>
J2VwaWtfcHl0aG9uJywgJy1waCcsICc3LjAnLCAnLXRuJywgJzgnLCAnLW1hJywgJzIwMCcsICctbWV0YWxfYmluZGluZycsICctaW1hZScsICc8aW5maWxlLm1hZT4nLCAnLW9tYWUnLCAnPG91dGZpbGUubWFlPic=

> <r_lp_tautomer_probability>
1

> <r_epik_Ionization_Penalty>
0.000636766

> <r_epik_Ionization_Penalty_Charging>
0

> <r_epik_Ionization_Penalty_Neutral>
0.000636766

> <r_epik_State_Penalty>
0.000329976

> <r_epik_Charging_Adjusted_Penalty>
0.000329976

> <i_epik_Tot_Q>
0

> <i_epik_Tot_abs_Q>
0

> <r_epik_Metal_State_Penalty>
-0

> <b_epik_Metal_Only>
0

> <s_lp_Force_Field>
OPLS_2005

> <r_lp_Energy>
53.1939

> <b_lp_Chiralities_Consistent>
1

> <s_lp_Variant>
AV-unprocessed.smi:278-3

> <Gold.Version>
5.8.1

> <Gold.Id.Protein>
6NUR|6NUR_protein|mol2

> <Gold.PLP.Fitness>
50.9851

> <Gold.PLP.PLP>
-41.3958

> <Gold.PLP.part.hbond>
-3.2504

> <Gold.PLP.part.metal>
0.0000

> <Gold.PLP.part.buried>
-3.5112

> <Gold.PLP.part.nonpolar>
-33.5301

> <Gold.PLP.part.repulsive>
0.3018

> <Gold.PLP.ligand.clash>
0.0000

> <Gold.PLP.ligand.torsion>
1.0331

> <Gold.PLP.Chemscore.Hbond>
2.8512

> <Gold.PLP.Chemscore.CHOScore>
0.9993

> <Gold.PLP.Chemscore.Metal>
0.0000

> <Gold.Chemscore.Hbonds>
donor molecule, donor type, donor heavy atom, donor atom, acceptor molecule, acceptor atom, score
      L1  H    20    41       P1  8028  1.00
      P1  H  6896  6908       L1     1  1.00
      P1  H 10752 10764       L1     8  0.78
      L1  C    16    37       P1  7957  0.94

> <Gold.PLP.Chemscore.Internal.Correction>
0.1041

> <Gold.Rescore>
     Score         DG    S(hbond)    S(metal)    S(lipo)     H(rot)  DE(clash)    DE(int)     intcor
     16.02     -16.76       1.99        0.00      93.51       2.46       0.02       0.71       ----

> <Gold.Chemscore.Fitness>
16.0230

> <Gold.Chemscore.DG>
-16.7574

> <Gold.Chemscore.ZeroCoef>
-5.4800

> <Gold.Chemscore.Hbond>
1.9892

> <Gold.Chemscore.Metal>
0.0000

> <Gold.Chemscore.Lipo>
93.5071

> <Gold.Chemscore.Internal_Hbond>
0.0000

> <Gold.Chemscore.DEClash>
0.0199

> <Gold.Chemscore.DEInternal>
0.7144

> <Gold.Chemscore.Rot>
2.4636

> <Gold.Chemscore.Internal.Correction>
   9.000000E+99

> <Gold.Chemscore.Hbonds>
donor molecule, donor type, donor heavy atom, donor atom, acceptor molecule, acceptor atom, score
      L1  H    20    41       P1  8028  0.98
      P1  H  6896  6908       L1     1  0.74
      P1  H 10752 10764       L1     8  0.14

> <Gold.Chemscore.Hbond.Weighted>
-6.6439

> <Gold.Chemscore.Metal.Weighted>
-0.0000

> <Gold.Chemscore.Lipo.Weighted>
-10.9403

> <Gold.Chemscore.Internal_Hbond.Weighted>
0.0000

> <Gold.Chemscore.DEClash.Weighted>
0.0199

> <Gold.Chemscore.DEInternal.Weighted>
0.7144

> <Gold.Chemscore.Rot.Weighted>
6.3068

> <Gold.Chemscore.Internal.Correction.Weighted>
   9.000000E+99

> <Gold.Protein.RotatedTorsions>
[ 6907 6896 6895 6894 ] final  120.61 input  -60.11 | X-H torsion
[ 7974 7965 7964 7962 ] final  -67.17 input  175.53 | X-H torsion
[ 8008 7997 7996 7995 ] final  116.42 input   59.86 | X-H torsion
[ 10167 10162 10161 10158 ] final  121.69 input  -65.29 | X-H torsion
[ 10718 10713 10712 10709 ] final  -12.02 input   66.30 | X-H torsion
[ 10763 10752 10751 10750 ] final  -64.28 input  -60.55 | X-H torsion
[ 11005 11000 10999 10996 ] final -113.46 input  -57.11 | X-H torsion

> <Gold.Protein.ActiveResidues>
 VAL166  LYS551  ARG553  GLY616  TRP617  ASP618  TYR619  PRO620  LYS621  CYS622 
 ASP623  PHE694  ASN695  SER759  ASP760  ASP761  ALA762  ILE779  LEU786  VAL792 
 PHE793  MET794  SER795  GLU796  ALA797  LYS798  CYS799  TRP800  GLU811  SER814 

> <Gold.Protein.RotatedAtoms>
  152.4385  133.7404  159.6637 H   0  0  0  0  0  0  0  0  0  0  0  0  # atno 6907 bound_to 6896
  150.8272  133.8142  159.3120 H   0  0  0  0  0  0  0  0  0  0  0  0  # atno 6908 bound_to 6896
  151.5807  135.1061  160.0068 H   0  0  0  0  0  0  0  0  0  0  0  0  # atno 6909 bound_to 6896
  145.7325  140.8990  143.0572 H   0  0  0  0  0  0  0  0  0  0  0  0  # atno 7974 bound_to 7965
  156.2438  140.2918  156.0521 H   0  0  0  0  0  0  0  0  0  0  0  0  # atno 8008 bound_to 7997
  155.1870  140.0406  157.2910 H   0  0  0  0  0  0  0  0  0  0  0  0  # atno 8009 bound_to 7997
  154.6221  140.2478  155.7544 H   0  0  0  0  0  0  0  0  0  0  0  0  # atno 8010 bound_to 7997
  139.5904  144.7023  151.3304 H   0  0  0  0  0  0  0  0  0  0  0  0  # atno 10167 bound_to 10162
  156.6506  130.4954  149.6063 H   0  0  0  0  0  0  0  0  0  0  0  0  # atno 10718 bound_to 10713
  154.3277  135.6183  153.5537 H   0  0  0  0  0  0  0  0  0  0  0  0  # atno 10763 bound_to 10752
  152.9814  135.5739  154.4998 H   0  0  0  0  0  0  0  0  0  0  0  0  # atno 10764 bound_to 10752
  154.4678  135.2858  155.1642 H   0  0  0  0  0  0  0  0  0  0  0  0  # atno 10765 bound_to 10752
  141.0613  133.9531  157.2662 H   0  0  0  0  0  0  0  0  0  0  0  0  # atno 11005 bound_to 11000
  144.6889  139.9351  143.7473 LP  0  0  0  0  0  0  0  0  0  0  0  0  # atno 17320 bound_to 7965
  146.0524  139.3523  143.0631 LP  0  0  0  0  0  0  0  0  0  0  0  0  # atno 17321 bound_to 7965
  140.7168  143.7245  150.7671 LP  0  0  0  0  0  0  0  0  0  0  0  0  # atno 17342 bound_to 10162
  140.0799  143.4979  152.2535 LP  0  0  0  0  0  0  0  0  0  0  0  0  # atno 17343 bound_to 10162
  156.2087  130.6665  151.1246 LP  0  0  0  0  0  0  0  0  0  0  0  0  # atno 17370 bound_to 10713
  157.7142  131.0718  150.6390 LP  0  0  0  0  0  0  0  0  0  0  0  0  # atno 17371 bound_to 10713
  139.9435  135.0187  156.8781 LP  0  0  0  0  0  0  0  0  0  0  0  0  # atno 17394 bound_to 11000
  140.5864  134.0304  155.7483 LP  0  0  0  0  0  0  0  0  0  0  0  0  # atno 17395 bound_to 11000

$$$$
