#       Name:                AV-unprocessed.smi:2371
#       Creating user name   scv26
#       Creation time:       Fri Mar 27 13:06:48 2020


#       File generated by GOLD software.
#

@<TRIPOS>MOLECULE
AV-unprocessed.smi:2371
    41    42     1
SMALL
NO_CHARGES


@<TRIPOS>ATOM
      1 ****        -4.9920   3.1283   0.0032 C.3            1 S1                 0.0000
      2 ****        -4.2865   1.8506  -0.1250 N.am           1 S1                 0.0000
      3 ****        -5.0382   0.6744   0.0328 C.2            1 S1                 0.0000
      4 ****        -4.4764  -0.5378  -0.0708 C.2            1 S1                 0.0000
      5 ****        -3.0627  -0.6180  -0.3513 C.2            1 S1                 0.0000
      6 ****        -2.3156   0.5053  -0.5009 C.2            1 S1                 0.0000
      7 ****        -0.9365   0.5271  -0.7777 N.am           1 S1                 0.0000
      8 ****        -0.0473  -0.4824  -0.8243 C.2            1 S1                 0.0000
      9 ****        -0.2857  -1.6706  -0.6108 O.2            1 S1                 0.0000
     10 ****         1.1748  -0.0245  -1.1294 N.am           1 S1                 0.0000
     11 ****         2.3763  -0.8442  -1.2358 C.3            1 S1                 0.0000
     12 ****         2.9655  -1.1675   0.1475 C.3            1 S1                 0.0000
     13 ****         4.2271  -2.0298   0.0974 C.3            1 S1                 0.0000
     14 ****         5.0037  -1.6176   1.3406 C.3            1 S1                 0.0000
     15 ****         4.2466  -0.3979   1.8706 C.3            1 S1                 0.0000
     16 ****         3.4240   0.0121   0.7891 O.3            1 S1                 0.0000
     17 ****        -2.9457   1.8359  -0.3882 C.2            1 S1                 0.0000
     18 ****        -2.3116   2.8856  -0.5215 O.2            1 S1                 0.0000
     19 ****        -6.0580   3.0040   0.1965 H              1 S1                 0.0000
     20 ****        -4.8949   3.7137  -0.9123 H              1 S1                 0.0000
     21 ****        -4.5783   3.7127   0.8264 H              1 S1                 0.0000
     22 ****        -6.0884   0.8177   0.2415 H              1 S1                 0.0000
     23 ****        -5.0667  -1.4337   0.0534 H              1 S1                 0.0000
     24 ****        -2.6411  -1.6049  -0.4419 H              1 S1                 0.0000
     25 ****        -0.5647   1.4502  -0.9486 H              1 S1                 0.0000
     26 ****         1.2881   0.9668  -1.2834 H              1 S1                 0.0000
     27 ****         2.1492  -1.7654  -1.7748 H              1 S1                 0.0000
     28 ****         3.1073  -0.3045  -1.8384 H              1 S1                 0.0000
     29 ****         2.2197  -1.6501   0.7824 H              1 S1                 0.0000
     30 ****         3.9989  -3.0958   0.0749 H              1 S1                 0.0000
     31 ****         4.8142  -1.7953  -0.7916 H              1 S1                 0.0000
     32 ****         5.0361  -2.4129   2.0857 H              1 S1                 0.0000
     33 ****         6.0309  -1.3610   1.0792 H              1 S1                 0.0000
     34 ****         3.6149  -0.6757   2.7158 H              1 S1                 0.0000
     35 ****         4.9115   0.4044   2.1913 H              1 S1                 0.0000
     36 ****        -1.2138  -1.9602  -0.3771 LP             1 S1                 0.0000
     37 ****         0.4488  -2.3466  -0.6711 LP             1 S1                 0.0000
     38 ****         2.6474   0.5420   1.1297 LP             1 S1                 0.0000
     39 ****         3.9519   0.5690   0.1478 LP             1 S1                 0.0000
     40 ****        -2.7784   3.7659  -0.4372 LP             1 S1                 0.0000
     41 ****        -1.3307   2.8563  -0.7139 LP             1 S1                 0.0000
@<TRIPOS>BOND
    1    1    2 1     
    2    1   19 1     
    3    1   20 1     
    4    1   21 1     
    5    2   17 am    
    6    2    3 1     
    7    3    4 2     
    8    3   22 1     
    9    4    5 1     
   10    4   23 1     
   11    5    6 2     
   12    5   24 1     
   13    6    7 1     
   14    6   17 1     
   15    7    8 am    
   16    7   25 1     
   17    8    9 2     
   18    8   10 am    
   19   10   11 1     
   20   10   26 1     
   21   11   12 1     
   22   11   27 1     
   23   11   28 1     
   24   12   16 1     
   25   12   13 1     
   26   12   29 1     
   27   13   14 1     
   28   13   30 1     
   29   13   31 1     
   30   14   15 1     
   31   14   32 1     
   32   14   33 1     
   33   15   16 1     
   34   15   34 1     
   35   15   35 1     
   36   17   18 2     
   37    9   36 1     
   38    9   37 1     
   39   16   38 1     
   40   16   39 1     
   41   18   40 1     
   42   18   41 1     
@<TRIPOS>SUBSTRUCTURE
      1 S1             1
@<TRIPOS>SET
LONE_PAIRS      STATIC     ATOMS    <user>   **** ""
6 36 37 38 39 40 41
DONOR_HYDROGENS      STATIC     ATOMS    <user>   **** ""
2 25 26
ATOM$BLUE        STATIC     ATOMS    COLORGROUP SYSTEM
6 36 37 38 39 40 41
ATOM$RED        STATIC     ATOMS    COLORGROUP SYSTEM
2 25 26
