AV-unprocessed.smi:2329|AV-procd|sdf|9303|dock1
  -GOLD-   2272012523D 1   1.00000     0.00000
 Structure written by MMmdl.
 45 48  0  0  0  0  0  0  0  0  1 V2000
  141.8790  134.4075  152.8593 C   0  0  0  0  0  0  0  0  0  0  0  0
  143.2568  134.2413  152.2537 C   0  0  0  0  0  0  0  0  0  0  0  0
  143.4731  133.3660  151.1713 C   0  0  0  0  0  0  0  0  0  0  0  0
  144.7774  133.2581  150.6564 C   0  0  0  0  0  0  0  0  0  0  0  0
  145.8044  134.0237  151.2411 C   0  0  0  0  0  0  0  0  0  0  0  0
  145.5026  134.8792  152.3242 C   0  0  0  0  0  0  0  0  0  0  0  0
  146.6060  135.6089  152.8388 N   0  0  0  0  0  0  0  0  0  0  0  0
  146.6237  136.4916  153.8574 C   0  0  0  0  0  0  0  0  0  0  0  0
  145.6518  136.7850  154.5511 O   0  0  0  0  0  0  0  0  0  0  0  0
  147.8235  137.0626  154.0626 N   0  0  0  0  0  0  0  0  0  0  0  0
  148.1767  138.0597  155.0860 C   0  0  1  0  0  0  0  0  0  0  0  0
  149.6803  138.1774  155.3640 C   0  0  1  0  0  0  0  0  0  0  0  0
  150.8720  137.3118  155.1599 C   0  0  0  0  0  0  0  0  0  0  0  0
  151.8350  138.4177  154.6542 C   0  0  0  0  0  0  0  0  0  0  0  0
  151.0128  139.5915  154.4340 O   0  0  0  0  0  0  0  0  0  0  0  0
  149.7309  139.0687  154.1412 C   0  0  2  0  0  0  0  0  0  0  0  0
  148.3091  139.5331  154.5381 C   0  0  0  0  0  0  0  0  0  0  0  0
  147.3746  139.9604  153.4005 C   0  0  0  0  0  0  0  0  0  0  0  0
  147.1924  141.4713  153.5012 C   0  0  0  0  0  0  0  0  0  0  0  0
  147.2390  141.7395  154.9985 C   0  0  0  0  0  0  0  0  0  0  0  0
  148.2147  140.6958  155.5480 C   0  0  0  0  0  0  0  0  0  0  0  0
  144.2415  134.9763  152.8139 N   0  0  0  0  0  0  0  0  0  0  0  0
  141.1409  133.7973  152.3385 H   0  0  0  0  0  0  0  0  0  0  0  0
  141.5617  135.4490  152.8002 H   0  0  0  0  0  0  0  0  0  0  0  0
  141.8876  134.1095  153.9081 H   0  0  0  0  0  0  0  0  0  0  0  0
  142.6638  132.7915  150.7452 H   0  0  0  0  0  0  0  0  0  0  0  0
  144.9876  132.5993  149.8269 H   0  0  0  0  0  0  0  0  0  0  0  0
  146.8120  133.9537  150.8571 H   0  0  0  0  0  0  0  0  0  0  0  0
  147.4817  135.4697  152.3568 H   0  0  0  0  0  0  0  0  0  0  0  0
  148.5637  136.8000  153.4279 H   0  0  0  0  0  0  0  0  0  0  0  0
  147.5670  137.9951  155.9885 H   0  0  0  0  0  0  0  0  0  0  0  0
  149.8081  138.7425  156.2931 H   0  0  0  0  0  0  0  0  0  0  0  0
  151.2169  136.8398  156.0803 H   0  0  0  0  0  0  0  0  0  0  0  0
  150.7033  136.5440  154.4041 H   0  0  0  0  0  0  0  0  0  0  0  0
  152.6126  138.6467  155.3834 H   0  0  0  0  0  0  0  0  0  0  0  0
  152.3198  138.1145  153.7254 H   0  0  0  0  0  0  0  0  0  0  0  0
  149.7477  138.5274  153.1899 H   0  0  0  0  0  0  0  0  0  0  0  0
  147.7536  139.6761  152.4185 H   0  0  0  0  0  0  0  0  0  0  0  0
  146.4034  139.4771  153.5153 H   0  0  0  0  0  0  0  0  0  0  0  0
  148.0257  141.9760  153.0102 H   0  0  0  0  0  0  0  0  0  0  0  0
  146.2685  141.8180  153.0374 H   0  0  0  0  0  0  0  0  0  0  0  0
  147.5386  142.7614  155.2335 H   0  0  0  0  0  0  0  0  0  0  0  0
  146.2497  141.5766  155.4281 H   0  0  0  0  0  0  0  0  0  0  0  0
  147.8943  140.3587  156.5343 H   0  0  0  0  0  0  0  0  0  0  0  0
  149.1927  141.1597  155.6826 H   0  0  0  0  0  0  0  0  0  0  0  0
  1  2  1  0  0  0  0
  1 23  1  0  0  0  0
  1 24  1  0  0  0  0
  1 25  1  0  0  0  0
  2 22  1  0  0  0  0
  2  3  2  0  0  0  0
  3  4  1  0  0  0  0
  3 26  1  0  0  0  0
  4  5  2  0  0  0  0
  4 27  1  0  0  0  0
  5  6  1  0  0  0  0
  5 28  1  0  0  0  0
  6  7  1  0  0  0  0
  6 22  2  0  0  0  0
  7  8  1  0  0  0  0
  7 29  1  0  0  0  0
  8  9  2  0  0  0  0
  8 10  1  0  0  0  0
 10 11  1  0  0  0  0
 10 30  1  0  0  0  0
 11 17  1  0  0  0  0
 11 12  1  0  0  0  0
 11 31  1  0  0  0  0
 12 16  1  0  0  0  0
 12 13  1  0  0  0  0
 12 32  1  0  0  0  0
 13 14  1  0  0  0  0
 13 33  1  0  0  0  0
 13 34  1  0  0  0  0
 14 15  1  0  0  0  0
 14 35  1  0  0  0  0
 14 36  1  0  0  0  0
 15 16  1  0  0  0  0
 16 17  1  0  0  0  0
 16 37  1  0  0  0  0
 17 21  1  0  0  0  0
 17 18  1  0  0  0  0
 18 19  1  0  0  0  0
 18 38  1  0  0  0  0
 18 39  1  0  0  0  0
 19 20  1  0  0  0  0
 19 40  1  0  0  0  0
 19 41  1  0  0  0  0
 20 21  1  0  0  0  0
 20 42  1  0  0  0  0
 20 43  1  0  0  0  0
 21 44  1  0  0  0  0
 21 45  1  0  0  0  0
M  END
> <s_m_source_file>
AV-unprocessed.smi

> <i_m_source_file_index>
2329

> <i_lp_mmshare_version>
43012

> <i_f3d_flags>
0

> <s_epik_input>
W0NIM11jMVtjSF1bY0hdW2NIXWMobjEpW05IXUMoPU8pW05IXVtDQEBIXTJbQ0BASF0oW0NIMl1bQ0gyXU8zKVtDQEhdM0MyNFtDSDJdW0NIMl1bQ0gyXVtDSDJdNA==

> <s_epik_cmdline>
J2VwaWtfcHl0aG9uJywgJy1waCcsICc3LjAnLCAnLXRuJywgJzgnLCAnLW1hJywgJzIwMCcsICctbWV0YWxfYmluZGluZycsICctaW1hZScsICc8aW5maWxlLm1hZT4nLCAnLW9tYWUnLCAnPG91dGZpbGUubWFlPic=

> <r_lp_tautomer_probability>
1

> <r_epik_Ionization_Penalty>
8.97002e-05

> <r_epik_Ionization_Penalty_Charging>
0

> <r_epik_Ionization_Penalty_Neutral>
8.97002e-05

> <r_epik_State_Penalty>
-0

> <r_epik_Charging_Adjusted_Penalty>
0

> <i_epik_Tot_Q>
0

> <i_epik_Tot_abs_Q>
0

> <r_epik_Metal_State_Penalty>
-0

> <b_epik_Metal_Only>
0

> <s_lp_Force_Field>
OPLS_2005

> <r_lp_Energy>
90.5086

> <b_lp_Chiralities_Consistent>
1

> <s_lp_Variant>
AV-unprocessed.smi:2329-2

> <Gold.Version>
5.8.1

> <Gold.Id.Protein>
6NUR|6NUR_protein|mol2

> <Gold.PLP.Fitness>
41.9241

> <Gold.PLP.PLP>
-33.5188

> <Gold.PLP.part.hbond>
-3.0000

> <Gold.PLP.part.metal>
0.0000

> <Gold.PLP.part.buried>
-2.8336

> <Gold.PLP.part.nonpolar>
-27.2810

> <Gold.PLP.part.repulsive>
0.2475

> <Gold.PLP.ligand.clash>
0.0000

> <Gold.PLP.ligand.torsion>
0.2400

> <Gold.PLP.Chemscore.Hbond>
2.8720

> <Gold.PLP.Chemscore.CHOScore>
0.0000

> <Gold.PLP.Chemscore.Metal>
0.0000

> <Gold.Chemscore.Hbonds>
donor molecule, donor type, donor heavy atom, donor atom, acceptor molecule, acceptor atom, score
      L1  H     7    29       P1  7948  0.93
      L1  H    10    30       P1  7948  0.94
      P1  H  7989  7998       L1    15  1.00

> <Gold.PLP.Chemscore.Internal.Correction>
0.2692

> <Gold.Rescore>
     Score         DG    S(hbond)    S(metal)    S(lipo)     H(rot)  DE(clash)    DE(int)     intcor
     20.63     -22.24       2.75        0.00      86.49       1.00       0.08       1.53       ----

> <Gold.Chemscore.Fitness>
20.6268

> <Gold.Chemscore.DG>
-22.2386

> <Gold.Chemscore.ZeroCoef>
-5.4800

> <Gold.Chemscore.Hbond>
2.7544

> <Gold.Chemscore.Metal>
0.0000

> <Gold.Chemscore.Lipo>
86.4865

> <Gold.Chemscore.Internal_Hbond>
0.0000

> <Gold.Chemscore.DEClash>
0.0848

> <Gold.Chemscore.DEInternal>
1.5270

> <Gold.Chemscore.Rot>
1.0000

> <Gold.Chemscore.Internal.Correction>
   9.000000E+99

> <Gold.Chemscore.Hbonds>
donor molecule, donor type, donor heavy atom, donor atom, acceptor molecule, acceptor atom, score
      L1  H     7    29       P1  7948  0.90
      L1  H    10    30       P1  7948  0.91
      P1  H  7989  7998       L1    15  0.95

> <Gold.Chemscore.Hbond.Weighted>
-9.1997

> <Gold.Chemscore.Metal.Weighted>
-0.0000

> <Gold.Chemscore.Lipo.Weighted>
-10.1189

> <Gold.Chemscore.Internal_Hbond.Weighted>
0.0000

> <Gold.Chemscore.DEClash.Weighted>
0.0848

> <Gold.Chemscore.DEInternal.Weighted>
1.5270

> <Gold.Chemscore.Rot.Weighted>
2.5600

> <Gold.Chemscore.Internal.Correction.Weighted>
   9.000000E+99

> <Gold.Protein.RotatedTorsions>
[ 6907 6896 6895 6894 ] final -100.78 input  -60.11 | X-H torsion
[ 7974 7965 7964 7962 ] final    8.71 input  175.53 | X-H torsion
[ 8008 7997 7996 7995 ] final  -17.27 input   59.86 | X-H torsion
[ 10167 10162 10161 10158 ] final -143.82 input  -65.29 | X-H torsion
[ 10718 10713 10712 10709 ] final  -33.34 input   66.30 | X-H torsion
[ 10763 10752 10751 10750 ] final -168.52 input  -60.55 | X-H torsion
[ 11005 11000 10999 10996 ] final   87.75 input  -57.11 | X-H torsion

> <Gold.Protein.ActiveResidues>
 VAL166  LYS551  ARG553  GLY616  TRP617  ASP618  TYR619  PRO620  LYS621  CYS622 
 ASP623  PHE694  ASN695  SER759  ASP760  ASP761  ALA762  ILE779  LEU786  VAL792 
 PHE793  MET794  SER795  GLU796  ALA797  LYS798  CYS799  TRP800  GLU811  SER814 

> <Gold.Protein.RotatedAtoms>
  150.7129  134.0834  159.3905 H   0  0  0  0  0  0  0  0  0  0  0  0  # atno 6907 bound_to 6896
  151.8819  135.0448  160.0499 H   0  0  0  0  0  0  0  0  0  0  0  0  # atno 6908 bound_to 6896
  152.2561  133.5221  159.5390 H   0  0  0  0  0  0  0  0  0  0  0  0  # atno 6909 bound_to 6896
  146.2413  139.9892  142.8427 H   0  0  0  0  0  0  0  0  0  0  0  0  # atno 7974 bound_to 7965
  154.4991  140.2147  155.9385 H   0  0  0  0  0  0  0  0  0  0  0  0  # atno 8008 bound_to 7997
  156.1410  140.3179  155.8462 H   0  0  0  0  0  0  0  0  0  0  0  0  # atno 8009 bound_to 7997
  155.4121  140.0491  157.3022 H   0  0  0  0  0  0  0  0  0  0  0  0  # atno 8010 bound_to 7997
  139.7958  143.7903  152.2654 H   0  0  0  0  0  0  0  0  0  0  0  0  # atno 10167 bound_to 10162
  156.3638  130.4328  149.7602 H   0  0  0  0  0  0  0  0  0  0  0  0  # atno 10718 bound_to 10713
  154.6619  135.2926  154.9855 H   0  0  0  0  0  0  0  0  0  0  0  0  # atno 10763 bound_to 10752
  154.0911  135.6590  153.4856 H   0  0  0  0  0  0  0  0  0  0  0  0  # atno 10764 bound_to 10752
  153.0435  135.5220  154.7575 H   0  0  0  0  0  0  0  0  0  0  0  0  # atno 10765 bound_to 10752
  139.8912  134.8443  156.2904 H   0  0  0  0  0  0  0  0  0  0  0  0  # atno 11005 bound_to 11000
  145.1519  140.9627  143.4428 LP  0  0  0  0  0  0  0  0  0  0  0  0  # atno 17320 bound_to 7965
  145.0197  139.3435  143.6078 LP  0  0  0  0  0  0  0  0  0  0  0  0  # atno 17321 bound_to 7965
  139.8008  144.7375  150.9828 LP  0  0  0  0  0  0  0  0  0  0  0  0  # atno 17342 bound_to 10162
  140.7820  143.4347  151.0641 LP  0  0  0  0  0  0  0  0  0  0  0  0  # atno 17343 bound_to 10162
  156.4755  130.8017  151.3033 LP  0  0  0  0  0  0  0  0  0  0  0  0  # atno 17370 bound_to 10713
  157.7476  131.0022  150.2992 LP  0  0  0  0  0  0  0  0  0  0  0  0  # atno 17371 bound_to 10713
  140.9980  133.7168  156.0916 LP  0  0  0  0  0  0  0  0  0  0  0  0  # atno 17394 bound_to 11000
  140.7536  134.4017  157.5537 LP  0  0  0  0  0  0  0  0  0  0  0  0  # atno 17395 bound_to 11000

$$$$
