AV-unprocessed.smi:1033|AV-procd|sdf|4499|dock10
  -GOLD-   22720 2493D 1   1.00000     0.00000
 Structure written by MMmdl.
 57 59  0  0  0  0  0  0  0  0  3 V2000
  152.2131  143.3876  161.4950 C   0  0  0  0  0  0  0  0  0  0  0  0
  152.1093  142.6076  160.1953 C   0  0  0  0  0  0  0  0  0  0  0  0
  151.1964  143.0523  159.2130 C   0  0  0  0  0  0  0  0  0  0  0  0
  151.1152  142.3110  158.0407 C   0  0  0  0  0  0  0  0  0  0  0  0
  150.3189  142.4810  156.9068 N   0  3  0  0  0  0  0  0  0  0  0  0
  150.5831  141.4892  156.0125 C   0  0  0  0  0  0  0  0  0  0  0  0
  151.5309  140.6813  156.5621 N   0  0  0  0  0  0  0  0  0  0  0  0
  152.1518  139.4671  156.0107 C   0  0  0  0  0  0  0  0  0  0  0  0
  151.2023  138.2482  155.9989 C   0  0  1  0  0  0  0  0  0  0  0  0
  150.3443  138.3703  157.1130 O   0  0  0  0  0  0  0  0  0  0  0  0
  150.3155  138.1139  154.7386 C   0  0  0  0  0  0  0  0  0  0  0  0
  149.7006  136.7719  154.5867 N   0  3  0  0  0  0  0  0  0  0  0  0
  148.3829  136.6596  155.2593 C   0  0  0  0  0  0  0  0  0  0  0  0
  147.7448  135.2964  154.9291 C   0  0  0  0  0  0  0  0  0  0  0  0
  148.5723  134.1588  155.3325 N   0  0  0  0  0  0  0  0  0  0  0  0
  148.6171  133.9859  156.7931 C   0  0  0  0  0  0  0  0  0  0  0  0
  149.2713  132.6895  157.3222 C   0  0  2  0  0  0  0  0  0  0  0  0
  148.8304  132.2048  158.7099 C   0  0  0  0  0  0  0  0  0  0  0  0
  150.6769  132.8183  157.2823 O   0  0  0  0  0  0  0  0  0  0  0  0
  149.8841  134.2985  154.6878 C   0  0  0  0  0  0  0  0  0  0  0  0
  150.5830  135.6436  154.9800 C   0  0  0  0  0  0  0  0  0  0  0  0
  151.9072  141.1664  157.8217 C   0  0  0  0  0  0  0  0  0  0  0  0
  152.8209  140.7223  158.7754 C   0  0  0  0  0  0  0  0  0  0  0  0
  152.9113  141.4576  159.9787 C   0  0  0  0  0  0  0  0  0  0  0  0
  153.8852  140.9847  161.0444 C   0  0  0  0  0  0  0  0  0  0  0  0
  151.5158  144.2256  161.5145 H   0  0  0  0  0  0  0  0  0  0  0  0
  153.2190  143.7885  161.6218 H   0  0  0  0  0  0  0  0  0  0  0  0
  151.9853  142.7458  162.3463 H   0  0  0  0  0  0  0  0  0  0  0  0
  150.5839  143.9285  159.3709 H   0  0  0  0  0  0  0  0  0  0  0  0
  150.1193  141.3628  155.0442 H   0  0  0  0  0  0  0  0  0  0  0  0
  152.4454  139.7122  154.9887 H   0  0  0  0  0  0  0  0  0  0  0  0
  153.0767  139.2463  156.5425 H   0  0  0  0  0  0  0  0  0  0  0  0
  151.7771  137.3372  156.1618 H   0  0  0  0  0  0  0  0  0  0  0  0
  150.7449  137.9478  157.8576 H   0  0  0  0  0  0  0  0  0  0  0  0
  149.5203  138.8612  154.7488 H   0  0  0  0  0  0  0  0  0  0  0  0
  150.9284  138.3326  153.8627 H   0  0  0  0  0  0  0  0  0  0  0  0
  148.4987  136.7891  156.3365 H   0  0  0  0  0  0  0  0  0  0  0  0
  147.7233  137.4561  154.9128 H   0  0  0  0  0  0  0  0  0  0  0  0
  146.7606  135.2243  155.3937 H   0  0  0  0  0  0  0  0  0  0  0  0
  147.5649  135.2415  153.8548 H   0  0  0  0  0  0  0  0  0  0  0  0
  149.0873  134.8473  157.2657 H   0  0  0  0  0  0  0  0  0  0  0  0
  147.5952  133.9832  157.1759 H   0  0  0  0  0  0  0  0  0  0  0  0
  149.0186  131.8994  156.6143 H   0  0  0  0  0  0  0  0  0  0  0  0
  147.7438  132.1809  158.7939 H   0  0  0  0  0  0  0  0  0  0  0  0
  149.2269  132.8346  159.5057 H   0  0  0  0  0  0  0  0  0  0  0  0
  149.1957  131.1944  158.8959 H   0  0  0  0  0  0  0  0  0  0  0  0
  151.0141  132.2326  156.6218 H   0  0  0  0  0  0  0  0  0  0  0  0
  150.5473  133.4847  154.9656 H   0  0  0  0  0  0  0  0  0  0  0  0
  149.7532  134.2057  153.6088 H   0  0  0  0  0  0  0  0  0  0  0  0
  151.5138  135.6795  154.4159 H   0  0  0  0  0  0  0  0  0  0  0  0
  150.8549  135.7290  156.0324 H   0  0  0  0  0  0  0  0  0  0  0  0
  153.4318  139.8457  158.6194 H   0  0  0  0  0  0  0  0  0  0  0  0
  154.4447  140.1089  160.7147 H   0  0  0  0  0  0  0  0  0  0  0  0
  153.3523  140.7156  161.9566 H   0  0  0  0  0  0  0  0  0  0  0  0
  154.6052  141.7683  161.2816 H   0  0  0  0  0  0  0  0  0  0  0  0
  149.5157  136.6616  153.6002 H   0  0  0  0  0  0  0  0  0  0  0  0
  149.6472  143.2222  156.7497 H   0  0  0  0  0  0  0  0  0  0  0  0
  1  2  1  0  0  0  0
  1 26  1  0  0  0  0
  1 27  1  0  0  0  0
  1 28  1  0  0  0  0
  2 24  1  0  0  0  0
  2  3  2  0  0  0  0
  3  4  1  0  0  0  0
  3 29  1  0  0  0  0
  4 22  2  0  0  0  0
  4  5  1  0  0  0  0
  5  6  2  0  0  0  0
  5 57  1  0  0  0  0
  6  7  1  0  0  0  0
  6 30  1  0  0  0  0
  7  8  1  0  0  0  0
  7 22  1  0  0  0  0
  8  9  1  0  0  0  0
  8 31  1  0  0  0  0
  8 32  1  0  0  0  0
  9 10  1  0  0  0  0
  9 11  1  0  0  0  0
  9 33  1  0  0  0  0
 10 34  1  0  0  0  0
 11 12  1  0  0  0  0
 11 35  1  0  0  0  0
 11 36  1  0  0  0  0
 12 21  1  0  0  0  0
 12 13  1  0  0  0  0
 12 56  1  0  0  0  0
 13 14  1  0  0  0  0
 13 37  1  0  0  0  0
 13 38  1  0  0  0  0
 14 15  1  0  0  0  0
 14 39  1  0  0  0  0
 14 40  1  0  0  0  0
 15 16  1  0  0  0  0
 15 20  1  0  0  0  0
 16 17  1  0  0  0  0
 16 41  1  0  0  0  0
 16 42  1  0  0  0  0
 17 18  1  0  0  0  0
 17 19  1  0  0  0  0
 17 43  1  0  0  0  0
 18 44  1  0  0  0  0
 18 45  1  0  0  0  0
 18 46  1  0  0  0  0
 19 47  1  0  0  0  0
 20 21  1  0  0  0  0
 20 48  1  0  0  0  0
 20 49  1  0  0  0  0
 21 50  1  0  0  0  0
 21 51  1  0  0  0  0
 22 23  1  0  0  0  0
 23 24  2  0  0  0  0
 23 52  1  0  0  0  0
 24 25  1  0  0  0  0
 25 53  1  0  0  0  0
 25 54  1  0  0  0  0
 25 55  1  0  0  0  0
M  CHG  1   5   1
M  CHG  1  12   1
M  END
> <s_m_source_file>
AV-unprocessed.smi

> <i_m_source_file_index>
1033

> <i_lp_mmshare_version>
43012

> <i_f3d_flags>
0

> <s_epik_input>
W0NIM11jKFtjSF0xKWMoW0NIM10pW2NIXWMoYzEyKW4oW2NIXW4yKVtDSDJdW0NASF0oW09IXSlbQ0gyXU4zW0NIMl1bQ0gyXU4oW0NIMl1bQ0gyXTMpW0NIMl1bQ0BIXShbQ0gzXSlbT0hd

> <s_epik_cmdline>
J2VwaWtfcHl0aG9uJywgJy1waCcsICc3LjAnLCAnLXRuJywgJzgnLCAnLW1hJywgJzIwMCcsICctbWV0YWxfYmluZGluZycsICctaW1hZScsICc8aW5maWxlLm1hZT4nLCAnLW9tYWUnLCAnPG91dGZpbGUubWFlPic=

> <r_epik_Ionization_Penalty>
1.22049

> <r_epik_Ionization_Penalty_Charging>
1.17952

> <r_epik_Ionization_Penalty_Neutral>
0.0409743

> <r_epik_State_Penalty>
1.61468

> <r_epik_Charging_Adjusted_Penalty>
2.7942

> <i_epik_Tot_Q>
2

> <i_epik_Tot_abs_Q>
2

> <r_epik_Metal_State_Penalty>
5.63169

> <b_epik_Metal_Only>
0

> <s_lp_Force_Field>
OPLS_2005

> <r_lp_Energy>
50.4079

> <b_lp_Chiralities_Consistent>
1

> <s_lp_Variant>
AV-unprocessed.smi:1033-10

> <Gold.Version>
5.8.1

> <Gold.Id.Protein>
6NUR|6NUR_protein|mol2

> <Gold.PLP.Fitness>
55.9772

> <Gold.PLP.PLP>
-43.0858

> <Gold.PLP.part.hbond>
-3.0000

> <Gold.PLP.part.metal>
0.0000

> <Gold.PLP.part.buried>
-6.1828

> <Gold.PLP.part.nonpolar>
-33.9353

> <Gold.PLP.part.repulsive>
0.1114

> <Gold.PLP.ligand.clash>
0.0000

> <Gold.PLP.ligand.torsion>
1.1280

> <Gold.PLP.Chemscore.Hbond>
4.9920

> <Gold.PLP.Chemscore.CHOScore>
0.0000

> <Gold.PLP.Chemscore.Metal>
0.0000

> <Gold.Chemscore.Hbonds>
donor molecule, donor type, donor heavy atom, donor atom, acceptor molecule, acceptor atom, score
      L1  H     5    57       P1  8028  2.00
      L1  H    12    56       P1  7948  2.00
      P1  H  6896  6908       L1    19  0.84

> <Gold.PLP.Chemscore.Internal.Correction>
0.1714

> <Gold.Rescore>
     Score         DG    S(hbond)    S(metal)    S(lipo)     H(rot)  DE(clash)    DE(int)     intcor
     18.81     -20.30       2.82        0.00     115.08       3.15       0.08       1.41       ----

> <Gold.Chemscore.Fitness>
18.8142

> <Gold.Chemscore.DG>
-20.3012

> <Gold.Chemscore.ZeroCoef>
-5.4800

> <Gold.Chemscore.Hbond>
2.8192

> <Gold.Chemscore.Metal>
0.0000

> <Gold.Chemscore.Lipo>
115.0843

> <Gold.Chemscore.Internal_Hbond>
0.0000

> <Gold.Chemscore.DEClash>
0.0779

> <Gold.Chemscore.DEInternal>
1.4092

> <Gold.Chemscore.Rot>
3.1483

> <Gold.Chemscore.Internal.Correction>
   9.000000E+99

> <Gold.Chemscore.Hbonds>
donor molecule, donor type, donor heavy atom, donor atom, acceptor molecule, acceptor atom, score
      L1  H     5    57       P1  8028  0.93
      L1  H    12    56       P1  7948  0.78
      P1  H  6896  6908       L1    19  0.45

> <Gold.Chemscore.Hbond.Weighted>
-9.4161

> <Gold.Chemscore.Metal.Weighted>
-0.0000

> <Gold.Chemscore.Lipo.Weighted>
-13.4649

> <Gold.Chemscore.Internal_Hbond.Weighted>
0.0000

> <Gold.Chemscore.DEClash.Weighted>
0.0779

> <Gold.Chemscore.DEInternal.Weighted>
1.4092

> <Gold.Chemscore.Rot.Weighted>
8.0597

> <Gold.Chemscore.Internal.Correction.Weighted>
   9.000000E+99

> <Gold.Protein.RotatedTorsions>
[ 6907 6896 6895 6894 ] final   82.91 input  -60.11 | X-H torsion
[ 7974 7965 7964 7962 ] final   78.22 input  175.53 | X-H torsion
[ 8008 7997 7996 7995 ] final  172.21 input   59.86 | X-H torsion
[ 10167 10162 10161 10158 ] final   14.97 input  -65.29 | X-H torsion
[ 10718 10713 10712 10709 ] final  -89.20 input   66.30 | X-H torsion
[ 10763 10752 10751 10750 ] final -138.75 input  -60.55 | X-H torsion
[ 11005 11000 10999 10996 ] final  165.36 input  -57.11 | X-H torsion

> <Gold.Protein.ActiveResidues>
 VAL166  LYS551  ARG553  GLY616  TRP617  ASP618  TYR619  PRO620  LYS621  CYS622 
 ASP623  PHE694  ASN695  SER759  ASP760  ASP761  ALA762  ILE779  LEU786  VAL792 
 PHE793  MET794  SER795  GLU796  ALA797  LYS798  CYS799  TRP800  GLU811  SER814 

> <Gold.Protein.RotatedAtoms>
  152.5312  134.2977  159.9066 H   0  0  0  0  0  0  0  0  0  0  0  0  # atno 6907 bound_to 6896
  151.2928  133.4151  159.2642 H   0  0  0  0  0  0  0  0  0  0  0  0  # atno 6908 bound_to 6896
  151.0186  134.9468  159.8104 H   0  0  0  0  0  0  0  0  0  0  0  0  # atno 6909 bound_to 6896
  145.6799  139.2521  143.1820 H   0  0  0  0  0  0  0  0  0  0  0  0  # atno 7974 bound_to 7965
  156.1196  140.1492  156.9223 H   0  0  0  0  0  0  0  0  0  0  0  0  # atno 8008 bound_to 7997
  154.4826  140.0875  156.7454 H   0  0  0  0  0  0  0  0  0  0  0  0  # atno 8009 bound_to 7997
  155.4452  140.3432  155.4296 H   0  0  0  0  0  0  0  0  0  0  0  0  # atno 8010 bound_to 7997
  140.5899  143.8816  150.6864 H   0  0  0  0  0  0  0  0  0  0  0  0  # atno 10167 bound_to 10162
  155.9984  130.4863  150.5135 H   0  0  0  0  0  0  0  0  0  0  0  0  # atno 10718 bound_to 10713
  154.8628  135.3603  154.5435 H   0  0  0  0  0  0  0  0  0  0  0  0  # atno 10763 bound_to 10752
  153.6056  135.7011  153.5372 H   0  0  0  0  0  0  0  0  0  0  0  0  # atno 10764 bound_to 10752
  153.3253  135.4139  155.1412 H   0  0  0  0  0  0  0  0  0  0  0  0  # atno 10765 bound_to 10752
  140.2554  134.7944  157.3540 H   0  0  0  0  0  0  0  0  0  0  0  0  # atno 11005 bound_to 11000
  146.0973  140.7586  142.9566 LP  0  0  0  0  0  0  0  0  0  0  0  0  # atno 17320 bound_to 7965
  144.7029  140.3731  143.7141 LP  0  0  0  0  0  0  0  0  0  0  0  0  # atno 17321 bound_to 7965
  140.2336  143.3717  152.1545 LP  0  0  0  0  0  0  0  0  0  0  0  0  # atno 17342 bound_to 10162
  139.5221  144.7054  151.5369 LP  0  0  0  0  0  0  0  0  0  0  0  0  # atno 17343 bound_to 10162
  157.3105  131.0663  151.2004 LP  0  0  0  0  0  0  0  0  0  0  0  0  # atno 17370 bound_to 10713
  157.2952  130.6816  149.6135 LP  0  0  0  0  0  0  0  0  0  0  0  0  # atno 17371 bound_to 10713
  140.1517  134.4841  155.7956 LP  0  0  0  0  0  0  0  0  0  0  0  0  # atno 17394 bound_to 11000
  141.2197  133.6865  156.7390 LP  0  0  0  0  0  0  0  0  0  0  0  0  # atno 17395 bound_to 11000

$$$$
