#       Name:                AV-unprocessed.smi:1238
#       Creating user name   scv26
#       Creation time:       Fri Mar 27 04:26:36 2020


#       File generated by GOLD software.
#

@<TRIPOS>MOLECULE
AV-unprocessed.smi:1238
    49    50     1
SMALL
NO_CHARGES


@<TRIPOS>ATOM
      1 ****        -3.1529   0.9267  -3.3860 C.3            1 S1                 0.0000
      2 ****        -2.4712  -0.3094  -3.2653 O.3            1 S1                 0.0000
      3 ****        -1.0627  -0.1509  -3.2443 C.3            1 S1                 0.0000
      4 ****        -0.4054  -1.5375  -3.1387 C.3            1 S1                 0.0000
      5 ****         1.0733  -1.4430  -3.1274 N.am           1 S1                 0.0000
      6 ****         1.7790  -1.3012  -1.8935 C.2            1 S1                 0.0000
      7 ****         0.7276  -1.1484  -0.3986 S.3            1 S1                 0.0000
      8 ****         1.9743  -0.9991   0.9127 C.3            1 S1                 0.0000
      9 ****         1.3458  -0.8478   2.2945 C.2            1 S1                 0.0000
     10 ****         1.4095  -1.7704   3.1068 O.2            1 S1                 0.0000
     11 ****         0.7406   0.3223   2.5503 N.am           1 S1                 0.0000
     12 ****         0.0696   0.6623   3.8016 C.3            1 S1                 0.0000
     13 ****        -1.3280   0.0153   3.8944 C.3            1 S1                 0.0000
     14 ****        -2.2866   1.1338   4.3059 C.3            1 S1                 0.0000
     15 ****        -1.6598   2.3979   3.7267 C.3            1 S1                 0.0000
     16 ****        -0.1560   2.1823   3.9006 C.3            1 S1                 0.0000
     17 ****         3.0754  -1.2684  -1.8718 N.2            1 S1                 0.0000
     18 ****         3.8452  -1.3511  -3.0313 C.2            1 S1                 0.0000
     19 ****         5.0739  -1.3203  -2.8021 O.co2          1 S1                -1.0000
     20 ****         3.1821  -1.4438  -4.2438 C.2            1 S1                 0.0000
     21 ****         1.7275  -1.4739  -4.3289 C.2            1 S1                 0.0000
     22 ****         1.1420  -1.5289  -5.4118 O.2            1 S1                 0.0000
     23 ****        -4.2286   0.7527  -3.3971 H              1 S1                 0.0000
     24 ****        -2.8851   1.4354  -4.3130 H              1 S1                 0.0000
     25 ****        -2.9266   1.5859  -2.5471 H              1 S1                 0.0000
     26 ****        -0.7328   0.3523  -4.1545 H              1 S1                 0.0000
     27 ****        -0.7735   0.4773  -2.4008 H              1 S1                 0.0000
     28 ****        -0.7994  -2.0911  -2.2878 H              1 S1                 0.0000
     29 ****        -0.7437  -2.1445  -3.9803 H              1 S1                 0.0000
     30 ****         2.6106  -0.1365   0.7110 H              1 S1                 0.0000
     31 ****         2.6152  -1.8816   0.8994 H              1 S1                 0.0000
     32 ****         0.7355   1.0223   1.8224 H              1 S1                 0.0000
     33 ****         0.6890   0.3434   4.6420 H              1 S1                 0.0000
     34 ****        -1.6365  -0.3752   2.9230 H              1 S1                 0.0000
     35 ****        -1.3485  -0.8186   4.5967 H              1 S1                 0.0000
     36 ****        -3.3037   0.9665   3.9503 H              1 S1                 0.0000
     37 ****        -2.3215   1.2074   5.3937 H              1 S1                 0.0000
     38 ****        -1.9008   2.4742   2.6656 H              1 S1                 0.0000
     39 ****        -2.0135   3.3056   4.2163 H              1 S1                 0.0000
     40 ****         0.1418   2.5245   4.8927 H              1 S1                 0.0000
     41 ****         0.4255   2.7559   3.1775 H              1 S1                 0.0000
     42 ****         3.7532  -1.5032  -5.1588 H              1 S1                 0.0000
     43 ****        -2.7174  -0.8889  -4.0422 LP             1 S1                 0.0000
     44 ****        -2.7571  -0.7520  -2.4154 LP             1 S1                 0.0000
     45 ****         1.8740  -2.6213   2.8615 LP             1 S1                 0.0000
     46 ****         0.9968  -1.6690   4.0120 LP             1 S1                 0.0000
     47 ****         3.5401  -1.1805  -0.9907 LP             1 S1                 0.0000
     48 ****         0.1427  -1.5530  -5.4393 LP             1 S1                 0.0000
     49 ****         1.6662  -1.5494  -6.2632 LP             1 S1                 0.0000
@<TRIPOS>BOND
    1    1    2 1     
    2    1   23 1     
    3    1   24 1     
    4    1   25 1     
    5    2    3 1     
    6    3    4 1     
    7    3   26 1     
    8    3   27 1     
    9    4   28 1     
   10    4   29 1     
   11    4    5 1     
   12    5    6 1     
   13    5   21 am    
   14    6   17 2     
   15    6    7 1     
   16    7    8 1     
   17    8    9 1     
   18    8   30 1     
   19    8   31 1     
   20    9   10 2     
   21    9   11 am    
   22   11   12 1     
   23   11   32 1     
   24   12   16 1     
   25   12   13 1     
   26   12   33 1     
   27   13   14 1     
   28   13   34 1     
   29   13   35 1     
   30   14   15 1     
   31   14   36 1     
   32   14   37 1     
   33   15   16 1     
   34   15   38 1     
   35   15   39 1     
   36   16   40 1     
   37   16   41 1     
   38   17   18 1     
   39   18   20 2     
   40   18   19 ar    
   41   20   21 1     
   42   20   42 1     
   43   21   22 2     
   44    2   43 1     
   45    2   44 1     
   46   10   45 1     
   47   10   46 1     
   48   17   47 1     
   49   22   48 1     
   50   22   49 1     
@<TRIPOS>SUBSTRUCTURE
      1 S1             1
@<TRIPOS>SET
LONE_PAIRS      STATIC     ATOMS    <user>   **** ""
8 43 44 45 46 47 19 48 49
DONOR_HYDROGENS      STATIC     ATOMS    <user>   **** ""
1 32
ATOM$BLUE        STATIC     ATOMS    COLORGROUP SYSTEM
8 43 44 45 46 47 19 48 49
ATOM$RED        STATIC     ATOMS    COLORGROUP SYSTEM
1 32
