#       Name:                AV-unprocessed.smi:2694
#       Creating user name   scv26
#       Creation time:       Fri Mar 27 14:44:04 2020


#       File generated by GOLD software.
#

@<TRIPOS>MOLECULE
AV-unprocessed.smi:2694
    49    51     1
SMALL
NO_CHARGES


@<TRIPOS>ATOM
      1 ****        -0.7197   0.4699  -2.3586 O.2            1 S1                 0.0000
      2 ****        -1.0067   1.1223  -1.3546 C.2            1 S1                 0.0000
      3 ****        -1.5691   2.4709  -1.4251 C.2            1 S1                 0.0000
      4 ****        -1.8683   3.1581  -0.2968 C.2            1 S1                 0.0000
      5 ****        -2.4318   4.5718  -0.3404 C.3            1 S1                 0.0000
      6 ****        -1.8013   5.5168  -1.3765 C.3            1 S1                 0.0000
      7 ****        -1.9146   6.6333  -0.3326 C.3            1 S1                 0.0000
      8 ****        -1.9197   5.5391   0.7405 C.3            1 S1                 0.0000
      9 ****        -1.6340   2.5945   0.9628 N.2            1 S1                 0.0000
     10 ****        -1.1366   1.4024   1.0525 C.2            1 S1                 0.0000
     11 ****        -0.8185   0.6440  -0.0902 N.am           1 S1                 0.0000
     12 ****        -0.2572  -0.6953   0.1489 C.3            1 S1                 0.0000
     13 ****         1.2836  -0.7139   0.0309 C.3            1 S1                 0.0000
     14 ****         1.8769  -0.2213   1.2158 O.3            1 S1                 0.0000
     15 ****         1.8507  -2.1205  -0.2275 C.3            1 S1                 0.0000
     16 ****         1.2211  -3.0593   0.6357 O.3            1 S1                 0.0000
     17 ****         1.5848  -4.3864   0.5464 C.ar           1 S1                 0.0000
     18 ****         2.5756  -4.8773  -0.3420 C.ar           1 S1                 0.0000
     19 ****         2.8929  -6.2492  -0.3708 C.ar           1 S1                 0.0000
     20 ****         2.2270  -7.1468   0.4834 C.ar           1 S1                 0.0000
     21 ****         1.2415  -6.6706   1.3669 C.ar           1 S1                 0.0000
     22 ****         0.9224  -5.2988   1.3981 C.ar           1 S1                 0.0000
     23 ****        -0.2931  -4.7402   2.4913 Cl             1 S1                 0.0000
     24 ****        -1.7446   2.9162  -2.3935 H              1 S1                 0.0000
     25 ****        -3.5217   4.5711  -0.4016 H              1 S1                 0.0000
     26 ****        -0.7640   5.2738  -1.6144 H              1 S1                 0.0000
     27 ****        -2.3971   5.6711  -2.2766 H              1 S1                 0.0000
     28 ****        -1.0611   7.3106  -0.2918 H              1 S1                 0.0000
     29 ****        -2.8606   7.1743  -0.3913 H              1 S1                 0.0000
     30 ****        -2.6120   5.7107   1.5652 H              1 S1                 0.0000
     31 ****        -0.9150   5.3053   1.0980 H              1 S1                 0.0000
     32 ****        -0.9312   0.9186   2.0090 H              1 S1                 0.0000
     33 ****        -0.5710  -1.1041   1.1119 H              1 S1                 0.0000
     34 ****        -0.6811  -1.3826  -0.5857 H              1 S1                 0.0000
     35 ****         1.6088  -0.0698  -0.7869 H              1 S1                 0.0000
     36 ****         1.6084   0.6766   1.3364 H              1 S1                 0.0000
     37 ****         1.6420  -2.3976  -1.2621 H              1 S1                 0.0000
     38 ****         2.9342  -2.1243  -0.0953 H              1 S1                 0.0000
     39 ****         3.1087  -4.2211  -1.0128 H              1 S1                 0.0000
     40 ****         3.6495  -6.6129  -1.0504 H              1 S1                 0.0000
     41 ****         2.4714  -8.1987   0.4608 H              1 S1                 0.0000
     42 ****         0.7296  -7.3599   2.0225 H              1 S1                 0.0000
     43 ****        -0.3328  -0.4475  -2.2651 LP             1 S1                 0.0000
     44 ****        -0.8734   0.8574  -3.2675 LP             1 S1                 0.0000
     45 ****        -1.8502   3.1111   1.7913 LP             1 S1                 0.0000
     46 ****         2.8728  -0.2677   1.1384 LP             1 S1                 0.0000
     47 ****         1.5773  -0.7703   1.9961 LP             1 S1                 0.0000
     48 ****         0.2384  -3.0105   0.4574 LP             1 S1                 0.0000
     49 ****         1.4046  -2.7660   1.5740 LP             1 S1                 0.0000
@<TRIPOS>BOND
    1    1    2 2     
    2    2   11 am    
    3    2    3 1     
    4    3    4 2     
    5    3   24 1     
    6    4    5 1     
    7    4    9 1     
    8    5    8 1     
    9    5    6 1     
   10    5   25 1     
   11    6    7 1     
   12    6   26 1     
   13    6   27 1     
   14    7    8 1     
   15    7   28 1     
   16    7   29 1     
   17    8   30 1     
   18    8   31 1     
   19    9   10 2     
   20   10   11 1     
   21   10   32 1     
   22   11   12 1     
   23   12   13 1     
   24   12   33 1     
   25   12   34 1     
   26   13   14 1     
   27   13   15 1     
   28   13   35 1     
   29   14   36 1     
   30   15   16 1     
   31   15   37 1     
   32   15   38 1     
   33   16   17 1     
   34   17   22 ar    
   35   17   18 ar    
   36   18   19 ar    
   37   18   39 1     
   38   19   20 ar    
   39   19   40 1     
   40   20   21 ar    
   41   20   41 1     
   42   21   22 ar    
   43   21   42 1     
   44   22   23 1     
   45    1   43 1     
   46    1   44 1     
   47    9   45 1     
   48   14   46 1     
   49   14   47 1     
   50   16   48 1     
   51   16   49 1     
@<TRIPOS>SUBSTRUCTURE
      1 S1             1
@<TRIPOS>SET
LONE_PAIRS      STATIC     ATOMS    <user>   **** ""
7 43 44 45 46 47 48 49
DONOR_HYDROGENS      STATIC     ATOMS    <user>   **** ""
1 36
ATOM$BLUE        STATIC     ATOMS    COLORGROUP SYSTEM
7 43 44 45 46 47 48 49
ATOM$RED        STATIC     ATOMS    COLORGROUP SYSTEM
1 36
