AV-unprocessed.smi:1555|AV-procd|sdf|6265|dock9
  -GOLD-   22720 6453D 1   1.00000     0.00000
 Structure written by MMmdl.
 42 43  0  0  0  0  0  0  0  0  2 V2000
  147.6935  136.9694  155.3629 C   0  0  0  0  0  0  0  0  0  0  0  0
  147.1607  137.9511  154.3095 C   0  0  1  0  0  0  0  0  0  0  0  0
  148.2784  138.8573  153.7599 C   0  0  0  0  0  0  0  0  0  0  0  0
  148.0310  140.2780  154.0265 N   0  0  0  0  0  0  0  0  0  0  0  0
  146.9354  141.0161  153.6576 C   0  0  0  0  0  0  0  0  0  0  0  0
  147.1448  142.2872  154.1270 C   0  0  0  0  0  0  0  0  0  0  0  0
  148.3583  142.2714  154.7610 N   0  3  0  0  0  0  0  0  0  0  0  0
  148.8964  141.0491  154.6973 C   0  0  0  0  0  0  0  0  0  0  0  0
  146.5397  137.2069  153.2160 N   0  0  0  0  0  0  0  0  0  0  0  0
  145.2836  136.7294  153.1988 C   0  0  0  0  0  0  0  0  0  0  0  0
  144.5147  136.8745  154.1500 O   0  0  0  0  0  0  0  0  0  0  0  0
  144.9396  136.0847  152.0552 N   0  0  0  0  0  0  0  0  0  0  0  0
  145.8040  135.8586  150.8845 C   0  0  0  0  0  0  0  0  0  0  0  0
  146.1973  134.3714  150.8424 C   0  0  0  0  0  0  0  0  0  0  0  0
  144.9501  133.4603  150.8033 C   0  0  0  0  0  0  0  0  0  0  0  0
  145.3479  131.9745  150.8664 C   0  0  0  0  0  0  0  0  0  0  0  0
  146.2818  131.6619  149.8543 O   0  0  0  0  0  0  0  0  0  0  0  0
  143.9561  133.8497  151.9230 C   0  0  0  0  0  0  0  0  0  0  0  0
  143.6689  135.3625  151.9193 C   0  0  0  0  0  0  0  0  0  0  0  0
  148.1486  137.5004  156.1993 H   0  0  0  0  0  0  0  0  0  0  0  0
  148.4476  136.3036  154.9413 H   0  0  0  0  0  0  0  0  0  0  0  0
  146.8907  136.3510  155.7657 H   0  0  0  0  0  0  0  0  0  0  0  0
  146.4186  138.5893  154.7924 H   0  0  0  0  0  0  0  0  0  0  0  0
  149.2375  138.5993  154.2115 H   0  0  0  0  0  0  0  0  0  0  0  0
  148.3906  138.7281  152.6822 H   0  0  0  0  0  0  0  0  0  0  0  0
  146.1086  140.5932  153.1054 H   0  0  0  0  0  0  0  0  0  0  0  0
  146.5372  143.1779  154.0593 H   0  0  0  0  0  0  0  0  0  0  0  0
  149.8416  140.7441  155.1104 H   0  0  0  0  0  0  0  0  0  0  0  0
  147.1118  137.0369  152.4017 H   0  0  0  0  0  0  0  0  0  0  0  0
  145.2558  136.1232  149.9792 H   0  0  0  0  0  0  0  0  0  0  0  0
  146.6997  136.4794  150.8659 H   0  0  0  0  0  0  0  0  0  0  0  0
  146.8248  134.1817  149.9710 H   0  0  0  0  0  0  0  0  0  0  0  0
  146.8034  134.1327  151.7177 H   0  0  0  0  0  0  0  0  0  0  0  0
  144.4562  133.6352  149.8458 H   0  0  0  0  0  0  0  0  0  0  0  0
  145.8026  131.7436  151.8301 H   0  0  0  0  0  0  0  0  0  0  0  0
  144.4728  131.3324  150.7615 H   0  0  0  0  0  0  0  0  0  0  0  0
  147.0207  131.2264  150.2514 H   0  0  0  0  0  0  0  0  0  0  0  0
  143.0213  133.3010  151.8053 H   0  0  0  0  0  0  0  0  0  0  0  0
  144.3613  133.5620  152.8942 H   0  0  0  0  0  0  0  0  0  0  0  0
  142.9570  135.6055  152.7091 H   0  0  0  0  0  0  0  0  0  0  0  0
  143.1838  135.6507  150.9857 H   0  0  0  0  0  0  0  0  0  0  0  0
  148.7881  143.0680  155.2143 H   0  0  0  0  0  0  0  0  0  0  0  0
  1  2  1  0  0  0  0
  1 20  1  0  0  0  0
  1 21  1  0  0  0  0
  1 22  1  0  0  0  0
  2  3  1  0  0  0  0
  2  9  1  0  0  0  0
  2 23  1  0  0  0  0
  3  4  1  0  0  0  0
  3 24  1  0  0  0  0
  3 25  1  0  0  0  0
  4  8  1  0  0  0  0
  4  5  1  0  0  0  0
  5  6  2  0  0  0  0
  5 26  1  0  0  0  0
  6  7  1  0  0  0  0
  6 27  1  0  0  0  0
  7  8  2  0  0  0  0
  7 42  1  0  0  0  0
  8 28  1  0  0  0  0
  9 10  1  0  0  0  0
  9 29  1  0  0  0  0
 10 11  2  0  0  0  0
 10 12  1  0  0  0  0
 12 19  1  0  0  0  0
 12 13  1  0  0  0  0
 13 14  1  0  0  0  0
 13 30  1  0  0  0  0
 13 31  1  0  0  0  0
 14 15  1  0  0  0  0
 14 32  1  0  0  0  0
 14 33  1  0  0  0  0
 15 16  1  0  0  0  0
 15 18  1  0  0  0  0
 15 34  1  0  0  0  0
 16 17  1  0  0  0  0
 16 35  1  0  0  0  0
 16 36  1  0  0  0  0
 17 37  1  0  0  0  0
 18 19  1  0  0  0  0
 18 38  1  0  0  0  0
 18 39  1  0  0  0  0
 19 40  1  0  0  0  0
 19 41  1  0  0  0  0
M  CHG  1   7   1
M  END
> <s_m_source_file>
AV-unprocessed.smi

> <i_m_source_file_index>
1555

> <i_lp_mmshare_version>
43012

> <i_f3d_flags>
0

> <s_epik_input>
W2NIXTFuW2NIXVtjSF1uMVtDSDJdW0NAQEhdKFtDSDNdKVtOSF1DKD1PKU4yW0NIMl1bQ0gyXVtDSF0oW0NIMl1bT0hdKVtDSDJdW0NIMl0y

> <s_epik_cmdline>
J2VwaWtfcHl0aG9uJywgJy1waCcsICc3LjAnLCAnLXRuJywgJzgnLCAnLW1hJywgJzIwMCcsICctbWV0YWxfYmluZGluZycsICctaW1hZScsICc8aW5maWxlLm1hZT4nLCAnLW9tYWUnLCAnPG91dGZpbGUubWFlPic=

> <r_lp_tautomer_probability>
1

> <r_epik_Ionization_Penalty>
0.253261

> <r_epik_Ionization_Penalty_Charging>
0

> <r_epik_Ionization_Penalty_Neutral>
0.253261

> <r_epik_State_Penalty>
0.244619

> <r_epik_Charging_Adjusted_Penalty>
0.244619

> <i_epik_Tot_Q>
1

> <i_epik_Tot_abs_Q>
1

> <r_epik_Metal_State_Penalty>
0.535039

> <b_epik_Metal_Only>
0

> <s_lp_Force_Field>
OPLS_2005

> <r_lp_Energy>
35.1674

> <b_lp_Chiralities_Consistent>
1

> <s_lp_Variant>
AV-unprocessed.smi:1555-2

> <Gold.Version>
5.8.1

> <Gold.Id.Protein>
6NUR|6NUR_protein|mol2

> <Gold.PLP.Fitness>
44.5603

> <Gold.PLP.PLP>
-32.5961

> <Gold.PLP.part.hbond>
-3.0000

> <Gold.PLP.part.metal>
0.0000

> <Gold.PLP.part.buried>
-5.0009

> <Gold.PLP.part.nonpolar>
-24.6947

> <Gold.PLP.part.repulsive>
0.2759

> <Gold.PLP.ligand.clash>
0.0000

> <Gold.PLP.ligand.torsion>
1.1254

> <Gold.PLP.Chemscore.Hbond>
3.7280

> <Gold.PLP.Chemscore.CHOScore>
1.0000

> <Gold.PLP.Chemscore.Metal>
0.0000

> <Gold.Chemscore.Hbonds>
donor molecule, donor type, donor heavy atom, donor atom, acceptor molecule, acceptor atom, score
      L1  H     7    42       P1  8028  2.00
      L1  H     9    29       P1  7948  0.76
      L1  H    17    37       P1 10747  0.98
      L1  C     5    26       P1 10175  1.00

> <Gold.PLP.Chemscore.Internal.Correction>
0.0309

> <Gold.Rescore>
     Score         DG    S(hbond)    S(metal)    S(lipo)     H(rot)  DE(clash)    DE(int)     intcor
     14.12     -15.36       2.82        0.00      60.17       2.56       0.12       1.12       ----

> <Gold.Chemscore.Fitness>
14.1224

> <Gold.Chemscore.DG>
-15.3616

> <Gold.Chemscore.ZeroCoef>
-5.4800

> <Gold.Chemscore.Hbond>
2.8154

> <Gold.Chemscore.Metal>
0.0000

> <Gold.Chemscore.Lipo>
60.1660

> <Gold.Chemscore.Internal_Hbond>
0.0000

> <Gold.Chemscore.DEClash>
0.1190

> <Gold.Chemscore.DEInternal>
1.1202

> <Gold.Chemscore.Rot>
2.5630

> <Gold.Chemscore.Internal.Correction>
   9.000000E+99

> <Gold.Chemscore.Hbonds>
donor molecule, donor type, donor heavy atom, donor atom, acceptor molecule, acceptor atom, score
      L1  H     7    42       P1  8028  0.97
      L1  H     9    29       P1  7948  0.72
      L1  H    17    37       P1 10747  0.91

> <Gold.Chemscore.Hbond.Weighted>
-9.4033

> <Gold.Chemscore.Metal.Weighted>
-0.0000

> <Gold.Chemscore.Lipo.Weighted>
-7.0394

> <Gold.Chemscore.Internal_Hbond.Weighted>
0.0000

> <Gold.Chemscore.DEClash.Weighted>
0.1190

> <Gold.Chemscore.DEInternal.Weighted>
1.1202

> <Gold.Chemscore.Rot.Weighted>
6.5612

> <Gold.Chemscore.Internal.Correction.Weighted>
   9.000000E+99

> <Gold.Protein.RotatedTorsions>
[ 6907 6896 6895 6894 ] final  -88.69 input  -60.11 | X-H torsion
[ 7974 7965 7964 7962 ] final   70.19 input  175.53 | X-H torsion
[ 8008 7997 7996 7995 ] final  -97.81 input   59.86 | X-H torsion
[ 10167 10162 10161 10158 ] final  170.47 input  -65.29 | X-H torsion
[ 10718 10713 10712 10709 ] final   90.28 input   66.30 | X-H torsion
[ 10763 10752 10751 10750 ] final  142.14 input  -60.55 | X-H torsion
[ 11005 11000 10999 10996 ] final  168.29 input  -57.11 | X-H torsion

> <Gold.Protein.ActiveResidues>
 VAL166  LYS551  ARG553  GLY616  TRP617  ASP618  TYR619  PRO620  LYS621  CYS622 
 ASP623  PHE694  ASN695  SER759  ASP760  ASP761  ALA762  ILE779  LEU786  VAL792 
 PHE793  MET794  SER795  GLU796  ALA797  LYS798  CYS799  TRP800  GLU811  SER814 

> <Gold.Protein.RotatedAtoms>
  150.6870  134.2702  159.4584 H   0  0  0  0  0  0  0  0  0  0  0  0  # atno 6907 bound_to 6896
  152.0625  134.9582  160.0584 H   0  0  0  0  0  0  0  0  0  0  0  0  # atno 6908 bound_to 6896
  152.1004  133.4212  159.4621 H   0  0  0  0  0  0  0  0  0  0  0  0  # atno 6909 bound_to 6896
  145.7812  139.2888  143.1265 H   0  0  0  0  0  0  0  0  0  0  0  0  # atno 7974 bound_to 7965
  154.7928  140.0460  157.1213 H   0  0  0  0  0  0  0  0  0  0  0  0  # atno 8008 bound_to 7997
  154.9571  140.3072  155.5028 H   0  0  0  0  0  0  0  0  0  0  0  0  # atno 8009 bound_to 7997
  156.2952  140.2277  156.4653 H   0  0  0  0  0  0  0  0  0  0  0  0  # atno 8010 bound_to 7997
  139.5019  144.3593  151.9842 H   0  0  0  0  0  0  0  0  0  0  0  0  # atno 10167 bound_to 10162
  157.6958  131.0365  150.3553 H   0  0  0  0  0  0  0  0  0  0  0  0  # atno 10718 bound_to 10713
  153.9509  135.2970  155.3438 H   0  0  0  0  0  0  0  0  0  0  0  0  # atno 10763 bound_to 10752
  154.7427  135.5017  153.9153 H   0  0  0  0  0  0  0  0  0  0  0  0  # atno 10764 bound_to 10752
  153.0994  135.6730  153.9809 H   0  0  0  0  0  0  0  0  0  0  0  0  # atno 10765 bound_to 10752
  140.2857  134.7714  157.3796 H   0  0  0  0  0  0  0  0  0  0  0  0  # atno 11005 bound_to 11000
  146.0072  140.8467  142.9989 LP  0  0  0  0  0  0  0  0  0  0  0  0  # atno 17320 bound_to 7965
  144.6796  140.2438  143.7340 LP  0  0  0  0  0  0  0  0  0  0  0  0  # atno 17321 bound_to 7965
  140.3029  144.3626  150.6055 LP  0  0  0  0  0  0  0  0  0  0  0  0  # atno 17342 bound_to 10162
  140.5859  143.2170  151.7343 LP  0  0  0  0  0  0  0  0  0  0  0  0  # atno 17343 bound_to 10162
  156.3997  130.3913  149.6969 LP  0  0  0  0  0  0  0  0  0  0  0  0  # atno 17370 bound_to 10713
  156.4291  130.7806  151.2825 LP  0  0  0  0  0  0  0  0  0  0  0  0  # atno 17371 bound_to 10713
  140.1242  134.5180  155.8158 LP  0  0  0  0  0  0  0  0  0  0  0  0  # atno 17394 bound_to 11000
  141.2155  133.6767  156.6921 LP  0  0  0  0  0  0  0  0  0  0  0  0  # atno 17395 bound_to 11000

$$$$
