AV-unprocessed.smi:1703|AV-procd|sdf|6853|dock2
  -GOLD-   22720 8 33D 1   1.00000     0.00000
 Structure written by MMmdl.
 48 50  0  0  0  0  0  0  0  0  1 V2000
  150.2287  136.1807  155.5106 C   0  0  0  0  0  0  0  0  0  0  0  0
  148.8238  136.5903  155.9847 C   0  0  2  0  0  0  0  0  0  0  0  0
  148.5547  138.1035  155.8582 C   0  0  0  0  0  0  0  0  0  0  0  0
  149.2536  138.8893  156.8741 N   0  0  0  0  0  0  0  0  0  0  0  0
  148.9720  140.3225  156.7756 C   0  0  0  0  0  0  0  0  0  0  0  0
  149.9251  141.1299  155.8711 C   0  0  2  0  0  0  0  0  0  0  0  0
  149.6187  140.8452  154.5198 O   0  0  0  0  0  0  0  0  0  0  0  0
  151.3986  140.7695  156.1445 C   0  0  0  0  0  0  0  0  0  0  0  0
  151.8080  141.0524  157.5151 N   0  0  0  0  0  0  0  0  0  0  0  0
  152.2353  140.1804  158.4651 C   0  0  0  0  0  0  0  0  0  0  0  0
  152.3310  138.7019  158.2108 C   0  0  0  0  0  0  0  0  0  0  0  0
  153.2327  138.3640  157.1764 O   0  0  0  0  0  0  0  0  0  0  0  0
  152.5408  140.7209  159.6469 N   0  0  0  0  0  0  0  0  0  0  0  0
  152.2968  142.0642  159.4437 C   0  0  0  0  0  0  0  0  0  0  0  0
  152.4335  143.1645  160.3202 C   0  0  0  0  0  0  0  0  0  0  0  0
  152.1159  144.4675  159.8848 C   0  0  0  0  0  0  0  0  0  0  0  0
  151.6568  144.6882  158.5701 C   0  0  0  0  0  0  0  0  0  0  0  0
  151.5143  143.6057  157.6806 C   0  0  0  0  0  0  0  0  0  0  0  0
  151.8350  142.3065  158.1194 C   0  0  0  0  0  0  0  0  0  0  0  0
  148.8967  138.3799  158.1920 C   0  0  0  0  0  0  0  0  0  0  0  0
  149.2293  136.8848  158.3423 C   0  0  1  0  0  0  0  0  0  0  0  0
  148.7807  136.3283  159.6978 C   0  0  0  0  0  0  0  0  0  0  0  0
  148.5637  136.1485  157.3179 O   0  0  0  0  0  0  0  0  0  0  0  0
  150.3669  136.4229  154.4566 H   0  0  0  0  0  0  0  0  0  0  0  0
  150.3803  135.1074  155.6255 H   0  0  0  0  0  0  0  0  0  0  0  0
  151.0148  136.6913  156.0665 H   0  0  0  0  0  0  0  0  0  0  0  0
  148.1099  136.0694  155.3460 H   0  0  0  0  0  0  0  0  0  0  0  0
  148.8396  138.4238  154.8574 H   0  0  0  0  0  0  0  0  0  0  0  0
  147.4810  138.2775  155.9430 H   0  0  0  0  0  0  0  0  0  0  0  0
  147.9473  140.4579  156.4262 H   0  0  0  0  0  0  0  0  0  0  0  0
  149.0021  140.7644  157.7729 H   0  0  0  0  0  0  0  0  0  0  0  0
  149.7963  142.1985  156.0312 H   0  0  0  0  0  0  0  0  0  0  0  0
  148.9486  141.4452  154.2302 H   0  0  0  0  0  0  0  0  0  0  0  0
  151.5834  139.7167  155.9314 H   0  0  0  0  0  0  0  0  0  0  0  0
  152.0486  141.3230  155.4660 H   0  0  0  0  0  0  0  0  0  0  0  0
  152.6493  138.2079  159.1289 H   0  0  0  0  0  0  0  0  0  0  0  0
  151.3566  138.2958  157.9436 H   0  0  0  0  0  0  0  0  0  0  0  0
  152.7521  137.9297  156.4886 H   0  0  0  0  0  0  0  0  0  0  0  0
  152.7826  143.0050  161.3296 H   0  0  0  0  0  0  0  0  0  0  0  0
  152.2238  145.3015  160.5627 H   0  0  0  0  0  0  0  0  0  0  0  0
  151.4137  145.6892  158.2451 H   0  0  0  0  0  0  0  0  0  0  0  0
  151.1608  143.7742  156.6746 H   0  0  0  0  0  0  0  0  0  0  0  0
  149.4292  138.9418  158.9604 H   0  0  0  0  0  0  0  0  0  0  0  0
  147.8321  138.5379  158.3727 H   0  0  0  0  0  0  0  0  0  0  0  0
  150.3064  136.7399  158.2515 H   0  0  0  0  0  0  0  0  0  0  0  0
  149.2728  136.8502  160.5189 H   0  0  0  0  0  0  0  0  0  0  0  0
  149.0253  135.2694  159.7837 H   0  0  0  0  0  0  0  0  0  0  0  0
  147.7035  136.4335  159.8310 H   0  0  0  0  0  0  0  0  0  0  0  0
  1  2  1  0  0  0  0
  1 24  1  0  0  0  0
  1 25  1  0  0  0  0
  1 26  1  0  0  0  0
  2 23  1  0  0  0  0
  2  3  1  0  0  0  0
  2 27  1  0  0  0  0
  3  4  1  0  0  0  0
  3 28  1  0  0  0  0
  3 29  1  0  0  0  0
  4  5  1  0  0  0  0
  4 20  1  0  0  0  0
  5  6  1  0  0  0  0
  5 30  1  0  0  0  0
  5 31  1  0  0  0  0
  6  7  1  0  0  0  0
  6  8  1  0  0  0  0
  6 32  1  0  0  0  0
  7 33  1  0  0  0  0
  8  9  1  0  0  0  0
  8 34  1  0  0  0  0
  8 35  1  0  0  0  0
  9 19  1  0  0  0  0
  9 10  1  0  0  0  0
 10 11  1  0  0  0  0
 10 13  2  0  0  0  0
 11 12  1  0  0  0  0
 11 36  1  0  0  0  0
 11 37  1  0  0  0  0
 12 38  1  0  0  0  0
 13 14  1  0  0  0  0
 14 19  2  0  0  0  0
 14 15  1  0  0  0  0
 15 16  2  0  0  0  0
 15 39  1  0  0  0  0
 16 17  1  0  0  0  0
 16 40  1  0  0  0  0
 17 18  2  0  0  0  0
 17 41  1  0  0  0  0
 18 19  1  0  0  0  0
 18 42  1  0  0  0  0
 20 21  1  0  0  0  0
 20 43  1  0  0  0  0
 20 44  1  0  0  0  0
 21 22  1  0  0  0  0
 21 23  1  0  0  0  0
 21 45  1  0  0  0  0
 22 46  1  0  0  0  0
 22 47  1  0  0  0  0
 22 48  1  0  0  0  0
M  END
> <s_m_source_file>
AV-unprocessed.smi

> <i_m_source_file_index>
1703

> <i_lp_mmshare_version>
43012

> <i_f3d_flags>
0

> <s_epik_input>
W0NIM11bQ0BASF0xW0NIMl1OKFtDSDJdW0NASF0oTzEpW0NIM10pW0NIMl1bQ0BIXShbT0hdKVtDSDJdbihjKG4yKVtDSDJdW09IXSljKGMyMylbY0hdW2NIXVtjSF1bY0hdMw==

> <s_epik_cmdline>
J2VwaWtfcHl0aG9uJywgJy1waCcsICc3LjAnLCAnLXRuJywgJzgnLCAnLW1hJywgJzIwMCcsICctbWV0YWxfYmluZGluZycsICctaW1hZScsICc8aW5maWxlLm1hZT4nLCAnLW9tYWUnLCAnPG91dGZpbGUubWFlPic=

> <r_epik_Ionization_Penalty>
0.307685

> <r_epik_Ionization_Penalty_Charging>
0

> <r_epik_Ionization_Penalty_Neutral>
0.307685

> <r_epik_State_Penalty>
0.277856

> <r_epik_Charging_Adjusted_Penalty>
0.277856

> <i_epik_Tot_Q>
0

> <i_epik_Tot_abs_Q>
0

> <r_epik_Metal_State_Penalty>
0.238959

> <b_epik_Metal_Only>
0

> <s_lp_Force_Field>
OPLS_2005

> <r_lp_Energy>
33.4043

> <b_lp_Chiralities_Consistent>
1

> <s_lp_Variant>
AV-unprocessed.smi:1703-1

> <Gold.Version>
5.8.1

> <Gold.Id.Protein>
6NUR|6NUR_protein|mol2

> <Gold.PLP.Fitness>
44.4962

> <Gold.PLP.PLP>
-40.1641

> <Gold.PLP.part.hbond>
-2.0000

> <Gold.PLP.part.metal>
0.0000

> <Gold.PLP.part.buried>
-6.9875

> <Gold.PLP.part.nonpolar>
-31.2046

> <Gold.PLP.part.repulsive>
0.0000

> <Gold.PLP.ligand.clash>
0.0000

> <Gold.PLP.ligand.torsion>
0.5056

> <Gold.PLP.Chemscore.Hbond>
1.7200

> <Gold.PLP.Chemscore.CHOScore>
0.0000

> <Gold.PLP.Chemscore.Metal>
0.0000

> <Gold.Chemscore.Hbonds>
donor molecule, donor type, donor heavy atom, donor atom, acceptor molecule, acceptor atom, score
      P1  H  7989  7998       L1     7  0.30
      P1  H  7997  8008       L1    12  0.81

> <Gold.PLP.Chemscore.Internal.Correction>
0.1834

> <Gold.Rescore>
     Score         DG    S(hbond)    S(metal)    S(lipo)     H(rot)  DE(clash)    DE(int)     intcor
     14.08     -14.80       1.25        0.00     106.81       2.88       0.19       0.53       ----

> <Gold.Chemscore.Fitness>
14.0788

> <Gold.Chemscore.DG>
-14.8006

> <Gold.Chemscore.ZeroCoef>
-5.4800

> <Gold.Chemscore.Hbond>
1.2548

> <Gold.Chemscore.Metal>
0.0000

> <Gold.Chemscore.Lipo>
106.8085

> <Gold.Chemscore.Internal_Hbond>
0.0000

> <Gold.Chemscore.DEClash>
0.1935

> <Gold.Chemscore.DEInternal>
0.5282

> <Gold.Chemscore.Rot>
2.8778

> <Gold.Chemscore.Internal.Correction>
   9.000000E+99

> <Gold.Chemscore.Hbonds>
donor molecule, donor type, donor heavy atom, donor atom, acceptor molecule, acceptor atom, score
      P1  H  7989  7998       L1     7  0.13
      P1  H  7997  8008       L1    12  0.53

> <Gold.Chemscore.Hbond.Weighted>
-4.1910

> <Gold.Chemscore.Metal.Weighted>
-0.0000

> <Gold.Chemscore.Lipo.Weighted>
-12.4966

> <Gold.Chemscore.Internal_Hbond.Weighted>
0.0000

> <Gold.Chemscore.DEClash.Weighted>
0.1935

> <Gold.Chemscore.DEInternal.Weighted>
0.5282

> <Gold.Chemscore.Rot.Weighted>
7.3671

> <Gold.Chemscore.Internal.Correction.Weighted>
   9.000000E+99

> <Gold.Protein.RotatedTorsions>
[ 6907 6896 6895 6894 ] final   73.19 input  -60.11 | X-H torsion
[ 7974 7965 7964 7962 ] final   58.05 input  175.53 | X-H torsion
[ 8008 7997 7996 7995 ] final  -66.87 input   59.86 | X-H torsion
[ 10167 10162 10161 10158 ] final  -67.86 input  -65.29 | X-H torsion
[ 10718 10713 10712 10709 ] final   98.32 input   66.30 | X-H torsion
[ 10763 10752 10751 10750 ] final -105.48 input  -60.55 | X-H torsion
[ 11005 11000 10999 10996 ] final   -3.66 input  -57.11 | X-H torsion

> <Gold.Protein.ActiveResidues>
 VAL166  LYS551  ARG553  GLY616  TRP617  ASP618  TYR619  PRO620  LYS621  CYS622 
 ASP623  PHE694  ASN695  SER759  ASP760  ASP761  ALA762  ILE779  LEU786  VAL792 
 PHE793  MET794  SER795  GLU796  ALA797  LYS798  CYS799  TRP800  GLU811  SER814 

> <Gold.Protein.RotatedAtoms>
  152.4910  134.4458  159.9558 H   0  0  0  0  0  0  0  0  0  0  0  0  # atno 6907 bound_to 6896
  151.4445  133.3628  159.2794 H   0  0  0  0  0  0  0  0  0  0  0  0  # atno 6908 bound_to 6896
  150.9064  134.8503  159.7455 H   0  0  0  0  0  0  0  0  0  0  0  0  # atno 6909 bound_to 6896
  145.9224  139.3740  143.0470 H   0  0  0  0  0  0  0  0  0  0  0  0  # atno 7974 bound_to 7965
  154.4762  140.0904  156.7268 H   0  0  0  0  0  0  0  0  0  0  0  0  # atno 8008 bound_to 7997
  155.4590  140.3460  155.4292 H   0  0  0  0  0  0  0  0  0  0  0  0  # atno 8009 bound_to 7997
  156.1120  140.1450  156.9313 H   0  0  0  0  0  0  0  0  0  0  0  0  # atno 8010 bound_to 7997
  140.5551  143.2312  151.6837 H   0  0  0  0  0  0  0  0  0  0  0  0  # atno 10167 bound_to 10162
  157.6897  131.0636  150.4777 H   0  0  0  0  0  0  0  0  0  0  0  0  # atno 10718 bound_to 10713
  154.7949  135.4747  154.0139 H   0  0  0  0  0  0  0  0  0  0  0  0  # atno 10763 bound_to 10752
  153.1689  135.6821  153.8643 H   0  0  0  0  0  0  0  0  0  0  0  0  # atno 10764 bound_to 10752
  153.8232  135.3201  155.3390 H   0  0  0  0  0  0  0  0  0  0  0  0  # atno 10765 bound_to 10752
  140.6718  133.9230  155.8499 H   0  0  0  0  0  0  0  0  0  0  0  0  # atno 11005 bound_to 11000
  145.8533  140.9517  143.0738 LP  0  0  0  0  0  0  0  0  0  0  0  0  # atno 17320 bound_to 7965
  144.6754  140.0435  143.7480 LP  0  0  0  0  0  0  0  0  0  0  0  0  # atno 17321 bound_to 7965
  139.5044  144.3755  152.0428 LP  0  0  0  0  0  0  0  0  0  0  0  0  # atno 17342 bound_to 10162
  140.2876  144.3790  150.6099 LP  0  0  0  0  0  0  0  0  0  0  0  0  # atno 17343 bound_to 10162
  156.5111  130.4139  149.6300 LP  0  0  0  0  0  0  0  0  0  0  0  0  # atno 17370 bound_to 10713
  156.3239  130.7295  151.2213 LP  0  0  0  0  0  0  0  0  0  0  0  0  # atno 17371 bound_to 10713
  141.0386  134.0653  157.3929 LP  0  0  0  0  0  0  0  0  0  0  0  0  # atno 17394 bound_to 11000
  139.8979  135.0152  156.7124 LP  0  0  0  0  0  0  0  0  0  0  0  0  # atno 17395 bound_to 11000

$$$$
