AV-unprocessed.smi:1073|AV-procd|sdf|4690|dock10
  -GOLD-   22720 3213D 1   1.00000     0.00000
 Structure written by MMmdl.
 44 44  0  0  0  0  0  0  0  0  1 V2000
  147.2591  138.7848  153.0969 C   0  0  0  0  0  0  0  0  0  0  0  0
  148.0224  137.7771  153.8167 N   0  0  0  0  0  0  0  0  0  0  0  0
  148.1544  137.7393  155.1503 C   0  0  0  0  0  0  0  0  0  0  0  0
  147.6420  138.5715  155.9007 O   0  0  0  0  0  0  0  0  0  0  0  0
  149.0115  136.5941  155.7167 C   0  0  1  0  0  0  0  0  0  0  0  0
  150.4134  136.6830  155.0674 C   0  0  0  0  0  0  0  0  0  0  0  0
  151.3335  137.7933  155.6260 C   0  0  0  0  0  0  0  0  0  0  0  0
  152.3232  138.2635  154.5492 C   0  0  0  0  0  0  0  0  0  0  0  0
  152.0882  137.3544  156.8919 C   0  0  0  0  0  0  0  0  0  0  0  0
  149.1526  136.7381  157.1659 N   0  0  0  0  0  0  0  0  0  0  0  0
  148.4366  136.0714  158.0845 C   0  0  0  0  0  0  0  0  0  0  0  0
  147.5542  135.2627  157.7930 O   0  0  0  0  0  0  0  0  0  0  0  0
  148.7697  136.3852  159.5501 C   0  0  0  0  0  0  0  0  0  0  0  0
  148.0631  135.5202  160.5101 N   0  0  0  0  0  0  0  0  0  0  0  0
  148.1347  134.1300  160.2936 C   0  0  0  0  0  0  0  0  0  0  0  0
  147.5268  133.2316  161.0922 C   0  0  0  0  0  0  0  0  0  0  0  0
  147.6689  131.7339  160.8697 C   0  0  0  0  0  0  0  0  0  0  0  0
  148.5522  131.2060  161.7174 F   0  0  0  0  0  0  0  0  0  0  0  0
  146.4958  131.1341  161.0678 F   0  0  0  0  0  0  0  0  0  0  0  0
  148.0689  131.4643  159.6265 F   0  0  0  0  0  0  0  0  0  0  0  0
  146.8061  133.7650  162.2313 C   0  0  0  0  0  0  0  0  0  0  0  0
  146.7377  135.0911  162.4597 C   0  0  0  0  0  0  0  0  0  0  0  0
  147.3866  136.0567  161.5698 C   0  0  0  0  0  0  0  0  0  0  0  0
  147.3276  137.2709  161.7653 O   0  0  0  0  0  0  0  0  0  0  0  0
  147.2813  138.5744  152.0278 H   0  0  0  0  0  0  0  0  0  0  0  0
  147.6800  139.7780  153.2578 H   0  0  0  0  0  0  0  0  0  0  0  0
  146.2179  138.7900  153.4217 H   0  0  0  0  0  0  0  0  0  0  0  0
  148.4732  137.0586  153.2687 H   0  0  0  0  0  0  0  0  0  0  0  0
  148.5428  135.6381  155.4778 H   0  0  0  0  0  0  0  0  0  0  0  0
  150.9231  135.7237  155.1752 H   0  0  0  0  0  0  0  0  0  0  0  0
  150.2990  136.8364  153.9924 H   0  0  0  0  0  0  0  0  0  0  0  0
  150.7203  138.6559  155.8882 H   0  0  0  0  0  0  0  0  0  0  0  0
  152.9814  137.4532  154.2341 H   0  0  0  0  0  0  0  0  0  0  0  0
  152.9498  139.0766  154.9173 H   0  0  0  0  0  0  0  0  0  0  0  0
  151.7995  138.6293  153.6654 H   0  0  0  0  0  0  0  0  0  0  0  0
  152.6855  136.4607  156.7084 H   0  0  0  0  0  0  0  0  0  0  0  0
  151.4051  137.1394  157.7134 H   0  0  0  0  0  0  0  0  0  0  0  0
  152.7624  138.1390  157.2363 H   0  0  0  0  0  0  0  0  0  0  0  0
  149.8472  137.3950  157.4905 H   0  0  0  0  0  0  0  0  0  0  0  0
  149.8482  136.3048  159.6980 H   0  0  0  0  0  0  0  0  0  0  0  0
  148.5351  137.4343  159.7346 H   0  0  0  0  0  0  0  0  0  0  0  0
  148.7260  133.8388  159.4376 H   0  0  0  0  0  0  0  0  0  0  0  0
  146.3102  133.0895  162.9127 H   0  0  0  0  0  0  0  0  0  0  0  0
  146.1916  135.4524  163.3188 H   0  0  0  0  0  0  0  0  0  0  0  0
  1  2  1  0  0  0  0
  1 25  1  0  0  0  0
  1 26  1  0  0  0  0
  1 27  1  0  0  0  0
  2  3  1  0  0  0  0
  2 28  1  0  0  0  0
  3  4  2  0  0  0  0
  3  5  1  0  0  0  0
  5  6  1  0  0  0  0
  5 10  1  0  0  0  0
  5 29  1  0  0  0  0
  6  7  1  0  0  0  0
  6 30  1  0  0  0  0
  6 31  1  0  0  0  0
  7  8  1  0  0  0  0
  7  9  1  0  0  0  0
  7 32  1  0  0  0  0
  8 33  1  0  0  0  0
  8 34  1  0  0  0  0
  8 35  1  0  0  0  0
  9 36  1  0  0  0  0
  9 37  1  0  0  0  0
  9 38  1  0  0  0  0
 10 11  1  0  0  0  0
 10 39  1  0  0  0  0
 11 12  2  0  0  0  0
 11 13  1  0  0  0  0
 13 14  1  0  0  0  0
 13 40  1  0  0  0  0
 13 41  1  0  0  0  0
 14 23  1  0  0  0  0
 14 15  1  0  0  0  0
 15 16  2  0  0  0  0
 15 42  1  0  0  0  0
 16 17  1  0  0  0  0
 16 21  1  0  0  0  0
 17 18  1  0  0  0  0
 17 19  1  0  0  0  0
 17 20  1  0  0  0  0
 21 22  2  0  0  0  0
 21 43  1  0  0  0  0
 22 23  1  0  0  0  0
 22 44  1  0  0  0  0
 23 24  2  0  0  0  0
M  END
> <s_m_source_file>
AV-unprocessed.smi

> <i_m_source_file_index>
1073

> <i_lp_mmshare_version>
43012

> <i_f3d_flags>
0

> <s_epik_input>
W0NIM11bTkhdQyg9TylbQ0BIXShbQ0gyXVtDSF0oW0NIM10pW0NIM10pW05IXUMoPU8pW0NIMl1uMVtjSF1jKEMoRikoRilGKVtjSF1bY0hdYzE9Tw==

> <s_epik_cmdline>
J2VwaWtfcHl0aG9uJywgJy1waCcsICc3LjAnLCAnLXRuJywgJzgnLCAnLW1hJywgJzIwMCcsICctbWV0YWxfYmluZGluZycsICctaW1hZScsICc8aW5maWxlLm1hZT4nLCAnLW9tYWUnLCAnPG91dGZpbGUubWFlPic=

> <r_lp_tautomer_probability>
1

> <r_epik_Ionization_Penalty>
7.02352e-08

> <r_epik_Ionization_Penalty_Charging>
1.57869e-08

> <r_epik_Ionization_Penalty_Neutral>
5.44484e-08

> <r_epik_State_Penalty>
-0

> <r_epik_Charging_Adjusted_Penalty>
1.57869e-08

> <i_epik_Tot_Q>
0

> <i_epik_Tot_abs_Q>
0

> <r_epik_Metal_State_Penalty>
-0

> <b_epik_Metal_Only>
0

> <s_lp_Force_Field>
OPLS_2005

> <r_lp_Energy>
17.6469

> <b_lp_Chiralities_Consistent>
1

> <s_lp_Variant>
AV-unprocessed.smi:1073-2

> <Gold.Version>
5.8.1

> <Gold.Id.Protein>
6NUR|6NUR_protein|mol2

> <Gold.PLP.Fitness>
41.1178

> <Gold.PLP.PLP>
-36.2747

> <Gold.PLP.part.hbond>
-3.0000

> <Gold.PLP.part.metal>
0.0000

> <Gold.PLP.part.buried>
-4.7008

> <Gold.PLP.part.nonpolar>
-29.0491

> <Gold.PLP.part.repulsive>
0.0345

> <Gold.PLP.ligand.clash>
0.0493

> <Gold.PLP.ligand.torsion>
1.5829

> <Gold.PLP.Chemscore.Hbond>
2.6480

> <Gold.PLP.Chemscore.CHOScore>
0.0000

> <Gold.PLP.Chemscore.Metal>
0.0000

> <Gold.Chemscore.Hbonds>
donor molecule, donor type, donor heavy atom, donor atom, acceptor molecule, acceptor atom, score
      L1  H     2    28       P1  7948  1.00
      P1  H  6931  6943       L1    24  0.86
      P1  H  6934  6947       L1    24  0.80

> <Gold.PLP.Chemscore.Internal.Correction>
0.1141

> <Gold.Rescore>
     Score         DG    S(hbond)    S(metal)    S(lipo)     H(rot)  DE(clash)    DE(int)     intcor
     13.72     -16.19       2.61        0.00      71.99       2.51       0.07       2.40       ----

> <Gold.Chemscore.Fitness>
13.7177

> <Gold.Chemscore.DG>
-16.1886

> <Gold.Chemscore.ZeroCoef>
-5.4800

> <Gold.Chemscore.Hbond>
2.6120

> <Gold.Chemscore.Metal>
0.0000

> <Gold.Chemscore.Lipo>
71.9892

> <Gold.Chemscore.Internal_Hbond>
0.0000

> <Gold.Chemscore.DEClash>
0.0712

> <Gold.Chemscore.DEInternal>
2.3997

> <Gold.Chemscore.Rot>
2.5149

> <Gold.Chemscore.Internal.Correction>
   9.000000E+99

> <Gold.Chemscore.Hbonds>
donor molecule, donor type, donor heavy atom, donor atom, acceptor molecule, acceptor atom, score
      L1  H     2    28       P1  7948  0.99
      P1  H  6931  6943       L1    24  0.80
      P1  H  6934  6947       L1    24  0.79

> <Gold.Chemscore.Hbond.Weighted>
-8.7240

> <Gold.Chemscore.Metal.Weighted>
-0.0000

> <Gold.Chemscore.Lipo.Weighted>
-8.4227

> <Gold.Chemscore.Internal_Hbond.Weighted>
0.0000

> <Gold.Chemscore.DEClash.Weighted>
0.0712

> <Gold.Chemscore.DEInternal.Weighted>
2.3997

> <Gold.Chemscore.Rot.Weighted>
6.4381

> <Gold.Chemscore.Internal.Correction.Weighted>
   9.000000E+99

> <Gold.Protein.RotatedTorsions>
[ 6907 6896 6895 6894 ] final   39.22 input  -60.11 | X-H torsion
[ 7974 7965 7964 7962 ] final  175.31 input  175.53 | X-H torsion
[ 8008 7997 7996 7995 ] final   75.41 input   59.86 | X-H torsion
[ 10167 10162 10161 10158 ] final    6.65 input  -65.29 | X-H torsion
[ 10718 10713 10712 10709 ] final  -62.25 input   66.30 | X-H torsion
[ 10763 10752 10751 10750 ] final  164.40 input  -60.55 | X-H torsion
[ 11005 11000 10999 10996 ] final -113.29 input  -57.11 | X-H torsion

> <Gold.Protein.ActiveResidues>
 VAL166  LYS551  ARG553  GLY616  TRP617  ASP618  TYR619  PRO620  LYS621  CYS622 
 ASP623  PHE694  ASN695  SER759  ASP760  ASP761  ALA762  ILE779  LEU786  VAL792 
 PHE793  MET794  SER795  GLU796  ALA797  LYS798  CYS799  TRP800  GLU811  SER814 

> <Gold.Protein.RotatedAtoms>
  152.1668  134.8867  160.0537 H   0  0  0  0  0  0  0  0  0  0  0  0  # atno 6907 bound_to 6896
  151.9842  133.3763  159.4127 H   0  0  0  0  0  0  0  0  0  0  0  0  # atno 6908 bound_to 6896
  150.6895  134.3928  159.5128 H   0  0  0  0  0  0  0  0  0  0  0  0  # atno 6909 bound_to 6896
  144.7204  139.9927  143.6440 H   0  0  0  0  0  0  0  0  0  0  0  0  # atno 7974 bound_to 7965
  155.8126  140.3472  155.5466 H   0  0  0  0  0  0  0  0  0  0  0  0  # atno 8008 bound_to 7997
  155.8425  140.0944  157.1745 H   0  0  0  0  0  0  0  0  0  0  0  0  # atno 8009 bound_to 7997
  154.4005  140.1391  156.3734 H   0  0  0  0  0  0  0  0  0  0  0  0  # atno 8010 bound_to 7997
  140.6416  143.7760  150.7437 H   0  0  0  0  0  0  0  0  0  0  0  0  # atno 10167 bound_to 10162
  156.0867  130.4207  150.1109 H   0  0  0  0  0  0  0  0  0  0  0  0  # atno 10718 bound_to 10713
  154.3083  135.2758  155.2578 H   0  0  0  0  0  0  0  0  0  0  0  0  # atno 10763 bound_to 10752
  154.4985  135.5814  153.6516 H   0  0  0  0  0  0  0  0  0  0  0  0  # atno 10764 bound_to 10752
  152.9891  135.6152  154.3258 H   0  0  0  0  0  0  0  0  0  0  0  0  # atno 10765 bound_to 10752
  141.0623  133.9514  157.2643 H   0  0  0  0  0  0  0  0  0  0  0  0  # atno 11005 bound_to 11000
  146.0398  139.3411  143.0704 LP  0  0  0  0  0  0  0  0  0  0  0  0  # atno 17320 bound_to 7965
  145.8348  140.9611  143.0830 LP  0  0  0  0  0  0  0  0  0  0  0  0  # atno 17321 bound_to 7965
  140.1393  143.4455  152.2204 LP  0  0  0  0  0  0  0  0  0  0  0  0  # atno 17342 bound_to 10162
  139.5625  144.7415  151.4114 LP  0  0  0  0  0  0  0  0  0  0  0  0  # atno 17343 bound_to 10162
  156.9128  130.9657  151.3560 LP  0  0  0  0  0  0  0  0  0  0  0  0  # atno 17370 bound_to 10713
  157.6004  130.8508  149.8793 LP  0  0  0  0  0  0  0  0  0  0  0  0  # atno 17371 bound_to 10713
  139.9444  135.0186  156.8808 LP  0  0  0  0  0  0  0  0  0  0  0  0  # atno 17394 bound_to 11000
  140.5843  134.0322  155.7475 LP  0  0  0  0  0  0  0  0  0  0  0  0  # atno 17395 bound_to 11000

$$$$
