AV-unprocessed.smi:2119|AV-procd|sdf|8636|dock10
  -GOLD-   2272011383D 1   1.00000     0.00000
 Structure written by MMmdl.
 48 50  0  0  0  0  0  0  0  0  2 V2000
  145.0243  135.7624  153.7831 O   0  0  0  0  0  0  0  0  0  0  0  0
  146.1460  135.8103  153.2800 C   0  0  0  0  0  0  0  0  0  0  0  0
  147.1070  136.6520  153.6874 N   0  0  0  0  0  0  0  0  0  0  0  0
  146.9770  137.6339  154.7600 C   0  0  0  0  0  0  0  0  0  0  0  0
  147.9660  137.3806  155.9298 C   0  0  2  0  0  0  0  0  0  0  0  0
  147.3919  137.7261  157.3338 C   0  0  1  0  0  0  0  0  0  0  0  0
  146.1539  136.9554  157.7660 C   0  0  0  0  0  0  0  0  0  0  0  0
  146.1668  137.1028  159.2858 C   0  0  0  0  0  0  0  0  0  0  0  0
  147.5232  137.3261  159.6525 O   0  0  0  0  0  0  0  0  0  0  0  0
  148.3347  137.3671  158.4874 C   0  0  0  0  0  0  0  0  0  0  0  0
  149.2573  138.1065  155.7304 N   0  3  0  0  0  0  0  0  0  0  0  0
  150.1464  137.4942  154.7130 C   0  0  0  0  0  0  0  0  0  0  0  0
  151.5179  138.1915  154.7202 C   0  0  0  0  0  0  0  0  0  0  0  0
  151.3496  139.5877  154.5034 O   0  0  0  0  0  0  0  0  0  0  0  0
  150.5649  140.1977  155.5215 C   0  0  0  0  0  0  0  0  0  0  0  0
  149.1596  139.5748  155.5269 C   0  0  0  0  0  0  0  0  0  0  0  0
  146.5693  135.0532  152.2533 N   0  0  0  0  0  0  0  0  0  0  0  0
  145.8632  134.0312  151.5636 C   0  0  0  0  0  0  0  0  0  0  0  0
  144.4539  134.0770  151.5727 C   0  0  0  0  0  0  0  0  0  0  0  0
  143.7307  133.0874  150.8804 C   0  0  0  0  0  0  0  0  0  0  0  0
  144.4496  132.0902  150.1933 C   0  0  0  0  0  0  0  0  0  0  0  0
  145.7978  132.0404  150.1603 N   0  0  0  0  0  0  0  0  0  0  0  0
  146.4855  132.9913  150.8288 C   0  0  0  0  0  0  0  0  0  0  0  0
  147.9940  136.6215  153.2061 H   0  0  0  0  0  0  0  0  0  0  0  0
  147.1559  138.6114  154.3124 H   0  0  0  0  0  0  0  0  0  0  0  0
  145.9544  137.6514  155.1400 H   0  0  0  0  0  0  0  0  0  0  0  0
  148.2025  136.3153  155.9409 H   0  0  0  0  0  0  0  0  0  0  0  0
  147.1626  138.7910  157.3912 H   0  0  0  0  0  0  0  0  0  0  0  0
  145.2306  137.3419  157.3357 H   0  0  0  0  0  0  0  0  0  0  0  0
  146.2449  135.9029  157.4938 H   0  0  0  0  0  0  0  0  0  0  0  0
  145.5793  137.9684  159.5933 H   0  0  0  0  0  0  0  0  0  0  0  0
  145.7611  136.2233  159.7862 H   0  0  0  0  0  0  0  0  0  0  0  0
  148.7724  136.3793  158.3355 H   0  0  0  0  0  0  0  0  0  0  0  0
  149.1492  138.0825  158.6059 H   0  0  0  0  0  0  0  0  0  0  0  0
  150.2791  136.4320  154.9215 H   0  0  0  0  0  0  0  0  0  0  0  0
  149.6965  137.5741  153.7230 H   0  0  0  0  0  0  0  0  0  0  0  0
  152.0378  138.0192  155.6641 H   0  0  0  0  0  0  0  0  0  0  0  0
  152.1499  137.7852  153.9303 H   0  0  0  0  0  0  0  0  0  0  0  0
  151.0487  140.0803  156.4926 H   0  0  0  0  0  0  0  0  0  0  0  0
  150.5009  141.2679  155.3244 H   0  0  0  0  0  0  0  0  0  0  0  0
  148.6691  139.7952  154.5781 H   0  0  0  0  0  0  0  0  0  0  0  0
  148.5616  140.0326  156.3145 H   0  0  0  0  0  0  0  0  0  0  0  0
  147.4842  135.2700  151.8858 H   0  0  0  0  0  0  0  0  0  0  0  0
  143.9304  134.8566  152.1068 H   0  0  0  0  0  0  0  0  0  0  0  0
  142.6507  133.0924  150.8752 H   0  0  0  0  0  0  0  0  0  0  0  0
  143.9277  131.3159  149.6508 H   0  0  0  0  0  0  0  0  0  0  0  0
  147.5585  132.9151  150.7444 H   0  0  0  0  0  0  0  0  0  0  0  0
  149.7517  137.9890  156.6032 H   0  0  0  0  0  0  0  0  0  0  0  0
  1  2  2  0  0  0  0
  2  3  1  0  0  0  0
  2 17  1  0  0  0  0
  3  4  1  0  0  0  0
  3 24  1  0  0  0  0
  4  5  1  0  0  0  0
  4 25  1  0  0  0  0
  4 26  1  0  0  0  0
  5  6  1  0  0  0  0
  5 11  1  0  0  0  0
  5 27  1  0  0  0  0
  6 10  1  0  0  0  0
  6  7  1  0  0  0  0
  6 28  1  0  0  0  0
  7  8  1  0  0  0  0
  7 29  1  0  0  0  0
  7 30  1  0  0  0  0
  8  9  1  0  0  0  0
  8 31  1  0  0  0  0
  8 32  1  0  0  0  0
  9 10  1  0  0  0  0
 10 33  1  0  0  0  0
 10 34  1  0  0  0  0
 11 16  1  0  0  0  0
 11 12  1  0  0  0  0
 11 48  1  0  0  0  0
 12 13  1  0  0  0  0
 12 35  1  0  0  0  0
 12 36  1  0  0  0  0
 13 14  1  0  0  0  0
 13 37  1  0  0  0  0
 13 38  1  0  0  0  0
 14 15  1  0  0  0  0
 15 16  1  0  0  0  0
 15 39  1  0  0  0  0
 15 40  1  0  0  0  0
 16 41  1  0  0  0  0
 16 42  1  0  0  0  0
 17 18  1  0  0  0  0
 17 43  1  0  0  0  0
 18 23  1  0  0  0  0
 18 19  2  0  0  0  0
 19 20  1  0  0  0  0
 19 44  1  0  0  0  0
 20 21  2  0  0  0  0
 20 45  1  0  0  0  0
 21 22  1  0  0  0  0
 21 46  1  0  0  0  0
 22 23  2  0  0  0  0
 23 47  1  0  0  0  0
M  CHG  1  11   1
M  END
> <s_m_source_file>
AV-unprocessed.smi

> <i_m_source_file_index>
2119

> <i_lp_mmshare_version>
43012

> <i_f3d_flags>
0

> <s_epik_input>
W2NIXTFuW2NIXVtjSF1bY0hdYzFbTkhdQyg9TylbTkhdW0NIMl1bQ0BIXShbQ0BASF0yW0NIMl1bQ0gyXU9bQ0gyXTIpTjNbQ0gyXVtDSDJdT1tDSDJdW0NIMl0z

> <s_epik_cmdline>
J2VwaWtfcHl0aG9uJywgJy1waCcsICc3LjAnLCAnLXRuJywgJzgnLCAnLW1hJywgJzIwMCcsICctbWV0YWxfYmluZGluZycsICctaW1hZScsICc8aW5maWxlLm1hZT4nLCAnLW9tYWUnLCAnPG91dGZpbGUubWFlPic=

> <r_epik_Ionization_Penalty>
0.987463

> <r_epik_Ionization_Penalty_Charging>
0.98326

> <r_epik_Ionization_Penalty_Neutral>
0.00420251

> <r_epik_State_Penalty>
1.01721

> <r_epik_Charging_Adjusted_Penalty>
2.00047

> <i_epik_Tot_Q>
1

> <i_epik_Tot_abs_Q>
1

> <r_epik_Metal_State_Penalty>
1.01439

> <b_epik_Metal_Only>
0

> <s_lp_Force_Field>
OPLS_2005

> <r_lp_Energy>
42.3323

> <b_lp_Chiralities_Consistent>
1

> <s_lp_Variant>
AV-unprocessed.smi:2119-7

> <Gold.Version>
5.8.1

> <Gold.Id.Protein>
6NUR|6NUR_protein|mol2

> <Gold.PLP.Fitness>
41.5632

> <Gold.PLP.PLP>
-28.5876

> <Gold.PLP.part.hbond>
-4.0000

> <Gold.PLP.part.metal>
0.0000

> <Gold.PLP.part.buried>
-4.5798

> <Gold.PLP.part.nonpolar>
-20.8830

> <Gold.PLP.part.repulsive>
0.3243

> <Gold.PLP.ligand.clash>
0.0000

> <Gold.PLP.ligand.torsion>
0.7799

> <Gold.PLP.Chemscore.Hbond>
3.8160

> <Gold.PLP.Chemscore.CHOScore>
0.9513

> <Gold.PLP.Chemscore.Metal>
0.0000

> <Gold.Chemscore.Hbonds>
donor molecule, donor type, donor heavy atom, donor atom, acceptor molecule, acceptor atom, score
      L1  H     3    24       P1  7948  1.00
      L1  H    17    43       P1  7948  1.00
      P1  H  6934  6947       L1     9  0.51
      P1  H  7989  7998       L1    14  1.00
      L1  C    23    47       P1 10747  0.98

> <Gold.PLP.Chemscore.Internal.Correction>
0.2335

> <Gold.Rescore>
     Score         DG    S(hbond)    S(metal)    S(lipo)     H(rot)  DE(clash)    DE(int)     intcor
     18.91     -21.01       3.72        0.00      63.95       1.70       0.02       2.09       ----

> <Gold.Chemscore.Fitness>
18.9080

> <Gold.Chemscore.DG>
-21.0142

> <Gold.Chemscore.ZeroCoef>
-5.4800

> <Gold.Chemscore.Hbond>
3.7154

> <Gold.Chemscore.Metal>
0.0000

> <Gold.Chemscore.Lipo>
63.9494

> <Gold.Chemscore.Internal_Hbond>
0.0000

> <Gold.Chemscore.DEClash>
0.0191

> <Gold.Chemscore.DEInternal>
2.0871

> <Gold.Chemscore.Rot>
1.7021

> <Gold.Chemscore.Internal.Correction>
   9.000000E+99

> <Gold.Chemscore.Hbonds>
donor molecule, donor type, donor heavy atom, donor atom, acceptor molecule, acceptor atom, score
      L1  H     3    24       P1  7948  0.96
      L1  H    17    43       P1  7948  0.94
      P1  H  6934  6947       L1     9  0.09
      P1  H  7989  7998       L1    14  0.35

> <Gold.Chemscore.Hbond.Weighted>
-12.4096

> <Gold.Chemscore.Metal.Weighted>
-0.0000

> <Gold.Chemscore.Lipo.Weighted>
-7.4821

> <Gold.Chemscore.Internal_Hbond.Weighted>
0.0000

> <Gold.Chemscore.DEClash.Weighted>
0.0191

> <Gold.Chemscore.DEInternal.Weighted>
2.0871

> <Gold.Chemscore.Rot.Weighted>
4.3575

> <Gold.Chemscore.Internal.Correction.Weighted>
   9.000000E+99

> <Gold.Protein.RotatedTorsions>
[ 6907 6896 6895 6894 ] final    3.49 input  -60.11 | X-H torsion
[ 7974 7965 7964 7962 ] final  -46.28 input  175.53 | X-H torsion
[ 8008 7997 7996 7995 ] final -134.71 input   59.86 | X-H torsion
[ 10167 10162 10161 10158 ] final -133.81 input  -65.29 | X-H torsion
[ 10718 10713 10712 10709 ] final   33.99 input   66.30 | X-H torsion
[ 10763 10752 10751 10750 ] final  169.99 input  -60.55 | X-H torsion
[ 11005 11000 10999 10996 ] final   22.39 input  -57.11 | X-H torsion

> <Gold.Protein.ActiveResidues>
 VAL166  LYS551  ARG553  GLY616  TRP617  ASP618  TYR619  PRO620  LYS621  CYS622 
 ASP623  PHE694  ASN695  SER759  ASP760  ASP761  ALA762  ILE779  LEU786  VAL792 
 PHE793  MET794  SER795  GLU796  ALA797  LYS798  CYS799  TRP800  GLU811  SER814 

> <Gold.Protein.RotatedAtoms>
  151.6260  135.1027  160.0111 H   0  0  0  0  0  0  0  0  0  0  0  0  # atno 6907 bound_to 6896
  152.4132  133.6992  159.6425 H   0  0  0  0  0  0  0  0  0  0  0  0  # atno 6908 bound_to 6896
  150.8021  133.8503  159.3244 H   0  0  0  0  0  0  0  0  0  0  0  0  # atno 6909 bound_to 6896
  145.9735  140.7358  142.9399 H   0  0  0  0  0  0  0  0  0  0  0  0  # atno 7974 bound_to 7965
  155.3667  140.0486  157.3046 H   0  0  0  0  0  0  0  0  0  0  0  0  # atno 8008 bound_to 7997
  154.5151  140.2205  155.9045 H   0  0  0  0  0  0  0  0  0  0  0  0  # atno 8009 bound_to 7997
  156.1627  140.3113  155.8840 H   0  0  0  0  0  0  0  0  0  0  0  0  # atno 8010 bound_to 7997
  139.8944  143.6683  152.2606 H   0  0  0  0  0  0  0  0  0  0  0  0  # atno 10167 bound_to 10162
  157.3048  130.7369  149.6688 H   0  0  0  0  0  0  0  0  0  0  0  0  # atno 10718 bound_to 10713
  154.3911  135.2754  155.2154 H   0  0  0  0  0  0  0  0  0  0  0  0  # atno 10763 bound_to 10752
  154.4220  135.5998  153.6019 H   0  0  0  0  0  0  0  0  0  0  0  0  # atno 10764 bound_to 10752
  152.9832  135.5975  154.4166 H   0  0  0  0  0  0  0  0  0  0  0  0  # atno 10765 bound_to 10752
  140.3811  134.1920  155.7663 H   0  0  0  0  0  0  0  0  0  0  0  0  # atno 11005 bound_to 11000
  144.6843  140.2788  143.7295 LP  0  0  0  0  0  0  0  0  0  0  0  0  # atno 17320 bound_to 7965
  145.7872  139.1913  143.2123 LP  0  0  0  0  0  0  0  0  0  0  0  0  # atno 17321 bound_to 7965
  139.7081  144.7625  151.1159 LP  0  0  0  0  0  0  0  0  0  0  0  0  # atno 17342 bound_to 10162
  140.7720  143.5368  150.9359 LP  0  0  0  0  0  0  0  0  0  0  0  0  # atno 17343 bound_to 10162
  155.9674  130.4269  150.4720 LP  0  0  0  0  0  0  0  0  0  0  0  0  # atno 17370 bound_to 10713
  157.2707  131.0586  151.2261 LP  0  0  0  0  0  0  0  0  0  0  0  0  # atno 17371 bound_to 10713
  141.1923  133.8176  157.0844 LP  0  0  0  0  0  0  0  0  0  0  0  0  # atno 17394 bound_to 11000
  140.0478  134.9821  157.1081 LP  0  0  0  0  0  0  0  0  0  0  0  0  # atno 17395 bound_to 11000

$$$$
