AV-unprocessed.smi:781|AV-procd|sdf|3709|dock7
  -GOLD-   22720 1133D 1   1.00000     0.00000
 Structure written by MMmdl.
 38 40  0  0  0  0  0  0  0  0  1 V2000
  153.3185  141.6306  160.9060 C   0  0  0  0  0  0  0  0  0  0  0  0
  152.6216  142.2733  159.7559 C   0  0  0  0  0  0  0  0  0  0  0  0
  151.7211  141.8116  158.8374 C   0  0  0  0  0  0  0  0  0  0  0  0
  151.4749  142.9532  158.0288 C   0  0  0  0  0  0  0  0  0  0  0  0
  150.5759  142.8882  156.9341 N   0  0  0  0  0  0  0  0  0  0  0  0
  150.3539  141.8458  156.1156 C   0  0  0  0  0  0  0  0  0  0  0  0
  150.9253  140.7569  156.1803 O   0  0  0  0  0  0  0  0  0  0  0  0
  149.4223  142.1397  155.1983 N   0  0  0  0  0  0  0  0  0  0  0  0
  148.9536  141.2259  154.1589 C   0  0  2  0  0  0  0  0  0  0  0  0
  147.6083  141.6556  153.5202 C   0  0  2  0  0  0  0  0  0  0  0  0
  146.5395  141.9479  154.5950 C   0  0  0  0  0  0  0  0  0  0  0  0
  146.2403  140.5473  155.1614 C   0  0  0  0  0  0  0  0  0  0  0  0
  147.1481  139.6351  154.3130 C   0  0  1  0  0  0  0  0  0  0  0  0
  147.1003  140.3337  152.9588 C   0  0  0  0  0  0  0  0  0  0  0  0
  148.6200  139.8288  154.7463 C   0  0  1  0  0  0  0  0  0  0  0  0
  149.5466  138.7100  154.2329 C   0  0  0  0  0  0  0  0  0  0  0  0
  148.9992  137.4452  154.5408 O   0  0  0  0  0  0  0  0  0  0  0  0
  152.1629  144.0156  158.4180 N   0  0  0  0  0  0  0  0  0  0  0  0
  152.9013  143.5852  159.5269 O   0  0  0  0  0  0  0  0  0  0  0  0
  152.9592  140.6131  161.0607 H   0  0  0  0  0  0  0  0  0  0  0  0
  153.1475  142.1919  161.8247 H   0  0  0  0  0  0  0  0  0  0  0  0
  154.3934  141.5866  160.7305 H   0  0  0  0  0  0  0  0  0  0  0  0
  151.3073  140.8172  158.7591 H   0  0  0  0  0  0  0  0  0  0  0  0
  150.0396  143.7248  156.7579 H   0  0  0  0  0  0  0  0  0  0  0  0
  149.0044  143.0583  155.2178 H   0  0  0  0  0  0  0  0  0  0  0  0
  149.7146  141.1369  153.3811 H   0  0  0  0  0  0  0  0  0  0  0  0
  147.7117  142.4530  152.7832 H   0  0  0  0  0  0  0  0  0  0  0  0
  146.8699  142.6501  155.3601 H   0  0  0  0  0  0  0  0  0  0  0  0
  145.6439  142.3684  154.1356 H   0  0  0  0  0  0  0  0  0  0  0  0
  146.4576  140.4744  156.2275 H   0  0  0  0  0  0  0  0  0  0  0  0
  145.1894  140.2934  155.0176 H   0  0  0  0  0  0  0  0  0  0  0  0
  146.8232  138.5942  154.3056 H   0  0  0  0  0  0  0  0  0  0  0  0
  146.0943  140.3983  152.5400 H   0  0  0  0  0  0  0  0  0  0  0  0
  147.7656  139.8954  152.2136 H   0  0  0  0  0  0  0  0  0  0  0  0
  148.6717  139.8329  155.8367 H   0  0  0  0  0  0  0  0  0  0  0  0
  149.6589  138.7791  153.1506 H   0  0  0  0  0  0  0  0  0  0  0  0
  150.5443  138.7850  154.6656 H   0  0  0  0  0  0  0  0  0  0  0  0
  148.9460  136.9385  153.7447 H   0  0  0  0  0  0  0  0  0  0  0  0
  1  2  1  0  0  0  0
  1 20  1  0  0  0  0
  1 21  1  0  0  0  0
  1 22  1  0  0  0  0
  2 19  1  0  0  0  0
  2  3  2  0  0  0  0
  3  4  1  0  0  0  0
  3 23  1  0  0  0  0
  4  5  1  0  0  0  0
  4 18  2  0  0  0  0
  5  6  1  0  0  0  0
  5 24  1  0  0  0  0
  6  7  2  0  0  0  0
  6  8  1  0  0  0  0
  8  9  1  0  0  0  0
  8 25  1  0  0  0  0
  9 15  1  0  0  0  0
  9 10  1  0  0  0  0
  9 26  1  0  0  0  0
 10 14  1  0  0  0  0
 10 11  1  0  0  0  0
 10 27  1  0  0  0  0
 11 12  1  0  0  0  0
 11 28  1  0  0  0  0
 11 29  1  0  0  0  0
 12 13  1  0  0  0  0
 12 30  1  0  0  0  0
 12 31  1  0  0  0  0
 13 14  1  0  0  0  0
 13 15  1  0  0  0  0
 13 32  1  0  0  0  0
 14 33  1  0  0  0  0
 14 34  1  0  0  0  0
 15 16  1  0  0  0  0
 15 35  1  0  0  0  0
 16 17  1  0  0  0  0
 16 36  1  0  0  0  0
 16 37  1  0  0  0  0
 17 38  1  0  0  0  0
 18 19  1  0  0  0  0
M  END
> <s_m_source_file>
AV-unprocessed.smi

> <i_m_source_file_index>
781

> <i_lp_mmshare_version>
43012

> <i_f3d_flags>
0

> <s_epik_input>
W0NIM11jMVtjSF1jKG5vMSlbTkhdQyg9TylbTkhdW0NASF0oW0NAQEhdMjMpW0NASF0oW0NIMl1bT0hdKVtDQEBIXShbQ0gyXTMpW0NIMl1bQ0gyXTI=

> <s_epik_cmdline>
J2VwaWtfcHl0aG9uJywgJy1waCcsICc3LjAnLCAnLXRuJywgJzgnLCAnLW1hJywgJzIwMCcsICctbWV0YWxfYmluZGluZycsICctaW1hZScsICc8aW5maWxlLm1hZT4nLCAnLW9tYWUnLCAnPG91dGZpbGUubWFlPic=

> <r_lp_tautomer_probability>
1

> <r_epik_Ionization_Penalty>
2.32222e-05

> <r_epik_Ionization_Penalty_Charging>
0

> <r_epik_Ionization_Penalty_Neutral>
2.32222e-05

> <r_epik_State_Penalty>
-0

> <r_epik_Charging_Adjusted_Penalty>
0

> <i_epik_Tot_Q>
0

> <i_epik_Tot_abs_Q>
0

> <r_epik_Metal_State_Penalty>
-0

> <b_epik_Metal_Only>
0

> <s_lp_Force_Field>
OPLS_2005

> <r_lp_Energy>
46.3862

> <b_lp_Chiralities_Consistent>
1

> <s_lp_Variant>
AV-unprocessed.smi:781-3

> <Gold.Version>
5.8.1

> <Gold.Id.Protein>
6NUR|6NUR_protein|mol2

> <Gold.PLP.Fitness>
44.7957

> <Gold.PLP.PLP>
-36.7929

> <Gold.PLP.part.hbond>
-3.0000

> <Gold.PLP.part.metal>
0.0000

> <Gold.PLP.part.buried>
-5.4625

> <Gold.PLP.part.nonpolar>
-27.9886

> <Gold.PLP.part.repulsive>
0.3080

> <Gold.PLP.ligand.clash>
0.0000

> <Gold.PLP.ligand.torsion>
0.4954

> <Gold.PLP.Chemscore.Hbond>
2.9920

> <Gold.PLP.Chemscore.CHOScore>
0.0000

> <Gold.PLP.Chemscore.Metal>
0.0000

> <Gold.Chemscore.Hbonds>
donor molecule, donor type, donor heavy atom, donor atom, acceptor molecule, acceptor atom, score
      L1  H     5    24       P1  8028  1.00
      L1  H     8    25       P1  8028  1.00
      L1  H    17    38       P1  7948  1.00

> <Gold.PLP.Chemscore.Internal.Correction>
0.0176

> <Gold.Rescore>
     Score         DG    S(hbond)    S(metal)    S(lipo)     H(rot)  DE(clash)    DE(int)     intcor
     17.41     -19.52       2.92        0.00      77.39       1.86       0.06       2.05       ----

> <Gold.Chemscore.Fitness>
17.4096

> <Gold.Chemscore.DG>
-19.5171

> <Gold.Chemscore.ZeroCoef>
-5.4800

> <Gold.Chemscore.Hbond>
2.9163

> <Gold.Chemscore.Metal>
0.0000

> <Gold.Chemscore.Lipo>
77.3930

> <Gold.Chemscore.Internal_Hbond>
0.0000

> <Gold.Chemscore.DEClash>
0.0613

> <Gold.Chemscore.DEInternal>
2.0463

> <Gold.Chemscore.Rot>
1.8587

> <Gold.Chemscore.Internal.Correction>
   9.000000E+99

> <Gold.Chemscore.Hbonds>
donor molecule, donor type, donor heavy atom, donor atom, acceptor molecule, acceptor atom, score
      L1  H     5    24       P1  8028  0.95
      L1  H     8    25       P1  8028  0.99
      L1  H    17    38       P1  7948  0.97

> <Gold.Chemscore.Hbond.Weighted>
-9.7404

> <Gold.Chemscore.Metal.Weighted>
-0.0000

> <Gold.Chemscore.Lipo.Weighted>
-9.0550

> <Gold.Chemscore.Internal_Hbond.Weighted>
0.0000

> <Gold.Chemscore.DEClash.Weighted>
0.0613

> <Gold.Chemscore.DEInternal.Weighted>
2.0463

> <Gold.Chemscore.Rot.Weighted>
4.7583

> <Gold.Chemscore.Internal.Correction.Weighted>
   9.000000E+99

> <Gold.Protein.RotatedTorsions>
[ 6907 6896 6895 6894 ] final  -90.05 input  -60.11 | X-H torsion
[ 7974 7965 7964 7962 ] final -179.73 input  175.53 | X-H torsion
[ 8008 7997 7996 7995 ] final -140.64 input   59.86 | X-H torsion
[ 10167 10162 10161 10158 ] final  -89.52 input  -65.29 | X-H torsion
[ 10718 10713 10712 10709 ] final  -42.41 input   66.30 | X-H torsion
[ 10763 10752 10751 10750 ] final -163.44 input  -60.55 | X-H torsion
[ 11005 11000 10999 10996 ] final  -87.69 input  -57.11 | X-H torsion

> <Gold.Protein.ActiveResidues>
 VAL166  LYS551  ARG553  GLY616  TRP617  ASP618  TYR619  PRO620  LYS621  CYS622 
 ASP623  PHE694  ASN695  SER759  ASP760  ASP761  ALA762  ILE779  LEU786  VAL792 
 PHE793  MET794  SER795  GLU796  ALA797  LYS798  CYS799  TRP800  GLU811  SER814 

> <Gold.Protein.RotatedAtoms>
  150.6878  134.2492  159.4503 H   0  0  0  0  0  0  0  0  0  0  0  0  # atno 6907 bound_to 6896
  152.0430  134.9697  160.0583 H   0  0  0  0  0  0  0  0  0  0  0  0  # atno 6908 bound_to 6896
  152.1191  133.4308  159.4704 H   0  0  0  0  0  0  0  0  0  0  0  0  # atno 6909 bound_to 6896
  144.7139  140.0674  143.6430 H   0  0  0  0  0  0  0  0  0  0  0  0  # atno 7974 bound_to 7965
  155.4646  140.0548  157.2987 H   0  0  0  0  0  0  0  0  0  0  0  0  # atno 8008 bound_to 7997
  154.4723  140.2046  155.9918 H   0  0  0  0  0  0  0  0  0  0  0  0  # atno 8009 bound_to 7997
  156.1076  140.3209  155.8032 H   0  0  0  0  0  0  0  0  0  0  0  0  # atno 8010 bound_to 7997
  140.3640  143.2828  151.9581 H   0  0  0  0  0  0  0  0  0  0  0  0  # atno 10167 bound_to 10162
  156.2599  130.4196  149.8554 H   0  0  0  0  0  0  0  0  0  0  0  0  # atno 10718 bound_to 10713
  154.7122  135.3008  154.9179 H   0  0  0  0  0  0  0  0  0  0  0  0  # atno 10763 bound_to 10752
  154.0077  135.6699  153.4767 H   0  0  0  0  0  0  0  0  0  0  0  0  # atno 10764 bound_to 10752
  153.0764  135.5032  154.8327 H   0  0  0  0  0  0  0  0  0  0  0  0  # atno 10765 bound_to 10752
  141.1613  133.7526  156.9344 H   0  0  0  0  0  0  0  0  0  0  0  0  # atno 11005 bound_to 11000
  145.9813  139.2943  143.1040 LP  0  0  0  0  0  0  0  0  0  0  0  0  # atno 17320 bound_to 7965
  145.9008  140.9244  143.0504 LP  0  0  0  0  0  0  0  0  0  0  0  0  # atno 17321 bound_to 7965
  139.4811  144.5967  151.7677 LP  0  0  0  0  0  0  0  0  0  0  0  0  # atno 17342 bound_to 10162
  140.5099  144.1040  150.5992 LP  0  0  0  0  0  0  0  0  0  0  0  0  # atno 17343 bound_to 10162
  156.6072  130.8571  151.3446 LP  0  0  0  0  0  0  0  0  0  0  0  0  # atno 17370 bound_to 10713
  157.7247  130.9606  150.1583 LP  0  0  0  0  0  0  0  0  0  0  0  0  # atno 17371 bound_to 10713
  140.1364  134.9322  157.2408 LP  0  0  0  0  0  0  0  0  0  0  0  0  # atno 17394 bound_to 11000
  140.2889  134.3263  155.7321 LP  0  0  0  0  0  0  0  0  0  0  0  0  # atno 17395 bound_to 11000

$$$$
