#       Name:                AV-unprocessed.smi:926
#       Creating user name   scv26
#       Creation time:       Fri Mar 27 02:08:58 2020


#       File generated by GOLD software.
#

@<TRIPOS>MOLECULE
AV-unprocessed.smi:926
    42    44     1
SMALL
NO_CHARGES


@<TRIPOS>ATOM
      1 ****        -1.9353   2.2426  -1.0338 O.2            1 S1                 0.0000
      2 ****        -2.5138   1.2224  -1.4073 C.2            1 S1                 0.0000
      3 ****        -4.0403   1.1900  -1.4689 C.3            1 S1                 0.0000
      4 ****        -4.5872   0.5221  -0.3035 N.pl3          1 S1                 0.0000
      5 ****        -4.8140   0.9650   0.9351 C.2            1 S1                 0.0000
      6 ****        -5.3167   0.0151   1.7089 N.2            1 S1                 0.0000
      7 ****        -5.3922  -1.0764   0.8594 N.2            1 S1                 0.0000
      8 ****        -4.9605  -0.7818  -0.3361 N.2            1 S1                 0.0000
      9 ****        -1.8761   0.0966  -1.7642 N.am           1 S1                 0.0000
     10 ****        -0.4317  -0.0939  -1.7256 C.3            1 S1                 0.0000
     11 ****         0.0479  -0.4395  -0.3048 C.3            1 S1                 0.0000
     12 ****         1.5683  -0.6765  -0.2221 C.3            1 S1                 0.0000
     13 ****         2.4102   0.6051  -0.4259 C.3            1 S1                 0.0000
     14 ****         3.2859   0.6545   0.8393 C.3            1 S1                 0.0000
     15 ****         4.3201  -0.4856   0.7962 C.3            1 S1                 0.0000
     16 ****         3.4569  -1.7350   1.0542 C.3            1 S1                 0.0000
     17 ****         2.0373  -1.1479   1.1740 C.3            1 S1                 0.0000
     18 ****         2.3146   0.1630   1.9042 C.3            1 S1                 0.0000
     19 ****        -4.4346   2.2062  -1.5066 H              1 S1                 0.0000
     20 ****        -4.3735   0.6794  -2.3738 H              1 S1                 0.0000
     21 ****        -4.6085   1.9724   1.2669 H              1 S1                 0.0000
     22 ****        -2.4330  -0.6935  -2.0569 H              1 S1                 0.0000
     23 ****        -0.1792  -0.9038  -2.4105 H              1 S1                 0.0000
     24 ****         0.0719   0.7977  -2.1019 H              1 S1                 0.0000
     25 ****        -0.2438   0.3504   0.3884 H              1 S1                 0.0000
     26 ****        -0.4697  -1.3396   0.0296 H              1 S1                 0.0000
     27 ****         1.8366  -1.4265  -0.9677 H              1 S1                 0.0000
     28 ****         3.0040   0.5697  -1.3398 H              1 S1                 0.0000
     29 ****         1.7789   1.4934  -0.4774 H              1 S1                 0.0000
     30 ****         3.7225   1.6352   1.0303 H              1 S1                 0.0000
     31 ****         4.8446  -0.5312  -0.1590 H              1 S1                 0.0000
     32 ****         5.0659  -0.3659   1.5831 H              1 S1                 0.0000
     33 ****         3.5397  -2.4731   0.2555 H              1 S1                 0.0000
     34 ****         3.7541  -2.2188   1.9856 H              1 S1                 0.0000
     35 ****         1.3365  -1.8160   1.6758 H              1 S1                 0.0000
     36 ****         2.7794   0.0239   2.8819 H              1 S1                 0.0000
     37 ****         1.4349   0.7985   2.0160 H              1 S1                 0.0000
     38 ****        -2.4642   3.0496  -0.7709 LP             1 S1                 0.0000
     39 ****        -0.9364   2.2646  -0.9932 LP             1 S1                 0.0000
     40 ****        -5.5783   0.0720   2.6725 LP             1 S1                 0.0000
     41 ****        -5.7344  -1.9766   1.1285 LP             1 S1                 0.0000
     42 ****        -4.9139  -1.3971  -1.1229 LP             1 S1                 0.0000
@<TRIPOS>BOND
    1    1    2 2     
    2    2    3 1     
    3    2    9 am    
    4    3    4 1     
    5    3   19 1     
    6    3   20 1     
    7    4    8 1     
    8    4    5 1     
    9    5    6 2     
   10    5   21 1     
   11    6    7 1     
   12    7    8 2     
   13    9   10 1     
   14    9   22 1     
   15   10   11 1     
   16   10   23 1     
   17   10   24 1     
   18   11   12 1     
   19   11   25 1     
   20   11   26 1     
   21   12   17 1     
   22   12   13 1     
   23   12   27 1     
   24   13   14 1     
   25   13   28 1     
   26   13   29 1     
   27   14   18 1     
   28   14   15 1     
   29   14   30 1     
   30   15   16 1     
   31   15   31 1     
   32   15   32 1     
   33   16   17 1     
   34   16   33 1     
   35   16   34 1     
   36   17   18 1     
   37   17   35 1     
   38   18   36 1     
   39   18   37 1     
   40    1   38 1     
   41    1   39 1     
   42    6   40 1     
   43    7   41 1     
   44    8   42 1     
@<TRIPOS>SUBSTRUCTURE
      1 S1             1
@<TRIPOS>SET
LONE_PAIRS      STATIC     ATOMS    <user>   **** ""
5 38 39 40 41 42
DONOR_HYDROGENS      STATIC     ATOMS    <user>   **** ""
1 22
ATOM$BLUE        STATIC     ATOMS    COLORGROUP SYSTEM
5 38 39 40 41 42
ATOM$RED        STATIC     ATOMS    COLORGROUP SYSTEM
1 22
