AV-unprocessed.smi:2274|AV-procd|sdf|9169|dock3
  -GOLD-   2272012383D 1   1.00000     0.00000
 Structure written by MMmdl.
 47 48  0  0  0  0  0  0  0  0  1 V2000
  150.9644  142.3672  156.5597 C   0  0  0  0  0  0  0  0  0  0  0  0
  149.9000  142.3020  155.4522 C   0  0  0  0  0  0  0  0  0  0  0  0
  149.6791  140.9579  154.9318 N   0  0  0  0  0  0  0  0  0  0  0  0
  150.7043  140.0685  154.9329 N   0  0  0  0  0  0  0  0  0  0  0  0
  150.2272  138.9736  154.3663 C   0  0  0  0  0  0  0  0  0  0  0  0
  151.1112  137.7702  154.2080 C   0  0  0  0  0  0  0  0  0  0  0  0
  148.8682  139.1500  153.9969 C   0  0  0  0  0  0  0  0  0  0  0  0
  148.0842  138.1712  153.3364 N   0  0  0  0  0  0  0  0  0  0  0  0
  146.7640  137.9737  153.4721 C   0  0  0  0  0  0  0  0  0  0  0  0
  146.0311  138.6105  154.2290 O   0  0  0  0  0  0  0  0  0  0  0  0
  146.3359  136.9758  152.6866 N   0  0  0  0  0  0  0  0  0  0  0  0
  144.9546  136.5183  152.5904 C   0  0  0  0  0  0  0  0  0  0  0  0
  144.7336  135.6433  151.3442 C   0  0  0  0  0  0  0  0  0  0  0  0
  144.7969  134.1386  151.6495 C   0  0  1  0  0  0  0  0  0  0  0  0
  144.1052  133.3006  150.5561 C   0  0  0  0  0  0  0  0  0  0  0  0
  144.2578  131.8032  150.8463 C   0  0  0  0  0  0  0  0  0  0  0  0
  145.7382  131.4665  151.0508 C   0  0  0  0  0  0  0  0  0  0  0  0
  146.3524  132.3916  152.1131 C   0  0  0  0  0  0  0  0  0  0  0  0
  146.1677  133.7526  151.7355 O   0  0  0  0  0  0  0  0  0  0  0  0
  148.5466  140.4434  154.3159 C   0  0  0  0  0  0  0  0  0  0  0  0
  147.3111  141.2595  154.0908 C   0  0  0  0  0  0  0  0  0  0  0  0
  151.0430  143.3788  156.9579 H   0  0  0  0  0  0  0  0  0  0  0  0
  151.9504  142.0860  156.1888 H   0  0  0  0  0  0  0  0  0  0  0  0
  150.7124  141.7035  157.3874 H   0  0  0  0  0  0  0  0  0  0  0  0
  148.9600  142.6845  155.8495 H   0  0  0  0  0  0  0  0  0  0  0  0
  150.1809  142.9485  154.6202 H   0  0  0  0  0  0  0  0  0  0  0  0
  150.6927  137.0598  153.4951 H   0  0  0  0  0  0  0  0  0  0  0  0
  151.2354  137.2515  155.1586 H   0  0  0  0  0  0  0  0  0  0  0  0
  152.1016  138.0515  153.8494 H   0  0  0  0  0  0  0  0  0  0  0  0
  148.5914  137.4971  152.7819 H   0  0  0  0  0  0  0  0  0  0  0  0
  147.0122  136.5047  152.1036 H   0  0  0  0  0  0  0  0  0  0  0  0
  144.7287  135.9495  153.4926 H   0  0  0  0  0  0  0  0  0  0  0  0
  144.2764  137.3730  152.5845 H   0  0  0  0  0  0  0  0  0  0  0  0
  143.7590  135.8764  150.9132 H   0  0  0  0  0  0  0  0  0  0  0  0
  145.4725  135.8923  150.5814 H   0  0  0  0  0  0  0  0  0  0  0  0
  144.3098  133.9527  152.6086 H   0  0  0  0  0  0  0  0  0  0  0  0
  143.0481  133.5607  150.4911 H   0  0  0  0  0  0  0  0  0  0  0  0
  144.5437  133.5290  149.5839 H   0  0  0  0  0  0  0  0  0  0  0  0
  143.6941  131.5425  151.7431 H   0  0  0  0  0  0  0  0  0  0  0  0
  143.8413  131.2119  150.0303 H   0  0  0  0  0  0  0  0  0  0  0  0
  145.8518  130.4227  151.3449 H   0  0  0  0  0  0  0  0  0  0  0  0
  146.2752  131.5876  150.1094 H   0  0  0  0  0  0  0  0  0  0  0  0
  145.9065  132.2114  153.0925 H   0  0  0  0  0  0  0  0  0  0  0  0
  147.4202  132.1946  152.2093 H   0  0  0  0  0  0  0  0  0  0  0  0
  146.7248  140.8652  153.2612 H   0  0  0  0  0  0  0  0  0  0  0  0
  147.5570  142.2917  153.8421 H   0  0  0  0  0  0  0  0  0  0  0  0
  146.6818  141.2628  154.9809 H   0  0  0  0  0  0  0  0  0  0  0  0
  1  2  1  0  0  0  0
  1 22  1  0  0  0  0
  1 23  1  0  0  0  0
  1 24  1  0  0  0  0
  2  3  1  0  0  0  0
  2 25  1  0  0  0  0
  2 26  1  0  0  0  0
  3 20  1  0  0  0  0
  3  4  1  0  0  0  0
  4  5  2  0  0  0  0
  5  6  1  0  0  0  0
  5  7  1  0  0  0  0
  6 27  1  0  0  0  0
  6 28  1  0  0  0  0
  6 29  1  0  0  0  0
  7  8  1  0  0  0  0
  7 20  2  0  0  0  0
  8  9  1  0  0  0  0
  8 30  1  0  0  0  0
  9 10  2  0  0  0  0
  9 11  1  0  0  0  0
 11 12  1  0  0  0  0
 11 31  1  0  0  0  0
 12 13  1  0  0  0  0
 12 32  1  0  0  0  0
 12 33  1  0  0  0  0
 13 14  1  0  0  0  0
 13 34  1  0  0  0  0
 13 35  1  0  0  0  0
 14 19  1  0  0  0  0
 14 15  1  0  0  0  0
 14 36  1  0  0  0  0
 15 16  1  0  0  0  0
 15 37  1  0  0  0  0
 15 38  1  0  0  0  0
 16 17  1  0  0  0  0
 16 39  1  0  0  0  0
 16 40  1  0  0  0  0
 17 18  1  0  0  0  0
 17 41  1  0  0  0  0
 17 42  1  0  0  0  0
 18 19  1  0  0  0  0
 18 43  1  0  0  0  0
 18 44  1  0  0  0  0
 20 21  1  0  0  0  0
 21 45  1  0  0  0  0
 21 46  1  0  0  0  0
 21 47  1  0  0  0  0
M  END
> <s_m_source_file>
AV-unprocessed.smi

> <i_m_source_file_index>
2274

> <i_lp_mmshare_version>
43012

> <i_f3d_flags>
0

> <s_epik_input>
W0NIM11bQ0gyXW4xbmMoW0NIM10pYyhjMVtDSDNdKVtOSF1DKD1PKVtOSF1bQ0gyXVtDSDJdW0NAQEhdMltDSDJdW0NIMl1bQ0gyXVtDSDJdTzI=

> <s_epik_cmdline>
J2VwaWtfcHl0aG9uJywgJy1waCcsICc3LjAnLCAnLXRuJywgJzgnLCAnLW1hJywgJzIwMCcsICctbWV0YWxfYmluZGluZycsICctaW1hZScsICc8aW5maWxlLm1hZT4nLCAnLW9tYWUnLCAnPG91dGZpbGUubWFlPic=

> <r_lp_tautomer_probability>
1

> <r_epik_Ionization_Penalty>
0.00368263

> <r_epik_Ionization_Penalty_Charging>
0

> <r_epik_Ionization_Penalty_Neutral>
0.00368263

> <r_epik_State_Penalty>
0.00259417

> <r_epik_Charging_Adjusted_Penalty>
0.00259417

> <i_epik_Tot_Q>
0

> <i_epik_Tot_abs_Q>
0

> <r_epik_Metal_State_Penalty>
-0

> <b_epik_Metal_Only>
0

> <s_lp_Force_Field>
OPLS_2005

> <r_lp_Energy>
13.1283

> <b_lp_Chiralities_Consistent>
1

> <s_lp_Variant>
AV-unprocessed.smi:2274-2

> <Gold.Version>
5.8.1

> <Gold.Id.Protein>
6NUR|6NUR_protein|mol2

> <Gold.PLP.Fitness>
44.7941

> <Gold.PLP.PLP>
-38.6521

> <Gold.PLP.part.hbond>
-3.5199

> <Gold.PLP.part.metal>
0.0000

> <Gold.PLP.part.buried>
-0.9883

> <Gold.PLP.part.nonpolar>
-35.8706

> <Gold.PLP.part.repulsive>
0.4048

> <Gold.PLP.ligand.clash>
0.0000

> <Gold.PLP.ligand.torsion>
1.1515

> <Gold.PLP.Chemscore.Hbond>
2.6980

> <Gold.PLP.Chemscore.CHOScore>
0.0000

> <Gold.PLP.Chemscore.Metal>
0.0000

> <Gold.Chemscore.Hbonds>
donor molecule, donor type, donor heavy atom, donor atom, acceptor molecule, acceptor atom, score
      L1  H     8    30       P1  7948  1.00
      L1  H    11    31       P1  7948  0.88
      P1  H  7989  7998       L1     4  0.75

> <Gold.PLP.Chemscore.Internal.Correction>
0.3511

> <Gold.Rescore>
     Score         DG    S(hbond)    S(metal)    S(lipo)     H(rot)  DE(clash)    DE(int)     intcor
     16.82     -19.15       1.86        0.00      95.55       1.46       0.02       2.30       ----

> <Gold.Chemscore.Fitness>
16.8247

> <Gold.Chemscore.DG>
-19.1489

> <Gold.Chemscore.ZeroCoef>
-5.4800

> <Gold.Chemscore.Hbond>
1.8649

> <Gold.Chemscore.Metal>
0.0000

> <Gold.Chemscore.Lipo>
95.5501

> <Gold.Chemscore.Internal_Hbond>
0.0000

> <Gold.Chemscore.DEClash>
0.0217

> <Gold.Chemscore.DEInternal>
2.3024

> <Gold.Chemscore.Rot>
1.4606

> <Gold.Chemscore.Internal.Correction>
   9.000000E+99

> <Gold.Chemscore.Hbonds>
donor molecule, donor type, donor heavy atom, donor atom, acceptor molecule, acceptor atom, score
      L1  H     8    30       P1  7948  0.98
      L1  H    11    31       P1  7948  0.85
      P1  H  7989  7998       L1     4  0.03

> <Gold.Chemscore.Hbond.Weighted>
-6.2288

> <Gold.Chemscore.Metal.Weighted>
-0.0000

> <Gold.Chemscore.Lipo.Weighted>
-11.1794

> <Gold.Chemscore.Internal_Hbond.Weighted>
0.0000

> <Gold.Chemscore.DEClash.Weighted>
0.0217

> <Gold.Chemscore.DEInternal.Weighted>
2.3024

> <Gold.Chemscore.Rot.Weighted>
3.7393

> <Gold.Chemscore.Internal.Correction.Weighted>
   9.000000E+99

> <Gold.Protein.RotatedTorsions>
[ 6907 6896 6895 6894 ] final  -40.53 input  -60.11 | X-H torsion
[ 7974 7965 7964 7962 ] final  112.24 input  175.53 | X-H torsion
[ 8008 7997 7996 7995 ] final -146.79 input   59.86 | X-H torsion
[ 10167 10162 10161 10158 ] final   70.32 input  -65.29 | X-H torsion
[ 10718 10713 10712 10709 ] final -154.89 input   66.30 | X-H torsion
[ 10763 10752 10751 10750 ] final -116.23 input  -60.55 | X-H torsion
[ 11005 11000 10999 10996 ] final -117.46 input  -57.11 | X-H torsion

> <Gold.Protein.ActiveResidues>
 VAL166  LYS551  ARG553  GLY616  TRP617  ASP618  TYR619  PRO620  LYS621  CYS622 
 ASP623  PHE694  ASN695  SER759  ASP760  ASP761  ALA762  ILE779  LEU786  VAL792 
 PHE793  MET794  SER795  GLU796  ALA797  LYS798  CYS799  TRP800  GLU811  SER814 

> <Gold.Protein.RotatedAtoms>
  150.9773  134.9135  159.7823 H   0  0  0  0  0  0  0  0  0  0  0  0  # atno 6907 bound_to 6896
  152.5210  134.3458  159.9243 H   0  0  0  0  0  0  0  0  0  0  0  0  # atno 6908 bound_to 6896
  151.3466  133.3900  159.2711 H   0  0  0  0  0  0  0  0  0  0  0  0  # atno 6909 bound_to 6896
  145.2321  139.2815  143.4162 H   0  0  0  0  0  0  0  0  0  0  0  0  # atno 7974 bound_to 7965
  155.5650  140.0629  157.2820 H   0  0  0  0  0  0  0  0  0  0  0  0  # atno 8008 bound_to 7997
  154.4378  140.1879  156.0867 H   0  0  0  0  0  0  0  0  0  0  0  0  # atno 8009 bound_to 7997
  156.0418  140.3294  155.7256 H   0  0  0  0  0  0  0  0  0  0  0  0  # atno 8010 bound_to 7997
  140.0582  144.5255  150.7313 H   0  0  0  0  0  0  0  0  0  0  0  0  # atno 10167 bound_to 10162
  156.5054  130.8410  151.2625 H   0  0  0  0  0  0  0  0  0  0  0  0  # atno 10718 bound_to 10713
  154.8512  135.4353  154.1789 H   0  0  0  0  0  0  0  0  0  0  0  0  # atno 10763 bound_to 10752
  153.2884  135.6959  153.7323 H   0  0  0  0  0  0  0  0  0  0  0  0  # atno 10764 bound_to 10752
  153.6499  135.3453  155.3071 H   0  0  0  0  0  0  0  0  0  0  0  0  # atno 10765 bound_to 10752
  141.0353  133.9919  157.3080 H   0  0  0  0  0  0  0  0  0  0  0  0  # atno 11005 bound_to 11000
  146.3350  140.2659  142.8604 LP  0  0  0  0  0  0  0  0  0  0  0  0  # atno 17320 bound_to 7965
  144.9667  140.8328  143.5480 LP  0  0  0  0  0  0  0  0  0  0  0  0  # atno 17321 bound_to 7965
  140.7184  143.2566  151.4358 LP  0  0  0  0  0  0  0  0  0  0  0  0  # atno 17342 bound_to 10162
  139.5910  144.1499  152.2088 LP  0  0  0  0  0  0  0  0  0  0  0  0  # atno 17343 bound_to 10162
  157.7457  130.9968  150.2792 LP  0  0  0  0  0  0  0  0  0  0  0  0  # atno 17370 bound_to 10713
  156.3292  130.3798  149.7506 LP  0  0  0  0  0  0  0  0  0  0  0  0  # atno 17371 bound_to 10713
  139.9236  135.0201  156.8154 LP  0  0  0  0  0  0  0  0  0  0  0  0  # atno 17394 bound_to 11000
  140.6333  133.9885  155.7672 LP  0  0  0  0  0  0  0  0  0  0  0  0  # atno 17395 bound_to 11000

$$$$
