AV-unprocessed.smi:1818|AV-procd|sdf|7381|dock8
  -GOLD-   22720 9 53D 1   1.00000     0.00000
 Structure written by MMmdl.
 37 38  0  0  0  0  0  0  0  0  2 V2000
  151.4217  136.7792  159.7305 N   0  0  0  0  0  0  0  0  0  0  0  0
  151.1919  137.6354  158.9870 C   0  0  0  0  0  0  0  0  0  0  0  0
  150.8994  138.7276  158.0376 C   0  0  0  0  0  0  0  0  0  0  0  0
  151.0919  140.0303  158.6830 N   0  0  0  0  0  0  0  0  0  0  0  0
  152.2382  140.5346  159.1699 C   0  0  0  0  0  0  0  0  0  0  0  0
  153.3200  139.9519  159.1174 O   0  0  0  0  0  0  0  0  0  0  0  0
  152.1454  141.9040  159.8419 C   0  0  0  0  0  0  0  0  0  0  0  0
  151.9970  142.9682  158.8448 N   0  0  0  0  0  0  0  0  0  0  0  0
  152.7532  144.1063  158.7221 C   0  0  0  0  0  0  0  0  0  0  0  0
  152.2541  144.7929  157.6451 C   0  0  0  0  0  0  0  0  0  0  0  0
  151.2166  144.0454  157.1554 N   0  3  0  0  0  0  0  0  0  0  0  0
  151.0616  142.9366  157.8861 C   0  0  0  0  0  0  0  0  0  0  0  0
  151.9331  138.6239  156.8893 C   0  0  0  0  0  0  0  0  0  0  0  0
  151.5545  139.3268  155.5734 C   0  0  0  0  0  0  0  0  0  0  0  0
  150.7655  138.4092  154.6219 C   0  0  0  0  0  0  0  0  0  0  0  0
  149.3175  138.1218  155.0493 C   0  0  0  0  0  0  0  0  0  0  0  0
  149.1595  137.5575  156.4725 C   0  0  0  0  0  0  0  0  0  0  0  0
  149.4289  138.6168  157.5545 C   0  0  0  0  0  0  0  0  0  0  0  0
  150.2632  140.5994  158.7755 H   0  0  0  0  0  0  0  0  0  0  0  0
  151.2900  141.9390  160.5186 H   0  0  0  0  0  0  0  0  0  0  0  0
  153.0397  142.1052  160.4337 H   0  0  0  0  0  0  0  0  0  0  0  0
  153.5694  144.3370  159.3915 H   0  0  0  0  0  0  0  0  0  0  0  0
  152.5523  145.7318  157.2015 H   0  0  0  0  0  0  0  0  0  0  0  0
  150.3285  142.1648  157.7300 H   0  0  0  0  0  0  0  0  0  0  0  0
  152.8872  139.0219  157.2388 H   0  0  0  0  0  0  0  0  0  0  0  0
  152.1418  137.5742  156.6763 H   0  0  0  0  0  0  0  0  0  0  0  0
  151.0205  140.2591  155.7599 H   0  0  0  0  0  0  0  0  0  0  0  0
  152.4774  139.6096  155.0658 H   0  0  0  0  0  0  0  0  0  0  0  0
  150.7431  138.8682  153.6330 H   0  0  0  0  0  0  0  0  0  0  0  0
  151.3010  137.4677  154.4938 H   0  0  0  0  0  0  0  0  0  0  0  0
  148.7213  139.0295  154.9481 H   0  0  0  0  0  0  0  0  0  0  0  0
  148.8888  137.4105  154.3426 H   0  0  0  0  0  0  0  0  0  0  0  0
  148.1281  137.2197  156.5798 H   0  0  0  0  0  0  0  0  0  0  0  0
  149.7793  136.6727  156.6207 H   0  0  0  0  0  0  0  0  0  0  0  0
  148.8022  138.3839  158.4165 H   0  0  0  0  0  0  0  0  0  0  0  0
  149.0689  139.5847  157.2022 H   0  0  0  0  0  0  0  0  0  0  0  0
  150.6474  144.2934  156.3557 H   0  0  0  0  0  0  0  0  0  0  0  0
  1  2  3  0  0  0  0
  2  3  1  0  0  0  0
  3 18  1  0  0  0  0
  3  4  1  0  0  0  0
  3 13  1  0  0  0  0
  4  5  1  0  0  0  0
  4 19  1  0  0  0  0
  5  6  2  0  0  0  0
  5  7  1  0  0  0  0
  7  8  1  0  0  0  0
  7 20  1  0  0  0  0
  7 21  1  0  0  0  0
  8 12  1  0  0  0  0
  8  9  1  0  0  0  0
  9 10  2  0  0  0  0
  9 22  1  0  0  0  0
 10 11  1  0  0  0  0
 10 23  1  0  0  0  0
 11 12  2  0  0  0  0
 11 37  1  0  0  0  0
 12 24  1  0  0  0  0
 13 14  1  0  0  0  0
 13 25  1  0  0  0  0
 13 26  1  0  0  0  0
 14 15  1  0  0  0  0
 14 27  1  0  0  0  0
 14 28  1  0  0  0  0
 15 16  1  0  0  0  0
 15 29  1  0  0  0  0
 15 30  1  0  0  0  0
 16 17  1  0  0  0  0
 16 31  1  0  0  0  0
 16 32  1  0  0  0  0
 17 18  1  0  0  0  0
 17 33  1  0  0  0  0
 17 34  1  0  0  0  0
 18 35  1  0  0  0  0
 18 36  1  0  0  0  0
M  CHG  1  11   1
M  END
> <s_m_source_file>
AV-unprocessed.smi

> <i_m_source_file_index>
1818

> <i_lp_mmshare_version>
43012

> <i_f3d_flags>
0

> <s_epik_input>
W0NIMl0xW0NIMl1bQ0gyXVtDSDJdW0NIMl1bQ0gyXUMxKEMjTilbTkhdQyg9TylbQ0gyXW4yW2NIXVtjSF1uW2NIXTI=

> <s_epik_cmdline>
J2VwaWtfcHl0aG9uJywgJy1waCcsICc3LjAnLCAnLXRuJywgJzgnLCAnLW1hJywgJzIwMCcsICctbWV0YWxfYmluZGluZycsICctaW1hZScsICc8aW5maWxlLm1hZT4nLCAnLW9tYWUnLCAnPG91dGZpbGUubWFlPic=

> <r_lp_tautomer_probability>
1

> <r_epik_Ionization_Penalty>
0.70502

> <r_epik_Ionization_Penalty_Charging>
0

> <r_epik_Ionization_Penalty_Neutral>
0.70502

> <r_epik_State_Penalty>
0.72808

> <r_epik_Charging_Adjusted_Penalty>
0.72808

> <i_epik_Tot_Q>
1

> <i_epik_Tot_abs_Q>
1

> <r_epik_Metal_State_Penalty>
0.891186

> <b_epik_Metal_Only>
0

> <s_lp_Force_Field>
OPLS_2005

> <r_lp_Energy>
19.4839

> <b_lp_Chiralities_Consistent>
1

> <s_lp_Variant>
AV-unprocessed.smi:1818-2

> <Gold.Version>
5.8.1

> <Gold.Id.Protein>
6NUR|6NUR_protein|mol2

> <Gold.PLP.Fitness>
46.3297

> <Gold.PLP.PLP>
-34.8687

> <Gold.PLP.part.hbond>
-3.0000

> <Gold.PLP.part.metal>
0.0000

> <Gold.PLP.part.buried>
-4.0539

> <Gold.PLP.part.nonpolar>
-27.2642

> <Gold.PLP.part.repulsive>
0.1335

> <Gold.PLP.ligand.clash>
0.0000

> <Gold.PLP.ligand.torsion>
0.2739

> <Gold.PLP.Chemscore.Hbond>
4.0000

> <Gold.PLP.Chemscore.CHOScore>
0.0000

> <Gold.PLP.Chemscore.Metal>
0.0000

> <Gold.Chemscore.Hbonds>
donor molecule, donor type, donor heavy atom, donor atom, acceptor molecule, acceptor atom, score
      L1  H    11    37       P1  8028  1.92
      P1  H  6896  6909       L1     1  0.93
      P1  H  7997  8009       L1     6  0.05

> <Gold.PLP.Chemscore.Internal.Correction>
0.0087

> <Gold.Rescore>
     Score         DG    S(hbond)    S(metal)    S(lipo)     H(rot)  DE(clash)    DE(int)     intcor
     16.37     -18.84       2.78        0.00      71.98       1.69       0.11       2.37       ----

> <Gold.Chemscore.Fitness>
16.3672

> <Gold.Chemscore.DG>
-18.8437

> <Gold.Chemscore.ZeroCoef>
-5.4800

> <Gold.Chemscore.Hbond>
2.7786

> <Gold.Chemscore.Metal>
0.0000

> <Gold.Chemscore.Lipo>
71.9797

> <Gold.Chemscore.Internal_Hbond>
0.0000

> <Gold.Chemscore.DEClash>
0.1103

> <Gold.Chemscore.DEInternal>
2.3663

> <Gold.Chemscore.Rot>
1.6947

> <Gold.Chemscore.Internal.Correction>
   9.000000E+99

> <Gold.Chemscore.Hbonds>
donor molecule, donor type, donor heavy atom, donor atom, acceptor molecule, acceptor atom, score
      L1  H    11    37       P1  8028  0.92
      P1  H  6896  6909       L1     1  0.91
      P1  H  7997  8009       L1     6  0.08

> <Gold.Chemscore.Hbond.Weighted>
-9.2807

> <Gold.Chemscore.Metal.Weighted>
-0.0000

> <Gold.Chemscore.Lipo.Weighted>
-8.4216

> <Gold.Chemscore.Internal_Hbond.Weighted>
0.0000

> <Gold.Chemscore.DEClash.Weighted>
0.1103

> <Gold.Chemscore.DEInternal.Weighted>
2.3663

> <Gold.Chemscore.Rot.Weighted>
4.3386

> <Gold.Chemscore.Internal.Correction.Weighted>
   9.000000E+99

> <Gold.Protein.RotatedTorsions>
[ 6907 6896 6895 6894 ] final  136.00 input  -60.11 | X-H torsion
[ 7974 7965 7964 7962 ] final  -86.13 input  175.53 | X-H torsion
[ 8008 7997 7996 7995 ] final  138.86 input   59.86 | X-H torsion
[ 10167 10162 10161 10158 ] final  -32.42 input  -65.29 | X-H torsion
[ 10718 10713 10712 10709 ] final   44.11 input   66.30 | X-H torsion
[ 10763 10752 10751 10750 ] final   -1.87 input  -60.55 | X-H torsion
[ 11005 11000 10999 10996 ] final  -73.53 input  -57.11 | X-H torsion

> <Gold.Protein.ActiveResidues>
 VAL166  LYS551  ARG553  GLY616  TRP617  ASP618  TYR619  PRO620  LYS621  CYS622 
 ASP623  PHE694  ASN695  SER759  ASP760  ASP761  ALA762  ILE779  LEU786  VAL792 
 PHE793  MET794  SER795  GLU796  ALA797  LYS798  CYS799  TRP800  GLU811  SER814 

> <Gold.Protein.RotatedAtoms>
  152.2942  133.5591  159.5576 H   0  0  0  0  0  0  0  0  0  0  0  0  # atno 6907 bound_to 6896
  150.7249  134.0384  159.3766 H   0  0  0  0  0  0  0  0  0  0  0  0  # atno 6908 bound_to 6896
  151.8288  135.0628  160.0485 H   0  0  0  0  0  0  0  0  0  0  0  0  # atno 6909 bound_to 6896
  145.4840  140.9556  143.1848 H   0  0  0  0  0  0  0  0  0  0  0  0  # atno 7974 bound_to 7965
  156.2994  140.2382  156.4143 H   0  0  0  0  0  0  0  0  0  0  0  0  # atno 8008 bound_to 7997
  154.8413  140.0428  157.1563 H   0  0  0  0  0  0  0  0  0  0  0  0  # atno 8009 bound_to 7997
  154.9099  140.2989  155.5275 H   0  0  0  0  0  0  0  0  0  0  0  0  # atno 8010 bound_to 7997
  140.7221  143.3696  151.1803 H   0  0  0  0  0  0  0  0  0  0  0  0  # atno 10167 bound_to 10162
  157.4232  130.7981  149.7534 H   0  0  0  0  0  0  0  0  0  0  0  0  # atno 10718 bound_to 10713
  153.3505  135.6985  153.6792 H   0  0  0  0  0  0  0  0  0  0  0  0  # atno 10763 bound_to 10752
  153.5521  135.3551  155.2764 H   0  0  0  0  0  0  0  0  0  0  0  0  # atno 10764 bound_to 10752
  154.8652  135.4229  154.2740 H   0  0  0  0  0  0  0  0  0  0  0  0  # atno 10765 bound_to 10752
  141.1624  133.6881  156.7225 H   0  0  0  0  0  0  0  0  0  0  0  0  # atno 11005 bound_to 11000
  144.7872  139.6402  143.7129 LP  0  0  0  0  0  0  0  0  0  0  0  0  # atno 17320 bound_to 7965
  146.2324  139.5839  142.9546 LP  0  0  0  0  0  0  0  0  0  0  0  0  # atno 17321 bound_to 7965
  139.7265  143.9140  152.3004 LP  0  0  0  0  0  0  0  0  0  0  0  0  # atno 17342 bound_to 10162
  139.8915  144.6963  150.8765 LP  0  0  0  0  0  0  0  0  0  0  0  0  # atno 17343 bound_to 10162
  155.9887  130.3957  150.3104 LP  0  0  0  0  0  0  0  0  0  0  0  0  # atno 17370 bound_to 10713
  157.1253  131.0257  151.2992 LP  0  0  0  0  0  0  0  0  0  0  0  0  # atno 17371 bound_to 10713
  140.2805  134.8320  157.3929 LP  0  0  0  0  0  0  0  0  0  0  0  0  # atno 17394 bound_to 11000
  140.1438  134.4938  155.8012 LP  0  0  0  0  0  0  0  0  0  0  0  0  # atno 17395 bound_to 11000

$$$$
