AV-unprocessed.smi:507|AV-procd|sdf|2752|dock3
  -GOLD-   2262023223D 1   1.00000     0.00000
 Structure written by MMmdl.
 34 35  0  0  0  0  0  0  0  0  2 V2000
  153.0963  142.7987  161.3820 C   0  0  0  0  0  0  0  0  0  0  0  0
  152.4220  142.5311  160.0479 C   0  0  0  0  0  0  0  0  0  0  0  0
  152.6510  141.2975  159.3974 C   0  0  0  0  0  0  0  0  0  0  0  0
  152.0427  141.0097  158.1562 C   0  0  0  0  0  0  0  0  0  0  0  0
  152.1258  139.8853  157.3528 N   0  0  0  0  0  0  0  0  0  0  0  0
  151.3338  140.2208  156.3386 C   0  0  0  0  0  0  0  0  0  0  0  0
  150.7431  141.4306  156.3919 N   0  0  0  0  0  0  0  0  0  0  0  0
  149.8370  142.0117  155.4178 C   0  0  0  0  0  0  0  0  0  0  0  0
  148.7463  141.0197  154.9695 C   0  0  2  0  0  0  0  0  0  0  0  0
  149.2998  140.0995  154.0478 O   0  0  0  0  0  0  0  0  0  0  0  0
  147.5537  141.7291  154.3075 C   0  0  0  0  0  0  0  0  0  0  0  0
  147.0186  142.7999  155.1668 N   0  3  0  0  0  0  0  0  0  0  0  0
  151.1898  141.9963  157.5809 C   0  0  0  0  0  0  0  0  0  0  0  0
  150.9557  143.2283  158.2170 C   0  0  0  0  0  0  0  0  0  0  0  0
  151.5733  143.5006  159.4555 C   0  0  0  0  0  0  0  0  0  0  0  0
  151.3167  144.8342  160.1348 C   0  0  0  0  0  0  0  0  0  0  0  0
  153.7152  141.9561  161.6915 H   0  0  0  0  0  0  0  0  0  0  0  0
  152.3511  142.9692  162.1592 H   0  0  0  0  0  0  0  0  0  0  0  0
  153.7375  143.6779  161.3166 H   0  0  0  0  0  0  0  0  0  0  0  0
  153.2982  140.5593  159.8478 H   0  0  0  0  0  0  0  0  0  0  0  0
  151.1689  139.5457  155.5116 H   0  0  0  0  0  0  0  0  0  0  0  0
  149.3818  142.8955  155.8666 H   0  0  0  0  0  0  0  0  0  0  0  0
  150.4169  142.3602  154.5618 H   0  0  0  0  0  0  0  0  0  0  0  0
  148.3948  140.4623  155.8393 H   0  0  0  0  0  0  0  0  0  0  0  0
  149.0929  140.3854  153.1707 H   0  0  0  0  0  0  0  0  0  0  0  0
  147.8643  142.1832  153.3658 H   0  0  0  0  0  0  0  0  0  0  0  0
  146.7594  141.0193  154.0725 H   0  0  0  0  0  0  0  0  0  0  0  0
  146.1536  143.1479  154.7786 H   0  0  0  0  0  0  0  0  0  0  0  0
  147.6896  143.5523  155.2251 H   0  0  0  0  0  0  0  0  0  0  0  0
  150.3071  143.9577  157.7552 H   0  0  0  0  0  0  0  0  0  0  0  0
  150.6426  145.4576  159.5467 H   0  0  0  0  0  0  0  0  0  0  0  0
  152.2501  145.3823  160.2652 H   0  0  0  0  0  0  0  0  0  0  0  0
  150.8632  144.6833  161.1145 H   0  0  0  0  0  0  0  0  0  0  0  0
  146.8493  142.4313  156.0920 H   0  0  0  0  0  0  0  0  0  0  0  0
  1  2  1  0  0  0  0
  1 17  1  0  0  0  0
  1 18  1  0  0  0  0
  1 19  1  0  0  0  0
  2 15  1  0  0  0  0
  2  3  2  0  0  0  0
  3  4  1  0  0  0  0
  3 20  1  0  0  0  0
  4 13  2  0  0  0  0
  4  5  1  0  0  0  0
  5  6  2  0  0  0  0
  6  7  1  0  0  0  0
  6 21  1  0  0  0  0
  7  8  1  0  0  0  0
  7 13  1  0  0  0  0
  8  9  1  0  0  0  0
  8 22  1  0  0  0  0
  8 23  1  0  0  0  0
  9 10  1  0  0  0  0
  9 11  1  0  0  0  0
  9 24  1  0  0  0  0
 10 25  1  0  0  0  0
 11 12  1  0  0  0  0
 11 26  1  0  0  0  0
 11 27  1  0  0  0  0
 12 28  1  0  0  0  0
 12 29  1  0  0  0  0
 12 34  1  0  0  0  0
 13 14  1  0  0  0  0
 14 15  2  0  0  0  0
 14 30  1  0  0  0  0
 15 16  1  0  0  0  0
 16 31  1  0  0  0  0
 16 32  1  0  0  0  0
 16 33  1  0  0  0  0
M  CHG  1  12   1
M  END
> <s_m_source_file>
AV-unprocessed.smi

> <i_m_source_file_index>
507

> <i_lp_mmshare_version>
43012

> <i_f3d_flags>
0

> <s_epik_input>
W0NIM11jKFtjSF0xKWMoW0NIM10pW2NIXWMoYzEyKW4oW2NIXW4yKVtDSDJdW0NASF0oW09IXSlbQ0gyXVtOSDJd

> <s_epik_cmdline>
J2VwaWtfcHl0aG9uJywgJy1waCcsICc3LjAnLCAnLXRuJywgJzgnLCAnLW1hJywgJzIwMCcsICctbWV0YWxfYmluZGluZycsICctaW1hZScsICc8aW5maWxlLm1hZT4nLCAnLW9tYWUnLCAnPG91dGZpbGUubWFlPic=

> <r_epik_Ionization_Penalty>
0.102893

> <r_epik_Ionization_Penalty_Charging>
0.0134096

> <r_epik_Ionization_Penalty_Neutral>
0.0894835

> <r_epik_State_Penalty>
0.093868

> <r_epik_Charging_Adjusted_Penalty>
0.107278

> <i_epik_Tot_Q>
1

> <i_epik_Tot_abs_Q>
1

> <r_epik_Metal_State_Penalty>
0.010477

> <b_epik_Metal_Only>
0

> <s_lp_Force_Field>
OPLS_2005

> <r_lp_Energy>
7.44215

> <b_lp_Chiralities_Consistent>
1

> <s_lp_Variant>
AV-unprocessed.smi:507-1

> <Gold.Version>
5.8.1

> <Gold.Id.Protein>
6NUR|6NUR_protein|mol2

> <Gold.PLP.Fitness>
50.3372

> <Gold.PLP.PLP>
-38.5625

> <Gold.PLP.part.hbond>
-4.0000

> <Gold.PLP.part.metal>
0.0000

> <Gold.PLP.part.buried>
-3.8271

> <Gold.PLP.part.nonpolar>
-30.5212

> <Gold.PLP.part.repulsive>
0.1182

> <Gold.PLP.ligand.clash>
0.0000

> <Gold.PLP.ligand.torsion>
0.3340

> <Gold.PLP.Chemscore.Hbond>
4.1473

> <Gold.PLP.Chemscore.CHOScore>
0.0000

> <Gold.PLP.Chemscore.Metal>
0.0000

> <Gold.Chemscore.Hbonds>
donor molecule, donor type, donor heavy atom, donor atom, acceptor molecule, acceptor atom, score
      L1  H    10    25       P1  7957  0.68
      L1  H    12    29       P1  8028  1.80
      P1  H  7997  8009       L1     5  0.15

> <Gold.PLP.Chemscore.Internal.Correction>
0.0010

> <Gold.Rescore>
     Score         DG    S(hbond)    S(metal)    S(lipo)     H(rot)  DE(clash)    DE(int)     intcor
     16.72     -19.70       2.43        0.00     101.77       2.27       2.71       0.27       ----

> <Gold.Chemscore.Fitness>
16.7201

> <Gold.Chemscore.DG>
-19.6982

> <Gold.Chemscore.ZeroCoef>
-5.4800

> <Gold.Chemscore.Hbond>
2.4334

> <Gold.Chemscore.Metal>
0.0000

> <Gold.Chemscore.Lipo>
101.7667

> <Gold.Chemscore.Internal_Hbond>
0.0000

> <Gold.Chemscore.DEClash>
2.7128

> <Gold.Chemscore.DEInternal>
0.2653

> <Gold.Chemscore.Rot>
2.2718

> <Gold.Chemscore.Internal.Correction>
   9.000000E+99

> <Gold.Chemscore.Hbonds>
donor molecule, donor type, donor heavy atom, donor atom, acceptor molecule, acceptor atom, score
      L1  H    10    25       P1  7957  0.67
      L1  H    12    29       P1  8028  0.18
      P1  H  7997  8009       L1     5  0.02

> <Gold.Chemscore.Hbond.Weighted>
-8.1274

> <Gold.Chemscore.Metal.Weighted>
-0.0000

> <Gold.Chemscore.Lipo.Weighted>
-11.9067

> <Gold.Chemscore.Internal_Hbond.Weighted>
0.0000

> <Gold.Chemscore.DEClash.Weighted>
2.7128

> <Gold.Chemscore.DEInternal.Weighted>
0.2653

> <Gold.Chemscore.Rot.Weighted>
5.8159

> <Gold.Chemscore.Internal.Correction.Weighted>
   9.000000E+99

> <Gold.Protein.RotatedTorsions>
[ 6907 6896 6895 6894 ] final -106.98 input  -60.11 | X-H torsion
[ 7974 7965 7964 7962 ] final -106.73 input  175.53 | X-H torsion
[ 8008 7997 7996 7995 ] final -179.92 input   59.86 | X-H torsion
[ 10167 10162 10161 10158 ] final  -70.71 input  -65.29 | X-H torsion
[ 10718 10713 10712 10709 ] final   75.08 input   66.30 | X-H torsion
[ 10763 10752 10751 10750 ] final  -39.97 input  -60.55 | X-H torsion
[ 11005 11000 10999 10996 ] final -169.26 input  -57.11 | X-H torsion

> <Gold.Protein.ActiveResidues>
 VAL166  LYS551  ARG553  GLY616  TRP617  ASP618  TYR619  PRO620  LYS621  CYS622 
 ASP623  PHE694  ASN695  SER759  ASP760  ASP761  ALA762  ILE779  LEU786  VAL792 
 PHE793  MET794  SER795  GLU796  ALA797  LYS798  CYS799  TRP800  GLU811  SER814 

> <Gold.Protein.RotatedAtoms>
  150.7419  133.9894  159.3601 H   0  0  0  0  0  0  0  0  0  0  0  0  # atno 6907 bound_to 6896
  151.7841  135.0751  160.0387 H   0  0  0  0  0  0  0  0  0  0  0  0  # atno 6908 bound_to 6896
  152.3253  133.5862  159.5809 H   0  0  0  0  0  0  0  0  0  0  0  0  # atno 6909 bound_to 6896
  145.2142  140.9108  143.3297 H   0  0  0  0  0  0  0  0  0  0  0  0  # atno 7974 bound_to 7965
  156.0361  140.1293  157.0206 H   0  0  0  0  0  0  0  0  0  0  0  0  # atno 8008 bound_to 7997
  154.4370  140.1039  156.6240 H   0  0  0  0  0  0  0  0  0  0  0  0  # atno 8009 bound_to 7997
  155.5736  140.3467  155.4524 H   0  0  0  0  0  0  0  0  0  0  0  0  # atno 8010 bound_to 7997
  140.5331  143.2320  151.7226 H   0  0  0  0  0  0  0  0  0  0  0  0  # atno 10167 bound_to 10162
  157.6619  130.9709  150.1302 H   0  0  0  0  0  0  0  0  0  0  0  0  # atno 10718 bound_to 10713
  153.9382  135.6764  153.4744 H   0  0  0  0  0  0  0  0  0  0  0  0  # atno 10763 bound_to 10752
  153.0945  135.4858  154.8749 H   0  0  0  0  0  0  0  0  0  0  0  0  # atno 10764 bound_to 10752
  154.7391  135.3156  154.8717 H   0  0  0  0  0  0  0  0  0  0  0  0  # atno 10765 bound_to 10752
  140.5327  134.5600  157.5079 H   0  0  0  0  0  0  0  0  0  0  0  0  # atno 11005 bound_to 11000
  144.9827  139.3767  143.6254 LP  0  0  0  0  0  0  0  0  0  0  0  0  # atno 17320 bound_to 7965
  146.3391  139.8974  142.8799 LP  0  0  0  0  0  0  0  0  0  0  0  0  # atno 17321 bound_to 7965
  139.4961  144.4084  152.0107 LP  0  0  0  0  0  0  0  0  0  0  0  0  # atno 17342 bound_to 10162
  140.3188  144.3452  150.6015 LP  0  0  0  0  0  0  0  0  0  0  0  0  # atno 17343 bound_to 10162
  156.2151  130.3669  149.8623 LP  0  0  0  0  0  0  0  0  0  0  0  0  # atno 17370 bound_to 10713
  156.6491  130.8736  151.3528 LP  0  0  0  0  0  0  0  0  0  0  0  0  # atno 17371 bound_to 10713
  139.9545  134.7558  156.0372 LP  0  0  0  0  0  0  0  0  0  0  0  0  # atno 17394 bound_to 11000
  141.1272  133.6596  156.3368 LP  0  0  0  0  0  0  0  0  0  0  0  0  # atno 17395 bound_to 11000

$$$$
