AV-unprocessed.smi:1999|AV-procd|sdf|8092|dock5
  -GOLD-   2272010313D 1   1.00000     0.00000
 Structure written by MMmdl.
 38 39  0  0  0  0  0  0  0  0  1 V2000
  142.5583  133.5687  152.1727 C   0  0  0  0  0  0  0  0  0  0  0  0
  142.9444  134.8675  152.7936 C   0  0  0  0  0  0  0  0  0  0  0  0
  142.4669  135.2777  153.9750 N   0  0  0  0  0  0  0  0  0  0  0  0
  142.9760  136.5137  154.3479 N   0  0  0  0  0  0  0  0  0  0  0  0
  143.8268  137.0001  153.4339 C   0  0  0  0  0  0  0  0  0  0  0  0
  144.4995  138.2437  153.5643 N   0  0  0  0  0  0  0  0  0  0  0  0
  145.6353  138.5107  154.2326 C   0  0  0  0  0  0  0  0  0  0  0  0
  146.2835  137.6958  154.8899 O   0  0  0  0  0  0  0  0  0  0  0  0
  145.9890  139.7967  154.0911 N   0  0  0  0  0  0  0  0  0  0  0  0
  147.1931  140.4107  154.6441 C   0  0  2  0  0  0  0  0  0  0  0  0
  147.2203  141.9107  154.3026 C   0  0  0  0  0  0  0  0  0  0  0  0
  148.4232  139.6644  154.0878 C   0  0  0  0  0  0  0  0  0  0  0  0
  149.5928  139.6219  154.9660 N   0  0  0  0  0  0  0  0  0  0  0  0
  150.6922  138.8399  154.4028 C   0  0  0  0  0  0  0  0  0  0  0  0
  151.9268  138.8374  155.3214 C   0  0  0  0  0  0  0  0  0  0  0  0
  152.3349  140.1761  155.5822 O   0  0  0  0  0  0  0  0  0  0  0  0
  151.3040  140.9559  156.1786 C   0  0  0  0  0  0  0  0  0  0  0  0
  150.0728  140.9690  155.2570 C   0  0  0  0  0  0  0  0  0  0  0  0
  144.0717  135.9794  152.0268 S   0  0  0  0  0  0  0  0  0  0  0  0
  141.7110  133.1274  152.6986 H   0  0  0  0  0  0  0  0  0  0  0  0
  143.3967  132.8733  152.2145 H   0  0  0  0  0  0  0  0  0  0  0  0
  142.2801  133.7212  151.1299 H   0  0  0  0  0  0  0  0  0  0  0  0
  144.0785  139.0165  153.0707 H   0  0  0  0  0  0  0  0  0  0  0  0
  145.3922  140.3939  153.5377 H   0  0  0  0  0  0  0  0  0  0  0  0
  147.1619  140.2963  155.7279 H   0  0  0  0  0  0  0  0  0  0  0  0
  148.0976  142.3963  154.7310 H   0  0  0  0  0  0  0  0  0  0  0  0
  146.3424  142.4230  154.6974 H   0  0  0  0  0  0  0  0  0  0  0  0
  147.2447  142.0730  153.2244 H   0  0  0  0  0  0  0  0  0  0  0  0
  148.1373  138.6444  153.8256 H   0  0  0  0  0  0  0  0  0  0  0  0
  148.7043  140.1420  153.1480 H   0  0  0  0  0  0  0  0  0  0  0  0
  150.3828  137.8082  154.2411 H   0  0  0  0  0  0  0  0  0  0  0  0
  150.9698  139.2410  153.4267 H   0  0  0  0  0  0  0  0  0  0  0  0
  151.7068  138.3278  156.2605 H   0  0  0  0  0  0  0  0  0  0  0  0
  152.7490  138.2994  154.8492 H   0  0  0  0  0  0  0  0  0  0  0  0
  151.0497  140.5488  157.1585 H   0  0  0  0  0  0  0  0  0  0  0  0
  151.6700  141.9704  156.3375 H   0  0  0  0  0  0  0  0  0  0  0  0
  150.3260  141.4806  154.3270 H   0  0  0  0  0  0  0  0  0  0  0  0
  149.2793  141.5514  155.7269 H   0  0  0  0  0  0  0  0  0  0  0  0
  1  2  1  0  0  0  0
  1 20  1  0  0  0  0
  1 21  1  0  0  0  0
  1 22  1  0  0  0  0
  2 19  1  0  0  0  0
  2  3  2  0  0  0  0
  3  4  1  0  0  0  0
  4  5  2  0  0  0  0
  5  6  1  0  0  0  0
  5 19  1  0  0  0  0
  6  7  1  0  0  0  0
  6 23  1  0  0  0  0
  7  8  2  0  0  0  0
  7  9  1  0  0  0  0
  9 10  1  0  0  0  0
  9 24  1  0  0  0  0
 10 11  1  0  0  0  0
 10 12  1  0  0  0  0
 10 25  1  0  0  0  0
 11 26  1  0  0  0  0
 11 27  1  0  0  0  0
 11 28  1  0  0  0  0
 12 13  1  0  0  0  0
 12 29  1  0  0  0  0
 12 30  1  0  0  0  0
 13 18  1  0  0  0  0
 13 14  1  0  0  0  0
 14 15  1  0  0  0  0
 14 31  1  0  0  0  0
 14 32  1  0  0  0  0
 15 16  1  0  0  0  0
 15 33  1  0  0  0  0
 15 34  1  0  0  0  0
 16 17  1  0  0  0  0
 17 18  1  0  0  0  0
 17 35  1  0  0  0  0
 17 36  1  0  0  0  0
 18 37  1  0  0  0  0
 18 38  1  0  0  0  0
M  END
> <s_m_source_file>
AV-unprocessed.smi

> <i_m_source_file_index>
1999

> <i_lp_mmshare_version>
43012

> <i_f3d_flags>
0

> <s_epik_input>
W0NIM11jMW5uYyhzMSlbTkhdQyg9TylbTkhdW0NASF0oW0NIM10pW0NIMl1OMltDSDJdW0NIMl1PW0NIMl1bQ0gyXTI=

> <s_epik_cmdline>
J2VwaWtfcHl0aG9uJywgJy1waCcsICc3LjAnLCAnLXRuJywgJzgnLCAnLW1hJywgJzIwMCcsICctbWV0YWxfYmluZGluZycsICctaW1hZScsICc8aW5maWxlLm1hZT4nLCAnLW9tYWUnLCAnPG91dGZpbGUubWFlPic=

> <r_lp_tautomer_probability>
1

> <r_epik_Ionization_Penalty>
0.221412

> <r_epik_Ionization_Penalty_Charging>
0

> <r_epik_Ionization_Penalty_Neutral>
0.221412

> <r_epik_State_Penalty>
0.209349

> <r_epik_Charging_Adjusted_Penalty>
0.209349

> <i_epik_Tot_Q>
0

> <i_epik_Tot_abs_Q>
0

> <r_epik_Metal_State_Penalty>
0.56886

> <b_epik_Metal_Only>
0

> <s_lp_Force_Field>
OPLS_2005

> <r_lp_Energy>
22.1143

> <b_lp_Chiralities_Consistent>
1

> <s_lp_Variant>
AV-unprocessed.smi:1999-1

> <Gold.Version>
5.8.1

> <Gold.Id.Protein>
6NUR|6NUR_protein|mol2

> <Gold.PLP.Fitness>
34.1015

> <Gold.PLP.PLP>
-27.7507

> <Gold.PLP.part.hbond>
-3.8977

> <Gold.PLP.part.metal>
0.0000

> <Gold.PLP.part.buried>
-0.8505

> <Gold.PLP.part.nonpolar>
-23.6767

> <Gold.PLP.part.repulsive>
0.3001

> <Gold.PLP.ligand.clash>
0.0000

> <Gold.PLP.ligand.torsion>
1.1117

> <Gold.PLP.Chemscore.Hbond>
2.8473

> <Gold.PLP.Chemscore.CHOScore>
0.0000

> <Gold.PLP.Chemscore.Metal>
0.0000

> <Gold.Chemscore.Hbonds>
donor molecule, donor type, donor heavy atom, donor atom, acceptor molecule, acceptor atom, score
      L1  H     6    23       P1 10175  1.00
      L1  H     9    24       P1 10175  0.90
      P1  H  7989  7998       L1    16  0.07
      P1  H  7997  8009       L1    16  0.84

> <Gold.PLP.Chemscore.Internal.Correction>
0.0323

> <Gold.Rescore>
     Score         DG    S(hbond)    S(metal)    S(lipo)     H(rot)  DE(clash)    DE(int)     intcor
     15.77     -17.06       2.58        0.00      60.08       1.58       0.06       1.23       ----

> <Gold.Chemscore.Fitness>
15.7725

> <Gold.Chemscore.DG>
-17.0618

> <Gold.Chemscore.ZeroCoef>
-5.4800

> <Gold.Chemscore.Hbond>
2.5768

> <Gold.Chemscore.Metal>
0.0000

> <Gold.Chemscore.Lipo>
60.0830

> <Gold.Chemscore.Internal_Hbond>
0.0000

> <Gold.Chemscore.DEClash>
0.0551

> <Gold.Chemscore.DEInternal>
1.2342

> <Gold.Chemscore.Rot>
1.5837

> <Gold.Chemscore.Internal.Correction>
   9.000000E+99

> <Gold.Chemscore.Hbonds>
donor molecule, donor type, donor heavy atom, donor atom, acceptor molecule, acceptor atom, score
      L1  H     6    23       P1 10175  0.99
      L1  H     9    24       P1 10175  0.83
      P1  H  7997  8009       L1    16  0.57

> <Gold.Chemscore.Hbond.Weighted>
-8.6064

> <Gold.Chemscore.Metal.Weighted>
-0.0000

> <Gold.Chemscore.Lipo.Weighted>
-7.0297

> <Gold.Chemscore.Internal_Hbond.Weighted>
0.0000

> <Gold.Chemscore.DEClash.Weighted>
0.0551

> <Gold.Chemscore.DEInternal.Weighted>
1.2342

> <Gold.Chemscore.Rot.Weighted>
4.0542

> <Gold.Chemscore.Internal.Correction.Weighted>
   9.000000E+99

> <Gold.Protein.RotatedTorsions>
[ 6907 6896 6895 6894 ] final  148.13 input  -60.11 | X-H torsion
[ 7974 7965 7964 7962 ] final -140.19 input  175.53 | X-H torsion
[ 8008 7997 7996 7995 ] final -151.68 input   59.86 | X-H torsion
[ 10167 10162 10161 10158 ] final   65.23 input  -65.29 | X-H torsion
[ 10718 10713 10712 10709 ] final   17.02 input   66.30 | X-H torsion
[ 10763 10752 10751 10750 ] final   65.81 input  -60.55 | X-H torsion
[ 11005 11000 10999 10996 ] final   52.64 input  -57.11 | X-H torsion

> <Gold.Protein.ActiveResidues>
 VAL166  LYS551  ARG553  GLY616  TRP617  ASP618  TYR619  PRO620  LYS621  CYS622 
 ASP623  PHE694  ASN695  SER759  ASP760  ASP761  ALA762  ILE779  LEU786  VAL792 
 PHE793  MET794  SER795  GLU796  ALA797  LYS798  CYS799  TRP800  GLU811  SER814 

> <Gold.Protein.RotatedAtoms>
  152.1456  133.4490  159.4787 H   0  0  0  0  0  0  0  0  0  0  0  0  # atno 6907 bound_to 6896
  150.6890  134.2252  159.4421 H   0  0  0  0  0  0  0  0  0  0  0  0  # atno 6908 bound_to 6896
  152.0145  134.9857  160.0619 H   0  0  0  0  0  0  0  0  0  0  0  0  # atno 6909 bound_to 6896
  144.8617  140.6230  143.5324 H   0  0  0  0  0  0  0  0  0  0  0  0  # atno 7974 bound_to 7965
  155.6433  140.0704  157.2611 H   0  0  0  0  0  0  0  0  0  0  0  0  # atno 8008 bound_to 7997
  154.4179  140.1746  156.1646 H   0  0  0  0  0  0  0  0  0  0  0  0  # atno 8009 bound_to 7997
  155.9838  140.3351  155.6691 H   0  0  0  0  0  0  0  0  0  0  0  0  # atno 8010 bound_to 7997
  140.1136  144.4796  150.6963 H   0  0  0  0  0  0  0  0  0  0  0  0  # atno 10167 bound_to 10162
  157.0762  130.6368  149.5816 H   0  0  0  0  0  0  0  0  0  0  0  0  # atno 10718 bound_to 10713
  153.0112  135.5343  154.6725 H   0  0  0  0  0  0  0  0  0  0  0  0  # atno 10763 bound_to 10752
  154.5906  135.2858  155.0642 H   0  0  0  0  0  0  0  0  0  0  0  0  # atno 10764 bound_to 10752
  154.1736  135.6528  153.5068 H   0  0  0  0  0  0  0  0  0  0  0  0  # atno 10765 bound_to 10752
  140.0833  134.5309  155.8925 H   0  0  0  0  0  0  0  0  0  0  0  0  # atno 11005 bound_to 11000
  145.4300  139.1550  143.4027 LP  0  0  0  0  0  0  0  0  0  0  0  0  # atno 17320 bound_to 7965
  146.2865  140.4415  142.8756 LP  0  0  0  0  0  0  0  0  0  0  0  0  # atno 17321 bound_to 7965
  140.6912  143.2377  151.5126 LP  0  0  0  0  0  0  0  0  0  0  0  0  # atno 17342 bound_to 10162
  139.5606  144.2166  152.1685 LP  0  0  0  0  0  0  0  0  0  0  0  0  # atno 17343 bound_to 10162
  155.9936  130.4998  150.7388 LP  0  0  0  0  0  0  0  0  0  0  0  0  # atno 17370 bound_to 10713
  157.4838  131.0905  151.0506 LP  0  0  0  0  0  0  0  0  0  0  0  0  # atno 17371 bound_to 10713
  141.2054  133.6646  156.6178 LP  0  0  0  0  0  0  0  0  0  0  0  0  # atno 17394 bound_to 11000
  140.3457  134.7811  157.4430 LP  0  0  0  0  0  0  0  0  0  0  0  0  # atno 17395 bound_to 11000

$$$$
