AV-unprocessed.smi:1254|AV-procd|sdf|5275|dock8
  -GOLD-   22720 4393D 1   1.00000     0.00000
 Structure written by MMmdl.
 45 46  0  0  0  0  0  0  0  0  3 V2000
  146.6545  136.4769  162.5628 C   0  0  0  0  0  0  0  0  0  0  0  0
  147.3324  136.1407  161.2788 C   0  0  0  0  0  0  0  0  0  0  0  0
  147.7176  134.9580  160.7143 C   0  0  0  0  0  0  0  0  0  0  0  0
  148.3089  135.3616  159.4860 C   0  0  0  0  0  0  0  0  0  0  0  0
  148.8331  134.5460  158.5580 N   0  5  0  0  0  0  0  0  0  0  0  0
  149.1486  135.0218  157.3321 C   0  0  0  0  0  0  0  0  0  0  0  0
  149.4969  136.1734  157.0607 O   0  0  0  0  0  0  0  0  0  0  0  0
  149.0635  134.1032  156.3595 N   0  0  0  0  0  0  0  0  0  0  0  0
  149.3719  134.3228  154.9507 C   0  0  0  0  0  0  0  0  0  0  0  0
  149.2147  133.0327  154.1270 C   0  0  2  0  0  0  0  0  0  0  0  0
  147.7792  132.8558  153.5975 C   0  0  0  0  0  0  0  0  0  0  0  0
  147.6589  131.5798  152.8493 N   0  3  2  0  0  0  0  0  0  0  0  0
  146.3155  131.3567  152.2555 C   0  0  0  0  0  0  0  0  0  0  0  0
  145.6574  132.6496  151.7257 C   0  0  0  0  0  0  0  0  0  0  0  0
  144.2256  132.3671  151.2468 C   0  0  0  0  0  0  0  0  0  0  0  0
  146.4814  133.2961  150.5994 C   0  0  0  0  0  0  0  0  0  0  0  0
  148.0975  130.4434  153.6940 C   0  0  0  0  0  0  0  0  0  0  0  0
  149.5117  130.6936  154.2431 C   0  0  0  0  0  0  0  0  0  0  0  0
  149.5303  131.9210  154.9594 O   0  0  0  0  0  0  0  0  0  0  0  0
  148.2710  136.6724  159.3130 N   0  0  0  0  0  0  0  0  0  0  0  0
  147.6512  137.1799  160.4612 O   0  0  0  0  0  0  0  0  0  0  0  0
  145.5733  136.3812  162.4629 H   0  0  0  0  0  0  0  0  0  0  0  0
  146.8775  137.4996  162.8675 H   0  0  0  0  0  0  0  0  0  0  0  0
  146.9818  135.8089  163.3598 H   0  0  0  0  0  0  0  0  0  0  0  0
  147.5988  133.9629  161.1157 H   0  0  0  0  0  0  0  0  0  0  0  0
  148.7719  133.1737  156.6246 H   0  0  0  0  0  0  0  0  0  0  0  0
  148.7057  135.0967  154.5690 H   0  0  0  0  0  0  0  0  0  0  0  0
  150.3864  134.7139  154.8582 H   0  0  0  0  0  0  0  0  0  0  0  0
  149.9037  133.0589  153.2805 H   0  0  0  0  0  0  0  0  0  0  0  0
  147.0675  132.8655  154.4247 H   0  0  0  0  0  0  0  0  0  0  0  0
  147.5322  133.6981  152.9528 H   0  0  0  0  0  0  0  0  0  0  0  0
  146.4032  130.6538  151.4253 H   0  0  0  0  0  0  0  0  0  0  0  0
  145.6739  130.8745  152.9947 H   0  0  0  0  0  0  0  0  0  0  0  0
  145.5767  133.3704  152.5386 H   0  0  0  0  0  0  0  0  0  0  0  0
  144.2161  131.6551  150.4209 H   0  0  0  0  0  0  0  0  0  0  0  0
  143.7380  133.2802  150.9038 H   0  0  0  0  0  0  0  0  0  0  0  0
  143.6158  131.9529  152.0504 H   0  0  0  0  0  0  0  0  0  0  0  0
  146.5966  132.6189  149.7525 H   0  0  0  0  0  0  0  0  0  0  0  0
  147.4784  133.5744  150.9419 H   0  0  0  0  0  0  0  0  0  0  0  0
  146.0010  134.2044  150.2343 H   0  0  0  0  0  0  0  0  0  0  0  0
  147.3956  130.3088  154.5185 H   0  0  0  0  0  0  0  0  0  0  0  0
  148.0898  129.5216  153.1113 H   0  0  0  0  0  0  0  0  0  0  0  0
  149.8013  129.8872  154.9170 H   0  0  0  0  0  0  0  0  0  0  0  0
  150.2472  130.7150  153.4373 H   0  0  0  0  0  0  0  0  0  0  0  0
  148.3108  131.6273  152.0791 H   0  0  0  0  0  0  0  0  0  0  0  0
  1  2  1  0  0  0  0
  1 22  1  0  0  0  0
  1 23  1  0  0  0  0
  1 24  1  0  0  0  0
  2 21  1  0  0  0  0
  2  3  2  0  0  0  0
  3  4  1  0  0  0  0
  3 25  1  0  0  0  0
  4  5  1  0  0  0  0
  4 20  2  0  0  0  0
  5  6  1  0  0  0  0
  6  7  2  0  0  0  0
  6  8  1  0  0  0  0
  8  9  1  0  0  0  0
  8 26  1  0  0  0  0
  9 10  1  0  0  0  0
  9 27  1  0  0  0  0
  9 28  1  0  0  0  0
 10 19  1  0  0  0  0
 10 11  1  0  0  0  0
 10 29  1  0  0  0  0
 11 12  1  0  0  0  0
 11 30  1  0  0  0  0
 11 31  1  0  0  0  0
 12 13  1  0  0  0  0
 12 17  1  0  0  0  0
 12 45  1  0  0  0  0
 13 14  1  0  0  0  0
 13 32  1  0  0  0  0
 13 33  1  0  0  0  0
 14 15  1  0  0  0  0
 14 16  1  0  0  0  0
 14 34  1  0  0  0  0
 15 35  1  0  0  0  0
 15 36  1  0  0  0  0
 15 37  1  0  0  0  0
 16 38  1  0  0  0  0
 16 39  1  0  0  0  0
 16 40  1  0  0  0  0
 17 18  1  0  0  0  0
 17 41  1  0  0  0  0
 17 42  1  0  0  0  0
 18 19  1  0  0  0  0
 18 43  1  0  0  0  0
 18 44  1  0  0  0  0
 20 21  1  0  0  0  0
M  CHG  1   5  -1
M  CHG  1  12   1
M  END
> <s_m_source_file>
AV-unprocessed.smi

> <i_m_source_file_index>
1254

> <i_lp_mmshare_version>
43012

> <i_f3d_flags>
0

> <s_epik_input>
W0NIM11jMVtjSF1jKG5vMSlbTkhdQyg9TylbTkhdW0NIMl1bQ0BASF0yW0NIMl1OKFtDSDJdW0NIMl1PMilbQ0gyXVtDSF0oW0NIM10pW0NIM10=

> <s_epik_cmdline>
J2VwaWtfcHl0aG9uJywgJy1waCcsICc3LjAnLCAnLXRuJywgJzgnLCAnLW1hJywgJzIwMCcsICctbWV0YWxfYmluZGluZycsICctaW1hZScsICc8aW5maWxlLm1hZT4nLCAnLW9tYWUnLCAnPG91dGZpbGUubWFlPic=

> <r_epik_Ionization_Penalty>
6.33139

> <r_epik_Ionization_Penalty_Charging>
6.33128

> <r_epik_Ionization_Penalty_Neutral>
0.000104968

> <r_epik_State_Penalty>
6.32522

> <r_epik_Charging_Adjusted_Penalty>
12.6565

> <i_epik_Tot_Q>
0

> <i_epik_Tot_abs_Q>
2

> <r_epik_Metal_State_Penalty>
2.26285

> <b_epik_Metal_Only>
1

> <s_lp_Force_Field>
OPLS_2005

> <r_lp_Energy>
5.65212

> <b_lp_Chiralities_Consistent>
1

> <s_lp_Variant>
AV-unprocessed.smi:1254-7

> <Gold.Version>
5.8.1

> <Gold.Id.Protein>
6NUR|6NUR_protein|mol2

> <Gold.PLP.Fitness>
46.7662

> <Gold.PLP.PLP>
-35.6855

> <Gold.PLP.part.hbond>
-4.0000

> <Gold.PLP.part.metal>
0.0000

> <Gold.PLP.part.buried>
-5.3993

> <Gold.PLP.part.nonpolar>
-27.2657

> <Gold.PLP.part.repulsive>
0.0471

> <Gold.PLP.ligand.clash>
0.0000

> <Gold.PLP.ligand.torsion>
0.7598

> <Gold.PLP.Chemscore.Hbond>
4.1223

> <Gold.PLP.Chemscore.CHOScore>
0.0000

> <Gold.PLP.Chemscore.Metal>
0.0000

> <Gold.Chemscore.Hbonds>
donor molecule, donor type, donor heavy atom, donor atom, acceptor molecule, acceptor atom, score
      L1  H    12    45       P1 10747  0.92
      P1  H  6896  6907       L1     5  1.50
      P1  H  6931  6943       L1    21  0.28
      P1  H  6934  6947       L1    21  0.94

> <Gold.PLP.Chemscore.Internal.Correction>
0.2335

> <Gold.Rescore>
     Score         DG    S(hbond)    S(metal)    S(lipo)     H(rot)  DE(clash)    DE(int)     intcor
     15.60     -18.04       2.30        0.00      78.75       1.69       0.01       2.43       ----

> <Gold.Chemscore.Fitness>
15.5970

> <Gold.Chemscore.DG>
-18.0396

> <Gold.Chemscore.ZeroCoef>
-5.4800

> <Gold.Chemscore.Hbond>
2.2989

> <Gold.Chemscore.Metal>
0.0000

> <Gold.Chemscore.Lipo>
78.7533

> <Gold.Chemscore.Internal_Hbond>
0.0000

> <Gold.Chemscore.DEClash>
0.0135

> <Gold.Chemscore.DEInternal>
2.4290

> <Gold.Chemscore.Rot>
1.6926

> <Gold.Chemscore.Internal.Correction>
   9.000000E+99

> <Gold.Chemscore.Hbonds>
donor molecule, donor type, donor heavy atom, donor atom, acceptor molecule, acceptor atom, score
      L1  H    12    45       P1 10747  0.83
      P1  H  6896  6907       L1     5  0.16
      P1  H  6931  6943       L1    21  0.05
      P1  H  6934  6947       L1    21  0.89

> <Gold.Chemscore.Hbond.Weighted>
-7.6785

> <Gold.Chemscore.Metal.Weighted>
-0.0000

> <Gold.Chemscore.Lipo.Weighted>
-9.2141

> <Gold.Chemscore.Internal_Hbond.Weighted>
0.0000

> <Gold.Chemscore.DEClash.Weighted>
0.0135

> <Gold.Chemscore.DEInternal.Weighted>
2.4290

> <Gold.Chemscore.Rot.Weighted>
4.3330

> <Gold.Chemscore.Internal.Correction.Weighted>
   9.000000E+99

> <Gold.Protein.RotatedTorsions>
[ 6907 6896 6895 6894 ] final -112.18 input  -60.11 | X-H torsion
[ 7974 7965 7964 7962 ] final  -57.36 input  175.53 | X-H torsion
[ 8008 7997 7996 7995 ] final -124.21 input   59.86 | X-H torsion
[ 10167 10162 10161 10158 ] final -174.47 input  -65.29 | X-H torsion
[ 10718 10713 10712 10709 ] final -171.64 input   66.30 | X-H torsion
[ 10763 10752 10751 10750 ] final  147.26 input  -60.55 | X-H torsion
[ 11005 11000 10999 10996 ] final  -60.86 input  -57.11 | X-H torsion

> <Gold.Protein.ActiveResidues>
 VAL166  LYS551  ARG553  GLY616  TRP617  ASP618  TYR619  PRO620  LYS621  CYS622 
 ASP623  PHE694  ASN695  SER759  ASP760  ASP761  ALA762  ILE779  LEU786  VAL792 
 PHE793  MET794  SER795  GLU796  ALA797  LYS798  CYS799  TRP800  GLU811  SER814 

> <Gold.Protein.RotatedAtoms>
  150.7740  133.9127  159.3374 H   0  0  0  0  0  0  0  0  0  0  0  0  # atno 6907 bound_to 6896
  151.7006  135.0929  160.0259 H   0  0  0  0  0  0  0  0  0  0  0  0  # atno 6908 bound_to 6896
  152.3769  133.6456  159.6166 H   0  0  0  0  0  0  0  0  0  0  0  0  # atno 6909 bound_to 6896
  145.8519  140.8346  142.9981 H   0  0  0  0  0  0  0  0  0  0  0  0  # atno 7974 bound_to 7965
  155.1931  140.0414  157.2904 H   0  0  0  0  0  0  0  0  0  0  0  0  # atno 8008 bound_to 7997
  154.6125  140.2480  155.7623 H   0  0  0  0  0  0  0  0  0  0  0  0  # atno 8009 bound_to 7997
  156.2387  140.2912  156.0394 H   0  0  0  0  0  0  0  0  0  0  0  0  # atno 8010 bound_to 7997
  139.5632  144.1818  152.1272 H   0  0  0  0  0  0  0  0  0  0  0  0  # atno 10167 bound_to 10162
  156.7439  130.9353  151.3111 H   0  0  0  0  0  0  0  0  0  0  0  0  # atno 10718 bound_to 10713
  154.0354  135.2894  155.3362 H   0  0  0  0  0  0  0  0  0  0  0  0  # atno 10763 bound_to 10752
  154.6962  135.5207  153.8464 H   0  0  0  0  0  0  0  0  0  0  0  0  # atno 10764 bound_to 10752
  153.0622  135.6618  154.0563 H   0  0  0  0  0  0  0  0  0  0  0  0  # atno 10765 bound_to 10752
  141.1303  133.6625  156.5287 H   0  0  0  0  0  0  0  0  0  0  0  0  # atno 11005 bound_to 11000
  144.6729  140.0966  143.7462 LP  0  0  0  0  0  0  0  0  0  0  0  0  # atno 17320 bound_to 7965
  145.9348  139.2630  143.1304 LP  0  0  0  0  0  0  0  0  0  0  0  0  # atno 17321 bound_to 7965
  140.1336  144.5266  150.6787 LP  0  0  0  0  0  0  0  0  0  0  0  0  # atno 17342 bound_to 10162
  140.6914  143.2378  151.5121 LP  0  0  0  0  0  0  0  0  0  0  0  0  # atno 17343 bound_to 10162
  157.6806  130.9136  150.0259 LP  0  0  0  0  0  0  0  0  0  0  0  0  # atno 17370 bound_to 10713
  156.1446  130.3642  149.9530 LP  0  0  0  0  0  0  0  0  0  0  0  0  # atno 17371 bound_to 10713
  140.4233  134.7168  157.4902 LP  0  0  0  0  0  0  0  0  0  0  0  0  # atno 17394 bound_to 11000
  140.0345  134.6358  155.9062 LP  0  0  0  0  0  0  0  0  0  0  0  0  # atno 17395 bound_to 11000

$$$$
