AV-unprocessed.smi:3122|AV-procd|sdf|11896|dock8
  -GOLD-   2272017283D 1   1.00000     0.00000
 Structure written by MMmdl.
 30 31  0  0  0  0  0  0  0  0  2 V2000
  149.9193  134.7237  154.6960 C   0  0  0  0  0  0  0  0  0  0  0  0
  148.9274  133.5550  154.6117 C   0  0  0  0  0  0  0  0  0  0  0  0
  149.5775  132.2787  154.0578 C   0  0  0  0  0  0  0  0  0  0  0  0
  147.6975  133.9325  153.8475 C   0  0  0  0  0  0  0  0  0  0  0  0
  146.6122  134.5593  154.3107 N   0  0  0  0  0  0  0  0  0  0  0  0
  145.7299  134.6149  153.2561 N   0  0  0  0  0  0  0  0  0  0  0  0
  146.3284  133.9763  152.2470 C   0  0  0  0  0  0  0  0  0  0  0  0
  145.8238  133.7976  150.8515 C   0  0  2  0  0  0  0  0  0  0  0  0
  144.4137  134.3873  150.6593 C   0  0  0  0  0  0  0  0  0  0  0  0
  143.9277  134.0991  149.2957 N   0  3  0  0  0  0  0  0  0  0  0  0
  143.9779  132.6537  148.9981 C   0  0  0  0  0  0  0  0  0  0  0  0
  145.3955  132.1096  149.2485 C   0  0  0  0  0  0  0  0  0  0  0  0
  145.7914  132.3973  150.5856 O   0  0  0  0  0  0  0  0  0  0  0  0
  147.5732  133.5287  152.5558 O   0  0  0  0  0  0  0  0  0  0  0  0
  149.4588  135.5972  155.1586 H   0  0  0  0  0  0  0  0  0  0  0  0
  150.2704  135.0174  153.7061 H   0  0  0  0  0  0  0  0  0  0  0  0
  150.7918  134.4559  155.2923 H   0  0  0  0  0  0  0  0  0  0  0  0
  148.6104  133.3314  155.6313 H   0  0  0  0  0  0  0  0  0  0  0  0
  148.8745  131.4452  154.0672 H   0  0  0  0  0  0  0  0  0  0  0  0
  150.4418  131.9875  154.6555 H   0  0  0  0  0  0  0  0  0  0  0  0
  149.9163  132.4177  153.0305 H   0  0  0  0  0  0  0  0  0  0  0  0
  146.5296  134.2780  150.1712 H   0  0  0  0  0  0  0  0  0  0  0  0
  143.7193  133.9574  151.3831 H   0  0  0  0  0  0  0  0  0  0  0  0
  144.4201  135.4657  150.8204 H   0  0  0  0  0  0  0  0  0  0  0  0
  142.9778  134.4296  149.1999 H   0  0  0  0  0  0  0  0  0  0  0  0
  143.2574  132.1322  149.6294 H   0  0  0  0  0  0  0  0  0  0  0  0
  143.6797  132.4864  147.9629 H   0  0  0  0  0  0  0  0  0  0  0  0
  145.4160  131.0300  149.0984 H   0  0  0  0  0  0  0  0  0  0  0  0
  146.1088  132.5427  148.5455 H   0  0  0  0  0  0  0  0  0  0  0  0
  144.5139  134.5860  148.6325 H   0  0  0  0  0  0  0  0  0  0  0  0
  1  2  1  0  0  0  0
  1 15  1  0  0  0  0
  1 16  1  0  0  0  0
  1 17  1  0  0  0  0
  2  3  1  0  0  0  0
  2  4  1  0  0  0  0
  2 18  1  0  0  0  0
  3 19  1  0  0  0  0
  3 20  1  0  0  0  0
  3 21  1  0  0  0  0
  4 14  1  0  0  0  0
  4  5  2  0  0  0  0
  5  6  1  0  0  0  0
  6  7  2  0  0  0  0
  7  8  1  0  0  0  0
  7 14  1  0  0  0  0
  8 13  1  0  0  0  0
  8  9  1  0  0  0  0
  8 22  1  0  0  0  0
  9 10  1  0  0  0  0
  9 23  1  0  0  0  0
  9 24  1  0  0  0  0
 10 11  1  0  0  0  0
 10 25  1  0  0  0  0
 10 30  1  0  0  0  0
 11 12  1  0  0  0  0
 11 26  1  0  0  0  0
 11 27  1  0  0  0  0
 12 13  1  0  0  0  0
 12 28  1  0  0  0  0
 12 29  1  0  0  0  0
M  CHG  1  10   1
M  END
> <s_m_source_file>
AV-unprocessed.smi

> <i_m_source_file_index>
3122

> <i_lp_mmshare_version>
43012

> <i_f3d_flags>
0

> <s_epik_input>
W0NIM11bQ0hdKFtDSDNdKWMxbm5jKG8xKVtDQEBIXTJbQ0gyXVtOSF1bQ0gyXVtDSDJdTzI=

> <s_epik_cmdline>
J2VwaWtfcHl0aG9uJywgJy1waCcsICc3LjAnLCAnLXRuJywgJzgnLCAnLW1hJywgJzIwMCcsICctbWV0YWxfYmluZGluZycsICctaW1hZScsICc8aW5maWxlLm1hZT4nLCAnLW9tYWUnLCAnPG91dGZpbGUubWFlPic=

> <r_lp_tautomer_probability>
1

> <r_epik_Ionization_Penalty>
0.0380945

> <r_epik_Ionization_Penalty_Charging>
0.0380945

> <r_epik_Ionization_Penalty_Neutral>
3.26791e-13

> <r_epik_State_Penalty>
0.0319257

> <r_epik_Charging_Adjusted_Penalty>
0.0700202

> <i_epik_Tot_Q>
1

> <i_epik_Tot_abs_Q>
1

> <r_epik_Metal_State_Penalty>
0.0319257

> <b_epik_Metal_Only>
0

> <s_lp_Force_Field>
OPLS_2005

> <r_lp_Energy>
10.6056

> <b_lp_Chiralities_Consistent>
1

> <s_lp_Variant>
AV-unprocessed.smi:3122-1

> <Gold.Version>
5.8.1

> <Gold.Id.Protein>
6NUR|6NUR_protein|mol2

> <Gold.PLP.Fitness>
33.8791

> <Gold.PLP.PLP>
-26.1336

> <Gold.PLP.part.hbond>
-2.0000

> <Gold.PLP.part.metal>
0.0000

> <Gold.PLP.part.buried>
-4.6654

> <Gold.PLP.part.nonpolar>
-20.1865

> <Gold.PLP.part.repulsive>
0.7016

> <Gold.PLP.ligand.clash>
0.0000

> <Gold.PLP.ligand.torsion>
0.6756

> <Gold.PLP.Chemscore.Hbond>
3.0000

> <Gold.PLP.Chemscore.CHOScore>
0.0000

> <Gold.PLP.Chemscore.Metal>
0.0000

> <Gold.Chemscore.Hbonds>
donor molecule, donor type, donor heavy atom, donor atom, acceptor molecule, acceptor atom, score
      L1  H    10    25       P1 10186  2.00
      L1  H    10    30       P1  7921  1.00

> <Gold.PLP.Chemscore.Internal.Correction>
0.0966

> <Gold.Rescore>
     Score         DG    S(hbond)    S(metal)    S(lipo)     H(rot)  DE(clash)    DE(int)     intcor
     14.61     -15.31       1.94        0.00      56.11       1.26       0.07       0.63       ----

> <Gold.Chemscore.Fitness>
14.6069

> <Gold.Chemscore.DG>
-15.3050

> <Gold.Chemscore.ZeroCoef>
-5.4800

> <Gold.Chemscore.Hbond>
1.9436

> <Gold.Chemscore.Metal>
0.0000

> <Gold.Chemscore.Lipo>
56.1148

> <Gold.Chemscore.Internal_Hbond>
0.0000

> <Gold.Chemscore.DEClash>
0.0707

> <Gold.Chemscore.DEInternal>
0.6274

> <Gold.Chemscore.Rot>
1.2625

> <Gold.Chemscore.Internal.Correction>
   9.000000E+99

> <Gold.Chemscore.Hbonds>
donor molecule, donor type, donor heavy atom, donor atom, acceptor molecule, acceptor atom, score
      L1  H    10    25       P1 10186  0.95
      L1  H    10    30       P1  7921  0.97

> <Gold.Chemscore.Hbond.Weighted>
-6.4916

> <Gold.Chemscore.Metal.Weighted>
-0.0000

> <Gold.Chemscore.Lipo.Weighted>
-6.5654

> <Gold.Chemscore.Internal_Hbond.Weighted>
0.0000

> <Gold.Chemscore.DEClash.Weighted>
0.0707

> <Gold.Chemscore.DEInternal.Weighted>
0.6274

> <Gold.Chemscore.Rot.Weighted>
3.2320

> <Gold.Chemscore.Internal.Correction.Weighted>
   9.000000E+99

> <Gold.Protein.RotatedTorsions>
[ 6907 6896 6895 6894 ] final  -14.08 input  -60.11 | X-H torsion
[ 7974 7965 7964 7962 ] final  101.10 input  175.53 | X-H torsion
[ 8008 7997 7996 7995 ] final -175.75 input   59.86 | X-H torsion
[ 10167 10162 10161 10158 ] final  -52.75 input  -65.29 | X-H torsion
[ 10718 10713 10712 10709 ] final   43.84 input   66.30 | X-H torsion
[ 10763 10752 10751 10750 ] final   72.66 input  -60.55 | X-H torsion
[ 11005 11000 10999 10996 ] final   63.51 input  -57.11 | X-H torsion

> <Gold.Protein.ActiveResidues>
 VAL166  LYS551  ARG553  GLY616  TRP617  ASP618  TYR619  PRO620  LYS621  CYS622 
 ASP623  PHE694  ASN695  SER759  ASP760  ASP761  ALA762  ILE779  LEU786  VAL792 
 PHE793  MET794  SER795  GLU796  ALA797  LYS798  CYS799  TRP800  GLU811  SER814 

> <Gold.Protein.RotatedAtoms>
  151.3449  135.0872  159.9383 H   0  0  0  0  0  0  0  0  0  0  0  0  # atno 6907 bound_to 6896
  152.5202  133.9410  159.7636 H   0  0  0  0  0  0  0  0  0  0  0  0  # atno 6908 bound_to 6896
  150.9774  133.6227  159.2757 H   0  0  0  0  0  0  0  0  0  0  0  0  # atno 6909 bound_to 6896
  145.3768  139.2387  143.3425 H   0  0  0  0  0  0  0  0  0  0  0  0  # atno 7974 bound_to 7965
  155.9864  140.1192  157.0679 H   0  0  0  0  0  0  0  0  0  0  0  0  # atno 8008 bound_to 7997
  154.4198  140.1134  156.5573 H   0  0  0  0  0  0  0  0  0  0  0  0  # atno 8009 bound_to 7997
  155.6402  140.3473  155.4714 H   0  0  0  0  0  0  0  0  0  0  0  0  # atno 8010 bound_to 7997
  140.6521  143.2573  151.4694 H   0  0  0  0  0  0  0  0  0  0  0  0  # atno 10167 bound_to 10162
  157.4203  130.7965  149.7509 H   0  0  0  0  0  0  0  0  0  0  0  0  # atno 10718 bound_to 10713
  153.0472  135.5092  154.7777 H   0  0  0  0  0  0  0  0  0  0  0  0  # atno 10763 bound_to 10752
  154.6667  135.2947  154.9798 H   0  0  0  0  0  0  0  0  0  0  0  0  # atno 10764 bound_to 10752
  154.0630  135.6688  153.4867 H   0  0  0  0  0  0  0  0  0  0  0  0  # atno 10765 bound_to 10752
  140.0020  134.6428  155.9915 H   0  0  0  0  0  0  0  0  0  0  0  0  # atno 11005 bound_to 11000
  146.2860  140.4428  142.8757 LP  0  0  0  0  0  0  0  0  0  0  0  0  # atno 17320 bound_to 7965
  144.8537  140.7038  143.6152 LP  0  0  0  0  0  0  0  0  0  0  0  0  # atno 17321 bound_to 7965
  139.5737  144.1868  152.1873 LP  0  0  0  0  0  0  0  0  0  0  0  0  # atno 17342 bound_to 10162
  140.1172  144.5405  150.6886 LP  0  0  0  0  0  0  0  0  0  0  0  0  # atno 17343 bound_to 10162
  155.9878  130.3964  150.3146 LP  0  0  0  0  0  0  0  0  0  0  0  0  # atno 17370 bound_to 10713
  157.1293  131.0267  151.2976 LP  0  0  0  0  0  0  0  0  0  0  0  0  # atno 17371 bound_to 10713
  141.1649  133.6537  156.4444 LP  0  0  0  0  0  0  0  0  0  0  0  0  # atno 17394 bound_to 11000
  140.4711  134.6753  157.5129 LP  0  0  0  0  0  0  0  0  0  0  0  0  # atno 17395 bound_to 11000

$$$$
