AV-unprocessed.smi:3128|AV-procd|sdf|11921|dock1
  -GOLD-   2272017303D 1   1.00000     0.00000
 Structure written by MMmdl.
 39 39  0  0  0  0  0  0  0  0  1 V2000
  150.8181  136.8792  154.5335 C   0  0  0  0  0  0  0  0  0  0  0  0
  150.8200  138.3787  154.1764 C   0  0  0  0  0  0  0  0  0  0  0  0
  151.9551  139.0844  154.9401 C   0  0  0  0  0  0  0  0  0  0  0  0
  149.4393  139.0440  154.4204 C   0  0  1  0  0  0  0  0  0  0  0  0
  149.4868  140.5832  154.3645 C   0  0  0  0  0  0  0  0  0  0  0  0
  148.4691  138.5631  153.4374 N   0  0  0  0  0  0  0  0  0  0  0  0
  147.2672  139.1079  153.1915 C   0  0  0  0  0  0  0  0  0  0  0  0
  146.8415  140.1059  153.7729 O   0  0  0  0  0  0  0  0  0  0  0  0
  146.4127  138.4191  152.1289 C   0  0  0  0  0  0  0  0  0  0  0  0
  146.5621  136.9621  152.1836 N   0  0  0  0  0  0  0  0  0  0  0  0
  145.6332  136.3186  151.2675 C   0  0  0  0  0  0  0  0  0  0  0  0
  144.8169  135.2596  152.0228 C   0  0  0  0  0  0  0  0  0  0  0  0
  144.5101  134.1199  151.1799 N   0  0  0  0  0  0  0  0  0  0  0  0
  145.0975  133.7526  149.9877 C   0  0  0  0  0  0  0  0  0  0  0  0
  144.4752  132.6143  149.5617 C   0  0  0  0  0  0  0  0  0  0  0  0
  143.5087  132.3586  150.5744 C   0  0  0  0  0  0  0  0  0  0  0  0
  143.5324  133.2611  151.5418 N   0  0  0  0  0  0  0  0  0  0  0  0
  150.5525  136.7231  155.5795 H   0  0  0  0  0  0  0  0  0  0  0  0
  151.8014  136.4363  154.3724 H   0  0  0  0  0  0  0  0  0  0  0  0
  150.1135  136.3141  153.9232 H   0  0  0  0  0  0  0  0  0  0  0  0
  151.0484  138.4558  153.1123 H   0  0  0  0  0  0  0  0  0  0  0  0
  151.7578  139.1063  156.0123 H   0  0  0  0  0  0  0  0  0  0  0  0
  152.0954  140.1108  154.6025 H   0  0  0  0  0  0  0  0  0  0  0  0
  152.9061  138.5728  154.7897 H   0  0  0  0  0  0  0  0  0  0  0  0
  149.0989  138.7498  155.4153 H   0  0  0  0  0  0  0  0  0  0  0  0
  150.1032  140.9980  155.1613 H   0  0  0  0  0  0  0  0  0  0  0  0
  148.4921  141.0137  154.4840 H   0  0  0  0  0  0  0  0  0  0  0  0
  149.8864  140.9340  153.4124 H   0  0  0  0  0  0  0  0  0  0  0  0
  148.7294  137.7426  152.9098 H   0  0  0  0  0  0  0  0  0  0  0  0
  145.3696  138.6912  152.2971 H   0  0  0  0  0  0  0  0  0  0  0  0
  146.6845  138.7817  151.1356 H   0  0  0  0  0  0  0  0  0  0  0  0
  147.5046  136.6794  151.9567 H   0  0  0  0  0  0  0  0  0  0  0  0
  144.9670  137.0640  150.8299 H   0  0  0  0  0  0  0  0  0  0  0  0
  146.1856  135.8516  150.4506 H   0  0  0  0  0  0  0  0  0  0  0  0
  145.3663  134.9042  152.8958 H   0  0  0  0  0  0  0  0  0  0  0  0
  143.8805  135.6842  152.3887 H   0  0  0  0  0  0  0  0  0  0  0  0
  145.8993  134.3259  149.5460 H   0  0  0  0  0  0  0  0  0  0  0  0
  144.6791  132.0502  148.6638 H   0  0  0  0  0  0  0  0  0  0  0  0
  142.7956  131.5497  150.6348 H   0  0  0  0  0  0  0  0  0  0  0  0
  1  2  1  0  0  0  0
  1 18  1  0  0  0  0
  1 19  1  0  0  0  0
  1 20  1  0  0  0  0
  2  3  1  0  0  0  0
  2  4  1  0  0  0  0
  2 21  1  0  0  0  0
  3 22  1  0  0  0  0
  3 23  1  0  0  0  0
  3 24  1  0  0  0  0
  4  5  1  0  0  0  0
  4  6  1  0  0  0  0
  4 25  1  0  0  0  0
  5 26  1  0  0  0  0
  5 27  1  0  0  0  0
  5 28  1  0  0  0  0
  6  7  1  0  0  0  0
  6 29  1  0  0  0  0
  7  8  2  0  0  0  0
  7  9  1  0  0  0  0
  9 10  1  0  0  0  0
  9 30  1  0  0  0  0
  9 31  1  0  0  0  0
 10 11  1  0  0  0  0
 10 32  1  0  0  0  0
 11 12  1  0  0  0  0
 11 33  1  0  0  0  0
 11 34  1  0  0  0  0
 12 13  1  0  0  0  0
 12 35  1  0  0  0  0
 12 36  1  0  0  0  0
 13 17  1  0  0  0  0
 13 14  1  0  0  0  0
 14 15  2  0  0  0  0
 14 37  1  0  0  0  0
 15 16  1  0  0  0  0
 15 38  1  0  0  0  0
 16 17  2  0  0  0  0
 16 39  1  0  0  0  0
M  END
> <s_m_source_file>
AV-unprocessed.smi

> <i_m_source_file_index>
3128

> <i_lp_mmshare_version>
43012

> <i_f3d_flags>
0

> <s_epik_input>
W0NIM11bQ0hdKFtDSDNdKVtDQEhdKFtDSDNdKVtOSF1DKD1PKVtDSDJdW05IXVtDSDJdW0NIMl1uMVtjSF1bY0hdW2NIXW4x

> <s_epik_cmdline>
J2VwaWtfcHl0aG9uJywgJy1waCcsICc3LjAnLCAnLXRuJywgJzgnLCAnLW1hJywgJzIwMCcsICctbWV0YWxfYmluZGluZycsICctaW1hZScsICc8aW5maWxlLm1hZT4nLCAnLW9tYWUnLCAnPG91dGZpbGUubWFlPic=

> <r_lp_tautomer_probability>
1

> <r_epik_Ionization_Penalty>
0.724947

> <r_epik_Ionization_Penalty_Charging>
0

> <r_epik_Ionization_Penalty_Neutral>
0.724947

> <r_epik_State_Penalty>
0.747959

> <r_epik_Charging_Adjusted_Penalty>
0.747959

> <i_epik_Tot_Q>
0

> <i_epik_Tot_abs_Q>
0

> <r_epik_Metal_State_Penalty>
0.746178

> <b_epik_Metal_Only>
0

> <s_lp_Force_Field>
OPLS_2005

> <r_lp_Energy>
7.09657

> <b_lp_Chiralities_Consistent>
1

> <s_lp_Variant>
AV-unprocessed.smi:3128-4

> <Gold.Version>
5.8.1

> <Gold.Id.Protein>
6NUR|6NUR_protein|mol2

> <Gold.PLP.Fitness>
45.9474

> <Gold.PLP.PLP>
-36.8309

> <Gold.PLP.part.hbond>
-3.0000

> <Gold.PLP.part.metal>
0.0000

> <Gold.PLP.part.buried>
-2.7646

> <Gold.PLP.part.nonpolar>
-32.2396

> <Gold.PLP.part.repulsive>
0.4058

> <Gold.PLP.ligand.clash>
0.0000

> <Gold.PLP.ligand.torsion>
1.5263

> <Gold.PLP.Chemscore.Hbond>
2.0000

> <Gold.PLP.Chemscore.CHOScore>
1.9733

> <Gold.PLP.Chemscore.Metal>
0.0000

> <Gold.Chemscore.Hbonds>
donor molecule, donor type, donor heavy atom, donor atom, acceptor molecule, acceptor atom, score
      L1  H     6    29       P1  7948  1.00
      L1  H    10    32       P1  7948  0.93
      L1  C    14    37       P1  7921  0.85
      L1  C    16    39       P1 10952  0.97

> <Gold.PLP.Chemscore.Internal.Correction>
0.2492

> <Gold.Rescore>
     Score         DG    S(hbond)    S(metal)    S(lipo)     H(rot)  DE(clash)    DE(int)     intcor
     13.59     -16.37       1.99        0.00      83.11       2.15       0.06       2.72       ----

> <Gold.Chemscore.Fitness>
13.5879

> <Gold.Chemscore.DG>
-16.3652

> <Gold.Chemscore.ZeroCoef>
-5.4800

> <Gold.Chemscore.Hbond>
1.9948

> <Gold.Chemscore.Metal>
0.0000

> <Gold.Chemscore.Lipo>
83.1066

> <Gold.Chemscore.Internal_Hbond>
0.0000

> <Gold.Chemscore.DEClash>
0.0617

> <Gold.Chemscore.DEInternal>
2.7156

> <Gold.Chemscore.Rot>
2.1488

> <Gold.Chemscore.Internal.Correction>
   9.000000E+99

> <Gold.Chemscore.Hbonds>
donor molecule, donor type, donor heavy atom, donor atom, acceptor molecule, acceptor atom, score
      L1  H     6    29       P1  7948  1.00
      L1  H    10    32       P1  7948  0.89

> <Gold.Chemscore.Hbond.Weighted>
-6.6628

> <Gold.Chemscore.Metal.Weighted>
-0.0000

> <Gold.Chemscore.Lipo.Weighted>
-9.7235

> <Gold.Chemscore.Internal_Hbond.Weighted>
0.0000

> <Gold.Chemscore.DEClash.Weighted>
0.0617

> <Gold.Chemscore.DEInternal.Weighted>
2.7156

> <Gold.Chemscore.Rot.Weighted>
5.5010

> <Gold.Chemscore.Internal.Correction.Weighted>
   9.000000E+99

> <Gold.Protein.RotatedTorsions>
[ 6907 6896 6895 6894 ] final  -16.52 input  -60.11 | X-H torsion
[ 7974 7965 7964 7962 ] final   42.69 input  175.53 | X-H torsion
[ 8008 7997 7996 7995 ] final  -88.84 input   59.86 | X-H torsion
[ 10167 10162 10161 10158 ] final  -83.96 input  -65.29 | X-H torsion
[ 10718 10713 10712 10709 ] final  160.50 input   66.30 | X-H torsion
[ 10763 10752 10751 10750 ] final  105.39 input  -60.55 | X-H torsion
[ 11005 11000 10999 10996 ] final -132.72 input  -57.11 | X-H torsion

> <Gold.Protein.ActiveResidues>
 VAL166  LYS551  ARG553  GLY616  TRP617  ASP618  TYR619  PRO620  LYS621  CYS622 
 ASP623  PHE694  ASN695  SER759  ASP760  ASP761  ALA762  ILE779  LEU786  VAL792 
 PHE793  MET794  SER795  GLU796  ALA797  LYS798  CYS799  TRP800  GLU811  SER814 

> <Gold.Protein.RotatedAtoms>
  151.3074  135.0785  159.9259 H   0  0  0  0  0  0  0  0  0  0  0  0  # atno 6907 bound_to 6896
  152.5285  133.9771  159.7799 H   0  0  0  0  0  0  0  0  0  0  0  0  # atno 6908 bound_to 6896
  151.0069  133.5951  159.2718 H   0  0  0  0  0  0  0  0  0  0  0  0  # atno 6909 bound_to 6896
  146.0719  139.5271  142.9592 H   0  0  0  0  0  0  0  0  0  0  0  0  # atno 7974 bound_to 7965
  154.6795  140.0549  157.0251 H   0  0  0  0  0  0  0  0  0  0  0  0  # atno 8008 bound_to 7997
  155.0971  140.3225  155.4538 H   0  0  0  0  0  0  0  0  0  0  0  0  # atno 8009 bound_to 7997
  156.2689  140.2037  156.6098 H   0  0  0  0  0  0  0  0  0  0  0  0  # atno 8010 bound_to 7997
  140.4178  143.2597  151.8931 H   0  0  0  0  0  0  0  0  0  0  0  0  # atno 10167 bound_to 10162
  157.1495  131.0560  151.2287 H   0  0  0  0  0  0  0  0  0  0  0  0  # atno 10718 bound_to 10713
  153.3788  135.3911  155.1842 H   0  0  0  0  0  0  0  0  0  0  0  0  # atno 10763 bound_to 10752
  154.8705  135.3720  154.4884 H   0  0  0  0  0  0  0  0  0  0  0  0  # atno 10764 bound_to 10752
  153.5359  135.7085  153.5721 H   0  0  0  0  0  0  0  0  0  0  0  0  # atno 10765 bound_to 10752
  140.9145  134.1525  157.4363 H   0  0  0  0  0  0  0  0  0  0  0  0  # atno 11005 bound_to 11000
  145.6377  141.0291  143.1829 LP  0  0  0  0  0  0  0  0  0  0  0  0  # atno 17320 bound_to 7965
  144.7237  139.7946  143.7373 LP  0  0  0  0  0  0  0  0  0  0  0  0  # atno 17321 bound_to 7965
  139.4782  144.5470  151.8444 LP  0  0  0  0  0  0  0  0  0  0  0  0  # atno 17342 bound_to 10162
  140.4567  144.1779  150.5902 LP  0  0  0  0  0  0  0  0  0  0  0  0  # atno 17343 bound_to 10162
  157.4234  130.7450  149.6931 LP  0  0  0  0  0  0  0  0  0  0  0  0  # atno 17370 bound_to 10713
  155.9773  130.4064  150.3720 LP  0  0  0  0  0  0  0  0  0  0  0  0  # atno 17371 bound_to 10713
  139.8763  134.9948  156.5713 LP  0  0  0  0  0  0  0  0  0  0  0  0  # atno 17394 bound_to 11000
  140.8067  133.8461  155.8774 LP  0  0  0  0  0  0  0  0  0  0  0  0  # atno 17395 bound_to 11000

$$$$
