AV-unprocessed.smi:707|AV-procd|sdf|3454|dock8
  -GOLD-   22720 0443D 1   1.00000     0.00000
 Structure written by MMmdl.
 44 45  0  0  0  0  0  0  0  0  1 V2000
  147.7981  136.5323  162.9185 C   0  0  0  0  0  0  0  0  0  0  0  0
  147.6980  135.4909  161.8516 C   0  0  0  0  0  0  0  0  0  0  0  0
  147.0747  134.3179  162.0136 N   0  0  0  0  0  0  0  0  0  0  0  0
  147.2086  133.6571  160.8081 N   0  0  0  0  0  0  0  0  0  0  0  0
  147.9000  134.4980  160.0397 C   0  0  0  0  0  0  0  0  0  0  0  0
  148.2369  135.6565  160.6266 N   0  0  0  0  0  0  0  0  0  0  0  0
  148.9771  136.7722  160.0670 C   0  0  0  0  0  0  0  0  0  0  0  0
  149.2577  136.5681  158.5722 C   0  0  0  0  0  0  0  0  0  0  0  0
  150.3257  137.4509  158.1261 N   0  0  0  0  0  0  0  0  0  0  0  0
  151.4555  137.6787  158.8113 C   0  0  0  0  0  0  0  0  0  0  0  0
  151.7058  137.1542  159.8960 O   0  0  0  0  0  0  0  0  0  0  0  0
  152.4650  138.6292  158.1704 C   0  0  0  0  0  0  0  0  0  0  0  0
  151.8320  139.8781  157.9249 O   0  0  0  0  0  0  0  0  0  0  0  0
  151.9174  140.8034  159.0016 C   0  0  1  0  0  0  0  0  0  0  0  0
  153.3986  140.9030  159.4041 C   0  0  0  0  0  0  0  0  0  0  0  0
  153.6063  141.9385  160.5194 C   0  0  0  0  0  0  0  0  0  0  0  0
  153.0631  143.3151  160.1058 C   0  0  0  0  0  0  0  0  0  0  0  0
  151.5794  143.2378  159.6971 C   0  0  1  0  0  0  0  0  0  0  0  0
  151.0415  144.6129  159.2756 C   0  0  0  0  0  0  0  0  0  0  0  0
  151.3772  142.1885  158.5859 C   0  0  0  0  0  0  0  0  0  0  0  0
  147.2078  136.2444  163.7889 H   0  0  0  0  0  0  0  0  0  0  0  0
  147.4255  137.4885  162.5517 H   0  0  0  0  0  0  0  0  0  0  0  0
  148.8361  136.6534  163.2285 H   0  0  0  0  0  0  0  0  0  0  0  0
  148.1671  134.2625  159.0200 H   0  0  0  0  0  0  0  0  0  0  0  0
  148.4104  137.6893  160.2320 H   0  0  0  0  0  0  0  0  0  0  0  0
  149.9129  136.8767  160.6178 H   0  0  0  0  0  0  0  0  0  0  0  0
  149.5453  135.5333  158.3799 H   0  0  0  0  0  0  0  0  0  0  0  0
  148.3554  136.7648  157.9908 H   0  0  0  0  0  0  0  0  0  0  0  0
  150.1990  137.9244  157.2435 H   0  0  0  0  0  0  0  0  0  0  0  0
  153.3222  138.7448  158.8339 H   0  0  0  0  0  0  0  0  0  0  0  0
  152.8211  138.1905  157.2372 H   0  0  0  0  0  0  0  0  0  0  0  0
  151.3540  140.4275  159.8579 H   0  0  0  0  0  0  0  0  0  0  0  0
  153.7614  139.9285  159.7323 H   0  0  0  0  0  0  0  0  0  0  0  0
  153.9983  141.1795  158.5356 H   0  0  0  0  0  0  0  0  0  0  0  0
  153.1041  141.6039  161.4278 H   0  0  0  0  0  0  0  0  0  0  0  0
  154.6664  142.0157  160.7625 H   0  0  0  0  0  0  0  0  0  0  0  0
  153.1876  144.0189  160.9296 H   0  0  0  0  0  0  0  0  0  0  0  0
  153.6551  143.7038  159.2760 H   0  0  0  0  0  0  0  0  0  0  0  0
  151.0079  142.9155  160.5689 H   0  0  0  0  0  0  0  0  0  0  0  0
  151.5753  144.9983  158.4063 H   0  0  0  0  0  0  0  0  0  0  0  0
  151.1477  145.3401  160.0810 H   0  0  0  0  0  0  0  0  0  0  0  0
  149.9831  144.5586  159.0193 H   0  0  0  0  0  0  0  0  0  0  0  0
  151.8810  142.5163  157.6755 H   0  0  0  0  0  0  0  0  0  0  0  0
  150.3166  142.1245  158.3440 H   0  0  0  0  0  0  0  0  0  0  0  0
  1  2  1  0  0  0  0
  1 21  1  0  0  0  0
  1 22  1  0  0  0  0
  1 23  1  0  0  0  0
  2  6  1  0  0  0  0
  2  3  2  0  0  0  0
  3  4  1  0  0  0  0
  4  5  2  0  0  0  0
  5  6  1  0  0  0  0
  5 24  1  0  0  0  0
  6  7  1  0  0  0  0
  7  8  1  0  0  0  0
  7 25  1  0  0  0  0
  7 26  1  0  0  0  0
  8  9  1  0  0  0  0
  8 27  1  0  0  0  0
  8 28  1  0  0  0  0
  9 10  1  0  0  0  0
  9 29  1  0  0  0  0
 10 11  2  0  0  0  0
 10 12  1  0  0  0  0
 12 13  1  0  0  0  0
 12 30  1  0  0  0  0
 12 31  1  0  0  0  0
 13 14  1  0  0  0  0
 14 20  1  0  0  0  0
 14 15  1  0  0  0  0
 14 32  1  0  0  0  0
 15 16  1  0  0  0  0
 15 33  1  0  0  0  0
 15 34  1  0  0  0  0
 16 17  1  0  0  0  0
 16 35  1  0  0  0  0
 16 36  1  0  0  0  0
 17 18  1  0  0  0  0
 17 37  1  0  0  0  0
 17 38  1  0  0  0  0
 18 19  1  0  0  0  0
 18 20  1  0  0  0  0
 18 39  1  0  0  0  0
 19 40  1  0  0  0  0
 19 41  1  0  0  0  0
 19 42  1  0  0  0  0
 20 43  1  0  0  0  0
 20 44  1  0  0  0  0
M  END
> <s_m_source_file>
AV-unprocessed.smi

> <i_m_source_file_index>
707

> <i_lp_mmshare_version>
43012

> <i_f3d_flags>
0

> <s_epik_input>
W0NIM11jMW5uW2NIXW4xW0NIMl1bQ0gyXVtOSF1DKD1PKVtDSDJdT1tDQEBIXTJbQ0gyXVtDSDJdW0NIMl1bQ0BASF0oW0NIM10pW0NIMl0y

> <s_epik_cmdline>
J2VwaWtfcHl0aG9uJywgJy1waCcsICc3LjAnLCAnLXRuJywgJzgnLCAnLW1hJywgJzIwMCcsICctbWV0YWxfYmluZGluZycsICctaW1hZScsICc8aW5maWxlLm1hZT4nLCAnLW9tYWUnLCAnPG91dGZpbGUubWFlPic=

> <r_lp_tautomer_probability>
1

> <r_epik_Ionization_Penalty>
0.000271783

> <r_epik_Ionization_Penalty_Charging>
0

> <r_epik_Ionization_Penalty_Neutral>
0.000271783

> <r_epik_State_Penalty>
-0

> <r_epik_Charging_Adjusted_Penalty>
0

> <i_epik_Tot_Q>
0

> <i_epik_Tot_abs_Q>
0

> <r_epik_Metal_State_Penalty>
-0

> <b_epik_Metal_Only>
0

> <s_lp_Force_Field>
OPLS_2005

> <r_lp_Energy>
13.3019

> <b_lp_Chiralities_Consistent>
1

> <s_lp_Variant>
AV-unprocessed.smi:707-2

> <Gold.Version>
5.8.1

> <Gold.Id.Protein>
6NUR|6NUR_protein|mol2

> <Gold.PLP.Fitness>
41.4372

> <Gold.PLP.PLP>
-39.2728

> <Gold.PLP.part.hbond>
-1.0000

> <Gold.PLP.part.metal>
0.0000

> <Gold.PLP.part.buried>
-4.9749

> <Gold.PLP.part.nonpolar>
-33.0194

> <Gold.PLP.part.repulsive>
0.0994

> <Gold.PLP.ligand.clash>
0.0000

> <Gold.PLP.ligand.torsion>
0.4539

> <Gold.PLP.Chemscore.Hbond>
1.0000

> <Gold.PLP.Chemscore.CHOScore>
0.0000

> <Gold.PLP.Chemscore.Metal>
0.0000

> <Gold.Chemscore.Hbonds>
donor molecule, donor type, donor heavy atom, donor atom, acceptor molecule, acceptor atom, score
      P1  H  6896  6907       L1    11  1.00

> <Gold.PLP.Chemscore.Internal.Correction>
0.0722

> <Gold.Rescore>
     Score         DG    S(hbond)    S(metal)    S(lipo)     H(rot)  DE(clash)    DE(int)     intcor
     11.75     -13.39       1.00        0.00      92.08       2.42       0.00       1.64       ----

> <Gold.Chemscore.Fitness>
11.7477

> <Gold.Chemscore.DG>
-13.3914

> <Gold.Chemscore.ZeroCoef>
-5.4800

> <Gold.Chemscore.Hbond>
0.9972

> <Gold.Chemscore.Metal>
0.0000

> <Gold.Chemscore.Lipo>
92.0837

> <Gold.Chemscore.Internal_Hbond>
0.0000

> <Gold.Chemscore.DEClash>
0.0000

> <Gold.Chemscore.DEInternal>
1.6438

> <Gold.Chemscore.Rot>
2.4191

> <Gold.Chemscore.Internal.Correction>
   9.000000E+99

> <Gold.Chemscore.Hbonds>
donor molecule, donor type, donor heavy atom, donor atom, acceptor molecule, acceptor atom, score
      P1  H  6896  6907       L1    11  0.83

> <Gold.Chemscore.Hbond.Weighted>
-3.3305

> <Gold.Chemscore.Metal.Weighted>
-0.0000

> <Gold.Chemscore.Lipo.Weighted>
-10.7738

> <Gold.Chemscore.Internal_Hbond.Weighted>
0.0000

> <Gold.Chemscore.DEClash.Weighted>
0.0000

> <Gold.Chemscore.DEInternal.Weighted>
1.6438

> <Gold.Chemscore.Rot.Weighted>
6.1929

> <Gold.Chemscore.Internal.Correction.Weighted>
   9.000000E+99

> <Gold.Protein.RotatedTorsions>
[ 6907 6896 6895 6894 ] final  -12.77 input  -60.11 | X-H torsion
[ 7974 7965 7964 7962 ] final -101.67 input  175.53 | X-H torsion
[ 8008 7997 7996 7995 ] final  123.98 input   59.86 | X-H torsion
[ 10167 10162 10161 10158 ] final  -95.64 input  -65.29 | X-H torsion
[ 10718 10713 10712 10709 ] final   27.85 input   66.30 | X-H torsion
[ 10763 10752 10751 10750 ] final  -55.38 input  -60.55 | X-H torsion
[ 11005 11000 10999 10996 ] final  165.34 input  -57.11 | X-H torsion

> <Gold.Protein.ActiveResidues>
 VAL166  LYS551  ARG553  GLY616  TRP617  ASP618  TYR619  PRO620  LYS621  CYS622 
 ASP623  PHE694  ASN695  SER759  ASP760  ASP761  ALA762  ILE779  LEU786  VAL792 
 PHE793  MET794  SER795  GLU796  ALA797  LYS798  CYS799  TRP800  GLU811  SER814 

> <Gold.Protein.RotatedAtoms>
  151.3653  135.0912  159.9447 H   0  0  0  0  0  0  0  0  0  0  0  0  # atno 6907 bound_to 6896
  152.5150  133.9218  159.7548 H   0  0  0  0  0  0  0  0  0  0  0  0  # atno 6908 bound_to 6896
  150.9621  133.6380  159.2782 H   0  0  0  0  0  0  0  0  0  0  0  0  # atno 6909 bound_to 6896
  145.2786  140.9320  143.2945 H   0  0  0  0  0  0  0  0  0  0  0  0  # atno 7974 bound_to 7965
  156.2785  140.2750  156.1715 H   0  0  0  0  0  0  0  0  0  0  0  0  # atno 8008 bound_to 7997
  155.0650  140.0387  157.2607 H   0  0  0  0  0  0  0  0  0  0  0  0  # atno 8009 bound_to 7997
  154.7086  140.2664  155.6656 H   0  0  0  0  0  0  0  0  0  0  0  0  # atno 8010 bound_to 7997
  140.3020  143.3156  152.0238 H   0  0  0  0  0  0  0  0  0  0  0  0  # atno 10167 bound_to 10162
  157.2257  130.7000  149.6290 H   0  0  0  0  0  0  0  0  0  0  0  0  # atno 10718 bound_to 10713
  154.1898  135.6429  153.5057 H   0  0  0  0  0  0  0  0  0  0  0  0  # atno 10763 bound_to 10752
  153.0038  135.5426  154.6427 H   0  0  0  0  0  0  0  0  0  0  0  0  # atno 10764 bound_to 10752
  154.5813  135.2925  155.0703 H   0  0  0  0  0  0  0  0  0  0  0  0  # atno 10765 bound_to 10752
  140.2551  134.7946  157.3538 H   0  0  0  0  0  0  0  0  0  0  0  0  # atno 11005 bound_to 11000
  144.9273  139.4340  143.6512 LP  0  0  0  0  0  0  0  0  0  0  0  0  # atno 17320 bound_to 7965
  146.3223  139.8165  142.8935 LP  0  0  0  0  0  0  0  0  0  0  0  0  # atno 17321 bound_to 7965
  139.4913  144.6448  151.6800 LP  0  0  0  0  0  0  0  0  0  0  0  0  # atno 17342 bound_to 10162
  140.5642  144.0217  150.6184 LP  0  0  0  0  0  0  0  0  0  0  0  0  # atno 17343 bound_to 10162
  155.9679  130.4505  150.5700 LP  0  0  0  0  0  0  0  0  0  0  0  0  # atno 17370 bound_to 10713
  157.3530  131.0737  151.1698 LP  0  0  0  0  0  0  0  0  0  0  0  0  # atno 17371 bound_to 10713
  140.1520  134.4838  155.7955 LP  0  0  0  0  0  0  0  0  0  0  0  0  # atno 17394 bound_to 11000
  141.2197  133.6866  156.7394 LP  0  0  0  0  0  0  0  0  0  0  0  0  # atno 17395 bound_to 11000

$$$$
