AV-unprocessed.smi:38|AV-procd|sdf|349|dock7
  -GOLD-   2262016193D 1   1.00000     0.00000
 Structure written by MMmdl.
 27 28  0  0  0  0  0  0  0  0  2 V2000
  154.6290  138.3507  157.2341 O   0  0  0  0  0  0  0  0  0  0  0  0
  153.4652  138.7115  157.0657 C   0  0  0  0  0  0  0  0  0  0  0  0
  153.0346  139.3041  155.9146 N   0  5  0  0  0  0  0  0  0  0  0  0
  151.7425  139.7054  155.7307 C   0  0  0  0  0  0  0  0  0  0  0  0
  151.3422  140.2290  154.6906 O   0  0  0  0  0  0  0  0  0  0  0  0
  150.8052  139.5094  156.7815 N   0  0  0  0  0  0  0  0  0  0  0  0
  149.3714  139.9474  156.5753 C   0  0  1  0  0  0  0  0  0  0  0  0
  149.3143  141.4368  156.1968 C   0  0  0  0  0  0  0  0  0  0  0  0
  148.2945  141.4504  155.0748 C   0  0  1  0  0  0  0  0  0  0  0  0
  148.5246  142.5265  154.1885 O   0  0  0  0  0  0  0  0  0  0  0  0
  148.5529  140.0903  154.4238 C   0  0  2  0  0  0  0  0  0  0  0  0
  147.4491  139.5228  153.5133 C   0  0  0  0  0  0  0  0  0  0  0  0
  147.9004  138.4254  152.7467 O   0  0  0  0  0  0  0  0  0  0  0  0
  148.8055  139.2202  155.5207 O   0  0  0  0  0  0  0  0  0  0  0  0
  151.2122  138.9010  157.9576 C   0  0  0  0  0  0  0  0  0  0  0  0
  152.4887  138.5024  158.1330 C   0  0  0  0  0  0  0  0  0  0  0  0
  152.8537  137.9143  159.2852 F   0  0  0  0  0  0  0  0  0  0  0  0
  148.8368  139.6999  157.4936 H   0  0  0  0  0  0  0  0  0  0  0  0
  147.2902  141.5125  155.4947 H   0  0  0  0  0  0  0  0  0  0  0  0
  149.4802  140.1413  153.8499 H   0  0  0  0  0  0  0  0  0  0  0  0
  149.0340  142.0517  157.0526 H   0  0  0  0  0  0  0  0  0  0  0  0
  150.2930  141.7595  155.8354 H   0  0  0  0  0  0  0  0  0  0  0  0
  148.5566  143.3261  154.6912 H   0  0  0  0  0  0  0  0  0  0  0  0
  146.6133  139.1794  154.1231 H   0  0  0  0  0  0  0  0  0  0  0  0
  147.0628  140.2983  152.8515 H   0  0  0  0  0  0  0  0  0  0  0  0
  148.3705  138.7557  151.9963 H   0  0  0  0  0  0  0  0  0  0  0  0
  150.5080  138.7335  158.7578 H   0  0  0  0  0  0  0  0  0  0  0  0
  1  2  2  0  0  0  0
  2 16  1  0  0  0  0
  2  3  1  0  0  0  0
  3  4  1  0  0  0  0
  4  5  2  0  0  0  0
  4  6  1  0  0  0  0
  6  7  1  0  0  0  0
  6 15  1  0  0  0  0
  7 18  1  0  0  0  0
  7 14  1  0  0  0  0
  7  8  1  0  0  0  0
  8  9  1  0  0  0  0
  8 21  1  0  0  0  0
  8 22  1  0  0  0  0
  9 19  1  0  0  0  0
  9 10  1  0  0  0  0
  9 11  1  0  0  0  0
 10 23  1  0  0  0  0
 11 20  1  0  0  0  0
 11 12  1  0  0  0  0
 11 14  1  0  0  0  0
 12 13  1  0  0  0  0
 12 24  1  0  0  0  0
 12 25  1  0  0  0  0
 13 26  1  0  0  0  0
 15 16  2  0  0  0  0
 15 27  1  0  0  0  0
 16 17  1  0  0  0  0
M  CHG  1   3  -1
M  END
> <s_m_source_file>
AV-unprocessed.smi

> <i_m_source_file_index>
38

> <i_lp_mmshare_version>
43012

> <i_f3d_flags>
0

> <s_epik_input>
Tz1jMVtuSF1jKD1PKW4oW2NIXWMxRilbQ0BIXTJbQ0gyXVtDQEhdKFtPSF0pW0NASF0oTzIpW0NIMl1bT0hd

> <s_epik_cmdline>
J2VwaWtfcHl0aG9uJywgJy1waCcsICc3LjAnLCAnLXRuJywgJzgnLCAnLW1hJywgJzIwMCcsICctbWV0YWxfYmluZGluZycsICctaW1hZScsICc8aW5maWxlLm1hZT4nLCAnLW9tYWUnLCAnPG91dGZpbGUubWFlPic=

> <r_epik_Ionization_Penalty>
1.68146

> <r_epik_Ionization_Penalty_Charging>
3.4211e-08

> <r_epik_Ionization_Penalty_Neutral>
1.68146

> <r_epik_State_Penalty>
1.78593

> <r_epik_Charging_Adjusted_Penalty>
1.78593

> <i_epik_Tot_Q>
-1

> <i_epik_Tot_abs_Q>
1

> <r_epik_Metal_State_Penalty>
0.0113696

> <b_epik_Metal_Only>
0

> <s_epik_Chemistry_Notes>
This compound contains an acetal/aminal-like group ( X-CH(R)-Y where X, Y are N, S, or O) that may be acid/base labile, releasing an aldehyde.

> <s_lp_Force_Field>
OPLS_2005

> <r_lp_Energy>
38.28

> <b_lp_Chiralities_Consistent>
1

> <s_lp_Variant>
AV-unprocessed.smi:38-15

> <Gold.Version>
5.8.1

> <Gold.Id.Protein>
6NUR|6NUR_protein|mol2

> <Gold.PLP.Fitness>
39.3757

> <Gold.PLP.PLP>
-23.8935

> <Gold.PLP.part.hbond>
-7.0104

> <Gold.PLP.part.metal>
0.0000

> <Gold.PLP.part.buried>
-3.0888

> <Gold.PLP.part.nonpolar>
-14.3213

> <Gold.PLP.part.repulsive>
0.0762

> <Gold.PLP.ligand.clash>
0.0000

> <Gold.PLP.ligand.torsion>
0.1199

> <Gold.PLP.Chemscore.Hbond>
5.2392

> <Gold.PLP.Chemscore.CHOScore>
0.0000

> <Gold.PLP.Chemscore.Metal>
0.0000

> <Gold.Chemscore.Hbonds>
donor molecule, donor type, donor heavy atom, donor atom, acceptor molecule, acceptor atom, score
      L1  H    10    23       P1  8028  1.00
      L1  H    13    26       P1  7957  1.00
      P1  H  7989  7998       L1     5  0.63
      P1  H  7997  8008       L1     1  0.10
      P1  H  7997  8009       L1     3  0.20
      P1  H  8011  8017       L1    10  0.06

> <Gold.PLP.Chemscore.Internal.Correction>
0.0045

> <Gold.Rescore>
     Score         DG    S(hbond)    S(metal)    S(lipo)     H(rot)  DE(clash)    DE(int)     intcor
      9.54     -13.82       3.59        0.00      31.84       2.88       0.03       4.25       ----

> <Gold.Chemscore.Fitness>
9.5433

> <Gold.Chemscore.DG>
-13.8212

> <Gold.Chemscore.ZeroCoef>
-5.4800

> <Gold.Chemscore.Hbond>
3.5907

> <Gold.Chemscore.Metal>
0.0000

> <Gold.Chemscore.Lipo>
31.8353

> <Gold.Chemscore.Internal_Hbond>
0.0000

> <Gold.Chemscore.DEClash>
0.0275

> <Gold.Chemscore.DEInternal>
4.2504

> <Gold.Chemscore.Rot>
2.8815

> <Gold.Chemscore.Internal.Correction>
   9.000000E+99

> <Gold.Chemscore.Hbonds>
donor molecule, donor type, donor heavy atom, donor atom, acceptor molecule, acceptor atom, score
      L1  H    10    23       P1  8028  1.00
      L1  H    13    26       P1  7957  0.85
      P1  H  7989  7998       L1     5  0.62
      P1  H  7997  8008       L1     1  0.04
      P1  H  8011  8017       L1    10  0.07

> <Gold.Chemscore.Hbond.Weighted>
-11.9930

> <Gold.Chemscore.Metal.Weighted>
-0.0000

> <Gold.Chemscore.Lipo.Weighted>
-3.7247

> <Gold.Chemscore.Internal_Hbond.Weighted>
0.0000

> <Gold.Chemscore.DEClash.Weighted>
0.0275

> <Gold.Chemscore.DEInternal.Weighted>
4.2504

> <Gold.Chemscore.Rot.Weighted>
7.3765

> <Gold.Chemscore.Internal.Correction.Weighted>
   9.000000E+99

> <Gold.Protein.RotatedTorsions>
[ 6907 6896 6895 6894 ] final  -92.77 input  -60.11 | X-H torsion
[ 7974 7965 7964 7962 ] final  -48.00 input  175.53 | X-H torsion
[ 8008 7997 7996 7995 ] final -148.66 input   59.86 | X-H torsion
[ 10167 10162 10161 10158 ] final -150.30 input  -65.29 | X-H torsion
[ 10718 10713 10712 10709 ] final   62.63 input   66.30 | X-H torsion
[ 10763 10752 10751 10750 ] final  168.89 input  -60.55 | X-H torsion
[ 11005 11000 10999 10996 ] final   59.70 input  -57.11 | X-H torsion

> <Gold.Protein.ActiveResidues>
 VAL166  LYS551  ARG553  GLY616  TRP617  ASP618  TYR619  PRO620  LYS621  CYS622 
 ASP623  PHE694  ASN695  SER759  ASP760  ASP761  ALA762  ILE779  LEU786  VAL792 
 PHE793  MET794  SER795  GLU796  ALA797  LYS798  CYS799  TRP800  GLU811  SER814 

> <Gold.Protein.RotatedAtoms>
  150.6911  134.2070  159.4344 H   0  0  0  0  0  0  0  0  0  0  0  0  # atno 6907 bound_to 6896
  152.0034  134.9914  160.0575 H   0  0  0  0  0  0  0  0  0  0  0  0  # atno 6908 bound_to 6896
  152.1557  133.4515  159.4873 H   0  0  0  0  0  0  0  0  0  0  0  0  # atno 6909 bound_to 6896
  145.9557  140.7528  142.9482 H   0  0  0  0  0  0  0  0  0  0  0  0  # atno 7974 bound_to 7965
  155.5952  140.0656  157.2748 H   0  0  0  0  0  0  0  0  0  0  0  0  # atno 8008 bound_to 7997
  154.4294  140.1828  156.1162 H   0  0  0  0  0  0  0  0  0  0  0  0  # atno 8009 bound_to 7997
  156.0202  140.3317  155.7034 H   0  0  0  0  0  0  0  0  0  0  0  0  # atno 8010 bound_to 7997
  139.7367  143.8725  152.2551 H   0  0  0  0  0  0  0  0  0  0  0  0  # atno 10167 bound_to 10162
  157.5914  130.9060  149.9612 H   0  0  0  0  0  0  0  0  0  0  0  0  # atno 10718 bound_to 10713
  154.3751  135.2753  155.2244 H   0  0  0  0  0  0  0  0  0  0  0  0  # atno 10763 bound_to 10752
  154.4374  135.5962  153.6111 H   0  0  0  0  0  0  0  0  0  0  0  0  # atno 10764 bound_to 10752
  152.9836  135.6010  154.3987 H   0  0  0  0  0  0  0  0  0  0  0  0  # atno 10765 bound_to 10752
  140.0284  134.6048  155.9540 H   0  0  0  0  0  0  0  0  0  0  0  0  # atno 11005 bound_to 11000
  144.6804  140.2508  143.7332 LP  0  0  0  0  0  0  0  0  0  0  0  0  # atno 17320 bound_to 7965
  145.8109  139.2003  143.1993 LP  0  0  0  0  0  0  0  0  0  0  0  0  # atno 17321 bound_to 7965
  139.8664  144.7091  150.9039 LP  0  0  0  0  0  0  0  0  0  0  0  0  # atno 17342 bound_to 10162
  140.7780  143.3775  151.1537 LP  0  0  0  0  0  0  0  0  0  0  0  0  # atno 17343 bound_to 10162
  156.0969  130.3658  150.0289 LP  0  0  0  0  0  0  0  0  0  0  0  0  # atno 17370 bound_to 10713
  156.8411  130.9426  151.3632 LP  0  0  0  0  0  0  0  0  0  0  0  0  # atno 17371 bound_to 10713
  141.1817  133.6547  156.5046 LP  0  0  0  0  0  0  0  0  0  0  0  0  # atno 17394 bound_to 11000
  140.4266  134.7139  157.4919 LP  0  0  0  0  0  0  0  0  0  0  0  0  # atno 17395 bound_to 11000

$$$$
