AV-unprocessed.smi:261|AV-procd|sdf|1995|dock5
  -GOLD-   2262021183D 1   1.00000     0.00000
 Structure written by MMmdl.
 51 54  0  0  0  0  0  0  0  0  1 V2000
  152.9496  132.7063  156.9908 C   0  0  0  0  0  0  0  0  0  0  0  0
  151.6109  132.6397  156.5273 O   0  0  0  0  0  0  0  0  0  0  0  0
  151.2165  133.7789  155.7773 C   0  0  1  0  0  0  0  0  0  0  0  0
  149.7962  133.6159  155.2495 C   0  0  0  0  0  0  0  0  0  0  0  0
  149.3676  135.0628  154.9739 C   0  0  1  0  0  0  0  0  0  0  0  0
  147.8411  135.2260  154.9870 C   0  0  0  0  0  0  0  0  0  0  0  0
  147.2548  135.4875  153.8164 N   0  0  0  0  0  0  0  0  0  0  0  0
  147.1976  135.1059  156.0282 O   0  0  0  0  0  0  0  0  0  0  0  0
  150.0163  135.8338  156.0379 N   0  0  0  0  0  0  0  0  0  0  0  0
  150.3127  137.1152  155.7289 C   0  0  0  0  0  0  0  0  0  0  0  0
  150.1640  137.4928  154.4361 N   0  0  0  0  0  0  0  0  0  0  0  0
  150.4532  138.7453  154.0697 C   0  0  0  0  0  0  0  0  0  0  0  0
  150.8988  139.7544  154.8222 N   0  0  0  0  0  0  0  0  0  0  0  0
  151.0480  139.3739  156.1236 C   0  0  0  0  0  0  0  0  0  0  0  0
  150.7769  138.0852  156.6608 C   0  0  0  0  0  0  0  0  0  0  0  0
  151.0464  138.0708  158.0242 N   0  0  0  0  0  0  0  0  0  0  0  0
  151.4618  139.2820  158.2774 C   0  0  0  0  0  0  0  0  0  0  0  0
  151.5017  140.1270  157.1911 N   0  0  0  0  0  0  0  0  0  0  0  0
  151.9341  141.5128  157.1827 C   0  0  0  0  0  0  0  0  0  0  0  0
  150.8997  142.4645  157.8192 C   0  0  1  0  0  0  0  0  0  0  0  0
  149.7350  141.7313  158.1417 O   0  0  0  0  0  0  0  0  0  0  0  0
  151.4152  143.2420  159.0518 C   0  0  1  0  0  0  0  0  0  0  0  0
  152.3371  144.4409  158.7725 C   0  0  0  0  0  0  0  0  0  0  0  0
  151.7787  145.5451  159.6580 C   0  0  0  0  0  0  0  0  0  0  0  0
  150.8623  144.8023  160.6246 C   0  0  0  0  0  0  0  0  0  0  0  0
  150.3388  143.7535  159.8279 O   0  0  0  0  0  0  0  0  0  0  0  0
  151.1087  135.0565  156.6162 C   0  0  0  0  0  0  0  0  0  0  0  0
  151.8881  133.9395  154.9316 H   0  0  0  0  0  0  0  0  0  0  0  0
  149.7538  135.3663  153.9987 H   0  0  0  0  0  0  0  0  0  0  0  0
  153.1909  131.7950  157.5378 H   0  0  0  0  0  0  0  0  0  0  0  0
  153.0993  133.5494  157.6658 H   0  0  0  0  0  0  0  0  0  0  0  0
  153.6504  132.7942  156.1597 H   0  0  0  0  0  0  0  0  0  0  0  0
  149.7518  132.9852  154.3611 H   0  0  0  0  0  0  0  0  0  0  0  0
  149.1656  133.1618  156.0166 H   0  0  0  0  0  0  0  0  0  0  0  0
  146.2531  135.6041  153.7681 H   0  0  0  0  0  0  0  0  0  0  0  0
  147.8179  135.5677  152.9821 H   0  0  0  0  0  0  0  0  0  0  0  0
  150.3091  138.9703  153.0232 H   0  0  0  0  0  0  0  0  0  0  0  0
  151.7628  139.5909  159.2681 H   0  0  0  0  0  0  0  0  0  0  0  0
  152.8874  141.5800  157.7082 H   0  0  0  0  0  0  0  0  0  0  0  0
  152.1261  141.8037  156.1490 H   0  0  0  0  0  0  0  0  0  0  0  0
  150.6010  143.1972  157.0689 H   0  0  0  0  0  0  0  0  0  0  0  0
  149.4608  141.2546  157.3731 H   0  0  0  0  0  0  0  0  0  0  0  0
  151.9624  142.5536  159.6987 H   0  0  0  0  0  0  0  0  0  0  0  0
  153.3646  144.1979  159.0455 H   0  0  0  0  0  0  0  0  0  0  0  0
  152.3433  144.7506  157.7274 H   0  0  0  0  0  0  0  0  0  0  0  0
  152.5546  146.1178  160.1669 H   0  0  0  0  0  0  0  0  0  0  0  0
  151.1903  146.2367  159.0540 H   0  0  0  0  0  0  0  0  0  0  0  0
  151.4296  144.3821  161.4569 H   0  0  0  0  0  0  0  0  0  0  0  0
  150.0724  145.4354  161.0292 H   0  0  0  0  0  0  0  0  0  0  0  0
  150.8284  134.8143  157.6422 H   0  0  0  0  0  0  0  0  0  0  0  0
  152.0590  135.5922  156.6572 H   0  0  0  0  0  0  0  0  0  0  0  0
  1  2  1  0  0  0  0
  1 30  1  0  0  0  0
  1 31  1  0  0  0  0
  1 32  1  0  0  0  0
  2  3  1  0  0  0  0
  3 28  1  0  0  0  0
  3 27  1  0  0  0  0
  3  4  1  0  0  0  0
  4  5  1  0  0  0  0
  4 33  1  0  0  0  0
  4 34  1  0  0  0  0
  5 29  1  0  0  0  0
  5  6  1  0  0  0  0
  5  9  1  0  0  0  0
  6  7  1  0  0  0  0
  6  8  2  0  0  0  0
  7 35  1  0  0  0  0
  7 36  1  0  0  0  0
  9 10  1  0  0  0  0
  9 27  1  0  0  0  0
 10 15  1  0  0  0  0
 10 11  2  0  0  0  0
 11 12  1  0  0  0  0
 12 13  2  0  0  0  0
 12 37  1  0  0  0  0
 13 14  1  0  0  0  0
 14 18  1  0  0  0  0
 14 15  2  0  0  0  0
 15 16  1  0  0  0  0
 16 17  2  0  0  0  0
 17 18  1  0  0  0  0
 17 38  1  0  0  0  0
 18 19  1  0  0  0  0
 19 20  1  0  0  0  0
 19 39  1  0  0  0  0
 19 40  1  0  0  0  0
 20 21  1  0  0  0  0
 20 22  1  0  0  0  0
 20 41  1  0  0  0  0
 21 42  1  0  0  0  0
 22 26  1  0  0  0  0
 22 23  1  0  0  0  0
 22 43  1  0  0  0  0
 23 24  1  0  0  0  0
 23 44  1  0  0  0  0
 23 45  1  0  0  0  0
 24 25  1  0  0  0  0
 24 46  1  0  0  0  0
 24 47  1  0  0  0  0
 25 26  1  0  0  0  0
 25 48  1  0  0  0  0
 25 49  1  0  0  0  0
 27 50  1  0  0  0  0
 27 51  1  0  0  0  0
M  END
> <s_m_source_file>
AV-unprocessed.smi

> <i_m_source_file_index>
261

> <i_lp_mmshare_version>
43012

> <i_f3d_flags>
0

> <s_epik_input>
W0NIM11PW0NASF0xW0NIMl1bQ0BASF0oQyg9TylbTkgyXSlOKFtDSDJdMSljKG5bY0hdbjIpYyhjMjMpbltjSF1uM1tDSDJdW0NASF0oW09IXSlbQ0BASF00W0NIMl1bQ0gyXVtDSDJdTzQ=

> <s_epik_cmdline>
J2VwaWtfcHl0aG9uJywgJy1waCcsICc3LjAnLCAnLXRuJywgJzgnLCAnLW1hJywgJzIwMCcsICctbWV0YWxfYmluZGluZycsICctaW1hZScsICc8aW5maWxlLm1hZT4nLCAnLW9tYWUnLCAnPG91dGZpbGUubWFlPic=

> <r_lp_tautomer_probability>
1

> <r_epik_Ionization_Penalty>
0.000713824

> <r_epik_Ionization_Penalty_Charging>
0

> <r_epik_Ionization_Penalty_Neutral>
0.000713824

> <r_epik_State_Penalty>
0.000402132

> <r_epik_Charging_Adjusted_Penalty>
0.000402132

> <i_epik_Tot_Q>
0

> <i_epik_Tot_abs_Q>
0

> <r_epik_Metal_State_Penalty>
-0

> <b_epik_Metal_Only>
0

> <s_lp_Force_Field>
OPLS_2005

> <r_lp_Energy>
47.7975

> <b_lp_Chiralities_Consistent>
1

> <s_lp_Variant>
AV-unprocessed.smi:261-13

> <Gold.Version>
5.8.1

> <Gold.Id.Protein>
6NUR|6NUR_protein|mol2

> <Gold.PLP.Fitness>
41.4830

> <Gold.PLP.PLP>
-35.4000

> <Gold.PLP.part.hbond>
-2.3700

> <Gold.PLP.part.metal>
0.0000

> <Gold.PLP.part.buried>
-6.5231

> <Gold.PLP.part.nonpolar>
-27.1733

> <Gold.PLP.part.repulsive>
0.7599

> <Gold.PLP.ligand.clash>
0.0027

> <Gold.PLP.ligand.torsion>
1.5845

> <Gold.PLP.Chemscore.Hbond>
2.0000

> <Gold.PLP.Chemscore.CHOScore>
1.0000

> <Gold.PLP.Chemscore.Metal>
0.0000

> <Gold.Chemscore.Hbonds>
donor molecule, donor type, donor heavy atom, donor atom, acceptor molecule, acceptor atom, score
      L1  H     7    36       P1  7948  1.00
      P1  H  7989  7998       L1    13  1.00
      L1  C    12    37       P1  7957  1.00

> <Gold.PLP.Chemscore.Internal.Correction>
0.2547

> <Gold.Rescore>
     Score         DG    S(hbond)    S(metal)    S(lipo)     H(rot)  DE(clash)    DE(int)     intcor
      8.17     -12.68       1.64        0.00      93.03       3.57       1.86       2.64       ----

> <Gold.Chemscore.Fitness>
8.1698

> <Gold.Chemscore.DG>
-12.6777

> <Gold.Chemscore.ZeroCoef>
-5.4800

> <Gold.Chemscore.Hbond>
1.6356

> <Gold.Chemscore.Metal>
0.0000

> <Gold.Chemscore.Lipo>
93.0277

> <Gold.Chemscore.Internal_Hbond>
0.0000

> <Gold.Chemscore.DEClash>
1.8638

> <Gold.Chemscore.DEInternal>
2.6441

> <Gold.Chemscore.Rot>
3.5740

> <Gold.Chemscore.Internal.Correction>
   9.000000E+99

> <Gold.Chemscore.Hbonds>
donor molecule, donor type, donor heavy atom, donor atom, acceptor molecule, acceptor atom, score
      L1  H     7    36       P1  7948  1.00
      P1  H  7989  7998       L1    13  0.26

> <Gold.Chemscore.Hbond.Weighted>
-5.4629

> <Gold.Chemscore.Metal.Weighted>
-0.0000

> <Gold.Chemscore.Lipo.Weighted>
-10.8842

> <Gold.Chemscore.Internal_Hbond.Weighted>
0.0000

> <Gold.Chemscore.DEClash.Weighted>
1.8638

> <Gold.Chemscore.DEInternal.Weighted>
2.6441

> <Gold.Chemscore.Rot.Weighted>
9.1495

> <Gold.Chemscore.Internal.Correction.Weighted>
   9.000000E+99

> <Gold.Protein.RotatedTorsions>
[ 6907 6896 6895 6894 ] final  -53.77 input  -60.11 | X-H torsion
[ 7974 7965 7964 7962 ] final  -97.83 input  175.53 | X-H torsion
[ 8008 7997 7996 7995 ] final   87.03 input   59.86 | X-H torsion
[ 10167 10162 10161 10158 ] final -132.87 input  -65.29 | X-H torsion
[ 10718 10713 10712 10709 ] final  -88.93 input   66.30 | X-H torsion
[ 10763 10752 10751 10750 ] final -103.38 input  -60.55 | X-H torsion
[ 11005 11000 10999 10996 ] final   39.90 input  -57.11 | X-H torsion

> <Gold.Protein.ActiveResidues>
 VAL166  LYS551  ARG553  GLY616  TRP617  ASP618  TYR619  PRO620  LYS621  CYS622 
 ASP623  PHE694  ASN695  SER759  ASP760  ASP761  ALA762  ILE779  LEU786  VAL792 
 PHE793  MET794  SER795  GLU796  ALA797  LYS798  CYS799  TRP800  GLU811  SER814 

> <Gold.Protein.RotatedAtoms>
  150.8397  134.7685  159.6922 H   0  0  0  0  0  0  0  0  0  0  0  0  # atno 6907 bound_to 6896
  152.4487  134.5436  159.9856 H   0  0  0  0  0  0  0  0  0  0  0  0  # atno 6908 bound_to 6896
  151.5579  133.3370  159.3001 H   0  0  0  0  0  0  0  0  0  0  0  0  # atno 6909 bound_to 6896
  145.3286  140.9437  143.2674 H   0  0  0  0  0  0  0  0  0  0  0  0  # atno 7974 bound_to 7965
  155.9702  140.3386  155.6569 H   0  0  0  0  0  0  0  0  0  0  0  0  # atno 8008 bound_to 7997
  155.6684  140.0724  157.2547 H   0  0  0  0  0  0  0  0  0  0  0  0  # atno 8009 bound_to 7997
  154.4164  140.1696  156.1840 H   0  0  0  0  0  0  0  0  0  0  0  0  # atno 8010 bound_to 7997
  139.9041  143.6572  152.2589 H   0  0  0  0  0  0  0  0  0  0  0  0  # atno 10167 bound_to 10162
  155.9984  130.4853  150.5094 H   0  0  0  0  0  0  0  0  0  0  0  0  # atno 10718 bound_to 10713
  154.7803  135.4825  153.9831 H   0  0  0  0  0  0  0  0  0  0  0  0  # atno 10763 bound_to 10752
  153.1485  135.6786  153.8925 H   0  0  0  0  0  0  0  0  0  0  0  0  # atno 10764 bound_to 10752
  153.8577  135.3159  155.3414 H   0  0  0  0  0  0  0  0  0  0  0  0  # atno 10765 bound_to 10752
  140.1983  134.3901  155.8109 H   0  0  0  0  0  0  0  0  0  0  0  0  # atno 11005 bound_to 11000
  144.8882  139.4811  143.6690 LP  0  0  0  0  0  0  0  0  0  0  0  0  # atno 17320 bound_to 7965
  146.3054  139.7563  142.9060 LP  0  0  0  0  0  0  0  0  0  0  0  0  # atno 17321 bound_to 7965
  139.6999  144.7636  151.1291 LP  0  0  0  0  0  0  0  0  0  0  0  0  # atno 17342 bound_to 10162
  140.7700  143.5472  150.9245 LP  0  0  0  0  0  0  0  0  0  0  0  0  # atno 17343 bound_to 10162
  157.3069  131.0656  151.2029 LP  0  0  0  0  0  0  0  0  0  0  0  0  # atno 17370 bound_to 10713
  157.2989  130.6833  149.6153 LP  0  0  0  0  0  0  0  0  0  0  0  0  # atno 17371 bound_to 10713
  141.2227  133.7081  156.8214 LP  0  0  0  0  0  0  0  0  0  0  0  0  # atno 17394 bound_to 11000
  140.2082  134.8847  157.3245 LP  0  0  0  0  0  0  0  0  0  0  0  0  # atno 17395 bound_to 11000

$$$$
