#       Name:                AV-unprocessed.smi:249
#       Creating user name   scv26
#       Creation time:       Thu Mar 26 21:00:10 2020


#       File generated by GOLD software.
#

@<TRIPOS>MOLECULE
AV-unprocessed.smi:249
    71    74     1
SMALL
NO_CHARGES


@<TRIPOS>ATOM
      1 ****        -5.9200  -0.4575  -4.1449 C.3            1 S1                 0.0000
      2 ****        -5.4380   0.1795  -2.8324 C.3            1 S1                 0.0000
      3 ****        -4.4479  -0.6633  -2.0989 N.4            1 S1                 1.0000
      4 ****        -3.1669  -0.8763  -2.8310 C.3            1 S1                 0.0000
      5 ****        -2.2912   0.3918  -2.8429 C.3            1 S1                 0.0000
      6 ****        -2.0279   0.8905  -1.4090 C.3            1 S1                 0.0000
      7 ****        -1.2180   2.1119  -1.3872 N.pl3          1 S1                 0.0000
      8 ****        -1.6323   3.3000  -2.1305 C.3            1 S1                 0.0000
      9 ****         0.0795   2.0261  -0.9943 C.ar           1 S1                 0.0000
     10 ****         1.0368   2.6272  -1.7496 N.ar           1 S1                 0.0000
     11 ****         2.3232   2.5555  -1.3957 C.ar           1 S1                 0.0000
     12 ****         2.8645   1.9482  -0.3386 N.ar           1 S1                 0.0000
     13 ****         1.9094   1.3560   0.4330 C.ar           1 S1                 0.0000
     14 ****         0.5076   1.3452   0.1824 C.ar           1 S1                 0.0000
     15 ****        -0.1451   0.6529   1.1973 N.2            1 S1                 0.0000
     16 ****         0.8152   0.2625   1.9899 C.2            1 S1                 0.0000
     17 ****         2.0813   0.6356   1.6018 N.pl3          1 S1                 0.0000
     18 ****         3.3218   0.3333   2.2935 C.3            1 S1                 0.0000
     19 ****         3.8087  -1.1274   2.0992 C.3            1 S1                 0.0000
     20 ****         3.9945  -1.4942   0.6040 C.3            1 S1                 0.0000
     21 ****         2.7612  -1.7638  -0.0302 O.3            1 S1                 0.0000
     22 ****         5.1158  -1.3734   2.8977 C.3            1 S1                 0.0000
     23 ****         5.0161  -1.1044   4.3906 C.3            1 S1                 0.0000
     24 ****         6.2212  -1.8601   4.9337 C.3            1 S1                 0.0000
     25 ****         6.3252  -3.0207   4.1207 O.3            1 S1                 0.0000
     26 ****         5.6025  -2.8303   2.9075 C.3            1 S1                 0.0000
     27 ****        -3.3513   1.0565  -0.6382 C.3            1 S1                 0.0000
     28 ****        -4.1790  -0.2444  -0.6886 C.3            1 S1                 0.0000
     29 ****        -5.4432  -0.1740   0.1870 C.3            1 S1                 0.0000
     30 ****        -6.7469   0.1164  -4.5640 H              1 S1                 0.0000
     31 ****        -6.2752  -1.4758  -3.9843 H              1 S1                 0.0000
     32 ****        -5.1378  -0.4838  -4.9027 H              1 S1                 0.0000
     33 ****        -5.0385   1.1751  -3.0237 H              1 S1                 0.0000
     34 ****        -6.3253   0.3219  -2.2188 H              1 S1                 0.0000
     35 ****        -2.6217  -1.6822  -2.3379 H              1 S1                 0.0000
     36 ****        -3.3420  -1.2286  -3.8461 H              1 S1                 0.0000
     37 ****        -1.3431   0.1754  -3.3368 H              1 S1                 0.0000
     38 ****        -2.7729   1.1663  -3.4395 H              1 S1                 0.0000
     39 ****        -1.4744   0.0895  -0.9208 H              1 S1                 0.0000
     40 ****        -1.2517   4.2042  -1.6542 H              1 S1                 0.0000
     41 ****        -2.7174   3.3830  -2.1768 H              1 S1                 0.0000
     42 ****        -1.2542   3.2638  -3.1526 H              1 S1                 0.0000
     43 ****         3.0179   3.0550  -2.0549 H              1 S1                 0.0000
     44 ****         0.6271  -0.3155   2.8832 H              1 S1                 0.0000
     45 ****         4.0882   1.0322   1.9562 H              1 S1                 0.0000
     46 ****         3.1572   0.5473   3.3494 H              1 S1                 0.0000
     47 ****         3.0502  -1.7928   2.5150 H              1 S1                 0.0000
     48 ****         4.5146  -0.6982   0.0704 H              1 S1                 0.0000
     49 ****         4.5975  -2.3930   0.4875 H              1 S1                 0.0000
     50 ****         2.2345  -0.9797  -0.0015 H              1 S1                 0.0000
     51 ****         5.9110  -0.7459   2.4910 H              1 S1                 0.0000
     52 ****         5.0479  -0.0442   4.6429 H              1 S1                 0.0000
     53 ****         4.0955  -1.5271   4.7961 H              1 S1                 0.0000
     54 ****         7.1279  -1.2657   4.8145 H              1 S1                 0.0000
     55 ****         6.1178  -2.1160   5.9882 H              1 S1                 0.0000
     56 ****         4.7604  -3.5236   2.9034 H              1 S1                 0.0000
     57 ****         6.2317  -3.0618   2.0479 H              1 S1                 0.0000
     58 ****        -3.1333   1.3129   0.3992 H              1 S1                 0.0000
     59 ****        -3.9361   1.8841  -1.0395 H              1 S1                 0.0000
     60 ****        -3.5657  -1.0356  -0.2539 H              1 S1                 0.0000
     61 ****        -5.1740  -0.0768   1.2391 H              1 S1                 0.0000
     62 ****        -6.0460  -1.0771   0.0865 H              1 S1                 0.0000
     63 ****        -6.0690   0.6844  -0.0576 H              1 S1                 0.0000
     64 ****        -4.8799  -1.5739  -2.0307 H              1 S1                 0.0000
     65 ****         0.7764   3.1266  -2.5759 LP             1 S1                 0.0000
     66 ****         3.8441   1.9298  -0.1381 LP             1 S1                 0.0000
     67 ****        -1.1269   0.4913   1.2968 LP             1 S1                 0.0000
     68 ****         2.2902  -2.5050   0.4480 LP             1 S1                 0.0000
     69 ****         2.9210  -2.0290  -0.9811 LP             1 S1                 0.0000
     70 ****         5.9467  -3.8048   4.6124 LP             1 S1                 0.0000
     71 ****         7.2875  -3.1924   3.9098 LP             1 S1                 0.0000
@<TRIPOS>BOND
    1    1    2 1     
    2    1   30 1     
    3    1   31 1     
    4    1   32 1     
    5    2    3 1     
    6    2   33 1     
    7    2   34 1     
    8    3   28 1     
    9    3    4 1     
   10    3   64 1     
   11    4    5 1     
   12    4   35 1     
   13    4   36 1     
   14    5    6 1     
   15    5   37 1     
   16    5   38 1     
   17    6    7 1     
   18    6   27 1     
   19    6   39 1     
   20    7    8 1     
   21    7    9 1     
   22    8   40 1     
   23    8   41 1     
   24    8   42 1     
   25    9   14 ar    
   26    9   10 ar    
   27   10   11 ar    
   28   11   12 ar    
   29   11   43 1     
   30   12   13 ar    
   31   13   17 1     
   32   13   14 ar    
   33   14   15 1     
   34   15   16 2     
   35   16   17 1     
   36   16   44 1     
   37   17   18 1     
   38   18   19 1     
   39   18   45 1     
   40   18   46 1     
   41   19   20 1     
   42   19   22 1     
   43   19   47 1     
   44   20   21 1     
   45   20   48 1     
   46   20   49 1     
   47   21   50 1     
   48   22   26 1     
   49   22   23 1     
   50   22   51 1     
   51   23   24 1     
   52   23   52 1     
   53   23   53 1     
   54   24   25 1     
   55   24   54 1     
   56   24   55 1     
   57   25   26 1     
   58   26   56 1     
   59   26   57 1     
   60   27   28 1     
   61   27   58 1     
   62   27   59 1     
   63   28   29 1     
   64   28   60 1     
   65   29   61 1     
   66   29   62 1     
   67   29   63 1     
   68   10   65 1     
   69   12   66 1     
   70   15   67 1     
   71   21   68 1     
   72   21   69 1     
   73   25   70 1     
   74   25   71 1     
@<TRIPOS>SUBSTRUCTURE
      1 S1             1
@<TRIPOS>SET
LONE_PAIRS      STATIC     ATOMS    <user>   **** ""
7 65 66 67 68 69 70 71
DONOR_HYDROGENS      STATIC     ATOMS    <user>   **** ""
2 64 50
ATOM$BLUE        STATIC     ATOMS    COLORGROUP SYSTEM
7 65 66 67 68 69 70 71
ATOM$RED        STATIC     ATOMS    COLORGROUP SYSTEM
2 64 50
