AV-unprocessed.smi:2973|AV-procd|sdf|11341|dock9
  -GOLD-   2272016253D 1   1.00000     0.00000
 Structure written by MMmdl.
 50 52  0  0  0  0  0  0  0  0  2 V2000
  144.8848  137.2800  159.9851 C   0  0  0  0  0  0  0  0  0  0  0  0
  145.2274  136.2698  161.1010 C   0  0  2  0  0  0  0  0  0  0  0  0
  146.7260  136.3469  161.4652 C   0  0  0  0  0  0  0  0  0  0  0  0
  147.0739  135.4184  162.6391 C   0  0  0  0  0  0  0  0  0  0  0  0
  146.6715  133.9665  162.3459 C   0  0  0  0  0  0  0  0  0  0  0  0
  145.1797  133.8650  161.9809 C   0  0  0  0  0  0  0  0  0  0  0  0
  144.7730  134.8025  160.8161 C   0  0  1  0  0  0  0  0  0  0  0  0
  143.3367  134.7310  160.6109 N   0  0  0  0  0  0  0  0  0  0  0  0
  142.9976  134.2579  159.4056 C   0  0  0  0  0  0  0  0  0  0  0  0
  141.8460  134.1207  158.9954 O   0  0  0  0  0  0  0  0  0  0  0  0
  144.1253  133.9751  158.7308 N   0  0  0  0  0  0  0  0  0  0  0  0
  144.1530  133.4818  157.3481 C   0  0  0  0  0  0  0  0  0  0  0  0
  144.6486  134.5364  156.3488 C   0  0  0  0  0  0  0  0  0  0  0  0
  144.9710  135.6641  156.7262 O   0  0  0  0  0  0  0  0  0  0  0  0
  144.7125  134.1484  155.0665 N   0  0  0  0  0  0  0  0  0  0  0  0
  145.1446  134.9931  153.9592 C   0  0  0  0  0  0  0  0  0  0  0  0
  144.3009  134.7506  152.6953 C   0  0  0  0  0  0  0  0  0  0  0  0
  145.0245  133.8899  151.6787 C   0  0  0  0  0  0  0  0  0  0  0  0
  146.3518  133.4520  151.8772 C   0  0  0  0  0  0  0  0  0  0  0  0
  146.9652  132.6457  150.8958 C   0  0  0  0  0  0  0  0  0  0  0  0
  146.2391  132.2942  149.7389 C   0  0  0  0  0  0  0  0  0  0  0  0
  144.9157  132.7576  149.5929 C   0  0  0  0  0  0  0  0  0  0  0  0
  144.3627  133.5277  150.5558 N   0  3  0  0  0  0  0  0  0  0  0  0
  145.2161  134.2577  159.4564 C   0  0  0  0  0  0  0  0  0  0  0  0
  146.3881  134.1238  159.1039 O   0  0  0  0  0  0  0  0  0  0  0  0
  145.4248  137.0643  159.0629 H   0  0  0  0  0  0  0  0  0  0  0  0
  145.1500  138.2939  160.2857 H   0  0  0  0  0  0  0  0  0  0  0  0
  143.8193  137.2820  159.7551 H   0  0  0  0  0  0  0  0  0  0  0  0
  144.6758  136.6005  161.9825 H   0  0  0  0  0  0  0  0  0  0  0  0
  147.3411  136.0941  160.6012 H   0  0  0  0  0  0  0  0  0  0  0  0
  146.9888  137.3714  161.7313 H   0  0  0  0  0  0  0  0  0  0  0  0
  148.1422  135.4714  162.8502 H   0  0  0  0  0  0  0  0  0  0  0  0
  146.5641  135.7625  163.5397 H   0  0  0  0  0  0  0  0  0  0  0  0
  147.2866  133.5704  161.5379 H   0  0  0  0  0  0  0  0  0  0  0  0
  146.8797  133.3437  163.2163 H   0  0  0  0  0  0  0  0  0  0  0  0
  144.9389  132.8285  161.7387 H   0  0  0  0  0  0  0  0  0  0  0  0
  144.5849  134.1091  162.8624 H   0  0  0  0  0  0  0  0  0  0  0  0
  142.6716  135.0237  161.3119 H   0  0  0  0  0  0  0  0  0  0  0  0
  144.7938  132.6020  157.2695 H   0  0  0  0  0  0  0  0  0  0  0  0
  143.1544  133.1484  157.0595 H   0  0  0  0  0  0  0  0  0  0  0  0
  144.4389  133.2024  154.8428 H   0  0  0  0  0  0  0  0  0  0  0  0
  145.0982  136.0429  154.2542 H   0  0  0  0  0  0  0  0  0  0  0  0
  146.1932  134.7733  153.7572 H   0  0  0  0  0  0  0  0  0  0  0  0
  143.3582  134.2698  152.9606 H   0  0  0  0  0  0  0  0  0  0  0  0
  144.0383  135.6994  152.2255 H   0  0  0  0  0  0  0  0  0  0  0  0
  146.8939  133.7273  152.7706 H   0  0  0  0  0  0  0  0  0  0  0  0
  147.9801  132.3005  151.0294 H   0  0  0  0  0  0  0  0  0  0  0  0
  146.6908  131.6777  148.9753 H   0  0  0  0  0  0  0  0  0  0  0  0
  144.2876  132.5377  148.7418 H   0  0  0  0  0  0  0  0  0  0  0  0
  143.4034  133.8517  150.4290 H   0  0  0  0  0  0  0  0  0  0  0  0
  1  2  1  0  0  0  0
  1 26  1  0  0  0  0
  1 27  1  0  0  0  0
  1 28  1  0  0  0  0
  2  7  1  0  0  0  0
  2  3  1  0  0  0  0
  2 29  1  0  0  0  0
  3  4  1  0  0  0  0
  3 30  1  0  0  0  0
  3 31  1  0  0  0  0
  4  5  1  0  0  0  0
  4 32  1  0  0  0  0
  4 33  1  0  0  0  0
  5  6  1  0  0  0  0
  5 34  1  0  0  0  0
  5 35  1  0  0  0  0
  6  7  1  0  0  0  0
  6 36  1  0  0  0  0
  6 37  1  0  0  0  0
  7 24  1  0  0  0  0
  7  8  1  0  0  0  0
  8  9  1  0  0  0  0
  8 38  1  0  0  0  0
  9 10  2  0  0  0  0
  9 11  1  0  0  0  0
 11 12  1  0  0  0  0
 11 24  1  0  0  0  0
 12 13  1  0  0  0  0
 12 39  1  0  0  0  0
 12 40  1  0  0  0  0
 13 14  2  0  0  0  0
 13 15  1  0  0  0  0
 15 16  1  0  0  0  0
 15 41  1  0  0  0  0
 16 17  1  0  0  0  0
 16 42  1  0  0  0  0
 16 43  1  0  0  0  0
 17 18  1  0  0  0  0
 17 44  1  0  0  0  0
 17 45  1  0  0  0  0
 18 23  1  0  0  0  0
 18 19  2  0  0  0  0
 19 20  1  0  0  0  0
 19 46  1  0  0  0  0
 20 21  2  0  0  0  0
 20 47  1  0  0  0  0
 21 22  1  0  0  0  0
 21 48  1  0  0  0  0
 22 23  2  0  0  0  0
 22 49  1  0  0  0  0
 23 50  1  0  0  0  0
 24 25  2  0  0  0  0
M  CHG  1  23   1
M  END
> <s_m_source_file>
AV-unprocessed.smi

> <i_m_source_file_index>
2973

> <i_lp_mmshare_version>
43012

> <i_f3d_flags>
0

> <s_epik_input>
W0NIMl0xW0NIMl1bQ0gyXVtDSDJdW0NAQEhdKFtDSDNdKVtDQF0xMltOSF1DKD1PKU4oQzI9TylbQ0gyXUMoPU8pW05IXVtDSDJdW0NIMl1jM1tjSF1bY0hdW2NIXVtjSF1uMw==

> <s_epik_cmdline>
J2VwaWtfcHl0aG9uJywgJy1waCcsICc3LjAnLCAnLXRuJywgJzgnLCAnLW1hJywgJzIwMCcsICctbWV0YWxfYmluZGluZycsICctaW1hZScsICc8aW5maWxlLm1hZT4nLCAnLW9tYWUnLCAnPG91dGZpbGUubWFlPic=

> <r_lp_tautomer_probability>
1

> <r_epik_Ionization_Penalty>
1.90043

> <r_epik_Ionization_Penalty_Charging>
1.90039

> <r_epik_Ionization_Penalty_Neutral>
4.65525e-05

> <r_epik_State_Penalty>
2.02162

> <r_epik_Charging_Adjusted_Penalty>
3.922

> <i_epik_Tot_Q>
1

> <i_epik_Tot_abs_Q>
1

> <r_epik_Metal_State_Penalty>
2.06631

> <b_epik_Metal_Only>
0

> <s_lp_Force_Field>
OPLS_2005

> <r_lp_Energy>
22.6609

> <b_lp_Chiralities_Consistent>
1

> <s_lp_Variant>
AV-unprocessed.smi:2973-5

> <Gold.Version>
5.8.1

> <Gold.Id.Protein>
6NUR|6NUR_protein|mol2

> <Gold.PLP.Fitness>
47.1739

> <Gold.PLP.PLP>
-36.3347

> <Gold.PLP.part.hbond>
-3.0000

> <Gold.PLP.part.metal>
0.0000

> <Gold.PLP.part.buried>
-6.1802

> <Gold.PLP.part.nonpolar>
-27.1764

> <Gold.PLP.part.repulsive>
0.0053

> <Gold.PLP.ligand.clash>
0.0000

> <Gold.PLP.ligand.torsion>
0.5685

> <Gold.PLP.Chemscore.Hbond>
3.9840

> <Gold.PLP.Chemscore.CHOScore>
0.0000

> <Gold.PLP.Chemscore.Metal>
0.0000

> <Gold.Chemscore.Hbonds>
donor molecule, donor type, donor heavy atom, donor atom, acceptor molecule, acceptor atom, score
      L1  H    15    41       P1 10957  0.34
      P1  H 11000 11005       L1    10  1.00

> <Gold.PLP.Chemscore.Internal.Correction>
0.0243

> <Gold.Rescore>
     Score         DG    S(hbond)    S(metal)    S(lipo)     H(rot)  DE(clash)    DE(int)     intcor
     20.14     -20.79       2.96        0.00      89.36       1.96       0.00       0.65       ----

> <Gold.Chemscore.Fitness>
20.1434

> <Gold.Chemscore.DG>
-20.7929

> <Gold.Chemscore.ZeroCoef>
-5.4800

> <Gold.Chemscore.Hbond>
2.9596

> <Gold.Chemscore.Metal>
0.0000

> <Gold.Chemscore.Lipo>
89.3603

> <Gold.Chemscore.Internal_Hbond>
0.0000

> <Gold.Chemscore.DEClash>
0.0000

> <Gold.Chemscore.DEInternal>
0.6495

> <Gold.Chemscore.Rot>
1.9638

> <Gold.Chemscore.Internal.Correction>
   9.000000E+99

> <Gold.Chemscore.Hbonds>
donor molecule, donor type, donor heavy atom, donor atom, acceptor molecule, acceptor atom, score
      L1  H    15    41       P1 10957  0.34
      P1  H 11000 11005       L1    10  1.00

> <Gold.Chemscore.Hbond.Weighted>
-9.8852

> <Gold.Chemscore.Metal.Weighted>
-0.0000

> <Gold.Chemscore.Lipo.Weighted>
-10.4552

> <Gold.Chemscore.Internal_Hbond.Weighted>
0.0000

> <Gold.Chemscore.DEClash.Weighted>
0.0000

> <Gold.Chemscore.DEInternal.Weighted>
0.6495

> <Gold.Chemscore.Rot.Weighted>
5.0274

> <Gold.Chemscore.Internal.Correction.Weighted>
   9.000000E+99

> <Gold.Protein.RotatedTorsions>
[ 6907 6896 6895 6894 ] final  -94.14 input  -60.11 | X-H torsion
[ 7974 7965 7964 7962 ] final  152.28 input  175.53 | X-H torsion
[ 8008 7997 7996 7995 ] final  -44.09 input   59.86 | X-H torsion
[ 10167 10162 10161 10158 ] final  113.40 input  -65.29 | X-H torsion
[ 10718 10713 10712 10709 ] final  -63.57 input   66.30 | X-H torsion
[ 10763 10752 10751 10750 ] final   26.27 input  -60.55 | X-H torsion
[ 11005 11000 10999 10996 ] final -136.75 input  -57.11 | X-H torsion

> <Gold.Protein.ActiveResidues>
 VAL166  LYS551  ARG553  GLY616  TRP617  ASP618  TYR619  PRO620  LYS621  CYS622 
 ASP623  PHE694  ASN695  SER759  ASP760  ASP761  ALA762  ILE779  LEU786  VAL792 
 PHE793  MET794  SER795  GLU796  ALA797  LYS798  CYS799  TRP800  GLU811  SER814 

> <Gold.Protein.RotatedAtoms>
  150.6936  134.1859  159.4266 H   0  0  0  0  0  0  0  0  0  0  0  0  # atno 6907 bound_to 6896
  151.9831  135.0016  160.0567 H   0  0  0  0  0  0  0  0  0  0  0  0  # atno 6908 bound_to 6896
  152.1736  133.4625  159.4959 H   0  0  0  0  0  0  0  0  0  0  0  0  # atno 6909 bound_to 6896
  144.8233  139.6648  143.6091 H   0  0  0  0  0  0  0  0  0  0  0  0  # atno 7974 bound_to 7965
  154.3997  140.1431  156.3627 H   0  0  0  0  0  0  0  0  0  0  0  0  # atno 8008 bound_to 7997
  155.8166  140.3471  155.5468 H   0  0  0  0  0  0  0  0  0  0  0  0  # atno 8009 bound_to 7997
  155.8331  140.0915  157.1771 H   0  0  0  0  0  0  0  0  0  0  0  0  # atno 8010 bound_to 7997
  139.6464  144.7126  151.2134 H   0  0  0  0  0  0  0  0  0  0  0  0  # atno 10167 bound_to 10162
  156.0782  130.4222  150.1297 H   0  0  0  0  0  0  0  0  0  0  0  0  # atno 10718 bound_to 10713
  153.0634  135.6564  154.0410 H   0  0  0  0  0  0  0  0  0  0  0  0  # atno 10763 bound_to 10752
  154.0072  135.2931  155.3398 H   0  0  0  0  0  0  0  0  0  0  0  0  # atno 10764 bound_to 10752
  154.6982  135.5255  153.8557 H   0  0  0  0  0  0  0  0  0  0  0  0  # atno 10765 bound_to 10752
  140.8776  134.1972  157.4612 H   0  0  0  0  0  0  0  0  0  0  0  0  # atno 11005 bound_to 11000
  146.2539  139.6259  142.9408 LP  0  0  0  0  0  0  0  0  0  0  0  0  # atno 17320 bound_to 7965
  145.5056  141.0436  143.2516 LP  0  0  0  0  0  0  0  0  0  0  0  0  # atno 17321 bound_to 7965
  140.7516  143.6224  150.8501 LP  0  0  0  0  0  0  0  0  0  0  0  0  # atno 17342 bound_to 10162
  139.9867  143.5891  152.2924 LP  0  0  0  0  0  0  0  0  0  0  0  0  # atno 17343 bound_to 10162
  156.9333  130.9721  151.3529 LP  0  0  0  0  0  0  0  0  0  0  0  0  # atno 17370 bound_to 10713
  157.5888  130.8428  149.8628 LP  0  0  0  0  0  0  0  0  0  0  0  0  # atno 17371 bound_to 10713
  139.8717  134.9803  156.5069 LP  0  0  0  0  0  0  0  0  0  0  0  0  # atno 17394 bound_to 11000
  140.8500  133.8139  155.9159 LP  0  0  0  0  0  0  0  0  0  0  0  0  # atno 17395 bound_to 11000

$$$$
