#       Name:                AV-unprocessed.smi:2171
#       Creating user name   scv26
#       Creation time:       Fri Mar 27 12:02:22 2020


#       File generated by GOLD software.
#

@<TRIPOS>MOLECULE
AV-unprocessed.smi:2171
    42    44     1
SMALL
NO_CHARGES


@<TRIPOS>ATOM
      1 ****        -0.6884   3.1205  -0.9866 O.2            1 S1                 0.0000
      2 ****         0.2979   2.4043  -1.1545 C.2            1 S1                 0.0000
      3 ****         1.7041   2.9854  -0.9885 C.3            1 S1                 0.0000
      4 ****         2.4477   2.2864   0.0473 N.pl3          1 S1                 0.0000
      5 ****         3.4516   1.3516  -0.1014 C.2            1 S1                 0.0000
      6 ****         3.8350   0.9637   1.1504 C.2            1 S1                 0.0000
      7 ****         3.0014   1.7299   2.0126 C.2            1 S1                 0.0000
      8 ****         2.1727   2.5204   1.3500 N.2            1 S1                 0.0000
      9 ****         0.2197   1.0989  -1.4600 N.am           1 S1                 0.0000
     10 ****        -1.0146   0.3220  -1.5400 C.3            1 S1                 0.0000
     11 ****        -0.9173  -0.8606  -2.5228 C.3            1 S1                 0.0000
     12 ****        -1.6242  -2.0179  -1.8096 C.3            1 S1                 0.0000
     13 ****        -1.3252  -1.7633  -0.3958 N.4            1 S1                 1.0000
     14 ****        -2.0466  -2.5423   0.6307 C.3            1 S1                 0.0000
     15 ****        -1.4245  -2.2275   2.0083 C.3            1 S1                 0.0000
     16 ****        -1.3588  -0.7088   2.2879 C.3            1 S1                 0.0000
     17 ****        -0.7111   0.0629   1.1182 C.3            1 S1                 0.0000
     18 ****        -1.4343  -0.3088  -0.1900 C.3            1 S1                 0.0000
     19 ****         2.2463   2.9090  -1.9317 H              1 S1                 0.0000
     20 ****         1.6486   4.0446  -0.7317 H              1 S1                 0.0000
     21 ****         3.8035   1.0416  -1.0745 H              1 S1                 0.0000
     22 ****         4.5971   0.2442   1.4110 H              1 S1                 0.0000
     23 ****         2.9734   1.7350   3.0924 H              1 S1                 0.0000
     24 ****         1.0852   0.5951  -1.5892 H              1 S1                 0.0000
     25 ****        -1.8225   0.9731  -1.8802 H              1 S1                 0.0000
     26 ****        -1.3605  -0.6376  -3.4939 H              1 S1                 0.0000
     27 ****         0.1270  -1.1284  -2.6922 H              1 S1                 0.0000
     28 ****        -2.7020  -1.9700  -1.9735 H              1 S1                 0.0000
     29 ****        -1.2657  -2.9953  -2.1337 H              1 S1                 0.0000
     30 ****        -3.1086  -2.2927   0.6159 H              1 S1                 0.0000
     31 ****        -1.9602  -3.6075   0.4136 H              1 S1                 0.0000
     32 ****        -1.9873  -2.7287   2.7963 H              1 S1                 0.0000
     33 ****        -0.4145  -2.6383   2.0458 H              1 S1                 0.0000
     34 ****        -2.3691  -0.3313   2.4511 H              1 S1                 0.0000
     35 ****        -0.8091  -0.5205   3.2106 H              1 S1                 0.0000
     36 ****        -0.7789   1.1350   1.3043 H              1 S1                 0.0000
     37 ****         0.3502  -0.1817   1.0511 H              1 S1                 0.0000
     38 ****        -2.4937  -0.0755  -0.0621 H              1 S1                 0.0000
     39 ****        -0.3462  -1.9860  -0.2857 H              1 S1                 0.0000
     40 ****        -0.5715   4.0829  -0.7415 LP             1 S1                 0.0000
     41 ****        -1.6068   2.7401  -1.0952 LP             1 S1                 0.0000
     42 ****         1.4945   3.1503   1.7284 LP             1 S1                 0.0000
@<TRIPOS>BOND
    1    1    2 2     
    2    2    3 1     
    3    2    9 am    
    4    3    4 1     
    5    3   19 1     
    6    3   20 1     
    7    4    8 1     
    8    4    5 1     
    9    5    6 2     
   10    5   21 1     
   11    6    7 1     
   12    6   22 1     
   13    7    8 2     
   14    7   23 1     
   15    9   10 1     
   16    9   24 1     
   17   10   18 1     
   18   10   11 1     
   19   10   25 1     
   20   11   12 1     
   21   11   26 1     
   22   11   27 1     
   23   12   13 1     
   24   12   28 1     
   25   12   29 1     
   26   13   18 1     
   27   13   14 1     
   28   13   39 1     
   29   14   15 1     
   30   14   30 1     
   31   14   31 1     
   32   15   16 1     
   33   15   32 1     
   34   15   33 1     
   35   16   17 1     
   36   16   34 1     
   37   16   35 1     
   38   17   18 1     
   39   17   36 1     
   40   17   37 1     
   41   18   38 1     
   42    1   40 1     
   43    1   41 1     
   44    8   42 1     
@<TRIPOS>SUBSTRUCTURE
      1 S1             1
@<TRIPOS>SET
LONE_PAIRS      STATIC     ATOMS    <user>   **** ""
3 40 41 42
DONOR_HYDROGENS      STATIC     ATOMS    <user>   **** ""
2 24 39
ATOM$BLUE        STATIC     ATOMS    COLORGROUP SYSTEM
3 40 41 42
ATOM$RED        STATIC     ATOMS    COLORGROUP SYSTEM
2 24 39
