AV-unprocessed.smi:1526|AV-procd|sdf|6146|dock4
  -GOLD-   22720 6293D 1   1.00000     0.00000
 Structure written by MMmdl.
 34 35  0  0  0  0  0  0  0  0  3 V2000
  149.0448  142.7839  157.5768 O   0  0  0  0  0  0  0  0  0  0  0  0
  150.0359  142.0556  157.6050 C   0  0  0  0  0  0  0  0  0  0  0  0
  149.8421  140.5300  157.6648 C   0  0  0  0  0  0  0  0  0  0  0  0
  150.8949  139.7424  156.9965 N   0  0  0  0  0  0  0  0  0  0  0  0
  151.5012  138.7179  157.7501 C   0  0  0  0  0  0  0  0  0  0  0  0
  152.4688  137.9306  157.2409 C   0  0  0  0  0  0  0  0  0  0  0  0
  153.0739  136.8779  158.0270 N   0  3  0  0  0  0  0  0  0  0  0  0
  153.9521  136.1915  157.5146 O   0  0  0  0  0  0  0  0  0  0  0  0
  152.6920  136.7013  159.1800 O   0  5  0  0  0  0  0  0  0  0  0  0
  152.8814  138.1700  155.8714 C   0  0  0  0  0  0  0  0  0  0  0  0
  152.3026  139.1454  155.1437 C   0  0  0  0  0  0  0  0  0  0  0  0
  151.2446  139.9963  155.6980 C   0  0  0  0  0  0  0  0  0  0  0  0
  150.7012  140.8785  155.0336 O   0  0  0  0  0  0  0  0  0  0  0  0
  151.2889  142.5369  157.5884 N   0  0  0  0  0  0  0  0  0  0  0  0
  151.6396  143.9483  157.5608 C   0  0  0  0  0  0  0  0  0  0  0  0
  152.2555  144.3579  158.8929 C   0  0  0  0  0  0  0  0  0  0  0  0
  152.1551  143.4157  160.1029 C   0  0  0  0  0  0  0  0  0  0  0  0
  152.0347  144.6531  160.9966 C   0  0  0  0  0  0  0  0  0  0  0  0
  151.5615  145.4199  159.7583 C   0  0  0  0  0  0  0  0  0  0  0  0
  149.7551  140.2342  158.7117 H   0  0  0  0  0  0  0  0  0  0  0  0
  148.8689  140.2987  157.2294 H   0  0  0  0  0  0  0  0  0  0  0  0
  151.1191  138.6166  158.7560 H   0  0  0  0  0  0  0  0  0  0  0  0
  153.6570  137.5693  155.4196 H   0  0  0  0  0  0  0  0  0  0  0  0
  152.6248  139.3065  154.1253 H   0  0  0  0  0  0  0  0  0  0  0  0
  152.0533  141.8781  157.6127 H   0  0  0  0  0  0  0  0  0  0  0  0
  152.3396  144.1309  156.7445 H   0  0  0  0  0  0  0  0  0  0  0  0
  150.7460  144.5392  157.3535 H   0  0  0  0  0  0  0  0  0  0  0  0
  153.3012  144.6462  158.7621 H   0  0  0  0  0  0  0  0  0  0  0  0
  151.2465  142.8112  160.0956 H   0  0  0  0  0  0  0  0  0  0  0  0
  153.0414  142.8056  160.2805 H   0  0  0  0  0  0  0  0  0  0  0  0
  151.2954  144.5716  161.7940 H   0  0  0  0  0  0  0  0  0  0  0  0
  152.9992  145.0023  161.3688 H   0  0  0  0  0  0  0  0  0  0  0  0
  151.9689  146.4267  159.6603 H   0  0  0  0  0  0  0  0  0  0  0  0
  150.4756  145.4135  159.6495 H   0  0  0  0  0  0  0  0  0  0  0  0
  1  2  2  0  0  0  0
  2  3  1  0  0  0  0
  2 14  1  0  0  0  0
  3  4  1  0  0  0  0
  3 20  1  0  0  0  0
  3 21  1  0  0  0  0
  4 12  1  0  0  0  0
  4  5  1  0  0  0  0
  5  6  2  0  0  0  0
  5 22  1  0  0  0  0
  6  7  1  0  0  0  0
  6 10  1  0  0  0  0
  7  8  2  0  0  0  0
  7  9  1  0  0  0  0
 10 11  2  0  0  0  0
 10 23  1  0  0  0  0
 11 12  1  0  0  0  0
 11 24  1  0  0  0  0
 12 13  2  0  0  0  0
 14 15  1  0  0  0  0
 14 25  1  0  0  0  0
 15 16  1  0  0  0  0
 15 26  1  0  0  0  0
 15 27  1  0  0  0  0
 16 19  1  0  0  0  0
 16 17  1  0  0  0  0
 16 28  1  0  0  0  0
 17 18  1  0  0  0  0
 17 29  1  0  0  0  0
 17 30  1  0  0  0  0
 18 19  1  0  0  0  0
 18 31  1  0  0  0  0
 18 32  1  0  0  0  0
 19 33  1  0  0  0  0
 19 34  1  0  0  0  0
M  CHG  1   7   1
M  CHG  1   9  -1
M  END
> <s_m_source_file>
AV-unprocessed.smi

> <i_m_source_file_index>
1526

> <i_lp_mmshare_version>
43012

> <i_f3d_flags>
0

> <s_epik_input>
W0NIMl0xW0NIMl1bQ0gyXVtDSF0xW0NIMl1bTkhdQyg9TylbQ0gyXW4yW2NIXWMoW04rXSg9TylbTy1dKVtjSF1bY0hdYzI9Tw==

> <s_epik_cmdline>
J2VwaWtfcHl0aG9uJywgJy1waCcsICc3LjAnLCAnLXRuJywgJzgnLCAnLW1hJywgJzIwMCcsICctbWV0YWxfYmluZGluZycsICctaW1hZScsICc8aW5maWxlLm1hZT4nLCAnLW9tYWUnLCAnPG91dGZpbGUubWFlPic=

> <r_lp_tautomer_probability>
1

> <r_epik_Ionization_Penalty>
1.93777e-08

> <r_epik_Ionization_Penalty_Charging>
7.59562e-11

> <r_epik_Ionization_Penalty_Neutral>
1.93017e-08

> <r_epik_State_Penalty>
-0

> <r_epik_Charging_Adjusted_Penalty>
7.59562e-11

> <i_epik_Tot_Q>
0

> <i_epik_Tot_abs_Q>
2

> <r_epik_Metal_State_Penalty>
-0

> <b_epik_Metal_Only>
0

> <s_lp_Force_Field>
OPLS_2005

> <r_lp_Energy>
24.467

> <b_lp_Chiralities_Consistent>
1

> <s_lp_Variant>
AV-unprocessed.smi:1526-1

> <Gold.Version>
5.8.1

> <Gold.Id.Protein>
6NUR|6NUR_protein|mol2

> <Gold.PLP.Fitness>
43.3862

> <Gold.PLP.PLP>
-37.5064

> <Gold.PLP.part.hbond>
-3.0000

> <Gold.PLP.part.metal>
0.0000

> <Gold.PLP.part.buried>
-5.1628

> <Gold.PLP.part.nonpolar>
-30.6726

> <Gold.PLP.part.repulsive>
1.1818

> <Gold.PLP.ligand.clash>
0.0000

> <Gold.PLP.ligand.torsion>
1.1803

> <Gold.PLP.Chemscore.Hbond>
2.7120

> <Gold.PLP.Chemscore.CHOScore>
0.0000

> <Gold.PLP.Chemscore.Metal>
0.0000

> <Gold.Chemscore.Hbonds>
donor molecule, donor type, donor heavy atom, donor atom, acceptor molecule, acceptor atom, score
      P1  H  6896  6907       L1     9  0.98
      P1  H  7989  7998       L1    13  0.78
      P1  H 10752 10763       L1     8  0.21

> <Gold.PLP.Chemscore.Internal.Correction>
0.1043

> <Gold.Rescore>
     Score         DG    S(hbond)    S(metal)    S(lipo)     H(rot)  DE(clash)    DE(int)     intcor
     17.18     -19.65       2.47        0.00      90.33       1.82       0.23       2.24       ----

> <Gold.Chemscore.Fitness>
17.1812

> <Gold.Chemscore.DG>
-19.6479

> <Gold.Chemscore.ZeroCoef>
-5.4800

> <Gold.Chemscore.Hbond>
2.4720

> <Gold.Chemscore.Metal>
0.0000

> <Gold.Chemscore.Lipo>
90.3256

> <Gold.Chemscore.Internal_Hbond>
0.0000

> <Gold.Chemscore.DEClash>
0.2281

> <Gold.Chemscore.DEInternal>
2.2386

> <Gold.Chemscore.Rot>
1.8190

> <Gold.Chemscore.Internal.Correction>
   9.000000E+99

> <Gold.Chemscore.Hbonds>
donor molecule, donor type, donor heavy atom, donor atom, acceptor molecule, acceptor atom, score
      P1  H  6896  6907       L1     9  0.91
      P1  H  7989  7998       L1    13  0.36
      P1  H 10752 10763       L1     8  0.20

> <Gold.Chemscore.Hbond.Weighted>
-8.2565

> <Gold.Chemscore.Metal.Weighted>
-0.0000

> <Gold.Chemscore.Lipo.Weighted>
-10.5681

> <Gold.Chemscore.Internal_Hbond.Weighted>
0.0000

> <Gold.Chemscore.DEClash.Weighted>
0.2281

> <Gold.Chemscore.DEInternal.Weighted>
2.2386

> <Gold.Chemscore.Rot.Weighted>
4.6567

> <Gold.Chemscore.Internal.Correction.Weighted>
   9.000000E+99

> <Gold.Protein.RotatedTorsions>
[ 6907 6896 6895 6894 ] final   27.76 input  -60.11 | X-H torsion
[ 7974 7965 7964 7962 ] final  172.02 input  175.53 | X-H torsion
[ 8008 7997 7996 7995 ] final  -63.75 input   59.86 | X-H torsion
[ 10167 10162 10161 10158 ] final  127.09 input  -65.29 | X-H torsion
[ 10718 10713 10712 10709 ] final  143.34 input   66.30 | X-H torsion
[ 10763 10752 10751 10750 ] final  158.82 input  -60.55 | X-H torsion
[ 11005 11000 10999 10996 ] final  137.18 input  -57.11 | X-H torsion

> <Gold.Protein.ActiveResidues>
 VAL166  LYS551  ARG553  GLY616  TRP617  ASP618  TYR619  PRO620  LYS621  CYS622 
 ASP623  PHE694  ASN695  SER759  ASP760  ASP761  ALA762  ILE779  LEU786  VAL792 
 PHE793  MET794  SER795  GLU796  ALA797  LYS798  CYS799  TRP800  GLU811  SER814 

> <Gold.Protein.RotatedAtoms>
  152.0071  134.9897  160.0566 H   0  0  0  0  0  0  0  0  0  0  0  0  # atno 6907 bound_to 6896
  152.1464  133.4490  159.4800 H   0  0  0  0  0  0  0  0  0  0  0  0  # atno 6908 bound_to 6896
  150.6870  134.2160  159.4421 H   0  0  0  0  0  0  0  0  0  0  0  0  # atno 6909 bound_to 6896
  144.7279  139.9436  143.6429 H   0  0  0  0  0  0  0  0  0  0  0  0  # atno 7974 bound_to 7965
  154.4572  140.0968  156.6791 H   0  0  0  0  0  0  0  0  0  0  0  0  # atno 8008 bound_to 7997
  155.5103  140.3476  155.4369 H   0  0  0  0  0  0  0  0  0  0  0  0  # atno 8009 bound_to 7997
  156.0800  140.1371  156.9712 H   0  0  0  0  0  0  0  0  0  0  0  0  # atno 8010 bound_to 7997
  139.5596  144.6873  151.4081 H   0  0  0  0  0  0  0  0  0  0  0  0  # atno 10167 bound_to 10162
  157.3701  131.0977  151.0836 H   0  0  0  0  0  0  0  0  0  0  0  0  # atno 10718 bound_to 10713
  154.2220  135.2781  155.2921 H   0  0  0  0  0  0  0  0  0  0  0  0  # atno 10763 bound_to 10752
  154.5694  135.5623  153.7084 H   0  0  0  0  0  0  0  0  0  0  0  0  # atno 10764 bound_to 10752
  153.0039  135.6317  154.2360 H   0  0  0  0  0  0  0  0  0  0  0  0  # atno 10765 bound_to 10752
  140.0096  134.9444  157.0249 H   0  0  0  0  0  0  0  0  0  0  0  0  # atno 11005 bound_to 11000
  146.0766  139.3753  143.0490 LP  0  0  0  0  0  0  0  0  0  0  0  0  # atno 17320 bound_to 7965
  145.7897  140.9819  143.1055 LP  0  0  0  0  0  0  0  0  0  0  0  0  # atno 17321 bound_to 7965
  140.6874  143.7941  150.7206 LP  0  0  0  0  0  0  0  0  0  0  0  0  # atno 17342 bound_to 10162
  140.1413  143.4438  152.2192 LP  0  0  0  0  0  0  0  0  0  0  0  0  # atno 17343 bound_to 10162
  157.1944  130.6366  149.5716 LP  0  0  0  0  0  0  0  0  0  0  0  0  # atno 17370 bound_to 10713
  155.9754  130.4711  150.6455 LP  0  0  0  0  0  0  0  0  0  0  0  0  # atno 17371 bound_to 10713
  140.4578  134.1515  155.7188 LP  0  0  0  0  0  0  0  0  0  0  0  0  # atno 17394 bound_to 11000
  141.1701  133.8624  157.1595 LP  0  0  0  0  0  0  0  0  0  0  0  0  # atno 17395 bound_to 11000

$$$$
