AV-unprocessed.smi:2892|AV-procd|sdf|11118|dock4
  -GOLD-   2272015583D 1   1.00000     0.00000
 Structure written by MMmdl.
 42 42  0  0  0  0  0  0  0  0  2 V2000
  148.5404  140.9432  154.5069 C   0  0  0  0  0  0  0  0  0  0  0  0
  149.7246  140.0108  154.8036 C   0  0  0  0  0  0  0  0  0  0  0  0
  150.3924  140.2428  156.1840 C   0  0  2  0  0  0  0  0  0  0  0  0
  150.9485  141.6841  156.2655 C   0  0  0  0  0  0  0  0  0  0  0  0
  151.4859  139.1678  156.4772 C   0  0  2  0  0  0  0  0  0  0  0  0
  152.4366  139.6969  157.4575 N   0  0  0  0  0  0  0  0  0  0  0  0
  152.5814  139.2702  158.7221 C   0  0  0  0  0  0  0  0  0  0  0  0
  151.8906  138.3774  159.2160 O   0  0  0  0  0  0  0  0  0  0  0  0
  153.6793  139.9683  159.5342 C   0  0  0  0  0  0  0  0  0  0  0  0
  153.2172  141.2887  160.0956 C   0  0  0  0  0  0  0  0  0  0  0  0
  153.2241  141.7191  161.4535 C   0  0  0  0  0  0  0  0  0  0  0  0
  152.7113  142.9832  161.4015 C   0  0  0  0  0  0  0  0  0  0  0  0
  152.4197  143.2562  160.0817 N   0  0  0  0  0  0  0  0  0  0  0  0
  151.8623  144.4759  159.5162 C   0  0  0  0  0  0  0  0  0  0  0  0
  150.5050  144.8150  160.1532 C   0  0  0  0  0  0  0  0  0  0  0  0
  151.7699  144.3843  157.9846 C   0  0  0  0  0  0  0  0  0  0  0  0
  152.7253  142.2110  159.2813 N   0  0  0  0  0  0  0  0  0  0  0  0
  152.2712  138.8223  155.1973 C   0  0  0  0  0  0  0  0  0  0  0  0
  152.1555  137.6574  154.7579 O   0  0  0  0  0  0  0  0  0  0  0  0
  152.9665  139.7253  154.6789 O   0  5  0  0  0  0  0  0  0  0  0  0
  148.0604  140.6639  153.5688 H   0  0  0  0  0  0  0  0  0  0  0  0
  148.8507  141.9832  154.4122 H   0  0  0  0  0  0  0  0  0  0  0  0
  147.7868  140.8846  155.2927 H   0  0  0  0  0  0  0  0  0  0  0  0
  149.3450  138.9919  154.7330 H   0  0  0  0  0  0  0  0  0  0  0  0
  150.4703  140.1018  154.0127 H   0  0  0  0  0  0  0  0  0  0  0  0
  149.6152  140.1471  156.9446 H   0  0  0  0  0  0  0  0  0  0  0  0
  151.7407  141.8408  155.5329 H   0  0  0  0  0  0  0  0  0  0  0  0
  151.3573  141.9162  157.2487 H   0  0  0  0  0  0  0  0  0  0  0  0
  150.1750  142.4281  156.0806 H   0  0  0  0  0  0  0  0  0  0  0  0
  151.0086  138.2653  156.8647 H   0  0  0  0  0  0  0  0  0  0  0  0
  153.0580  140.4218  157.1303 H   0  0  0  0  0  0  0  0  0  0  0  0
  153.9979  139.2975  160.3337 H   0  0  0  0  0  0  0  0  0  0  0  0
  154.5496  140.1240  158.8956 H   0  0  0  0  0  0  0  0  0  0  0  0
  153.5623  141.1838  162.3281 H   0  0  0  0  0  0  0  0  0  0  0  0
  152.5334  143.7034  162.1863 H   0  0  0  0  0  0  0  0  0  0  0  0
  152.5529  145.2850  159.7580 H   0  0  0  0  0  0  0  0  0  0  0  0
  150.1279  145.7692  159.7845 H   0  0  0  0  0  0  0  0  0  0  0  0
  150.5890  144.8911  161.2377 H   0  0  0  0  0  0  0  0  0  0  0  0
  149.7555  144.0549  159.9295 H   0  0  0  0  0  0  0  0  0  0  0  0
  151.4237  145.3253  157.5566 H   0  0  0  0  0  0  0  0  0  0  0  0
  151.0763  143.6034  157.6707 H   0  0  0  0  0  0  0  0  0  0  0  0
  152.7427  144.1607  157.5456 H   0  0  0  0  0  0  0  0  0  0  0  0
  1  2  1  0  0  0  0
  1 21  1  0  0  0  0
  1 22  1  0  0  0  0
  1 23  1  0  0  0  0
  2  3  1  0  0  0  0
  2 24  1  0  0  0  0
  2 25  1  0  0  0  0
  3  4  1  0  0  0  0
  3  5  1  0  0  0  0
  3 26  1  0  0  0  0
  4 27  1  0  0  0  0
  4 28  1  0  0  0  0
  4 29  1  0  0  0  0
  5  6  1  0  0  0  0
  5 18  1  0  0  0  0
  5 30  1  0  0  0  0
  6  7  1  0  0  0  0
  6 31  1  0  0  0  0
  7  8  2  0  0  0  0
  7  9  1  0  0  0  0
  9 10  1  0  0  0  0
  9 32  1  0  0  0  0
  9 33  1  0  0  0  0
 10 17  2  0  0  0  0
 10 11  1  0  0  0  0
 11 12  2  0  0  0  0
 11 34  1  0  0  0  0
 12 13  1  0  0  0  0
 12 35  1  0  0  0  0
 13 14  1  0  0  0  0
 13 17  1  0  0  0  0
 14 15  1  0  0  0  0
 14 16  1  0  0  0  0
 14 36  1  0  0  0  0
 15 37  1  0  0  0  0
 15 38  1  0  0  0  0
 15 39  1  0  0  0  0
 16 40  1  0  0  0  0
 16 41  1  0  0  0  0
 16 42  1  0  0  0  0
 18 19  2  0  0  0  0
 18 20  1  0  0  0  0
M  CHG  1  20  -1
M  END
> <s_m_source_file>
AV-unprocessed.smi

> <i_m_source_file_index>
2892

> <i_lp_mmshare_version>
43012

> <i_f3d_flags>
0

> <s_epik_input>
W0NIM11bQ0gyXVtDQEhdKFtDSDNdKVtDQEBIXShDKD1PKVtPSF0pW05IXUMoPU8pW0NIMl1jMVtjSF1bY0hdbihuMSlbQ0hdKFtDSDNdKVtDSDNd

> <s_epik_cmdline>
J2VwaWtfcHl0aG9uJywgJy1waCcsICc3LjAnLCAnLXRuJywgJzgnLCAnLW1hJywgJzIwMCcsICctbWV0YWxfYmluZGluZycsICctaW1hZScsICc8aW5maWxlLm1hZT4nLCAnLW9tYWUnLCAnPG91dGZpbGUubWFlPic=

> <r_lp_tautomer_probability>
1

> <r_epik_Ionization_Penalty>
0.000286846

> <r_epik_Ionization_Penalty_Charging>
0.000224481

> <r_epik_Ionization_Penalty_Neutral>
6.23655e-05

> <r_epik_State_Penalty>
-0

> <r_epik_Charging_Adjusted_Penalty>
0.000224481

> <i_epik_Tot_Q>
-1

> <i_epik_Tot_abs_Q>
1

> <r_epik_Metal_State_Penalty>
-0

> <b_epik_Metal_Only>
0

> <s_lp_Force_Field>
OPLS_2005

> <r_lp_Energy>
15.4928

> <b_lp_Chiralities_Consistent>
1

> <s_lp_Variant>
AV-unprocessed.smi:2892-1

> <Gold.Version>
5.8.1

> <Gold.Id.Protein>
6NUR|6NUR_protein|mol2

> <Gold.PLP.Fitness>
58.3319

> <Gold.PLP.PLP>
-49.4635

> <Gold.PLP.part.hbond>
-3.0000

> <Gold.PLP.part.metal>
0.0000

> <Gold.PLP.part.buried>
-7.4595

> <Gold.PLP.part.nonpolar>
-40.0792

> <Gold.PLP.part.repulsive>
0.2136

> <Gold.PLP.ligand.clash>
0.0000

> <Gold.PLP.ligand.torsion>
1.0016

> <Gold.PLP.Chemscore.Hbond>
3.5829

> <Gold.PLP.Chemscore.CHOScore>
0.0000

> <Gold.PLP.Chemscore.Metal>
0.0000

> <Gold.Chemscore.Hbonds>
donor molecule, donor type, donor heavy atom, donor atom, acceptor molecule, acceptor atom, score
      P1  H  7989  7998       L1    20  0.33
      P1  H  7997  8009       L1    20  2.00
      P1  H 10752 10763       L1    19  0.87

> <Gold.PLP.Chemscore.Internal.Correction>
0.1229

> <Gold.Rescore>
     Score         DG    S(hbond)    S(metal)    S(lipo)     H(rot)  DE(clash)    DE(int)     intcor
     17.40     -18.48       1.88        0.00     109.63       2.39       0.04       1.04       ----

> <Gold.Chemscore.Fitness>
17.3995

> <Gold.Chemscore.DG>
-18.4793

> <Gold.Chemscore.ZeroCoef>
-5.4800

> <Gold.Chemscore.Hbond>
1.8809

> <Gold.Chemscore.Metal>
0.0000

> <Gold.Chemscore.Lipo>
109.6260

> <Gold.Chemscore.Internal_Hbond>
0.0000

> <Gold.Chemscore.DEClash>
0.0415

> <Gold.Chemscore.DEInternal>
1.0382

> <Gold.Chemscore.Rot>
2.3865

> <Gold.Chemscore.Internal.Correction>
   9.000000E+99

> <Gold.Chemscore.Hbonds>
donor molecule, donor type, donor heavy atom, donor atom, acceptor molecule, acceptor atom, score
      P1  H  7989  7998       L1    20  0.20
      P1  H  7997  8009       L1    20  0.89
      P1  H 10752 10763       L1    19  0.43

> <Gold.Chemscore.Hbond.Weighted>
-6.2824

> <Gold.Chemscore.Metal.Weighted>
-0.0000

> <Gold.Chemscore.Lipo.Weighted>
-12.8262

> <Gold.Chemscore.Internal_Hbond.Weighted>
0.0000

> <Gold.Chemscore.DEClash.Weighted>
0.0415

> <Gold.Chemscore.DEInternal.Weighted>
1.0382

> <Gold.Chemscore.Rot.Weighted>
6.1093

> <Gold.Chemscore.Internal.Correction.Weighted>
   9.000000E+99

> <Gold.Protein.RotatedTorsions>
[ 6907 6896 6895 6894 ] final -174.74 input  -60.11 | X-H torsion
[ 7974 7965 7964 7962 ] final  122.20 input  175.53 | X-H torsion
[ 8008 7997 7996 7995 ] final -121.53 input   59.86 | X-H torsion
[ 10167 10162 10161 10158 ] final -161.00 input  -65.29 | X-H torsion
[ 10718 10713 10712 10709 ] final  122.50 input   66.30 | X-H torsion
[ 10763 10752 10751 10750 ] final   54.77 input  -60.55 | X-H torsion
[ 11005 11000 10999 10996 ] final -178.18 input  -57.11 | X-H torsion

> <Gold.Protein.ActiveResidues>
 VAL166  LYS551  ARG553  GLY616  TRP617  ASP618  TYR619  PRO620  LYS621  CYS622 
 ASP623  PHE694  ASN695  SER759  ASP760  ASP761  ALA762  ILE779  LEU786  VAL792 
 PHE793  MET794  SER795  GLU796  ALA797  LYS798  CYS799  TRP800  GLU811  SER814 

> <Gold.Protein.RotatedAtoms>
  151.5773  133.3382  159.3001 H   0  0  0  0  0  0  0  0  0  0  0  0  # atno 6907 bound_to 6896
  150.8333  134.7599  159.6883 H   0  0  0  0  0  0  0  0  0  0  0  0  # atno 6908 bound_to 6896
  152.4413  134.5591  159.9940 H   0  0  0  0  0  0  0  0  0  0  0  0  # atno 6909 bound_to 6896
  145.1103  139.3457  143.4766 H   0  0  0  0  0  0  0  0  0  0  0  0  # atno 7974 bound_to 7965
  155.1495  140.0403  157.2817 H   0  0  0  0  0  0  0  0  0  0  0  0  # atno 8008 bound_to 7997
  154.6414  140.2548  155.7291 H   0  0  0  0  0  0  0  0  0  0  0  0  # atno 8009 bound_to 7997
  156.2534  140.2855  156.0810 H   0  0  0  0  0  0  0  0  0  0  0  0  # atno 8010 bound_to 7997
  139.6498  144.0106  152.2153 H   0  0  0  0  0  0  0  0  0  0  0  0  # atno 10167 bound_to 10162
  157.5737  131.1081  150.8318 H   0  0  0  0  0  0  0  0  0  0  0  0  # atno 10718 bound_to 10713
  152.9808  135.5733  154.4958 H   0  0  0  0  0  0  0  0  0  0  0  0  # atno 10763 bound_to 10752
  154.4485  135.2778  155.1799 H   0  0  0  0  0  0  0  0  0  0  0  0  # atno 10764 bound_to 10752
  154.3437  135.6224  153.5662 H   0  0  0  0  0  0  0  0  0  0  0  0  # atno 10765 bound_to 10752
  140.4326  134.6505  157.4719 H   0  0  0  0  0  0  0  0  0  0  0  0  # atno 11005 bound_to 11000
  146.3526  140.1019  142.8607 LP  0  0  0  0  0  0  0  0  0  0  0  0  # atno 17320 bound_to 7965
  145.0855  140.9249  143.4800 LP  0  0  0  0  0  0  0  0  0  0  0  0  # atno 17321 bound_to 7965
  139.9817  144.6424  150.7895 LP  0  0  0  0  0  0  0  0  0  0  0  0  # atno 17342 bound_to 10162
  140.7532  143.3004  151.3095 LP  0  0  0  0  0  0  0  0  0  0  0  0  # atno 17343 bound_to 10162
  156.8783  130.5170  149.5292 LP  0  0  0  0  0  0  0  0  0  0  0  0  # atno 17370 bound_to 10713
  156.0782  130.5799  150.9514 LP  0  0  0  0  0  0  0  0  0  0  0  0  # atno 17371 bound_to 10713
  140.0124  134.6670  155.9361 LP  0  0  0  0  0  0  0  0  0  0  0  0  # atno 17394 bound_to 11000
  141.1739  133.6539  156.4755 LP  0  0  0  0  0  0  0  0  0  0  0  0  # atno 17395 bound_to 11000

$$$$
