AV-unprocessed.smi:1830|AV-procd|sdf|7446|dock4
  -GOLD-   22720 9133D 1   1.00000     0.00000
 Structure written by MMmdl.
 54 57  0  0  0  0  0  0  0  0  3 V2000
  145.0403  137.8977  152.6259 O   0  0  0  0  0  0  0  0  0  0  0  0
  146.1375  137.4796  152.2585 C   0  0  0  0  0  0  0  0  0  0  0  0
  146.2933  136.3779  151.5138 N   0  0  0  0  0  0  0  0  0  0  0  0
  145.1920  135.5423  151.0484 C   0  0  0  0  0  0  0  0  0  0  0  0
  145.4695  134.0446  151.2640 C   0  0  2  0  0  0  0  0  0  0  0  0
  146.9041  133.6195  150.8834 C   0  0  0  0  0  0  0  0  0  0  0  0
  147.0970  132.1562  151.0115 N   0  3  1  0  0  0  0  0  0  0  0  0
  147.3608  131.6411  152.3731 C   0  0  0  0  0  0  0  0  0  0  0  0
  146.7833  130.2176  152.4148 C   0  0  0  0  0  0  0  0  0  0  0  0
  146.2509  129.9496  151.0030 C   0  0  0  0  0  0  0  0  0  0  0  0
  146.0149  131.3432  150.4184 C   0  0  1  0  0  0  0  0  0  0  0  0
  144.6205  131.9014  150.7848 C   0  0  0  0  0  0  0  0  0  0  0  0
  144.5462  133.2894  150.4884 O   0  0  0  0  0  0  0  0  0  0  0  0
  147.3196  138.0594  152.5269 N   0  0  0  0  0  0  0  0  0  0  0  0
  147.5708  139.2606  153.2510 C   0  0  0  0  0  0  0  0  0  0  0  0
  146.7417  140.4075  153.1503 C   0  0  0  0  0  0  0  0  0  0  0  0
  147.0432  141.5568  153.9075 C   0  0  0  0  0  0  0  0  0  0  0  0
  148.1618  141.5414  154.7604 C   0  0  0  0  0  0  0  0  0  0  0  0
  148.9210  140.4294  154.8475 N   0  3  0  0  0  0  0  0  0  0  0  0
  148.6742  139.2982  154.1419 C   0  0  0  0  0  0  0  0  0  0  0  0
  149.5209  138.1896  154.3161 N   0  0  0  0  0  0  0  0  0  0  0  0
  150.9284  138.4168  154.0333 C   0  0  0  0  0  0  0  0  0  0  0  0
  151.6620  137.2233  154.6490 C   0  0  0  0  0  0  0  0  0  0  0  0
  150.7126  136.6933  155.7304 C   0  0  0  0  0  0  0  0  0  0  0  0
  149.4678  137.5803  155.6348 C   0  0  0  0  0  0  0  0  0  0  0  0
  147.2259  136.1037  151.2418 H   0  0  0  0  0  0  0  0  0  0  0  0
  144.2787  135.8227  151.5756 H   0  0  0  0  0  0  0  0  0  0  0  0
  145.0177  135.7376  149.9891 H   0  0  0  0  0  0  0  0  0  0  0  0
  145.2948  133.8334  152.3205 H   0  0  0  0  0  0  0  0  0  0  0  0
  147.1054  133.8802  149.8441 H   0  0  0  0  0  0  0  0  0  0  0  0
  147.6437  134.1484  151.4858 H   0  0  0  0  0  0  0  0  0  0  0  0
  148.4331  131.6512  152.5703 H   0  0  0  0  0  0  0  0  0  0  0  0
  146.8792  132.2610  153.1302 H   0  0  0  0  0  0  0  0  0  0  0  0
  147.5284  129.4787  152.7123 H   0  0  0  0  0  0  0  0  0  0  0  0
  145.9687  130.1708  153.1387 H   0  0  0  0  0  0  0  0  0  0  0  0
  147.0164  129.4363  150.4194 H   0  0  0  0  0  0  0  0  0  0  0  0
  145.3584  129.3229  150.9972 H   0  0  0  0  0  0  0  0  0  0  0  0
  146.1228  131.3359  149.3330 H   0  0  0  0  0  0  0  0  0  0  0  0
  143.8500  131.3793  150.2170 H   0  0  0  0  0  0  0  0  0  0  0  0
  144.3897  131.7413  151.8394 H   0  0  0  0  0  0  0  0  0  0  0  0
  148.1268  137.6439  152.0854 H   0  0  0  0  0  0  0  0  0  0  0  0
  145.8690  140.4244  152.5159 H   0  0  0  0  0  0  0  0  0  0  0  0
  146.4207  142.4370  153.8377 H   0  0  0  0  0  0  0  0  0  0  0  0
  148.4654  142.3749  155.3771 H   0  0  0  0  0  0  0  0  0  0  0  0
  151.1071  138.4877  152.9599 H   0  0  0  0  0  0  0  0  0  0  0  0
  151.2709  139.3440  154.4945 H   0  0  0  0  0  0  0  0  0  0  0  0
  151.8295  136.4534  153.8947 H   0  0  0  0  0  0  0  0  0  0  0  0
  152.6338  137.5104  155.0517 H   0  0  0  0  0  0  0  0  0  0  0  0
  150.4574  135.6527  155.5256 H   0  0  0  0  0  0  0  0  0  0  0  0
  151.1557  136.7364  156.7259 H   0  0  0  0  0  0  0  0  0  0  0  0
  149.4927  138.3462  156.4113 H   0  0  0  0  0  0  0  0  0  0  0  0
  148.5522  137.0021  155.7627 H   0  0  0  0  0  0  0  0  0  0  0  0
  147.9291  131.9281  150.4861 H   0  0  0  0  0  0  0  0  0  0  0  0
  149.7218  140.4406  155.4794 H   0  0  0  0  0  0  0  0  0  0  0  0
  1  2  2  0  0  0  0
  2  3  1  0  0  0  0
  2 14  1  0  0  0  0
  3  4  1  0  0  0  0
  3 26  1  0  0  0  0
  4  5  1  0  0  0  0
  4 27  1  0  0  0  0
  4 28  1  0  0  0  0
  5 13  1  0  0  0  0
  5  6  1  0  0  0  0
  5 29  1  0  0  0  0
  6  7  1  0  0  0  0
  6 30  1  0  0  0  0
  6 31  1  0  0  0  0
  7 11  1  0  0  0  0
  7  8  1  0  0  0  0
  7 53  1  0  0  0  0
  8  9  1  0  0  0  0
  8 32  1  0  0  0  0
  8 33  1  0  0  0  0
  9 10  1  0  0  0  0
  9 34  1  0  0  0  0
  9 35  1  0  0  0  0
 10 11  1  0  0  0  0
 10 36  1  0  0  0  0
 10 37  1  0  0  0  0
 11 12  1  0  0  0  0
 11 38  1  0  0  0  0
 12 13  1  0  0  0  0
 12 39  1  0  0  0  0
 12 40  1  0  0  0  0
 14 15  1  0  0  0  0
 14 41  1  0  0  0  0
 15 20  1  0  0  0  0
 15 16  2  0  0  0  0
 16 17  1  0  0  0  0
 16 42  1  0  0  0  0
 17 18  2  0  0  0  0
 17 43  1  0  0  0  0
 18 19  1  0  0  0  0
 18 44  1  0  0  0  0
 19 20  2  0  0  0  0
 19 54  1  0  0  0  0
 20 21  1  0  0  0  0
 21 25  1  0  0  0  0
 21 22  1  0  0  0  0
 22 23  1  0  0  0  0
 22 45  1  0  0  0  0
 22 46  1  0  0  0  0
 23 24  1  0  0  0  0
 23 47  1  0  0  0  0
 23 48  1  0  0  0  0
 24 25  1  0  0  0  0
 24 49  1  0  0  0  0
 24 50  1  0  0  0  0
 25 51  1  0  0  0  0
 25 52  1  0  0  0  0
M  CHG  1   7   1
M  CHG  1  19   1
M  END
> <s_m_source_file>
AV-unprocessed.smi

> <i_m_source_file_index>
1830

> <i_lp_mmshare_version>
43012

> <i_f3d_flags>
0

> <s_epik_input>
W0NIMl0xW0NIMl1bQ0gyXVtDQEhdKE4xMilbQ0gyXU9bQ0BASF0oW0NIMl0yKVtDSDJdW05IXUMoPU8pW05IXWMzW2NIXVtjSF1bY0hdbmMzTjRbQ0gyXVtDSDJdW0NIMl1bQ0gyXTQ=

> <s_epik_cmdline>
J2VwaWtfcHl0aG9uJywgJy1waCcsICc3LjAnLCAnLXRuJywgJzgnLCAnLW1hJywgJzIwMCcsICctbWV0YWxfYmluZGluZycsICctaW1hZScsICc8aW5maWxlLm1hZT4nLCAnLW9tYWUnLCAnPG91dGZpbGUubWFlPic=

> <r_lp_tautomer_probability>
0.999994

> <r_epik_Ionization_Penalty>
1.29113

> <r_epik_Ionization_Penalty_Charging>
1.29111

> <r_epik_Ionization_Penalty_Neutral>
1.88144e-05

> <r_epik_State_Penalty>
1.32676

> <r_epik_Charging_Adjusted_Penalty>
2.61787

> <i_epik_Tot_Q>
2

> <i_epik_Tot_abs_Q>
2

> <r_epik_Metal_State_Penalty>
1.40425

> <b_epik_Metal_Only>
0

> <s_lp_Force_Field>
OPLS_2005

> <r_lp_Energy>
78.9005

> <b_lp_Chiralities_Consistent>
1

> <s_lp_Variant>
AV-unprocessed.smi:1830-15

> <Gold.Version>
5.8.1

> <Gold.Id.Protein>
6NUR|6NUR_protein|mol2

> <Gold.PLP.Fitness>
47.9193

> <Gold.PLP.PLP>
-40.2593

> <Gold.PLP.part.hbond>
-3.0651

> <Gold.PLP.part.metal>
0.0000

> <Gold.PLP.part.buried>
-3.8527

> <Gold.PLP.part.nonpolar>
-35.6801

> <Gold.PLP.part.repulsive>
3.2899

> <Gold.PLP.ligand.clash>
0.0000

> <Gold.PLP.ligand.torsion>
0.5520

> <Gold.PLP.Chemscore.Hbond>
2.9120

> <Gold.PLP.Chemscore.CHOScore>
0.0000

> <Gold.PLP.Chemscore.Metal>
0.0000

> <Gold.Chemscore.Hbonds>
donor molecule, donor type, donor heavy atom, donor atom, acceptor molecule, acceptor atom, score
      L1  H     3    26       P1  7948  0.83
      L1  H     7    53       P1 10747  0.84
      L1  H    14    41       P1  7948  0.91

> <Gold.PLP.Chemscore.Internal.Correction>
0.0279

> <Gold.Rescore>
     Score         DG    S(hbond)    S(metal)    S(lipo)     H(rot)  DE(clash)    DE(int)     intcor
     20.42     -23.07       2.84        0.00     100.56       1.43       1.32       1.33       ----

> <Gold.Chemscore.Fitness>
20.4238

> <Gold.Chemscore.DG>
-23.0689

> <Gold.Chemscore.ZeroCoef>
-5.4800

> <Gold.Chemscore.Hbond>
2.8379

> <Gold.Chemscore.Metal>
0.0000

> <Gold.Chemscore.Lipo>
100.5590

> <Gold.Chemscore.Internal_Hbond>
0.0000

> <Gold.Chemscore.DEClash>
1.3170

> <Gold.Chemscore.DEInternal>
1.3281

> <Gold.Chemscore.Rot>
1.4278

> <Gold.Chemscore.Internal.Correction>
   9.000000E+99

> <Gold.Chemscore.Hbonds>
donor molecule, donor type, donor heavy atom, donor atom, acceptor molecule, acceptor atom, score
      L1  H     3    26       P1  7948  0.81
      L1  H     7    53       P1 10747  0.79
      L1  H    14    41       P1  7948  0.89

> <Gold.Chemscore.Hbond.Weighted>
-9.4786

> <Gold.Chemscore.Metal.Weighted>
-0.0000

> <Gold.Chemscore.Lipo.Weighted>
-11.7654

> <Gold.Chemscore.Internal_Hbond.Weighted>
0.0000

> <Gold.Chemscore.DEClash.Weighted>
1.3170

> <Gold.Chemscore.DEInternal.Weighted>
1.3281

> <Gold.Chemscore.Rot.Weighted>
3.6551

> <Gold.Chemscore.Internal.Correction.Weighted>
   9.000000E+99

> <Gold.Protein.RotatedTorsions>
[ 6907 6896 6895 6894 ] final   14.59 input  -60.11 | X-H torsion
[ 7974 7965 7964 7962 ] final  -27.81 input  175.53 | X-H torsion
[ 8008 7997 7996 7995 ] final -138.50 input   59.86 | X-H torsion
[ 10167 10162 10161 10158 ] final  -27.02 input  -65.29 | X-H torsion
[ 10718 10713 10712 10709 ] final  130.72 input   66.30 | X-H torsion
[ 10763 10752 10751 10750 ] final  -93.42 input  -60.55 | X-H torsion
[ 11005 11000 10999 10996 ] final  -72.38 input  -57.11 | X-H torsion

> <Gold.Protein.ActiveResidues>
 VAL166  LYS551  ARG553  GLY616  TRP617  ASP618  TYR619  PRO620  LYS621  CYS622 
 ASP623  PHE694  ASN695  SER759  ASP760  ASP761  ALA762  ILE779  LEU786  VAL792 
 PHE793  MET794  SER795  GLU796  ALA797  LYS798  CYS799  TRP800  GLU811  SER814 

> <Gold.Protein.RotatedAtoms>
  151.8047  135.0698  160.0404 H   0  0  0  0  0  0  0  0  0  0  0  0  # atno 6907 bound_to 6896
  152.3064  133.5703  159.5660 H   0  0  0  0  0  0  0  0  0  0  0  0  # atno 6908 bound_to 6896
  150.7298  134.0133  159.3719 H   0  0  0  0  0  0  0  0  0  0  0  0  # atno 6909 bound_to 6896
  146.1332  140.5201  142.8684 H   0  0  0  0  0  0  0  0  0  0  0  0  # atno 7974 bound_to 7965
  155.4293  140.0524  157.3020 H   0  0  0  0  0  0  0  0  0  0  0  0  # atno 8008 bound_to 7997
  154.4867  140.2103  155.9598 H   0  0  0  0  0  0  0  0  0  0  0  0  # atno 8009 bound_to 7997
  156.1285  140.3176  155.8318 H   0  0  0  0  0  0  0  0  0  0  0  0  # atno 8010 bound_to 7997
  140.7280  143.4128  151.1077 H   0  0  0  0  0  0  0  0  0  0  0  0  # atno 10167 bound_to 10162
  157.5036  131.1095  150.9393 H   0  0  0  0  0  0  0  0  0  0  0  0  # atno 10718 bound_to 10713
  154.6957  135.5195  153.8455 H   0  0  0  0  0  0  0  0  0  0  0  0  # atno 10763 bound_to 10752
  153.0665  135.6587  154.0351 H   0  0  0  0  0  0  0  0  0  0  0  0  # atno 10764 bound_to 10752
  154.0218  135.2993  155.3359 H   0  0  0  0  0  0  0  0  0  0  0  0  # atno 10765 bound_to 10752
  141.1607  133.6845  156.7049 H   0  0  0  0  0  0  0  0  0  0  0  0  # atno 11005 bound_to 11000
  144.7712  140.5641  143.6669 LP  0  0  0  0  0  0  0  0  0  0  0  0  # atno 17320 bound_to 7965
  145.5215  139.1476  143.3550 LP  0  0  0  0  0  0  0  0  0  0  0  0  # atno 17321 bound_to 7965
  139.7764  143.8419  152.3130 LP  0  0  0  0  0  0  0  0  0  0  0  0  # atno 17342 bound_to 10162
  139.8355  144.7234  150.9396 LP  0  0  0  0  0  0  0  0  0  0  0  0  # atno 17343 bound_to 10162
  157.0056  130.5617  149.5315 LP  0  0  0  0  0  0  0  0  0  0  0  0  # atno 17370 bound_to 10713
  156.0244  130.5338  150.8366 LP  0  0  0  0  0  0  0  0  0  0  0  0  # atno 17371 bound_to 10713
  140.2930  134.8225  157.4033 LP  0  0  0  0  0  0  0  0  0  0  0  0  # atno 17394 bound_to 11000
  140.1329  134.5071  155.8091 LP  0  0  0  0  0  0  0  0  0  0  0  0  # atno 17395 bound_to 11000

$$$$
