AV-unprocessed.smi:1762|AV-procd|sdf|7105|dock5
  -GOLD-   22720 8323D 1   1.00000     0.00000
 Structure written by MMmdl.
 53 54  0  0  0  0  0  0  0  0  2 V2000
  152.2427  142.8453  159.4795 C   0  0  0  0  0  0  0  0  0  0  0  0
  153.2253  141.6987  159.2159 C   0  0  2  0  0  0  0  0  0  0  0  0
  152.5427  140.4856  158.5572 C   0  0  0  0  0  0  0  0  0  0  0  0
  153.4546  139.3506  158.3762 N   0  0  0  0  0  0  0  0  0  0  0  0
  152.8208  138.1992  157.6738 C   0  0  2  0  0  0  0  0  0  0  0  0
  153.8357  137.1072  157.2601 C   0  0  0  0  0  0  0  0  0  0  0  0
  153.4681  135.9430  157.0970 O   0  0  0  0  0  0  0  0  0  0  0  0
  155.1039  137.5041  157.0670 N   0  0  0  0  0  0  0  0  0  0  0  0
  156.1953  136.6320  156.6512 C   0  0  0  0  0  0  0  0  0  0  0  0
  157.3205  137.4250  155.9650 C   0  0  0  0  0  0  0  0  0  0  0  0
  157.5142  137.0127  154.5191 C   0  0  0  0  0  0  0  0  0  0  0  0
  157.4540  137.9446  153.4603 C   0  0  0  0  0  0  0  0  0  0  0  0
  157.6380  137.4953  152.1359 C   0  0  0  0  0  0  0  0  0  0  0  0
  157.8770  136.1256  151.8988 C   0  0  0  0  0  0  0  0  0  0  0  0
  157.9247  135.2383  152.9935 C   0  0  0  0  0  0  0  0  0  0  0  0
  157.7434  135.7072  154.2478 N   0  3  0  0  0  0  0  0  0  0  0  0
  151.9003  138.5835  156.4664 C   0  0  0  0  0  0  0  0  0  0  0  0
  150.7231  137.6096  156.2546 C   0  0  0  0  0  0  0  0  0  0  0  0
  152.6624  138.7974  155.1438 C   0  0  0  0  0  0  0  0  0  0  0  0
  154.0442  139.0138  159.6848 C   0  0  0  0  0  0  0  0  0  0  0  0
  154.7022  140.2165  160.3904 C   0  0  1  0  0  0  0  0  0  0  0  0
  156.0461  140.6293  159.7648 C   0  0  0  0  0  0  0  0  0  0  0  0
  153.7904  141.3099  160.4629 O   0  0  0  0  0  0  0  0  0  0  0  0
  151.7949  143.2000  158.5509 H   0  0  0  0  0  0  0  0  0  0  0  0
  152.7479  143.6905  159.9478 H   0  0  0  0  0  0  0  0  0  0  0  0
  151.4362  142.5305  160.1422 H   0  0  0  0  0  0  0  0  0  0  0  0
  154.0131  142.0720  158.5608 H   0  0  0  0  0  0  0  0  0  0  0  0
  151.6811  140.1781  159.1525 H   0  0  0  0  0  0  0  0  0  0  0  0
  152.1559  140.8283  157.6000 H   0  0  0  0  0  0  0  0  0  0  0  0
  152.1608  137.7208  158.4007 H   0  0  0  0  0  0  0  0  0  0  0  0
  155.3243  138.4780  157.2180 H   0  0  0  0  0  0  0  0  0  0  0  0
  156.5806  136.1250  157.5364 H   0  0  0  0  0  0  0  0  0  0  0  0
  155.8153  135.8531  155.9875 H   0  0  0  0  0  0  0  0  0  0  0  0
  157.1053  138.4941  155.9984 H   0  0  0  0  0  0  0  0  0  0  0  0
  158.2591  137.2857  156.5032 H   0  0  0  0  0  0  0  0  0  0  0  0
  157.2687  138.9907  153.6587 H   0  0  0  0  0  0  0  0  0  0  0  0
  157.5966  138.1928  151.3119 H   0  0  0  0  0  0  0  0  0  0  0  0
  158.0216  135.7616  150.8919 H   0  0  0  0  0  0  0  0  0  0  0  0
  158.1021  134.1763  152.9043 H   0  0  0  0  0  0  0  0  0  0  0  0
  151.4150  139.5278  156.7076 H   0  0  0  0  0  0  0  0  0  0  0  0
  151.0548  136.6365  155.8915 H   0  0  0  0  0  0  0  0  0  0  0  0
  150.0211  138.0041  155.5194 H   0  0  0  0  0  0  0  0  0  0  0  0
  150.1702  137.4520  157.1811 H   0  0  0  0  0  0  0  0  0  0  0  0
  153.1064  137.8733  154.7747 H   0  0  0  0  0  0  0  0  0  0  0  0
  153.4620  139.5299  155.2550 H   0  0  0  0  0  0  0  0  0  0  0  0
  151.9931  139.1674  154.3668 H   0  0  0  0  0  0  0  0  0  0  0  0
  153.2676  138.6068  160.3347 H   0  0  0  0  0  0  0  0  0  0  0  0
  154.8064  138.2400  159.5998 H   0  0  0  0  0  0  0  0  0  0  0  0
  154.9094  139.9273  161.4212 H   0  0  0  0  0  0  0  0  0  0  0  0
  156.7753  139.8229  159.8463 H   0  0  0  0  0  0  0  0  0  0  0  0
  156.4596  141.5008  160.2725 H   0  0  0  0  0  0  0  0  0  0  0  0
  155.9493  140.8722  158.7069 H   0  0  0  0  0  0  0  0  0  0  0  0
  157.7823  135.0471  155.0249 H   0  0  0  0  0  0  0  0  0  0  0  0
  1  2  1  0  0  0  0
  1 24  1  0  0  0  0
  1 25  1  0  0  0  0
  1 26  1  0  0  0  0
  2 23  1  0  0  0  0
  2  3  1  0  0  0  0
  2 27  1  0  0  0  0
  3  4  1  0  0  0  0
  3 28  1  0  0  0  0
  3 29  1  0  0  0  0
  4  5  1  0  0  0  0
  4 20  1  0  0  0  0
  5  6  1  0  0  0  0
  5 17  1  0  0  0  0
  5 30  1  0  0  0  0
  6  7  2  0  0  0  0
  6  8  1  0  0  0  0
  8  9  1  0  0  0  0
  8 31  1  0  0  0  0
  9 10  1  0  0  0  0
  9 32  1  0  0  0  0
  9 33  1  0  0  0  0
 10 11  1  0  0  0  0
 10 34  1  0  0  0  0
 10 35  1  0  0  0  0
 11 16  1  0  0  0  0
 11 12  2  0  0  0  0
 12 13  1  0  0  0  0
 12 36  1  0  0  0  0
 13 14  2  0  0  0  0
 13 37  1  0  0  0  0
 14 15  1  0  0  0  0
 14 38  1  0  0  0  0
 15 16  2  0  0  0  0
 15 39  1  0  0  0  0
 16 53  1  0  0  0  0
 17 18  1  0  0  0  0
 17 19  1  0  0  0  0
 17 40  1  0  0  0  0
 18 41  1  0  0  0  0
 18 42  1  0  0  0  0
 18 43  1  0  0  0  0
 19 44  1  0  0  0  0
 19 45  1  0  0  0  0
 19 46  1  0  0  0  0
 20 21  1  0  0  0  0
 20 47  1  0  0  0  0
 20 48  1  0  0  0  0
 21 22  1  0  0  0  0
 21 23  1  0  0  0  0
 21 49  1  0  0  0  0
 22 50  1  0  0  0  0
 22 51  1  0  0  0  0
 22 52  1  0  0  0  0
M  CHG  1  16   1
M  END
> <s_m_source_file>
AV-unprocessed.smi

> <i_m_source_file_index>
1762

> <i_lp_mmshare_version>
43012

> <i_f3d_flags>
0

> <s_epik_input>
W0NIM11bQ0BASF0xW0NIMl1OKFtDSDJdW0NASF0oTzEpW0NIM10pW0NAQEhdKFtDSF0oW0NIM10pW0NIM10pQyg9TylbTkhdW0NIMl1bQ0gyXWMyW2NIXVtjSF1bY0hdW2NIXW4y

> <s_epik_cmdline>
J2VwaWtfcHl0aG9uJywgJy1waCcsICc3LjAnLCAnLXRuJywgJzgnLCAnLW1hJywgJzIwMCcsICctbWV0YWxfYmluZGluZycsICctaW1hZScsICc8aW5maWxlLm1hZT4nLCAnLW9tYWUnLCAnPG91dGZpbGUubWFlPic=

> <r_epik_Ionization_Penalty>
1.86475

> <r_epik_Ionization_Penalty_Charging>
1.85347

> <r_epik_Ionization_Penalty_Neutral>
0.0112771

> <r_epik_State_Penalty>
1.99714

> <r_epik_Charging_Adjusted_Penalty>
3.85061

> <i_epik_Tot_Q>
1

> <i_epik_Tot_abs_Q>
1

> <r_epik_Metal_State_Penalty>
2.02271

> <b_epik_Metal_Only>
0

> <s_lp_Force_Field>
OPLS_2005

> <r_lp_Energy>
35.8241

> <b_lp_Chiralities_Consistent>
1

> <s_lp_Variant>
AV-unprocessed.smi:1762-7

> <Gold.Version>
5.8.1

> <Gold.Id.Protein>
6NUR|6NUR_protein|mol2

> <Gold.PLP.Fitness>
40.4371

> <Gold.PLP.PLP>
-37.6278

> <Gold.PLP.part.hbond>
-2.0000

> <Gold.PLP.part.metal>
0.0000

> <Gold.PLP.part.buried>
-5.6968

> <Gold.PLP.part.nonpolar>
-32.0234

> <Gold.PLP.part.repulsive>
1.3408

> <Gold.PLP.ligand.clash>
0.0000

> <Gold.PLP.ligand.torsion>
1.7481

> <Gold.PLP.Chemscore.Hbond>
2.0000

> <Gold.PLP.Chemscore.CHOScore>
0.0000

> <Gold.PLP.Chemscore.Metal>
0.0000

> <Gold.Chemscore.Hbonds>
donor molecule, donor type, donor heavy atom, donor atom, acceptor molecule, acceptor atom, score
      P1  H  7997  8009       L1     4  1.00
      P1  H 10752 10763       L1     7  1.00

> <Gold.PLP.Chemscore.Internal.Correction>
0.3056

> <Gold.Rescore>
     Score         DG    S(hbond)    S(metal)    S(lipo)     H(rot)  DE(clash)    DE(int)     intcor
     19.01     -20.80       1.15        0.00     135.62       1.72       0.25       1.54       ----

> <Gold.Chemscore.Fitness>
19.0081

> <Gold.Chemscore.DG>
-20.8019

> <Gold.Chemscore.ZeroCoef>
-5.4800

> <Gold.Chemscore.Hbond>
1.1530

> <Gold.Chemscore.Metal>
0.0000

> <Gold.Chemscore.Lipo>
135.6185

> <Gold.Chemscore.Internal_Hbond>
0.0000

> <Gold.Chemscore.DEClash>
0.2527

> <Gold.Chemscore.DEInternal>
1.5410

> <Gold.Chemscore.Rot>
1.7174

> <Gold.Chemscore.Internal.Correction>
   9.000000E+99

> <Gold.Chemscore.Hbonds>
donor molecule, donor type, donor heavy atom, donor atom, acceptor molecule, acceptor atom, score
      P1  H  7997  8009       L1     4  0.07
      P1  H 10752 10763       L1     7  0.88

> <Gold.Chemscore.Hbond.Weighted>
-3.8511

> <Gold.Chemscore.Metal.Weighted>
-0.0000

> <Gold.Chemscore.Lipo.Weighted>
-15.8674

> <Gold.Chemscore.Internal_Hbond.Weighted>
0.0000

> <Gold.Chemscore.DEClash.Weighted>
0.2527

> <Gold.Chemscore.DEInternal.Weighted>
1.5410

> <Gold.Chemscore.Rot.Weighted>
4.3966

> <Gold.Chemscore.Internal.Correction.Weighted>
   9.000000E+99

> <Gold.Protein.RotatedTorsions>
[ 6907 6896 6895 6894 ] final  146.26 input  -60.11 | X-H torsion
[ 7974 7965 7964 7962 ] final   29.14 input  175.53 | X-H torsion
[ 8008 7997 7996 7995 ] final  157.44 input   59.86 | X-H torsion
[ 10167 10162 10161 10158 ] final   82.01 input  -65.29 | X-H torsion
[ 10718 10713 10712 10709 ] final -130.94 input   66.30 | X-H torsion
[ 10763 10752 10751 10750 ] final  122.02 input  -60.55 | X-H torsion
[ 11005 11000 10999 10996 ] final  -24.89 input  -57.11 | X-H torsion

> <Gold.Protein.ActiveResidues>
 VAL166  LYS551  ARG553  GLY616  TRP617  ASP618  TYR619  PRO620  LYS621  CYS622 
 ASP623  PHE694  ASN695  SER759  ASP760  ASP761  ALA762  ILE779  LEU786  VAL792 
 PHE793  MET794  SER795  GLU796  ALA797  LYS798  CYS799  TRP800  GLU811  SER814 

> <Gold.Protein.RotatedAtoms>
  152.1702  133.4638  159.4905 H   0  0  0  0  0  0  0  0  0  0  0  0  # atno 6907 bound_to 6896
  150.6919  134.1962  159.4313 H   0  0  0  0  0  0  0  0  0  0  0  0  # atno 6908 bound_to 6896
  151.9869  134.9999  160.0610 H   0  0  0  0  0  0  0  0  0  0  0  0  # atno 6909 bound_to 6896
  146.1689  139.6962  142.8982 H   0  0  0  0  0  0  0  0  0  0  0  0  # atno 7974 bound_to 7965
  156.2364  140.1885  156.7109 H   0  0  0  0  0  0  0  0  0  0  0  0  # atno 8008 bound_to 7997
  154.6114  140.0621  156.9525 H   0  0  0  0  0  0  0  0  0  0  0  0  # atno 8009 bound_to 7997
  155.2011  140.3292  155.4345 H   0  0  0  0  0  0  0  0  0  0  0  0  # atno 8010 bound_to 7997
  139.9332  144.6138  150.8324 H   0  0  0  0  0  0  0  0  0  0  0  0  # atno 10167 bound_to 10162
  156.2194  130.6969  151.0739 H   0  0  0  0  0  0  0  0  0  0  0  0  # atno 10718 bound_to 10713
  153.6232  135.3409  155.3017 H   0  0  0  0  0  0  0  0  0  0  0  0  # atno 10763 bound_to 10752
  154.8595  135.4278  154.2185 H   0  0  0  0  0  0  0  0  0  0  0  0  # atno 10764 bound_to 10752
  153.3063  135.7028  153.7230 H   0  0  0  0  0  0  0  0  0  0  0  0  # atno 10765 bound_to 10752
  140.8887  133.7603  156.0393 H   0  0  0  0  0  0  0  0  0  0  0  0  # atno 11005 bound_to 11000
  145.4394  141.0421  143.2866 LP  0  0  0  0  0  0  0  0  0  0  0  0  # atno 17320 bound_to 7965
  144.8133  139.5923  143.7020 LP  0  0  0  0  0  0  0  0  0  0  0  0  # atno 17321 bound_to 7965
  140.7631  143.3216  151.2609 LP  0  0  0  0  0  0  0  0  0  0  0  0  # atno 17342 bound_to 10162
  139.6765  143.9929  152.2784 LP  0  0  0  0  0  0  0  0  0  0  0  0  # atno 17343 bound_to 10162
  157.7080  131.0747  150.6601 LP  0  0  0  0  0  0  0  0  0  0  0  0  # atno 17370 bound_to 10713
  156.6664  130.4527  149.5671 LP  0  0  0  0  0  0  0  0  0  0  0  0  # atno 17371 bound_to 10713
  140.8373  134.3107  157.5326 LP  0  0  0  0  0  0  0  0  0  0  0  0  # atno 17394 bound_to 11000
  139.8727  134.9397  156.3748 LP  0  0  0  0  0  0  0  0  0  0  0  0  # atno 17395 bound_to 11000

$$$$
