AV-unprocessed.smi:33|AV-procd|sdf|212|dock6
  -GOLD-   2262015513D 1   1.00000     0.00000
 Structure written by MMmdl.
 67 72  0  0  0  0  0  0  0  0  1 V2000
  154.7879  139.3620  158.5104 O   0  0  0  0  0  0  0  0  0  0  0  0
  153.6203  139.7524  158.4491 C   0  0  0  0  0  0  0  0  0  0  0  0
  152.6294  139.0525  157.8632 O   0  0  0  0  0  0  0  0  0  0  0  0
  152.9313  138.1012  156.8559 C   0  0  0  0  0  0  0  0  0  0  0  0
  151.6474  137.7491  156.0950 C   0  0  1  0  0  0  0  0  0  0  0  0
  150.5662  137.5474  156.9920 O   0  0  0  0  0  0  0  0  0  0  0  0
  149.3719  137.6833  156.2872 C   0  0  1  0  0  0  0  0  0  0  0  0
  148.3736  138.3426  157.1814 N   0  0  0  0  0  0  0  0  0  0  0  0
  148.5325  139.5073  157.8987 C   0  0  0  0  0  0  0  0  0  0  0  0
  147.5089  139.8596  158.6290 N   0  0  0  0  0  0  0  0  0  0  0  0
  146.5694  138.8646  158.3907 C   0  0  0  0  0  0  0  0  0  0  0  0
  145.2504  138.6185  158.8589 C   0  0  0  0  0  0  0  0  0  0  0  0
  144.6197  139.4291  159.7413 N   0  0  0  0  0  0  0  0  0  0  0  0
  144.4765  140.8437  159.3681 C   0  0  0  0  0  0  0  0  0  0  0  0
  144.4667  141.1608  158.1772 O   0  0  0  0  0  0  0  0  0  0  0  0
  144.2939  141.8949  160.4260 C   0  0  0  0  0  0  0  0  0  0  0  0
  145.4009  142.6506  160.8709 C   0  0  0  0  0  0  0  0  0  0  0  0
  145.2373  143.6270  161.8726 C   0  0  0  0  0  0  0  0  0  0  0  0
  143.9705  143.8411  162.4487 C   0  0  0  0  0  0  0  0  0  0  0  0
  142.8685  143.0715  162.0298 C   0  0  0  0  0  0  0  0  0  0  0  0
  143.0312  142.0951  161.0283 C   0  0  0  0  0  0  0  0  0  0  0  0
  144.1400  138.8207  160.9916 C   0  0  0  0  0  0  0  0  0  0  0  0
  143.2034  139.3424  161.6000 O   0  0  0  0  0  0  0  0  0  0  0  0
  144.7418  137.5409  161.5001 C   0  0  0  0  0  0  0  0  0  0  0  0
  144.3829  136.3092  160.9096 C   0  0  0  0  0  0  0  0  0  0  0  0
  144.9297  135.1042  161.3917 C   0  0  0  0  0  0  0  0  0  0  0  0
  145.8241  135.1208  162.4788 C   0  0  0  0  0  0  0  0  0  0  0  0
  146.1647  136.3424  163.0901 C   0  0  0  0  0  0  0  0  0  0  0  0
  145.6190  137.5480  162.6082 C   0  0  0  0  0  0  0  0  0  0  0  0
  144.6078  137.5120  158.4028 N   0  0  0  0  0  0  0  0  0  0  0  0
  145.2227  136.6946  157.5433 C   0  0  0  0  0  0  0  0  0  0  0  0
  146.4500  136.7953  157.0282 N   0  0  0  0  0  0  0  0  0  0  0  0
  147.0984  137.9075  157.4817 C   0  0  0  0  0  0  0  0  0  0  0  0
  149.6501  138.5552  155.0496 C   0  0  2  0  0  0  0  0  0  0  0  0
  149.3985  137.8576  153.8464 O   0  0  0  0  0  0  0  0  0  0  0  0
  151.1372  138.8585  155.1739 C   0  0  1  0  0  0  0  0  0  0  0  0
  151.3001  140.0582  155.7346 F   0  0  0  0  0  0  0  0  0  0  0  0
  153.1566  141.0528  159.0137 C   0  0  0  0  0  0  0  0  0  0  0  0
  152.0152  141.6801  158.4615 C   0  0  0  0  0  0  0  0  0  0  0  0
  151.5515  142.9066  158.9760 C   0  0  0  0  0  0  0  0  0  0  0  0
  152.2242  143.5217  160.0477 C   0  0  0  0  0  0  0  0  0  0  0  0
  153.3620  142.9090  160.6043 C   0  0  0  0  0  0  0  0  0  0  0  0
  153.8265  141.6818  160.0921 C   0  0  0  0  0  0  0  0  0  0  0  0
  153.6858  138.4875  156.1687 H   0  0  0  0  0  0  0  0  0  0  0  0
  153.3414  137.2085  157.3300 H   0  0  0  0  0  0  0  0  0  0  0  0
  151.7907  136.8399  155.5081 H   0  0  0  0  0  0  0  0  0  0  0  0
  148.9449  136.7067  156.0533 H   0  0  0  0  0  0  0  0  0  0  0  0
  149.4432  140.0876  157.8706 H   0  0  0  0  0  0  0  0  0  0  0  0
  146.3777  142.4950  160.4359 H   0  0  0  0  0  0  0  0  0  0  0  0
  146.0847  144.2112  162.1998 H   0  0  0  0  0  0  0  0  0  0  0  0
  143.8456  144.5904  163.2164 H   0  0  0  0  0  0  0  0  0  0  0  0
  141.8985  143.2286  162.4777 H   0  0  0  0  0  0  0  0  0  0  0  0
  142.1794  141.5062  160.7192 H   0  0  0  0  0  0  0  0  0  0  0  0
  143.6969  136.2841  160.0751 H   0  0  0  0  0  0  0  0  0  0  0  0
  144.6612  134.1665  160.9278 H   0  0  0  0  0  0  0  0  0  0  0  0
  146.2430  134.1964  162.8481 H   0  0  0  0  0  0  0  0  0  0  0  0
  146.8436  136.3550  163.9298 H   0  0  0  0  0  0  0  0  0  0  0  0
  145.8842  138.4789  163.0889 H   0  0  0  0  0  0  0  0  0  0  0  0
  144.6512  135.8355  157.2243 H   0  0  0  0  0  0  0  0  0  0  0  0
  149.0479  139.4654  155.0626 H   0  0  0  0  0  0  0  0  0  0  0  0
  149.5273  138.4518  153.1228 H   0  0  0  0  0  0  0  0  0  0  0  0
  151.6619  138.8887  154.2181 H   0  0  0  0  0  0  0  0  0  0  0  0
  151.4816  141.2263  157.6389 H   0  0  0  0  0  0  0  0  0  0  0  0
  150.6777  143.3750  158.5476 H   0  0  0  0  0  0  0  0  0  0  0  0
  151.8683  144.4621  160.4422 H   0  0  0  0  0  0  0  0  0  0  0  0
  153.8798  143.3802  161.4268 H   0  0  0  0  0  0  0  0  0  0  0  0
  154.7024  141.2387  160.5431 H   0  0  0  0  0  0  0  0  0  0  0  0
  1  2  2  0  0  0  0
  2  3  1  0  0  0  0
  2 38  1  0  0  0  0
  3  4  1  0  0  0  0
  4  5  1  0  0  0  0
  4 44  1  0  0  0  0
  4 45  1  0  0  0  0
  5 36  1  0  0  0  0
  5  6  1  0  0  0  0
  5 46  1  0  0  0  0
  6  7  1  0  0  0  0
  7  8  1  0  0  0  0
  7 34  1  0  0  0  0
  7 47  1  0  0  0  0
  8 33  1  0  0  0  0
  8  9  1  0  0  0  0
  9 10  2  0  0  0  0
  9 48  1  0  0  0  0
 10 11  1  0  0  0  0
 11 33  2  0  0  0  0
 11 12  1  0  0  0  0
 12 13  1  0  0  0  0
 12 30  2  0  0  0  0
 13 14  1  0  0  0  0
 13 22  1  0  0  0  0
 14 15  2  0  0  0  0
 14 16  1  0  0  0  0
 16 21  1  0  0  0  0
 16 17  2  0  0  0  0
 17 18  1  0  0  0  0
 17 49  1  0  0  0  0
 18 19  2  0  0  0  0
 18 50  1  0  0  0  0
 19 20  1  0  0  0  0
 19 51  1  0  0  0  0
 20 21  2  0  0  0  0
 20 52  1  0  0  0  0
 21 53  1  0  0  0  0
 22 23  2  0  0  0  0
 22 24  1  0  0  0  0
 24 29  1  0  0  0  0
 24 25  2  0  0  0  0
 25 26  1  0  0  0  0
 25 54  1  0  0  0  0
 26 27  2  0  0  0  0
 26 55  1  0  0  0  0
 27 28  1  0  0  0  0
 27 56  1  0  0  0  0
 28 29  2  0  0  0  0
 28 57  1  0  0  0  0
 29 58  1  0  0  0  0
 30 31  1  0  0  0  0
 31 32  2  0  0  0  0
 31 59  1  0  0  0  0
 32 33  1  0  0  0  0
 34 35  1  0  0  0  0
 34 36  1  0  0  0  0
 34 60  1  0  0  0  0
 35 61  1  0  0  0  0
 36 37  1  0  0  0  0
 36 62  1  0  0  0  0
 38 43  1  0  0  0  0
 38 39  2  0  0  0  0
 39 40  1  0  0  0  0
 39 63  1  0  0  0  0
 40 41  2  0  0  0  0
 40 64  1  0  0  0  0
 41 42  1  0  0  0  0
 41 65  1  0  0  0  0
 42 43  2  0  0  0  0
 42 66  1  0  0  0  0
 43 67  1  0  0  0  0
M  END
> <s_m_source_file>
AV-unprocessed.smi

> <i_m_source_file_index>
33

> <i_lp_mmshare_version>
43012

> <i_f3d_flags>
0

> <s_epik_input>
W2NIXTFbY0hdW2NIXVtjSF1bY0hdYzFDKD1PKU9bQ0gyXVtDQEBIXTJPW0NASF0oW0NAQEhdKFtPSF0pW0NAQEhdMkYpbihbY0hdbjMpYyhjMzQpbltjSF1uYzROKEMoPU8pYzVbY0hdW2NIXVtjSF1bY0hdW2NIXTUpQyg9TyljNltjSF1bY0hdW2NIXVtjSF1bY0hdNg==

> <s_epik_cmdline>
J2VwaWtfcHl0aG9uJywgJy1waCcsICc3LjAnLCAnLXRuJywgJzgnLCAnLW1hJywgJzIwMCcsICctbWV0YWxfYmluZGluZycsICctaW1hZScsICc8aW5maWxlLm1hZT4nLCAnLW9tYWUnLCAnPG91dGZpbGUubWFlPic=

> <r_lp_tautomer_probability>
1

> <r_epik_Ionization_Penalty>
0.00067664

> <r_epik_Ionization_Penalty_Charging>
0

> <r_epik_Ionization_Penalty_Neutral>
0.00067664

> <r_epik_State_Penalty>
0.000428095

> <r_epik_Charging_Adjusted_Penalty>
0.000428095

> <i_epik_Tot_Q>
0

> <i_epik_Tot_abs_Q>
0

> <r_epik_Metal_State_Penalty>
-0

> <b_epik_Metal_Only>
0

> <s_epik_Chemistry_Notes>
This compound has an ester and may undergo hydrolysis at high or low pH. This compound contains an acetal/aminal-like group ( X-CH(R)-Y where X, Y are N, S, or O) that may be acid/base labile, releasing an aldehyde.

> <s_lp_Force_Field>
OPLS_2005

> <r_lp_Energy>
68.7921

> <b_lp_Chiralities_Consistent>
1

> <s_lp_Variant>
AV-unprocessed.smi:33-14

> <Gold.Version>
5.8.1

> <Gold.Id.Protein>
6NUR|6NUR_protein|mol2

> <Gold.PLP.Fitness>
53.9961

> <Gold.PLP.PLP>
-54.9022

> <Gold.PLP.part.hbond>
-5.0000

> <Gold.PLP.part.metal>
0.0000

> <Gold.PLP.part.buried>
-5.5663

> <Gold.PLP.part.nonpolar>
-44.4162

> <Gold.PLP.part.repulsive>
0.0000

> <Gold.PLP.ligand.clash>
0.0000

> <Gold.PLP.ligand.torsion>
5.3232

> <Gold.PLP.Chemscore.Hbond>
1.7184

> <Gold.PLP.Chemscore.CHOScore>
0.0000

> <Gold.PLP.Chemscore.Metal>
0.0000

> <Gold.Chemscore.Hbonds>
donor molecule, donor type, donor heavy atom, donor atom, acceptor molecule, acceptor atom, score
      P1  H  7997  8009       L1     1  0.81

> <Gold.PLP.Chemscore.Internal.Correction>
4.5850

> <Gold.Rescore>
     Score         DG    S(hbond)    S(metal)    S(lipo)     H(rot)  DE(clash)    DE(int)     intcor
      7.26     -19.16       1.60        0.00     126.49       2.52       1.53      10.36       ----

> <Gold.Chemscore.Fitness>
7.2617

> <Gold.Chemscore.DG>
-19.1564

> <Gold.Chemscore.ZeroCoef>
-5.4800

> <Gold.Chemscore.Hbond>
1.5988

> <Gold.Chemscore.Metal>
0.0000

> <Gold.Chemscore.Lipo>
126.4932

> <Gold.Chemscore.Internal_Hbond>
0.0000

> <Gold.Chemscore.DEClash>
1.5331

> <Gold.Chemscore.DEInternal>
10.3617

> <Gold.Chemscore.Rot>
2.5247

> <Gold.Chemscore.Internal.Correction>
   9.000000E+99

> <Gold.Chemscore.Hbonds>
donor molecule, donor type, donor heavy atom, donor atom, acceptor molecule, acceptor atom, score
      L1  H    35    61       P1  7957  0.01
      P1  H  7997  8009       L1     1  0.30

> <Gold.Chemscore.Hbond.Weighted>
-5.3400

> <Gold.Chemscore.Metal.Weighted>
-0.0000

> <Gold.Chemscore.Lipo.Weighted>
-14.7997

> <Gold.Chemscore.Internal_Hbond.Weighted>
0.0000

> <Gold.Chemscore.DEClash.Weighted>
1.5331

> <Gold.Chemscore.DEInternal.Weighted>
10.3617

> <Gold.Chemscore.Rot.Weighted>
6.4633

> <Gold.Chemscore.Internal.Correction.Weighted>
   9.000000E+99

> <Gold.Protein.RotatedTorsions>
[ 6907 6896 6895 6894 ] final  136.58 input  -60.11 | X-H torsion
[ 7974 7965 7964 7962 ] final   47.48 input  175.53 | X-H torsion
[ 8008 7997 7996 7995 ] final  100.87 input   59.86 | X-H torsion
[ 10167 10162 10161 10158 ] final  -23.30 input  -65.29 | X-H torsion
[ 10718 10713 10712 10709 ] final  178.35 input   66.30 | X-H torsion
[ 10763 10752 10751 10750 ] final  108.90 input  -60.55 | X-H torsion
[ 11005 11000 10999 10996 ] final   50.70 input  -57.11 | X-H torsion

> <Gold.Protein.ActiveResidues>
 VAL166  LYS551  ARG553  GLY616  TRP617  ASP618  TYR619  PRO620  LYS621  CYS622 
 ASP623  PHE694  ASN695  SER759  ASP760  ASP761  ALA762  ILE779  LEU786  VAL792 
 PHE793  MET794  SER795  GLU796  ALA797  LYS798  CYS799  TRP800  GLU811  SER814 

> <Gold.Protein.RotatedAtoms>
  152.2877  133.5531  159.5537 H   0  0  0  0  0  0  0  0  0  0  0  0  # atno 6907 bound_to 6896
  150.7222  134.0473  159.3795 H   0  0  0  0  0  0  0  0  0  0  0  0  # atno 6908 bound_to 6896
  151.8381  135.0599  160.0495 H   0  0  0  0  0  0  0  0  0  0  0  0  # atno 6909 bound_to 6896
  146.0293  139.4744  142.9848 H   0  0  0  0  0  0  0  0  0  0  0  0  # atno 7974 bound_to 7965
  156.1245  140.3206  155.8257 H   0  0  0  0  0  0  0  0  0  0  0  0  # atno 8008 bound_to 7997
  155.4444  140.0528  157.3024 H   0  0  0  0  0  0  0  0  0  0  0  0  # atno 8009 bound_to 7997
  154.4852  140.2070  155.9685 H   0  0  0  0  0  0  0  0  0  0  0  0  # atno 8010 bound_to 7997
  140.7288  143.4455  151.0593 H   0  0  0  0  0  0  0  0  0  0  0  0  # atno 10167 bound_to 10162
  156.8919  130.9850  151.3048 H   0  0  0  0  0  0  0  0  0  0  0  0  # atno 10718 bound_to 10713
  153.4271  135.3797  155.2148 H   0  0  0  0  0  0  0  0  0  0  0  0  # atno 10763 bound_to 10752
  154.8748  135.3831  154.4312 H   0  0  0  0  0  0  0  0  0  0  0  0  # atno 10764 bound_to 10752
  153.4840  135.7088  153.5984 H   0  0  0  0  0  0  0  0  0  0  0  0  # atno 10765 bound_to 10752
  140.0995  134.5100  155.8776 H   0  0  0  0  0  0  0  0  0  0  0  0  # atno 11005 bound_to 11000
  145.7066  141.0119  143.1475 LP  0  0  0  0  0  0  0  0  0  0  0  0  # atno 17320 bound_to 7965
  144.7023  139.8708  143.7440 LP  0  0  0  0  0  0  0  0  0  0  0  0  # atno 17321 bound_to 7965
  139.8127  143.7929  152.3172 LP  0  0  0  0  0  0  0  0  0  0  0  0  # atno 17342 bound_to 10162
  139.7984  144.7383  150.9858 LP  0  0  0  0  0  0  0  0  0  0  0  0  # atno 17343 bound_to 10162
  157.6079  130.8561  149.8904 LP  0  0  0  0  0  0  0  0  0  0  0  0  # atno 17370 bound_to 10713
  156.0625  130.3697  150.0951 LP  0  0  0  0  0  0  0  0  0  0  0  0  # atno 17371 bound_to 10713
  141.2101  133.6691  156.6489 LP  0  0  0  0  0  0  0  0  0  0  0  0  # atno 17394 bound_to 11000
  140.3240  134.7984  157.4274 LP  0  0  0  0  0  0  0  0  0  0  0  0  # atno 17395 bound_to 11000

$$$$
