AV-unprocessed.smi:169|AV-procd|sdf|1403|dock2
  -GOLD-   2262019153D 1   1.00000     0.00000
 Structure written by MMmdl.
 56 60  0  0  0  0  0  0  0  0  2 V2000
  145.8994  130.9453  151.7449 C   0  0  0  0  0  0  0  0  0  0  0  0
  146.9795  130.8749  152.8349 C   0  0  0  0  0  0  0  0  0  0  0  0
  147.9539  132.0005  152.7736 N   0  3  1  0  0  0  0  0  0  0  0  0
  147.4042  133.2645  152.1565 C   0  0  0  0  0  0  0  0  0  0  0  0
  146.2779  134.0277  152.9569 C   0  0  0  0  0  0  0  0  0  0  0  0
  146.7344  134.8353  154.2267 C   0  0  1  0  0  0  0  0  0  0  0  0
  146.1225  134.3487  155.5877 C   0  0  0  0  0  0  0  0  0  0  0  0
  147.1568  133.3245  156.1691 C   0  0  0  0  0  0  0  0  0  0  0  0
  148.1335  133.2613  154.9924 C   0  0  3  0  0  0  0  0  0  0  0  0
  148.7223  132.1713  154.0674 C   0  0  0  0  0  0  0  0  0  0  0  0
  148.1536  134.5966  154.4233 N   0  0  0  0  0  0  0  0  0  0  0  0
  148.9447  135.5216  155.0356 C   0  0  0  0  0  0  0  0  0  0  0  0
  150.2827  135.2991  155.1281 N   0  0  0  0  0  0  0  0  0  0  0  0
  151.0832  136.1911  155.7175 C   0  0  0  0  0  0  0  0  0  0  0  0
  150.7608  137.3561  156.2798 N   0  0  0  0  0  0  0  0  0  0  0  0
  149.4190  137.5853  156.2051 C   0  0  0  0  0  0  0  0  0  0  0  0
  148.4476  136.7285  155.6119 C   0  0  0  0  0  0  0  0  0  0  0  0
  147.1845  137.2938  155.7473 N   0  0  0  0  0  0  0  0  0  0  0  0
  147.3975  138.4175  156.3747 C   0  0  0  0  0  0  0  0  0  0  0  0
  148.7145  138.6811  156.6743 N   0  0  0  0  0  0  0  0  0  0  0  0
  149.2404  139.8512  157.3637 C   0  0  0  0  0  0  0  0  0  0  0  0
  150.2013  140.7251  156.5214 C   0  0  0  0  0  0  0  0  0  0  0  0
  150.5580  141.9697  157.3451 C   0  0  0  0  0  0  0  0  0  0  0  0
  151.1600  142.9619  156.5388 O   0  0  0  0  0  0  0  0  0  0  0  0
  151.3923  140.0130  155.8545 C   0  0  0  0  0  0  0  0  0  0  0  0
  150.7227  139.9795  154.5764 O   0  0  0  0  0  0  0  0  0  0  0  0
  149.7996  140.9784  155.0592 C   0  0  0  0  0  0  0  0  0  0  0  0
  145.3106  130.0277  151.7331 H   0  0  0  0  0  0  0  0  0  0  0  0
  146.3413  131.0646  150.7550 H   0  0  0  0  0  0  0  0  0  0  0  0
  145.2025  131.7668  151.9095 H   0  0  0  0  0  0  0  0  0  0  0  0
  146.5200  130.8127  153.8214 H   0  0  0  0  0  0  0  0  0  0  0  0
  147.5181  129.9373  152.6922 H   0  0  0  0  0  0  0  0  0  0  0  0
  148.2362  133.9370  151.9435 H   0  0  0  0  0  0  0  0  0  0  0  0
  147.0139  133.0226  151.1693 H   0  0  0  0  0  0  0  0  0  0  0  0
  145.8257  134.7456  152.2717 H   0  0  0  0  0  0  0  0  0  0  0  0
  145.4659  133.3451  153.2060 H   0  0  0  0  0  0  0  0  0  0  0  0
  146.4988  135.8870  154.0636 H   0  0  0  0  0  0  0  0  0  0  0  0
  146.0137  135.1876  156.2763 H   0  0  0  0  0  0  0  0  0  0  0  0
  145.1335  133.9090  155.4559 H   0  0  0  0  0  0  0  0  0  0  0  0
  147.6524  133.7430  157.0462 H   0  0  0  0  0  0  0  0  0  0  0  0
  146.7127  132.3695  156.4661 H   0  0  0  0  0  0  0  0  0  0  0  0
  147.2529  132.7292  154.6557 H   0  0  0  0  0  0  0  0  0  0  0  0
  148.8296  131.2260  154.6015 H   0  0  0  0  0  0  0  0  0  0  0  0
  149.7351  132.4654  153.7924 H   0  0  0  0  0  0  0  0  0  0  0  0
  152.1323  135.9352  155.7399 H   0  0  0  0  0  0  0  0  0  0  0  0
  146.5925  139.0881  156.6365 H   0  0  0  0  0  0  0  0  0  0  0  0
  148.3871  140.4409  157.7011 H   0  0  0  0  0  0  0  0  0  0  0  0
  149.7362  139.5047  158.2713 H   0  0  0  0  0  0  0  0  0  0  0  0
  149.6743  142.3909  157.8252 H   0  0  0  0  0  0  0  0  0  0  0  0
  151.2553  141.7205  158.1457 H   0  0  0  0  0  0  0  0  0  0  0  0
  150.4806  143.5182  156.1891 H   0  0  0  0  0  0  0  0  0  0  0  0
  152.3007  140.6164  155.8130 H   0  0  0  0  0  0  0  0  0  0  0  0
  151.6173  139.0211  156.2432 H   0  0  0  0  0  0  0  0  0  0  0  0
  148.7603  140.7478  154.8285 H   0  0  0  0  0  0  0  0  0  0  0  0
  150.0598  141.9748  154.6971 H   0  0  0  0  0  0  0  0  0  0  0  0
  148.6519  131.6756  152.1197 H   0  0  0  0  0  0  0  0  0  0  0  0
  1  2  1  0  0  0  0
  1 28  1  0  0  0  0
  1 29  1  0  0  0  0
  1 30  1  0  0  0  0
  2  3  1  0  0  0  0
  2 31  1  0  0  0  0
  2 32  1  0  0  0  0
  3 10  1  0  0  0  0
  3  4  1  0  0  0  0
  3 56  1  0  0  0  0
  4  5  1  0  0  0  0
  4 33  1  0  0  0  0
  4 34  1  0  0  0  0
  5  6  1  0  0  0  0
  5 35  1  0  0  0  0
  5 36  1  0  0  0  0
  6 11  1  0  0  0  0
  6  7  1  0  0  0  0
  6 37  1  0  0  0  0
  7  8  1  0  0  0  0
  7 38  1  0  0  0  0
  7 39  1  0  0  0  0
  8  9  1  0  0  0  0
  8 40  1  0  0  0  0
  8 41  1  0  0  0  0
  9 10  1  0  0  0  0
  9 11  1  0  0  0  0
  9 42  1  0  0  0  0
 10 43  1  0  0  0  0
 10 44  1  0  0  0  0
 11 12  1  0  0  0  0
 12 17  1  0  0  0  0
 12 13  2  0  0  0  0
 13 14  1  0  0  0  0
 14 15  2  0  0  0  0
 14 45  1  0  0  0  0
 15 16  1  0  0  0  0
 16 20  1  0  0  0  0
 16 17  2  0  0  0  0
 17 18  1  0  0  0  0
 18 19  2  0  0  0  0
 19 20  1  0  0  0  0
 19 46  1  0  0  0  0
 20 21  1  0  0  0  0
 21 22  1  0  0  0  0
 21 47  1  0  0  0  0
 21 48  1  0  0  0  0
 22 27  1  0  0  0  0
 22 23  1  0  0  0  0
 22 25  1  0  0  0  0
 23 24  1  0  0  0  0
 23 49  1  0  0  0  0
 23 50  1  0  0  0  0
 24 51  1  0  0  0  0
 25 26  1  0  0  0  0
 25 52  1  0  0  0  0
 25 53  1  0  0  0  0
 26 27  1  0  0  0  0
 27 54  1  0  0  0  0
 27 55  1  0  0  0  0
M  CHG  1   3   1
M  END
> <s_m_source_file>
AV-unprocessed.smi

> <i_m_source_file_index>
169

> <i_lp_mmshare_version>
43012

> <i_f3d_flags>
0

> <s_epik_input>
W0NASF0xMltDSDJdW0NIMl1OKFtDSDJdW0NIM10pW0NIMl1bQ0BIXShbQ0gyXVtDSDJdMSlOMmMobltjSF1uMyljKGMzNCluW2NIXW40W0NIMl1DNShbQ0gyXVtPSF0pW0NIMl1PW0NIMl01

> <s_epik_cmdline>
J2VwaWtfcHl0aG9uJywgJy1waCcsICc3LjAnLCAnLXRuJywgJzgnLCAnLW1hJywgJzIwMCcsICctbWV0YWxfYmluZGluZycsICctaW1hZScsICc8aW5maWxlLm1hZT4nLCAnLW9tYWUnLCAnPG91dGZpbGUubWFlPic=

> <r_lp_tautomer_probability>
1

> <r_epik_Ionization_Penalty>
0.00274162

> <r_epik_Ionization_Penalty_Charging>
0.00243722

> <r_epik_Ionization_Penalty_Neutral>
0.000304399

> <r_epik_State_Penalty>
-0

> <r_epik_Charging_Adjusted_Penalty>
0.00243722

> <i_epik_Tot_Q>
1

> <i_epik_Tot_abs_Q>
1

> <r_epik_Metal_State_Penalty>
-0

> <b_epik_Metal_Only>
0

> <s_lp_Force_Field>
OPLS_2005

> <r_lp_Energy>
131.702

> <b_lp_Chiralities_Consistent>
1

> <s_lp_Variant>
AV-unprocessed.smi:169-6

> <Gold.Version>
5.8.1

> <Gold.Id.Protein>
6NUR|6NUR_protein|mol2

> <Gold.PLP.Fitness>
36.9609

> <Gold.PLP.PLP>
-28.8103

> <Gold.PLP.part.hbond>
-3.0000

> <Gold.PLP.part.metal>
0.0000

> <Gold.PLP.part.buried>
-3.7290

> <Gold.PLP.part.nonpolar>
-22.7889

> <Gold.PLP.part.repulsive>
0.4862

> <Gold.PLP.ligand.clash>
0.0000

> <Gold.PLP.ligand.torsion>
0.6362

> <Gold.PLP.Chemscore.Hbond>
2.9760

> <Gold.PLP.Chemscore.CHOScore>
0.0000

> <Gold.PLP.Chemscore.Metal>
0.0000

> <Gold.Chemscore.Hbonds>
donor molecule, donor type, donor heavy atom, donor atom, acceptor molecule, acceptor atom, score
      L1  H     3    56       P1 10747  0.93
      L1  H    24    51       P1  8028  0.94
      P1  H  7989  7998       L1    26  1.00

> <Gold.PLP.Chemscore.Internal.Correction>
0.4949

> <Gold.Rescore>
     Score         DG    S(hbond)    S(metal)    S(lipo)     H(rot)  DE(clash)    DE(int)     intcor
     10.66     -14.19       2.52        0.00      59.76       2.62       0.24       3.29       ----

> <Gold.Chemscore.Fitness>
10.6571

> <Gold.Chemscore.DG>
-14.1887

> <Gold.Chemscore.ZeroCoef>
-5.4800

> <Gold.Chemscore.Hbond>
2.5230

> <Gold.Chemscore.Metal>
0.0000

> <Gold.Chemscore.Lipo>
59.7619

> <Gold.Chemscore.Internal_Hbond>
0.0000

> <Gold.Chemscore.DEClash>
0.2434

> <Gold.Chemscore.DEInternal>
3.2882

> <Gold.Chemscore.Rot>
2.6212

> <Gold.Chemscore.Internal.Correction>
   9.000000E+99

> <Gold.Chemscore.Hbonds>
donor molecule, donor type, donor heavy atom, donor atom, acceptor molecule, acceptor atom, score
      L1  H     3    56       P1 10747  0.83
      L1  H    24    51       P1  8028  0.90
      P1  H  7989  7998       L1    26  0.20

> <Gold.Chemscore.Hbond.Weighted>
-8.4268

> <Gold.Chemscore.Metal.Weighted>
-0.0000

> <Gold.Chemscore.Lipo.Weighted>
-6.9921

> <Gold.Chemscore.Internal_Hbond.Weighted>
0.0000

> <Gold.Chemscore.DEClash.Weighted>
0.2434

> <Gold.Chemscore.DEInternal.Weighted>
3.2882

> <Gold.Chemscore.Rot.Weighted>
6.7102

> <Gold.Chemscore.Internal.Correction.Weighted>
   9.000000E+99

> <Gold.Protein.RotatedTorsions>
[ 6907 6896 6895 6894 ] final  158.43 input  -60.11 | X-H torsion
[ 7974 7965 7964 7962 ] final  120.67 input  175.53 | X-H torsion
[ 8008 7997 7996 7995 ] final -154.55 input   59.86 | X-H torsion
[ 10167 10162 10161 10158 ] final  -96.41 input  -65.29 | X-H torsion
[ 10718 10713 10712 10709 ] final  148.31 input   66.30 | X-H torsion
[ 10763 10752 10751 10750 ] final   -2.14 input  -60.55 | X-H torsion
[ 11005 11000 10999 10996 ] final  157.57 input  -57.11 | X-H torsion

> <Gold.Protein.ActiveResidues>
 VAL166  LYS551  ARG553  GLY616  TRP617  ASP618  TYR619  PRO620  LYS621  CYS622 
 ASP623  PHE694  ASN695  SER759  ASP760  ASP761  ALA762  ILE779  LEU786  VAL792 
 PHE793  MET794  SER795  GLU796  ALA797  LYS798  CYS799  TRP800  GLU811  SER814 

> <Gold.Protein.RotatedAtoms>
  152.0005  133.3824  159.4179 H   0  0  0  0  0  0  0  0  0  0  0  0  # atno 6907 bound_to 6896
  150.6910  134.3839  159.5055 H   0  0  0  0  0  0  0  0  0  0  0  0  # atno 6908 bound_to 6896
  152.1585  134.8931  160.0594 H   0  0  0  0  0  0  0  0  0  0  0  0  # atno 6909 bound_to 6896
  145.1284  139.3343  143.4678 H   0  0  0  0  0  0  0  0  0  0  0  0  # atno 7974 bound_to 7965
  155.6882  140.0752  157.2458 H   0  0  0  0  0  0  0  0  0  0  0  0  # atno 8008 bound_to 7997
  154.4093  140.1669  156.2109 H   0  0  0  0  0  0  0  0  0  0  0  0  # atno 8009 bound_to 7997
  155.9475  140.3380  155.6383 H   0  0  0  0  0  0  0  0  0  0  0  0  # atno 8010 bound_to 7997
  140.2940  143.3203  152.0316 H   0  0  0  0  0  0  0  0  0  0  0  0  # atno 10167 bound_to 10162
  157.3102  131.0886  151.1322 H   0  0  0  0  0  0  0  0  0  0  0  0  # atno 10718 bound_to 10713
  153.3541  135.6987  153.6764 H   0  0  0  0  0  0  0  0  0  0  0  0  # atno 10763 bound_to 10752
  153.5479  135.3559  155.2747 H   0  0  0  0  0  0  0  0  0  0  0  0  # atno 10764 bound_to 10752
  154.8658  135.4219  154.2784 H   0  0  0  0  0  0  0  0  0  0  0  0  # atno 10765 bound_to 10752
  140.1782  134.8495  157.2771 H   0  0  0  0  0  0  0  0  0  0  0  0  # atno 11005 bound_to 11000
  146.3516  140.1272  142.8598 LP  0  0  0  0  0  0  0  0  0  0  0  0  # atno 17320 bound_to 7965
  145.0663  140.9123  143.4909 LP  0  0  0  0  0  0  0  0  0  0  0  0  # atno 17321 bound_to 7965
  139.4931  144.6504  151.6688 LP  0  0  0  0  0  0  0  0  0  0  0  0  # atno 17342 bound_to 10162
  140.5708  144.0113  150.6215 LP  0  0  0  0  0  0  0  0  0  0  0  0  # atno 17343 bound_to 10162
  157.2647  130.6675  149.5991 LP  0  0  0  0  0  0  0  0  0  0  0  0  # atno 17370 bound_to 10713
  155.9677  130.4498  150.5671 LP  0  0  0  0  0  0  0  0  0  0  0  0  # atno 17371 bound_to 10713
  140.2298  134.3922  155.7527 LP  0  0  0  0  0  0  0  0  0  0  0  0  # atno 17394 bound_to 11000
  141.2221  133.7209  156.8623 LP  0  0  0  0  0  0  0  0  0  0  0  0  # atno 17395 bound_to 11000

$$$$
