AV-unprocessed.smi:401|AV-procd|sdf|2494|dock3
  -GOLD-   2262022443D 1   1.00000     0.00000
 Structure written by MMmdl.
 43 44  0  0  0  0  0  0  0  0  1 V2000
  152.9841  143.4549  159.8664 C   0  0  0  0  0  0  0  0  0  0  0  0
  151.9544  144.3492  159.1512 C   0  0  0  0  0  0  0  0  0  0  0  0
  151.5554  145.5266  160.0543 C   0  0  0  0  0  0  0  0  0  0  0  0
  150.6977  143.5825  158.6780 C   0  0  0  0  0  0  0  0  0  0  0  0
  151.0009  142.3876  157.7673 C   0  0  0  0  0  0  0  0  0  0  0  0
  151.8021  141.5243  158.1240 O   0  0  0  0  0  0  0  0  0  0  0  0
  150.3303  142.3383  156.6056 N   0  0  0  0  0  0  0  0  0  0  0  0
  150.4335  141.2675  155.6216 C   0  0  0  0  0  0  0  0  0  0  0  0
  149.1116  141.0031  154.9082 C   0  0  0  0  0  0  0  0  0  0  0  0
  148.3577  142.1004  154.4404 C   0  0  0  0  0  0  0  0  0  0  0  0
  147.1221  141.8700  153.8096 C   0  0  0  0  0  0  0  0  0  0  0  0
  146.6826  140.5411  153.6733 C   0  0  0  0  0  0  0  0  0  0  0  0
  147.3888  139.4811  154.1168 N   0  0  0  0  0  0  0  0  0  0  0  0
  148.5806  139.6977  154.7253 C   0  0  0  0  0  0  0  0  0  0  0  0
  149.2915  138.5682  155.1652 N   0  0  0  0  0  0  0  0  0  0  0  0
  149.4561  138.5133  156.6112 C   0  0  0  0  0  0  0  0  0  0  0  0
  150.0117  137.1381  157.0192 C   0  0  0  0  0  0  0  0  0  0  0  0
  151.2259  136.8832  156.3175 O   0  0  0  0  0  0  0  0  0  0  0  0
  151.0372  136.8689  154.9046 C   0  0  0  0  0  0  0  0  0  0  0  0
  150.5138  138.2388  154.4410 C   0  0  0  0  0  0  0  0  0  0  0  0
  152.5401  142.9485  160.7241 H   0  0  0  0  0  0  0  0  0  0  0  0
  153.8270  144.0432  160.2300 H   0  0  0  0  0  0  0  0  0  0  0  0
  153.3934  142.6939  159.2028 H   0  0  0  0  0  0  0  0  0  0  0  0
  152.4424  144.7730  158.2721 H   0  0  0  0  0  0  0  0  0  0  0  0
  151.0539  145.1798  160.9584 H   0  0  0  0  0  0  0  0  0  0  0  0
  150.8780  146.2079  159.5385 H   0  0  0  0  0  0  0  0  0  0  0  0
  152.4289  146.1038  160.3587 H   0  0  0  0  0  0  0  0  0  0  0  0
  150.1323  143.2262  159.5401 H   0  0  0  0  0  0  0  0  0  0  0  0
  150.0314  144.2640  158.1463 H   0  0  0  0  0  0  0  0  0  0  0  0
  149.6905  143.0907  156.3957 H   0  0  0  0  0  0  0  0  0  0  0  0
  151.1688  141.5705  154.8758 H   0  0  0  0  0  0  0  0  0  0  0  0
  150.8434  140.3704  156.0856 H   0  0  0  0  0  0  0  0  0  0  0  0
  148.7207  143.1099  154.5679 H   0  0  0  0  0  0  0  0  0  0  0  0
  146.5241  142.6912  153.4430 H   0  0  0  0  0  0  0  0  0  0  0  0
  145.7388  140.3229  153.1963 H   0  0  0  0  0  0  0  0  0  0  0  0
  150.1406  139.3025  156.9250 H   0  0  0  0  0  0  0  0  0  0  0  0
  148.5046  138.6967  157.1111 H   0  0  0  0  0  0  0  0  0  0  0  0
  150.2081  137.1142  158.0911 H   0  0  0  0  0  0  0  0  0  0  0  0
  149.2866  136.3500  156.8093 H   0  0  0  0  0  0  0  0  0  0  0  0
  151.9879  136.6459  154.4206 H   0  0  0  0  0  0  0  0  0  0  0  0
  150.3429  136.0738  154.6276 H   0  0  0  0  0  0  0  0  0  0  0  0
  150.3153  138.2223  153.3687 H   0  0  0  0  0  0  0  0  0  0  0  0
  151.2705  139.0033  154.6223 H   0  0  0  0  0  0  0  0  0  0  0  0
  1  2  1  0  0  0  0
  1 21  1  0  0  0  0
  1 22  1  0  0  0  0
  1 23  1  0  0  0  0
  2  3  1  0  0  0  0
  2  4  1  0  0  0  0
  2 24  1  0  0  0  0
  3 25  1  0  0  0  0
  3 26  1  0  0  0  0
  3 27  1  0  0  0  0
  4  5  1  0  0  0  0
  4 28  1  0  0  0  0
  4 29  1  0  0  0  0
  5  6  2  0  0  0  0
  5  7  1  0  0  0  0
  7  8  1  0  0  0  0
  7 30  1  0  0  0  0
  8  9  1  0  0  0  0
  8 31  1  0  0  0  0
  8 32  1  0  0  0  0
  9 14  1  0  0  0  0
  9 10  2  0  0  0  0
 10 11  1  0  0  0  0
 10 33  1  0  0  0  0
 11 12  2  0  0  0  0
 11 34  1  0  0  0  0
 12 13  1  0  0  0  0
 12 35  1  0  0  0  0
 13 14  2  0  0  0  0
 14 15  1  0  0  0  0
 15 20  1  0  0  0  0
 15 16  1  0  0  0  0
 16 17  1  0  0  0  0
 16 36  1  0  0  0  0
 16 37  1  0  0  0  0
 17 18  1  0  0  0  0
 17 38  1  0  0  0  0
 17 39  1  0  0  0  0
 18 19  1  0  0  0  0
 19 20  1  0  0  0  0
 19 40  1  0  0  0  0
 19 41  1  0  0  0  0
 20 42  1  0  0  0  0
 20 43  1  0  0  0  0
M  END
> <s_m_source_file>
AV-unprocessed.smi

> <i_m_source_file_index>
401

> <i_lp_mmshare_version>
43012

> <i_f3d_flags>
0

> <s_epik_input>
W0NIM11bQ0hdKFtDSDNdKVtDSDJdQyg9TylbTkhdW0NIMl1jMVtjSF1bY0hdW2NIXW5jMU4yW0NIMl1bQ0gyXU9bQ0gyXVtDSDJdMg==

> <s_epik_cmdline>
J2VwaWtfcHl0aG9uJywgJy1waCcsICc3LjAnLCAnLXRuJywgJzgnLCAnLW1hJywgJzIwMCcsICctbWV0YWxfYmluZGluZycsICctaW1hZScsICc8aW5maWxlLm1hZT4nLCAnLW9tYWUnLCAnPG91dGZpbGUubWFlPic=

> <r_lp_tautomer_probability>
1

> <r_epik_Ionization_Penalty>
0.00505534

> <r_epik_Ionization_Penalty_Charging>
0

> <r_epik_Ionization_Penalty_Neutral>
0.00505534

> <r_epik_State_Penalty>
0.00367784

> <r_epik_Charging_Adjusted_Penalty>
0.00367784

> <i_epik_Tot_Q>
0

> <i_epik_Tot_abs_Q>
0

> <r_epik_Metal_State_Penalty>
-0

> <b_epik_Metal_Only>
0

> <s_lp_Force_Field>
OPLS_2005

> <r_lp_Energy>
19.3172

> <b_lp_Chiralities_Consistent>
1

> <s_lp_Variant>
AV-unprocessed.smi:401-1

> <Gold.Version>
5.8.1

> <Gold.Id.Protein>
6NUR|6NUR_protein|mol2

> <Gold.PLP.Fitness>
40.9942

> <Gold.PLP.PLP>
-35.7902

> <Gold.PLP.part.hbond>
-1.0000

> <Gold.PLP.part.metal>
0.0000

> <Gold.PLP.part.buried>
-1.7629

> <Gold.PLP.part.nonpolar>
-33.1973

> <Gold.PLP.part.repulsive>
0.3021

> <Gold.PLP.ligand.clash>
0.0000

> <Gold.PLP.ligand.torsion>
0.5114

> <Gold.PLP.Chemscore.Hbond>
1.0000

> <Gold.PLP.Chemscore.CHOScore>
1.0000

> <Gold.PLP.Chemscore.Metal>
0.0000

> <Gold.Chemscore.Hbonds>
donor molecule, donor type, donor heavy atom, donor atom, acceptor molecule, acceptor atom, score
      L1  H     7    30       P1  8028  1.00
      L1  C    12    35       P1 10175  1.00

> <Gold.PLP.Chemscore.Internal.Correction>
0.2267

> <Gold.Rescore>
     Score         DG    S(hbond)    S(metal)    S(lipo)     H(rot)  DE(clash)    DE(int)     intcor
     15.43     -16.36       1.00        0.00     100.62       1.65       0.39       0.53       ----

> <Gold.Chemscore.Fitness>
15.4289

> <Gold.Chemscore.DG>
-16.3557

> <Gold.Chemscore.ZeroCoef>
-5.4800

> <Gold.Chemscore.Hbond>
0.9951

> <Gold.Chemscore.Metal>
0.0000

> <Gold.Chemscore.Lipo>
100.6216

> <Gold.Chemscore.Internal_Hbond>
0.0000

> <Gold.Chemscore.DEClash>
0.3932

> <Gold.Chemscore.DEInternal>
0.5336

> <Gold.Chemscore.Rot>
1.6488

> <Gold.Chemscore.Internal.Correction>
   9.000000E+99

> <Gold.Chemscore.Hbonds>
donor molecule, donor type, donor heavy atom, donor atom, acceptor molecule, acceptor atom, score
      L1  H     7    30       P1  8028  0.98

> <Gold.Chemscore.Hbond.Weighted>
-3.3238

> <Gold.Chemscore.Metal.Weighted>
-0.0000

> <Gold.Chemscore.Lipo.Weighted>
-11.7727

> <Gold.Chemscore.Internal_Hbond.Weighted>
0.0000

> <Gold.Chemscore.DEClash.Weighted>
0.3932

> <Gold.Chemscore.DEInternal.Weighted>
0.5336

> <Gold.Chemscore.Rot.Weighted>
4.2208

> <Gold.Chemscore.Internal.Correction.Weighted>
   9.000000E+99

> <Gold.Protein.RotatedTorsions>
[ 6907 6896 6895 6894 ] final  173.63 input  -60.11 | X-H torsion
[ 7974 7965 7964 7962 ] final   26.37 input  175.53 | X-H torsion
[ 8008 7997 7996 7995 ] final   -4.22 input   59.86 | X-H torsion
[ 10167 10162 10161 10158 ] final -175.43 input  -65.29 | X-H torsion
[ 10718 10713 10712 10709 ] final -144.72 input   66.30 | X-H torsion
[ 10763 10752 10751 10750 ] final -170.81 input  -60.55 | X-H torsion
[ 11005 11000 10999 10996 ] final   -0.64 input  -57.11 | X-H torsion

> <Gold.Protein.ActiveResidues>
 VAL166  LYS551  ARG553  GLY616  TRP617  ASP618  TYR619  PRO620  LYS621  CYS622 
 ASP623  PHE694  ASN695  SER759  ASP760  ASP761  ALA762  ILE779  LEU786  VAL792 
 PHE793  MET794  SER795  GLU796  ALA797  LYS798  CYS799  TRP800  GLU811  SER814 

> <Gold.Protein.RotatedAtoms>
  151.7653  133.3337  159.3428 H   0  0  0  0  0  0  0  0  0  0  0  0  # atno 6907 bound_to 6896
  150.7482  134.6068  159.6075 H   0  0  0  0  0  0  0  0  0  0  0  0  # atno 6908 bound_to 6896
  152.3378  134.7177  160.0323 H   0  0  0  0  0  0  0  0  0  0  0  0  # atno 6909 bound_to 6896
  146.1841  139.7338  142.8879 H   0  0  0  0  0  0  0  0  0  0  0  0  # atno 7974 bound_to 7965
  154.6166  140.2489  155.7601 H   0  0  0  0  0  0  0  0  0  0  0  0  # atno 8008 bound_to 7997
  156.2402  140.2935  156.0373 H   0  0  0  0  0  0  0  0  0  0  0  0  # atno 8009 bound_to 7997
  155.1964  140.0393  157.2900 H   0  0  0  0  0  0  0  0  0  0  0  0  # atno 8010 bound_to 7997
  139.5581  144.1937  152.1194 H   0  0  0  0  0  0  0  0  0  0  0  0  # atno 10167 bound_to 10162
  156.3736  130.7800  151.1984 H   0  0  0  0  0  0  0  0  0  0  0  0  # atno 10718 bound_to 10713
  154.6374  135.2894  155.0145 H   0  0  0  0  0  0  0  0  0  0  0  0  # atno 10763 bound_to 10752
  154.1283  135.6537  153.4921 H   0  0  0  0  0  0  0  0  0  0  0  0  # atno 10764 bound_to 10752
  153.0309  135.5304  154.7226 H   0  0  0  0  0  0  0  0  0  0  0  0  # atno 10765 bound_to 10752
  140.6385  133.9510  155.8313 H   0  0  0  0  0  0  0  0  0  0  0  0  # atno 11005 bound_to 11000
  145.3990  141.0382  143.3081 LP  0  0  0  0  0  0  0  0  0  0  0  0  # atno 17320 bound_to 7965
  144.8366  139.5540  143.6919 LP  0  0  0  0  0  0  0  0  0  0  0  0  # atno 17321 bound_to 7965
  140.1446  144.5171  150.6724 LP  0  0  0  0  0  0  0  0  0  0  0  0  # atno 17342 bound_to 10162
  140.6857  143.2349  151.5266 LP  0  0  0  0  0  0  0  0  0  0  0  0  # atno 17343 bound_to 10162
  157.7486  131.0365  150.4412 LP  0  0  0  0  0  0  0  0  0  0  0  0  # atno 17370 bound_to 10713
  156.4643  130.4039  149.6557 LP  0  0  0  0  0  0  0  0  0  0  0  0  # atno 17371 bound_to 10713
  141.0624  134.0327  157.3641 LP  0  0  0  0  0  0  0  0  0  0  0  0  # atno 17394 bound_to 11000
  139.9089  135.0186  156.7606 LP  0  0  0  0  0  0  0  0  0  0  0  0  # atno 17395 bound_to 11000

$$$$
