AV-unprocessed.smi:3145|AV-procd|sdf|11983|dock2
  -GOLD-   2272017383D 1   1.00000     0.00000
 Structure written by MMmdl.
 34 34  0  0  0  0  0  0  0  0  3 V2000
  150.6524  141.6993  157.6941 C   0  0  0  0  0  0  0  0  0  0  0  0
  151.5137  141.1075  158.8227 C   0  0  2  0  0  0  0  0  0  0  0  0
  152.6535  142.0552  159.2630 C   0  0  0  0  0  0  0  0  0  0  0  0
  152.2002  143.4090  159.5271 N   0  0  0  0  0  0  0  0  0  0  0  0
  152.5076  144.5656  158.8416 C   0  0  0  0  0  0  0  0  0  0  0  0
  151.8544  145.5913  159.4625 C   0  0  0  0  0  0  0  0  0  0  0  0
  151.1695  144.9556  160.5356 C   0  0  0  0  0  0  0  0  0  0  0  0
  151.3812  143.6497  160.5737 N   0  0  0  0  0  0  0  0  0  0  0  0
  152.0493  139.7991  158.3896 N   0  3  0  0  0  0  0  0  0  0  0  0
  151.0602  138.7055  158.2848 C   0  0  0  0  0  0  0  0  0  0  0  0
  151.7931  137.3629  158.3168 C   0  0  0  0  0  0  0  0  0  0  0  0
  151.9354  136.7971  159.4052 O   0  0  0  0  0  0  0  0  0  0  0  0
  152.1950  136.9993  157.0678 N   0  5  0  0  0  0  0  0  0  0  0  0
  152.5530  137.9533  156.0214 C   0  0  0  0  0  0  0  0  0  0  0  0
  151.5882  137.8138  154.8342 C   0  0  0  0  0  0  0  0  0  0  0  0
  150.9504  139.0784  154.4268 C   0  0  0  0  0  0  0  0  0  0  0  0
  150.4514  140.0743  154.1075 N   0  0  0  0  0  0  0  0  0  0  0  0
  150.1458  142.6115  158.0105 H   0  0  0  0  0  0  0  0  0  0  0  0
  149.8798  140.9956  157.3818 H   0  0  0  0  0  0  0  0  0  0  0  0
  151.2563  141.9397  156.8185 H   0  0  0  0  0  0  0  0  0  0  0  0
  150.8533  140.9297  159.6729 H   0  0  0  0  0  0  0  0  0  0  0  0
  153.1403  141.6854  160.1658 H   0  0  0  0  0  0  0  0  0  0  0  0
  153.4228  142.0984  158.4907 H   0  0  0  0  0  0  0  0  0  0  0  0
  153.1559  144.5621  157.9777 H   0  0  0  0  0  0  0  0  0  0  0  0
  151.8660  146.6369  159.1925 H   0  0  0  0  0  0  0  0  0  0  0  0
  150.5308  145.4017  161.2838 H   0  0  0  0  0  0  0  0  0  0  0  0
  152.4384  139.9121  157.4638 H   0  0  0  0  0  0  0  0  0  0  0  0
  150.3501  138.7551  159.1106 H   0  0  0  0  0  0  0  0  0  0  0  0
  150.4912  138.7939  157.3577 H   0  0  0  0  0  0  0  0  0  0  0  0
  152.5268  138.9842  156.3774 H   0  0  0  0  0  0  0  0  0  0  0  0
  153.5704  137.7867  155.6663 H   0  0  0  0  0  0  0  0  0  0  0  0
  152.1252  137.4294  153.9667 H   0  0  0  0  0  0  0  0  0  0  0  0
  150.7999  137.0955  155.0625 H   0  0  0  0  0  0  0  0  0  0  0  0
  152.7921  139.5134  159.0107 H   0  0  0  0  0  0  0  0  0  0  0  0
  1  2  1  0  0  0  0
  1 18  1  0  0  0  0
  1 19  1  0  0  0  0
  1 20  1  0  0  0  0
  2  3  1  0  0  0  0
  2  9  1  0  0  0  0
  2 21  1  0  0  0  0
  3  4  1  0  0  0  0
  3 22  1  0  0  0  0
  3 23  1  0  0  0  0
  4  8  1  0  0  0  0
  4  5  1  0  0  0  0
  5  6  2  0  0  0  0
  5 24  1  0  0  0  0
  6  7  1  0  0  0  0
  6 25  1  0  0  0  0
  7  8  2  0  0  0  0
  7 26  1  0  0  0  0
  9 10  1  0  0  0  0
  9 27  1  0  0  0  0
  9 34  1  0  0  0  0
 10 11  1  0  0  0  0
 10 28  1  0  0  0  0
 10 29  1  0  0  0  0
 11 12  2  0  0  0  0
 11 13  1  0  0  0  0
 13 14  1  0  0  0  0
 14 15  1  0  0  0  0
 14 30  1  0  0  0  0
 14 31  1  0  0  0  0
 15 16  1  0  0  0  0
 15 32  1  0  0  0  0
 15 33  1  0  0  0  0
 16 17  3  0  0  0  0
M  CHG  1   9   1
M  CHG  1  13  -1
M  END
> <s_m_source_file>
AV-unprocessed.smi

> <i_m_source_file_index>
3145

> <i_lp_mmshare_version>
43012

> <i_f3d_flags>
0

> <s_epik_input>
bjFbY0hdW2NIXVtjSF1uMVtDSDJdW0NAQEhdKFtDSDNdKVtOSF1bQ0gyXUMoPU8pW05IXVtDSDJdW0NIMl1DI04=

> <s_epik_cmdline>
J2VwaWtfcHl0aG9uJywgJy1waCcsICc3LjAnLCAnLXRuJywgJzgnLCAnLW1hJywgJzIwMCcsICctbWV0YWxfYmluZGluZycsICctaW1hZScsICc8aW5maWxlLm1hZT4nLCAnLW9tYWUnLCAnPG91dGZpbGUubWFlPic=

> <r_lp_tautomer_probability>
1

> <r_epik_Ionization_Penalty>
6.20835

> <r_epik_Ionization_Penalty_Charging>
6.20835

> <r_epik_Ionization_Penalty_Neutral>
3.57231e-06

> <r_epik_State_Penalty>
6.38139

> <r_epik_Charging_Adjusted_Penalty>
12.5897

> <i_epik_Tot_Q>
0

> <i_epik_Tot_abs_Q>
2

> <r_epik_Metal_State_Penalty>
2.31725

> <b_epik_Metal_Only>
1

> <s_lp_Force_Field>
OPLS_2005

> <r_lp_Energy>
-0.295423

> <b_lp_Chiralities_Consistent>
1

> <s_lp_Variant>
AV-unprocessed.smi:3145-5

> <Gold.Version>
5.8.1

> <Gold.Id.Protein>
6NUR|6NUR_protein|mol2

> <Gold.PLP.Fitness>
40.9217

> <Gold.PLP.PLP>
-37.0504

> <Gold.PLP.part.hbond>
-2.0000

> <Gold.PLP.part.metal>
0.0000

> <Gold.PLP.part.buried>
-4.7388

> <Gold.PLP.part.nonpolar>
-30.5856

> <Gold.PLP.part.repulsive>
1.0254

> <Gold.PLP.ligand.clash>
0.0000

> <Gold.PLP.ligand.torsion>
1.1876

> <Gold.PLP.Chemscore.Hbond>
2.0000

> <Gold.PLP.Chemscore.CHOScore>
0.0000

> <Gold.PLP.Chemscore.Metal>
0.0000

> <Gold.Chemscore.Hbonds>
donor molecule, donor type, donor heavy atom, donor atom, acceptor molecule, acceptor atom, score
      P1  H  6896  6907       L1    12  1.00
      P1  H  7989  7998       L1    17  1.00

> <Gold.PLP.Chemscore.Internal.Correction>
0.2465

> <Gold.Rescore>
     Score         DG    S(hbond)    S(metal)    S(lipo)     H(rot)  DE(clash)    DE(int)     intcor
     11.37     -13.64       1.87        0.00      77.51       2.79       0.12       2.15       ----

> <Gold.Chemscore.Fitness>
11.3714

> <Gold.Chemscore.DG>
-13.6401

> <Gold.Chemscore.ZeroCoef>
-5.4800

> <Gold.Chemscore.Hbond>
1.8702

> <Gold.Chemscore.Metal>
0.0000

> <Gold.Chemscore.Lipo>
77.5096

> <Gold.Chemscore.Internal_Hbond>
0.0000

> <Gold.Chemscore.DEClash>
0.1191

> <Gold.Chemscore.DEInternal>
2.1496

> <Gold.Chemscore.Rot>
2.7949

> <Gold.Chemscore.Internal.Correction>
   9.000000E+99

> <Gold.Chemscore.Hbonds>
donor molecule, donor type, donor heavy atom, donor atom, acceptor molecule, acceptor atom, score
      P1  H  6896  6907       L1    12  0.99
      P1  H  7989  7998       L1    17  0.37

> <Gold.Chemscore.Hbond.Weighted>
-6.2466

> <Gold.Chemscore.Metal.Weighted>
-0.0000

> <Gold.Chemscore.Lipo.Weighted>
-9.0686

> <Gold.Chemscore.Internal_Hbond.Weighted>
0.0000

> <Gold.Chemscore.DEClash.Weighted>
0.1191

> <Gold.Chemscore.DEInternal.Weighted>
2.1496

> <Gold.Chemscore.Rot.Weighted>
7.1551

> <Gold.Chemscore.Internal.Correction.Weighted>
   9.000000E+99

> <Gold.Protein.RotatedTorsions>
[ 6907 6896 6895 6894 ] final    2.86 input  -60.11 | X-H torsion
[ 7974 7965 7964 7962 ] final   66.30 input  175.53 | X-H torsion
[ 8008 7997 7996 7995 ] final    2.14 input   59.86 | X-H torsion
[ 10167 10162 10161 10158 ] final  165.86 input  -65.29 | X-H torsion
[ 10718 10713 10712 10709 ] final   19.40 input   66.30 | X-H torsion
[ 10763 10752 10751 10750 ] final  -50.36 input  -60.55 | X-H torsion
[ 11005 11000 10999 10996 ] final    6.39 input  -57.11 | X-H torsion

> <Gold.Protein.ActiveResidues>
 VAL166  LYS551  ARG553  GLY616  TRP617  ASP618  TYR619  PRO620  LYS621  CYS622 
 ASP623  PHE694  ASN695  SER759  ASP760  ASP761  ALA762  ILE779  LEU786  VAL792 
 PHE793  MET794  SER795  GLU796  ALA797  LYS798  CYS799  TRP800  GLU811  SER814 

> <Gold.Protein.RotatedAtoms>
  151.6158  135.1036  160.0090 H   0  0  0  0  0  0  0  0  0  0  0  0  # atno 6907 bound_to 6896
  152.4184  133.7072  159.6468 H   0  0  0  0  0  0  0  0  0  0  0  0  # atno 6908 bound_to 6896
  150.8072  133.8415  159.3221 H   0  0  0  0  0  0  0  0  0  0  0  0  # atno 6909 bound_to 6896
  145.8283  139.3124  143.1003 H   0  0  0  0  0  0  0  0  0  0  0  0  # atno 7974 bound_to 7965
  154.6881  140.2647  155.6840 H   0  0  0  0  0  0  0  0  0  0  0  0  # atno 8008 bound_to 7997
  156.2722  140.2796  156.1372 H   0  0  0  0  0  0  0  0  0  0  0  0  # atno 8009 bound_to 7997
  155.0936  140.0373  157.2666 H   0  0  0  0  0  0  0  0  0  0  0  0  # atno 8010 bound_to 7997
  139.4913  144.4088  151.9324 H   0  0  0  0  0  0  0  0  0  0  0  0  # atno 10167 bound_to 10162
  157.1099  130.6504  149.5895 H   0  0  0  0  0  0  0  0  0  0  0  0  # atno 10718 bound_to 10713
  154.1092  135.6552  153.4882 H   0  0  0  0  0  0  0  0  0  0  0  0  # atno 10763 bound_to 10752
  153.0262  135.5243  154.7209 H   0  0  0  0  0  0  0  0  0  0  0  0  # atno 10764 bound_to 10752
  154.6384  135.2985  155.0103 H   0  0  0  0  0  0  0  0  0  0  0  0  # atno 10765 bound_to 10752
  140.5601  134.0201  155.7968 H   0  0  0  0  0  0  0  0  0  0  0  0  # atno 11005 bound_to 11000
  145.9599  140.8843  143.0216 LP  0  0  0  0  0  0  0  0  0  0  0  0  # atno 17320 bound_to 7965
  144.6742  140.1798  143.7407 LP  0  0  0  0  0  0  0  0  0  0  0  0  # atno 17321 bound_to 7965
  140.3529  144.3067  150.5946 LP  0  0  0  0  0  0  0  0  0  0  0  0  # atno 17342 bound_to 10162
  140.5470  143.2213  151.7991 LP  0  0  0  0  0  0  0  0  0  0  0  0  # atno 17343 bound_to 10162
  155.9853  130.4882  150.7024 LP  0  0  0  0  0  0  0  0  0  0  0  0  # atno 17370 bound_to 10713
  157.4568  131.0879  151.0788 LP  0  0  0  0  0  0  0  0  0  0  0  0  # atno 17371 bound_to 10713
  141.1120  133.9601  157.2893 LP  0  0  0  0  0  0  0  0  0  0  0  0  # atno 17394 bound_to 11000
  139.9412  135.0190  156.8714 LP  0  0  0  0  0  0  0  0  0  0  0  0  # atno 17395 bound_to 11000

$$$$
