AV-unprocessed.smi:3003|AV-procd|sdf|11437|dock4
  -GOLD-   2272016363D 1   1.00000     0.00000
 Structure written by MMmdl.
 41 42  0  0  0  0  0  0  0  0  1 V2000
  150.6016  132.7802  156.4887 C   0  0  0  0  0  0  0  0  0  0  0  0
  149.2121  133.8894  156.8450 S   0  0  0  0  0  0  0  0  0  0  0  0
  149.1733  134.8961  155.3311 C   0  0  2  0  0  0  0  0  0  0  0  0
  149.1275  133.9878  154.0924 C   0  0  0  0  0  0  0  0  0  0  0  0
  150.3590  135.8656  155.2554 C   0  0  0  0  0  0  0  0  0  0  0  0
  151.2101  135.8772  156.1456 O   0  0  0  0  0  0  0  0  0  0  0  0
  150.3964  136.6850  154.1927 N   0  0  0  0  0  0  0  0  0  0  0  0
  151.4207  137.6966  153.9573 C   0  0  0  0  0  0  0  0  0  0  0  0
  151.4608  138.7711  155.0313 C   0  0  0  0  0  0  0  0  0  0  0  0
  150.4520  139.7501  155.1269 C   0  0  0  0  0  0  0  0  0  0  0  0
  150.5356  140.7204  156.1434 C   0  0  0  0  0  0  0  0  0  0  0  0
  151.6327  140.6915  157.0374 C   0  0  0  0  0  0  0  0  0  0  0  0
  151.7379  141.6542  158.0650 N   0  0  0  0  0  0  0  0  0  0  0  0
  151.7634  143.0484  157.6296 C   0  0  0  0  0  0  0  0  0  0  0  0
  151.5620  143.9883  158.8308 C   0  0  0  0  0  0  0  0  0  0  0  0
  152.5323  143.7053  159.8334 O   0  0  0  0  0  0  0  0  0  0  0  0
  152.4158  142.3735  160.3219 C   0  0  0  0  0  0  0  0  0  0  0  0
  152.6500  141.3778  159.1736 C   0  0  0  0  0  0  0  0  0  0  0  0
  152.6012  139.7469  156.9400 N   0  0  0  0  0  0  0  0  0  0  0  0
  152.5158  138.8186  155.9642 C   0  0  0  0  0  0  0  0  0  0  0  0
  150.8002  132.1420  157.3494 H   0  0  0  0  0  0  0  0  0  0  0  0
  151.5023  133.3528  156.2682 H   0  0  0  0  0  0  0  0  0  0  0  0
  150.3747  132.1412  155.6363 H   0  0  0  0  0  0  0  0  0  0  0  0
  148.2476  135.4731  155.3530 H   0  0  0  0  0  0  0  0  0  0  0  0
  149.1055  134.5719  153.1715 H   0  0  0  0  0  0  0  0  0  0  0  0
  148.2347  133.3618  154.1030 H   0  0  0  0  0  0  0  0  0  0  0  0
  149.9931  133.3253  154.0473 H   0  0  0  0  0  0  0  0  0  0  0  0
  149.6594  136.6099  153.5066 H   0  0  0  0  0  0  0  0  0  0  0  0
  152.3987  137.2223  153.8582 H   0  0  0  0  0  0  0  0  0  0  0  0
  151.2130  138.1762  153.0006 H   0  0  0  0  0  0  0  0  0  0  0  0
  149.6218  139.7578  154.4361 H   0  0  0  0  0  0  0  0  0  0  0  0
  149.7547  141.4604  156.2336 H   0  0  0  0  0  0  0  0  0  0  0  0
  152.7250  143.2507  157.1559 H   0  0  0  0  0  0  0  0  0  0  0  0
  150.9950  143.2556  156.8861 H   0  0  0  0  0  0  0  0  0  0  0  0
  151.6693  145.0264  158.5164 H   0  0  0  0  0  0  0  0  0  0  0  0
  150.5568  143.8832  159.2421 H   0  0  0  0  0  0  0  0  0  0  0  0
  153.1535  142.2180  161.1091 H   0  0  0  0  0  0  0  0  0  0  0  0
  151.4331  142.2240  160.7723 H   0  0  0  0  0  0  0  0  0  0  0  0
  152.5020  140.3616  159.5415 H   0  0  0  0  0  0  0  0  0  0  0  0
  153.6795  141.4511  158.8207 H   0  0  0  0  0  0  0  0  0  0  0  0
  153.3132  138.0909  155.9320 H   0  0  0  0  0  0  0  0  0  0  0  0
  1  2  1  0  0  0  0
  1 21  1  0  0  0  0
  1 22  1  0  0  0  0
  1 23  1  0  0  0  0
  2  3  1  0  0  0  0
  3  4  1  0  0  0  0
  3  5  1  0  0  0  0
  3 24  1  0  0  0  0
  4 25  1  0  0  0  0
  4 26  1  0  0  0  0
  4 27  1  0  0  0  0
  5  6  2  0  0  0  0
  5  7  1  0  0  0  0
  7  8  1  0  0  0  0
  7 28  1  0  0  0  0
  8  9  1  0  0  0  0
  8 29  1  0  0  0  0
  8 30  1  0  0  0  0
  9 20  1  0  0  0  0
  9 10  2  0  0  0  0
 10 11  1  0  0  0  0
 10 31  1  0  0  0  0
 11 12  2  0  0  0  0
 11 32  1  0  0  0  0
 12 13  1  0  0  0  0
 12 19  1  0  0  0  0
 13 18  1  0  0  0  0
 13 14  1  0  0  0  0
 14 15  1  0  0  0  0
 14 33  1  0  0  0  0
 14 34  1  0  0  0  0
 15 16  1  0  0  0  0
 15 35  1  0  0  0  0
 15 36  1  0  0  0  0
 16 17  1  0  0  0  0
 17 18  1  0  0  0  0
 17 37  1  0  0  0  0
 17 38  1  0  0  0  0
 18 39  1  0  0  0  0
 18 40  1  0  0  0  0
 19 20  2  0  0  0  0
 20 41  1  0  0  0  0
M  END
> <s_m_source_file>
AV-unprocessed.smi

> <i_m_source_file_index>
3003

> <i_lp_mmshare_version>
43012

> <i_f3d_flags>
0

> <s_epik_input>
W0NIM11TW0NASF0oW0NIM10pQyg9TylbTkhdW0NIMl1jMVtjSF1bY0hdYyhuW2NIXTEpTjJbQ0gyXVtDSDJdT1tDSDJdW0NIMl0y

> <s_epik_cmdline>
J2VwaWtfcHl0aG9uJywgJy1waCcsICc3LjAnLCAnLXRuJywgJzgnLCAnLW1hJywgJzIwMCcsICctbWV0YWxfYmluZGluZycsICctaW1hZScsICc8aW5maWxlLm1hZT4nLCAnLW9tYWUnLCAnPG91dGZpbGUubWFlPic=

> <r_lp_tautomer_probability>
1

> <r_epik_Ionization_Penalty>
0.00417642

> <r_epik_Ionization_Penalty_Charging>
0

> <r_epik_Ionization_Penalty_Neutral>
0.00417642

> <r_epik_State_Penalty>
0.00299889

> <r_epik_Charging_Adjusted_Penalty>
0.00299889

> <i_epik_Tot_Q>
0

> <i_epik_Tot_abs_Q>
0

> <r_epik_Metal_State_Penalty>
-0

> <b_epik_Metal_Only>
0

> <s_lp_Force_Field>
OPLS_2005

> <r_lp_Energy>
16.2796

> <b_lp_Chiralities_Consistent>
1

> <s_lp_Variant>
AV-unprocessed.smi:3003-1

> <Gold.Version>
5.8.1

> <Gold.Id.Protein>
6NUR|6NUR_protein|mol2

> <Gold.PLP.Fitness>
46.1737

> <Gold.PLP.PLP>
-37.9555

> <Gold.PLP.part.hbond>
-4.0000

> <Gold.PLP.part.metal>
0.0000

> <Gold.PLP.part.buried>
-1.3429

> <Gold.PLP.part.nonpolar>
-31.1715

> <Gold.PLP.part.repulsive>
0.1097

> <Gold.PLP.ligand.clash>
0.0000

> <Gold.PLP.ligand.torsion>
0.4194

> <Gold.PLP.Chemscore.Hbond>
2.8928

> <Gold.PLP.Chemscore.CHOScore>
0.0000

> <Gold.PLP.Chemscore.Metal>
0.0000

> <Gold.Chemscore.Hbonds>
donor molecule, donor type, donor heavy atom, donor atom, acceptor molecule, acceptor atom, score
      L1  H     7    28       P1  7948  1.00
      P1  H  7997  8009       L1    19  0.85
      P1  H 10752 10764       L1     6  0.39

> <Gold.PLP.Chemscore.Internal.Correction>
0.3786

> <Gold.Rescore>
     Score         DG    S(hbond)    S(metal)    S(lipo)     H(rot)  DE(clash)    DE(int)     intcor
     19.11     -19.99       2.25        0.00      96.24       1.67       0.47       0.42       ----

> <Gold.Chemscore.Fitness>
19.1053

> <Gold.Chemscore.DG>
-19.9917

> <Gold.Chemscore.ZeroCoef>
-5.4800

> <Gold.Chemscore.Hbond>
2.2522

> <Gold.Chemscore.Metal>
0.0000

> <Gold.Chemscore.Lipo>
96.2396

> <Gold.Chemscore.Internal_Hbond>
0.0000

> <Gold.Chemscore.DEClash>
0.4652

> <Gold.Chemscore.DEInternal>
0.4211

> <Gold.Chemscore.Rot>
1.6682

> <Gold.Chemscore.Internal.Correction>
   9.000000E+99

> <Gold.Chemscore.Hbonds>
donor molecule, donor type, donor heavy atom, donor atom, acceptor molecule, acceptor atom, score
      L1  H     7    28       P1  7948  0.54
      P1  H  7997  8009       L1    19  0.14
      P1  H 10752 10764       L1     6  0.20

> <Gold.Chemscore.Hbond.Weighted>
-7.5224

> <Gold.Chemscore.Metal.Weighted>
-0.0000

> <Gold.Chemscore.Lipo.Weighted>
-11.2600

> <Gold.Chemscore.Internal_Hbond.Weighted>
0.0000

> <Gold.Chemscore.DEClash.Weighted>
0.4652

> <Gold.Chemscore.DEInternal.Weighted>
0.4211

> <Gold.Chemscore.Rot.Weighted>
4.2707

> <Gold.Chemscore.Internal.Correction.Weighted>
   9.000000E+99

> <Gold.Protein.RotatedTorsions>
[ 6907 6896 6895 6894 ] final -101.87 input  -60.11 | X-H torsion
[ 7974 7965 7964 7962 ] final  -94.18 input  175.53 | X-H torsion
[ 8008 7997 7996 7995 ] final  169.32 input   59.86 | X-H torsion
[ 10167 10162 10161 10158 ] final  103.44 input  -65.29 | X-H torsion
[ 10718 10713 10712 10709 ] final -143.76 input   66.30 | X-H torsion
[ 10763 10752 10751 10750 ] final  -24.88 input  -60.55 | X-H torsion
[ 11005 11000 10999 10996 ] final  143.80 input  -57.11 | X-H torsion

> <Gold.Protein.ActiveResidues>
 VAL166  LYS551  ARG553  GLY616  TRP617  ASP618  TYR619  PRO620  LYS621  CYS622 
 ASP623  PHE694  ASN695  SER759  ASP760  ASP761  ALA762  ILE779  LEU786  VAL792 
 PHE793  MET794  SER795  GLU796  ALA797  LYS798  CYS799  TRP800  GLU811  SER814 

> <Gold.Protein.RotatedAtoms>
  150.7172  134.0669  159.3850 H   0  0  0  0  0  0  0  0  0  0  0  0  # atno 6907 bound_to 6896
  151.8650  135.0508  160.0482 H   0  0  0  0  0  0  0  0  0  0  0  0  # atno 6908 bound_to 6896
  152.2688  133.5327  159.5463 H   0  0  0  0  0  0  0  0  0  0  0  0  # atno 6909 bound_to 6896
  145.3767  140.9512  143.2416 H   0  0  0  0  0  0  0  0  0  0  0  0  # atno 7974 bound_to 7965
  156.1468  140.1567  156.8834 H   0  0  0  0  0  0  0  0  0  0  0  0  # atno 8008 bound_to 7997
  154.5035  140.0819  156.7884 H   0  0  0  0  0  0  0  0  0  0  0  0  # atno 8009 bound_to 7997
  155.3974  140.3413  155.4257 H   0  0  0  0  0  0  0  0  0  0  0  0  # atno 8010 bound_to 7997
  139.7263  144.7047  151.0793 H   0  0  0  0  0  0  0  0  0  0  0  0  # atno 10167 bound_to 10162
  156.3619  130.7743  151.1911 H   0  0  0  0  0  0  0  0  0  0  0  0  # atno 10718 bound_to 10713
  153.6908  135.6962  153.5090 H   0  0  0  0  0  0  0  0  0  0  0  0  # atno 10763 bound_to 10752
  153.2414  135.4304  155.0701 H   0  0  0  0  0  0  0  0  0  0  0  0  # atno 10764 bound_to 10752
  154.8373  135.3509  154.6450 H   0  0  0  0  0  0  0  0  0  0  0  0  # atno 10765 bound_to 10752
  140.0582  134.9219  157.1138 H   0  0  0  0  0  0  0  0  0  0  0  0  # atno 11005 bound_to 11000
  144.8537  139.5283  143.6844 LP  0  0  0  0  0  0  0  0  0  0  0  0  # atno 17320 bound_to 7965
  146.2861  139.7007  142.9195 LP  0  0  0  0  0  0  0  0  0  0  0  0  # atno 17321 bound_to 7965
  140.7763  143.5101  150.9663 LP  0  0  0  0  0  0  0  0  0  0  0  0  # atno 17342 bound_to 10162
  139.8789  143.7097  152.3159 LP  0  0  0  0  0  0  0  0  0  0  0  0  # atno 17343 bound_to 10162
  157.7474  131.0397  150.4565 LP  0  0  0  0  0  0  0  0  0  0  0  0  # atno 17370 bound_to 10713
  156.4777  130.4067  149.6480 LP  0  0  0  0  0  0  0  0  0  0  0  0  # atno 17371 bound_to 10713
  140.3810  134.2287  155.7171 LP  0  0  0  0  0  0  0  0  0  0  0  0  # atno 17394 bound_to 11000
  141.1961  133.8089  157.0684 LP  0  0  0  0  0  0  0  0  0  0  0  0  # atno 17395 bound_to 11000

$$$$
