#       Name:                AV-unprocessed.smi:1901
#       Creating user name   scv26
#       Creation time:       Fri Mar 27 09:45:46 2020


#       File generated by GOLD software.
#

@<TRIPOS>MOLECULE
AV-unprocessed.smi:1901
    33    34     1
SMALL
NO_CHARGES


@<TRIPOS>ATOM
      1 ****        -0.1720   1.6357   0.8335 O.2            1 S1                 0.0000
      2 ****        -0.6789   0.5195   0.9506 C.2            1 S1                 0.0000
      3 ****         0.0366  -0.6113   1.0345 N.am           1 S1                 0.0000
      4 ****         1.4934  -0.6831   1.0005 C.3            1 S1                 0.0000
      5 ****         2.0446  -0.5823  -0.4345 C.3            1 S1                 0.0000
      6 ****         1.6087  -1.6988  -1.3629 C.3            1 S1                 0.0000
      7 ****         2.6498  -1.6033  -2.4729 C.3            1 S1                 0.0000
      8 ****         3.8485  -1.1644  -1.8408 O.3            1 S1                 0.0000
      9 ****         3.5663  -0.6981  -0.5240 C.3            1 S1                 0.0000
     10 ****        -1.9980   0.2667   1.0106 N.am           1 S1                 0.0000
     11 ****        -3.0722   1.1937   0.9635 C.2            1 S1                 0.0000
     12 ****        -2.9230   2.5156   0.8182 N.2            1 S1                 0.0000
     13 ****        -4.1498   3.1841   0.8074 C.2            1 S1                 0.0000
     14 ****        -5.2306   2.3493   0.9455 C.2            1 S1                 0.0000
     15 ****        -4.7480   0.6805   1.0945 S.3            1 S1                 0.0000
     16 ****        -0.4601  -1.4852   1.1281 H              1 S1                 0.0000
     17 ****         1.9188   0.1048   1.6243 H              1 S1                 0.0000
     18 ****         1.7946  -1.6284   1.4530 H              1 S1                 0.0000
     19 ****         1.7483   0.3714  -0.8752 H              1 S1                 0.0000
     20 ****         1.6837  -2.6647  -0.8612 H              1 S1                 0.0000
     21 ****         0.5884  -1.5807  -1.7291 H              1 S1                 0.0000
     22 ****         2.7956  -2.5508  -2.9920 H              1 S1                 0.0000
     23 ****         2.3518  -0.8555  -3.2090 H              1 S1                 0.0000
     24 ****         4.0666   0.2495  -0.3229 H              1 S1                 0.0000
     25 ****         3.9426  -1.4352   0.1866 H              1 S1                 0.0000
     26 ****        -2.2657  -0.7015   1.1088 H              1 S1                 0.0000
     27 ****        -4.1620   4.2585   0.6967 H              1 S1                 0.0000
     28 ****        -6.2771   2.6145   0.9687 H              1 S1                 0.0000
     29 ****         0.8227   1.7317   0.7965 LP             1 S1                 0.0000
     30 ****        -0.7551   2.4460   0.7753 LP             1 S1                 0.0000
     31 ****         4.2512  -0.4215  -2.3754 LP             1 S1                 0.0000
     32 ****         4.4938  -1.9266  -1.7904 LP             1 S1                 0.0000
     33 ****        -2.0375   2.9714   0.7279 LP             1 S1                 0.0000
@<TRIPOS>BOND
    1    1    2 2     
    2    2    3 am    
    3    2   10 am    
    4    3    4 1     
    5    3   16 1     
    6    4    5 1     
    7    4   17 1     
    8    4   18 1     
    9    5    9 1     
   10    5    6 1     
   11    5   19 1     
   12    6    7 1     
   13    6   20 1     
   14    6   21 1     
   15    7    8 1     
   16    7   22 1     
   17    7   23 1     
   18    8    9 1     
   19    9   24 1     
   20    9   25 1     
   21   10   11 1     
   22   10   26 1     
   23   11   15 1     
   24   11   12 2     
   25   12   13 1     
   26   13   14 2     
   27   13   27 1     
   28   14   15 1     
   29   14   28 1     
   30    1   29 1     
   31    1   30 1     
   32    8   31 1     
   33    8   32 1     
   34   12   33 1     
@<TRIPOS>SUBSTRUCTURE
      1 S1             1
@<TRIPOS>SET
LONE_PAIRS      STATIC     ATOMS    <user>   **** ""
5 29 30 31 32 33
DONOR_HYDROGENS      STATIC     ATOMS    <user>   **** ""
2 16 26
ATOM$BLUE        STATIC     ATOMS    COLORGROUP SYSTEM
5 29 30 31 32 33
ATOM$RED        STATIC     ATOMS    COLORGROUP SYSTEM
2 16 26
