AV-unprocessed.smi:2452|AV-procd|sdf|9685|dock1
  -GOLD-   2272013323D 1   1.00000     0.00000
 Structure written by MMmdl.
 34 35  0  0  0  0  0  0  0  0  1 V2000
  153.4303  137.6340  155.6084 C   0  0  0  0  0  0  0  0  0  0  0  0
  152.3007  138.5619  155.2566 C   0  0  0  0  0  0  0  0  0  0  0  0
  152.4371  139.8590  155.4900 N   0  0  0  0  0  0  0  0  0  0  0  0
  151.2206  140.4628  155.1365 O   0  0  0  0  0  0  0  0  0  0  0  0
  150.3672  139.5042  154.6907 C   0  0  0  0  0  0  0  0  0  0  0  0
  149.0040  139.9480  154.2802 C   0  0  0  0  0  0  0  0  0  0  0  0
  151.0063  138.3000  154.7188 C   0  0  0  0  0  0  0  0  0  0  0  0
  150.4177  137.0643  154.3513 N   0  0  0  0  0  0  0  0  0  0  0  0
  150.6565  135.8658  154.9046 C   0  0  0  0  0  0  0  0  0  0  0  0
  151.4948  135.6499  155.7798 O   0  0  0  0  0  0  0  0  0  0  0  0
  149.8794  134.9143  154.3698 N   0  0  0  0  0  0  0  0  0  0  0  0
  149.8823  133.5119  154.7704 C   0  0  0  0  0  0  0  0  0  0  0  0
  149.2865  132.6092  153.6769 C   0  0  2  0  0  0  0  0  0  0  0  0
  147.8235  132.9035  153.3611 C   0  0  0  0  0  0  0  0  0  0  0  0
  147.3477  131.6061  152.7320 C   0  0  0  0  0  0  0  0  0  0  0  0
  148.3342  130.5573  153.2566 C   0  0  0  0  0  0  0  0  0  0  0  0
  149.2304  131.2593  154.1102 O   0  0  0  0  0  0  0  0  0  0  0  0
  153.0567  136.6670  155.9450 H   0  0  0  0  0  0  0  0  0  0  0  0
  154.0450  138.0409  156.4120 H   0  0  0  0  0  0  0  0  0  0  0  0
  154.0800  137.4639  154.7500 H   0  0  0  0  0  0  0  0  0  0  0  0
  148.3248  139.0999  154.1939 H   0  0  0  0  0  0  0  0  0  0  0  0
  149.0386  140.4533  153.3152 H   0  0  0  0  0  0  0  0  0  0  0  0
  148.5863  140.6411  155.0105 H   0  0  0  0  0  0  0  0  0  0  0  0
  149.8057  137.0841  153.5490 H   0  0  0  0  0  0  0  0  0  0  0  0
  149.2220  135.1805  153.6516 H   0  0  0  0  0  0  0  0  0  0  0  0
  150.9099  133.2162  154.9835 H   0  0  0  0  0  0  0  0  0  0  0  0
  149.3261  133.3944  155.7020 H   0  0  0  0  0  0  0  0  0  0  0  0
  149.8762  132.6654  152.7597 H   0  0  0  0  0  0  0  0  0  0  0  0
  147.2683  133.0901  154.2815 H   0  0  0  0  0  0  0  0  0  0  0  0
  147.6959  133.7665  152.7069 H   0  0  0  0  0  0  0  0  0  0  0  0
  146.3167  131.3801  153.0056 H   0  0  0  0  0  0  0  0  0  0  0  0
  147.4029  131.6619  151.6441 H   0  0  0  0  0  0  0  0  0  0  0  0
  147.8359  129.7577  153.8055 H   0  0  0  0  0  0  0  0  0  0  0  0
  148.8910  130.1083  152.4333 H   0  0  0  0  0  0  0  0  0  0  0  0
  1  2  1  0  0  0  0
  1 18  1  0  0  0  0
  1 19  1  0  0  0  0
  1 20  1  0  0  0  0
  2  7  1  0  0  0  0
  2  3  2  0  0  0  0
  3  4  1  0  0  0  0
  4  5  1  0  0  0  0
  5  6  1  0  0  0  0
  5  7  2  0  0  0  0
  6 21  1  0  0  0  0
  6 22  1  0  0  0  0
  6 23  1  0  0  0  0
  7  8  1  0  0  0  0
  8  9  1  0  0  0  0
  8 24  1  0  0  0  0
  9 10  2  0  0  0  0
  9 11  1  0  0  0  0
 11 12  1  0  0  0  0
 11 25  1  0  0  0  0
 12 13  1  0  0  0  0
 12 26  1  0  0  0  0
 12 27  1  0  0  0  0
 13 17  1  0  0  0  0
 13 14  1  0  0  0  0
 13 28  1  0  0  0  0
 14 15  1  0  0  0  0
 14 29  1  0  0  0  0
 14 30  1  0  0  0  0
 15 16  1  0  0  0  0
 15 31  1  0  0  0  0
 15 32  1  0  0  0  0
 16 17  1  0  0  0  0
 16 33  1  0  0  0  0
 16 34  1  0  0  0  0
M  END
> <s_m_source_file>
AV-unprocessed.smi

> <i_m_source_file_index>
2452

> <i_lp_mmshare_version>
43012

> <i_f3d_flags>
0

> <s_epik_input>
W0NIM11jMW5vYyhbQ0gzXSljMVtOSF1DKD1PKVtOSF1bQ0gyXVtDQEBIXTJbQ0gyXVtDSDJdW0NIMl1PMg==

> <s_epik_cmdline>
J2VwaWtfcHl0aG9uJywgJy1waCcsICc3LjAnLCAnLXRuJywgJzgnLCAnLW1hJywgJzIwMCcsICctbWV0YWxfYmluZGluZycsICctaW1hZScsICc8aW5maWxlLm1hZT4nLCAnLW9tYWUnLCAnPG91dGZpbGUubWFlPic=

> <r_lp_tautomer_probability>
1

> <r_epik_Ionization_Penalty>
3.28451e-05

> <r_epik_Ionization_Penalty_Charging>
0

> <r_epik_Ionization_Penalty_Neutral>
3.28451e-05

> <r_epik_State_Penalty>
-0

> <r_epik_Charging_Adjusted_Penalty>
0

> <i_epik_Tot_Q>
0

> <i_epik_Tot_abs_Q>
0

> <r_epik_Metal_State_Penalty>
-0

> <b_epik_Metal_Only>
0

> <s_lp_Force_Field>
OPLS_2005

> <r_lp_Energy>
18.3338

> <b_lp_Chiralities_Consistent>
1

> <s_lp_Variant>
AV-unprocessed.smi:2452-1

> <Gold.Version>
5.8.1

> <Gold.Id.Protein>
6NUR|6NUR_protein|mol2

> <Gold.PLP.Fitness>
41.2639

> <Gold.PLP.PLP>
-28.6381

> <Gold.PLP.part.hbond>
-6.4919

> <Gold.PLP.part.metal>
0.0000

> <Gold.PLP.part.buried>
3.9244

> <Gold.PLP.part.nonpolar>
-25.5793

> <Gold.PLP.part.repulsive>
0.2713

> <Gold.PLP.ligand.clash>
0.0000

> <Gold.PLP.ligand.torsion>
0.3687

> <Gold.PLP.Chemscore.Hbond>
4.3606

> <Gold.PLP.Chemscore.CHOScore>
0.0000

> <Gold.PLP.Chemscore.Metal>
0.0000

> <Gold.Chemscore.Hbonds>
donor molecule, donor type, donor heavy atom, donor atom, acceptor molecule, acceptor atom, score
      L1  H     8    24       P1  7948  0.99
      L1  H    11    25       P1  7948  0.84
      P1  H  7989  7998       L1     4  0.46
      P1  H  7997  8008       L1     3  0.96
      P1  H 10752 10764       L1    10  1.00

> <Gold.PLP.Chemscore.Internal.Correction>
0.2814

> <Gold.Rescore>
     Score         DG    S(hbond)    S(metal)    S(lipo)     H(rot)  DE(clash)    DE(int)     intcor
     15.96     -19.64       2.95        0.00      63.87       1.23       1.98       1.70       ----

> <Gold.Chemscore.Fitness>
15.9566

> <Gold.Chemscore.DG>
-19.6353

> <Gold.Chemscore.ZeroCoef>
-5.4800

> <Gold.Chemscore.Hbond>
2.9462

> <Gold.Chemscore.Metal>
0.0000

> <Gold.Chemscore.Lipo>
63.8719

> <Gold.Chemscore.Internal_Hbond>
0.0000

> <Gold.Chemscore.DEClash>
1.9794

> <Gold.Chemscore.DEInternal>
1.6992

> <Gold.Chemscore.Rot>
1.2337

> <Gold.Chemscore.Internal.Correction>
   9.000000E+99

> <Gold.Chemscore.Hbonds>
donor molecule, donor type, donor heavy atom, donor atom, acceptor molecule, acceptor atom, score
      L1  H     8    24       P1  7948  0.49
      L1  H    11    25       P1  7948  0.24
      P1  H  7997  8008       L1     3  0.55
      P1  H 10752 10764       L1    10  0.70

> <Gold.Chemscore.Hbond.Weighted>
-9.8405

> <Gold.Chemscore.Metal.Weighted>
-0.0000

> <Gold.Chemscore.Lipo.Weighted>
-7.4730

> <Gold.Chemscore.Internal_Hbond.Weighted>
0.0000

> <Gold.Chemscore.DEClash.Weighted>
1.9794

> <Gold.Chemscore.DEInternal.Weighted>
1.6992

> <Gold.Chemscore.Rot.Weighted>
3.1582

> <Gold.Chemscore.Internal.Correction.Weighted>
   9.000000E+99

> <Gold.Protein.RotatedTorsions>
[ 6907 6896 6895 6894 ] final -142.81 input  -60.11 | X-H torsion
[ 7974 7965 7964 7962 ] final -139.04 input  175.53 | X-H torsion
[ 8008 7997 7996 7995 ] final  -25.09 input   59.86 | X-H torsion
[ 10167 10162 10161 10158 ] final -131.12 input  -65.29 | X-H torsion
[ 10718 10713 10712 10709 ] final  160.64 input   66.30 | X-H torsion
[ 10763 10752 10751 10750 ] final  -31.95 input  -60.55 | X-H torsion
[ 11005 11000 10999 10996 ] final -106.61 input  -57.11 | X-H torsion

> <Gold.Protein.ActiveResidues>
 VAL166  LYS551  ARG553  GLY616  TRP617  ASP618  TYR619  PRO620  LYS621  CYS622 
 ASP623  PHE694  ASN695  SER759  ASP760  ASP761  ALA762  ILE779  LEU786  VAL792 
 PHE793  MET794  SER795  GLU796  ALA797  LYS798  CYS799  TRP800  GLU811  SER814 

> <Gold.Protein.RotatedAtoms>
  151.0921  133.5308  159.2614 H   0  0  0  0  0  0  0  0  0  0  0  0  # atno 6907 bound_to 6896
  151.2171  135.0503  159.8945 H   0  0  0  0  0  0  0  0  0  0  0  0  # atno 6908 bound_to 6896
  152.5435  134.0728  159.8255 H   0  0  0  0  0  0  0  0  0  0  0  0  # atno 6909 bound_to 6896
  144.8709  140.6365  143.5267 H   0  0  0  0  0  0  0  0  0  0  0  0  # atno 7974 bound_to 7965
  154.4494  140.1936  156.0566 H   0  0  0  0  0  0  0  0  0  0  0  0  # atno 8008 bound_to 7997
  156.0614  140.3296  155.7439 H   0  0  0  0  0  0  0  0  0  0  0  0  # atno 8009 bound_to 7997
  155.5405  140.0586  157.2861 H   0  0  0  0  0  0  0  0  0  0  0  0  # atno 8010 bound_to 7997
  139.9222  143.6368  152.2550 H   0  0  0  0  0  0  0  0  0  0  0  0  # atno 10167 bound_to 10162
  157.1476  131.0556  151.2296 H   0  0  0  0  0  0  0  0  0  0  0  0  # atno 10718 bound_to 10713
  153.8057  135.6886  153.4848 H   0  0  0  0  0  0  0  0  0  0  0  0  # atno 10763 bound_to 10752
  153.1660  135.4561  154.9836 H   0  0  0  0  0  0  0  0  0  0  0  0  # atno 10764 bound_to 10752
  154.7988  135.3329  154.7542 H   0  0  0  0  0  0  0  0  0  0  0  0  # atno 10765 bound_to 10752
  141.0996  133.8908  157.1876 H   0  0  0  0  0  0  0  0  0  0  0  0  # atno 11005 bound_to 11000
  145.4132  139.1576  143.4114 LP  0  0  0  0  0  0  0  0  0  0  0  0  # atno 17320 bound_to 7965
  146.2930  140.4237  142.8732 LP  0  0  0  0  0  0  0  0  0  0  0  0  # atno 17321 bound_to 7965
  139.6852  144.7652  151.1537 LP  0  0  0  0  0  0  0  0  0  0  0  0  # atno 17342 bound_to 10162
  140.7659  143.5668  150.9039 LP  0  0  0  0  0  0  0  0  0  0  0  0  # atno 17343 bound_to 10162
  157.4250  130.7459  149.6944 LP  0  0  0  0  0  0  0  0  0  0  0  0  # atno 17370 bound_to 10713
  155.9776  130.4060  150.3698 LP  0  0  0  0  0  0  0  0  0  0  0  0  # atno 17371 bound_to 10713
  139.9843  135.0087  156.9825 LP  0  0  0  0  0  0  0  0  0  0  0  0  # atno 17394 bound_to 11000
  140.5055  134.1054  155.7259 LP  0  0  0  0  0  0  0  0  0  0  0  0  # atno 17395 bound_to 11000

$$$$
