AV-unprocessed.smi:1492|AV-procd|sdf|6037|dock2
  -GOLD-   22720 6143D 1   1.00000     0.00000
 Structure written by MMmdl.
 52 53  0  0  0  0  0  0  0  0  1 V2000
  145.0636  142.6705  156.1815 C   0  0  0  0  0  0  0  0  0  0  0  0
  145.6814  142.2844  154.8242 C   0  0  0  0  0  0  0  0  0  0  0  0
  146.8412  141.2310  154.8200 C   0  0  2  0  0  0  0  0  0  0  0  0
  147.2949  141.0155  153.3541 C   0  0  0  0  0  0  0  0  0  0  0  0
  146.2769  139.8704  155.3373 C   0  0  0  0  0  0  0  0  0  0  0  0
  145.4467  139.2251  154.3246 N   0  0  0  0  0  0  0  0  0  0  0  0
  145.2553  137.9056  154.1882 C   0  0  0  0  0  0  0  0  0  0  0  0
  145.9217  137.0503  154.7695 O   0  0  0  0  0  0  0  0  0  0  0  0
  144.0852  137.4974  153.2952 C   0  0  0  0  0  0  0  0  0  0  0  0
  144.1990  136.0820  152.7301 C   0  0  0  0  0  0  0  0  0  0  0  0
  144.9177  135.7847  151.6079 C   0  0  0  0  0  0  0  0  0  0  0  0
  145.6573  136.8362  150.7992 C   0  0  0  0  0  0  0  0  0  0  0  0
  145.0333  134.4699  151.1359 N   0  0  0  0  0  0  0  0  0  0  0  0
  144.4516  133.5206  151.7917 C   0  0  0  0  0  0  0  0  0  0  0  0
  144.5125  132.0609  151.3956 C   0  0  0  0  0  0  0  0  0  0  0  0
  143.7070  133.7550  152.9460 N   0  0  0  0  0  0  0  0  0  0  0  0
  143.5334  134.9899  153.4670 C   0  0  0  0  0  0  0  0  0  0  0  0
  142.8704  135.1442  154.4916 O   0  0  0  0  0  0  0  0  0  0  0  0
  147.9603  141.7043  155.6931 N   0  0  0  0  0  0  0  0  0  0  0  0
  147.7166  141.6027  157.1386 C   0  0  0  0  0  0  0  0  0  0  0  0
  148.8450  142.2420  157.9638 C   0  0  0  0  0  0  0  0  0  0  0  0
  150.0845  141.6303  157.6318 O   0  0  0  0  0  0  0  0  0  0  0  0
  150.3933  141.7529  156.2499 C   0  0  0  0  0  0  0  0  0  0  0  0
  149.2755  141.1181  155.4048 C   0  0  0  0  0  0  0  0  0  0  0  0
  143.2753  132.9737  153.4174 H   0  0  0  0  0  0  0  0  0  0  0  0
  144.2033  143.3223  156.0300 H   0  0  0  0  0  0  0  0  0  0  0  0
  145.7647  143.2200  156.8092 H   0  0  0  0  0  0  0  0  0  0  0  0
  144.7139  141.8011  156.7368 H   0  0  0  0  0  0  0  0  0  0  0  0
  144.8561  141.9177  154.2144 H   0  0  0  0  0  0  0  0  0  0  0  0
  146.0203  143.2010  154.3393 H   0  0  0  0  0  0  0  0  0  0  0  0
  146.4820  140.6405  152.7335 H   0  0  0  0  0  0  0  0  0  0  0  0
  148.0971  140.2823  153.2763 H   0  0  0  0  0  0  0  0  0  0  0  0
  147.6455  141.9383  152.8927 H   0  0  0  0  0  0  0  0  0  0  0  0
  147.0798  139.1842  155.6032 H   0  0  0  0  0  0  0  0  0  0  0  0
  145.7347  140.0001  156.2738 H   0  0  0  0  0  0  0  0  0  0  0  0
  144.8545  139.8367  153.7812 H   0  0  0  0  0  0  0  0  0  0  0  0
  143.1544  137.6134  153.8518 H   0  0  0  0  0  0  0  0  0  0  0  0
  144.0085  138.2110  152.4748 H   0  0  0  0  0  0  0  0  0  0  0  0
  146.3871  137.3554  151.4204 H   0  0  0  0  0  0  0  0  0  0  0  0
  144.9601  137.5688  150.3924 H   0  0  0  0  0  0  0  0  0  0  0  0
  146.1946  136.3869  149.9629 H   0  0  0  0  0  0  0  0  0  0  0  0
  144.1076  131.9268  150.3925 H   0  0  0  0  0  0  0  0  0  0  0  0
  143.9421  131.4329  152.0810 H   0  0  0  0  0  0  0  0  0  0  0  0
  145.5467  131.7157  151.3972 H   0  0  0  0  0  0  0  0  0  0  0  0
  146.7900  142.0966  157.4202 H   0  0  0  0  0  0  0  0  0  0  0  0
  147.6195  140.5577  157.4327 H   0  0  0  0  0  0  0  0  0  0  0  0
  148.8986  143.3152  157.7793 H   0  0  0  0  0  0  0  0  0  0  0  0
  148.6563  142.1099  159.0291 H   0  0  0  0  0  0  0  0  0  0  0  0
  150.5206  142.8044  155.9907 H   0  0  0  0  0  0  0  0  0  0  0  0
  151.3444  141.2586  156.0530 H   0  0  0  0  0  0  0  0  0  0  0  0
  149.2577  140.0439  155.5892 H   0  0  0  0  0  0  0  0  0  0  0  0
  149.5480  141.2578  154.3608 H   0  0  0  0  0  0  0  0  0  0  0  0
  1  2  1  0  0  0  0
  1 26  1  0  0  0  0
  1 27  1  0  0  0  0
  1 28  1  0  0  0  0
  2  3  1  0  0  0  0
  2 29  1  0  0  0  0
  2 30  1  0  0  0  0
  3  4  1  0  0  0  0
  3  5  1  0  0  0  0
  3 19  1  0  0  0  0
  4 31  1  0  0  0  0
  4 32  1  0  0  0  0
  4 33  1  0  0  0  0
  5  6  1  0  0  0  0
  5 34  1  0  0  0  0
  5 35  1  0  0  0  0
  6  7  1  0  0  0  0
  6 36  1  0  0  0  0
  7  8  2  0  0  0  0
  7  9  1  0  0  0  0
  9 10  1  0  0  0  0
  9 37  1  0  0  0  0
  9 38  1  0  0  0  0
 10 17  1  0  0  0  0
 10 11  2  0  0  0  0
 11 12  1  0  0  0  0
 11 13  1  0  0  0  0
 12 39  1  0  0  0  0
 12 40  1  0  0  0  0
 12 41  1  0  0  0  0
 13 14  2  0  0  0  0
 14 15  1  0  0  0  0
 14 16  1  0  0  0  0
 15 42  1  0  0  0  0
 15 43  1  0  0  0  0
 15 44  1  0  0  0  0
 16 25  1  0  0  0  0
 16 17  1  0  0  0  0
 17 18  2  0  0  0  0
 19 24  1  0  0  0  0
 19 20  1  0  0  0  0
 20 21  1  0  0  0  0
 20 45  1  0  0  0  0
 20 46  1  0  0  0  0
 21 22  1  0  0  0  0
 21 47  1  0  0  0  0
 21 48  1  0  0  0  0
 22 23  1  0  0  0  0
 23 24  1  0  0  0  0
 23 49  1  0  0  0  0
 23 50  1  0  0  0  0
 24 51  1  0  0  0  0
 24 52  1  0  0  0  0
M  END
> <s_m_source_file>
AV-unprocessed.smi

> <i_m_source_file_index>
1492

> <i_lp_mmshare_version>
43012

> <i_f3d_flags>
0

> <s_epik_input>
W0NIMl0xW0NIMl1PW0NIMl1bQ0gyXU4xW0NAQF0oW0NIM10pKFtDSDJdW0NIM10pW0NIMl1bTkhdQyg9TylbQ0gyXWMyYyhbQ0gzXSluYyhbQ0gzXSlbbkhdYzI9Tw==

> <s_epik_cmdline>
J2VwaWtfcHl0aG9uJywgJy1waCcsICc3LjAnLCAnLXRuJywgJzgnLCAnLW1hJywgJzIwMCcsICctbWV0YWxfYmluZGluZycsICctaW1hZScsICc8aW5maWxlLm1hZT4nLCAnLW9tYWUnLCAnPG91dGZpbGUubWFlPic=

> <r_lp_tautomer_probability>
0.839158

> <r_epik_Ionization_Penalty>
0.328652

> <r_epik_Ionization_Penalty_Charging>
0.000364731

> <r_epik_Ionization_Penalty_Neutral>
0.328288

> <r_epik_State_Penalty>
0.414451

> <r_epik_Charging_Adjusted_Penalty>
0.414816

> <i_epik_Tot_Q>
0

> <i_epik_Tot_abs_Q>
0

> <r_epik_Metal_State_Penalty>
0.592978

> <b_epik_Metal_Only>
0

> <s_lp_Force_Field>
OPLS_2005

> <r_lp_Energy>
44.0338

> <b_lp_Chiralities_Consistent>
1

> <s_lp_Variant>
AV-unprocessed.smi:1492-2

> <Gold.Version>
5.8.1

> <Gold.Id.Protein>
6NUR|6NUR_protein|mol2

> <Gold.PLP.Fitness>
34.5876

> <Gold.PLP.PLP>
-31.5620

> <Gold.PLP.part.hbond>
-2.0000

> <Gold.PLP.part.metal>
0.0000

> <Gold.PLP.part.buried>
-1.8762

> <Gold.PLP.part.nonpolar>
-28.3748

> <Gold.PLP.part.repulsive>
0.4643

> <Gold.PLP.ligand.clash>
0.0000

> <Gold.PLP.ligand.torsion>
1.5598

> <Gold.PLP.Chemscore.Hbond>
1.9913

> <Gold.PLP.Chemscore.CHOScore>
0.0000

> <Gold.PLP.Chemscore.Metal>
0.0000

> <Gold.Chemscore.Hbonds>
donor molecule, donor type, donor heavy atom, donor atom, acceptor molecule, acceptor atom, score
      L1  H     6    36       P1 10175  1.00
      L1  H    16    25       P1 10957  1.00

> <Gold.PLP.Chemscore.Internal.Correction>
0.1714

> <Gold.Rescore>
     Score         DG    S(hbond)    S(metal)    S(lipo)     H(rot)  DE(clash)    DE(int)     intcor
     11.44     -14.74       1.97        0.00      69.21       2.12       1.39       1.92       ----

> <Gold.Chemscore.Fitness>
11.4373

> <Gold.Chemscore.DG>
-14.7438

> <Gold.Chemscore.ZeroCoef>
-5.4800

> <Gold.Chemscore.Hbond>
1.9708

> <Gold.Chemscore.Metal>
0.0000

> <Gold.Chemscore.Lipo>
69.2066

> <Gold.Chemscore.Internal_Hbond>
0.0000

> <Gold.Chemscore.DEClash>
1.3869

> <Gold.Chemscore.DEInternal>
1.9196

> <Gold.Chemscore.Rot>
2.1155

> <Gold.Chemscore.Internal.Correction>
   9.000000E+99

> <Gold.Chemscore.Hbonds>
donor molecule, donor type, donor heavy atom, donor atom, acceptor molecule, acceptor atom, score
      L1  H     6    36       P1 10175  1.00
      L1  H    16    25       P1 10957  0.82

> <Gold.Chemscore.Hbond.Weighted>
-6.5824

> <Gold.Chemscore.Metal.Weighted>
-0.0000

> <Gold.Chemscore.Lipo.Weighted>
-8.0972

> <Gold.Chemscore.Internal_Hbond.Weighted>
0.0000

> <Gold.Chemscore.DEClash.Weighted>
1.3869

> <Gold.Chemscore.DEInternal.Weighted>
1.9196

> <Gold.Chemscore.Rot.Weighted>
5.4157

> <Gold.Chemscore.Internal.Correction.Weighted>
   9.000000E+99

> <Gold.Protein.RotatedTorsions>
[ 6907 6896 6895 6894 ] final  158.40 input  -60.11 | X-H torsion
[ 7974 7965 7964 7962 ] final  -81.31 input  175.53 | X-H torsion
[ 8008 7997 7996 7995 ] final -178.94 input   59.86 | X-H torsion
[ 10167 10162 10161 10158 ] final   94.97 input  -65.29 | X-H torsion
[ 10718 10713 10712 10709 ] final -108.39 input   66.30 | X-H torsion
[ 10763 10752 10751 10750 ] final -156.92 input  -60.55 | X-H torsion
[ 11005 11000 10999 10996 ] final  -31.10 input  -57.11 | X-H torsion

> <Gold.Protein.ActiveResidues>
 VAL166  LYS551  ARG553  GLY616  TRP617  ASP618  TYR619  PRO620  LYS621  CYS622 
 ASP623  PHE694  ASN695  SER759  ASP760  ASP761  ALA762  ILE779  LEU786  VAL792 
 PHE793  MET794  SER795  GLU796  ALA797  LYS798  CYS799  TRP800  GLU811  SER814 

> <Gold.Protein.RotatedAtoms>
  152.0010  133.3825  159.4181 H   0  0  0  0  0  0  0  0  0  0  0  0  # atno 6907 bound_to 6896
  150.6910  134.3834  159.5053 H   0  0  0  0  0  0  0  0  0  0  0  0  # atno 6908 bound_to 6896
  152.1581  134.8934  160.0594 H   0  0  0  0  0  0  0  0  0  0  0  0  # atno 6909 bound_to 6896
  145.5483  140.9500  143.1513 H   0  0  0  0  0  0  0  0  0  0  0  0  # atno 7974 bound_to 7965
  156.0247  140.1269  157.0321 H   0  0  0  0  0  0  0  0  0  0  0  0  # atno 8008 bound_to 7997
  154.4325  140.1061  156.6084 H   0  0  0  0  0  0  0  0  0  0  0  0  # atno 8009 bound_to 7997
  155.5894  140.3469  155.4564 H   0  0  0  0  0  0  0  0  0  0  0  0  # atno 8010 bound_to 7997
  139.8033  144.6805  150.9736 H   0  0  0  0  0  0  0  0  0  0  0  0  # atno 10167 bound_to 10162
  156.0483  130.5710  150.7954 H   0  0  0  0  0  0  0  0  0  0  0  0  # atno 10718 bound_to 10713
  154.7676  135.3135  154.8255 H   0  0  0  0  0  0  0  0  0  0  0  0  # atno 10763 bound_to 10752
  153.8999  135.6817  153.4760 H   0  0  0  0  0  0  0  0  0  0  0  0  # atno 10764 bound_to 10752
  153.1284  135.4791  154.9243 H   0  0  0  0  0  0  0  0  0  0  0  0  # atno 10765 bound_to 10752
  140.9439  133.7262  156.1117 H   0  0  0  0  0  0  0  0  0  0  0  0  # atno 11005 bound_to 11000
  144.7542  139.7116  143.7261 LP  0  0  0  0  0  0  0  0  0  0  0  0  # atno 17320 bound_to 7965
  146.1934  139.5187  142.9790 LP  0  0  0  0  0  0  0  0  0  0  0  0  # atno 17321 bound_to 7965
  140.7820  143.4259  151.0768 LP  0  0  0  0  0  0  0  0  0  0  0  0  # atno 17342 bound_to 10162
  139.7930  143.8191  152.3154 LP  0  0  0  0  0  0  0  0  0  0  0  0  # atno 17343 bound_to 10162
  157.5382  131.0939  150.9863 LP  0  0  0  0  0  0  0  0  0  0  0  0  # atno 17370 bound_to 10713
  157.0152  130.5652  149.5325 LP  0  0  0  0  0  0  0  0  0  0  0  0  # atno 17371 bound_to 10713
  140.7696  134.3847  157.5510 LP  0  0  0  0  0  0  0  0  0  0  0  0  # atno 17394 bound_to 11000
  139.8828  134.9013  156.2809 LP  0  0  0  0  0  0  0  0  0  0  0  0  # atno 17395 bound_to 11000

$$$$
