AV-unprocessed.smi:3278|AV-procd|sdf|12547|dock5
  -GOLD-   2272018463D 1   1.00000     0.00000
 Structure written by MMmdl.
 38 39  0  0  0  0  0  0  0  0  1 V2000
  152.2598  135.7989  153.9815 C   0  0  0  0  0  0  0  0  0  0  0  0
  151.9206  137.2024  154.0783 N   0  0  0  0  0  0  0  0  0  0  0  0
  150.7494  137.7760  154.5226 C   0  0  0  0  0  0  0  0  0  0  0  0
  150.8916  139.1343  154.4332 C   0  0  0  0  0  0  0  0  0  0  0  0
  149.9154  140.2323  154.8033 C   0  0  2  0  0  0  0  0  0  0  0  0
  148.6093  139.6729  155.4015 C   0  0  0  0  0  0  0  0  0  0  0  0
  149.5269  140.9576  153.6543 O   0  0  0  0  0  0  0  0  0  0  0  0
  150.5725  141.2626  155.7469 C   0  0  0  0  0  0  0  0  0  0  0  0
  150.9465  140.6711  157.0344 N   0  0  0  0  0  0  0  0  0  0  0  0
  151.7839  141.5079  157.8981 C   0  0  1  0  0  0  0  0  0  0  0  0
  151.0561  142.8008  158.3350 C   0  0  0  0  0  0  0  0  0  0  0  0
  151.9337  143.7149  159.2059 C   0  0  0  0  0  0  0  0  0  0  0  0
  152.3895  143.0360  160.5037 C   0  0  0  0  0  0  0  0  0  0  0  0
  153.4112  141.5824  160.1515 S   0  0  0  0  0  0  0  0  0  0  0  0
  152.2301  140.6775  159.1154 C   0  0  0  0  0  0  0  0  0  0  0  0
  152.2132  139.2853  153.9193 C   0  0  0  0  0  0  0  0  0  0  0  0
  152.8238  138.1313  153.7071 N   0  0  0  0  0  0  0  0  0  0  0  0
  151.3832  135.1865  154.1944 H   0  0  0  0  0  0  0  0  0  0  0  0
  153.0432  135.5597  154.7009 H   0  0  0  0  0  0  0  0  0  0  0  0
  152.6140  135.5713  152.9756 H   0  0  0  0  0  0  0  0  0  0  0  0
  149.9198  137.1751  154.8649 H   0  0  0  0  0  0  0  0  0  0  0  0
  148.7927  139.1166  156.3211 H   0  0  0  0  0  0  0  0  0  0  0  0
  148.1094  138.9989  154.7048 H   0  0  0  0  0  0  0  0  0  0  0  0
  147.9093  140.4738  155.6438 H   0  0  0  0  0  0  0  0  0  0  0  0
  149.5189  140.3676  152.9162 H   0  0  0  0  0  0  0  0  0  0  0  0
  151.4632  141.6688  155.2652 H   0  0  0  0  0  0  0  0  0  0  0  0
  149.8909  142.1001  155.8940 H   0  0  0  0  0  0  0  0  0  0  0  0
  151.4144  139.7854  156.8695 H   0  0  0  0  0  0  0  0  0  0  0  0
  152.6807  141.7882  157.3436 H   0  0  0  0  0  0  0  0  0  0  0  0
  150.7462  143.3774  157.4643 H   0  0  0  0  0  0  0  0  0  0  0  0
  150.1424  142.5474  158.8749 H   0  0  0  0  0  0  0  0  0  0  0  0
  152.8048  144.0402  158.6359 H   0  0  0  0  0  0  0  0  0  0  0  0
  151.3756  144.6188  159.4520 H   0  0  0  0  0  0  0  0  0  0  0  0
  152.9687  143.7318  161.1107 H   0  0  0  0  0  0  0  0  0  0  0  0
  151.5276  142.7313  161.0983 H   0  0  0  0  0  0  0  0  0  0  0  0
  151.3702  140.3952  159.7242 H   0  0  0  0  0  0  0  0  0  0  0  0
  152.7075  139.7525  158.7904 H   0  0  0  0  0  0  0  0  0  0  0  0
  152.7445  140.1993  153.6981 H   0  0  0  0  0  0  0  0  0  0  0  0
  1  2  1  0  0  0  0
  1 18  1  0  0  0  0
  1 19  1  0  0  0  0
  1 20  1  0  0  0  0
  2 17  1  0  0  0  0
  2  3  1  0  0  0  0
  3  4  2  0  0  0  0
  3 21  1  0  0  0  0
  4  5  1  0  0  0  0
  4 16  1  0  0  0  0
  5  6  1  0  0  0  0
  5  7  1  0  0  0  0
  5  8  1  0  0  0  0
  6 22  1  0  0  0  0
  6 23  1  0  0  0  0
  6 24  1  0  0  0  0
  7 25  1  0  0  0  0
  8  9  1  0  0  0  0
  8 26  1  0  0  0  0
  8 27  1  0  0  0  0
  9 10  1  0  0  0  0
  9 28  1  0  0  0  0
 10 15  1  0  0  0  0
 10 11  1  0  0  0  0
 10 29  1  0  0  0  0
 11 12  1  0  0  0  0
 11 30  1  0  0  0  0
 11 31  1  0  0  0  0
 12 13  1  0  0  0  0
 12 32  1  0  0  0  0
 12 33  1  0  0  0  0
 13 14  1  0  0  0  0
 13 34  1  0  0  0  0
 13 35  1  0  0  0  0
 14 15  1  0  0  0  0
 15 36  1  0  0  0  0
 15 37  1  0  0  0  0
 16 17  2  0  0  0  0
 16 38  1  0  0  0  0
M  END
> <s_m_source_file>
AV-unprocessed.smi

> <i_m_source_file_index>
3278

> <i_lp_mmshare_version>
43012

> <i_f3d_flags>
0

> <s_epik_input>
W0NIM11uMVtjSF1jKFtjSF1uMSlbQ0BAXShbQ0gzXSkoW09IXSlbQ0gyXVtOSF1bQ0BASF0yW0NIMl1bQ0gyXVtDSDJdU1tDSDJdMg==

> <s_epik_cmdline>
J2VwaWtfcHl0aG9uJywgJy1waCcsICc3LjAnLCAnLXRuJywgJzgnLCAnLW1hJywgJzIwMCcsICctbWV0YWxfYmluZGluZycsICctaW1hZScsICc8aW5maWxlLm1hZT4nLCAnLW9tYWUnLCAnPG91dGZpbGUubWFlPic=

> <r_lp_tautomer_probability>
1

> <r_epik_Ionization_Penalty>
2.06123

> <r_epik_Ionization_Penalty_Charging>
0

> <r_epik_Ionization_Penalty_Neutral>
2.06123

> <r_epik_State_Penalty>
2.1944

> <r_epik_Charging_Adjusted_Penalty>
2.1944

> <i_epik_Tot_Q>
0

> <i_epik_Tot_abs_Q>
0

> <r_epik_Metal_State_Penalty>
2.19434

> <b_epik_Metal_Only>
0

> <s_lp_Force_Field>
OPLS_2005

> <r_lp_Energy>
8.30166

> <b_lp_Chiralities_Consistent>
1

> <s_lp_Variant>
AV-unprocessed.smi:3278-8

> <Gold.Version>
5.8.1

> <Gold.Id.Protein>
6NUR|6NUR_protein|mol2

> <Gold.PLP.Fitness>
47.2321

> <Gold.PLP.PLP>
-39.2262

> <Gold.PLP.part.hbond>
-3.7886

> <Gold.PLP.part.metal>
0.0000

> <Gold.PLP.part.buried>
-5.2064

> <Gold.PLP.part.nonpolar>
-30.2102

> <Gold.PLP.part.repulsive>
0.1554

> <Gold.PLP.ligand.clash>
0.0000

> <Gold.PLP.ligand.torsion>
0.1528

> <Gold.PLP.Chemscore.Hbond>
2.7512

> <Gold.PLP.Chemscore.CHOScore>
0.0000

> <Gold.PLP.Chemscore.Metal>
0.0000

> <Gold.Chemscore.Hbonds>
donor molecule, donor type, donor heavy atom, donor atom, acceptor molecule, acceptor atom, score
      L1  H     7    25       P1  7957  1.00
      P1  H  8011  8017       L1     7  0.30

> <Gold.PLP.Chemscore.Internal.Correction>
0.0579

> <Gold.Rescore>
     Score         DG    S(hbond)    S(metal)    S(lipo)     H(rot)  DE(clash)    DE(int)     intcor
     17.74     -18.68       1.88        0.00     101.52       1.93       0.25       0.69       ----

> <Gold.Chemscore.Fitness>
17.7391

> <Gold.Chemscore.DG>
-18.6801

> <Gold.Chemscore.ZeroCoef>
-5.4800

> <Gold.Chemscore.Hbond>
1.8774

> <Gold.Chemscore.Metal>
0.0000

> <Gold.Chemscore.Lipo>
101.5202

> <Gold.Chemscore.Internal_Hbond>
0.0000

> <Gold.Chemscore.DEClash>
0.2490

> <Gold.Chemscore.DEInternal>
0.6920

> <Gold.Chemscore.Rot>
1.9329

> <Gold.Chemscore.Internal.Correction>
   9.000000E+99

> <Gold.Chemscore.Hbonds>
donor molecule, donor type, donor heavy atom, donor atom, acceptor molecule, acceptor atom, score
      L1  H     7    25       P1  7957  0.95

> <Gold.Chemscore.Hbond.Weighted>
-6.2705

> <Gold.Chemscore.Metal.Weighted>
-0.0000

> <Gold.Chemscore.Lipo.Weighted>
-11.8779

> <Gold.Chemscore.Internal_Hbond.Weighted>
0.0000

> <Gold.Chemscore.DEClash.Weighted>
0.2490

> <Gold.Chemscore.DEInternal.Weighted>
0.6920

> <Gold.Chemscore.Rot.Weighted>
4.9483

> <Gold.Chemscore.Internal.Correction.Weighted>
   9.000000E+99

> <Gold.Protein.RotatedTorsions>
[ 6907 6896 6895 6894 ] final  -74.75 input  -60.11 | X-H torsion
[ 7974 7965 7964 7962 ] final  -54.83 input  175.53 | X-H torsion
[ 8008 7997 7996 7995 ] final   70.37 input   59.86 | X-H torsion
[ 10167 10162 10161 10158 ] final   12.30 input  -65.29 | X-H torsion
[ 10718 10713 10712 10709 ] final  135.81 input   66.30 | X-H torsion
[ 10763 10752 10751 10750 ] final  149.94 input  -60.55 | X-H torsion
[ 11005 11000 10999 10996 ] final   19.04 input  -57.11 | X-H torsion

> <Gold.Protein.ActiveResidues>
 VAL166  LYS551  ARG553  GLY616  TRP617  ASP618  TYR619  PRO620  LYS621  CYS622 
 ASP623  PHE694  ASN695  SER759  ASP760  ASP761  ALA762  ILE779  LEU786  VAL792 
 PHE793  MET794  SER795  GLU796  ALA797  LYS798  CYS799  TRP800  GLU811  SER814 

> <Gold.Protein.RotatedAtoms>
  150.7082  134.4822  159.5475 H   0  0  0  0  0  0  0  0  0  0  0  0  # atno 6907 bound_to 6896
  152.2457  134.8181  160.0463 H   0  0  0  0  0  0  0  0  0  0  0  0  # atno 6908 bound_to 6896
  151.8946  133.3489  159.3847 H   0  0  0  0  0  0  0  0  0  0  0  0  # atno 6909 bound_to 6896
  145.8811  140.8143  142.9839 H   0  0  0  0  0  0  0  0  0  0  0  0  # atno 7974 bound_to 7965
  155.7377  140.3491  155.5089 H   0  0  0  0  0  0  0  0  0  0  0  0  # atno 8008 bound_to 7997
  155.9123  140.1052  157.1291 H   0  0  0  0  0  0  0  0  0  0  0  0  # atno 8009 bound_to 7997
  154.4057  140.1265  156.4560 H   0  0  0  0  0  0  0  0  0  0  0  0  # atno 8010 bound_to 7997
  140.6076  143.8474  150.7031 H   0  0  0  0  0  0  0  0  0  0  0  0  # atno 10167 bound_to 10162
  157.4531  131.1067  151.0009 H   0  0  0  0  0  0  0  0  0  0  0  0  # atno 10718 bound_to 10713
  154.0793  135.2860  155.3293 H   0  0  0  0  0  0  0  0  0  0  0  0  # atno 10763 bound_to 10752
  154.6694  135.5305  153.8123 H   0  0  0  0  0  0  0  0  0  0  0  0  # atno 10764 bound_to 10752
  153.0455  135.6554  154.0969 H   0  0  0  0  0  0  0  0  0  0  0  0  # atno 10765 bound_to 10752
  140.4181  134.1548  155.7671 H   0  0  0  0  0  0  0  0  0  0  0  0  # atno 11005 bound_to 11000
  144.6727  140.1386  143.7438 LP  0  0  0  0  0  0  0  0  0  0  0  0  # atno 17320 bound_to 7965
  145.9022  139.2437  143.1487 LP  0  0  0  0  0  0  0  0  0  0  0  0  # atno 17321 bound_to 7965
  140.2035  143.3940  152.1773 LP  0  0  0  0  0  0  0  0  0  0  0  0  # atno 17342 bound_to 10162
  139.5337  144.7187  151.4967 LP  0  0  0  0  0  0  0  0  0  0  0  0  # atno 17343 bound_to 10162
  157.0832  130.5911  149.5424 LP  0  0  0  0  0  0  0  0  0  0  0  0  # atno 17370 bound_to 10713
  155.9996  130.5072  150.7612 LP  0  0  0  0  0  0  0  0  0  0  0  0  # atno 17371 bound_to 10713
  141.1795  133.8444  157.1307 LP  0  0  0  0  0  0  0  0  0  0  0  0  # atno 17394 bound_to 11000
  140.0220  134.9941  157.0610 LP  0  0  0  0  0  0  0  0  0  0  0  0  # atno 17395 bound_to 11000

$$$$
