AV-unprocessed.smi:1236|AV-procd|sdf|5180|dock7
  -GOLD-   22720 4263D 1   1.00000     0.00000
 Structure written by MMmdl.
 39 40  0  0  0  0  0  0  0  0  1 V2000
  150.1310  140.0203  154.5539 C   0  0  0  0  0  0  0  0  0  0  0  0
  149.0584  141.1110  154.6745 C   0  0  1  0  0  0  0  0  0  0  0  0
  147.7211  140.5266  155.1784 C   0  0  0  0  0  0  0  0  0  0  0  0
  146.6667  141.5032  155.4563 N   0  0  0  0  0  0  0  0  0  0  0  0
  146.4077  142.3936  154.3268 C   0  0  0  0  0  0  0  0  0  0  0  0
  145.2908  143.4035  154.6412 C   0  0  0  0  0  0  0  0  0  0  0  0
  144.1081  142.7066  155.0196 O   0  0  0  0  0  0  0  0  0  0  0  0
  144.3075  141.8565  156.1443 C   0  0  0  0  0  0  0  0  0  0  0  0
  145.4219  140.8429  155.8329 C   0  0  0  0  0  0  0  0  0  0  0  0
  149.5328  142.1486  155.5894 N   0  0  0  0  0  0  0  0  0  0  0  0
  150.1715  141.9402  156.7507 C   0  0  0  0  0  0  0  0  0  0  0  0
  150.4109  140.8220  157.2075 O   0  0  0  0  0  0  0  0  0  0  0  0
  150.5126  143.1045  157.3308 N   0  0  0  0  0  0  0  0  0  0  0  0
  151.2058  143.3063  158.5541 C   0  0  0  0  0  0  0  0  0  0  0  0
  151.2277  144.6418  159.0159 C   0  0  0  0  0  0  0  0  0  0  0  0
  151.8907  144.9479  160.2202 C   0  0  0  0  0  0  0  0  0  0  0  0
  152.5146  143.9089  160.9335 C   0  0  0  0  0  0  0  0  0  0  0  0
  152.4449  142.6069  160.4047 C   0  0  0  0  0  0  0  0  0  0  0  0
  151.8107  142.3116  159.2505 N   0  0  0  0  0  0  0  0  0  0  0  0
  149.8165  139.2372  153.8636 H   0  0  0  0  0  0  0  0  0  0  0  0
  150.3340  139.5521  155.5178 H   0  0  0  0  0  0  0  0  0  0  0  0
  151.0687  140.4317  154.1787 H   0  0  0  0  0  0  0  0  0  0  0  0
  148.9186  141.5217  153.6741 H   0  0  0  0  0  0  0  0  0  0  0  0
  147.3542  139.7928  154.4589 H   0  0  0  0  0  0  0  0  0  0  0  0
  147.9283  139.9663  156.0911 H   0  0  0  0  0  0  0  0  0  0  0  0
  147.3079  142.9454  154.0612 H   0  0  0  0  0  0  0  0  0  0  0  0
  146.1294  141.8082  153.4494 H   0  0  0  0  0  0  0  0  0  0  0  0
  145.5966  144.0784  155.4420 H   0  0  0  0  0  0  0  0  0  0  0  0
  145.0784  144.0192  153.7672 H   0  0  0  0  0  0  0  0  0  0  0  0
  144.5638  142.4545  157.0201 H   0  0  0  0  0  0  0  0  0  0  0  0
  143.3753  141.3390  156.3705 H   0  0  0  0  0  0  0  0  0  0  0  0
  145.0944  140.1828  155.0282 H   0  0  0  0  0  0  0  0  0  0  0  0
  145.5869  140.2114  156.7068 H   0  0  0  0  0  0  0  0  0  0  0  0
  149.3848  143.1037  155.2988 H   0  0  0  0  0  0  0  0  0  0  0  0
  150.2533  143.9446  156.8357 H   0  0  0  0  0  0  0  0  0  0  0  0
  150.7429  145.4279  158.4552 H   0  0  0  0  0  0  0  0  0  0  0  0
  151.9194  145.9622  160.5893 H   0  0  0  0  0  0  0  0  0  0  0  0
  153.0322  144.1038  161.8610 H   0  0  0  0  0  0  0  0  0  0  0  0
  152.9100  141.7805  160.9215 H   0  0  0  0  0  0  0  0  0  0  0  0
  1  2  1  0  0  0  0
  1 20  1  0  0  0  0
  1 21  1  0  0  0  0
  1 22  1  0  0  0  0
  2  3  1  0  0  0  0
  2 10  1  0  0  0  0
  2 23  1  0  0  0  0
  3  4  1  0  0  0  0
  3 24  1  0  0  0  0
  3 25  1  0  0  0  0
  4  9  1  0  0  0  0
  4  5  1  0  0  0  0
  5  6  1  0  0  0  0
  5 26  1  0  0  0  0
  5 27  1  0  0  0  0
  6  7  1  0  0  0  0
  6 28  1  0  0  0  0
  6 29  1  0  0  0  0
  7  8  1  0  0  0  0
  8  9  1  0  0  0  0
  8 30  1  0  0  0  0
  8 31  1  0  0  0  0
  9 32  1  0  0  0  0
  9 33  1  0  0  0  0
 10 11  1  0  0  0  0
 10 34  1  0  0  0  0
 11 12  2  0  0  0  0
 11 13  1  0  0  0  0
 13 14  1  0  0  0  0
 13 35  1  0  0  0  0
 14 19  1  0  0  0  0
 14 15  2  0  0  0  0
 15 16  1  0  0  0  0
 15 36  1  0  0  0  0
 16 17  2  0  0  0  0
 16 37  1  0  0  0  0
 17 18  1  0  0  0  0
 17 38  1  0  0  0  0
 18 19  2  0  0  0  0
 18 39  1  0  0  0  0
M  END
> <s_m_source_file>
AV-unprocessed.smi

> <i_m_source_file_index>
1236

> <i_lp_mmshare_version>
43012

> <i_f3d_flags>
0

> <s_epik_input>
W0NIMl0xW0NIMl1PW0NIMl1bQ0gyXU4xW0NIMl1bQ0BASF0oW0NIM10pW05IXUMoPU8pW05IXWMyW2NIXVtjSF1bY0hdW2NIXW4y

> <s_epik_cmdline>
J2VwaWtfcHl0aG9uJywgJy1waCcsICc3LjAnLCAnLXRuJywgJzgnLCAnLW1hJywgJzIwMCcsICctbWV0YWxfYmluZGluZycsICctaW1hZScsICc8aW5maWxlLm1hZT4nLCAnLW9tYWUnLCAnPG91dGZpbGUubWFlPic=

> <r_epik_Ionization_Penalty>
0.26604

> <r_epik_Ionization_Penalty_Charging>
0

> <r_epik_Ionization_Penalty_Neutral>
0.26604

> <r_epik_State_Penalty>
0.257924

> <r_epik_Charging_Adjusted_Penalty>
0.257924

> <i_epik_Tot_Q>
0

> <i_epik_Tot_abs_Q>
0

> <r_epik_Metal_State_Penalty>
0.257923

> <b_epik_Metal_Only>
0

> <s_lp_Force_Field>
OPLS_2005

> <r_lp_Energy>
27.6221

> <b_lp_Chiralities_Consistent>
1

> <s_lp_Variant>
AV-unprocessed.smi:1236-2

> <Gold.Version>
5.8.1

> <Gold.Id.Protein>
6NUR|6NUR_protein|mol2

> <Gold.PLP.Fitness>
40.8135

> <Gold.PLP.PLP>
-35.7337

> <Gold.PLP.part.hbond>
-2.0000

> <Gold.PLP.part.metal>
0.0000

> <Gold.PLP.part.buried>
-5.4704

> <Gold.PLP.part.nonpolar>
-29.4779

> <Gold.PLP.part.repulsive>
0.4690

> <Gold.PLP.ligand.clash>
0.0000

> <Gold.PLP.ligand.torsion>
0.3200

> <Gold.PLP.Chemscore.Hbond>
1.8960

> <Gold.PLP.Chemscore.CHOScore>
0.0000

> <Gold.PLP.Chemscore.Metal>
0.0000

> <Gold.Chemscore.Hbonds>
donor molecule, donor type, donor heavy atom, donor atom, acceptor molecule, acceptor atom, score
      L1  H    10    34       P1  8028  1.00
      L1  H    13    35       P1  8028  0.90

> <Gold.PLP.Chemscore.Internal.Correction>
0.0317

> <Gold.Rescore>
     Score         DG    S(hbond)    S(metal)    S(lipo)     H(rot)  DE(clash)    DE(int)     intcor
     14.30     -17.50       1.92        0.00      81.12       1.51       0.02       3.18       ----

> <Gold.Chemscore.Fitness>
14.2997

> <Gold.Chemscore.DG>
-17.5020

> <Gold.Chemscore.ZeroCoef>
-5.4800

> <Gold.Chemscore.Hbond>
1.9153

> <Gold.Chemscore.Metal>
0.0000

> <Gold.Chemscore.Lipo>
81.1226

> <Gold.Chemscore.Internal_Hbond>
0.0000

> <Gold.Chemscore.DEClash>
0.0211

> <Gold.Chemscore.DEInternal>
3.1811

> <Gold.Chemscore.Rot>
1.5104

> <Gold.Chemscore.Internal.Correction>
   9.000000E+99

> <Gold.Chemscore.Hbonds>
donor molecule, donor type, donor heavy atom, donor atom, acceptor molecule, acceptor atom, score
      L1  H    10    34       P1  8028  0.95
      L1  H    13    35       P1  8028  0.87

> <Gold.Chemscore.Hbond.Weighted>
-6.3972

> <Gold.Chemscore.Metal.Weighted>
-0.0000

> <Gold.Chemscore.Lipo.Weighted>
-9.4913

> <Gold.Chemscore.Internal_Hbond.Weighted>
0.0000

> <Gold.Chemscore.DEClash.Weighted>
0.0211

> <Gold.Chemscore.DEInternal.Weighted>
3.1811

> <Gold.Chemscore.Rot.Weighted>
3.8665

> <Gold.Chemscore.Internal.Correction.Weighted>
   9.000000E+99

> <Gold.Protein.RotatedTorsions>
[ 6907 6896 6895 6894 ] final  107.55 input  -60.11 | X-H torsion
[ 7974 7965 7964 7962 ] final   30.25 input  175.53 | X-H torsion
[ 8008 7997 7996 7995 ] final -156.18 input   59.86 | X-H torsion
[ 10167 10162 10161 10158 ] final    2.48 input  -65.29 | X-H torsion
[ 10718 10713 10712 10709 ] final  -56.50 input   66.30 | X-H torsion
[ 10763 10752 10751 10750 ] final -162.93 input  -60.55 | X-H torsion
[ 11005 11000 10999 10996 ] final   22.20 input  -57.11 | X-H torsion

> <Gold.Protein.ActiveResidues>
 VAL166  LYS551  ARG553  GLY616  TRP617  ASP618  TYR619  PRO620  LYS621  CYS622 
 ASP623  PHE694  ASN695  SER759  ASP760  ASP761  ALA762  ILE779  LEU786  VAL792 
 PHE793  MET794  SER795  GLU796  ALA797  LYS798  CYS799  TRP800  GLU811  SER814 

> <Gold.Protein.RotatedAtoms>
  152.5150  133.9219  159.7537 H   0  0  0  0  0  0  0  0  0  0  0  0  # atno 6907 bound_to 6896
  150.9588  133.6459  159.2765 H   0  0  0  0  0  0  0  0  0  0  0  0  # atno 6908 bound_to 6896
  151.3711  135.0928  159.9518 H   0  0  0  0  0  0  0  0  0  0  0  0  # atno 6909 bound_to 6896
  146.1623  139.6813  142.9025 H   0  0  0  0  0  0  0  0  0  0  0  0  # atno 7974 bound_to 7965
  155.7133  140.0781  157.2362 H   0  0  0  0  0  0  0  0  0  0  0  0  # atno 8008 bound_to 7997
  154.4055  140.1626  156.2374 H   0  0  0  0  0  0  0  0  0  0  0  0  # atno 8009 bound_to 7997
  155.9263  140.3394  155.6216 H   0  0  0  0  0  0  0  0  0  0  0  0  # atno 8010 bound_to 7997
  140.6633  143.7246  150.7779 H   0  0  0  0  0  0  0  0  0  0  0  0  # atno 10167 bound_to 10162
  156.1284  130.4161  150.0313 H   0  0  0  0  0  0  0  0  0  0  0  0  # atno 10718 bound_to 10713
  154.7170  135.3017  154.9108 H   0  0  0  0  0  0  0  0  0  0  0  0  # atno 10763 bound_to 10752
  153.9992  135.6709  153.4762 H   0  0  0  0  0  0  0  0  0  0  0  0  # atno 10764 bound_to 10752
  153.0801  135.5013  154.8402 H   0  0  0  0  0  0  0  0  0  0  0  0  # atno 10765 bound_to 10752
  140.3832  134.1898  155.7663 H   0  0  0  0  0  0  0  0  0  0  0  0  # atno 11005 bound_to 11000
  145.4557  141.0430  143.2779 LP  0  0  0  0  0  0  0  0  0  0  0  0  # atno 17320 bound_to 7965
  144.8044  139.6080  143.7057 LP  0  0  0  0  0  0  0  0  0  0  0  0  # atno 17321 bound_to 7965
  140.0919  143.4870  152.2474 LP  0  0  0  0  0  0  0  0  0  0  0  0  # atno 17342 bound_to 10162
  139.5873  144.7536  151.3487 LP  0  0  0  0  0  0  0  0  0  0  0  0  # atno 17343 bound_to 10162
  156.8232  130.9366  151.3640 LP  0  0  0  0  0  0  0  0  0  0  0  0  # atno 17370 bound_to 10713
  157.6464  130.8848  149.9546 LP  0  0  0  0  0  0  0  0  0  0  0  0  # atno 17371 bound_to 10713
  141.1916  133.8191  157.0872 LP  0  0  0  0  0  0  0  0  0  0  0  0  # atno 17394 bound_to 11000
  140.0462  134.9829  157.1054 LP  0  0  0  0  0  0  0  0  0  0  0  0  # atno 17395 bound_to 11000

$$$$
