AV-unprocessed.smi:763|AV-procd|sdf|3635|dock7
  -GOLD-   22720 1 33D 1   1.00000     0.00000
 Structure written by MMmdl.
 44 45  0  0  0  0  0  0  0  0  1 V2000
  144.3492  132.3620  150.1766 C   0  0  0  0  0  0  0  0  0  0  0  0
  144.4052  132.2498  151.5898 O   0  0  0  0  0  0  0  0  0  0  0  0
  145.3129  133.1540  152.2043 C   0  0  0  0  0  0  0  0  0  0  0  0
  146.7439  132.9801  151.6763 C   0  0  0  0  0  0  0  0  0  0  0  0
  147.6176  133.7062  152.5328 O   0  0  0  0  0  0  0  0  0  0  0  0
  147.8721  133.2278  153.8017 C   0  0  0  0  0  0  0  0  0  0  0  0
  147.3960  131.9971  154.1209 N   0  0  0  0  0  0  0  0  0  0  0  0
  147.6082  131.5223  155.3651 C   0  0  0  0  0  0  0  0  0  0  0  0
  148.2970  132.2438  156.3564 C   0  0  0  0  0  0  0  0  0  0  0  0
  148.7933  133.5183  156.0281 C   0  0  0  0  0  0  0  0  0  0  0  0
  148.5915  134.0269  154.7286 C   0  0  0  0  0  0  0  0  0  0  0  0
  149.1058  135.2956  154.4303 N   0  0  0  0  0  0  0  0  0  0  0  0
  149.9992  136.3910  155.4396 S   0  0  0  0  0  0  0  0  0  0  0  0
  149.0883  136.7550  156.5366 O   0  0  0  0  0  0  0  0  0  0  0  0
  151.2762  135.7142  155.7125 O   0  0  0  0  0  0  0  0  0  0  0  0
  150.2371  137.8542  154.3028 C   0  0  1  0  0  0  0  0  0  0  0  0
  149.3968  139.0583  154.7755 C   0  0  0  0  0  0  0  0  0  0  0  0
  149.9691  139.6914  156.0560 C   0  0  0  0  0  0  0  0  0  0  0  0
  151.4277  140.1311  155.8493 C   0  0  0  0  0  0  0  0  0  0  0  0
  152.3085  138.9631  155.3763 C   0  0  0  0  0  0  0  0  0  0  0  0
  151.7135  138.2877  154.1231 C   0  0  1  0  0  0  0  0  0  0  0  0
  152.5164  137.2014  153.7100 O   0  0  0  0  0  0  0  0  0  0  0  0
  143.5937  131.6790  149.7887 H   0  0  0  0  0  0  0  0  0  0  0  0
  145.2994  132.1019  149.7107 H   0  0  0  0  0  0  0  0  0  0  0  0
  144.0742  133.3722  149.8710 H   0  0  0  0  0  0  0  0  0  0  0  0
  144.9756  134.1860  152.0954 H   0  0  0  0  0  0  0  0  0  0  0  0
  145.3050  132.9393  153.2734 H   0  0  0  0  0  0  0  0  0  0  0  0
  147.0099  131.9218  151.6780 H   0  0  0  0  0  0  0  0  0  0  0  0
  146.8236  133.3524  150.6544 H   0  0  0  0  0  0  0  0  0  0  0  0
  147.2137  130.5397  155.5775 H   0  0  0  0  0  0  0  0  0  0  0  0
  148.4424  131.8292  157.3429 H   0  0  0  0  0  0  0  0  0  0  0  0
  149.3296  134.0956  156.7671 H   0  0  0  0  0  0  0  0  0  0  0  0
  148.7418  135.7031  153.5817 H   0  0  0  0  0  0  0  0  0  0  0  0
  149.8433  137.5456  153.3341 H   0  0  0  0  0  0  0  0  0  0  0  0
  149.3756  139.8114  153.9869 H   0  0  0  0  0  0  0  0  0  0  0  0
  148.3586  138.7649  154.9311 H   0  0  0  0  0  0  0  0  0  0  0  0
  149.3631  140.5504  156.3457 H   0  0  0  0  0  0  0  0  0  0  0  0
  149.9112  138.9826  156.8827 H   0  0  0  0  0  0  0  0  0  0  0  0
  151.4632  140.9340  155.1118 H   0  0  0  0  0  0  0  0  0  0  0  0
  151.8266  140.5459  156.7755 H   0  0  0  0  0  0  0  0  0  0  0  0
  153.3108  139.3322  155.1562 H   0  0  0  0  0  0  0  0  0  0  0  0
  152.4277  138.2509  156.1909 H   0  0  0  0  0  0  0  0  0  0  0  0
  151.7481  139.0156  153.3114 H   0  0  0  0  0  0  0  0  0  0  0  0
  152.2456  136.9396  152.8434 H   0  0  0  0  0  0  0  0  0  0  0  0
  1  2  1  0  0  0  0
  1 23  1  0  0  0  0
  1 24  1  0  0  0  0
  1 25  1  0  0  0  0
  2  3  1  0  0  0  0
  3  4  1  0  0  0  0
  3 26  1  0  0  0  0
  3 27  1  0  0  0  0
  4  5  1  0  0  0  0
  4 28  1  0  0  0  0
  4 29  1  0  0  0  0
  5  6  1  0  0  0  0
  6 11  1  0  0  0  0
  6  7  2  0  0  0  0
  7  8  1  0  0  0  0
  8  9  2  0  0  0  0
  8 30  1  0  0  0  0
  9 10  1  0  0  0  0
  9 31  1  0  0  0  0
 10 11  2  0  0  0  0
 10 32  1  0  0  0  0
 11 12  1  0  0  0  0
 12 13  1  0  0  0  0
 12 33  1  0  0  0  0
 13 14  2  0  0  0  0
 13 15  2  0  0  0  0
 13 16  1  0  0  0  0
 16 21  1  0  0  0  0
 16 17  1  0  0  0  0
 16 34  1  0  0  0  0
 17 18  1  0  0  0  0
 17 35  1  0  0  0  0
 17 36  1  0  0  0  0
 18 19  1  0  0  0  0
 18 37  1  0  0  0  0
 18 38  1  0  0  0  0
 19 20  1  0  0  0  0
 19 39  1  0  0  0  0
 19 40  1  0  0  0  0
 20 21  1  0  0  0  0
 20 41  1  0  0  0  0
 20 42  1  0  0  0  0
 21 22  1  0  0  0  0
 21 43  1  0  0  0  0
 22 44  1  0  0  0  0
M  END
> <s_m_source_file>
AV-unprocessed.smi

> <i_m_source_file_index>
763

> <i_lp_mmshare_version>
43012

> <i_f3d_flags>
0

> <s_epik_input>
W0NIM11PW0NIMl1bQ0gyXU9jMW5bY0hdW2NIXVtjSF1jMVtOSF1TKD1PKSg9TylbQ0BASF0yW0NIMl1bQ0gyXVtDSDJdW0NIMl1bQ0BIXTJbT0hd

> <s_epik_cmdline>
J2VwaWtfcHl0aG9uJywgJy1waCcsICc3LjAnLCAnLXRuJywgJzgnLCAnLW1hJywgJzIwMCcsICctbWV0YWxfYmluZGluZycsICctaW1hZScsICc8aW5maWxlLm1hZT4nLCAnLW9tYWUnLCAnPG91dGZpbGUubWFlPic=

> <r_epik_Ionization_Penalty>
0.124685

> <r_epik_Ionization_Penalty_Charging>
0

> <r_epik_Ionization_Penalty_Neutral>
0.124685

> <r_epik_State_Penalty>
0.114154

> <r_epik_Charging_Adjusted_Penalty>
0.114154

> <i_epik_Tot_Q>
0

> <i_epik_Tot_abs_Q>
0

> <r_epik_Metal_State_Penalty>
0.443785

> <b_epik_Metal_Only>
0

> <s_lp_Force_Field>
OPLS_2005

> <r_lp_Energy>
7.3887

> <b_lp_Chiralities_Consistent>
1

> <s_lp_Variant>
AV-unprocessed.smi:763-2

> <Gold.Version>
5.8.1

> <Gold.Id.Protein>
6NUR|6NUR_protein|mol2

> <Gold.PLP.Fitness>
37.7817

> <Gold.PLP.PLP>
-29.4452

> <Gold.PLP.part.hbond>
-3.7361

> <Gold.PLP.part.metal>
0.0000

> <Gold.PLP.part.buried>
-4.0089

> <Gold.PLP.part.nonpolar>
-23.4765

> <Gold.PLP.part.repulsive>
1.7788

> <Gold.PLP.ligand.clash>
0.0000

> <Gold.PLP.ligand.torsion>
1.0148

> <Gold.PLP.Chemscore.Hbond>
3.0071

> <Gold.PLP.Chemscore.CHOScore>
0.0000

> <Gold.PLP.Chemscore.Metal>
0.0000

> <Gold.Chemscore.Hbonds>
donor molecule, donor type, donor heavy atom, donor atom, acceptor molecule, acceptor atom, score
      L1  H    12    33       P1  7948  0.99
      L1  H    22    44       P1  7949  1.00
      P1  H 10752 10764       L1    22  0.01
      P1  H 10752 10765       L1    15  1.00

> <Gold.PLP.Chemscore.Internal.Correction>
1.3448

> <Gold.Rescore>
     Score         DG    S(hbond)    S(metal)    S(lipo)     H(rot)  DE(clash)    DE(int)     intcor
     16.14     -17.26       2.85        0.00      71.81       2.41       0.10       1.02       ----

> <Gold.Chemscore.Fitness>
16.1426

> <Gold.Chemscore.DG>
-17.2574

> <Gold.Chemscore.ZeroCoef>
-5.4800

> <Gold.Chemscore.Hbond>
2.8542

> <Gold.Chemscore.Metal>
0.0000

> <Gold.Chemscore.Lipo>
71.8117

> <Gold.Chemscore.Internal_Hbond>
0.0000

> <Gold.Chemscore.DEClash>
0.0990

> <Gold.Chemscore.DEInternal>
1.0159

> <Gold.Chemscore.Rot>
2.4052

> <Gold.Chemscore.Internal.Correction>
   9.000000E+99

> <Gold.Chemscore.Hbonds>
donor molecule, donor type, donor heavy atom, donor atom, acceptor molecule, acceptor atom, score
      L1  H    12    33       P1  7948  0.92
      L1  H    22    44       P1  7949  0.98
      P1  H 10752 10765       L1    15  0.99

> <Gold.Chemscore.Hbond.Weighted>
-9.5329

> <Gold.Chemscore.Metal.Weighted>
-0.0000

> <Gold.Chemscore.Lipo.Weighted>
-8.4020

> <Gold.Chemscore.Internal_Hbond.Weighted>
0.0000

> <Gold.Chemscore.DEClash.Weighted>
0.0990

> <Gold.Chemscore.DEInternal.Weighted>
1.0159

> <Gold.Chemscore.Rot.Weighted>
6.1574

> <Gold.Chemscore.Internal.Correction.Weighted>
   9.000000E+99

> <Gold.Protein.RotatedTorsions>
[ 6907 6896 6895 6894 ] final  -18.59 input  -60.11 | X-H torsion
[ 7974 7965 7964 7962 ] final  -96.13 input  175.53 | X-H torsion
[ 8008 7997 7996 7995 ] final   87.53 input   59.86 | X-H torsion
[ 10167 10162 10161 10158 ] final   93.35 input  -65.29 | X-H torsion
[ 10718 10713 10712 10709 ] final  -58.23 input   66.30 | X-H torsion
[ 10763 10752 10751 10750 ] final -161.16 input  -60.55 | X-H torsion
[ 11005 11000 10999 10996 ] final  125.60 input  -57.11 | X-H torsion

> <Gold.Protein.ActiveResidues>
 VAL166  LYS551  ARG553  GLY616  TRP617  ASP618  TYR619  PRO620  LYS621  CYS622 
 ASP623  PHE694  ASN695  SER759  ASP760  ASP761  ALA762  ILE779  LEU786  VAL792 
 PHE793  MET794  SER795  GLU796  ALA797  LYS798  CYS799  TRP800  GLU811  SER814 

> <Gold.Protein.RotatedAtoms>
  151.2758  135.0699  159.9150 H   0  0  0  0  0  0  0  0  0  0  0  0  # atno 6907 bound_to 6896
  152.5343  134.0082  159.7936 H   0  0  0  0  0  0  0  0  0  0  0  0  # atno 6908 bound_to 6896
  151.0328  133.5725  159.2690 H   0  0  0  0  0  0  0  0  0  0  0  0  # atno 6909 bound_to 6896
  145.3509  140.9476  143.2554 H   0  0  0  0  0  0  0  0  0  0  0  0  # atno 7974 bound_to 7965
  155.9765  140.3381  155.6623 H   0  0  0  0  0  0  0  0  0  0  0  0  # atno 8008 bound_to 7997
  155.6606  140.0715  157.2573 H   0  0  0  0  0  0  0  0  0  0  0  0  # atno 8009 bound_to 7997
  154.4180  140.1709  156.1760 H   0  0  0  0  0  0  0  0  0  0  0  0  # atno 8010 bound_to 7997
  139.8188  144.6740  150.9545 H   0  0  0  0  0  0  0  0  0  0  0  0  # atno 10167 bound_to 10162
  156.1151  130.4171  150.0548 H   0  0  0  0  0  0  0  0  0  0  0  0  # atno 10718 bound_to 10713
  154.7327  135.3050  154.8863 H   0  0  0  0  0  0  0  0  0  0  0  0  # atno 10763 bound_to 10752
  153.9701  135.6743  153.4751 H   0  0  0  0  0  0  0  0  0  0  0  0  # atno 10764 bound_to 10752
  153.0934  135.4948  154.8654 H   0  0  0  0  0  0  0  0  0  0  0  0  # atno 10765 bound_to 10752
  139.9414  134.9635  156.8582 H   0  0  0  0  0  0  0  0  0  0  0  0  # atno 11005 bound_to 11000
  144.8718  139.5027  143.6764 LP  0  0  0  0  0  0  0  0  0  0  0  0  # atno 17320 bound_to 7965
  146.2968  139.7303  142.9121 LP  0  0  0  0  0  0  0  0  0  0  0  0  # atno 17321 bound_to 7965
  140.7814  143.4112  151.0990 LP  0  0  0  0  0  0  0  0  0  0  0  0  # atno 17342 bound_to 10162
  139.7774  143.8405  152.3131 LP  0  0  0  0  0  0  0  0  0  0  0  0  # atno 17343 bound_to 10162
  156.8502  130.9456  151.3626 LP  0  0  0  0  0  0  0  0  0  0  0  0  # atno 17370 bound_to 10713
  157.6334  130.8747  149.9314 LP  0  0  0  0  0  0  0  0  0  0  0  0  # atno 17371 bound_to 10713
  140.5941  134.0233  155.7511 LP  0  0  0  0  0  0  0  0  0  0  0  0  # atno 17394 bound_to 11000
  141.1050  133.9708  157.3012 LP  0  0  0  0  0  0  0  0  0  0  0  0  # atno 17395 bound_to 11000

$$$$
