AV-unprocessed.smi:1669|AV-procd|sdf|6685|dock6
  -GOLD-   22720 7403D 1   1.00000     0.00000
 Structure written by MMmdl.
 48 50  0  0  0  0  0  0  0  0  2 V2000
  149.3512  141.2198  154.3933 C   0  0  0  0  0  0  0  0  0  0  0  0
  148.3419  141.8292  155.2893 N   0  3  1  0  0  0  0  0  0  0  0  0
  146.9702  141.7251  154.7328 C   0  0  0  0  0  0  0  0  0  0  0  0
  146.0502  142.7961  155.2941 C   0  0  0  0  0  0  0  0  0  0  0  0
  145.3367  143.6408  154.4176 C   0  0  0  0  0  0  0  0  0  0  0  0
  144.4946  144.6459  154.9316 C   0  0  0  0  0  0  0  0  0  0  0  0
  144.3590  144.8075  156.3238 C   0  0  0  0  0  0  0  0  0  0  0  0
  145.0647  143.9627  157.2019 C   0  0  0  0  0  0  0  0  0  0  0  0
  145.9081  142.9583  156.6888 C   0  0  0  0  0  0  0  0  0  0  0  0
  148.4567  141.3503  156.6923 C   0  0  0  0  0  0  0  0  0  0  0  0
  149.2310  142.3470  157.5739 C   0  0  1  0  0  0  0  0  0  0  0  0
  149.2506  141.8518  158.8993 O   0  0  0  0  0  0  0  0  0  0  0  0
  150.6763  142.5474  157.0776 C   0  0  0  0  0  0  0  0  0  0  0  0
  151.6085  141.6051  157.6829 N   0  0  0  0  0  0  0  0  0  0  0  0
  152.0367  140.4095  157.2029 C   0  0  0  0  0  0  0  0  0  0  0  0
  151.5790  139.8631  155.8851 C   0  0  0  0  0  0  0  0  0  0  0  0
  152.6166  139.8093  154.9300 O   0  0  0  0  0  0  0  0  0  0  0  0
  152.8947  139.7474  157.9796 N   0  0  0  0  0  0  0  0  0  0  0  0
  153.0422  140.5928  159.0617 C   0  0  0  0  0  0  0  0  0  0  0  0
  153.8215  140.4594  160.2329 C   0  0  0  0  0  0  0  0  0  0  0  0
  153.8115  141.4709  161.2155 C   0  0  0  0  0  0  0  0  0  0  0  0
  153.0237  142.6274  161.0421 C   0  0  0  0  0  0  0  0  0  0  0  0
  152.2389  142.7797  159.8830 C   0  0  0  0  0  0  0  0  0  0  0  0
  152.2522  141.7668  158.9056 C   0  0  0  0  0  0  0  0  0  0  0  0
  149.1767  140.1491  154.2805 H   0  0  0  0  0  0  0  0  0  0  0  0
  150.3604  141.3619  154.7794 H   0  0  0  0  0  0  0  0  0  0  0  0
  149.3134  141.6768  153.4039 H   0  0  0  0  0  0  0  0  0  0  0  0
  146.9991  141.8533  153.6497 H   0  0  0  0  0  0  0  0  0  0  0  0
  146.5652  140.7291  154.9187 H   0  0  0  0  0  0  0  0  0  0  0  0
  145.4379  143.5245  153.3484 H   0  0  0  0  0  0  0  0  0  0  0  0
  143.9532  145.2936  154.2579 H   0  0  0  0  0  0  0  0  0  0  0  0
  143.7132  145.5782  156.7182 H   0  0  0  0  0  0  0  0  0  0  0  0
  144.9595  144.0865  158.2697 H   0  0  0  0  0  0  0  0  0  0  0  0
  146.4479  142.3168  157.3699 H   0  0  0  0  0  0  0  0  0  0  0  0
  147.4721  141.1972  157.1341 H   0  0  0  0  0  0  0  0  0  0  0  0
  148.9390  140.3716  156.7028 H   0  0  0  0  0  0  0  0  0  0  0  0
  148.7242  143.3121  157.5822 H   0  0  0  0  0  0  0  0  0  0  0  0
  149.1074  140.9173  158.8730 H   0  0  0  0  0  0  0  0  0  0  0  0
  150.7238  142.4662  155.9918 H   0  0  0  0  0  0  0  0  0  0  0  0
  151.0147  143.5562  157.3174 H   0  0  0  0  0  0  0  0  0  0  0  0
  151.1880  138.8553  156.0295 H   0  0  0  0  0  0  0  0  0  0  0  0
  150.7561  140.4634  155.4975 H   0  0  0  0  0  0  0  0  0  0  0  0
  152.6220  138.9487  154.5405 H   0  0  0  0  0  0  0  0  0  0  0  0
  154.4286  139.5775  160.3751 H   0  0  0  0  0  0  0  0  0  0  0  0
  154.4116  141.3590  162.1066 H   0  0  0  0  0  0  0  0  0  0  0  0
  153.0226  143.3973  161.7998 H   0  0  0  0  0  0  0  0  0  0  0  0
  151.6351  143.6646  159.7479 H   0  0  0  0  0  0  0  0  0  0  0  0
  148.5438  142.8189  155.3176 H   0  0  0  0  0  0  0  0  0  0  0  0
  1  2  1  0  0  0  0
  1 25  1  0  0  0  0
  1 26  1  0  0  0  0
  1 27  1  0  0  0  0
  2  3  1  0  0  0  0
  2 10  1  0  0  0  0
  2 48  1  0  0  0  0
  3  4  1  0  0  0  0
  3 28  1  0  0  0  0
  3 29  1  0  0  0  0
  4  9  1  0  0  0  0
  4  5  2  0  0  0  0
  5  6  1  0  0  0  0
  5 30  1  0  0  0  0
  6  7  2  0  0  0  0
  6 31  1  0  0  0  0
  7  8  1  0  0  0  0
  7 32  1  0  0  0  0
  8  9  2  0  0  0  0
  8 33  1  0  0  0  0
  9 34  1  0  0  0  0
 10 11  1  0  0  0  0
 10 35  1  0  0  0  0
 10 36  1  0  0  0  0
 11 12  1  0  0  0  0
 11 13  1  0  0  0  0
 11 37  1  0  0  0  0
 12 38  1  0  0  0  0
 13 14  1  0  0  0  0
 13 39  1  0  0  0  0
 13 40  1  0  0  0  0
 14 24  1  0  0  0  0
 14 15  1  0  0  0  0
 15 16  1  0  0  0  0
 15 18  2  0  0  0  0
 16 17  1  0  0  0  0
 16 41  1  0  0  0  0
 16 42  1  0  0  0  0
 17 43  1  0  0  0  0
 18 19  1  0  0  0  0
 19 24  2  0  0  0  0
 19 20  1  0  0  0  0
 20 21  2  0  0  0  0
 20 44  1  0  0  0  0
 21 22  1  0  0  0  0
 21 45  1  0  0  0  0
 22 23  2  0  0  0  0
 22 46  1  0  0  0  0
 23 24  1  0  0  0  0
 23 47  1  0  0  0  0
M  CHG  1   2   1
M  END
> <s_m_source_file>
AV-unprocessed.smi

> <i_m_source_file_index>
1669

> <i_lp_mmshare_version>
43012

> <i_f3d_flags>
0

> <s_epik_input>
W2NIXTFbY0hdW2NIXVtjSF1bY0hdYzFbQ0gyXU4oW0NIM10pW0NIMl1bQ0BIXShbT0hdKVtDSDJdbihjKG4yKVtDSDJdW09IXSljKGMyMylbY0hdW2NIXVtjSF1bY0hdMw==

> <s_epik_cmdline>
J2VwaWtfcHl0aG9uJywgJy1waCcsICc3LjAnLCAnLXRuJywgJzgnLCAnLW1hJywgJzIwMCcsICctbWV0YWxfYmluZGluZycsICctaW1hZScsICc8aW5maWxlLm1hZT4nLCAnLW9tYWUnLCAnPG91dGZpbGUubWFlPic=

> <r_epik_Ionization_Penalty>
0.0949884

> <r_epik_Ionization_Penalty_Charging>
0.0475377

> <r_epik_Ionization_Penalty_Neutral>
0.0474507

> <r_epik_State_Penalty>
0.078247

> <r_epik_Charging_Adjusted_Penalty>
0.125785

> <i_epik_Tot_Q>
1

> <i_epik_Tot_abs_Q>
1

> <r_epik_Metal_State_Penalty>
0.0403451

> <b_epik_Metal_Only>
0

> <s_lp_Force_Field>
OPLS_2005

> <r_lp_Energy>
15.7652

> <b_lp_Chiralities_Consistent>
1

> <s_lp_Variant>
AV-unprocessed.smi:1669-3

> <Gold.Version>
5.8.1

> <Gold.Id.Protein>
6NUR|6NUR_protein|mol2

> <Gold.PLP.Fitness>
54.8515

> <Gold.PLP.PLP>
-46.6471

> <Gold.PLP.part.hbond>
-5.3033

> <Gold.PLP.part.metal>
0.0000

> <Gold.PLP.part.buried>
0.5916

> <Gold.PLP.part.nonpolar>
-39.7853

> <Gold.PLP.part.repulsive>
0.1220

> <Gold.PLP.ligand.clash>
0.0000

> <Gold.PLP.ligand.torsion>
1.6065

> <Gold.PLP.Chemscore.Hbond>
3.6651

> <Gold.PLP.Chemscore.CHOScore>
0.0000

> <Gold.PLP.Chemscore.Metal>
0.0000

> <Gold.Chemscore.Hbonds>
donor molecule, donor type, donor heavy atom, donor atom, acceptor molecule, acceptor atom, score
      L1  H     2    48       P1  8028  2.00
      P1  H  7989  7998       L1    17  0.48
      P1  H  7997  8008       L1    17  0.34
      P1  H  7997  8010       L1    18  0.34

> <Gold.PLP.Chemscore.Internal.Correction>
0.4221

> <Gold.Rescore>
     Score         DG    S(hbond)    S(metal)    S(lipo)     H(rot)  DE(clash)    DE(int)     intcor
     13.75     -16.59       1.80        0.00     112.85       3.17       0.22       2.62       ----

> <Gold.Chemscore.Fitness>
13.7506

> <Gold.Chemscore.DG>
-16.5894

> <Gold.Chemscore.ZeroCoef>
-5.4800

> <Gold.Chemscore.Hbond>
1.8049

> <Gold.Chemscore.Metal>
0.0000

> <Gold.Chemscore.Lipo>
112.8543

> <Gold.Chemscore.Internal_Hbond>
0.0000

> <Gold.Chemscore.DEClash>
0.2230

> <Gold.Chemscore.DEInternal>
2.6158

> <Gold.Chemscore.Rot>
3.1731

> <Gold.Chemscore.Internal.Correction>
   9.000000E+99

> <Gold.Chemscore.Hbonds>
donor molecule, donor type, donor heavy atom, donor atom, acceptor molecule, acceptor atom, score
      L1  H     2    48       P1  8028  0.99
      P1  H  7989  7998       L1    17  0.02
      P1  H  7997  8008       L1    17  0.20
      P1  H  7997  8010       L1    18  0.03

> <Gold.Chemscore.Hbond.Weighted>
-6.0285

> <Gold.Chemscore.Metal.Weighted>
-0.0000

> <Gold.Chemscore.Lipo.Weighted>
-13.2040

> <Gold.Chemscore.Internal_Hbond.Weighted>
0.0000

> <Gold.Chemscore.DEClash.Weighted>
0.2230

> <Gold.Chemscore.DEInternal.Weighted>
2.6158

> <Gold.Chemscore.Rot.Weighted>
8.1230

> <Gold.Chemscore.Internal.Correction.Weighted>
   9.000000E+99

> <Gold.Protein.RotatedTorsions>
[ 6907 6896 6895 6894 ] final -130.35 input  -60.11 | X-H torsion
[ 7974 7965 7964 7962 ] final -131.83 input  175.53 | X-H torsion
[ 8008 7997 7996 7995 ] final   10.96 input   59.86 | X-H torsion
[ 10167 10162 10161 10158 ] final  134.82 input  -65.29 | X-H torsion
[ 10718 10713 10712 10709 ] final  -76.02 input   66.30 | X-H torsion
[ 10763 10752 10751 10750 ] final  146.78 input  -60.55 | X-H torsion
[ 11005 11000 10999 10996 ] final -129.57 input  -57.11 | X-H torsion

> <Gold.Protein.ActiveResidues>
 VAL166  LYS551  ARG553  GLY616  TRP617  ASP618  TYR619  PRO620  LYS621  CYS622 
 ASP623  PHE694  ASN695  SER759  ASP760  ASP761  ALA762  ILE779  LEU786  VAL792 
 PHE793  MET794  SER795  GLU796  ALA797  LYS798  CYS799  TRP800  GLU811  SER814 

> <Gold.Protein.RotatedAtoms>
  150.9387  133.6681  159.2794 H   0  0  0  0  0  0  0  0  0  0  0  0  # atno 6907 bound_to 6896
  151.4078  135.0979  159.9585 H   0  0  0  0  0  0  0  0  0  0  0  0  # atno 6908 bound_to 6896
  152.5060  133.8867  159.7428 H   0  0  0  0  0  0  0  0  0  0  0  0  # atno 6909 bound_to 6896
  144.9342  140.7164  143.4887 H   0  0  0  0  0  0  0  0  0  0  0  0  # atno 7974 bound_to 7965
  154.8005  140.2851  155.5925 H   0  0  0  0  0  0  0  0  0  0  0  0  # atno 8008 bound_to 7997
  156.2976  140.2587  156.2801 H   0  0  0  0  0  0  0  0  0  0  0  0  # atno 8009 bound_to 7997
  154.9564  140.0378  157.2158 H   0  0  0  0  0  0  0  0  0  0  0  0  # atno 8010 bound_to 7997
  139.5241  144.6548  151.5195 H   0  0  0  0  0  0  0  0  0  0  0  0  # atno 10167 bound_to 10162
  156.0188  130.4455  150.3130 H   0  0  0  0  0  0  0  0  0  0  0  0  # atno 10718 bound_to 10713
  154.0276  135.2900  155.3373 H   0  0  0  0  0  0  0  0  0  0  0  0  # atno 10763 bound_to 10752
  154.7008  135.5189  153.8527 H   0  0  0  0  0  0  0  0  0  0  0  0  # atno 10764 bound_to 10752
  153.0654  135.6629  154.0491 H   0  0  0  0  0  0  0  0  0  0  0  0  # atno 10765 bound_to 10752
  140.9420  134.1181  157.4142 H   0  0  0  0  0  0  0  0  0  0  0  0  # atno 11005 bound_to 11000
  145.3093  139.1824  143.4647 LP  0  0  0  0  0  0  0  0  0  0  0  0  # atno 17320 bound_to 7965
  146.3259  140.3096  142.8626 LP  0  0  0  0  0  0  0  0  0  0  0  0  # atno 17321 bound_to 7965
  140.6369  143.8967  150.6655 LP  0  0  0  0  0  0  0  0  0  0  0  0  # atno 17342 bound_to 10162
  140.2289  143.3751  152.1582 LP  0  0  0  0  0  0  0  0  0  0  0  0  # atno 17343 bound_to 10162
  157.1231  131.0252  151.3001 LP  0  0  0  0  0  0  0  0  0  0  0  0  # atno 17370 bound_to 10713
  157.4611  130.7654  149.7237 LP  0  0  0  0  0  0  0  0  0  0  0  0  # atno 17371 bound_to 10713
  139.8823  135.0039  156.6218 LP  0  0  0  0  0  0  0  0  0  0  0  0  # atno 17394 bound_to 11000
  140.7721  133.8729  155.8500 LP  0  0  0  0  0  0  0  0  0  0  0  0  # atno 17395 bound_to 11000

$$$$
