AV-unprocessed.smi:1033|AV-procd|sdf|4511|dock2
  -GOLD-   22720 2513D 1   1.00000     0.00000
 Structure written by MMmdl.
 57 59  0  0  0  0  0  0  0  0  3 V2000
  149.0340  127.5576  153.1144 C   0  0  0  0  0  0  0  0  0  0  0  0
  149.1418  129.0171  153.5206 C   0  0  0  0  0  0  0  0  0  0  0  0
  150.2446  129.4337  154.2996 C   0  0  0  0  0  0  0  0  0  0  0  0
  150.3829  130.7814  154.6971 C   0  0  0  0  0  0  0  0  0  0  0  0
  151.3638  131.4000  155.4529 N   0  0  0  0  0  0  0  0  0  0  0  0
  150.9315  132.6568  155.4783 C   0  0  0  0  0  0  0  0  0  0  0  0
  149.7778  132.9247  154.8368 N   0  0  0  0  0  0  0  0  0  0  0  0
  149.1106  134.2103  154.7453 C   0  0  0  0  0  0  0  0  0  0  0  0
  147.6181  134.1277  155.1217 C   0  0  1  0  0  0  0  0  0  0  0  0
  147.5220  134.2220  156.5284 O   0  0  0  0  0  0  0  0  0  0  0  0
  146.7576  135.2435  154.4876 C   0  0  0  0  0  0  0  0  0  0  0  0
  146.6621  135.1246  153.0098 N   0  3  2  0  0  0  0  0  0  0  0  0
  145.5557  135.9233  152.4203 C   0  0  0  0  0  0  0  0  0  0  0  0
  145.5366  135.8107  150.8815 C   0  0  0  0  0  0  0  0  0  0  0  0
  145.5066  134.3982  150.4180 N   0  3  2  0  0  0  0  0  0  0  0  0
  144.1782  133.7353  150.5226 C   0  0  0  0  0  0  0  0  0  0  0  0
  144.1905  132.3037  149.9520 C   0  0  2  0  0  0  0  0  0  0  0  0
  145.2133  132.1415  148.8202 C   0  0  0  0  0  0  0  0  0  0  0  0
  142.9099  132.0007  149.4373 O   0  0  0  0  0  0  0  0  0  0  0  0
  146.6111  133.6147  151.0254 C   0  0  0  0  0  0  0  0  0  0  0  0
  146.6021  133.7108  152.5626 C   0  0  0  0  0  0  0  0  0  0  0  0
  149.3780  131.7083  154.2925 C   0  0  0  0  0  0  0  0  0  0  0  0
  148.2760  131.3062  153.5167 C   0  0  0  0  0  0  0  0  0  0  0  0
  148.1545  129.9560  153.1268 C   0  0  0  0  0  0  0  0  0  0  0  0
  146.9638  129.5316  152.2854 C   0  0  0  0  0  0  0  0  0  0  0  0
  149.8795  126.9774  153.4854 H   0  0  0  0  0  0  0  0  0  0  0  0
  149.0144  127.4629  152.0285 H   0  0  0  0  0  0  0  0  0  0  0  0
  148.1228  127.1150  153.5174 H   0  0  0  0  0  0  0  0  0  0  0  0
  150.9971  128.7186  154.5991 H   0  0  0  0  0  0  0  0  0  0  0  0
  151.4807  133.4272  156.0000 H   0  0  0  0  0  0  0  0  0  0  0  0
  149.6290  134.9095  155.4035 H   0  0  0  0  0  0  0  0  0  0  0  0
  149.2304  134.5928  153.7308 H   0  0  0  0  0  0  0  0  0  0  0  0
  147.2453  133.1475  154.8261 H   0  0  0  0  0  0  0  0  0  0  0  0
  148.0808  133.5651  156.9164 H   0  0  0  0  0  0  0  0  0  0  0  0
  145.7598  135.1978  154.9270 H   0  0  0  0  0  0  0  0  0  0  0  0
  147.1502  136.2312  154.7312 H   0  0  0  0  0  0  0  0  0  0  0  0
  144.6038  135.5938  152.8387 H   0  0  0  0  0  0  0  0  0  0  0  0
  145.6625  136.9728  152.6914 H   0  0  0  0  0  0  0  0  0  0  0  0
  144.7002  136.3753  150.4712 H   0  0  0  0  0  0  0  0  0  0  0  0
  146.4372  136.2769  150.4792 H   0  0  0  0  0  0  0  0  0  0  0  0
  143.8737  133.6842  151.5693 H   0  0  0  0  0  0  0  0  0  0  0  0
  143.4201  134.3368  150.0210 H   0  0  0  0  0  0  0  0  0  0  0  0
  144.4243  131.5799  150.7320 H   0  0  0  0  0  0  0  0  0  0  0  0
  146.2245  132.3430  149.1751 H   0  0  0  0  0  0  0  0  0  0  0  0
  145.0089  132.8248  147.9952 H   0  0  0  0  0  0  0  0  0  0  0  0
  145.2023  131.1262  148.4220 H   0  0  0  0  0  0  0  0  0  0  0  0
  142.3580  132.7635  149.5228 H   0  0  0  0  0  0  0  0  0  0  0  0
  146.5636  132.5738  150.7034 H   0  0  0  0  0  0  0  0  0  0  0  0
  147.5563  134.0044  150.6448 H   0  0  0  0  0  0  0  0  0  0  0  0
  147.4591  133.1647  152.9586 H   0  0  0  0  0  0  0  0  0  0  0  0
  145.7090  133.2345  152.9704 H   0  0  0  0  0  0  0  0  0  0  0  0
  147.5310  132.0301  153.2220 H   0  0  0  0  0  0  0  0  0  0  0  0
  146.2892  130.3677  152.0989 H   0  0  0  0  0  0  0  0  0  0  0  0
  146.3959  128.7502  152.7906 H   0  0  0  0  0  0  0  0  0  0  0  0
  147.2967  129.1492  151.3202 H   0  0  0  0  0  0  0  0  0  0  0  0
  145.7010  134.4179  149.4259 H   0  0  0  0  0  0  0  0  0  0  0  0
  147.5262  135.4998  152.6438 H   0  0  0  0  0  0  0  0  0  0  0  0
  1  2  1  0  0  0  0
  1 26  1  0  0  0  0
  1 27  1  0  0  0  0
  1 28  1  0  0  0  0
  2 24  1  0  0  0  0
  2  3  2  0  0  0  0
  3  4  1  0  0  0  0
  3 29  1  0  0  0  0
  4 22  2  0  0  0  0
  4  5  1  0  0  0  0
  5  6  2  0  0  0  0
  6  7  1  0  0  0  0
  6 30  1  0  0  0  0
  7  8  1  0  0  0  0
  7 22  1  0  0  0  0
  8  9  1  0  0  0  0
  8 31  1  0  0  0  0
  8 32  1  0  0  0  0
  9 10  1  0  0  0  0
  9 11  1  0  0  0  0
  9 33  1  0  0  0  0
 10 34  1  0  0  0  0
 11 12  1  0  0  0  0
 11 35  1  0  0  0  0
 11 36  1  0  0  0  0
 12 21  1  0  0  0  0
 12 13  1  0  0  0  0
 12 57  1  0  0  0  0
 13 14  1  0  0  0  0
 13 37  1  0  0  0  0
 13 38  1  0  0  0  0
 14 15  1  0  0  0  0
 14 39  1  0  0  0  0
 14 40  1  0  0  0  0
 15 16  1  0  0  0  0
 15 20  1  0  0  0  0
 15 56  1  0  0  0  0
 16 17  1  0  0  0  0
 16 41  1  0  0  0  0
 16 42  1  0  0  0  0
 17 18  1  0  0  0  0
 17 19  1  0  0  0  0
 17 43  1  0  0  0  0
 18 44  1  0  0  0  0
 18 45  1  0  0  0  0
 18 46  1  0  0  0  0
 19 47  1  0  0  0  0
 20 21  1  0  0  0  0
 20 48  1  0  0  0  0
 20 49  1  0  0  0  0
 21 50  1  0  0  0  0
 21 51  1  0  0  0  0
 22 23  1  0  0  0  0
 23 24  2  0  0  0  0
 23 52  1  0  0  0  0
 24 25  1  0  0  0  0
 25 53  1  0  0  0  0
 25 54  1  0  0  0  0
 25 55  1  0  0  0  0
M  CHG  1  12   1
M  CHG  1  15   1
M  END
> <s_m_source_file>
AV-unprocessed.smi

> <i_m_source_file_index>
1033

> <i_lp_mmshare_version>
43012

> <i_f3d_flags>
0

> <s_epik_input>
W0NIM11jKFtjSF0xKWMoW0NIM10pW2NIXWMoYzEyKW4oW2NIXW4yKVtDSDJdW0NASF0oW09IXSlbQ0gyXU4zW0NIMl1bQ0gyXU4oW0NIMl1bQ0gyXTMpW0NIMl1bQ0BIXShbQ0gzXSlbT0hd

> <s_epik_cmdline>
J2VwaWtfcHl0aG9uJywgJy1waCcsICc3LjAnLCAnLXRuJywgJzgnLCAnLW1hJywgJzIwMCcsICctbWV0YWxfYmluZGluZycsICctaW1hZScsICc8aW5maWxlLm1hZT4nLCAnLW9tYWUnLCAnPG91dGZpbGUubWFlPic=

> <r_epik_Ionization_Penalty>
3.16016

> <r_epik_Ionization_Penalty_Charging>
3.07679

> <r_epik_Ionization_Penalty_Neutral>
0.083365

> <r_epik_State_Penalty>
2.09701

> <r_epik_Charging_Adjusted_Penalty>
5.1738

> <i_epik_Tot_Q>
2

> <i_epik_Tot_abs_Q>
2

> <r_epik_Metal_State_Penalty>
2.02534

> <b_epik_Metal_Only>
0

> <s_lp_Force_Field>
OPLS_2005

> <r_lp_Energy>
29.7714

> <b_lp_Chiralities_Consistent>
1

> <s_lp_Variant>
AV-unprocessed.smi:1033-22

> <Gold.Version>
5.8.1

> <Gold.Id.Protein>
6NUR|6NUR_protein|mol2

> <Gold.PLP.Fitness>
57.8502

> <Gold.PLP.PLP>
-45.0212

> <Gold.PLP.part.hbond>
-4.9751

> <Gold.PLP.part.metal>
0.0000

> <Gold.PLP.part.buried>
-4.0368

> <Gold.PLP.part.nonpolar>
-36.0152

> <Gold.PLP.part.repulsive>
0.0680

> <Gold.PLP.ligand.clash>
0.0704

> <Gold.PLP.ligand.torsion>
0.9689

> <Gold.PLP.Chemscore.Hbond>
4.8688

> <Gold.PLP.Chemscore.CHOScore>
0.0000

> <Gold.PLP.Chemscore.Metal>
0.0000

> <Gold.Chemscore.Hbonds>
donor molecule, donor type, donor heavy atom, donor atom, acceptor molecule, acceptor atom, score
      L1  H    12    57       P1  7948  2.00
      L1  H    15    56       P1  7921  1.00
      L1  H    19    47       P1 10186  0.75
      P1  H 10785 10796       L1    19  1.00

> <Gold.PLP.Chemscore.Internal.Correction>
0.2311

> <Gold.Rescore>
     Score         DG    S(hbond)    S(metal)    S(lipo)     H(rot)  DE(clash)    DE(int)     intcor
     17.76     -20.14       3.18        0.00     103.29       3.14       0.02       2.36       ----

> <Gold.Chemscore.Fitness>
17.7590

> <Gold.Chemscore.DG>
-20.1389

> <Gold.Chemscore.ZeroCoef>
-5.4800

> <Gold.Chemscore.Hbond>
3.1759

> <Gold.Chemscore.Metal>
0.0000

> <Gold.Chemscore.Lipo>
103.2870

> <Gold.Chemscore.Internal_Hbond>
0.0000

> <Gold.Chemscore.DEClash>
0.0178

> <Gold.Chemscore.DEInternal>
2.3621

> <Gold.Chemscore.Rot>
3.1380

> <Gold.Chemscore.Internal.Correction>
   9.000000E+99

> <Gold.Chemscore.Hbonds>
donor molecule, donor type, donor heavy atom, donor atom, acceptor molecule, acceptor atom, score
      L1  H    12    57       P1  7948  1.00
      L1  H    15    56       P1  7921  0.82
      L1  H    19    47       P1 10186  0.75
      P1  H 10785 10796       L1    19  0.33

> <Gold.Chemscore.Hbond.Weighted>
-10.6075

> <Gold.Chemscore.Metal.Weighted>
-0.0000

> <Gold.Chemscore.Lipo.Weighted>
-12.0846

> <Gold.Chemscore.Internal_Hbond.Weighted>
0.0000

> <Gold.Chemscore.DEClash.Weighted>
0.0178

> <Gold.Chemscore.DEInternal.Weighted>
2.3621

> <Gold.Chemscore.Rot.Weighted>
8.0332

> <Gold.Chemscore.Internal.Correction.Weighted>
   9.000000E+99

> <Gold.Protein.RotatedTorsions>
[ 6907 6896 6895 6894 ] final  -20.10 input  -60.11 | X-H torsion
[ 7974 7965 7964 7962 ] final   31.84 input  175.53 | X-H torsion
[ 8008 7997 7996 7995 ] final   55.34 input   59.86 | X-H torsion
[ 10167 10162 10161 10158 ] final   68.82 input  -65.29 | X-H torsion
[ 10718 10713 10712 10709 ] final -122.79 input   66.30 | X-H torsion
[ 10763 10752 10751 10750 ] final   62.20 input  -60.55 | X-H torsion
[ 11005 11000 10999 10996 ] final   67.25 input  -57.11 | X-H torsion

> <Gold.Protein.ActiveResidues>
 VAL166  LYS551  ARG553  GLY616  TRP617  ASP618  TYR619  PRO620  LYS621  CYS622 
 ASP623  PHE694  ASN695  SER759  ASP760  ASP761  ALA762  ILE779  LEU786  VAL792 
 PHE793  MET794  SER795  GLU796  ALA797  LYS798  CYS799  TRP800  GLU811  SER814 

> <Gold.Protein.RotatedAtoms>
  151.2532  135.0629  159.9069 H   0  0  0  0  0  0  0  0  0  0  0  0  # atno 6907 bound_to 6896
  152.5377  134.0310  159.8035 H   0  0  0  0  0  0  0  0  0  0  0  0  # atno 6908 bound_to 6896
  151.0522  133.5565  159.2672 H   0  0  0  0  0  0  0  0  0  0  0  0  # atno 6909 bound_to 6896
  146.1525  139.6604  142.9089 H   0  0  0  0  0  0  0  0  0  0  0  0  # atno 7974 bound_to 7965
  155.4995  140.3474  155.4369 H   0  0  0  0  0  0  0  0  0  0  0  0  # atno 8008 bound_to 7997
  156.0923  140.1414  156.9604 H   0  0  0  0  0  0  0  0  0  0  0  0  # atno 8009 bound_to 7997
  154.4642  140.0923  156.6953 H   0  0  0  0  0  0  0  0  0  0  0  0  # atno 8010 bound_to 7997
  140.0745  144.5124  150.7204 H   0  0  0  0  0  0  0  0  0  0  0  0  # atno 10167 bound_to 10162
  156.1448  130.6492  150.9826 H   0  0  0  0  0  0  0  0  0  0  0  0  # atno 10718 bound_to 10713
  152.9975  135.5473  154.6155 H   0  0  0  0  0  0  0  0  0  0  0  0  # atno 10763 bound_to 10752
  154.5466  135.2823  155.1049 H   0  0  0  0  0  0  0  0  0  0  0  0  # atno 10764 bound_to 10752
  154.2305  135.6434  153.5226 H   0  0  0  0  0  0  0  0  0  0  0  0  # atno 10765 bound_to 10752
  139.9782  134.6787  156.0312 H   0  0  0  0  0  0  0  0  0  0  0  0  # atno 11005 bound_to 11000
  145.4789  141.0437  143.2657 LP  0  0  0  0  0  0  0  0  0  0  0  0  # atno 17320 bound_to 7965
  144.7921  139.6307  143.7108 LP  0  0  0  0  0  0  0  0  0  0  0  0  # atno 17321 bound_to 7965
  140.7109  143.2504  151.4584 LP  0  0  0  0  0  0  0  0  0  0  0  0  # atno 17342 bound_to 10162
  139.5816  144.1697  152.1975 LP  0  0  0  0  0  0  0  0  0  0  0  0  # atno 17343 bound_to 10162
  157.6607  131.0881  150.7845 LP  0  0  0  0  0  0  0  0  0  0  0  0  # atno 17370 bound_to 10713
  156.7917  130.4892  149.5384 LP  0  0  0  0  0  0  0  0  0  0  0  0  # atno 17371 bound_to 10713
  141.1457  133.6556  156.3861 LP  0  0  0  0  0  0  0  0  0  0  0  0  # atno 17394 bound_to 11000
  140.5150  134.6358  157.5298 LP  0  0  0  0  0  0  0  0  0  0  0  0  # atno 17395 bound_to 11000

$$$$
