AV-unprocessed.smi:38|AV-procd|sdf|336|dock10
  -GOLD-   2262016173D 1   1.00000     0.00000
 Structure written by MMmdl.
 28 29  0  0  0  0  0  0  0  0  1 V2000
  154.5949  141.4704  160.8795 O   0  0  0  0  0  0  0  0  0  0  0  0
  153.6593  141.1613  160.1441 C   0  0  0  0  0  0  0  0  0  0  0  0
  153.4315  139.8201  159.8224 N   0  0  0  0  0  0  0  0  0  0  0  0
  152.4071  139.3445  159.0013 C   0  0  0  0  0  0  0  0  0  0  0  0
  152.3141  138.1391  158.7743 O   0  0  0  0  0  0  0  0  0  0  0  0
  151.5202  140.3009  158.4582 N   0  0  0  0  0  0  0  0  0  0  0  0
  150.3901  139.8467  157.5629 C   0  0  2  0  0  0  0  0  0  0  0  0
  150.9310  139.1599  156.3080 C   0  0  0  0  0  0  0  0  0  0  0  0
  149.9714  139.6698  155.2533 C   0  0  2  0  0  0  0  0  0  0  0  0
  150.5609  139.6324  153.9697 O   0  0  0  0  0  0  0  0  0  0  0  0
  149.6999  141.0979  155.7328 C   0  0  1  0  0  0  0  0  0  0  0  0
  148.3692  141.6721  155.2239 C   0  0  0  0  0  0  0  0  0  0  0  0
  148.5942  142.4879  154.0945 O   0  0  0  0  0  0  0  0  0  0  0  0
  149.6567  140.9641  157.1535 O   0  0  0  0  0  0  0  0  0  0  0  0
  151.7155  141.6461  158.7416 C   0  0  0  0  0  0  0  0  0  0  0  0
  152.7155  142.0950  159.5366 C   0  0  0  0  0  0  0  0  0  0  0  0
  152.8423  143.4134  159.7637 F   0  0  0  0  0  0  0  0  0  0  0  0
  154.0640  139.1379  160.2145 H   0  0  0  0  0  0  0  0  0  0  0  0
  149.7222  139.2154  158.1507 H   0  0  0  0  0  0  0  0  0  0  0  0
  149.0550  139.0778  155.2647 H   0  0  0  0  0  0  0  0  0  0  0  0
  150.5377  141.7402  155.4552 H   0  0  0  0  0  0  0  0  0  0  0  0
  151.9479  139.5031  156.1082 H   0  0  0  0  0  0  0  0  0  0  0  0
  150.9351  138.0751  156.4182 H   0  0  0  0  0  0  0  0  0  0  0  0
  150.1073  138.9879  153.4478 H   0  0  0  0  0  0  0  0  0  0  0  0
  147.7050  140.8641  154.9156 H   0  0  0  0  0  0  0  0  0  0  0  0
  147.8551  142.2341  156.0041 H   0  0  0  0  0  0  0  0  0  0  0  0
  148.5769  143.3922  154.3687 H   0  0  0  0  0  0  0  0  0  0  0  0
  151.0502  142.3795  158.3122 H   0  0  0  0  0  0  0  0  0  0  0  0
  1  2  2  0  0  0  0
  2 16  1  0  0  0  0
  2  3  1  0  0  0  0
  3 18  1  0  0  0  0
  3  4  1  0  0  0  0
  4  5  2  0  0  0  0
  4  6  1  0  0  0  0
  6  7  1  0  0  0  0
  6 15  1  0  0  0  0
  7 19  1  0  0  0  0
  7 14  1  0  0  0  0
  7  8  1  0  0  0  0
  8  9  1  0  0  0  0
  8 22  1  0  0  0  0
  8 23  1  0  0  0  0
  9 20  1  0  0  0  0
  9 10  1  0  0  0  0
  9 11  1  0  0  0  0
 10 24  1  0  0  0  0
 11 21  1  0  0  0  0
 11 12  1  0  0  0  0
 11 14  1  0  0  0  0
 12 13  1  0  0  0  0
 12 25  1  0  0  0  0
 12 26  1  0  0  0  0
 13 27  1  0  0  0  0
 15 16  2  0  0  0  0
 15 28  1  0  0  0  0
 16 17  1  0  0  0  0
M  END
> <s_m_source_file>
AV-unprocessed.smi

> <i_m_source_file_index>
38

> <i_lp_mmshare_version>
43012

> <i_f3d_flags>
0

> <s_epik_input>
Tz1jMVtuSF1jKD1PKW4oW2NIXWMxRilbQ0BIXTJbQ0gyXVtDQEhdKFtPSF0pW0NASF0oTzIpW0NIMl1bT0hd

> <s_epik_cmdline>
J2VwaWtfcHl0aG9uJywgJy1waCcsICc3LjAnLCAnLXRuJywgJzgnLCAnLW1hJywgJzIwMCcsICctbWV0YWxfYmluZGluZycsICctaW1hZScsICc8aW5maWxlLm1hZT4nLCAnLW9tYWUnLCAnPG91dGZpbGUubWFlPic=

> <r_lp_tautomer_probability>
0.999537

> <r_epik_Ionization_Penalty>
0.0357432

> <r_epik_Ionization_Penalty_Charging>
0.0357431

> <r_epik_Ionization_Penalty_Neutral>
1.19946e-07

> <r_epik_State_Penalty>
0.0298169

> <r_epik_Charging_Adjusted_Penalty>
0.06556

> <i_epik_Tot_Q>
0

> <i_epik_Tot_abs_Q>
0

> <r_epik_Metal_State_Penalty>
2.348

> <b_epik_Metal_Only>
0

> <s_epik_Chemistry_Notes>
This compound contains an acetal/aminal-like group ( X-CH(R)-Y where X, Y are N, S, or O) that may be acid/base labile, releasing an aldehyde.

> <s_lp_Force_Field>
OPLS_2005

> <r_lp_Energy>
26.798

> <b_lp_Chiralities_Consistent>
1

> <s_lp_Variant>
AV-unprocessed.smi:38-2

> <Gold.Version>
5.8.1

> <Gold.Id.Protein>
6NUR|6NUR_protein|mol2

> <Gold.PLP.Fitness>
34.6226

> <Gold.PLP.PLP>
-29.2641

> <Gold.PLP.part.hbond>
-5.3187

> <Gold.PLP.part.metal>
0.0000

> <Gold.PLP.part.buried>
-2.0516

> <Gold.PLP.part.nonpolar>
-21.8143

> <Gold.PLP.part.repulsive>
0.1266

> <Gold.PLP.ligand.clash>
0.0000

> <Gold.PLP.ligand.torsion>
0.4908

> <Gold.PLP.Chemscore.Hbond>
2.1100

> <Gold.PLP.Chemscore.CHOScore>
0.0000

> <Gold.PLP.Chemscore.Metal>
0.0000

> <Gold.Chemscore.Hbonds>
donor molecule, donor type, donor heavy atom, donor atom, acceptor molecule, acceptor atom, score
      L1  H    13    27       P1  8028  1.00
      P1  H  7989  7998       L1    10  1.00
      P1  H  8011  8017       L1    13  0.11

> <Gold.PLP.Chemscore.Internal.Correction>
0.0102

> <Gold.Rescore>
     Score         DG    S(hbond)    S(metal)    S(lipo)     H(rot)  DE(clash)    DE(int)     intcor
      7.83      -9.23       2.01        0.00      38.50       2.91       0.04       1.36       ----

> <Gold.Chemscore.Fitness>
7.8258

> <Gold.Chemscore.DG>
-9.2265

> <Gold.Chemscore.ZeroCoef>
-5.4800

> <Gold.Chemscore.Hbond>
2.0068

> <Gold.Chemscore.Metal>
0.0000

> <Gold.Chemscore.Lipo>
38.4953

> <Gold.Chemscore.Internal_Hbond>
0.0000

> <Gold.Chemscore.DEClash>
0.0398

> <Gold.Chemscore.DEInternal>
1.3608

> <Gold.Chemscore.Rot>
2.9141

> <Gold.Chemscore.Internal.Correction>
   9.000000E+99

> <Gold.Chemscore.Hbonds>
donor molecule, donor type, donor heavy atom, donor atom, acceptor molecule, acceptor atom, score
      L1  H    13    27       P1  8028  0.97
      P1  H  7989  7998       L1    10  0.97
      P1  H  8011  8017       L1    13  0.06

> <Gold.Chemscore.Hbond.Weighted>
-6.7027

> <Gold.Chemscore.Metal.Weighted>
-0.0000

> <Gold.Chemscore.Lipo.Weighted>
-4.5040

> <Gold.Chemscore.Internal_Hbond.Weighted>
0.0000

> <Gold.Chemscore.DEClash.Weighted>
0.0398

> <Gold.Chemscore.DEInternal.Weighted>
1.3608

> <Gold.Chemscore.Rot.Weighted>
7.4601

> <Gold.Chemscore.Internal.Correction.Weighted>
   9.000000E+99

> <Gold.Protein.RotatedTorsions>
[ 6907 6896 6895 6894 ] final   80.39 input  -60.11 | X-H torsion
[ 7974 7965 7964 7962 ] final  -39.53 input  175.53 | X-H torsion
[ 8008 7997 7996 7995 ] final   27.33 input   59.86 | X-H torsion
[ 10167 10162 10161 10158 ] final  129.92 input  -65.29 | X-H torsion
[ 10718 10713 10712 10709 ] final -165.59 input   66.30 | X-H torsion
[ 10763 10752 10751 10750 ] final  -96.54 input  -60.55 | X-H torsion
[ 11005 11000 10999 10996 ] final   98.11 input  -57.11 | X-H torsion

> <Gold.Protein.ActiveResidues>
 VAL166  LYS551  ARG553  GLY616  TRP617  ASP618  TYR619  PRO620  LYS621  CYS622 
 ASP623  PHE694  ASN695  SER759  ASP760  ASP761  ALA762  ILE779  LEU786  VAL792 
 PHE793  MET794  SER795  GLU796  ALA797  LYS798  CYS799  TRP800  GLU811  SER814 

> <Gold.Protein.RotatedAtoms>
  152.5233  134.3365  159.9201 H   0  0  0  0  0  0  0  0  0  0  0  0  # atno 6907 bound_to 6896
  151.3314  133.3992  159.2670 H   0  0  0  0  0  0  0  0  0  0  0  0  # atno 6908 bound_to 6896
  150.9877  134.9236  159.7939 H   0  0  0  0  0  0  0  0  0  0  0  0  # atno 6909 bound_to 6896
  146.0387  140.6637  142.9097 H   0  0  0  0  0  0  0  0  0  0  0  0  # atno 7974 bound_to 7965
  155.0412  140.3169  155.4724 H   0  0  0  0  0  0  0  0  0  0  0  0  # atno 8008 bound_to 7997
  156.2854  140.2163  156.5479 H   0  0  0  0  0  0  0  0  0  0  0  0  # atno 8009 bound_to 7997
  154.7288  140.0483  157.0695 H   0  0  0  0  0  0  0  0  0  0  0  0  # atno 8010 bound_to 7997
  139.5454  144.6769  151.4489 H   0  0  0  0  0  0  0  0  0  0  0  0  # atno 10167 bound_to 10162
  156.6557  130.9025  151.3021 H   0  0  0  0  0  0  0  0  0  0  0  0  # atno 10718 bound_to 10713
  154.7248  135.5080  153.8869 H   0  0  0  0  0  0  0  0  0  0  0  0  # atno 10763 bound_to 10752
  153.0895  135.6655  153.9891 H   0  0  0  0  0  0  0  0  0  0  0  0  # atno 10764 bound_to 10752
  153.9705  135.3039  155.3407 H   0  0  0  0  0  0  0  0  0  0  0  0  # atno 10765 bound_to 10752
  139.8773  134.9033  156.4408 H   0  0  0  0  0  0  0  0  0  0  0  0  # atno 11005 bound_to 11000
  144.7064  140.3869  143.7115 LP  0  0  0  0  0  0  0  0  0  0  0  0  # atno 17320 bound_to 7965
  145.6920  139.1641  143.2641 LP  0  0  0  0  0  0  0  0  0  0  0  0  # atno 17321 bound_to 7965
  140.6700  143.8314  150.6988 LP  0  0  0  0  0  0  0  0  0  0  0  0  # atno 17342 bound_to 10162
  140.1735  143.4174  152.1984 LP  0  0  0  0  0  0  0  0  0  0  0  0  # atno 17343 bound_to 10162
  157.7126  130.9459  150.1143 LP  0  0  0  0  0  0  0  0  0  0  0  0  # atno 17370 bound_to 10713
  156.2050  130.3663  149.8741 LP  0  0  0  0  0  0  0  0  0  0  0  0  # atno 17371 bound_to 10713
  140.9001  133.7786  155.9670 LP  0  0  0  0  0  0  0  0  0  0  0  0  # atno 17394 bound_to 11000
  140.8660  134.2783  157.5213 LP  0  0  0  0  0  0  0  0  0  0  0  0  # atno 17395 bound_to 11000

$$$$
