AV-unprocessed.smi:2226|AV-procd|sdf|9010|dock6
  -GOLD-   2272012213D 1   1.00000     0.00000
 Structure written by MMmdl.
 40 42  0  0  0  0  0  0  0  0  2 V2000
  145.9222  143.2094  153.9033 C   0  0  0  0  0  0  0  0  0  0  0  0
  147.0018  142.5170  154.6467 N   0  3  2  0  0  0  0  0  0  0  0  0
  147.9383  141.7354  153.8027 C   0  0  1  0  0  0  0  0  0  0  0  0
  149.2213  141.4442  154.6162 C   0  0  0  0  0  0  0  0  0  0  0  0
  148.9560  140.7801  155.9830 C   0  0  0  0  0  0  0  0  0  0  0  0
  147.7495  141.4027  156.7148 C   0  0  0  0  0  0  0  0  0  0  0  0
  146.5421  141.6959  155.7932 C   0  0  2  0  0  0  0  0  0  0  0  0
  145.7706  140.4410  155.3134 C   0  0  0  0  0  0  0  0  0  0  0  0
  146.5029  139.6046  154.2386 C   0  0  1  0  0  0  0  0  0  0  0  0
  145.5296  138.7668  153.5393 N   0  0  0  0  0  0  0  0  0  0  0  0
  145.5827  137.4343  153.3859 C   0  0  0  0  0  0  0  0  0  0  0  0
  146.5103  136.7625  153.8478 O   0  0  0  0  0  0  0  0  0  0  0  0
  144.4791  137.0024  152.6651 N   0  0  0  0  0  0  0  0  0  0  0  0
  144.5230  135.8680  152.0371 C   0  0  0  0  0  0  0  0  0  0  0  0
  143.5232  135.2852  151.2750 N   0  0  0  0  0  0  0  0  0  0  0  0
  143.9924  134.0931  150.7969 C   0  0  0  0  0  0  0  0  0  0  0  0
  145.2361  133.9305  151.2387 C   0  0  0  0  0  0  0  0  0  0  0  0
  145.5914  135.0013  152.0019 O   0  0  0  0  0  0  0  0  0  0  0  0
  147.2478  140.4832  153.2071 C   0  0  0  0  0  0  0  0  0  0  0  0
  145.2432  142.5118  153.4135 H   0  0  0  0  0  0  0  0  0  0  0  0
  146.3453  143.8609  153.1382 H   0  0  0  0  0  0  0  0  0  0  0  0
  145.3357  143.8329  154.5783 H   0  0  0  0  0  0  0  0  0  0  0  0
  148.2401  142.3681  152.9667 H   0  0  0  0  0  0  0  0  0  0  0  0
  149.9136  140.8361  154.0329 H   0  0  0  0  0  0  0  0  0  0  0  0
  149.7338  142.3908  154.7928 H   0  0  0  0  0  0  0  0  0  0  0  0
  148.8168  139.7091  155.8642 H   0  0  0  0  0  0  0  0  0  0  0  0
  149.8449  140.8699  156.6082 H   0  0  0  0  0  0  0  0  0  0  0  0
  147.4483  140.7669  157.5479 H   0  0  0  0  0  0  0  0  0  0  0  0
  148.0724  142.3441  157.1613 H   0  0  0  0  0  0  0  0  0  0  0  0
  145.8472  142.3002  156.3781 H   0  0  0  0  0  0  0  0  0  0  0  0
  145.5205  139.8074  156.1651 H   0  0  0  0  0  0  0  0  0  0  0  0
  144.8112  140.7702  154.9121 H   0  0  0  0  0  0  0  0  0  0  0  0
  147.2296  138.9677  154.7354 H   0  0  0  0  0  0  0  0  0  0  0  0
  144.7379  139.2432  153.1316 H   0  0  0  0  0  0  0  0  0  0  0  0
  142.5980  135.6394  151.0795 H   0  0  0  0  0  0  0  0  0  0  0  0
  143.3679  133.4706  150.1735 H   0  0  0  0  0  0  0  0  0  0  0  0
  145.9657  133.1457  151.1047 H   0  0  0  0  0  0  0  0  0  0  0  0
  146.5373  140.8196  152.4508 H   0  0  0  0  0  0  0  0  0  0  0  0
  147.9749  139.8772  152.6649 H   0  0  0  0  0  0  0  0  0  0  0  0
  147.5541  143.2612  155.0488 H   0  0  0  0  0  0  0  0  0  0  0  0
  1  2  1  0  0  0  0
  1 20  1  0  0  0  0
  1 21  1  0  0  0  0
  1 22  1  0  0  0  0
  2  7  1  0  0  0  0
  2  3  1  0  0  0  0
  2 40  1  0  0  0  0
  3 19  1  0  0  0  0
  3  4  1  0  0  0  0
  3 23  1  0  0  0  0
  4  5  1  0  0  0  0
  4 24  1  0  0  0  0
  4 25  1  0  0  0  0
  5  6  1  0  0  0  0
  5 26  1  0  0  0  0
  5 27  1  0  0  0  0
  6  7  1  0  0  0  0
  6 28  1  0  0  0  0
  6 29  1  0  0  0  0
  7  8  1  0  0  0  0
  7 30  1  0  0  0  0
  8  9  1  0  0  0  0
  8 31  1  0  0  0  0
  8 32  1  0  0  0  0
  9 10  1  0  0  0  0
  9 19  1  0  0  0  0
  9 33  1  0  0  0  0
 10 34  1  0  0  0  0
 10 11  1  0  0  0  0
 11 13  1  0  0  0  0
 11 12  2  0  0  0  0
 13 14  2  0  0  0  0
 14 18  1  0  0  0  0
 14 15  1  0  0  0  0
 15 35  1  0  0  0  0
 15 16  1  0  0  0  0
 16 36  1  0  0  0  0
 16 17  2  0  0  0  0
 17 37  1  0  0  0  0
 17 18  1  0  0  0  0
 19 38  1  0  0  0  0
 19 39  1  0  0  0  0
M  CHG  1   2   1
M  END
> <s_m_source_file>
AV-unprocessed.smi

> <i_m_source_file_index>
2226

> <i_lp_mmshare_version>
43012

> <i_f3d_flags>
0

> <s_epik_input>
W0NIMl0xW0NIMl1bQ0gyXVtDQEhdKE4oW0NIM10pW0NIXTEyKVtDSDJdW0NASF0oW0NIMl0yKVtOSF1DKD1PKVtOSF1jM25bY0hdW2NIXW8z

> <s_epik_cmdline>
J2VwaWtfcHl0aG9uJywgJy1waCcsICc3LjAnLCAnLXRuJywgJzgnLCAnLW1hJywgJzIwMCcsICctbWV0YWxfYmluZGluZycsICctaW1hZScsICc8aW5maWxlLm1hZT4nLCAnLW9tYWUnLCAnPG91dGZpbGUubWFlPic=

> <r_lp_tautomer_probability>
0.107061

> <r_epik_Ionization_Penalty>
1.08307

> <r_epik_Ionization_Penalty_Charging>
1.08272

> <r_epik_Ionization_Penalty_Neutral>
0.000345913

> <r_epik_State_Penalty>
2.5744

> <r_epik_Charging_Adjusted_Penalty>
3.65713

> <i_epik_Tot_Q>
1

> <i_epik_Tot_abs_Q>
1

> <r_epik_Metal_State_Penalty>
3.72133

> <b_epik_Metal_Only>
0

> <s_lp_Force_Field>
OPLS_2005

> <r_lp_Energy>
57.8706

> <b_lp_Chiralities_Consistent>
1

> <s_lp_Variant>
AV-unprocessed.smi:2226-10

> <Gold.Version>
5.8.1

> <Gold.Id.Protein>
6NUR|6NUR_protein|mol2

> <Gold.PLP.Fitness>
36.4979

> <Gold.PLP.PLP>
-26.0853

> <Gold.PLP.part.hbond>
-2.6062

> <Gold.PLP.part.metal>
0.0000

> <Gold.PLP.part.buried>
-3.5088

> <Gold.PLP.part.nonpolar>
-20.6269

> <Gold.PLP.part.repulsive>
0.5546

> <Gold.PLP.ligand.clash>
0.0000

> <Gold.PLP.ligand.torsion>
0.1597

> <Gold.PLP.Chemscore.Hbond>
3.0000

> <Gold.PLP.Chemscore.CHOScore>
0.5754

> <Gold.PLP.Chemscore.Metal>
0.0000

> <Gold.Chemscore.Hbonds>
donor molecule, donor type, donor heavy atom, donor atom, acceptor molecule, acceptor atom, score
      L1  H     2    40       P1  8028  2.00
      L1  H    10    34       P1 10175  1.00
      L1  C    16    36       P1 10186  0.57

> <Gold.PLP.Chemscore.Internal.Correction>
0.0060

> <Gold.Rescore>
     Score         DG    S(hbond)    S(metal)    S(lipo)     H(rot)  DE(clash)    DE(int)     intcor
     13.38     -15.07       1.65        0.00      56.71       1.00       0.06       1.63       ----

> <Gold.Chemscore.Fitness>
13.3831

> <Gold.Chemscore.DG>
-15.0746

> <Gold.Chemscore.ZeroCoef>
-5.4800

> <Gold.Chemscore.Hbond>
1.6525

> <Gold.Chemscore.Metal>
0.0000

> <Gold.Chemscore.Lipo>
56.7111

> <Gold.Chemscore.Internal_Hbond>
0.0000

> <Gold.Chemscore.DEClash>
0.0597

> <Gold.Chemscore.DEInternal>
1.6318

> <Gold.Chemscore.Rot>
1.0000

> <Gold.Chemscore.Internal.Correction>
   9.000000E+99

> <Gold.Chemscore.Hbonds>
donor molecule, donor type, donor heavy atom, donor atom, acceptor molecule, acceptor atom, score
      L1  H     2    40       P1  8028  0.28
      L1  H    10    34       P1 10175  1.00

> <Gold.Chemscore.Hbond.Weighted>
-5.5194

> <Gold.Chemscore.Metal.Weighted>
-0.0000

> <Gold.Chemscore.Lipo.Weighted>
-6.6352

> <Gold.Chemscore.Internal_Hbond.Weighted>
0.0000

> <Gold.Chemscore.DEClash.Weighted>
0.0597

> <Gold.Chemscore.DEInternal.Weighted>
1.6318

> <Gold.Chemscore.Rot.Weighted>
2.5600

> <Gold.Chemscore.Internal.Correction.Weighted>
   9.000000E+99

> <Gold.Protein.RotatedTorsions>
[ 6907 6896 6895 6894 ] final    2.74 input  -60.11 | X-H torsion
[ 7974 7965 7964 7962 ] final   85.77 input  175.53 | X-H torsion
[ 8008 7997 7996 7995 ] final  -39.16 input   59.86 | X-H torsion
[ 10167 10162 10161 10158 ] final  164.81 input  -65.29 | X-H torsion
[ 10718 10713 10712 10709 ] final   78.05 input   66.30 | X-H torsion
[ 10763 10752 10751 10750 ] final  -15.95 input  -60.55 | X-H torsion
[ 11005 11000 10999 10996 ] final -120.57 input  -57.11 | X-H torsion

> <Gold.Protein.ActiveResidues>
 VAL166  LYS551  ARG553  GLY616  TRP617  ASP618  TYR619  PRO620  LYS621  CYS622 
 ASP623  PHE694  ASN695  SER759  ASP760  ASP761  ALA762  ILE779  LEU786  VAL792 
 PHE793  MET794  SER795  GLU796  ALA797  LYS798  CYS799  TRP800  GLU811  SER814 

> <Gold.Protein.RotatedAtoms>
  151.6137  135.1038  160.0086 H   0  0  0  0  0  0  0  0  0  0  0  0  # atno 6907 bound_to 6896
  152.4194  133.7088  159.6477 H   0  0  0  0  0  0  0  0  0  0  0  0  # atno 6908 bound_to 6896
  150.8082  133.8397  159.3216 H   0  0  0  0  0  0  0  0  0  0  0  0  # atno 6909 bound_to 6896
  145.5811  139.2325  143.2352 H   0  0  0  0  0  0  0  0  0  0  0  0  # atno 7974 bound_to 7965
  154.4026  140.1559  156.2818 H   0  0  0  0  0  0  0  0  0  0  0  0  # atno 8008 bound_to 7997
  155.8863  140.3441  155.5901 H   0  0  0  0  0  0  0  0  0  0  0  0  # atno 8009 bound_to 7997
  155.7610  140.0817  157.2146 H   0  0  0  0  0  0  0  0  0  0  0  0  # atno 8010 bound_to 7997
  139.4895  144.4196  151.9202 H   0  0  0  0  0  0  0  0  0  0  0  0  # atno 10167 bound_to 10162
  157.6732  130.9850  150.1731 H   0  0  0  0  0  0  0  0  0  0  0  0  # atno 10718 bound_to 10713
  153.5511  135.7011  153.5591 H   0  0  0  0  0  0  0  0  0  0  0  0  # atno 10763 bound_to 10752
  153.3514  135.3994  155.1649 H   0  0  0  0  0  0  0  0  0  0  0  0  # atno 10764 bound_to 10752
  154.8661  135.3766  154.5022 H   0  0  0  0  0  0  0  0  0  0  0  0  # atno 10765 bound_to 10752
  141.0133  134.0232  157.3383 H   0  0  0  0  0  0  0  0  0  0  0  0  # atno 11005 bound_to 11000
  146.1715  140.6638  142.9231 LP  0  0  0  0  0  0  0  0  0  0  0  0  # atno 17320 bound_to 7965
  144.7393  140.4898  143.6880 LP  0  0  0  0  0  0  0  0  0  0  0  0  # atno 17321 bound_to 7965
  140.3640  144.2937  150.5929 LP  0  0  0  0  0  0  0  0  0  0  0  0  # atno 17342 bound_to 10162
  140.5378  143.2230  151.8135 LP  0  0  0  0  0  0  0  0  0  0  0  0  # atno 17343 bound_to 10162
  156.2480  130.3697  149.8263 LP  0  0  0  0  0  0  0  0  0  0  0  0  # atno 17370 bound_to 10713
  156.6044  130.8560  151.3439 LP  0  0  0  0  0  0  0  0  0  0  0  0  # atno 17371 bound_to 10713
  139.9102  135.0188  156.7661 LP  0  0  0  0  0  0  0  0  0  0  0  0  # atno 17394 bound_to 11000
  140.6696  133.9571  155.7849 LP  0  0  0  0  0  0  0  0  0  0  0  0  # atno 17395 bound_to 11000

$$$$
