AV-unprocessed.smi:3110|AV-procd|sdf|11829|dock5
  -GOLD-   2272017203D 1   1.00000     0.00000
 Structure written by MMmdl.
 34 35  0  0  0  0  0  0  0  0  2 V2000
  151.2529  140.6863  157.2314 O   0  0  0  0  0  0  0  0  0  0  0  0
  150.6949  141.7837  157.2539 C   0  0  0  0  0  0  0  0  0  0  0  0
  150.8437  142.7044  158.4696 C   0  0  0  0  0  0  0  0  0  0  0  0
  152.2882  142.7709  159.0074 C   0  0  1  0  0  0  0  0  0  0  0  0
  152.3899  143.5818  160.2733 C   0  0  0  0  0  0  0  0  0  0  0  0
  153.0340  142.9401  161.2458 C   0  0  0  0  0  0  0  0  0  0  0  0
  153.4908  141.5704  160.8266 C   0  0  0  0  0  0  0  0  0  0  0  0
  152.8880  141.3980  159.4151 C   0  0  0  0  0  0  0  0  0  0  0  0
  149.9341  142.2405  156.2474 N   0  0  0  0  0  0  0  0  0  0  0  0
  149.6539  141.5088  155.0182 C   0  0  0  0  0  0  0  0  0  0  0  0
  148.1416  141.3937  154.7644 C   0  0  0  0  0  0  0  0  0  0  0  0
  147.8231  140.2602  153.8954 N   0  0  0  0  0  0  0  0  0  0  0  0
  146.8127  140.1755  152.9727 C   0  0  0  0  0  0  0  0  0  0  0  0
  146.9089  138.9323  152.4019 C   0  0  0  0  0  0  0  0  0  0  0  0
  147.9741  138.3126  152.9991 N   0  3  0  0  0  0  0  0  0  0  0  0
  148.5286  139.1220  153.9074 C   0  0  0  0  0  0  0  0  0  0  0  0
  150.5145  143.7016  158.1758 H   0  0  0  0  0  0  0  0  0  0  0  0
  150.1696  142.3784  159.2635 H   0  0  0  0  0  0  0  0  0  0  0  0
  152.9358  143.2526  158.2732 H   0  0  0  0  0  0  0  0  0  0  0  0
  151.9895  144.5821  160.3493 H   0  0  0  0  0  0  0  0  0  0  0  0
  153.2351  143.3389  162.2291 H   0  0  0  0  0  0  0  0  0  0  0  0
  154.5805  141.5355  160.8073 H   0  0  0  0  0  0  0  0  0  0  0  0
  153.1283  140.8107  161.5199 H   0  0  0  0  0  0  0  0  0  0  0  0
  152.1115  140.6327  159.4501 H   0  0  0  0  0  0  0  0  0  0  0  0
  153.6360  141.0599  158.6972 H   0  0  0  0  0  0  0  0  0  0  0  0
  149.5165  143.1550  156.3439 H   0  0  0  0  0  0  0  0  0  0  0  0
  150.1314  142.0353  154.1914 H   0  0  0  0  0  0  0  0  0  0  0  0
  150.1136  140.5198  155.0629 H   0  0  0  0  0  0  0  0  0  0  0  0
  147.5932  141.2655  155.6989 H   0  0  0  0  0  0  0  0  0  0  0  0
  147.7597  142.2991  154.2906 H   0  0  0  0  0  0  0  0  0  0  0  0
  146.1188  140.9846  152.7952 H   0  0  0  0  0  0  0  0  0  0  0  0
  146.3158  138.4553  151.6351 H   0  0  0  0  0  0  0  0  0  0  0  0
  149.3792  138.9006  154.5276 H   0  0  0  0  0  0  0  0  0  0  0  0
  148.2974  137.3771  152.7864 H   0  0  0  0  0  0  0  0  0  0  0  0
  1  2  2  0  0  0  0
  2  3  1  0  0  0  0
  2  9  1  0  0  0  0
  3  4  1  0  0  0  0
  3 17  1  0  0  0  0
  3 18  1  0  0  0  0
  4  8  1  0  0  0  0
  4  5  1  0  0  0  0
  4 19  1  0  0  0  0
  5  6  2  0  0  0  0
  5 20  1  0  0  0  0
  6  7  1  0  0  0  0
  6 21  1  0  0  0  0
  7  8  1  0  0  0  0
  7 22  1  0  0  0  0
  7 23  1  0  0  0  0
  8 24  1  0  0  0  0
  8 25  1  0  0  0  0
  9 10  1  0  0  0  0
  9 26  1  0  0  0  0
 10 11  1  0  0  0  0
 10 27  1  0  0  0  0
 10 28  1  0  0  0  0
 11 12  1  0  0  0  0
 11 29  1  0  0  0  0
 11 30  1  0  0  0  0
 12 16  1  0  0  0  0
 12 13  1  0  0  0  0
 13 14  2  0  0  0  0
 13 31  1  0  0  0  0
 14 15  1  0  0  0  0
 14 32  1  0  0  0  0
 15 16  2  0  0  0  0
 15 34  1  0  0  0  0
 16 33  1  0  0  0  0
M  CHG  1  15   1
M  END
> <s_m_source_file>
AV-unprocessed.smi

> <i_m_source_file_index>
3110

> <i_lp_mmshare_version>
43012

> <i_f3d_flags>
0

> <s_epik_input>
W0NIMl0xW0NIMl1bQ0hdPVtDSF1bQ0BIXTFbQ0gyXUMoPU8pW05IXVtDSDJdW0NIMl1uMltjSF1bY0hdbltjSF0y

> <s_epik_cmdline>
J2VwaWtfcHl0aG9uJywgJy1waCcsICc3LjAnLCAnLXRuJywgJzgnLCAnLW1hJywgJzIwMCcsICctbWV0YWxfYmluZGluZycsICctaW1hZScsICc8aW5maWxlLm1hZT4nLCAnLW9tYWUnLCAnPG91dGZpbGUubWFlPic=

> <r_lp_tautomer_probability>
1

> <r_epik_Ionization_Penalty>
0.271094

> <r_epik_Ionization_Penalty_Charging>
0

> <r_epik_Ionization_Penalty_Neutral>
0.271094

> <r_epik_State_Penalty>
0.263241

> <r_epik_Charging_Adjusted_Penalty>
0.263241

> <i_epik_Tot_Q>
1

> <i_epik_Tot_abs_Q>
1

> <r_epik_Metal_State_Penalty>
0.547832

> <b_epik_Metal_Only>
0

> <s_lp_Force_Field>
OPLS_2005

> <r_lp_Energy>
18.3702

> <b_lp_Chiralities_Consistent>
1

> <s_lp_Variant>
AV-unprocessed.smi:3110-2

> <Gold.Version>
5.8.1

> <Gold.Id.Protein>
6NUR|6NUR_protein|mol2

> <Gold.PLP.Fitness>
47.7090

> <Gold.PLP.PLP>
-37.7737

> <Gold.PLP.part.hbond>
-3.0000

> <Gold.PLP.part.metal>
0.0000

> <Gold.PLP.part.buried>
-0.3580

> <Gold.PLP.part.nonpolar>
-34.3027

> <Gold.PLP.part.repulsive>
0.1504

> <Gold.PLP.ligand.clash>
0.0000

> <Gold.PLP.ligand.torsion>
0.7346

> <Gold.PLP.Chemscore.Hbond>
2.9600

> <Gold.PLP.Chemscore.CHOScore>
0.8231

> <Gold.PLP.Chemscore.Metal>
0.0000

> <Gold.Chemscore.Hbonds>
donor molecule, donor type, donor heavy atom, donor atom, acceptor molecule, acceptor atom, score
      L1  H     9    26       P1  8028  1.00
      L1  H    15    34       P1  7948  2.00
      L1  C    13    31       P1 10175  0.79

> <Gold.PLP.Chemscore.Internal.Correction>
0.0551

> <Gold.Rescore>
     Score         DG    S(hbond)    S(metal)    S(lipo)     H(rot)  DE(clash)    DE(int)     intcor
     15.82     -17.73       1.92        0.00      95.64       2.10       0.19       1.72       ----

> <Gold.Chemscore.Fitness>
15.8193

> <Gold.Chemscore.DG>
-17.7259

> <Gold.Chemscore.ZeroCoef>
-5.4800

> <Gold.Chemscore.Hbond>
1.9229

> <Gold.Chemscore.Metal>
0.0000

> <Gold.Chemscore.Lipo>
95.6392

> <Gold.Chemscore.Internal_Hbond>
0.0000

> <Gold.Chemscore.DEClash>
0.1887

> <Gold.Chemscore.DEInternal>
1.7179

> <Gold.Chemscore.Rot>
2.0963

> <Gold.Chemscore.Internal.Correction>
   9.000000E+99

> <Gold.Chemscore.Hbonds>
donor molecule, donor type, donor heavy atom, donor atom, acceptor molecule, acceptor atom, score
      L1  H     9    26       P1  8028  0.97
      L1  H    15    34       P1  7948  0.96

> <Gold.Chemscore.Hbond.Weighted>
-6.4226

> <Gold.Chemscore.Metal.Weighted>
-0.0000

> <Gold.Chemscore.Lipo.Weighted>
-11.1898

> <Gold.Chemscore.Internal_Hbond.Weighted>
0.0000

> <Gold.Chemscore.DEClash.Weighted>
0.1887

> <Gold.Chemscore.DEInternal.Weighted>
1.7179

> <Gold.Chemscore.Rot.Weighted>
5.3665

> <Gold.Chemscore.Internal.Correction.Weighted>
   9.000000E+99

> <Gold.Protein.RotatedTorsions>
[ 6907 6896 6895 6894 ] final  -14.18 input  -60.11 | X-H torsion
[ 7974 7965 7964 7962 ] final  174.14 input  175.53 | X-H torsion
[ 8008 7997 7996 7995 ] final -155.77 input   59.86 | X-H torsion
[ 10167 10162 10161 10158 ] final   85.18 input  -65.29 | X-H torsion
[ 10718 10713 10712 10709 ] final  -17.07 input   66.30 | X-H torsion
[ 10763 10752 10751 10750 ] final  172.62 input  -60.55 | X-H torsion
[ 11005 11000 10999 10996 ] final  151.83 input  -57.11 | X-H torsion

> <Gold.Protein.ActiveResidues>
 VAL166  LYS551  ARG553  GLY616  TRP617  ASP618  TYR619  PRO620  LYS621  CYS622 
 ASP623  PHE694  ASN695  SER759  ASP760  ASP761  ALA762  ILE779  LEU786  VAL792 
 PHE793  MET794  SER795  GLU796  ALA797  LYS798  CYS799  TRP800  GLU811  SER814 

> <Gold.Protein.RotatedAtoms>
  151.3433  135.0868  159.9378 H   0  0  0  0  0  0  0  0  0  0  0  0  # atno 6907 bound_to 6896
  152.5206  133.9425  159.7643 H   0  0  0  0  0  0  0  0  0  0  0  0  # atno 6908 bound_to 6896
  150.9786  133.6215  159.2756 H   0  0  0  0  0  0  0  0  0  0  0  0  # atno 6909 bound_to 6896
  144.7228  139.9752  143.6438 H   0  0  0  0  0  0  0  0  0  0  0  0  # atno 7974 bound_to 7965
  155.7069  140.0773  157.2387 H   0  0  0  0  0  0  0  0  0  0  0  0  # atno 8008 bound_to 7997
  154.4064  140.1637  156.2306 H   0  0  0  0  0  0  0  0  0  0  0  0  # atno 8009 bound_to 7997
  155.9318  140.3391  155.6258 H   0  0  0  0  0  0  0  0  0  0  0  0  # atno 8010 bound_to 7997
  139.9003  144.6333  150.8643 H   0  0  0  0  0  0  0  0  0  0  0  0  # atno 10167 bound_to 10162
  156.5786  130.4768  149.6330 H   0  0  0  0  0  0  0  0  0  0  0  0  # atno 10718 bound_to 10713
  154.4287  135.2759  155.1927 H   0  0  0  0  0  0  0  0  0  0  0  0  # atno 10763 bound_to 10752
  154.3842  135.6080  153.5811 H   0  0  0  0  0  0  0  0  0  0  0  0  # atno 10764 bound_to 10752
  152.9835  135.5888  154.4595 H   0  0  0  0  0  0  0  0  0  0  0  0  # atno 10765 bound_to 10752
  140.1254  134.8837  157.2130 H   0  0  0  0  0  0  0  0  0  0  0  0  # atno 11005 bound_to 11000
  146.0531  139.3530  143.0627 LP  0  0  0  0  0  0  0  0  0  0  0  0  # atno 17320 bound_to 7965
  145.8189  140.9689  143.0909 LP  0  0  0  0  0  0  0  0  0  0  0  0  # atno 17321 bound_to 7965
  140.7708  143.3441  151.2146 LP  0  0  0  0  0  0  0  0  0  0  0  0  # atno 17342 bound_to 10162
  139.7031  143.9500  152.2914 LP  0  0  0  0  0  0  0  0  0  0  0  0  # atno 17343 bound_to 10162
  156.2651  130.6985  151.1765 LP  0  0  0  0  0  0  0  0  0  0  0  0  # atno 17370 bound_to 10713
  157.7332  131.0593  150.5591 LP  0  0  0  0  0  0  0  0  0  0  0  0  # atno 17371 bound_to 10713
  140.2911  134.3239  155.7315 LP  0  0  0  0  0  0  0  0  0  0  0  0  # atno 17394 bound_to 11000
  141.2160  133.7535  156.9505 LP  0  0  0  0  0  0  0  0  0  0  0  0  # atno 17395 bound_to 11000

$$$$
