#       Name:                AV-unprocessed.smi:3132
#       Creating user name   scv26
#       Creation time:       Fri Mar 27 17:32:12 2020


#       File generated by GOLD software.
#

@<TRIPOS>MOLECULE
AV-unprocessed.smi:3132
    38    39     1
SMALL
NO_CHARGES


@<TRIPOS>ATOM
      1 ****        -0.2501  -2.6523   2.5161 C.3            1 S1                 0.0000
      2 ****         0.1689  -1.9616   1.2114 C.3            1 S1                 0.0000
      3 ****         1.7048  -1.8782   1.0861 C.3            1 S1                 0.0000
      4 ****         2.1336  -1.3700  -0.2045 N.pl3          1 S1                 0.0000
      5 ****         2.5770  -0.0862  -0.4961 C.2            1 S1                 0.0000
      6 ****         2.8584  -0.0646  -1.8433 C.2            1 S1                 0.0000
      7 ****         2.6040  -1.3177  -2.3957 N.2            1 S1                 0.0000
      8 ****         2.1785  -2.0373  -1.3655 C.2            1 S1                 0.0000
      9 ****        -0.4235  -0.6256   1.1685 N.am           1 S1                 0.0000
     10 ****        -0.9842  -0.0497   0.0933 C.2            1 S1                 0.0000
     11 ****        -1.1047  -0.6159  -0.9937 O.2            1 S1                 0.0000
     12 ****        -1.4406   1.4025   0.2706 C.3            1 S1                 0.0000
     13 ****        -2.6792   1.7850  -0.5606 C.3            1 S1                 0.0000
     14 ****        -2.1118   2.6577  -1.6618 C.3            1 S1                 0.0000
     15 ****        -0.9275   3.3064  -0.9600 C.3            1 S1                 0.0000
     16 ****        -0.3852   2.2490  -0.1839 O.3            1 S1                 0.0000
     17 ****         0.1576  -3.6620   2.5733 H              1 S1                 0.0000
     18 ****        -1.3355  -2.7326   2.5867 H              1 S1                 0.0000
     19 ****         0.1016  -2.1018   3.3892 H              1 S1                 0.0000
     20 ****        -0.2164  -2.5676   0.3891 H              1 S1                 0.0000
     21 ****         2.1207  -1.2429   1.8694 H              1 S1                 0.0000
     22 ****         2.1464  -2.8665   1.2192 H              1 S1                 0.0000
     23 ****         2.6443   0.6864   0.2555 H              1 S1                 0.0000
     24 ****         3.2209   0.7501  -2.4525 H              1 S1                 0.0000
     25 ****         1.8867  -3.0732  -1.4584 H              1 S1                 0.0000
     26 ****        -0.3635  -0.0772   2.0142 H              1 S1                 0.0000
     27 ****        -1.6318   1.6044   1.3260 H              1 S1                 0.0000
     28 ****        -3.2368   0.9340  -0.9542 H              1 S1                 0.0000
     29 ****        -3.3671   2.3659   0.0551 H              1 S1                 0.0000
     30 ****        -1.7642   2.0401  -2.4911 H              1 S1                 0.0000
     31 ****        -2.8294   3.3819  -2.0479 H              1 S1                 0.0000
     32 ****        -0.1930   3.7113  -1.6561 H              1 S1                 0.0000
     33 ****        -1.2589   4.1089  -0.2996 H              1 S1                 0.0000
     34 ****         2.7159  -1.6072  -3.3463 LP             1 S1                 0.0000
     35 ****        -0.7762  -1.5535  -1.1082 LP             1 S1                 0.0000
     36 ****        -1.5310  -0.1381  -1.7618 LP             1 S1                 0.0000
     37 ****         0.2510   1.7175  -0.7430 LP             1 S1                 0.0000
     38 ****         0.1002   2.6286   0.6037 LP             1 S1                 0.0000
@<TRIPOS>BOND
    1    1    2 1     
    2    1   17 1     
    3    1   18 1     
    4    1   19 1     
    5    2    3 1     
    6    2    9 1     
    7    2   20 1     
    8    3    4 1     
    9    3   21 1     
   10    3   22 1     
   11    4    8 1     
   12    4    5 1     
   13    5    6 2     
   14    5   23 1     
   15    6    7 1     
   16    6   24 1     
   17    7    8 2     
   18    8   25 1     
   19    9   10 am    
   20    9   26 1     
   21   10   11 2     
   22   10   12 1     
   23   12   16 1     
   24   12   13 1     
   25   12   27 1     
   26   13   14 1     
   27   13   28 1     
   28   13   29 1     
   29   14   15 1     
   30   14   30 1     
   31   14   31 1     
   32   15   16 1     
   33   15   32 1     
   34   15   33 1     
   35    7   34 1     
   36   11   35 1     
   37   11   36 1     
   38   16   37 1     
   39   16   38 1     
@<TRIPOS>SUBSTRUCTURE
      1 S1             1
@<TRIPOS>SET
LONE_PAIRS      STATIC     ATOMS    <user>   **** ""
5 34 35 36 37 38
DONOR_HYDROGENS      STATIC     ATOMS    <user>   **** ""
1 26
ATOM$BLUE        STATIC     ATOMS    COLORGROUP SYSTEM
5 34 35 36 37 38
ATOM$RED        STATIC     ATOMS    COLORGROUP SYSTEM
1 26
