AV-unprocessed.smi:2507|AV-procd|sdf|9864|dock7
  -GOLD-   2272013493D 1   1.00000     0.00000
 Structure written by MMmdl.
 44 45  0  0  0  0  0  0  0  0  1 V2000
  152.9164  138.5867  154.3205 C   0  0  0  0  0  0  0  0  0  0  0  0
  151.7458  138.4825  155.3043 C   0  0  0  0  0  0  0  0  0  0  0  0
  151.1482  139.8280  155.6118 C   0  0  0  0  0  0  0  0  0  0  0  0
  151.6297  140.5528  156.6127 N   0  0  0  0  0  0  0  0  0  0  0  0
  150.8911  141.6882  156.6173 N   0  0  0  0  0  0  0  0  0  0  0  0
  151.1647  142.7068  157.6080 C   0  0  0  0  0  0  0  0  0  0  0  0
  149.9382  141.6969  155.6194 C   0  0  0  0  0  0  0  0  0  0  0  0
  150.0863  140.5105  154.9580 C   0  0  0  0  0  0  0  0  0  0  0  0
  149.3645  140.0098  153.8442 N   0  0  0  0  0  0  0  0  0  0  0  0
  148.0863  139.5983  153.8159 C   0  0  0  0  0  0  0  0  0  0  0  0
  147.3208  139.5981  154.7800 O   0  0  0  0  0  0  0  0  0  0  0  0
  147.7385  139.1785  152.5914 N   0  0  0  0  0  0  0  0  0  0  0  0
  146.4250  138.6634  152.2225 C   0  0  0  0  0  0  0  0  0  0  0  0
  146.0898  137.3686  152.9827 C   0  0  0  0  0  0  0  0  0  0  0  0
  144.9776  136.5500  152.3085 C   0  0  1  0  0  0  0  0  0  0  0  0
  145.4933  135.7891  151.0713 C   0  0  0  0  0  0  0  0  0  0  0  0
  144.3824  134.9220  150.4680 C   0  0  0  0  0  0  0  0  0  0  0  0
  143.7812  134.0235  151.5535 C   0  0  0  0  0  0  0  0  0  0  0  0
  143.3557  134.8650  152.7670 C   0  0  0  0  0  0  0  0  0  0  0  0
  144.4671  135.6113  153.2534 O   0  0  0  0  0  0  0  0  0  0  0  0
  153.3338  137.6025  154.1074 H   0  0  0  0  0  0  0  0  0  0  0  0
  153.7166  139.2077  154.7243 H   0  0  0  0  0  0  0  0  0  0  0  0
  152.5962  139.0249  153.3748 H   0  0  0  0  0  0  0  0  0  0  0  0
  150.9845  137.8209  154.8910 H   0  0  0  0  0  0  0  0  0  0  0  0
  152.0878  138.0071  156.2245 H   0  0  0  0  0  0  0  0  0  0  0  0
  150.5038  143.5612  157.4589 H   0  0  0  0  0  0  0  0  0  0  0  0
  152.1995  143.0395  157.5202 H   0  0  0  0  0  0  0  0  0  0  0  0
  151.0017  142.3025  158.6074 H   0  0  0  0  0  0  0  0  0  0  0  0
  149.2628  142.5275  155.4778 H   0  0  0  0  0  0  0  0  0  0  0  0
  149.8780  139.9565  152.9768 H   0  0  0  0  0  0  0  0  0  0  0  0
  148.4334  139.2168  151.8603 H   0  0  0  0  0  0  0  0  0  0  0  0
  145.6629  139.4242  152.3998 H   0  0  0  0  0  0  0  0  0  0  0  0
  146.4285  138.4731  151.1492 H   0  0  0  0  0  0  0  0  0  0  0  0
  146.9899  136.7566  153.0530 H   0  0  0  0  0  0  0  0  0  0  0  0
  145.7975  137.6032  154.0071 H   0  0  0  0  0  0  0  0  0  0  0  0
  144.1768  137.2276  152.0069 H   0  0  0  0  0  0  0  0  0  0  0  0
  145.8644  136.4901  150.3230 H   0  0  0  0  0  0  0  0  0  0  0  0
  146.3364  135.1565  151.3528 H   0  0  0  0  0  0  0  0  0  0  0  0
  143.6051  135.5614  150.0476 H   0  0  0  0  0  0  0  0  0  0  0  0
  144.7725  134.3197  149.6469 H   0  0  0  0  0  0  0  0  0  0  0  0
  142.9282  133.4715  151.1580 H   0  0  0  0  0  0  0  0  0  0  0  0
  144.5181  133.2822  151.8653 H   0  0  0  0  0  0  0  0  0  0  0  0
  142.5379  135.5383  152.5060 H   0  0  0  0  0  0  0  0  0  0  0  0
  142.9911  134.2165  153.5635 H   0  0  0  0  0  0  0  0  0  0  0  0
  1  2  1  0  0  0  0
  1 21  1  0  0  0  0
  1 22  1  0  0  0  0
  1 23  1  0  0  0  0
  2  3  1  0  0  0  0
  2 24  1  0  0  0  0
  2 25  1  0  0  0  0
  3  8  1  0  0  0  0
  3  4  2  0  0  0  0
  4  5  1  0  0  0  0
  5  6  1  0  0  0  0
  5  7  1  0  0  0  0
  6 26  1  0  0  0  0
  6 27  1  0  0  0  0
  6 28  1  0  0  0  0
  7  8  2  0  0  0  0
  7 29  1  0  0  0  0
  8  9  1  0  0  0  0
  9 10  1  0  0  0  0
  9 30  1  0  0  0  0
 10 11  2  0  0  0  0
 10 12  1  0  0  0  0
 12 13  1  0  0  0  0
 12 31  1  0  0  0  0
 13 14  1  0  0  0  0
 13 32  1  0  0  0  0
 13 33  1  0  0  0  0
 14 15  1  0  0  0  0
 14 34  1  0  0  0  0
 14 35  1  0  0  0  0
 15 20  1  0  0  0  0
 15 16  1  0  0  0  0
 15 36  1  0  0  0  0
 16 17  1  0  0  0  0
 16 37  1  0  0  0  0
 16 38  1  0  0  0  0
 17 18  1  0  0  0  0
 17 39  1  0  0  0  0
 17 40  1  0  0  0  0
 18 19  1  0  0  0  0
 18 41  1  0  0  0  0
 18 42  1  0  0  0  0
 19 20  1  0  0  0  0
 19 43  1  0  0  0  0
 19 44  1  0  0  0  0
M  END
> <s_m_source_file>
AV-unprocessed.smi

> <i_m_source_file_index>
2507

> <i_lp_mmshare_version>
43012

> <i_f3d_flags>
0

> <s_epik_input>
W0NIM11bQ0gyXWMxbm4oW0NIM10pW2NIXWMxW05IXUMoPU8pW05IXVtDSDJdW0NIMl1bQ0BASF0yW0NIMl1bQ0gyXVtDSDJdW0NIMl1PMg==

> <s_epik_cmdline>
J2VwaWtfcHl0aG9uJywgJy1waCcsICc3LjAnLCAnLXRuJywgJzgnLCAnLW1hJywgJzIwMCcsICctbWV0YWxfYmluZGluZycsICctaW1hZScsICc8aW5maWxlLm1hZT4nLCAnLW9tYWUnLCAnPG91dGZpbGUubWFlPic=

> <r_lp_tautomer_probability>
1

> <r_epik_Ionization_Penalty>
0.00072031

> <r_epik_Ionization_Penalty_Charging>
0

> <r_epik_Ionization_Penalty_Neutral>
0.00072031

> <r_epik_State_Penalty>
-0

> <r_epik_Charging_Adjusted_Penalty>
0

> <i_epik_Tot_Q>
0

> <i_epik_Tot_abs_Q>
0

> <r_epik_Metal_State_Penalty>
-0

> <b_epik_Metal_Only>
0

> <s_lp_Force_Field>
OPLS_2005

> <r_lp_Energy>
7.2839

> <b_lp_Chiralities_Consistent>
1

> <s_lp_Variant>
AV-unprocessed.smi:2507-2

> <Gold.Version>
5.8.1

> <Gold.Id.Protein>
6NUR|6NUR_protein|mol2

> <Gold.PLP.Fitness>
44.9883

> <Gold.PLP.PLP>
-39.2830

> <Gold.PLP.part.hbond>
-2.3145

> <Gold.PLP.part.metal>
0.0000

> <Gold.PLP.part.buried>
-3.4842

> <Gold.PLP.part.nonpolar>
-33.4560

> <Gold.PLP.part.repulsive>
0.3586

> <Gold.PLP.ligand.clash>
0.0000

> <Gold.PLP.ligand.torsion>
1.2630

> <Gold.PLP.Chemscore.Hbond>
1.7280

> <Gold.PLP.Chemscore.CHOScore>
1.0000

> <Gold.PLP.Chemscore.Metal>
0.0000

> <Gold.Chemscore.Hbonds>
donor molecule, donor type, donor heavy atom, donor atom, acceptor molecule, acceptor atom, score
      L1  H     9    30       P1  7957  0.83
      L1  H    12    31       P1  7957  0.98
      L1  C     7    29       P1  8028  1.00

> <Gold.PLP.Chemscore.Internal.Correction>
0.0472

> <Gold.Rescore>
     Score         DG    S(hbond)    S(metal)    S(lipo)     H(rot)  DE(clash)    DE(int)     intcor
     16.53     -18.03       1.77        0.00      89.57       1.50       0.23       1.26       ----

> <Gold.Chemscore.Fitness>
16.5332

> <Gold.Chemscore.DG>
-18.0299

> <Gold.Chemscore.ZeroCoef>
-5.4800

> <Gold.Chemscore.Hbond>
1.7726

> <Gold.Chemscore.Metal>
0.0000

> <Gold.Chemscore.Lipo>
89.5737

> <Gold.Chemscore.Internal_Hbond>
0.0000

> <Gold.Chemscore.DEClash>
0.2326

> <Gold.Chemscore.DEInternal>
1.2641

> <Gold.Chemscore.Rot>
1.5042

> <Gold.Chemscore.Internal.Correction>
   9.000000E+99

> <Gold.Chemscore.Hbonds>
donor molecule, donor type, donor heavy atom, donor atom, acceptor molecule, acceptor atom, score
      L1  H     9    30       P1  7957  0.81
      L1  H    12    31       P1  7957  0.89

> <Gold.Chemscore.Hbond.Weighted>
-5.9205

> <Gold.Chemscore.Metal.Weighted>
-0.0000

> <Gold.Chemscore.Lipo.Weighted>
-10.4801

> <Gold.Chemscore.Internal_Hbond.Weighted>
0.0000

> <Gold.Chemscore.DEClash.Weighted>
0.2326

> <Gold.Chemscore.DEInternal.Weighted>
1.2641

> <Gold.Chemscore.Rot.Weighted>
3.8507

> <Gold.Chemscore.Internal.Correction.Weighted>
   9.000000E+99

> <Gold.Protein.RotatedTorsions>
[ 6907 6896 6895 6894 ] final -159.62 input  -60.11 | X-H torsion
[ 7974 7965 7964 7962 ] final  116.90 input  175.53 | X-H torsion
[ 8008 7997 7996 7995 ] final  119.56 input   59.86 | X-H torsion
[ 10167 10162 10161 10158 ] final  -37.04 input  -65.29 | X-H torsion
[ 10718 10713 10712 10709 ] final -100.87 input   66.30 | X-H torsion
[ 10763 10752 10751 10750 ] final  -24.87 input  -60.55 | X-H torsion
[ 11005 11000 10999 10996 ] final  -29.89 input  -57.11 | X-H torsion

> <Gold.Protein.ActiveResidues>
 VAL166  LYS551  ARG553  GLY616  TRP617  ASP618  TYR619  PRO620  LYS621  CYS622 
 ASP623  PHE694  ASN695  SER759  ASP760  ASP761  ALA762  ILE779  LEU786  VAL792 
 PHE793  MET794  SER795  GLU796  ALA797  LYS798  CYS799  TRP800  GLU811  SER814 

> <Gold.Protein.RotatedAtoms>
  151.3364  133.3980  159.2666 H   0  0  0  0  0  0  0  0  0  0  0  0  # atno 6907 bound_to 6896
  150.9913  134.9248  159.7912 H   0  0  0  0  0  0  0  0  0  0  0  0  # atno 6908 bound_to 6896
  152.5248  134.3329  159.9241 H   0  0  0  0  0  0  0  0  0  0  0  0  # atno 6909 bound_to 6896
  145.1740  139.3086  143.4453 H   0  0  0  0  0  0  0  0  0  0  0  0  # atno 7974 bound_to 7965
  156.2601  140.2850  156.1010 H   0  0  0  0  0  0  0  0  0  0  0  0  # atno 8008 bound_to 7997
  155.1360  140.0394  157.2804 H   0  0  0  0  0  0  0  0  0  0  0  0  # atno 8009 bound_to 7997
  154.6565  140.2556  155.7162 H   0  0  0  0  0  0  0  0  0  0  0  0  # atno 8010 bound_to 7997
  140.7128  143.3369  151.2444 H   0  0  0  0  0  0  0  0  0  0  0  0  # atno 10167 bound_to 10162
  156.0176  130.5347  150.6880 H   0  0  0  0  0  0  0  0  0  0  0  0  # atno 10718 bound_to 10713
  153.6907  135.6962  153.5091 H   0  0  0  0  0  0  0  0  0  0  0  0  # atno 10763 bound_to 10752
  153.2415  135.4304  155.0702 H   0  0  0  0  0  0  0  0  0  0  0  0  # atno 10764 bound_to 10752
  154.8373  135.3509  154.6449 H   0  0  0  0  0  0  0  0  0  0  0  0  # atno 10765 bound_to 10752
  140.9336  133.7323  156.0972 H   0  0  0  0  0  0  0  0  0  0  0  0  # atno 11005 bound_to 11000
  146.3464  140.1895  142.8589 LP  0  0  0  0  0  0  0  0  0  0  0  0  # atno 17320 bound_to 7965
  145.0204  140.8789  143.5170 LP  0  0  0  0  0  0  0  0  0  0  0  0  # atno 17321 bound_to 7965
  139.6866  143.9764  152.2837 LP  0  0  0  0  0  0  0  0  0  0  0  0  # atno 17342 bound_to 10162
  139.9411  144.6681  150.8265 LP  0  0  0  0  0  0  0  0  0  0  0  0  # atno 17343 bound_to 10162
  157.4568  131.0879  151.0788 LP  0  0  0  0  0  0  0  0  0  0  0  0  # atno 17370 bound_to 10713
  157.1288  130.6093  149.5524 LP  0  0  0  0  0  0  0  0  0  0  0  0  # atno 17371 bound_to 10713
  140.7830  134.3704  157.5483 LP  0  0  0  0  0  0  0  0  0  0  0  0  # atno 17394 bound_to 11000
  139.8802  134.9093  156.2988 LP  0  0  0  0  0  0  0  0  0  0  0  0  # atno 17395 bound_to 11000

$$$$
