AV-unprocessed.smi:1824|AV-procd|sdf|7410|dock4
  -GOLD-   22720 9 83D 1   1.00000     0.00000
 Structure written by MMmdl.
 45 47  0  0  0  0  0  0  0  0  2 V2000
  147.0721  135.3125  154.0412 C   0  0  0  0  0  0  0  0  0  0  0  0
  148.1859  135.0365  155.0569 C   0  0  2  0  0  0  0  0  0  0  0  0
  149.2434  136.1566  155.0817 C   0  0  0  0  0  0  0  0  0  0  0  0
  150.3398  135.8536  155.9942 N   0  0  0  0  0  0  0  0  0  0  0  0
  151.3215  136.9389  156.0131 C   0  0  0  0  0  0  0  0  0  0  0  0
  150.7486  138.3383  156.3105 C   0  0  1  0  0  0  0  0  0  0  0  0
  149.9867  138.2591  157.4977 O   0  0  0  0  0  0  0  0  0  0  0  0
  151.8507  139.4019  156.4905 C   0  0  0  0  0  0  0  0  0  0  0  0
  151.3100  140.7537  156.6781 N   0  0  0  0  0  0  0  0  0  0  0  0
  150.4772  141.4843  155.8877 C   0  0  0  0  0  0  0  0  0  0  0  0
  150.2711  142.6807  156.5057 N   0  3  0  0  0  0  0  0  0  0  0  0
  150.9792  142.7124  157.7098 C   0  0  0  0  0  0  0  0  0  0  0  0
  151.0845  143.7016  158.6822 C   0  0  0  0  0  0  0  0  0  0  0  0
  151.8945  143.4105  159.8000 C   0  0  0  0  0  0  0  0  0  0  0  0
  152.0310  144.3384  160.7766 F   0  0  0  0  0  0  0  0  0  0  0  0
  152.5632  142.1734  159.9202 C   0  0  0  0  0  0  0  0  0  0  0  0
  153.3301  141.9339  161.0101 F   0  0  0  0  0  0  0  0  0  0  0  0
  152.4494  141.1783  158.9272 C   0  0  0  0  0  0  0  0  0  0  0  0
  151.6471  141.4760  157.8269 C   0  0  0  0  0  0  0  0  0  0  0  0
  150.9236  134.5681  155.6182 C   0  0  0  0  0  0  0  0  0  0  0  0
  149.8709  133.4435  155.5951 C   0  0  2  0  0  0  0  0  0  0  0  0
  150.4588  132.1087  155.1261 C   0  0  0  0  0  0  0  0  0  0  0  0
  148.8183  133.8083  154.7071 O   0  0  0  0  0  0  0  0  0  0  0  0
  146.5488  136.2401  154.2753 H   0  0  0  0  0  0  0  0  0  0  0  0
  146.3373  134.5073  154.0413 H   0  0  0  0  0  0  0  0  0  0  0  0
  147.4718  135.3991  153.0304 H   0  0  0  0  0  0  0  0  0  0  0  0
  147.7391  134.9342  156.0473 H   0  0  0  0  0  0  0  0  0  0  0  0
  149.6343  136.3092  154.0743 H   0  0  0  0  0  0  0  0  0  0  0  0
  148.7675  137.0929  155.3757 H   0  0  0  0  0  0  0  0  0  0  0  0
  152.1016  136.7053  156.7397 H   0  0  0  0  0  0  0  0  0  0  0  0
  151.8218  136.9819  155.0444 H   0  0  0  0  0  0  0  0  0  0  0  0
  150.0626  138.6393  155.5196 H   0  0  0  0  0  0  0  0  0  0  0  0
  150.4149  137.6594  158.0889 H   0  0  0  0  0  0  0  0  0  0  0  0
  152.4678  139.1687  157.3595 H   0  0  0  0  0  0  0  0  0  0  0  0
  152.5235  139.4218  155.6323 H   0  0  0  0  0  0  0  0  0  0  0  0
  150.0583  141.1722  154.9416 H   0  0  0  0  0  0  0  0  0  0  0  0
  150.5742  144.6493  158.5951 H   0  0  0  0  0  0  0  0  0  0  0  0
  152.9648  140.2347  159.0279 H   0  0  0  0  0  0  0  0  0  0  0  0
  151.3927  134.6495  154.6363 H   0  0  0  0  0  0  0  0  0  0  0  0
  151.7100  134.2889  156.3179 H   0  0  0  0  0  0  0  0  0  0  0  0
  149.4579  133.3108  156.5968 H   0  0  0  0  0  0  0  0  0  0  0  0
  151.2637  131.7816  155.7846 H   0  0  0  0  0  0  0  0  0  0  0  0
  150.8630  132.1885  154.1166 H   0  0  0  0  0  0  0  0  0  0  0  0
  149.6975  131.3285  155.1194 H   0  0  0  0  0  0  0  0  0  0  0  0
  149.6880  143.4184  156.1311 H   0  0  0  0  0  0  0  0  0  0  0  0
  1  2  1  0  0  0  0
  1 24  1  0  0  0  0
  1 25  1  0  0  0  0
  1 26  1  0  0  0  0
  2 23  1  0  0  0  0
  2  3  1  0  0  0  0
  2 27  1  0  0  0  0
  3  4  1  0  0  0  0
  3 28  1  0  0  0  0
  3 29  1  0  0  0  0
  4  5  1  0  0  0  0
  4 20  1  0  0  0  0
  5  6  1  0  0  0  0
  5 30  1  0  0  0  0
  5 31  1  0  0  0  0
  6  7  1  0  0  0  0
  6  8  1  0  0  0  0
  6 32  1  0  0  0  0
  7 33  1  0  0  0  0
  8  9  1  0  0  0  0
  8 34  1  0  0  0  0
  8 35  1  0  0  0  0
  9 19  1  0  0  0  0
  9 10  1  0  0  0  0
 10 11  2  0  0  0  0
 10 36  1  0  0  0  0
 11 12  1  0  0  0  0
 11 45  1  0  0  0  0
 12 19  2  0  0  0  0
 12 13  1  0  0  0  0
 13 14  2  0  0  0  0
 13 37  1  0  0  0  0
 14 15  1  0  0  0  0
 14 16  1  0  0  0  0
 16 17  1  0  0  0  0
 16 18  2  0  0  0  0
 18 19  1  0  0  0  0
 18 38  1  0  0  0  0
 20 21  1  0  0  0  0
 20 39  1  0  0  0  0
 20 40  1  0  0  0  0
 21 22  1  0  0  0  0
 21 23  1  0  0  0  0
 21 41  1  0  0  0  0
 22 42  1  0  0  0  0
 22 43  1  0  0  0  0
 22 44  1  0  0  0  0
M  CHG  1  11   1
M  END
> <s_m_source_file>
AV-unprocessed.smi

> <i_m_source_file_index>
1824

> <i_lp_mmshare_version>
43012

> <i_f3d_flags>
0

> <s_epik_input>
W0NIM11bQ0BASF0xW0NIMl1OKFtDSDJdW0NASF0oTzEpW0NIM10pW0NIMl1bQ0BIXShbT0hdKVtDSDJdbihbY0hdbjIpYyhjMjMpW2NIXWMoRiljKEYpW2NIXTM=

> <s_epik_cmdline>
J2VwaWtfcHl0aG9uJywgJy1waCcsICc3LjAnLCAnLXRuJywgJzgnLCAnLW1hJywgJzIwMCcsICctbWV0YWxfYmluZGluZycsICctaW1hZScsICc8aW5maWxlLm1hZT4nLCAnLW9tYWUnLCAnPG91dGZpbGUubWFlPic=

> <r_epik_Ionization_Penalty>
2.58709

> <r_epik_Ionization_Penalty_Charging>
2.37273

> <r_epik_Ionization_Penalty_Neutral>
0.214359

> <r_epik_State_Penalty>
2.71799

> <r_epik_Charging_Adjusted_Penalty>
5.09071

> <i_epik_Tot_Q>
1

> <i_epik_Tot_abs_Q>
1

> <r_epik_Metal_State_Penalty>
6.80217

> <b_epik_Metal_Only>
0

> <s_lp_Force_Field>
OPLS_2005

> <r_lp_Energy>
28.8683

> <b_lp_Chiralities_Consistent>
1

> <s_lp_Variant>
AV-unprocessed.smi:1824-18

> <Gold.Version>
5.8.1

> <Gold.Id.Protein>
6NUR|6NUR_protein|mol2

> <Gold.PLP.Fitness>
46.8668

> <Gold.PLP.PLP>
-40.9802

> <Gold.PLP.part.hbond>
-0.9500

> <Gold.PLP.part.metal>
0.0000

> <Gold.PLP.part.buried>
-5.9326

> <Gold.PLP.part.nonpolar>
-34.3733

> <Gold.PLP.part.repulsive>
0.1926

> <Gold.PLP.ligand.clash>
0.0000

> <Gold.PLP.ligand.torsion>
0.0601

> <Gold.PLP.Chemscore.Hbond>
2.0000

> <Gold.PLP.Chemscore.CHOScore>
0.0000

> <Gold.PLP.Chemscore.Metal>
0.0000

> <Gold.Chemscore.Hbonds>
donor molecule, donor type, donor heavy atom, donor atom, acceptor molecule, acceptor atom, score
      L1  H    11    45       P1  8028  2.00

> <Gold.PLP.Chemscore.Internal.Correction>
0.0068

> <Gold.Rescore>
     Score         DG    S(hbond)    S(metal)    S(lipo)     H(rot)  DE(clash)    DE(int)     intcor
     14.30     -14.51       0.99        0.00      99.77       2.32       0.18       0.03       ----

> <Gold.Chemscore.Fitness>
14.2950

> <Gold.Chemscore.DG>
-14.5053

> <Gold.Chemscore.ZeroCoef>
-5.4800

> <Gold.Chemscore.Hbond>
0.9860

> <Gold.Chemscore.Metal>
0.0000

> <Gold.Chemscore.Lipo>
99.7743

> <Gold.Chemscore.Internal_Hbond>
0.0000

> <Gold.Chemscore.DEClash>
0.1806

> <Gold.Chemscore.DEInternal>
0.0296

> <Gold.Chemscore.Rot>
2.3210

> <Gold.Chemscore.Internal.Correction>
   9.000000E+99

> <Gold.Chemscore.Hbonds>
donor molecule, donor type, donor heavy atom, donor atom, acceptor molecule, acceptor atom, score
      L1  H    11    45       P1  8028  0.99

> <Gold.Chemscore.Hbond.Weighted>
-3.2933

> <Gold.Chemscore.Metal.Weighted>
-0.0000

> <Gold.Chemscore.Lipo.Weighted>
-11.6736

> <Gold.Chemscore.Internal_Hbond.Weighted>
0.0000

> <Gold.Chemscore.DEClash.Weighted>
0.1806

> <Gold.Chemscore.DEInternal.Weighted>
0.0296

> <Gold.Chemscore.Rot.Weighted>
5.9416

> <Gold.Chemscore.Internal.Correction.Weighted>
   9.000000E+99

> <Gold.Protein.RotatedTorsions>
[ 6907 6896 6895 6894 ] final  142.46 input  -60.11 | X-H torsion
[ 7974 7965 7964 7962 ] final  134.67 input  175.53 | X-H torsion
[ 8008 7997 7996 7995 ] final -112.51 input   59.86 | X-H torsion
[ 10167 10162 10161 10158 ] final -172.48 input  -65.29 | X-H torsion
[ 10718 10713 10712 10709 ] final  115.17 input   66.30 | X-H torsion
[ 10763 10752 10751 10750 ] final   90.10 input  -60.55 | X-H torsion
[ 11005 11000 10999 10996 ] final  124.23 input  -57.11 | X-H torsion

> <Gold.Protein.ActiveResidues>
 VAL166  LYS551  ARG553  GLY616  TRP617  ASP618  TYR619  PRO620  LYS621  CYS622 
 ASP623  PHE694  ASN695  SER759  ASP760  ASP761  ALA762  ILE779  LEU786  VAL792 
 PHE793  MET794  SER795  GLU796  ALA797  LYS798  CYS799  TRP800  GLU811  SER814 

> <Gold.Protein.RotatedAtoms>
  152.2185  133.4965  159.5148 H   0  0  0  0  0  0  0  0  0  0  0  0  # atno 6907 bound_to 6896
  150.7007  134.1374  159.4101 H   0  0  0  0  0  0  0  0  0  0  0  0  # atno 6908 bound_to 6896
  151.9295  135.0263  160.0579 H   0  0  0  0  0  0  0  0  0  0  0  0  # atno 6909 bound_to 6896
  144.9740  139.4574  143.5419 H   0  0  0  0  0  0  0  0  0  0  0  0  # atno 7974 bound_to 7965
  155.0063  140.0394  157.2381 H   0  0  0  0  0  0  0  0  0  0  0  0  # atno 8008 bound_to 7997
  154.7499  140.2765  155.6278 H   0  0  0  0  0  0  0  0  0  0  0  0  # atno 8009 bound_to 7997
  156.2883  140.2649  156.2250 H   0  0  0  0  0  0  0  0  0  0  0  0  # atno 8010 bound_to 7997
  139.5742  144.1571  152.1427 H   0  0  0  0  0  0  0  0  0  0  0  0  # atno 10167 bound_to 10162
  157.6238  131.1009  150.7291 H   0  0  0  0  0  0  0  0  0  0  0  0  # atno 10718 bound_to 10713
  153.1940  135.4446  155.0184 H   0  0  0  0  0  0  0  0  0  0  0  0  # atno 10763 bound_to 10752
  154.8107  135.3293  154.7314 H   0  0  0  0  0  0  0  0  0  0  0  0  # atno 10764 bound_to 10752
  153.7765  135.6980  153.4951 H   0  0  0  0  0  0  0  0  0  0  0  0  # atno 10765 bound_to 10752
  139.9349  134.9640  156.8379 H   0  0  0  0  0  0  0  0  0  0  0  0  # atno 11005 bound_to 11000
  146.3390  139.8971  142.8800 LP  0  0  0  0  0  0  0  0  0  0  0  0  # atno 17320 bound_to 7965
  145.2517  141.0046  143.3877 LP  0  0  0  0  0  0  0  0  0  0  0  0  # atno 17321 bound_to 7965
  140.1110  144.5457  150.6925 LP  0  0  0  0  0  0  0  0  0  0  0  0  # atno 17342 bound_to 10162
  140.7025  143.2445  151.4821 LP  0  0  0  0  0  0  0  0  0  0  0  0  # atno 17343 bound_to 10162
  156.7643  130.4808  149.5430 LP  0  0  0  0  0  0  0  0  0  0  0  0  # atno 17370 bound_to 10713
  156.1398  130.6236  151.0451 LP  0  0  0  0  0  0  0  0  0  0  0  0  # atno 17371 bound_to 10713
  140.6102  134.0089  155.7573 LP  0  0  0  0  0  0  0  0  0  0  0  0  # atno 17394 bound_to 11000
  141.0958  133.9846  157.3163 LP  0  0  0  0  0  0  0  0  0  0  0  0  # atno 17395 bound_to 11000

$$$$
