AV-unprocessed.smi:2732|AV-procd|sdf|10533|dock3
  -GOLD-   2272014573D 1   1.00000     0.00000
 Structure written by MMmdl.
 34 35  0  0  0  0  0  0  0  0  1 V2000
  154.4798  140.3661  160.4018 C   0  0  0  0  0  0  0  0  0  0  0  0
  153.1417  141.0670  160.1240 C   0  0  1  0  0  0  0  0  0  0  0  0
  153.3786  142.4719  160.1556 O   0  0  0  0  0  0  0  0  0  0  0  0
  152.2496  143.2721  160.4836 C   0  0  0  0  0  0  0  0  0  0  0  0
  152.2702  144.5165  159.6232 C   0  0  0  0  0  0  0  0  0  0  0  0
  150.9838  145.0858  159.0692 C   0  0  0  0  0  0  0  0  0  0  0  0
  151.9760  144.4305  158.1426 C   0  0  0  0  0  0  0  0  0  0  0  0
  152.5670  140.6540  158.7588 C   0  0  0  0  0  0  0  0  0  0  0  0
  153.1721  139.8326  158.0712 O   0  0  0  0  0  0  0  0  0  0  0  0
  151.4196  141.2631  158.4044 N   0  0  0  0  0  0  0  0  0  0  0  0
  150.6423  141.1258  157.2202 C   0  0  0  0  0  0  0  0  0  0  0  0
  149.2749  141.4754  157.0972 C   0  0  0  0  0  0  0  0  0  0  0  0
  148.6321  141.2861  155.8583 C   0  0  0  0  0  0  0  0  0  0  0  0
  149.3760  140.7572  154.7854 C   0  0  0  0  0  0  0  0  0  0  0  0
  148.7716  140.5561  153.5471 N   0  0  0  0  0  0  0  0  0  0  0  0
  150.6790  140.4242  154.8871 N   0  0  0  0  0  0  0  0  0  0  0  0
  151.2890  140.6082  156.0775 C   0  0  0  0  0  0  0  0  0  0  0  0
  154.3716  139.2812  160.3762 H   0  0  0  0  0  0  0  0  0  0  0  0
  154.8586  140.6355  161.3879 H   0  0  0  0  0  0  0  0  0  0  0  0
  155.2399  140.6456  159.6709 H   0  0  0  0  0  0  0  0  0  0  0  0
  152.4435  140.8003  160.9201 H   0  0  0  0  0  0  0  0  0  0  0  0
  151.3138  142.7360  160.3207 H   0  0  0  0  0  0  0  0  0  0  0  0
  152.2884  143.5672  161.5329 H   0  0  0  0  0  0  0  0  0  0  0  0
  153.0201  145.2462  159.9232 H   0  0  0  0  0  0  0  0  0  0  0  0
  150.0597  144.5489  159.2748 H   0  0  0  0  0  0  0  0  0  0  0  0
  150.8931  146.1691  159.0225 H   0  0  0  0  0  0  0  0  0  0  0  0
  152.5492  145.0757  157.4796 H   0  0  0  0  0  0  0  0  0  0  0  0
  151.7151  143.4562  157.7339 H   0  0  0  0  0  0  0  0  0  0  0  0
  151.0632  141.9326  159.0711 H   0  0  0  0  0  0  0  0  0  0  0  0
  148.7015  141.8855  157.9124 H   0  0  0  0  0  0  0  0  0  0  0  0
  147.5898  141.5437  155.7393 H   0  0  0  0  0  0  0  0  0  0  0  0
  147.8000  140.7809  153.3898 H   0  0  0  0  0  0  0  0  0  0  0  0
  149.2901  140.1854  152.7637 H   0  0  0  0  0  0  0  0  0  0  0  0
  152.3321  140.3300  156.1177 H   0  0  0  0  0  0  0  0  0  0  0  0
  1  2  1  0  0  0  0
  1 18  1  0  0  0  0
  1 19  1  0  0  0  0
  1 20  1  0  0  0  0
  2  3  1  0  0  0  0
  2  8  1  0  0  0  0
  2 21  1  0  0  0  0
  3  4  1  0  0  0  0
  4  5  1  0  0  0  0
  4 22  1  0  0  0  0
  4 23  1  0  0  0  0
  5  7  1  0  0  0  0
  5  6  1  0  0  0  0
  5 24  1  0  0  0  0
  6  7  1  0  0  0  0
  6 25  1  0  0  0  0
  6 26  1  0  0  0  0
  7 27  1  0  0  0  0
  7 28  1  0  0  0  0
  8  9  2  0  0  0  0
  8 10  1  0  0  0  0
 10 11  1  0  0  0  0
 10 29  1  0  0  0  0
 11 17  1  0  0  0  0
 11 12  2  0  0  0  0
 12 13  1  0  0  0  0
 12 30  1  0  0  0  0
 13 14  2  0  0  0  0
 13 31  1  0  0  0  0
 14 15  1  0  0  0  0
 14 16  1  0  0  0  0
 15 32  1  0  0  0  0
 15 33  1  0  0  0  0
 16 17  2  0  0  0  0
 17 34  1  0  0  0  0
M  END
> <s_m_source_file>
AV-unprocessed.smi

> <i_m_source_file_index>
2732

> <i_lp_mmshare_version>
43012

> <i_f3d_flags>
0

> <s_epik_input>
W0NIMl0xW0NIMl1bQ0hdMVtDSDJdT1tDQEBIXShbQ0gzXSlDKD1PKVtOSF1jMltjSF1bY0hdYyhbTkgyXSluW2NIXTI=

> <s_epik_cmdline>
J2VwaWtfcHl0aG9uJywgJy1waCcsICc3LjAnLCAnLXRuJywgJzgnLCAnLW1hJywgJzIwMCcsICctbWV0YWxfYmluZGluZycsICctaW1hZScsICc8aW5maWxlLm1hZT4nLCAnLW9tYWUnLCAnPG91dGZpbGUubWFlPic=

> <r_lp_tautomer_probability>
1

> <r_epik_Ionization_Penalty>
0.0764773

> <r_epik_Ionization_Penalty_Charging>
0

> <r_epik_Ionization_Penalty_Neutral>
0.0764773

> <r_epik_State_Penalty>
0.0673619

> <r_epik_Charging_Adjusted_Penalty>
0.0673619

> <i_epik_Tot_Q>
0

> <i_epik_Tot_abs_Q>
0

> <r_epik_Metal_State_Penalty>
0.0594329

> <b_epik_Metal_Only>
0

> <s_lp_Force_Field>
OPLS_2005

> <r_lp_Energy>
18.9716

> <b_lp_Chiralities_Consistent>
1

> <s_lp_Variant>
AV-unprocessed.smi:2732-2

> <Gold.Version>
5.8.1

> <Gold.Id.Protein>
6NUR|6NUR_protein|mol2

> <Gold.PLP.Fitness>
48.2639

> <Gold.PLP.PLP>
-40.5592

> <Gold.PLP.part.hbond>
-2.8484

> <Gold.PLP.part.metal>
0.0000

> <Gold.PLP.part.buried>
-6.2009

> <Gold.PLP.part.nonpolar>
-32.0280

> <Gold.PLP.part.repulsive>
0.3544

> <Gold.PLP.ligand.clash>
0.0000

> <Gold.PLP.ligand.torsion>
0.9440

> <Gold.PLP.Chemscore.Hbond>
3.0000

> <Gold.PLP.Chemscore.CHOScore>
0.0000

> <Gold.PLP.Chemscore.Metal>
0.0000

> <Gold.Chemscore.Hbonds>
donor molecule, donor type, donor heavy atom, donor atom, acceptor molecule, acceptor atom, score
      L1  H    15    33       P1  7957  1.00
      P1  H  7989  7998       L1    16  1.00
      P1  H  7997  8009       L1     9  1.00

> <Gold.PLP.Chemscore.Internal.Correction>
0.5926

> <Gold.Rescore>
     Score         DG    S(hbond)    S(metal)    S(lipo)     H(rot)  DE(clash)    DE(int)     intcor
     18.17     -20.69       2.79        0.00      88.13       1.72       0.07       2.44       ----

> <Gold.Chemscore.Fitness>
18.1749

> <Gold.Chemscore.DG>
-20.6909

> <Gold.Chemscore.ZeroCoef>
-5.4800

> <Gold.Chemscore.Hbond>
2.7882

> <Gold.Chemscore.Metal>
0.0000

> <Gold.Chemscore.Lipo>
88.1282

> <Gold.Chemscore.Internal_Hbond>
0.0000

> <Gold.Chemscore.DEClash>
0.0738

> <Gold.Chemscore.DEInternal>
2.4422

> <Gold.Chemscore.Rot>
1.7237

> <Gold.Chemscore.Internal.Correction>
   9.000000E+99

> <Gold.Chemscore.Hbonds>
donor molecule, donor type, donor heavy atom, donor atom, acceptor molecule, acceptor atom, score
      L1  H    15    33       P1  7957  0.97
      P1  H  7989  7998       L1    16  0.78
      P1  H  7997  8009       L1     9  0.99

> <Gold.Chemscore.Hbond.Weighted>
-9.3126

> <Gold.Chemscore.Metal.Weighted>
-0.0000

> <Gold.Chemscore.Lipo.Weighted>
-10.3110

> <Gold.Chemscore.Internal_Hbond.Weighted>
0.0000

> <Gold.Chemscore.DEClash.Weighted>
0.0738

> <Gold.Chemscore.DEInternal.Weighted>
2.4422

> <Gold.Chemscore.Rot.Weighted>
4.4127

> <Gold.Chemscore.Internal.Correction.Weighted>
   9.000000E+99

> <Gold.Protein.RotatedTorsions>
[ 6907 6896 6895 6894 ] final  -27.92 input  -60.11 | X-H torsion
[ 7974 7965 7964 7962 ] final   65.45 input  175.53 | X-H torsion
[ 8008 7997 7996 7995 ] final  167.04 input   59.86 | X-H torsion
[ 10167 10162 10161 10158 ] final   70.28 input  -65.29 | X-H torsion
[ 10718 10713 10712 10709 ] final  167.85 input   66.30 | X-H torsion
[ 10763 10752 10751 10750 ] final  170.52 input  -60.55 | X-H torsion
[ 11005 11000 10999 10996 ] final -124.46 input  -57.11 | X-H torsion

> <Gold.Protein.ActiveResidues>
 VAL166  LYS551  ARG553  GLY616  TRP617  ASP618  TYR619  PRO620  LYS621  CYS622 
 ASP623  PHE694  ASN695  SER759  ASP760  ASP761  ALA762  ILE779  LEU786  VAL792 
 PHE793  MET794  SER795  GLU796  ALA797  LYS798  CYS799  TRP800  GLU811  SER814 

> <Gold.Protein.RotatedAtoms>
  151.1402  135.0175  159.8621 H   0  0  0  0  0  0  0  0  0  0  0  0  # atno 6907 bound_to 6896
  152.5452  134.1508  159.8528 H   0  0  0  0  0  0  0  0  0  0  0  0  # atno 6908 bound_to 6896
  151.1583  133.4816  159.2627 H   0  0  0  0  0  0  0  0  0  0  0  0  # atno 6909 bound_to 6896
  145.8383  139.3180  143.0946 H   0  0  0  0  0  0  0  0  0  0  0  0  # atno 7974 bound_to 7965
  156.1668  140.1627  156.8518 H   0  0  0  0  0  0  0  0  0  0  0  0  # atno 8008 bound_to 7997
  154.5215  140.0777  156.8216 H   0  0  0  0  0  0  0  0  0  0  0  0  # atno 8009 bound_to 7997
  155.3595  140.3394  155.4243 H   0  0  0  0  0  0  0  0  0  0  0  0  # atno 8010 bound_to 7997
  140.0587  144.5251  150.7310 H   0  0  0  0  0  0  0  0  0  0  0  0  # atno 10167 bound_to 10162
  157.0456  131.0299  151.2698 H   0  0  0  0  0  0  0  0  0  0  0  0  # atno 10718 bound_to 10713
  154.3988  135.2755  155.2110 H   0  0  0  0  0  0  0  0  0  0  0  0  # atno 10763 bound_to 10752
  154.4144  135.6015  153.5976 H   0  0  0  0  0  0  0  0  0  0  0  0  # atno 10764 bound_to 10752
  152.9831  135.5957  154.4252 H   0  0  0  0  0  0  0  0  0  0  0  0  # atno 10765 bound_to 10752
  140.9840  134.0634  157.3733 H   0  0  0  0  0  0  0  0  0  0  0  0  # atno 11005 bound_to 11000
  145.9494  140.8920  143.0267 LP  0  0  0  0  0  0  0  0  0  0  0  0  # atno 17320 bound_to 7965
  144.6735  140.1659  143.7418 LP  0  0  0  0  0  0  0  0  0  0  0  0  # atno 17321 bound_to 7965
  140.7182  143.2564  151.4364 LP  0  0  0  0  0  0  0  0  0  0  0  0  # atno 17342 bound_to 10162
  139.5907  144.1505  152.2085 LP  0  0  0  0  0  0  0  0  0  0  0  0  # atno 17343 bound_to 10162
  157.5070  130.7915  149.7665 LP  0  0  0  0  0  0  0  0  0  0  0  0  # atno 17370 bound_to 10713
  156.0024  130.3873  150.2556 LP  0  0  0  0  0  0  0  0  0  0  0  0  # atno 17371 bound_to 10713
  139.8962  135.0145  156.7040 LP  0  0  0  0  0  0  0  0  0  0  0  0  # atno 17394 bound_to 11000
  140.7144  133.9195  155.8105 LP  0  0  0  0  0  0  0  0  0  0  0  0  # atno 17395 bound_to 11000

$$$$
