AV-unprocessed.smi:1005|AV-procd|sdf|4375|dock5
  -GOLD-   22720 2293D 1   1.00000     0.00000
 Structure written by MMmdl.
 57 59  0  0  0  0  0  0  0  0  3 V2000
  152.2268  144.1974  160.7519 C   0  0  0  0  0  0  0  0  0  0  0  0
  152.0381  143.2078  159.6147 C   0  0  0  0  0  0  0  0  0  0  0  0
  151.1371  143.5367  158.5765 C   0  0  0  0  0  0  0  0  0  0  0  0
  150.9859  142.6115  157.5505 C   0  0  0  0  0  0  0  0  0  0  0  0
  150.1882  142.6357  156.4042 N   0  3  0  0  0  0  0  0  0  0  0  0
  150.3795  141.4900  155.6928 C   0  0  0  0  0  0  0  0  0  0  0  0
  151.2873  140.7351  156.3690 N   0  0  0  0  0  0  0  0  0  0  0  0
  151.8474  139.4155  156.0482 C   0  0  0  0  0  0  0  0  0  0  0  0
  150.7635  138.3567  155.7665 C   0  0  1  0  0  0  0  0  0  0  0  0
  150.1013  138.6833  154.5609 O   0  0  0  0  0  0  0  0  0  0  0  0
  151.3666  136.9441  155.6271 C   0  0  0  0  0  0  0  0  0  0  0  0
  150.4496  135.8424  155.9254 N   0  0  0  0  0  0  0  0  0  0  0  0
  149.9169  135.9603  157.2782 C   0  0  0  0  0  0  0  0  0  0  0  0
  148.9408  134.8205  157.6127 C   0  0  0  0  0  0  0  0  0  0  0  0
  147.8961  134.7920  156.6452 O   0  0  0  0  0  0  0  0  0  0  0  0
  148.3688  134.6096  155.3125 C   0  0  1  0  0  0  0  0  0  0  0  0
  147.1409  134.5581  154.3778 C   0  0  0  0  0  0  0  0  0  0  0  0
  147.4775  134.2552  152.9619 N   0  3  0  0  0  0  0  0  0  0  0  0
  146.2987  134.1573  152.0711 C   0  0  0  0  0  0  0  0  0  0  0  0
  148.3434  133.0605  152.8470 C   0  0  0  0  0  0  0  0  0  0  0  0
  149.3282  135.7769  154.9888 C   0  0  0  0  0  0  0  0  0  0  0  0
  151.6957  141.3957  157.5321 C   0  0  0  0  0  0  0  0  0  0  0  0
  152.5899  141.0568  158.5446 C   0  0  0  0  0  0  0  0  0  0  0  0
  152.7532  141.9820  159.6001 C   0  0  0  0  0  0  0  0  0  0  0  0
  153.7143  141.6349  160.7245 C   0  0  0  0  0  0  0  0  0  0  0  0
  151.6253  145.0948  160.6043 H   0  0  0  0  0  0  0  0  0  0  0  0
  153.2704  144.5054  160.8228 H   0  0  0  0  0  0  0  0  0  0  0  0
  151.9314  143.7505  161.7017 H   0  0  0  0  0  0  0  0  0  0  0  0
  150.5888  144.4675  158.5814 H   0  0  0  0  0  0  0  0  0  0  0  0
  149.8962  141.2270  154.7625 H   0  0  0  0  0  0  0  0  0  0  0  0
  152.4980  139.5351  155.1806 H   0  0  0  0  0  0  0  0  0  0  0  0
  152.4869  139.1080  156.8766 H   0  0  0  0  0  0  0  0  0  0  0  0
  150.0296  138.3899  156.5689 H   0  0  0  0  0  0  0  0  0  0  0  0
  150.7522  138.8137  153.8879 H   0  0  0  0  0  0  0  0  0  0  0  0
  151.7540  136.8377  154.6123 H   0  0  0  0  0  0  0  0  0  0  0  0
  152.2375  136.8583  156.2789 H   0  0  0  0  0  0  0  0  0  0  0  0
  150.7343  135.9559  158.0004 H   0  0  0  0  0  0  0  0  0  0  0  0
  149.4051  136.9174  157.3926 H   0  0  0  0  0  0  0  0  0  0  0  0
  149.4579  133.8599  157.6310 H   0  0  0  0  0  0  0  0  0  0  0  0
  148.5073  134.9701  158.6015 H   0  0  0  0  0  0  0  0  0  0  0  0
  148.9010  133.6573  155.2725 H   0  0  0  0  0  0  0  0  0  0  0  0
  146.4884  133.7561  154.7267 H   0  0  0  0  0  0  0  0  0  0  0  0
  146.5511  135.4735  154.4473 H   0  0  0  0  0  0  0  0  0  0  0  0
  145.5877  133.4160  152.4386 H   0  0  0  0  0  0  0  0  0  0  0  0
  146.5990  133.8687  151.0631 H   0  0  0  0  0  0  0  0  0  0  0  0
  145.7913  135.1175  151.9857 H   0  0  0  0  0  0  0  0  0  0  0  0
  147.8233  132.1667  153.1943 H   0  0  0  0  0  0  0  0  0  0  0  0
  149.2522  133.1793  153.4379 H   0  0  0  0  0  0  0  0  0  0  0  0
  148.6456  132.9000  151.8117 H   0  0  0  0  0  0  0  0  0  0  0  0
  148.7736  136.7164  155.0166 H   0  0  0  0  0  0  0  0  0  0  0  0
  149.6915  135.6717  153.9701 H   0  0  0  0  0  0  0  0  0  0  0  0
  153.1363  140.1256  158.5294 H   0  0  0  0  0  0  0  0  0  0  0  0
  154.1683  140.6550  160.5746 H   0  0  0  0  0  0  0  0  0  0  0  0
  153.1929  141.6169  161.6818 H   0  0  0  0  0  0  0  0  0  0  0  0
  154.5181  142.3693  160.7806 H   0  0  0  0  0  0  0  0  0  0  0  0
  148.0298  135.0311  152.6245 H   0  0  0  0  0  0  0  0  0  0  0  0
  149.5588  143.3774  156.1250 H   0  0  0  0  0  0  0  0  0  0  0  0
  1  2  1  0  0  0  0
  1 26  1  0  0  0  0
  1 27  1  0  0  0  0
  1 28  1  0  0  0  0
  2 24  1  0  0  0  0
  2  3  2  0  0  0  0
  3  4  1  0  0  0  0
  3 29  1  0  0  0  0
  4 22  2  0  0  0  0
  4  5  1  0  0  0  0
  5  6  2  0  0  0  0
  5 57  1  0  0  0  0
  6  7  1  0  0  0  0
  6 30  1  0  0  0  0
  7  8  1  0  0  0  0
  7 22  1  0  0  0  0
  8  9  1  0  0  0  0
  8 31  1  0  0  0  0
  8 32  1  0  0  0  0
  9 10  1  0  0  0  0
  9 11  1  0  0  0  0
  9 33  1  0  0  0  0
 10 34  1  0  0  0  0
 11 12  1  0  0  0  0
 11 35  1  0  0  0  0
 11 36  1  0  0  0  0
 12 21  1  0  0  0  0
 12 13  1  0  0  0  0
 13 14  1  0  0  0  0
 13 37  1  0  0  0  0
 13 38  1  0  0  0  0
 14 15  1  0  0  0  0
 14 39  1  0  0  0  0
 14 40  1  0  0  0  0
 15 16  1  0  0  0  0
 16 17  1  0  0  0  0
 16 21  1  0  0  0  0
 16 41  1  0  0  0  0
 17 18  1  0  0  0  0
 17 42  1  0  0  0  0
 17 43  1  0  0  0  0
 18 19  1  0  0  0  0
 18 20  1  0  0  0  0
 18 56  1  0  0  0  0
 19 44  1  0  0  0  0
 19 45  1  0  0  0  0
 19 46  1  0  0  0  0
 20 47  1  0  0  0  0
 20 48  1  0  0  0  0
 20 49  1  0  0  0  0
 21 50  1  0  0  0  0
 21 51  1  0  0  0  0
 22 23  1  0  0  0  0
 23 24  2  0  0  0  0
 23 52  1  0  0  0  0
 24 25  1  0  0  0  0
 25 53  1  0  0  0  0
 25 54  1  0  0  0  0
 25 55  1  0  0  0  0
M  CHG  1   5   1
M  CHG  1  18   1
M  END
> <s_m_source_file>
AV-unprocessed.smi

> <i_m_source_file_index>
1005

> <i_lp_mmshare_version>
43012

> <i_f3d_flags>
0

> <s_epik_input>
W0NIM11jKFtjSF0xKWMoW0NIM10pW2NIXWMoYzEyKW4oW2NIXW4yKVtDSDJdW0NASF0oW09IXSlbQ0gyXU4zW0NIMl1bQ0gyXU9bQ0BIXShbQ0gyXTMpW0NIMl1OKFtDSDNdKVtDSDNd

> <s_epik_cmdline>
J2VwaWtfcHl0aG9uJywgJy1waCcsICc3LjAnLCAnLXRuJywgJzgnLCAnLW1hJywgJzIwMCcsICctbWV0YWxfYmluZGluZycsICctaW1hZScsICc8aW5maWxlLm1hZT4nLCAnLW9tYWUnLCAnPG91dGZpbGUubWFlPic=

> <r_epik_Ionization_Penalty>
1.3281

> <r_epik_Ionization_Penalty_Charging>
1.21988

> <r_epik_Ionization_Penalty_Neutral>
0.10822

> <r_epik_State_Penalty>
1.32886

> <r_epik_Charging_Adjusted_Penalty>
2.54875

> <i_epik_Tot_Q>
2

> <i_epik_Tot_abs_Q>
2

> <r_epik_Metal_State_Penalty>
5.33912

> <b_epik_Metal_Only>
0

> <s_lp_Force_Field>
OPLS_2005

> <r_lp_Energy>
45.907

> <b_lp_Chiralities_Consistent>
1

> <s_lp_Variant>
AV-unprocessed.smi:1005-14

> <Gold.Version>
5.8.1

> <Gold.Id.Protein>
6NUR|6NUR_protein|mol2

> <Gold.PLP.Fitness>
55.1946

> <Gold.PLP.PLP>
-43.8213

> <Gold.PLP.part.hbond>
-1.9869

> <Gold.PLP.part.metal>
0.0000

> <Gold.PLP.part.buried>
-5.4507

> <Gold.PLP.part.nonpolar>
-35.9183

> <Gold.PLP.part.repulsive>
0.1537

> <Gold.PLP.ligand.clash>
0.0000

> <Gold.PLP.ligand.torsion>
0.4065

> <Gold.PLP.Chemscore.Hbond>
4.0000

> <Gold.PLP.Chemscore.CHOScore>
0.0000

> <Gold.PLP.Chemscore.Metal>
0.0000

> <Gold.Chemscore.Hbonds>
donor molecule, donor type, donor heavy atom, donor atom, acceptor molecule, acceptor atom, score
      L1  H     5    57       P1  8028  2.00
      L1  H    18    56       P1  7948  2.00

> <Gold.PLP.Chemscore.Internal.Correction>
0.1862

> <Gold.Rescore>
     Score         DG    S(hbond)    S(metal)    S(lipo)     H(rot)  DE(clash)    DE(int)     intcor
     18.70     -19.32       1.95        0.00     117.13       2.49       0.11       0.51       ----

> <Gold.Chemscore.Fitness>
18.6989

> <Gold.Chemscore.DG>
-19.3153

> <Gold.Chemscore.ZeroCoef>
-5.4800

> <Gold.Chemscore.Hbond>
1.9476

> <Gold.Chemscore.Metal>
0.0000

> <Gold.Chemscore.Lipo>
117.1293

> <Gold.Chemscore.Internal_Hbond>
0.0000

> <Gold.Chemscore.DEClash>
0.1094

> <Gold.Chemscore.DEInternal>
0.5070

> <Gold.Chemscore.Rot>
2.4897

> <Gold.Chemscore.Internal.Correction>
   9.000000E+99

> <Gold.Chemscore.Hbonds>
donor molecule, donor type, donor heavy atom, donor atom, acceptor molecule, acceptor atom, score
      L1  H     5    57       P1  8028  0.97
      L1  H    18    56       P1  7948  0.90

> <Gold.Chemscore.Hbond.Weighted>
-6.5048

> <Gold.Chemscore.Metal.Weighted>
-0.0000

> <Gold.Chemscore.Lipo.Weighted>
-13.7041

> <Gold.Chemscore.Internal_Hbond.Weighted>
0.0000

> <Gold.Chemscore.DEClash.Weighted>
0.1094

> <Gold.Chemscore.DEInternal.Weighted>
0.5070

> <Gold.Chemscore.Rot.Weighted>
6.3737

> <Gold.Chemscore.Internal.Correction.Weighted>
   9.000000E+99

> <Gold.Protein.RotatedTorsions>
[ 6907 6896 6895 6894 ] final -114.51 input  -60.11 | X-H torsion
[ 7974 7965 7964 7962 ] final  109.65 input  175.53 | X-H torsion
[ 8008 7997 7996 7995 ] final  135.90 input   59.86 | X-H torsion
[ 10167 10162 10161 10158 ] final   -5.50 input  -65.29 | X-H torsion
[ 10718 10713 10712 10709 ] final  -36.72 input   66.30 | X-H torsion
[ 10763 10752 10751 10750 ] final  -18.73 input  -60.55 | X-H torsion
[ 11005 11000 10999 10996 ] final   81.50 input  -57.11 | X-H torsion

> <Gold.Protein.ActiveResidues>
 VAL166  LYS551  ARG553  GLY616  TRP617  ASP618  TYR619  PRO620  LYS621  CYS622 
 ASP623  PHE694  ASN695  SER759  ASP760  ASP761  ALA762  ILE779  LEU786  VAL792 
 PHE793  MET794  SER795  GLU796  ALA797  LYS798  CYS799  TRP800  GLU811  SER814 

> <Gold.Protein.RotatedAtoms>
  150.7908  133.8791  159.3280 H   0  0  0  0  0  0  0  0  0  0  0  0  # atno 6907 bound_to 6896
  151.6629  135.0985  160.0192 H   0  0  0  0  0  0  0  0  0  0  0  0  # atno 6908 bound_to 6896
  152.3981  133.6738  159.6328 H   0  0  0  0  0  0  0  0  0  0  0  0  # atno 6909 bound_to 6896
  145.2650  139.2688  143.3996 H   0  0  0  0  0  0  0  0  0  0  0  0  # atno 7974 bound_to 7965
  156.3004  140.2459  156.3657 H   0  0  0  0  0  0  0  0  0  0  0  0  # atno 8008 bound_to 7997
  154.8835  140.0411  157.1816 H   0  0  0  0  0  0  0  0  0  0  0  0  # atno 8009 bound_to 7997
  154.8671  140.2929  155.5508 H   0  0  0  0  0  0  0  0  0  0  0  0  # atno 8010 bound_to 7997
  140.6965  143.6302  150.8530 H   0  0  0  0  0  0  0  0  0  0  0  0  # atno 10167 bound_to 10162
  156.3235  130.4269  149.7938 H   0  0  0  0  0  0  0  0  0  0  0  0  # atno 10718 bound_to 10713
  153.5938  135.7001  153.5412 H   0  0  0  0  0  0  0  0  0  0  0  0  # atno 10763 bound_to 10752
  153.3155  135.4089  155.1372 H   0  0  0  0  0  0  0  0  0  0  0  0  # atno 10764 bound_to 10752
  154.8595  135.3682  154.5471 H   0  0  0  0  0  0  0  0  0  0  0  0  # atno 10765 bound_to 10752
  139.9096  134.8001  156.2050 H   0  0  0  0  0  0  0  0  0  0  0  0  # atno 11005 bound_to 11000
  146.3264  140.3078  142.8625 LP  0  0  0  0  0  0  0  0  0  0  0  0  # atno 17320 bound_to 7965
  144.9385  140.8052  143.5645 LP  0  0  0  0  0  0  0  0  0  0  0  0  # atno 17321 bound_to 7965
  140.0020  143.5734  152.2872 LP  0  0  0  0  0  0  0  0  0  0  0  0  # atno 17342 bound_to 10162
  139.6427  144.7656  151.2307 LP  0  0  0  0  0  0  0  0  0  0  0  0  # atno 17343 bound_to 10162
  156.5237  130.8226  151.3212 LP  0  0  0  0  0  0  0  0  0  0  0  0  # atno 17370 bound_to 10713
  157.7416  130.9874  150.2461 LP  0  0  0  0  0  0  0  0  0  0  0  0  # atno 17371 bound_to 10713
  141.0501  133.6893  156.1756 LP  0  0  0  0  0  0  0  0  0  0  0  0  # atno 17394 bound_to 11000
  140.6823  134.4753  157.5589 LP  0  0  0  0  0  0  0  0  0  0  0  0  # atno 17395 bound_to 11000

$$$$
