#       Name:                AV-unprocessed.smi:1374
#       Creating user name   scv26
#       Creation time:       Fri Mar 27 05:18:47 2020


#       File generated by GOLD software.
#

@<TRIPOS>MOLECULE
AV-unprocessed.smi:1374
    53    54     1
SMALL
NO_CHARGES


@<TRIPOS>ATOM
      1 ****        -4.7578   1.2650  -1.7499 C.3            1 S1                 0.0000
      2 ****        -4.1147  -0.1241  -1.6774 C.3            1 S1                 0.0000
      3 ****        -2.6039  -0.0603  -1.4175 C.3            1 S1                 0.0000
      4 ****        -1.9632  -1.4563  -1.3416 C.3            1 S1                 0.0000
      5 ****        -0.5411  -1.3991  -1.0685 N.am           1 S1                 0.0000
      6 ****        -0.0013  -1.3920   0.2212 C.2            1 S1                 0.0000
      7 ****        -0.8813  -1.4214   1.2933 N.pl3          1 S1                 0.0000
      8 ****         1.3461  -1.3038   0.4358 C.2            1 S1                 0.0000
      9 ****         1.8900  -1.3098   1.7383 N.am           1 S1                 0.0000
     10 ****         1.7864  -2.5717   2.4805 C.3            1 S1                 0.0000
     11 ****         2.5417  -0.2572   2.3146 C.2            1 S1                 0.0000
     12 ****         3.1949  -0.4095   3.3494 O.2            1 S1                 0.0000
     13 ****         2.3934   1.0546   1.6750 C.2            1 S1                 0.0000
     14 ****         3.3910   1.9588   1.8078 C.2            1 S1                 0.0000
     15 ****         3.3402   3.2343   1.3032 O.3            1 S1                 0.0000
     16 ****         2.0588   3.6408   0.8374 C.3            1 S1                 0.0000
     17 ****         1.3671   2.4873   0.0980 C.3            1 S1                 0.0000
     18 ****         1.2580   1.3601   0.9576 O.3            1 S1                 0.0000
     19 ****         2.2796  -1.2553  -0.7001 C.2            1 S1                 0.0000
     20 ****         3.5071  -1.2240  -0.6219 O.2            1 S1                 0.0000
     21 ****         1.6765  -1.2388  -1.9546 N.am           1 S1                 0.0000
     22 ****         0.3085  -1.2884  -2.1952 C.2            1 S1                 0.0000
     23 ****        -0.1023  -1.2358  -3.3550 O.2            1 S1                 0.0000
     24 ****         2.2844  -1.1816  -2.7585 H              1 S1                 0.0000
     25 ****        -5.8292   1.1879  -1.9358 H              1 S1                 0.0000
     26 ****        -4.3227   1.8590  -2.5540 H              1 S1                 0.0000
     27 ****        -4.6208   1.8117  -0.8166 H              1 S1                 0.0000
     28 ****        -4.5977  -0.7023  -0.8888 H              1 S1                 0.0000
     29 ****        -4.3028  -0.6564  -2.6104 H              1 S1                 0.0000
     30 ****        -2.1258   0.5209  -2.2071 H              1 S1                 0.0000
     31 ****        -2.4190   0.4760  -0.4856 H              1 S1                 0.0000
     32 ****        -2.4136  -2.0620  -0.5557 H              1 S1                 0.0000
     33 ****        -2.1123  -2.0290  -2.2588 H              1 S1                 0.0000
     34 ****        -1.8819  -1.4472   1.1579 H              1 S1                 0.0000
     35 ****        -0.5566  -1.4987   2.2464 H              1 S1                 0.0000
     36 ****         1.2533  -2.4247   3.4209 H              1 S1                 0.0000
     37 ****         2.7762  -2.9720   2.7051 H              1 S1                 0.0000
     38 ****         1.2520  -3.3364   1.9149 H              1 S1                 0.0000
     39 ****         4.3100   1.7838   2.3489 H              1 S1                 0.0000
     40 ****         1.4551   3.9639   1.6865 H              1 S1                 0.0000
     41 ****         2.1749   4.5016   0.1790 H              1 S1                 0.0000
     42 ****         0.3705   2.7822  -0.2308 H              1 S1                 0.0000
     43 ****         1.9308   2.2077  -0.7932 H              1 S1                 0.0000
     44 ****         3.2520  -1.3119   3.7765 LP             1 S1                 0.0000
     45 ****         3.6676   0.3695   3.7615 LP             1 S1                 0.0000
     46 ****         3.9820   3.2922   0.5385 LP             1 S1                 0.0000
     47 ****         3.6238   3.8659   2.0248 LP             1 S1                 0.0000
     48 ****         0.5200   1.5383   1.6085 LP             1 S1                 0.0000
     49 ****         1.0237   0.5658   0.3972 LP             1 S1                 0.0000
     50 ****         3.9514  -1.2306   0.2740 LP             1 S1                 0.0000
     51 ****         4.0605  -1.1919  -1.4542 LP             1 S1                 0.0000
     52 ****        -1.0844  -1.2712  -3.5396 LP             1 S1                 0.0000
     53 ****         0.5463  -1.1577  -4.1121 LP             1 S1                 0.0000
@<TRIPOS>BOND
    1    1    2 1     
    2    1   25 1     
    3    1   26 1     
    4    1   27 1     
    5    2    3 1     
    6    2   28 1     
    7    2   29 1     
    8    3    4 1     
    9    3   30 1     
   10    3   31 1     
   11    4    5 1     
   12    4   32 1     
   13    4   33 1     
   14    5   22 1     
   15    5    6 1     
   16    6    7 1     
   17    6    8 2     
   18    7   34 1     
   19    7   35 1     
   20    8    9 1     
   21    8   19 1     
   22    9   10 1     
   23    9   11 am    
   24   10   36 1     
   25   10   37 1     
   26   10   38 1     
   27   11   12 2     
   28   11   13 1     
   29   13   18 1     
   30   13   14 2     
   31   14   15 1     
   32   14   39 1     
   33   15   16 1     
   34   16   17 1     
   35   16   40 1     
   36   16   41 1     
   37   17   18 1     
   38   17   42 1     
   39   17   43 1     
   40   19   20 2     
   41   19   21 1     
   42   21   24 1     
   43   21   22 1     
   44   22   23 2     
   45   12   44 1     
   46   12   45 1     
   47   15   46 1     
   48   15   47 1     
   49   18   48 1     
   50   18   49 1     
   51   20   50 1     
   52   20   51 1     
   53   23   52 1     
   54   23   53 1     
@<TRIPOS>SUBSTRUCTURE
      1 S1             1
@<TRIPOS>SET
LONE_PAIRS      STATIC     ATOMS    <user>   **** ""
10 44 45 46 47 48 49 50 51 52 53
DONOR_HYDROGENS      STATIC     ATOMS    <user>   **** ""
3 34 35 24
ATOM$BLUE        STATIC     ATOMS    COLORGROUP SYSTEM
10 44 45 46 47 48 49 50 51 52 53
ATOM$RED        STATIC     ATOMS    COLORGROUP SYSTEM
3 34 35 24
