#       Name:                AV-unprocessed.smi:2359
#       Creating user name   scv26
#       Creation time:       Fri Mar 27 13:04:26 2020


#       File generated by GOLD software.
#

@<TRIPOS>MOLECULE
AV-unprocessed.smi:2359
    45    46     1
SMALL
NO_CHARGES


@<TRIPOS>ATOM
      1 ****        -6.8293   3.6514   0.7753 C.3            1 S1                 0.0000
      2 ****        -5.6569   2.6935   0.8025 C.ar           1 S1                 0.0000
      3 ****        -5.8526   1.3026   0.8972 C.ar           1 S1                 0.0000
      4 ****        -4.7253   0.4592   0.9210 C.ar           1 S1                 0.0000
      5 ****        -3.4318   1.0237   0.8506 C.ar           1 S1                 0.0000
      6 ****        -2.3654   0.0865   0.8898 N.am           1 S1                 0.0000
      7 ****        -1.0432   0.3271   0.8449 C.2            1 S1                 0.0000
      8 ****        -0.5237   1.4379   0.7313 O.2            1 S1                 0.0000
      9 ****        -0.3408  -0.8114   0.9379 N.am           1 S1                 0.0000
     10 ****         1.1145  -0.9018   0.9242 C.3            1 S1                 0.0000
     11 ****         1.6676  -0.8970  -0.5110 C.3            1 S1                 0.0000
     12 ****         3.1995  -1.0091  -0.5587 C.3            1 S1                 0.0000
     13 ****         3.7440  -0.8711  -1.9940 C.3            1 S1                 0.0000
     14 ****         5.2642  -1.0675  -2.0158 C.3            1 S1                 0.0000
     15 ****         5.6258  -2.3889  -1.3295 C.3            1 S1                 0.0000
     16 ****         4.9859  -2.4585   0.0658 C.3            1 S1                 0.0000
     17 ****         3.5764  -2.2831  -0.0385 O.3            1 S1                 0.0000
     18 ****        -3.2537   2.3652   0.7582 N.ar           1 S1                 0.0000
     19 ****        -4.3345   3.1730   0.7354 C.ar           1 S1                 0.0000
     20 ****        -7.7786   3.1153   0.7624 H              1 S1                 0.0000
     21 ****        -6.7822   4.2824  -0.1125 H              1 S1                 0.0000
     22 ****        -6.8113   4.2940   1.6557 H              1 S1                 0.0000
     23 ****        -6.8470   0.8847   0.9524 H              1 S1                 0.0000
     24 ****        -4.8575  -0.6106   0.9947 H              1 S1                 0.0000
     25 ****        -2.6415  -0.8804   0.9746 H              1 S1                 0.0000
     26 ****        -0.8485  -1.6792   1.0280 H              1 S1                 0.0000
     27 ****         1.5486  -0.0861   1.5048 H              1 S1                 0.0000
     28 ****         1.3965  -1.8253   1.4306 H              1 S1                 0.0000
     29 ****         1.2225  -1.7135  -1.0812 H              1 S1                 0.0000
     30 ****         1.3638   0.0256  -1.0076 H              1 S1                 0.0000
     31 ****         3.6287  -0.2240   0.0668 H              1 S1                 0.0000
     32 ****         3.2717  -1.6124  -2.6400 H              1 S1                 0.0000
     33 ****         3.4900   0.1072  -2.4034 H              1 S1                 0.0000
     34 ****         5.6354  -1.0571  -3.0408 H              1 S1                 0.0000
     35 ****         5.7489  -0.2395  -1.4968 H              1 S1                 0.0000
     36 ****         5.2716  -3.2251  -1.9334 H              1 S1                 0.0000
     37 ****         6.7085  -2.4923  -1.2553 H              1 S1                 0.0000
     38 ****         5.1869  -3.4281   0.5220 H              1 S1                 0.0000
     39 ****         5.4093  -1.7014   0.7276 H              1 S1                 0.0000
     40 ****        -4.1367   4.2325   0.6631 H              1 S1                 0.0000
     41 ****        -1.0978   2.2539   0.6639 LP             1 S1                 0.0000
     42 ****         0.4723   1.5239   0.7065 LP             1 S1                 0.0000
     43 ****         3.2129  -2.9921  -0.6427 LP             1 S1                 0.0000
     44 ****         3.1764  -2.3842   0.8725 LP             1 S1                 0.0000
     45 ****        -2.3325   2.7510   0.7076 LP             1 S1                 0.0000
@<TRIPOS>BOND
    1    1    2 1     
    2    1   20 1     
    3    1   21 1     
    4    1   22 1     
    5    2   19 ar    
    6    2    3 ar    
    7    3    4 ar    
    8    3   23 1     
    9    4    5 ar    
   10    4   24 1     
   11    5    6 1     
   12    5   18 ar    
   13    6    7 am    
   14    6   25 1     
   15    7    8 2     
   16    7    9 am    
   17    9   10 1     
   18    9   26 1     
   19   10   11 1     
   20   10   27 1     
   21   10   28 1     
   22   11   12 1     
   23   11   29 1     
   24   11   30 1     
   25   12   17 1     
   26   12   13 1     
   27   12   31 1     
   28   13   14 1     
   29   13   32 1     
   30   13   33 1     
   31   14   15 1     
   32   14   34 1     
   33   14   35 1     
   34   15   16 1     
   35   15   36 1     
   36   15   37 1     
   37   16   17 1     
   38   16   38 1     
   39   16   39 1     
   40   18   19 ar    
   41   19   40 1     
   42    8   41 1     
   43    8   42 1     
   44   17   43 1     
   45   17   44 1     
   46   18   45 1     
@<TRIPOS>SUBSTRUCTURE
      1 S1             1
@<TRIPOS>SET
LONE_PAIRS      STATIC     ATOMS    <user>   **** ""
5 41 42 43 44 45
DONOR_HYDROGENS      STATIC     ATOMS    <user>   **** ""
2 25 26
ATOM$BLUE        STATIC     ATOMS    COLORGROUP SYSTEM
5 41 42 43 44 45
ATOM$RED        STATIC     ATOMS    COLORGROUP SYSTEM
2 25 26
