AV-unprocessed.smi:526|AV-procd|sdf|2813|dock6
  -GOLD-   2262023293D 1   1.00000     0.00000
 Structure written by MMmdl.
 30 30  0  0  0  0  0  0  0  0  2 V2000
  150.3027  145.2280  160.2651 C   0  0  0  0  0  0  0  0  0  0  0  0
  151.4417  144.5273  160.1387 C   0  0  0  0  0  0  0  0  0  0  0  0
  152.3478  144.6783  158.9315 C   0  0  0  0  0  0  0  0  0  0  0  0
  151.8997  143.5366  161.1930 C   0  0  0  0  0  0  0  0  0  0  0  0
  153.4121  142.6523  160.7042 S   0  0  0  0  0  0  0  0  0  0  0  0
  152.8130  141.4573  159.5192 C   0  0  0  0  0  0  0  0  0  0  0  0
  152.0704  141.9628  158.5348 N   0  0  0  0  0  0  0  0  0  0  0  0
  151.5997  141.0886  157.6180 C   0  0  0  0  0  0  0  0  0  0  0  0
  150.7530  141.6867  156.5091 C   0  0  0  0  0  0  0  0  0  0  0  0
  151.8868  139.7016  157.6953 C   0  0  0  0  0  0  0  0  0  0  0  0
  151.3577  138.7036  156.6677 C   0  0  0  0  0  0  0  0  0  0  0  0
  151.8514  139.1109  155.2754 C   0  0  0  0  0  0  0  0  0  0  0  0
  150.9769  139.3792  154.4229 O   0  0  0  0  0  0  0  0  0  0  0  0
  153.0871  139.1555  155.0842 O   0  5  0  0  0  0  0  0  0  0  0  0
  152.6876  139.2906  158.7904 C   0  0  0  0  0  0  0  0  0  0  0  0
  153.0218  137.9781  158.9590 O   0  0  0  0  0  0  0  0  0  0  0  0
  153.1486  140.1780  159.6979 N   0  0  0  0  0  0  0  0  0  0  0  0
  153.0259  137.7184  159.8670 H   0  0  0  0  0  0  0  0  0  0  0  0
  149.9894  145.9300  159.5064 H   0  0  0  0  0  0  0  0  0  0  0  0
  149.6652  145.1101  161.1292 H   0  0  0  0  0  0  0  0  0  0  0  0
  152.4363  143.7326  158.3966 H   0  0  0  0  0  0  0  0  0  0  0  0
  153.3447  144.9907  159.2440 H   0  0  0  0  0  0  0  0  0  0  0  0
  151.9620  145.4241  158.2356 H   0  0  0  0  0  0  0  0  0  0  0  0
  152.0707  144.0710  162.1279 H   0  0  0  0  0  0  0  0  0  0  0  0
  151.1117  142.8052  161.3780 H   0  0  0  0  0  0  0  0  0  0  0  0
  151.2448  141.5599  155.5448 H   0  0  0  0  0  0  0  0  0  0  0  0
  150.5895  142.7537  156.6656 H   0  0  0  0  0  0  0  0  0  0  0  0
  149.7772  141.2029  156.4679 H   0  0  0  0  0  0  0  0  0  0  0  0
  150.2681  138.6778  156.6712 H   0  0  0  0  0  0  0  0  0  0  0  0
  151.6886  137.6933  156.9099 H   0  0  0  0  0  0  0  0  0  0  0  0
  1  2  2  0  0  0  0
  1 19  1  0  0  0  0
  1 20  1  0  0  0  0
  2  3  1  0  0  0  0
  2  4  1  0  0  0  0
  3 21  1  0  0  0  0
  3 22  1  0  0  0  0
  3 23  1  0  0  0  0
  4 24  1  0  0  0  0
  4 25  1  0  0  0  0
  4  5  1  0  0  0  0
  5  6  1  0  0  0  0
  6 17  1  0  0  0  0
  6  7  2  0  0  0  0
  7  8  1  0  0  0  0
  8 10  2  0  0  0  0
  8  9  1  0  0  0  0
  9 26  1  0  0  0  0
  9 27  1  0  0  0  0
  9 28  1  0  0  0  0
 10 15  1  0  0  0  0
 10 11  1  0  0  0  0
 11 12  1  0  0  0  0
 11 29  1  0  0  0  0
 11 30  1  0  0  0  0
 12 13  2  0  0  0  0
 12 14  1  0  0  0  0
 15 17  2  0  0  0  0
 15 16  1  0  0  0  0
 16 18  1  0  0  0  0
M  CHG  1  14  -1
M  END
> <s_m_source_file>
AV-unprocessed.smi

> <i_m_source_file_index>
526

> <i_lp_mmshare_version>
43012

> <i_f3d_flags>
0

> <s_epik_input>
W0NIMl09QyhbQ0gzXSlbQ0gyXVNjMW5jKFtDSDNdKWMoYyg9TylbbkhdMSlbQ0gyXUMoPU8pW09IXQ==

> <s_epik_cmdline>
J2VwaWtfcHl0aG9uJywgJy1waCcsICc3LjAnLCAnLXRuJywgJzgnLCAnLW1hJywgJzIwMCcsICctbWV0YWxfYmluZGluZycsICctaW1hZScsICc8aW5maWxlLm1hZT4nLCAnLW9tYWUnLCAnPG91dGZpbGUubWFlPic=

> <r_lp_tautomer_probability>
0.0660145

> <r_epik_Ionization_Penalty>
2.37967

> <r_epik_Ionization_Penalty_Charging>
0.000421182

> <r_epik_Ionization_Penalty_Neutral>
2.37925

> <r_epik_State_Penalty>
1.68674

> <r_epik_Charging_Adjusted_Penalty>
1.68716

> <i_epik_Tot_Q>
-1

> <i_epik_Tot_abs_Q>
1

> <r_epik_Metal_State_Penalty>
1.80034

> <b_epik_Metal_Only>
0

> <s_lp_Force_Field>
OPLS_2005

> <r_lp_Energy>
-7.53164

> <b_lp_Chiralities_Consistent>
1

> <s_lp_Variant>
AV-unprocessed.smi:526-3

> <Gold.Version>
5.8.1

> <Gold.Id.Protein>
6NUR|6NUR_protein|mol2

> <Gold.PLP.Fitness>
45.1973

> <Gold.PLP.PLP>
-36.4689

> <Gold.PLP.part.hbond>
-2.0000

> <Gold.PLP.part.metal>
0.0000

> <Gold.PLP.part.buried>
-5.3773

> <Gold.PLP.part.nonpolar>
-29.2888

> <Gold.PLP.part.repulsive>
0.1357

> <Gold.PLP.ligand.clash>
0.0000

> <Gold.PLP.ligand.torsion>
0.1488

> <Gold.PLP.Chemscore.Hbond>
3.0000

> <Gold.PLP.Chemscore.CHOScore>
0.0000

> <Gold.PLP.Chemscore.Metal>
0.0000

> <Gold.Chemscore.Hbonds>
donor molecule, donor type, donor heavy atom, donor atom, acceptor molecule, acceptor atom, score
      P1  H  7989  7998       L1    13  1.00
      P1  H  7997  8010       L1    14  2.00

> <Gold.PLP.Chemscore.Internal.Correction>
0.0259

> <Gold.Rescore>
     Score         DG    S(hbond)    S(metal)    S(lipo)     H(rot)  DE(clash)    DE(int)     intcor
     13.58     -14.04       1.96        0.00      81.22       2.92       0.27       0.19       ----

> <Gold.Chemscore.Fitness>
13.5761

> <Gold.Chemscore.DG>
-14.0421

> <Gold.Chemscore.ZeroCoef>
-5.4800

> <Gold.Chemscore.Hbond>
1.9556

> <Gold.Chemscore.Metal>
0.0000

> <Gold.Chemscore.Lipo>
81.2172

> <Gold.Chemscore.Internal_Hbond>
0.0000

> <Gold.Chemscore.DEClash>
0.2724

> <Gold.Chemscore.DEInternal>
0.1936

> <Gold.Chemscore.Rot>
2.9187

> <Gold.Chemscore.Internal.Correction>
   9.000000E+99

> <Gold.Chemscore.Hbonds>
donor molecule, donor type, donor heavy atom, donor atom, acceptor molecule, acceptor atom, score
      P1  H  7989  7998       L1    13  0.50
      P1  H  7997  8010       L1    14  1.00

> <Gold.Chemscore.Hbond.Weighted>
-6.5317

> <Gold.Chemscore.Metal.Weighted>
-0.0000

> <Gold.Chemscore.Lipo.Weighted>
-9.5024

> <Gold.Chemscore.Internal_Hbond.Weighted>
0.0000

> <Gold.Chemscore.DEClash.Weighted>
0.2724

> <Gold.Chemscore.DEInternal.Weighted>
0.1936

> <Gold.Chemscore.Rot.Weighted>
7.4720

> <Gold.Chemscore.Internal.Correction.Weighted>
   9.000000E+99

> <Gold.Protein.RotatedTorsions>
[ 6907 6896 6895 6894 ] final -160.42 input  -60.11 | X-H torsion
[ 7974 7965 7964 7962 ] final  175.33 input  175.53 | X-H torsion
[ 8008 7997 7996 7995 ] final   95.87 input   59.86 | X-H torsion
[ 10167 10162 10161 10158 ] final  136.54 input  -65.29 | X-H torsion
[ 10718 10713 10712 10709 ] final  -44.78 input   66.30 | X-H torsion
[ 10763 10752 10751 10750 ] final  156.32 input  -60.55 | X-H torsion
[ 11005 11000 10999 10996 ] final  148.74 input  -57.11 | X-H torsion

> <Gold.Protein.ActiveResidues>
 VAL166  LYS551  ARG553  GLY616  TRP617  ASP618  TYR619  PRO620  LYS621  CYS622 
 ASP623  PHE694  ASN695  SER759  ASP760  ASP761  ALA762  ILE779  LEU786  VAL792 
 PHE793  MET794  SER795  GLU796  ALA797  LYS798  CYS799  TRP800  GLU811  SER814 

> <Gold.Protein.RotatedAtoms>
  151.3487  133.3933  159.2677 H   0  0  0  0  0  0  0  0  0  0  0  0  # atno 6907 bound_to 6896
  150.9818  134.9173  159.7859 H   0  0  0  0  0  0  0  0  0  0  0  0  # atno 6908 bound_to 6896
  152.5219  134.3451  159.9283 H   0  0  0  0  0  0  0  0  0  0  0  0  # atno 6909 bound_to 6896
  144.7204  139.9930  143.6440 H   0  0  0  0  0  0  0  0  0  0  0  0  # atno 7974 bound_to 7965
  156.0735  140.3280  155.7605 H   0  0  0  0  0  0  0  0  0  0  0  0  # atno 8008 bound_to 7997
  155.5267  140.0590  157.2914 H   0  0  0  0  0  0  0  0  0  0  0  0  # atno 8009 bound_to 7997
  154.4543  140.1934  156.0444 H   0  0  0  0  0  0  0  0  0  0  0  0  # atno 8010 bound_to 7997
  139.5176  144.6459  151.5441 H   0  0  0  0  0  0  0  0  0  0  0  0  # atno 10167 bound_to 10162
  156.2351  130.4175  149.8828 H   0  0  0  0  0  0  0  0  0  0  0  0  # atno 10718 bound_to 10713
  154.1824  135.2799  155.3048 H   0  0  0  0  0  0  0  0  0  0  0  0  # atno 10763 bound_to 10752
  154.5992  135.5535  153.7360 H   0  0  0  0  0  0  0  0  0  0  0  0  # atno 10764 bound_to 10752
  153.0134  135.6387  154.1963 H   0  0  0  0  0  0  0  0  0  0  0  0  # atno 10765 bound_to 10752
  140.0986  134.8997  157.1761 H   0  0  0  0  0  0  0  0  0  0  0  0  # atno 11005 bound_to 11000
  146.0396  139.3409  143.0705 LP  0  0  0  0  0  0  0  0  0  0  0  0  # atno 17320 bound_to 7965
  145.8351  140.9610  143.0828 LP  0  0  0  0  0  0  0  0  0  0  0  0  # atno 17321 bound_to 7965
  140.6243  143.9198  150.6552 LP  0  0  0  0  0  0  0  0  0  0  0  0  # atno 17342 bound_to 10162
  140.2482  143.3613  152.1429 LP  0  0  0  0  0  0  0  0  0  0  0  0  # atno 17343 bound_to 10162
  156.6428  130.8712  151.3517 LP  0  0  0  0  0  0  0  0  0  0  0  0  # atno 17370 bound_to 10713
  157.7151  130.9487  150.1225 LP  0  0  0  0  0  0  0  0  0  0  0  0  # atno 17371 bound_to 10713
  140.3252  134.2871  155.7238 LP  0  0  0  0  0  0  0  0  0  0  0  0  # atno 17394 bound_to 11000
  141.2099  133.7735  156.9967 LP  0  0  0  0  0  0  0  0  0  0  0  0  # atno 17395 bound_to 11000

$$$$
