AV-unprocessed.smi:2276|AV-procd|sdf|9172|dock9
  -GOLD-   2272012383D 1   1.00000     0.00000
 Structure written by MMmdl.
 53 54  0  0  0  0  0  0  0  0  2 V2000
  153.4630  142.0265  162.2707 C   0  0  0  0  0  0  0  0  0  0  0  0
  152.9325  142.3267  160.8846 C   0  0  0  0  0  0  0  0  0  0  0  0
  152.5094  143.6240  160.5374 C   0  0  0  0  0  0  0  0  0  0  0  0
  152.0261  143.8390  159.2322 C   0  0  0  0  0  0  0  0  0  0  0  0
  151.5525  145.2086  158.7936 C   0  0  0  0  0  0  0  0  0  0  0  0
  151.9471  142.8599  158.3059 N   0  0  0  0  0  0  0  0  0  0  0  0
  152.3595  141.6079  158.6264 C   0  0  0  0  0  0  0  0  0  0  0  0
  152.2971  140.5090  157.7294 N   0  0  0  0  0  0  0  0  0  0  0  0
  151.6170  140.4346  156.5726 C   0  0  0  0  0  0  0  0  0  0  0  0
  151.1375  141.3961  155.9707 O   0  0  0  0  0  0  0  0  0  0  0  0
  151.4991  139.1649  156.1569 N   0  0  0  0  0  0  0  0  0  0  0  0
  150.7007  138.7071  155.0208 C   0  0  0  0  0  0  0  0  0  0  0  0
  149.2497  139.2368  155.0845 C   0  0  2  0  0  0  0  0  0  0  0  0
  148.6089  138.8873  156.4369 C   0  0  0  0  0  0  0  0  0  0  0  0
  148.3797  138.6914  153.9238 C   0  0  0  0  0  0  0  0  0  0  0  0
  147.3570  139.6308  153.4539 N   0  0  0  0  0  0  0  0  0  0  0  0
  146.9891  139.4904  152.0381 C   0  0  0  0  0  0  0  0  0  0  0  0
  146.2518  138.1659  151.7440 C   0  0  0  0  0  0  0  0  0  0  0  0
  145.0423  138.0412  152.5891 N   0  3  0  0  0  0  0  0  0  0  0  0
  144.2931  136.7954  152.3213 C   0  0  0  0  0  0  0  0  0  0  0  0
  145.3811  138.2064  154.0221 C   0  0  0  0  0  0  0  0  0  0  0  0
  146.1323  139.5370  154.2547 C   0  0  0  0  0  0  0  0  0  0  0  0
  152.8534  141.3065  159.9152 C   0  0  0  0  0  0  0  0  0  0  0  0
  153.3756  142.8942  162.9253 H   0  0  0  0  0  0  0  0  0  0  0  0
  154.5139  141.7417  162.2189 H   0  0  0  0  0  0  0  0  0  0  0  0
  152.9055  141.2043  162.7197 H   0  0  0  0  0  0  0  0  0  0  0  0
  152.5553  144.4332  161.2518 H   0  0  0  0  0  0  0  0  0  0  0  0
  151.8788  145.9799  159.4917 H   0  0  0  0  0  0  0  0  0  0  0  0
  150.4641  145.2335  158.7416 H   0  0  0  0  0  0  0  0  0  0  0  0
  151.9498  145.4546  157.8083 H   0  0  0  0  0  0  0  0  0  0  0  0
  152.7296  139.6573  158.0552 H   0  0  0  0  0  0  0  0  0  0  0  0
  151.9462  138.4463  156.7075 H   0  0  0  0  0  0  0  0  0  0  0  0
  151.1685  138.9759  154.0721 H   0  0  0  0  0  0  0  0  0  0  0  0
  150.6961  137.6174  155.0580 H   0  0  0  0  0  0  0  0  0  0  0  0
  149.3144  140.3226  155.0356 H   0  0  0  0  0  0  0  0  0  0  0  0
  148.5501  137.8083  156.5824 H   0  0  0  0  0  0  0  0  0  0  0  0
  147.5977  139.2888  156.5076 H   0  0  0  0  0  0  0  0  0  0  0  0
  149.1840  139.3029  157.2648 H   0  0  0  0  0  0  0  0  0  0  0  0
  148.9955  138.3913  153.0839 H   0  0  0  0  0  0  0  0  0  0  0  0
  147.8952  137.7737  154.2599 H   0  0  0  0  0  0  0  0  0  0  0  0
  146.3428  140.3276  151.7710 H   0  0  0  0  0  0  0  0  0  0  0  0
  147.8631  139.5795  151.3957 H   0  0  0  0  0  0  0  0  0  0  0  0
  145.9555  138.1457  150.6947 H   0  0  0  0  0  0  0  0  0  0  0  0
  146.9039  137.3059  151.8924 H   0  0  0  0  0  0  0  0  0  0  0  0
  144.8958  135.9195  152.5632 H   0  0  0  0  0  0  0  0  0  0  0  0
  144.0104  136.7349  151.2700 H   0  0  0  0  0  0  0  0  0  0  0  0
  143.3804  136.7582  152.9166 H   0  0  0  0  0  0  0  0  0  0  0  0
  144.4609  138.2062  154.6073 H   0  0  0  0  0  0  0  0  0  0  0  0
  145.9666  137.3546  154.3706 H   0  0  0  0  0  0  0  0  0  0  0  0
  146.3746  139.6544  155.3115 H   0  0  0  0  0  0  0  0  0  0  0  0
  145.4817  140.3738  153.9970 H   0  0  0  0  0  0  0  0  0  0  0  0
  153.1711  140.3035  160.1612 H   0  0  0  0  0  0  0  0  0  0  0  0
  144.4357  138.8104  152.3437 H   0  0  0  0  0  0  0  0  0  0  0  0
  1  2  1  0  0  0  0
  1 24  1  0  0  0  0
  1 25  1  0  0  0  0
  1 26  1  0  0  0  0
  2 23  1  0  0  0  0
  2  3  2  0  0  0  0
  3  4  1  0  0  0  0
  3 27  1  0  0  0  0
  4  5  1  0  0  0  0
  4  6  2  0  0  0  0
  5 28  1  0  0  0  0
  5 29  1  0  0  0  0
  5 30  1  0  0  0  0
  6  7  1  0  0  0  0
  7  8  1  0  0  0  0
  7 23  2  0  0  0  0
  8  9  1  0  0  0  0
  8 31  1  0  0  0  0
  9 10  2  0  0  0  0
  9 11  1  0  0  0  0
 11 12  1  0  0  0  0
 11 32  1  0  0  0  0
 12 13  1  0  0  0  0
 12 33  1  0  0  0  0
 12 34  1  0  0  0  0
 13 14  1  0  0  0  0
 13 15  1  0  0  0  0
 13 35  1  0  0  0  0
 14 36  1  0  0  0  0
 14 37  1  0  0  0  0
 14 38  1  0  0  0  0
 15 16  1  0  0  0  0
 15 39  1  0  0  0  0
 15 40  1  0  0  0  0
 16 22  1  0  0  0  0
 16 17  1  0  0  0  0
 17 18  1  0  0  0  0
 17 41  1  0  0  0  0
 17 42  1  0  0  0  0
 18 19  1  0  0  0  0
 18 43  1  0  0  0  0
 18 44  1  0  0  0  0
 19 20  1  0  0  0  0
 19 21  1  0  0  0  0
 19 53  1  0  0  0  0
 20 45  1  0  0  0  0
 20 46  1  0  0  0  0
 20 47  1  0  0  0  0
 21 22  1  0  0  0  0
 21 48  1  0  0  0  0
 21 49  1  0  0  0  0
 22 50  1  0  0  0  0
 22 51  1  0  0  0  0
 23 52  1  0  0  0  0
M  CHG  1  19   1
M  END
> <s_m_source_file>
AV-unprocessed.smi

> <i_m_source_file_index>
2276

> <i_lp_mmshare_version>
43012

> <i_f3d_flags>
0

> <s_epik_input>
W0NIM11jMVtjSF1jKFtDSDNdKW5jKFtjSF0xKVtOSF1DKD1PKVtOSF1bQ0gyXVtDQEhdKFtDSDNdKVtDSDJdTjJbQ0gyXVtDSDJdTihbQ0gzXSlbQ0gyXVtDSDJdMg==

> <s_epik_cmdline>
J2VwaWtfcHl0aG9uJywgJy1waCcsICc3LjAnLCAnLXRuJywgJzgnLCAnLW1hJywgJzIwMCcsICctbWV0YWxfYmluZGluZycsICctaW1hZScsICc8aW5maWxlLm1hZT4nLCAnLW9tYWUnLCAnPG91dGZpbGUubWFlPic=

> <r_epik_Ionization_Penalty>
0.0247364

> <r_epik_Ionization_Penalty_Charging>
0.0230248

> <r_epik_Ionization_Penalty_Neutral>
0.00171164

> <r_epik_State_Penalty>
0.239056

> <r_epik_Charging_Adjusted_Penalty>
0.262081

> <i_epik_Tot_Q>
1

> <i_epik_Tot_abs_Q>
1

> <r_epik_Metal_State_Penalty>
0.239048

> <b_epik_Metal_Only>
0

> <s_lp_Force_Field>
OPLS_2005

> <r_lp_Energy>
20.3682

> <b_lp_Chiralities_Consistent>
1

> <s_lp_Variant>
AV-unprocessed.smi:2276-1

> <Gold.Version>
5.8.1

> <Gold.Id.Protein>
6NUR|6NUR_protein|mol2

> <Gold.PLP.Fitness>
46.1954

> <Gold.PLP.PLP>
-41.8179

> <Gold.PLP.part.hbond>
-1.6075

> <Gold.PLP.part.metal>
0.0000

> <Gold.PLP.part.buried>
-2.0367

> <Gold.PLP.part.nonpolar>
-39.5234

> <Gold.PLP.part.repulsive>
0.4895

> <Gold.PLP.ligand.clash>
0.0000

> <Gold.PLP.ligand.torsion>
0.8271

> <Gold.PLP.Chemscore.Hbond>
2.0000

> <Gold.PLP.Chemscore.CHOScore>
0.0000

> <Gold.PLP.Chemscore.Metal>
0.0000

> <Gold.Chemscore.Hbonds>
donor molecule, donor type, donor heavy atom, donor atom, acceptor molecule, acceptor atom, score
      L1  H    19    53       P1 10175  2.00

> <Gold.PLP.Chemscore.Internal.Correction>
0.0316

> <Gold.Rescore>
     Score         DG    S(hbond)    S(metal)    S(lipo)     H(rot)  DE(clash)    DE(int)     intcor
     14.43     -17.68       1.00        0.00     111.37       1.63       0.19       3.05       ----

> <Gold.Chemscore.Fitness>
14.4320

> <Gold.Chemscore.DG>
-17.6776

> <Gold.Chemscore.ZeroCoef>
-5.4800

> <Gold.Chemscore.Hbond>
0.9986

> <Gold.Chemscore.Metal>
0.0000

> <Gold.Chemscore.Lipo>
111.3722

> <Gold.Chemscore.Internal_Hbond>
0.0000

> <Gold.Chemscore.DEClash>
0.1948

> <Gold.Chemscore.DEInternal>
3.0507

> <Gold.Chemscore.Rot>
1.6282

> <Gold.Chemscore.Internal.Correction>
   9.000000E+99

> <Gold.Chemscore.Hbonds>
donor molecule, donor type, donor heavy atom, donor atom, acceptor molecule, acceptor atom, score
      L1  H    19    53       P1 10175  0.99

> <Gold.Chemscore.Hbond.Weighted>
-3.3352

> <Gold.Chemscore.Metal.Weighted>
-0.0000

> <Gold.Chemscore.Lipo.Weighted>
-13.0305

> <Gold.Chemscore.Internal_Hbond.Weighted>
0.0000

> <Gold.Chemscore.DEClash.Weighted>
0.1948

> <Gold.Chemscore.DEInternal.Weighted>
3.0507

> <Gold.Chemscore.Rot.Weighted>
4.1682

> <Gold.Chemscore.Internal.Correction.Weighted>
   9.000000E+99

> <Gold.Protein.RotatedTorsions>
[ 6907 6896 6895 6894 ] final  106.46 input  -60.11 | X-H torsion
[ 7974 7965 7964 7962 ] final  -92.95 input  175.53 | X-H torsion
[ 8008 7997 7996 7995 ] final -134.03 input   59.86 | X-H torsion
[ 10167 10162 10161 10158 ] final   57.16 input  -65.29 | X-H torsion
[ 10718 10713 10712 10709 ] final  118.54 input   66.30 | X-H torsion
[ 10763 10752 10751 10750 ] final  -62.45 input  -60.55 | X-H torsion
[ 11005 11000 10999 10996 ] final  121.26 input  -57.11 | X-H torsion

> <Gold.Protein.ActiveResidues>
 VAL166  LYS551  ARG553  GLY616  TRP617  ASP618  TYR619  PRO620  LYS621  CYS622 
 ASP623  PHE694  ASN695  SER759  ASP760  ASP761  ALA762  ILE779  LEU786  VAL792 
 PHE793  MET794  SER795  GLU796  ALA797  LYS798  CYS799  TRP800  GLU811  SER814 

> <Gold.Protein.RotatedAtoms>
  152.5193  133.9378  159.7611 H   0  0  0  0  0  0  0  0  0  0  0  0  # atno 6907 bound_to 6896
  150.9714  133.6331  159.2744 H   0  0  0  0  0  0  0  0  0  0  0  0  # atno 6908 bound_to 6896
  151.3541  135.0896  159.9466 H   0  0  0  0  0  0  0  0  0  0  0  0  # atno 6909 bound_to 6896
  145.3930  140.9530  143.2330 H   0  0  0  0  0  0  0  0  0  0  0  0  # atno 7974 bound_to 7965
  155.3553  140.0479  157.3046 H   0  0  0  0  0  0  0  0  0  0  0  0  # atno 8008 bound_to 7997
  154.5206  140.2223  155.8947 H   0  0  0  0  0  0  0  0  0  0  0  0  # atno 8009 bound_to 7997
  156.1685  140.3101  155.8937 H   0  0  0  0  0  0  0  0  0  0  0  0  # atno 8010 bound_to 7997
  140.2010  144.3988  150.6529 H   0  0  0  0  0  0  0  0  0  0  0  0  # atno 10167 bound_to 10162
  157.6023  131.1049  150.7770 H   0  0  0  0  0  0  0  0  0  0  0  0  # atno 10718 bound_to 10713
  154.3001  135.6236  153.5421 H   0  0  0  0  0  0  0  0  0  0  0  0  # atno 10763 bound_to 10752
  152.9841  135.5676  154.5293 H   0  0  0  0  0  0  0  0  0  0  0  0  # atno 10764 bound_to 10752
  154.4922  135.2868  155.1464 H   0  0  0  0  0  0  0  0  0  0  0  0  # atno 10765 bound_to 10752
  139.9218  134.9638  156.7931 H   0  0  0  0  0  0  0  0  0  0  0  0  # atno 11005 bound_to 11000
  144.8427  139.5446  143.6893 LP  0  0  0  0  0  0  0  0  0  0  0  0  # atno 17320 bound_to 7965
  146.2789  139.6824  142.9243 LP  0  0  0  0  0  0  0  0  0  0  0  0  # atno 17321 bound_to 7965
  140.6390  143.2200  151.6331 LP  0  0  0  0  0  0  0  0  0  0  0  0  # atno 17342 bound_to 10162
  139.5217  144.3184  152.0932 LP  0  0  0  0  0  0  0  0  0  0  0  0  # atno 17343 bound_to 10162
  156.8166  130.4970  149.5348 LP  0  0  0  0  0  0  0  0  0  0  0  0  # atno 17370 bound_to 10713
  156.1100  130.6033  151.0032 LP  0  0  0  0  0  0  0  0  0  0  0  0  # atno 17371 bound_to 10713
  140.6451  133.9783  155.7726 LP  0  0  0  0  0  0  0  0  0  0  0  0  # atno 17394 bound_to 11000
  141.0746  134.0155  157.3477 LP  0  0  0  0  0  0  0  0  0  0  0  0  # atno 17395 bound_to 11000

$$$$
