#       Name:                AV-unprocessed.smi:2958
#       Creating user name   scv26
#       Creation time:       Fri Mar 27 16:20:45 2020


#       File generated by GOLD software.
#

@<TRIPOS>MOLECULE
AV-unprocessed.smi:2958
    44    46     1
SMALL
NO_CHARGES


@<TRIPOS>ATOM
      1 ****        -5.2121   0.2774   0.0762 C.3            1 S1                 0.0000
      2 ****        -4.2227   1.4241   0.0502 C.ar           1 S1                 0.0000
      3 ****        -4.6778   2.7571   0.0051 C.ar           1 S1                 0.0000
      4 ****        -3.7507   3.8150  -0.0186 C.ar           1 S1                 0.0000
      5 ****        -2.3698   3.5423   0.0033 C.ar           1 S1                 0.0000
      6 ****        -1.8973   2.2149   0.0499 C.ar           1 S1                 0.0000
      7 ****        -0.5303   2.0390   0.0715 O.3            1 S1                 0.0000
      8 ****        -0.0242   0.7136   0.1317 C.3            1 S1                 0.0000
      9 ****         1.5068   0.7794   0.1786 C.3            1 S1                 0.0000
     10 ****         2.1080  -0.5564   0.2796 N.pl3          1 S1                 0.0000
     11 ****         2.5022  -1.2651   1.3762 C.2            1 S1                 0.0000
     12 ****         2.4138  -0.8311   2.8018 C.3            1 S1                 0.0000
     13 ****         3.4724   0.0257   3.1683 O.3            1 S1                 0.0000
     14 ****         3.0011  -2.4528   0.9307 N.pl3          1 S1                 1.0000
     15 ****         2.9193  -2.5069  -0.4616 C.ar           1 S1                 0.0000
     16 ****         3.2954  -3.5014  -1.3593 C.ar           1 S1                 0.0000
     17 ****         3.0690  -3.2382  -2.7264 C.ar           1 S1                 0.0000
     18 ****         2.4891  -2.0263  -3.1549 C.ar           1 S1                 0.0000
     19 ****         2.1125  -1.0250  -2.2355 C.ar           1 S1                 0.0000
     20 ****         2.3424  -1.2925  -0.8864 C.ar           1 S1                 0.0000
     21 ****        -2.8387   1.1544   0.0723 C.ar           1 S1                 0.0000
     22 ****        -6.2408   0.6386   0.0723 H              1 S1                 0.0000
     23 ****        -5.0663  -0.3261   0.9724 H              1 S1                 0.0000
     24 ****        -5.0729  -0.3621  -0.7959 H              1 S1                 0.0000
     25 ****        -5.7359   2.9738  -0.0113 H              1 S1                 0.0000
     26 ****        -4.0983   4.8369  -0.0531 H              1 S1                 0.0000
     27 ****        -1.6653   4.3610  -0.0147 H              1 S1                 0.0000
     28 ****        -0.3959   0.2067   1.0238 H              1 S1                 0.0000
     29 ****        -0.3472   0.1476  -0.7435 H              1 S1                 0.0000
     30 ****         1.9080   1.2852  -0.7001 H              1 S1                 0.0000
     31 ****         1.8323   1.3580   1.0439 H              1 S1                 0.0000
     32 ****         1.4647  -0.3205   2.9675 H              1 S1                 0.0000
     33 ****         2.4246  -1.7074   3.4504 H              1 S1                 0.0000
     34 ****         3.3530   0.2832   4.0700 H              1 S1                 0.0000
     35 ****         3.7387  -4.4311  -1.0335 H              1 S1                 0.0000
     36 ****         3.3447  -3.9810  -3.4611 H              1 S1                 0.0000
     37 ****         2.3299  -1.8608  -4.2106 H              1 S1                 0.0000
     38 ****         1.6678  -0.1007  -2.5733 H              1 S1                 0.0000
     39 ****        -2.5225   0.1228   0.1072 H              1 S1                 0.0000
     40 ****         3.3717  -3.1719   1.5385 H              1 S1                 0.0000
     41 ****        -0.1815   2.5260   0.8722 LP             1 S1                 0.0000
     42 ****        -0.1644   2.4585  -0.7593 LP             1 S1                 0.0000
     43 ****         3.4679   0.8364   2.5828 LP             1 S1                 0.0000
     44 ****         4.3443  -0.4535   3.0673 LP             1 S1                 0.0000
@<TRIPOS>BOND
    1    1    2 1     
    2    1   22 1     
    3    1   23 1     
    4    1   24 1     
    5    2   21 ar    
    6    2    3 ar    
    7    3    4 ar    
    8    3   25 1     
    9    4    5 ar    
   10    4   26 1     
   11    5    6 ar    
   12    5   27 1     
   13    6    7 1     
   14    6   21 ar    
   15    7    8 1     
   16    8    9 1     
   17    8   28 1     
   18    8   29 1     
   19    9   10 1     
   20    9   30 1     
   21    9   31 1     
   22   10   20 1     
   23   10   11 1     
   24   11   12 1     
   25   11   14 2     
   26   12   13 1     
   27   12   32 1     
   28   12   33 1     
   29   13   34 1     
   30   14   15 1     
   31   14   40 1     
   32   15   20 ar    
   33   15   16 ar    
   34   16   17 ar    
   35   16   35 1     
   36   17   18 ar    
   37   17   36 1     
   38   18   19 ar    
   39   18   37 1     
   40   19   20 ar    
   41   19   38 1     
   42   21   39 1     
   43    7   41 1     
   44    7   42 1     
   45   13   43 1     
   46   13   44 1     
@<TRIPOS>SUBSTRUCTURE
      1 S1             1
@<TRIPOS>SET
LONE_PAIRS      STATIC     ATOMS    <user>   **** ""
4 41 42 43 44
DONOR_HYDROGENS      STATIC     ATOMS    <user>   **** ""
2 34 40
ATOM$BLUE        STATIC     ATOMS    COLORGROUP SYSTEM
4 41 42 43 44
ATOM$RED        STATIC     ATOMS    COLORGROUP SYSTEM
2 34 40
