AV-unprocessed.smi:35|AV-procd|sdf|259|dock3
  -GOLD-   2262016 23D 1   1.00000     0.00000
 Structure written by MMmdl.
 29 30  0  0  0  0  0  0  0  0  1 V2000
  151.9127  137.1421  159.8716 O   0  0  0  0  0  0  0  0  0  0  0  0
  151.3400  138.0229  159.2336 C   0  0  0  0  0  0  0  0  0  0  0  0
  151.9985  139.2187  158.9343 N   0  0  0  0  0  0  0  0  0  0  0  0
  151.4535  140.2867  158.2189 C   0  0  0  0  0  0  0  0  0  0  0  0
  152.1287  141.2919  158.0008 O   0  0  0  0  0  0  0  0  0  0  0  0
  150.1238  140.1493  157.7620 N   0  0  0  0  0  0  0  0  0  0  0  0
  149.5086  141.2966  156.9821 C   0  0  2  0  0  0  0  0  0  0  0  0
  148.1548  141.0342  156.7487 O   0  0  0  0  0  0  0  0  0  0  0  0
  147.9412  140.7348  155.3717 C   0  0  1  0  0  0  0  0  0  0  0  0
  146.4831  141.0362  154.9953 C   0  0  0  0  0  0  0  0  0  0  0  0
  146.2743  140.7673  153.6254 O   0  0  0  0  0  0  0  0  0  0  0  0
  148.9559  141.6562  154.6965 C   0  0  2  0  0  0  0  0  0  0  0  0
  149.2124  141.3107  153.3477 O   0  0  0  0  0  0  0  0  0  0  0  0
  150.1752  141.5245  155.6036 C   0  0  2  0  0  0  0  0  0  0  0  0
  151.0271  140.4620  155.2002 O   0  0  0  0  0  0  0  0  0  0  0  0
  149.4301  138.9756  158.0331 C   0  0  0  0  0  0  0  0  0  0  0  0
  149.9740  137.9483  158.7273 C   0  0  0  0  0  0  0  0  0  0  0  0
  148.8221  136.3615  159.0088 Br  0  0  0  0  0  0  0  0  0  0  0  0
  152.9489  139.3163  159.2609 H   0  0  0  0  0  0  0  0  0  0  0  0
  149.5610  142.1674  157.6385 H   0  0  0  0  0  0  0  0  0  0  0  0
  148.1965  139.6937  155.1654 H   0  0  0  0  0  0  0  0  0  0  0  0
  145.7869  140.4616  155.6068 H   0  0  0  0  0  0  0  0  0  0  0  0
  146.2634  142.0916  155.1583 H   0  0  0  0  0  0  0  0  0  0  0  0
  145.3541  140.8686  153.4360 H   0  0  0  0  0  0  0  0  0  0  0  0
  148.5937  142.6850  154.7341 H   0  0  0  0  0  0  0  0  0  0  0  0
  149.2952  140.3711  153.2888 H   0  0  0  0  0  0  0  0  0  0  0  0
  150.7592  142.4451  155.6271 H   0  0  0  0  0  0  0  0  0  0  0  0
  150.9057  139.7402  155.7980 H   0  0  0  0  0  0  0  0  0  0  0  0
  148.4159  138.8547  157.6855 H   0  0  0  0  0  0  0  0  0  0  0  0
  1  2  2  0  0  0  0
  2 17  1  0  0  0  0
  2  3  1  0  0  0  0
  3 19  1  0  0  0  0
  3  4  1  0  0  0  0
  4  5  2  0  0  0  0
  4  6  1  0  0  0  0
  6  7  1  0  0  0  0
  6 16  1  0  0  0  0
  7 14  1  0  0  0  0
  7  8  1  0  0  0  0
  7 20  1  0  0  0  0
  8  9  1  0  0  0  0
  9 10  1  0  0  0  0
  9 12  1  0  0  0  0
  9 21  1  0  0  0  0
 10 11  1  0  0  0  0
 10 22  1  0  0  0  0
 10 23  1  0  0  0  0
 11 24  1  0  0  0  0
 12 13  1  0  0  0  0
 12 14  1  0  0  0  0
 12 25  1  0  0  0  0
 13 26  1  0  0  0  0
 14 15  1  0  0  0  0
 14 27  1  0  0  0  0
 15 28  1  0  0  0  0
 16 17  2  0  0  0  0
 16 29  1  0  0  0  0
 17 18  1  0  0  0  0
M  END
> <s_m_source_file>
AV-unprocessed.smi

> <i_m_source_file_index>
35

> <i_lp_mmshare_version>
43012

> <i_f3d_flags>
0

> <s_epik_input>
Tz1jMVtuSF1jKD1PKW4oW2NIXWMxQnIpW0NAQEhdMk9bQ0BASF0oW0NIMl1bT0hdKVtDQEBIXShbT0hdKVtDQEhdMltPSF0=

> <s_epik_cmdline>
J2VwaWtfcHl0aG9uJywgJy1waCcsICc3LjAnLCAnLXRuJywgJzgnLCAnLW1hJywgJzIwMCcsICctbWV0YWxfYmluZGluZycsICctaW1hZScsICc8aW5maWxlLm1hZT4nLCAnLW9tYWUnLCAnPG91dGZpbGUubWFlPic=

> <r_lp_tautomer_probability>
0.999537

> <r_epik_Ionization_Penalty>
0.10812

> <r_epik_Ionization_Penalty_Charging>
0.108119

> <r_epik_Ionization_Penalty_Neutral>
4.93006e-07

> <r_epik_State_Penalty>
0.0979238

> <r_epik_Charging_Adjusted_Penalty>
0.206043

> <i_epik_Tot_Q>
0

> <i_epik_Tot_abs_Q>
0

> <r_epik_Metal_State_Penalty>
3.07911

> <b_epik_Metal_Only>
0

> <s_epik_Chemistry_Notes>
This compound contains an acetal/aminal-like group ( X-CH(R)-Y where X, Y are N, S, or O) that may be acid/base labile, releasing an aldehyde.

> <s_lp_Force_Field>
OPLS_2005

> <r_lp_Energy>
37.6264

> <b_lp_Chiralities_Consistent>
1

> <s_lp_Variant>
AV-unprocessed.smi:35-13

> <Gold.Version>
5.8.1

> <Gold.Id.Protein>
6NUR|6NUR_protein|mol2

> <Gold.PLP.Fitness>
37.7971

> <Gold.PLP.PLP>
-25.7818

> <Gold.PLP.part.hbond>
-5.9970

> <Gold.PLP.part.metal>
0.0000

> <Gold.PLP.part.buried>
-3.7920

> <Gold.PLP.part.nonpolar>
-14.9628

> <Gold.PLP.part.repulsive>
0.1602

> <Gold.PLP.ligand.clash>
0.0000

> <Gold.PLP.ligand.torsion>
0.1007

> <Gold.PLP.Chemscore.Hbond>
4.0427

> <Gold.PLP.Chemscore.CHOScore>
0.0000

> <Gold.PLP.Chemscore.Metal>
0.0000

> <Gold.Chemscore.Hbonds>
donor molecule, donor type, donor heavy atom, donor atom, acceptor molecule, acceptor atom, score
      L1  H    11    24       P1 10175  1.00
      L1  H    13    26       P1  7957  0.03
      P1  H  6896  6907       L1     1  1.00
      P1  H  7989  7998       L1    15  0.99
      P1  H  8011  8017       L1    13  1.00

> <Gold.PLP.Chemscore.Internal.Correction>
0.0886

> <Gold.Rescore>
     Score         DG    S(hbond)    S(metal)    S(lipo)     H(rot)  DE(clash)    DE(int)     intcor
     12.75     -12.99       4.01        0.00      30.02       3.67       0.02       0.21       ----

> <Gold.Chemscore.Fitness>
12.7492

> <Gold.Chemscore.DG>
-12.9869

> <Gold.Chemscore.ZeroCoef>
-5.4800

> <Gold.Chemscore.Hbond>
4.0089

> <Gold.Chemscore.Metal>
0.0000

> <Gold.Chemscore.Lipo>
30.0233

> <Gold.Chemscore.Internal_Hbond>
0.0000

> <Gold.Chemscore.DEClash>
0.0232

> <Gold.Chemscore.DEInternal>
0.2145

> <Gold.Chemscore.Rot>
3.6701

> <Gold.Chemscore.Internal.Correction>
   9.000000E+99

> <Gold.Chemscore.Hbonds>
donor molecule, donor type, donor heavy atom, donor atom, acceptor molecule, acceptor atom, score
      L1  H    11    24       P1 10175  0.72
      L1  H    13    26       P1  7957  0.06
      P1  H  6896  6907       L1     1  0.93
      P1  H  7989  7998       L1    15  0.57
      P1  H  8011  8017       L1    13  0.92

> <Gold.Chemscore.Hbond.Weighted>
-13.3896

> <Gold.Chemscore.Metal.Weighted>
-0.0000

> <Gold.Chemscore.Lipo.Weighted>
-3.5127

> <Gold.Chemscore.Internal_Hbond.Weighted>
0.0000

> <Gold.Chemscore.DEClash.Weighted>
0.0232

> <Gold.Chemscore.DEInternal.Weighted>
0.2145

> <Gold.Chemscore.Rot.Weighted>
9.3955

> <Gold.Chemscore.Internal.Correction.Weighted>
   9.000000E+99

> <Gold.Protein.RotatedTorsions>
[ 6907 6896 6895 6894 ] final   17.33 input  -60.11 | X-H torsion
[ 7974 7965 7964 7962 ] final   72.10 input  175.53 | X-H torsion
[ 8008 7997 7996 7995 ] final  124.81 input   59.86 | X-H torsion
[ 10167 10162 10161 10158 ] final -146.84 input  -65.29 | X-H torsion
[ 10718 10713 10712 10709 ] final  167.61 input   66.30 | X-H torsion
[ 10763 10752 10751 10750 ] final  -34.48 input  -60.55 | X-H torsion
[ 11005 11000 10999 10996 ] final  -32.89 input  -57.11 | X-H torsion

> <Gold.Protein.ActiveResidues>
 VAL166  LYS551  ARG553  GLY616  TRP617  ASP618  TYR619  PRO620  LYS621  CYS622 
 ASP623  PHE694  ASN695  SER759  ASP760  ASP761  ALA762  ILE779  LEU786  VAL792 
 PHE793  MET794  SER795  GLU796  ALA797  LYS798  CYS799  TRP800  GLU811  SER814 

> <Gold.Protein.RotatedAtoms>
  151.8479  135.0567  160.0455 H   0  0  0  0  0  0  0  0  0  0  0  0  # atno 6907 bound_to 6896
  152.2759  133.5420  159.5476 H   0  0  0  0  0  0  0  0  0  0  0  0  # atno 6908 bound_to 6896
  150.7170  134.0549  159.3853 H   0  0  0  0  0  0  0  0  0  0  0  0  # atno 6909 bound_to 6896
  145.7576  139.2787  143.1395 H   0  0  0  0  0  0  0  0  0  0  0  0  # atno 7974 bound_to 7965
  156.2814  140.2731  156.1848 H   0  0  0  0  0  0  0  0  0  0  0  0  # atno 8008 bound_to 7997
  155.0519  140.0386  157.2564 H   0  0  0  0  0  0  0  0  0  0  0  0  # atno 8009 bound_to 7997
  154.7188  140.2683  155.6566 H   0  0  0  0  0  0  0  0  0  0  0  0  # atno 8010 bound_to 7997
  139.7676  143.8285  152.2619 H   0  0  0  0  0  0  0  0  0  0  0  0  # atno 10167 bound_to 10162
  157.0491  131.0308  151.2687 H   0  0  0  0  0  0  0  0  0  0  0  0  # atno 10718 bound_to 10713
  153.8474  135.6852  153.4796 H   0  0  0  0  0  0  0  0  0  0  0  0  # atno 10763 bound_to 10752
  153.1418  135.4654  154.9504 H   0  0  0  0  0  0  0  0  0  0  0  0  # atno 10764 bound_to 10752
  154.7818  135.3271  154.7921 H   0  0  0  0  0  0  0  0  0  0  0  0  # atno 10765 bound_to 10752
  140.9590  133.7176  156.1339 H   0  0  0  0  0  0  0  0  0  0  0  0  # atno 11005 bound_to 11000
  146.0295  140.8271  142.9883 LP  0  0  0  0  0  0  0  0  0  0  0  0  # atno 17320 bound_to 7965
  144.6837  140.2748  143.7300 LP  0  0  0  0  0  0  0  0  0  0  0  0  # atno 17321 bound_to 7965
  139.8309  144.7254  150.9451 LP  0  0  0  0  0  0  0  0  0  0  0  0  # atno 17342 bound_to 10162
  140.7812  143.4070  151.1054 LP  0  0  0  0  0  0  0  0  0  0  0  0  # atno 17343 bound_to 10162
  157.5045  130.7900  149.7639 LP  0  0  0  0  0  0  0  0  0  0  0  0  # atno 17370 bound_to 10713
  156.0013  130.3878  150.2594 LP  0  0  0  0  0  0  0  0  0  0  0  0  # atno 17371 bound_to 10713
  140.7495  134.4061  157.5543 LP  0  0  0  0  0  0  0  0  0  0  0  0  # atno 17394 bound_to 11000
  139.8871  134.8890  156.2544 LP  0  0  0  0  0  0  0  0  0  0  0  0  # atno 17395 bound_to 11000

$$$$
