AV-unprocessed.smi:1102|AV-procd|sdf|4769|dock6
  -GOLD-   22720 3303D 1   1.00000     0.00000
 Structure written by MMmdl.
 39 40  0  0  0  0  0  0  0  0  1 V2000
  152.6836  141.5628  158.9459 C   0  0  0  0  0  0  0  0  0  0  0  0
  151.8656  142.2361  157.9453 N   0  0  0  0  0  0  0  0  0  0  0  0
  151.6407  143.6752  158.0377 C   0  0  0  0  0  0  0  0  0  0  0  0
  151.2454  141.4931  156.9146 C   0  0  0  0  0  0  0  0  0  0  0  0
  151.7830  140.2623  156.4627 C   0  0  0  0  0  0  0  0  0  0  0  0
  151.1263  139.5621  155.4330 C   0  0  0  0  0  0  0  0  0  0  0  0
  149.9556  140.1022  154.8675 C   0  0  0  0  0  0  0  0  0  0  0  0
  149.3025  139.3624  153.8449 N   0  0  0  0  0  0  0  0  0  0  0  0
  148.0489  139.5035  153.3813 C   0  0  0  0  0  0  0  0  0  0  0  0
  147.2518  140.3707  153.7382 O   0  0  0  0  0  0  0  0  0  0  0  0
  147.7708  138.5807  152.4497 N   0  0  0  0  0  0  0  0  0  0  0  0
  146.4922  138.4430  151.7610 C   0  0  0  0  0  0  0  0  0  0  0  0
  145.7951  137.1210  152.1239 C   0  0  2  0  0  0  0  0  0  0  0  0
  145.5847  136.1927  150.9284 C   0  0  0  0  0  0  0  0  0  0  0  0
  144.4106  135.3601  151.3892 C   0  0  0  0  0  0  0  0  0  0  0  0
  143.5655  136.3992  152.1185 C   0  0  0  0  0  0  0  0  0  0  0  0
  144.4859  137.3532  152.6407 O   0  0  0  0  0  0  0  0  0  0  0  0
  149.4847  141.3301  155.3885 C   0  0  0  0  0  0  0  0  0  0  0  0
  150.1107  142.0035  156.3765 N   0  0  0  0  0  0  0  0  0  0  0  0
  152.0943  140.8220  159.4872 H   0  0  0  0  0  0  0  0  0  0  0  0
  153.0802  142.2693  159.6750 H   0  0  0  0  0  0  0  0  0  0  0  0
  153.5303  141.0618  158.4760 H   0  0  0  0  0  0  0  0  0  0  0  0
  150.5805  143.8887  158.1780 H   0  0  0  0  0  0  0  0  0  0  0  0
  151.9780  144.1748  157.1289 H   0  0  0  0  0  0  0  0  0  0  0  0
  152.1827  144.1105  158.8773 H   0  0  0  0  0  0  0  0  0  0  0  0
  152.6829  139.8411  156.8844 H   0  0  0  0  0  0  0  0  0  0  0  0
  151.5227  138.6207  155.0814 H   0  0  0  0  0  0  0  0  0  0  0  0
  149.8688  138.6623  153.3887 H   0  0  0  0  0  0  0  0  0  0  0  0
  148.4888  137.9121  152.2127 H   0  0  0  0  0  0  0  0  0  0  0  0
  145.8417  139.2937  151.9715 H   0  0  0  0  0  0  0  0  0  0  0  0
  146.6923  138.4670  150.6895 H   0  0  0  0  0  0  0  0  0  0  0  0
  146.3662  136.5902  152.8876 H   0  0  0  0  0  0  0  0  0  0  0  0
  145.3088  136.7630  150.0401 H   0  0  0  0  0  0  0  0  0  0  0  0
  146.4664  135.5964  150.6922 H   0  0  0  0  0  0  0  0  0  0  0  0
  143.8785  134.8745  150.5710 H   0  0  0  0  0  0  0  0  0  0  0  0
  144.7470  134.5907  152.0855 H   0  0  0  0  0  0  0  0  0  0  0  0
  142.9002  136.9084  151.4203 H   0  0  0  0  0  0  0  0  0  0  0  0
  142.9556  135.9598  152.9079 H   0  0  0  0  0  0  0  0  0  0  0  0
  148.5752  141.7915  155.0368 H   0  0  0  0  0  0  0  0  0  0  0  0
  1  2  1  0  0  0  0
  1 20  1  0  0  0  0
  1 21  1  0  0  0  0
  1 22  1  0  0  0  0
  2  3  1  0  0  0  0
  2  4  1  0  0  0  0
  3 23  1  0  0  0  0
  3 24  1  0  0  0  0
  3 25  1  0  0  0  0
  4 19  1  0  0  0  0
  4  5  2  0  0  0  0
  5  6  1  0  0  0  0
  5 26  1  0  0  0  0
  6  7  2  0  0  0  0
  6 27  1  0  0  0  0
  7  8  1  0  0  0  0
  7 18  1  0  0  0  0
  8  9  1  0  0  0  0
  8 28  1  0  0  0  0
  9 10  2  0  0  0  0
  9 11  1  0  0  0  0
 11 12  1  0  0  0  0
 11 29  1  0  0  0  0
 12 13  1  0  0  0  0
 12 30  1  0  0  0  0
 12 31  1  0  0  0  0
 13 17  1  0  0  0  0
 13 14  1  0  0  0  0
 13 32  1  0  0  0  0
 14 15  1  0  0  0  0
 14 33  1  0  0  0  0
 14 34  1  0  0  0  0
 15 16  1  0  0  0  0
 15 35  1  0  0  0  0
 15 36  1  0  0  0  0
 16 17  1  0  0  0  0
 16 37  1  0  0  0  0
 16 38  1  0  0  0  0
 18 19  2  0  0  0  0
 18 39  1  0  0  0  0
M  END
> <s_m_source_file>
AV-unprocessed.smi

> <i_m_source_file_index>
1102

> <i_lp_mmshare_version>
43012

> <i_f3d_flags>
0

> <s_epik_input>
W0NIM11OKFtDSDNdKWMxW2NIXVtjSF1jKFtjSF1uMSlbTkhdQyg9TylbTkhdW0NIMl1bQ0BASF0yW0NIMl1bQ0gyXVtDSDJdTzI=

> <s_epik_cmdline>
J2VwaWtfcHl0aG9uJywgJy1waCcsICc3LjAnLCAnLXRuJywgJzgnLCAnLW1hJywgJzIwMCcsICctbWV0YWxfYmluZGluZycsICctaW1hZScsICc8aW5maWxlLm1hZT4nLCAnLW9tYWUnLCAnPG91dGZpbGUubWFlPic=

> <r_lp_tautomer_probability>
1

> <r_epik_Ionization_Penalty>
0.605145

> <r_epik_Ionization_Penalty_Charging>
0

> <r_epik_Ionization_Penalty_Neutral>
0.605145

> <r_epik_State_Penalty>
0.618734

> <r_epik_Charging_Adjusted_Penalty>
0.618734

> <i_epik_Tot_Q>
0

> <i_epik_Tot_abs_Q>
0

> <r_epik_Metal_State_Penalty>
0.302184

> <b_epik_Metal_Only>
0

> <s_lp_Force_Field>
OPLS_2005

> <r_lp_Energy>
22.0104

> <b_lp_Chiralities_Consistent>
1

> <s_lp_Variant>
AV-unprocessed.smi:1102-3

> <Gold.Version>
5.8.1

> <Gold.Id.Protein>
6NUR|6NUR_protein|mol2

> <Gold.PLP.Fitness>
36.9947

> <Gold.PLP.PLP>
-36.1961

> <Gold.PLP.part.hbond>
-3.0000

> <Gold.PLP.part.metal>
0.0000

> <Gold.PLP.part.buried>
-2.0328

> <Gold.PLP.part.nonpolar>
-32.3853

> <Gold.PLP.part.repulsive>
1.0535

> <Gold.PLP.ligand.clash>
0.0000

> <Gold.PLP.ligand.torsion>
1.0932

> <Gold.PLP.Chemscore.Hbond>
0.9920

> <Gold.PLP.Chemscore.CHOScore>
0.0000

> <Gold.PLP.Chemscore.Metal>
0.0000

> <Gold.Chemscore.Hbonds>
donor molecule, donor type, donor heavy atom, donor atom, acceptor molecule, acceptor atom, score
      L1  H    11    29       P1  7948  1.00

> <Gold.PLP.Chemscore.Internal.Correction>
0.0089

> <Gold.Rescore>
     Score         DG    S(hbond)    S(metal)    S(lipo)     H(rot)  DE(clash)    DE(int)     intcor
     12.01     -14.35       0.96        0.00      74.91       1.21       0.10       2.24       ----

> <Gold.Chemscore.Fitness>
12.0057

> <Gold.Chemscore.DG>
-14.3478

> <Gold.Chemscore.ZeroCoef>
-5.4800

> <Gold.Chemscore.Hbond>
0.9621

> <Gold.Chemscore.Metal>
0.0000

> <Gold.Chemscore.Lipo>
74.9050

> <Gold.Chemscore.Internal_Hbond>
0.0000

> <Gold.Chemscore.DEClash>
0.1026

> <Gold.Chemscore.DEInternal>
2.2395

> <Gold.Chemscore.Rot>
1.2146

> <Gold.Chemscore.Internal.Correction>
   9.000000E+99

> <Gold.Chemscore.Hbonds>
donor molecule, donor type, donor heavy atom, donor atom, acceptor molecule, acceptor atom, score
      L1  H    11    29       P1  7948  0.94

> <Gold.Chemscore.Hbond.Weighted>
-3.2133

> <Gold.Chemscore.Metal.Weighted>
-0.0000

> <Gold.Chemscore.Lipo.Weighted>
-8.7639

> <Gold.Chemscore.Internal_Hbond.Weighted>
0.0000

> <Gold.Chemscore.DEClash.Weighted>
0.1026

> <Gold.Chemscore.DEInternal.Weighted>
2.2395

> <Gold.Chemscore.Rot.Weighted>
3.1093

> <Gold.Chemscore.Internal.Correction.Weighted>
   9.000000E+99

> <Gold.Protein.RotatedTorsions>
[ 6907 6896 6895 6894 ] final   44.46 input  -60.11 | X-H torsion
[ 7974 7965 7964 7962 ] final -168.36 input  175.53 | X-H torsion
[ 8008 7997 7996 7995 ] final   17.58 input   59.86 | X-H torsion
[ 10167 10162 10161 10158 ] final  104.61 input  -65.29 | X-H torsion
[ 10718 10713 10712 10709 ] final  -96.75 input   66.30 | X-H torsion
[ 10763 10752 10751 10750 ] final   84.61 input  -60.55 | X-H torsion
[ 11005 11000 10999 10996 ] final   99.96 input  -57.11 | X-H torsion

> <Gold.Protein.ActiveResidues>
 VAL166  LYS551  ARG553  GLY616  TRP617  ASP618  TYR619  PRO620  LYS621  CYS622 
 ASP623  PHE694  ASN695  SER759  ASP760  ASP761  ALA762  ILE779  LEU786  VAL792 
 PHE793  MET794  SER795  GLU796  ALA797  LYS798  CYS799  TRP800  GLU811  SER814 

> <Gold.Protein.RotatedAtoms>
  152.2328  134.8305  160.0471 H   0  0  0  0  0  0  0  0  0  0  0  0  # atno 6907 bound_to 6896
  151.9048  133.3541  159.3851 H   0  0  0  0  0  0  0  0  0  0  0  0  # atno 6908 bound_to 6896
  150.7030  134.4717  159.5473 H   0  0  0  0  0  0  0  0  0  0  0  0  # atno 6909 bound_to 6896
  144.7205  140.2382  143.6295 H   0  0  0  0  0  0  0  0  0  0  0  0  # atno 7974 bound_to 7965
  154.8936  140.2990  155.5357 H   0  0  0  0  0  0  0  0  0  0  0  0  # atno 8008 bound_to 7997
  156.3020  140.2420  156.3889 H   0  0  0  0  0  0  0  0  0  0  0  0  # atno 8009 bound_to 7997
  154.8593  140.0406  157.1644 H   0  0  0  0  0  0  0  0  0  0  0  0  # atno 8010 bound_to 7997
  139.7162  144.7068  151.0946 H   0  0  0  0  0  0  0  0  0  0  0  0  # atno 10167 bound_to 10162
  156.0069  130.5165  150.6273 H   0  0  0  0  0  0  0  0  0  0  0  0  # atno 10718 bound_to 10713
  153.1398  135.4648  154.9478 H   0  0  0  0  0  0  0  0  0  0  0  0  # atno 10763 bound_to 10752
  154.7737  135.3166  154.8139 H   0  0  0  0  0  0  0  0  0  0  0  0  # atno 10764 bound_to 10752
  153.8664  135.6908  153.4832 H   0  0  0  0  0  0  0  0  0  0  0  0  # atno 10765 bound_to 10752
  139.8771  134.9119  156.4684 H   0  0  0  0  0  0  0  0  0  0  0  0  # atno 11005 bound_to 11000
  145.8345  139.2101  143.1863 LP  0  0  0  0  0  0  0  0  0  0  0  0  # atno 17320 bound_to 7965
  146.0401  140.8173  142.9833 LP  0  0  0  0  0  0  0  0  0  0  0  0  # atno 17321 bound_to 7965
  140.7744  143.5226  150.9518 LP  0  0  0  0  0  0  0  0  0  0  0  0  # atno 17342 bound_to 10162
  139.8912  143.6951  152.3145 LP  0  0  0  0  0  0  0  0  0  0  0  0  # atno 17343 bound_to 10162
  157.4077  131.0819  151.1250 LP  0  0  0  0  0  0  0  0  0  0  0  0  # atno 17370 bound_to 10713
  157.1891  130.6344  149.5698 LP  0  0  0  0  0  0  0  0  0  0  0  0  # atno 17371 bound_to 10713
  140.8813  133.7915  155.9470 LP  0  0  0  0  0  0  0  0  0  0  0  0  # atno 17394 bound_to 11000
  140.8851  134.2564  157.5124 LP  0  0  0  0  0  0  0  0  0  0  0  0  # atno 17395 bound_to 11000

$$$$
