AV-unprocessed.smi:1125|AV-procd|sdf|4836|dock4
  -GOLD-   22720 3403D 1   1.00000     0.00000
 Structure written by MMmdl.
 45 46  0  0  0  0  0  0  0  0  1 V2000
  153.2224  143.2930  161.4358 C   0  0  0  0  0  0  0  0  0  0  0  0
  152.2032  143.0356  160.4282 N   0  0  0  0  0  0  0  0  0  0  0  0
  152.4967  141.7701  159.7546 C   0  0  0  0  0  0  0  0  0  0  0  0
  151.3971  141.4475  158.7273 C   0  0  0  0  0  0  0  0  0  0  0  0
  151.2669  142.5711  157.6876 C   0  0  0  0  0  0  0  0  0  0  0  0
  150.1395  142.2996  156.8013 N   0  0  0  0  0  0  0  0  0  0  0  0
  150.0402  141.2461  155.9754 C   0  0  0  0  0  0  0  0  0  0  0  0
  150.9107  140.3821  155.8696 O   0  0  0  0  0  0  0  0  0  0  0  0
  148.7660  141.1537  155.1348 C   0  0  0  0  0  0  0  0  0  0  0  0
  147.5525  141.2705  156.0110 C   0  0  0  0  0  0  0  0  0  0  0  0
  147.2578  140.5131  157.1165 C   0  0  0  0  0  0  0  0  0  0  0  0
  145.7479  140.9846  157.8420 S   0  0  0  0  0  0  0  0  0  0  0  0
  145.5529  142.2164  156.5895 C   0  0  0  0  0  0  0  0  0  0  0  0
  144.3770  143.1569  156.4758 C   0  0  0  0  0  0  0  0  0  0  0  0
  144.3516  144.1116  157.6853 C   0  0  0  0  0  0  0  0  0  0  0  0
  143.0398  142.3849  156.4644 C   0  0  0  0  0  0  0  0  0  0  0  0
  144.4687  143.9501  155.1578 C   0  0  0  0  0  0  0  0  0  0  0  0
  146.5744  142.2278  155.7249 N   0  0  0  0  0  0  0  0  0  0  0  0
  151.0847  143.9146  158.4159 C   0  0  0  0  0  0  0  0  0  0  0  0
  152.1943  144.1326  159.4598 C   0  0  0  0  0  0  0  0  0  0  0  0
  153.2358  142.4954  162.1791 H   0  0  0  0  0  0  0  0  0  0  0  0
  153.0164  144.2281  161.9577 H   0  0  0  0  0  0  0  0  0  0  0  0
  154.2157  143.3625  160.9901 H   0  0  0  0  0  0  0  0  0  0  0  0
  153.4701  141.8204  159.2639 H   0  0  0  0  0  0  0  0  0  0  0  0
  152.5502  140.9682  160.4919 H   0  0  0  0  0  0  0  0  0  0  0  0
  151.6223  140.5031  158.2305 H   0  0  0  0  0  0  0  0  0  0  0  0
  150.4477  141.3054  159.2467 H   0  0  0  0  0  0  0  0  0  0  0  0
  152.1875  142.6043  157.1016 H   0  0  0  0  0  0  0  0  0  0  0  0
  149.3720  142.9555  156.8257 H   0  0  0  0  0  0  0  0  0  0  0  0
  148.7804  141.9368  154.3753 H   0  0  0  0  0  0  0  0  0  0  0  0
  148.7567  140.2048  154.5970 H   0  0  0  0  0  0  0  0  0  0  0  0
  147.8398  139.7125  157.5489 H   0  0  0  0  0  0  0  0  0  0  0  0
  143.5004  144.7917  157.6375 H   0  0  0  0  0  0  0  0  0  0  0  0
  145.2529  144.7238  157.7315 H   0  0  0  0  0  0  0  0  0  0  0  0
  144.2806  143.5602  158.6238 H   0  0  0  0  0  0  0  0  0  0  0  0
  142.9012  141.8061  157.3784 H   0  0  0  0  0  0  0  0  0  0  0  0
  142.9786  141.6962  155.6208 H   0  0  0  0  0  0  0  0  0  0  0  0
  142.1908  143.0648  156.3840 H   0  0  0  0  0  0  0  0  0  0  0  0
  143.6232  144.6292  155.0416 H   0  0  0  0  0  0  0  0  0  0  0  0
  144.4772  143.2840  154.2941 H   0  0  0  0  0  0  0  0  0  0  0  0
  145.3766  144.5530  155.1158 H   0  0  0  0  0  0  0  0  0  0  0  0
  151.0906  144.7366  157.6993 H   0  0  0  0  0  0  0  0  0  0  0  0
  150.1122  143.9426  158.9100 H   0  0  0  0  0  0  0  0  0  0  0  0
  152.0220  145.0761  159.9792 H   0  0  0  0  0  0  0  0  0  0  0  0
  153.1657  144.2103  158.9684 H   0  0  0  0  0  0  0  0  0  0  0  0
  1  2  1  0  0  0  0
  1 21  1  0  0  0  0
  1 22  1  0  0  0  0
  1 23  1  0  0  0  0
  2 20  1  0  0  0  0
  2  3  1  0  0  0  0
  3  4  1  0  0  0  0
  3 24  1  0  0  0  0
  3 25  1  0  0  0  0
  4  5  1  0  0  0  0
  4 26  1  0  0  0  0
  4 27  1  0  0  0  0
  5  6  1  0  0  0  0
  5 19  1  0  0  0  0
  5 28  1  0  0  0  0
  6  7  1  0  0  0  0
  6 29  1  0  0  0  0
  7  8  2  0  0  0  0
  7  9  1  0  0  0  0
  9 10  1  0  0  0  0
  9 30  1  0  0  0  0
  9 31  1  0  0  0  0
 10 18  1  0  0  0  0
 10 11  2  0  0  0  0
 11 12  1  0  0  0  0
 11 32  1  0  0  0  0
 12 13  1  0  0  0  0
 13 14  1  0  0  0  0
 13 18  2  0  0  0  0
 14 15  1  0  0  0  0
 14 16  1  0  0  0  0
 14 17  1  0  0  0  0
 15 33  1  0  0  0  0
 15 34  1  0  0  0  0
 15 35  1  0  0  0  0
 16 36  1  0  0  0  0
 16 37  1  0  0  0  0
 16 38  1  0  0  0  0
 17 39  1  0  0  0  0
 17 40  1  0  0  0  0
 17 41  1  0  0  0  0
 19 20  1  0  0  0  0
 19 42  1  0  0  0  0
 19 43  1  0  0  0  0
 20 44  1  0  0  0  0
 20 45  1  0  0  0  0
M  END
> <s_m_source_file>
AV-unprocessed.smi

> <i_m_source_file_index>
1125

> <i_lp_mmshare_version>
43012

> <i_f3d_flags>
0

> <s_epik_input>
W0NIM11OMVtDSDJdW0NIMl1bQ0hdKFtDSDJdW0NIMl0xKVtOSF1DKD1PKVtDSDJdYzJbY0hdc2MobjIpQyhbQ0gzXSkoW0NIM10pW0NIM10=

> <s_epik_cmdline>
J2VwaWtfcHl0aG9uJywgJy1waCcsICc3LjAnLCAnLXRuJywgJzgnLCAnLW1hJywgJzIwMCcsICctbWV0YWxfYmluZGluZycsICctaW1hZScsICc8aW5maWxlLm1hZT4nLCAnLW9tYWUnLCAnPG91dGZpbGUubWFlPic=

> <r_epik_Ionization_Penalty>
2.53567

> <r_epik_Ionization_Penalty_Charging>
0

> <r_epik_Ionization_Penalty_Neutral>
2.53567

> <r_epik_State_Penalty>
2.70312

> <r_epik_Charging_Adjusted_Penalty>
2.70312

> <i_epik_Tot_Q>
0

> <i_epik_Tot_abs_Q>
0

> <r_epik_Metal_State_Penalty>
2.70311

> <b_epik_Metal_Only>
0

> <s_lp_Force_Field>
OPLS_2005

> <r_lp_Energy>
6.33754

> <b_lp_Chiralities_Consistent>
1

> <s_lp_Variant>
AV-unprocessed.smi:1125-3

> <Gold.Version>
5.8.1

> <Gold.Id.Protein>
6NUR|6NUR_protein|mol2

> <Gold.PLP.Fitness>
41.1135

> <Gold.PLP.PLP>
-36.5209

> <Gold.PLP.part.hbond>
-2.0548

> <Gold.PLP.part.metal>
0.0000

> <Gold.PLP.part.buried>
-6.8427

> <Gold.PLP.part.nonpolar>
-27.9119

> <Gold.PLP.part.repulsive>
0.2952

> <Gold.PLP.ligand.clash>
0.0000

> <Gold.PLP.ligand.torsion>
0.2334

> <Gold.PLP.Chemscore.Hbond>
1.6832

> <Gold.PLP.Chemscore.CHOScore>
0.0000

> <Gold.PLP.Chemscore.Metal>
0.0000

> <Gold.Chemscore.Hbonds>
donor molecule, donor type, donor heavy atom, donor atom, acceptor molecule, acceptor atom, score
      L1  H     6    29       P1  8028  0.45

> <Gold.PLP.Chemscore.Internal.Correction>
0.0097

> <Gold.Rescore>
     Score         DG    S(hbond)    S(metal)    S(lipo)     H(rot)  DE(clash)    DE(int)     intcor
     16.90     -17.46       1.39        0.00      92.22       1.35       0.06       0.50       ----

> <Gold.Chemscore.Fitness>
16.9004

> <Gold.Chemscore.DG>
-17.4618

> <Gold.Chemscore.ZeroCoef>
-5.4800

> <Gold.Chemscore.Hbond>
1.3938

> <Gold.Chemscore.Metal>
0.0000

> <Gold.Chemscore.Lipo>
92.2161

> <Gold.Chemscore.Internal_Hbond>
0.0000

> <Gold.Chemscore.DEClash>
0.0641

> <Gold.Chemscore.DEInternal>
0.4973

> <Gold.Chemscore.Rot>
1.3526

> <Gold.Chemscore.Internal.Correction>
   9.000000E+99

> <Gold.Chemscore.Hbonds>
donor molecule, donor type, donor heavy atom, donor atom, acceptor molecule, acceptor atom, score
      L1  H     6    29       P1  8028  0.45

> <Gold.Chemscore.Hbond.Weighted>
-4.6551

> <Gold.Chemscore.Metal.Weighted>
-0.0000

> <Gold.Chemscore.Lipo.Weighted>
-10.7893

> <Gold.Chemscore.Internal_Hbond.Weighted>
0.0000

> <Gold.Chemscore.DEClash.Weighted>
0.0641

> <Gold.Chemscore.DEInternal.Weighted>
0.4973

> <Gold.Chemscore.Rot.Weighted>
3.4626

> <Gold.Chemscore.Internal.Correction.Weighted>
   9.000000E+99

> <Gold.Protein.RotatedTorsions>
[ 6907 6896 6895 6894 ] final  -74.26 input  -60.11 | X-H torsion
[ 7974 7965 7964 7962 ] final  116.03 input  175.53 | X-H torsion
[ 8008 7997 7996 7995 ] final  -38.14 input   59.86 | X-H torsion
[ 10167 10162 10161 10158 ] final   20.88 input  -65.29 | X-H torsion
[ 10718 10713 10712 10709 ] final  134.27 input   66.30 | X-H torsion
[ 10763 10752 10751 10750 ] final  -38.83 input  -60.55 | X-H torsion
[ 11005 11000 10999 10996 ] final -136.23 input  -57.11 | X-H torsion

> <Gold.Protein.ActiveResidues>
 VAL166  LYS551  ARG553  GLY616  TRP617  ASP618  TYR619  PRO620  LYS621  CYS622 
 ASP623  PHE694  ASN695  SER759  ASP760  ASP761  ALA762  ILE779  LEU786  VAL792 
 PHE793  MET794  SER795  GLU796  ALA797  LYS798  CYS799  TRP800  GLU811  SER814 

> <Gold.Protein.RotatedAtoms>
  150.7099  134.4895  159.5508 H   0  0  0  0  0  0  0  0  0  0  0  0  # atno 6907 bound_to 6896
  152.2515  134.8124  160.0454 H   0  0  0  0  0  0  0  0  0  0  0  0  # atno 6908 bound_to 6896
  151.8870  133.3472  159.3822 H   0  0  0  0  0  0  0  0  0  0  0  0  # atno 6909 bound_to 6896
  145.1847  139.3031  143.4400 H   0  0  0  0  0  0  0  0  0  0  0  0  # atno 7974 bound_to 7965
  154.4041  140.1585  156.2651 H   0  0  0  0  0  0  0  0  0  0  0  0  # atno 8008 bound_to 7997
  155.9002  140.3433  155.5998 H   0  0  0  0  0  0  0  0  0  0  0  0  # atno 8009 bound_to 7997
  155.7457  140.0798  157.2216 H   0  0  0  0  0  0  0  0  0  0  0  0  # atno 8010 bound_to 7997
  140.5469  143.9578  150.6553 H   0  0  0  0  0  0  0  0  0  0  0  0  # atno 10167 bound_to 10162
  157.4690  131.1079  150.9826 H   0  0  0  0  0  0  0  0  0  0  0  0  # atno 10718 bound_to 10713
  153.9194  135.6784  153.4748 H   0  0  0  0  0  0  0  0  0  0  0  0  # atno 10763 bound_to 10752
  153.1037  135.4816  154.8909 H   0  0  0  0  0  0  0  0  0  0  0  0  # atno 10764 bound_to 10752
  154.7486  135.3179  154.8555 H   0  0  0  0  0  0  0  0  0  0  0  0  # atno 10765 bound_to 10752
  140.8825  134.1914  157.4582 H   0  0  0  0  0  0  0  0  0  0  0  0  # atno 11005 bound_to 11000
  146.3447  140.2038  142.8589 LP  0  0  0  0  0  0  0  0  0  0  0  0  # atno 17320 bound_to 7965
  145.0101  140.8707  143.5229 LP  0  0  0  0  0  0  0  0  0  0  0  0  # atno 17321 bound_to 7965
  140.2993  143.3271  152.0987 LP  0  0  0  0  0  0  0  0  0  0  0  0  # atno 17342 bound_to 10162
  139.5011  144.6707  151.6250 LP  0  0  0  0  0  0  0  0  0  0  0  0  # atno 17343 bound_to 10162
  157.0598  130.5821  149.5384 LP  0  0  0  0  0  0  0  0  0  0  0  0  # atno 17370 bound_to 10713
  156.0064  130.5151  150.7844 LP  0  0  0  0  0  0  0  0  0  0  0  0  # atno 17371 bound_to 10713
  139.8721  134.9823  156.5152 LP  0  0  0  0  0  0  0  0  0  0  0  0  # atno 17394 bound_to 11000
  140.8444  133.8180  155.9107 LP  0  0  0  0  0  0  0  0  0  0  0  0  # atno 17395 bound_to 11000

$$$$
