AV-unprocessed.smi:1929|AV-procd|sdf|7803|dock4
  -GOLD-   22720 9543D 1   1.00000     0.00000
 Structure written by MMmdl.
 44 45  0  0  0  0  0  0  0  0  3 V2000
  143.4490  136.8858  152.7320 C   0  0  0  0  0  0  0  0  0  0  0  0
  144.4754  137.7284  152.1374 N   0  0  0  0  0  0  0  0  0  0  0  0
  145.7677  137.7040  152.4924 C   0  0  0  0  0  0  0  0  0  0  0  0
  146.2152  136.9527  153.3596 O   0  0  0  0  0  0  0  0  0  0  0  0
  146.6961  138.6632  151.7399 C   0  0  0  0  0  0  0  0  0  0  0  0
  147.3878  139.6260  152.6356 N   0  3  2  0  0  0  0  0  0  0  0  0
  148.0457  138.9723  153.7987 C   0  0  0  0  0  0  0  0  0  0  0  0
  148.8650  139.9868  154.6134 C   0  0  0  0  0  0  0  0  0  0  0  0
  147.9851  141.1545  155.0864 C   0  0  1  0  0  0  0  0  0  0  0  0
  148.8018  142.1406  155.7888 N   0  0  0  0  0  0  0  0  0  0  0  0
  149.6938  141.8574  156.7494 C   0  0  0  0  0  0  0  0  0  0  0  0
  149.9171  140.7153  157.1504 O   0  0  0  0  0  0  0  0  0  0  0  0
  150.2792  142.9726  157.2194 N   0  0  0  0  0  0  0  0  0  0  0  0
  151.2768  143.0867  158.2253 C   0  0  0  0  0  0  0  0  0  0  0  0
  151.9321  141.9044  158.6360 C   0  0  0  0  0  0  0  0  0  0  0  0
  152.9161  141.9690  159.6436 C   0  0  0  0  0  0  0  0  0  0  0  0
  153.2165  143.1548  160.2155 N   0  3  0  0  0  0  0  0  0  0  0  0
  152.6067  144.3083  159.8675 C   0  0  0  0  0  0  0  0  0  0  0  0
  151.6151  144.3064  158.8651 C   0  0  0  0  0  0  0  0  0  0  0  0
  147.2779  141.7898  153.8749 C   0  0  0  0  0  0  0  0  0  0  0  0
  146.5012  140.7373  153.0653 C   0  0  0  0  0  0  0  0  0  0  0  0
  142.4812  137.1044  152.2811 H   0  0  0  0  0  0  0  0  0  0  0  0
  143.3729  137.0638  153.8054 H   0  0  0  0  0  0  0  0  0  0  0  0
  143.6696  135.8303  152.5689 H   0  0  0  0  0  0  0  0  0  0  0  0
  144.1838  138.3668  151.4111 H   0  0  0  0  0  0  0  0  0  0  0  0
  147.4332  138.0430  151.2281 H   0  0  0  0  0  0  0  0  0  0  0  0
  146.1470  139.2013  150.9652 H   0  0  0  0  0  0  0  0  0  0  0  0
  147.2889  138.5075  154.4326 H   0  0  0  0  0  0  0  0  0  0  0  0
  148.7045  138.1728  153.4588 H   0  0  0  0  0  0  0  0  0  0  0  0
  149.3190  139.4888  155.4712 H   0  0  0  0  0  0  0  0  0  0  0  0
  149.6873  140.3622  154.0018 H   0  0  0  0  0  0  0  0  0  0  0  0
  147.2329  140.7583  155.7719 H   0  0  0  0  0  0  0  0  0  0  0  0
  148.6786  143.1068  155.5221 H   0  0  0  0  0  0  0  0  0  0  0  0
  149.9266  143.8467  156.8573 H   0  0  0  0  0  0  0  0  0  0  0  0
  151.6908  140.9547  158.1811 H   0  0  0  0  0  0  0  0  0  0  0  0
  153.4662  141.1134  160.0077 H   0  0  0  0  0  0  0  0  0  0  0  0
  152.9227  145.1922  160.4023 H   0  0  0  0  0  0  0  0  0  0  0  0
  151.1261  145.2360  158.6168 H   0  0  0  0  0  0  0  0  0  0  0  0
  146.5941  142.5731  154.2044 H   0  0  0  0  0  0  0  0  0  0  0  0
  148.0122  142.2732  153.2286 H   0  0  0  0  0  0  0  0  0  0  0  0
  146.0604  141.2163  152.1900 H   0  0  0  0  0  0  0  0  0  0  0  0
  145.6763  140.3384  153.6578 H   0  0  0  0  0  0  0  0  0  0  0  0
  148.1206  140.0454  152.0805 H   0  0  0  0  0  0  0  0  0  0  0  0
  153.9303  143.1795  160.9445 H   0  0  0  0  0  0  0  0  0  0  0  0
  1  2  1  0  0  0  0
  1 22  1  0  0  0  0
  1 23  1  0  0  0  0
  1 24  1  0  0  0  0
  2  3  1  0  0  0  0
  2 25  1  0  0  0  0
  3  4  2  0  0  0  0
  3  5  1  0  0  0  0
  5  6  1  0  0  0  0
  5 26  1  0  0  0  0
  5 27  1  0  0  0  0
  6 21  1  0  0  0  0
  6  7  1  0  0  0  0
  6 43  1  0  0  0  0
  7  8  1  0  0  0  0
  7 28  1  0  0  0  0
  7 29  1  0  0  0  0
  8  9  1  0  0  0  0
  8 30  1  0  0  0  0
  8 31  1  0  0  0  0
  9 10  1  0  0  0  0
  9 20  1  0  0  0  0
  9 32  1  0  0  0  0
 10 11  1  0  0  0  0
 10 33  1  0  0  0  0
 11 12  2  0  0  0  0
 11 13  1  0  0  0  0
 13 14  1  0  0  0  0
 13 34  1  0  0  0  0
 14 19  1  0  0  0  0
 14 15  2  0  0  0  0
 15 16  1  0  0  0  0
 15 35  1  0  0  0  0
 16 17  2  0  0  0  0
 16 36  1  0  0  0  0
 17 18  1  0  0  0  0
 17 44  1  0  0  0  0
 18 19  2  0  0  0  0
 18 37  1  0  0  0  0
 19 38  1  0  0  0  0
 20 21  1  0  0  0  0
 20 39  1  0  0  0  0
 20 40  1  0  0  0  0
 21 41  1  0  0  0  0
 21 42  1  0  0  0  0
M  CHG  1   6   1
M  CHG  1  17   1
M  END
> <s_m_source_file>
AV-unprocessed.smi

> <i_m_source_file_index>
1929

> <i_lp_mmshare_version>
43012

> <i_f3d_flags>
0

> <s_epik_input>
W0NIM11bTkhdQyg9TylbQ0gyXU4xW0NIMl1bQ0gyXVtDSF0oW0NIMl1bQ0gyXTEpW05IXUMoPU8pW05IXWMyW2NIXVtjSF1uW2NIXVtjSF0y

> <s_epik_cmdline>
J2VwaWtfcHl0aG9uJywgJy1waCcsICc3LjAnLCAnLXRuJywgJzgnLCAnLW1hJywgJzIwMCcsICctbWV0YWxfYmluZGluZycsICctaW1hZScsICc8aW5maWxlLm1hZT4nLCAnLW9tYWUnLCAnPG91dGZpbGUubWFlPic=

> <r_epik_Ionization_Penalty>
1.97435

> <r_epik_Ionization_Penalty_Charging>
1.97431

> <r_epik_Ionization_Penalty_Neutral>
3.89585e-05

> <r_epik_State_Penalty>
2.00691

> <r_epik_Charging_Adjusted_Penalty>
3.98122

> <i_epik_Tot_Q>
2

> <i_epik_Tot_abs_Q>
2

> <r_epik_Metal_State_Penalty>
2.11022

> <b_epik_Metal_Only>
0

> <s_lp_Force_Field>
OPLS_2005

> <r_lp_Energy>
26.2035

> <b_lp_Chiralities_Consistent>
1

> <s_lp_Variant>
AV-unprocessed.smi:1929-5

> <Gold.Version>
5.8.1

> <Gold.Id.Protein>
6NUR|6NUR_protein|mol2

> <Gold.PLP.Fitness>
51.8909

> <Gold.PLP.PLP>
-40.3937

> <Gold.PLP.part.hbond>
-4.7690

> <Gold.PLP.part.metal>
0.0000

> <Gold.PLP.part.buried>
-3.1166

> <Gold.PLP.part.nonpolar>
-33.3205

> <Gold.PLP.part.repulsive>
0.4240

> <Gold.PLP.ligand.clash>
0.0000

> <Gold.PLP.ligand.torsion>
0.2599

> <Gold.PLP.Chemscore.Hbond>
4.0000

> <Gold.PLP.Chemscore.CHOScore>
0.0000

> <Gold.PLP.Chemscore.Metal>
0.0000

> <Gold.Chemscore.Hbonds>
donor molecule, donor type, donor heavy atom, donor atom, acceptor molecule, acceptor atom, score
      L1  H     2    25       P1 10171  0.96
      L1  H     6    43       P1  7957  1.00
      L1  H    10    33       P1  8028  1.00
      L1  H    13    34       P1  8028  1.00

> <Gold.PLP.Chemscore.Internal.Correction>
0.0170

> <Gold.Rescore>
     Score         DG    S(hbond)    S(metal)    S(lipo)     H(rot)  DE(clash)    DE(int)     intcor
     20.37     -25.95       3.92        0.00     100.63       1.71       0.98       4.61       ----

> <Gold.Chemscore.Fitness>
20.3675

> <Gold.Chemscore.DG>
-25.9534

> <Gold.Chemscore.ZeroCoef>
-5.4800

> <Gold.Chemscore.Hbond>
3.9172

> <Gold.Chemscore.Metal>
0.0000

> <Gold.Chemscore.Lipo>
100.6300

> <Gold.Chemscore.Internal_Hbond>
0.0000

> <Gold.Chemscore.DEClash>
0.9786

> <Gold.Chemscore.DEInternal>
4.6074

> <Gold.Chemscore.Rot>
1.7124

> <Gold.Chemscore.Internal.Correction>
   9.000000E+99

> <Gold.Chemscore.Hbonds>
donor molecule, donor type, donor heavy atom, donor atom, acceptor molecule, acceptor atom, score
      L1  H     2    25       P1 10171  0.92
      L1  H     6    43       P1  7957  0.98
      L1  H    10    33       P1  8028  0.98
      L1  H    13    34       P1  8028  0.93

> <Gold.Chemscore.Hbond.Weighted>
-13.0835

> <Gold.Chemscore.Metal.Weighted>
-0.0000

> <Gold.Chemscore.Lipo.Weighted>
-11.7737

> <Gold.Chemscore.Internal_Hbond.Weighted>
0.0000

> <Gold.Chemscore.DEClash.Weighted>
0.9786

> <Gold.Chemscore.DEInternal.Weighted>
4.6074

> <Gold.Chemscore.Rot.Weighted>
4.3838

> <Gold.Chemscore.Internal.Correction.Weighted>
   9.000000E+99

> <Gold.Protein.RotatedTorsions>
[ 6907 6896 6895 6894 ] final  -50.99 input  -60.11 | X-H torsion
[ 7974 7965 7964 7962 ] final   94.56 input  175.53 | X-H torsion
[ 8008 7997 7996 7995 ] final   98.03 input   59.86 | X-H torsion
[ 10167 10162 10161 10158 ] final  168.48 input  -65.29 | X-H torsion
[ 10718 10713 10712 10709 ] final -161.54 input   66.30 | X-H torsion
[ 10763 10752 10751 10750 ] final  179.40 input  -60.55 | X-H torsion
[ 11005 11000 10999 10996 ] final -119.52 input  -57.11 | X-H torsion

> <Gold.Protein.ActiveResidues>
 VAL166  LYS551  ARG553  GLY616  TRP617  ASP618  TYR619  PRO620  LYS621  CYS622 
 ASP623  PHE694  ASN695  SER759  ASP760  ASP761  ALA762  ILE779  LEU786  VAL792 
 PHE793  MET794  SER795  GLU796  ALA797  LYS798  CYS799  TRP800  GLU811  SER814 

> <Gold.Protein.RotatedAtoms>
  150.8654  134.8016  159.7114 H   0  0  0  0  0  0  0  0  0  0  0  0  # atno 6907 bound_to 6896
  152.4677  134.5032  159.9741 H   0  0  0  0  0  0  0  0  0  0  0  0  # atno 6908 bound_to 6896
  151.5129  133.3443  159.2923 H   0  0  0  0  0  0  0  0  0  0  0  0  # atno 6909 bound_to 6896
  145.4639  139.2285  143.2972 H   0  0  0  0  0  0  0  0  0  0  0  0  # atno 7974 bound_to 7965
  156.0963  140.3249  155.7882 H   0  0  0  0  0  0  0  0  0  0  0  0  # atno 8008 bound_to 7997
  155.4912  140.0561  157.2970 H   0  0  0  0  0  0  0  0  0  0  0  0  # atno 8009 bound_to 7997
  154.4668  140.1993  156.0112 H   0  0  0  0  0  0  0  0  0  0  0  0  # atno 8010 bound_to 7997
  139.4969  144.3809  151.9623 H   0  0  0  0  0  0  0  0  0  0  0  0  # atno 10167 bound_to 10162
  156.5977  130.8797  151.2906 H   0  0  0  0  0  0  0  0  0  0  0  0  # atno 10718 bound_to 10713
  154.5201  135.2793  155.1269 H   0  0  0  0  0  0  0  0  0  0  0  0  # atno 10763 bound_to 10752
  154.2830  135.6281  153.5358 H   0  0  0  0  0  0  0  0  0  0  0  0  # atno 10764 bound_to 10752
  152.9935  135.5656  154.5688 H   0  0  0  0  0  0  0  0  0  0  0  0  # atno 10765 bound_to 10752
  141.0209  134.0125  157.3283 H   0  0  0  0  0  0  0  0  0  0  0  0  # atno 11005 bound_to 11000
  146.2435  140.5411  142.8924 LP  0  0  0  0  0  0  0  0  0  0  0  0  # atno 17320 bound_to 7965
  144.7986  140.6170  143.6493 LP  0  0  0  0  0  0  0  0  0  0  0  0  # atno 17321 bound_to 7965
  140.3246  144.3388  150.6001 LP  0  0  0  0  0  0  0  0  0  0  0  0  # atno 17342 bound_to 10162
  140.5695  143.2182  151.7624 LP  0  0  0  0  0  0  0  0  0  0  0  0  # atno 17343 bound_to 10162
  157.7287  130.9661  150.1756 LP  0  0  0  0  0  0  0  0  0  0  0  0  # atno 17370 bound_to 10713
  156.2496  130.3699  149.8247 LP  0  0  0  0  0  0  0  0  0  0  0  0  # atno 17371 bound_to 10713
  139.9145  135.0195  156.7828 LP  0  0  0  0  0  0  0  0  0  0  0  0  # atno 17394 bound_to 11000
  140.6574  133.9676  155.7787 LP  0  0  0  0  0  0  0  0  0  0  0  0  # atno 17395 bound_to 11000

$$$$
