AV-unprocessed.smi:2226|AV-procd|sdf|9014|dock3
  -GOLD-   2272012213D 1   1.00000     0.00000
 Structure written by MMmdl.
 40 42  0  0  0  0  0  0  0  0  2 V2000
  145.5886  143.1203  154.3033 C   0  0  0  0  0  0  0  0  0  0  0  0
  145.9260  141.6867  154.1342 N   0  3  2  0  0  0  0  0  0  0  0  0
  145.9440  140.8979  155.3902 C   0  0  1  0  0  0  0  0  0  0  0  0
  145.8721  139.3935  155.0378 C   0  0  0  0  0  0  0  0  0  0  0  0
  146.9489  138.9362  154.0327 C   0  0  0  0  0  0  0  0  0  0  0  0
  147.1510  139.9484  152.8866 C   0  0  0  0  0  0  0  0  0  0  0  0
  147.1572  141.4243  153.3497 C   0  0  2  0  0  0  0  0  0  0  0  0
  148.4244  141.8549  154.1300 C   0  0  0  0  0  0  0  0  0  0  0  0
  148.5110  141.3074  155.5735 C   0  0  1  0  0  0  0  0  0  0  0  0
  149.4452  142.1297  156.3411 N   0  0  0  0  0  0  0  0  0  0  0  0
  150.5722  141.7158  156.9409 C   0  0  0  0  0  0  0  0  0  0  0  0
  150.9403  140.5378  156.8949 O   0  0  0  0  0  0  0  0  0  0  0  0
  151.1883  142.7880  157.5701 N   0  0  0  0  0  0  0  0  0  0  0  0
  152.0335  142.5825  158.5337 C   0  0  0  0  0  0  0  0  0  0  0  0
  152.5159  141.4284  159.1457 N   0  0  0  0  0  0  0  0  0  0  0  0
  153.4006  141.8000  160.1190 C   0  0  0  0  0  0  0  0  0  0  0  0
  153.4749  143.1274  160.1229 C   0  0  0  0  0  0  0  0  0  0  0  0
  152.6499  143.6339  159.1641 O   0  0  0  0  0  0  0  0  0  0  0  0
  147.1404  141.2981  156.2892 C   0  0  0  0  0  0  0  0  0  0  0  0
  146.3372  143.6562  154.8862 H   0  0  0  0  0  0  0  0  0  0  0  0
  144.6282  143.2276  154.8082 H   0  0  0  0  0  0  0  0  0  0  0  0
  145.5053  143.6083  153.3319 H   0  0  0  0  0  0  0  0  0  0  0  0
  145.0317  141.1296  155.9418 H   0  0  0  0  0  0  0  0  0  0  0  0
  145.9230  138.7867  155.9425 H   0  0  0  0  0  0  0  0  0  0  0  0
  144.8930  139.1932  154.6006 H   0  0  0  0  0  0  0  0  0  0  0  0
  147.8895  138.7474  154.5430 H   0  0  0  0  0  0  0  0  0  0  0  0
  146.6681  137.9684  153.6161 H   0  0  0  0  0  0  0  0  0  0  0  0
  148.0650  139.7163  152.3390 H   0  0  0  0  0  0  0  0  0  0  0  0
  146.3362  139.8197  152.1726 H   0  0  0  0  0  0  0  0  0  0  0  0
  147.1111  142.0319  152.4448 H   0  0  0  0  0  0  0  0  0  0  0  0
  149.3198  141.5722  153.5751 H   0  0  0  0  0  0  0  0  0  0  0  0
  148.4431  142.9451  154.1639 H   0  0  0  0  0  0  0  0  0  0  0  0
  148.8842  140.2878  155.5326 H   0  0  0  0  0  0  0  0  0  0  0  0
  149.2151  143.1094  156.4264 H   0  0  0  0  0  0  0  0  0  0  0  0
  152.2827  140.4670  158.9412 H   0  0  0  0  0  0  0  0  0  0  0  0
  153.8965  141.0535  160.7219 H   0  0  0  0  0  0  0  0  0  0  0  0
  154.0411  143.8285  160.7180 H   0  0  0  0  0  0  0  0  0  0  0  0
  146.9428  142.2945  156.6868 H   0  0  0  0  0  0  0  0  0  0  0  0
  147.1862  140.6472  157.1630 H   0  0  0  0  0  0  0  0  0  0  0  0
  145.1674  141.3079  153.5853 H   0  0  0  0  0  0  0  0  0  0  0  0
  1  2  1  0  0  0  0
  1 20  1  0  0  0  0
  1 21  1  0  0  0  0
  1 22  1  0  0  0  0
  2  7  1  0  0  0  0
  2  3  1  0  0  0  0
  2 40  1  0  0  0  0
  3 19  1  0  0  0  0
  3  4  1  0  0  0  0
  3 23  1  0  0  0  0
  4  5  1  0  0  0  0
  4 24  1  0  0  0  0
  4 25  1  0  0  0  0
  5  6  1  0  0  0  0
  5 26  1  0  0  0  0
  5 27  1  0  0  0  0
  6  7  1  0  0  0  0
  6 28  1  0  0  0  0
  6 29  1  0  0  0  0
  7  8  1  0  0  0  0
  7 30  1  0  0  0  0
  8  9  1  0  0  0  0
  8 31  1  0  0  0  0
  8 32  1  0  0  0  0
  9 10  1  0  0  0  0
  9 19  1  0  0  0  0
  9 33  1  0  0  0  0
 10 34  1  0  0  0  0
 10 11  1  0  0  0  0
 11 13  1  0  0  0  0
 11 12  2  0  0  0  0
 13 14  2  0  0  0  0
 14 18  1  0  0  0  0
 14 15  1  0  0  0  0
 15 35  1  0  0  0  0
 15 16  1  0  0  0  0
 16 36  1  0  0  0  0
 16 17  2  0  0  0  0
 17 37  1  0  0  0  0
 17 18  1  0  0  0  0
 19 38  1  0  0  0  0
 19 39  1  0  0  0  0
M  CHG  1   2   1
M  END
> <s_m_source_file>
AV-unprocessed.smi

> <i_m_source_file_index>
2226

> <i_lp_mmshare_version>
43012

> <i_f3d_flags>
0

> <s_epik_input>
W0NIMl0xW0NIMl1bQ0gyXVtDQEhdKE4oW0NIM10pW0NIXTEyKVtDSDJdW0NASF0oW0NIMl0yKVtOSF1DKD1PKVtOSF1jM25bY0hdW2NIXW8z

> <s_epik_cmdline>
J2VwaWtfcHl0aG9uJywgJy1waCcsICc3LjAnLCAnLXRuJywgJzgnLCAnLW1hJywgJzIwMCcsICctbWV0YWxfYmluZGluZycsICctaW1hZScsICc8aW5maWxlLm1hZT4nLCAnLW9tYWUnLCAnPG91dGZpbGUubWFlPic=

> <r_lp_tautomer_probability>
0.107061

> <r_epik_Ionization_Penalty>
1.08307

> <r_epik_Ionization_Penalty_Charging>
1.08272

> <r_epik_Ionization_Penalty_Neutral>
0.000345913

> <r_epik_State_Penalty>
2.5744

> <r_epik_Charging_Adjusted_Penalty>
3.65713

> <i_epik_Tot_Q>
1

> <i_epik_Tot_abs_Q>
1

> <r_epik_Metal_State_Penalty>
3.72133

> <b_epik_Metal_Only>
0

> <s_lp_Force_Field>
OPLS_2005

> <r_lp_Energy>
58.9785

> <b_lp_Chiralities_Consistent>
1

> <s_lp_Variant>
AV-unprocessed.smi:2226-14

> <Gold.Version>
5.8.1

> <Gold.Id.Protein>
6NUR|6NUR_protein|mol2

> <Gold.PLP.Fitness>
40.0273

> <Gold.PLP.PLP>
-31.2327

> <Gold.PLP.part.hbond>
-2.0000

> <Gold.PLP.part.metal>
0.0000

> <Gold.PLP.part.buried>
-5.8815

> <Gold.PLP.part.nonpolar>
-23.3515

> <Gold.PLP.part.repulsive>
0.2966

> <Gold.PLP.ligand.clash>
0.0000

> <Gold.PLP.ligand.torsion>
0.1058

> <Gold.PLP.Chemscore.Hbond>
3.0000

> <Gold.PLP.Chemscore.CHOScore>
0.0000

> <Gold.PLP.Chemscore.Metal>
0.0000

> <Gold.Chemscore.Hbonds>
donor molecule, donor type, donor heavy atom, donor atom, acceptor molecule, acceptor atom, score
      L1  H     2    40       P1 10175  2.00
      L1  H    10    34       P1  8028  1.00

> <Gold.PLP.Chemscore.Internal.Correction>
0.0062

> <Gold.Rescore>
     Score         DG    S(hbond)    S(metal)    S(lipo)     H(rot)  DE(clash)    DE(int)     intcor
     16.76     -16.81       1.85        0.00      65.83       1.00       0.02       0.03       ----

> <Gold.Chemscore.Fitness>
16.7630

> <Gold.Chemscore.DG>
-16.8072

> <Gold.Chemscore.ZeroCoef>
-5.4800

> <Gold.Chemscore.Hbond>
1.8517

> <Gold.Chemscore.Metal>
0.0000

> <Gold.Chemscore.Lipo>
65.8345

> <Gold.Chemscore.Internal_Hbond>
0.0000

> <Gold.Chemscore.DEClash>
0.0170

> <Gold.Chemscore.DEInternal>
0.0273

> <Gold.Chemscore.Rot>
1.0000

> <Gold.Chemscore.Internal.Correction>
   9.000000E+99

> <Gold.Chemscore.Hbonds>
donor molecule, donor type, donor heavy atom, donor atom, acceptor molecule, acceptor atom, score
      L1  H     2    40       P1 10175  0.29
      L1  H    10    34       P1  8028  0.95

> <Gold.Chemscore.Hbond.Weighted>
-6.1846

> <Gold.Chemscore.Metal.Weighted>
-0.0000

> <Gold.Chemscore.Lipo.Weighted>
-7.7026

> <Gold.Chemscore.Internal_Hbond.Weighted>
0.0000

> <Gold.Chemscore.DEClash.Weighted>
0.0170

> <Gold.Chemscore.DEInternal.Weighted>
0.0273

> <Gold.Chemscore.Rot.Weighted>
2.5600

> <Gold.Chemscore.Internal.Correction.Weighted>
   9.000000E+99

> <Gold.Protein.RotatedTorsions>
[ 6907 6896 6895 6894 ] final   11.06 input  -60.11 | X-H torsion
[ 7974 7965 7964 7962 ] final -140.10 input  175.53 | X-H torsion
[ 8008 7997 7996 7995 ] final  107.54 input   59.86 | X-H torsion
[ 10167 10162 10161 10158 ] final  135.61 input  -65.29 | X-H torsion
[ 10718 10713 10712 10709 ] final  -66.66 input   66.30 | X-H torsion
[ 10763 10752 10751 10750 ] final  -89.76 input  -60.55 | X-H torsion
[ 11005 11000 10999 10996 ] final -132.01 input  -57.11 | X-H torsion

> <Gold.Protein.ActiveResidues>
 VAL166  LYS551  ARG553  GLY616  TRP617  ASP618  TYR619  PRO620  LYS621  CYS622 
 ASP623  PHE694  ASN695  SER759  ASP760  ASP761  ALA762  ILE779  LEU786  VAL792 
 PHE793  MET794  SER795  GLU796  ALA797  LYS798  CYS799  TRP800  GLU811  SER814 

> <Gold.Protein.RotatedAtoms>
  151.7483  135.0838  160.0326 H   0  0  0  0  0  0  0  0  0  0  0  0  # atno 6907 bound_to 6896
  152.3434  133.6089  159.5901 H   0  0  0  0  0  0  0  0  0  0  0  0  # atno 6908 bound_to 6896
  150.7493  133.9604  159.3555 H   0  0  0  0  0  0  0  0  0  0  0  0  # atno 6909 bound_to 6896
  144.8624  140.6240  143.5320 H   0  0  0  0  0  0  0  0  0  0  0  0  # atno 7974 bound_to 7965
  156.1832  140.3093  155.9189 H   0  0  0  0  0  0  0  0  0  0  0  0  # atno 8008 bound_to 7997
  155.3338  140.0462  157.3060 H   0  0  0  0  0  0  0  0  0  0  0  0  # atno 8009 bound_to 7997
  154.5366  140.2248  155.8722 H   0  0  0  0  0  0  0  0  0  0  0  0  # atno 8010 bound_to 7997
  139.5210  144.6508  151.5308 H   0  0  0  0  0  0  0  0  0  0  0  0  # atno 10167 bound_to 10162
  156.0600  130.4265  150.1741 H   0  0  0  0  0  0  0  0  0  0  0  0  # atno 10718 bound_to 10713
  154.6586  135.5329  153.7990 H   0  0  0  0  0  0  0  0  0  0  0  0  # atno 10763 bound_to 10752
  153.0428  135.6500  154.0906 H   0  0  0  0  0  0  0  0  0  0  0  0  # atno 10764 bound_to 10752
  154.0817  135.2946  155.3269 H   0  0  0  0  0  0  0  0  0  0  0  0  # atno 10765 bound_to 10752
  140.9208  134.1447  157.4316 H   0  0  0  0  0  0  0  0  0  0  0  0  # atno 11005 bound_to 11000
  145.4287  139.1552  143.4034 LP  0  0  0  0  0  0  0  0  0  0  0  0  # atno 17320 bound_to 7965
  146.2870  140.4401  142.8754 LP  0  0  0  0  0  0  0  0  0  0  0  0  # atno 17321 bound_to 7965
  140.6312  143.9073  150.6607 LP  0  0  0  0  0  0  0  0  0  0  0  0  # atno 17342 bound_to 10162
  140.2377  143.3687  152.1512 LP  0  0  0  0  0  0  0  0  0  0  0  0  # atno 17343 bound_to 10162
  156.9811  130.9864  151.3437 LP  0  0  0  0  0  0  0  0  0  0  0  0  # atno 17370 bound_to 10713
  157.5601  130.8240  149.8255 LP  0  0  0  0  0  0  0  0  0  0  0  0  # atno 17371 bound_to 10713
  139.8775  134.9970  156.5826 LP  0  0  0  0  0  0  0  0  0  0  0  0  # atno 17394 bound_to 11000
  140.7990  133.8520  155.8711 LP  0  0  0  0  0  0  0  0  0  0  0  0  # atno 17395 bound_to 11000

$$$$
