AV-unprocessed.smi:1788|AV-procd|sdf|7211|dock1
  -GOLD-   22720 8453D 1   1.00000     0.00000
 Structure written by MMmdl.
 55 57  0  0  0  0  0  0  0  0  2 V2000
  142.3668  137.4293  153.0539 C   0  0  0  0  0  0  0  0  0  0  0  0
  143.5647  136.5695  153.4939 C   0  0  1  0  0  0  0  0  0  0  0  0
  143.4102  135.0868  153.1073 C   0  0  0  0  0  0  0  0  0  0  0  0
  143.6288  134.8775  151.6022 C   0  0  0  0  0  0  0  0  0  0  0  0
  144.9693  135.4782  151.1505 C   0  0  0  0  0  0  0  0  0  0  0  0
  145.0590  136.9179  151.5069 N   0  3  2  0  0  0  0  0  0  0  0  0
  146.2767  137.5597  150.9508 C   0  0  0  0  0  0  0  0  0  0  0  0
  146.5953  138.9034  151.6351 C   0  0  0  0  0  0  0  0  0  0  0  0
  147.8386  138.8368  152.3946 N   0  0  0  0  0  0  0  0  0  0  0  0
  148.1813  139.6830  153.3763 C   0  0  0  0  0  0  0  0  0  0  0  0
  147.4602  140.6069  153.7523 O   0  0  0  0  0  0  0  0  0  0  0  0
  149.3832  139.3719  153.8913 N   0  0  0  0  0  0  0  0  0  0  0  0
  150.0990  140.0268  154.9300 C   0  0  0  0  0  0  0  0  0  0  0  0
  151.2777  139.5243  155.5287 C   0  0  0  0  0  0  0  0  0  0  0  0
  151.8837  140.2602  156.5648 C   0  0  0  0  0  0  0  0  0  0  0  0
  151.2968  141.4764  156.9870 C   0  0  0  0  0  0  0  0  0  0  0  0
  151.8896  142.2278  158.0248 N   0  0  0  0  0  0  0  0  0  0  0  0
  151.4943  143.6277  158.1694 C   0  0  0  0  0  0  0  0  0  0  0  0
  152.4390  144.3525  159.1427 C   0  0  0  0  0  0  0  0  0  0  0  0
  152.4684  143.6600  160.3864 O   0  0  0  0  0  0  0  0  0  0  0  0
  152.9606  142.3320  160.2409 C   0  0  0  0  0  0  0  0  0  0  0  0
  152.0401  141.5335  159.3014 C   0  0  0  0  0  0  0  0  0  0  0  0
  150.1635  141.9515  156.4146 N   0  0  0  0  0  0  0  0  0  0  0  0
  149.5843  141.2420  155.4240 C   0  0  0  0  0  0  0  0  0  0  0  0
  144.9052  137.1277  152.9727 C   0  0  0  0  0  0  0  0  0  0  0  0
  142.2679  137.4672  151.9691 H   0  0  0  0  0  0  0  0  0  0  0  0
  142.4705  138.4547  153.4100 H   0  0  0  0  0  0  0  0  0  0  0  0
  141.4336  137.0366  153.4586 H   0  0  0  0  0  0  0  0  0  0  0  0
  143.5923  136.6184  154.5833 H   0  0  0  0  0  0  0  0  0  0  0  0
  144.1424  134.4946  153.6579 H   0  0  0  0  0  0  0  0  0  0  0  0
  142.4302  134.7123  153.4044 H   0  0  0  0  0  0  0  0  0  0  0  0
  143.6032  133.8124  151.3699 H   0  0  0  0  0  0  0  0  0  0  0  0
  142.8129  135.3320  151.0394 H   0  0  0  0  0  0  0  0  0  0  0  0
  145.7994  134.9364  151.6068 H   0  0  0  0  0  0  0  0  0  0  0  0
  145.0659  135.3567  150.0711 H   0  0  0  0  0  0  0  0  0  0  0  0
  147.1176  136.8680  151.0232 H   0  0  0  0  0  0  0  0  0  0  0  0
  146.1304  137.7529  149.8869 H   0  0  0  0  0  0  0  0  0  0  0  0
  146.6996  139.6864  150.8836 H   0  0  0  0  0  0  0  0  0  0  0  0
  145.7901  139.2182  152.2994 H   0  0  0  0  0  0  0  0  0  0  0  0
  148.4870  138.1023  152.1494 H   0  0  0  0  0  0  0  0  0  0  0  0
  149.8191  138.5362  153.5293 H   0  0  0  0  0  0  0  0  0  0  0  0
  151.7235  138.5899  155.2264 H   0  0  0  0  0  0  0  0  0  0  0  0
  152.7928  139.8892  157.0138 H   0  0  0  0  0  0  0  0  0  0  0  0
  151.5189  144.1294  157.2010 H   0  0  0  0  0  0  0  0  0  0  0  0
  150.4687  143.6779  158.5379 H   0  0  0  0  0  0  0  0  0  0  0  0
  153.4463  144.4220  158.7281 H   0  0  0  0  0  0  0  0  0  0  0  0
  152.0934  145.3724  159.3116 H   0  0  0  0  0  0  0  0  0  0  0  0
  153.9831  142.3512  159.8600 H   0  0  0  0  0  0  0  0  0  0  0  0
  152.9960  141.8578  161.2218 H   0  0  0  0  0  0  0  0  0  0  0  0
  151.0551  141.4175  159.7557 H   0  0  0  0  0  0  0  0  0  0  0  0
  152.4489  140.5323  159.1720 H   0  0  0  0  0  0  0  0  0  0  0  0
  148.6806  141.6643  155.0088 H   0  0  0  0  0  0  0  0  0  0  0  0
  144.9732  138.1864  153.2207 H   0  0  0  0  0  0  0  0  0  0  0  0
  145.7325  136.6384  153.4896 H   0  0  0  0  0  0  0  0  0  0  0  0
  144.2716  137.3654  151.0602 H   0  0  0  0  0  0  0  0  0  0  0  0
  1  2  1  0  0  0  0
  1 26  1  0  0  0  0
  1 27  1  0  0  0  0
  1 28  1  0  0  0  0
  2 25  1  0  0  0  0
  2  3  1  0  0  0  0
  2 29  1  0  0  0  0
  3  4  1  0  0  0  0
  3 30  1  0  0  0  0
  3 31  1  0  0  0  0
  4  5  1  0  0  0  0
  4 32  1  0  0  0  0
  4 33  1  0  0  0  0
  5  6  1  0  0  0  0
  5 34  1  0  0  0  0
  5 35  1  0  0  0  0
  6  7  1  0  0  0  0
  6 25  1  0  0  0  0
  6 55  1  0  0  0  0
  7  8  1  0  0  0  0
  7 36  1  0  0  0  0
  7 37  1  0  0  0  0
  8  9  1  0  0  0  0
  8 38  1  0  0  0  0
  8 39  1  0  0  0  0
  9 10  1  0  0  0  0
  9 40  1  0  0  0  0
 10 11  2  0  0  0  0
 10 12  1  0  0  0  0
 12 13  1  0  0  0  0
 12 41  1  0  0  0  0
 13 24  1  0  0  0  0
 13 14  2  0  0  0  0
 14 15  1  0  0  0  0
 14 42  1  0  0  0  0
 15 16  2  0  0  0  0
 15 43  1  0  0  0  0
 16 17  1  0  0  0  0
 16 23  1  0  0  0  0
 17 22  1  0  0  0  0
 17 18  1  0  0  0  0
 18 19  1  0  0  0  0
 18 44  1  0  0  0  0
 18 45  1  0  0  0  0
 19 20  1  0  0  0  0
 19 46  1  0  0  0  0
 19 47  1  0  0  0  0
 20 21  1  0  0  0  0
 21 22  1  0  0  0  0
 21 48  1  0  0  0  0
 21 49  1  0  0  0  0
 22 50  1  0  0  0  0
 22 51  1  0  0  0  0
 23 24  2  0  0  0  0
 24 52  1  0  0  0  0
 25 53  1  0  0  0  0
 25 54  1  0  0  0  0
M  CHG  1   6   1
M  END
> <s_m_source_file>
AV-unprocessed.smi

> <i_m_source_file_index>
1788

> <i_lp_mmshare_version>
43012

> <i_f3d_flags>
0

> <s_epik_input>
W0NIM11bQ0BASF0xW0NIMl1bQ0gyXVtDSDJdTihbQ0gyXTEpW0NIMl1bQ0gyXVtOSF1DKD1PKVtOSF1jMltjSF1bY0hdYyhuW2NIXTIpTjNbQ0gyXVtDSDJdT1tDSDJdW0NIMl0z

> <s_epik_cmdline>
J2VwaWtfcHl0aG9uJywgJy1waCcsICc3LjAnLCAnLXRuJywgJzgnLCAnLW1hJywgJzIwMCcsICctbWV0YWxfYmluZGluZycsICctaW1hZScsICc8aW5maWxlLm1hZT4nLCAnLW9tYWUnLCAnPG91dGZpbGUubWFlPic=

> <r_lp_tautomer_probability>
1

> <r_epik_Ionization_Penalty>
0.00340126

> <r_epik_Ionization_Penalty_Charging>
0.00171832

> <r_epik_Ionization_Penalty_Neutral>
0.00168294

> <r_epik_State_Penalty>
-0

> <r_epik_Charging_Adjusted_Penalty>
0.00171832

> <i_epik_Tot_Q>
1

> <i_epik_Tot_abs_Q>
1

> <r_epik_Metal_State_Penalty>
-0

> <b_epik_Metal_Only>
0

> <s_lp_Force_Field>
OPLS_2005

> <r_lp_Energy>
36.4544

> <b_lp_Chiralities_Consistent>
1

> <s_lp_Variant>
AV-unprocessed.smi:1788-2

> <Gold.Version>
5.8.1

> <Gold.Id.Protein>
6NUR|6NUR_protein|mol2

> <Gold.PLP.Fitness>
52.6120

> <Gold.PLP.PLP>
-48.6926

> <Gold.PLP.part.hbond>
-3.8856

> <Gold.PLP.part.metal>
0.0000

> <Gold.PLP.part.buried>
0.1180

> <Gold.PLP.part.nonpolar>
-45.9413

> <Gold.PLP.part.repulsive>
0.6072

> <Gold.PLP.ligand.clash>
0.0000

> <Gold.PLP.ligand.torsion>
0.9502

> <Gold.PLP.Chemscore.Hbond>
1.8000

> <Gold.PLP.Chemscore.CHOScore>
0.0000

> <Gold.PLP.Chemscore.Metal>
0.0000

> <Gold.Chemscore.Hbonds>
donor molecule, donor type, donor heavy atom, donor atom, acceptor molecule, acceptor atom, score
      L1  H     6    55       P1 10171  0.85
      L1  H     9    40       P1  7948  1.00

> <Gold.PLP.Chemscore.Internal.Correction>
0.4198

> <Gold.Rescore>
     Score         DG    S(hbond)    S(metal)    S(lipo)     H(rot)  DE(clash)    DE(int)     intcor
     16.53     -20.24       1.74        0.00     111.36       1.60       1.45       2.25       ----

> <Gold.Chemscore.Fitness>
16.5331

> <Gold.Chemscore.DG>
-20.2373

> <Gold.Chemscore.ZeroCoef>
-5.4800

> <Gold.Chemscore.Hbond>
1.7420

> <Gold.Chemscore.Metal>
0.0000

> <Gold.Chemscore.Lipo>
111.3576

> <Gold.Chemscore.Internal_Hbond>
0.0000

> <Gold.Chemscore.DEClash>
1.4527

> <Gold.Chemscore.DEInternal>
2.2515

> <Gold.Chemscore.Rot>
1.5976

> <Gold.Chemscore.Internal.Correction>
   9.000000E+99

> <Gold.Chemscore.Hbonds>
donor molecule, donor type, donor heavy atom, donor atom, acceptor molecule, acceptor atom, score
      L1  H     6    55       P1 10171  0.83
      L1  H     9    40       P1  7948  0.97

> <Gold.Chemscore.Hbond.Weighted>
-5.8184

> <Gold.Chemscore.Metal.Weighted>
-0.0000

> <Gold.Chemscore.Lipo.Weighted>
-13.0288

> <Gold.Chemscore.Internal_Hbond.Weighted>
0.0000

> <Gold.Chemscore.DEClash.Weighted>
1.4527

> <Gold.Chemscore.DEInternal.Weighted>
2.2515

> <Gold.Chemscore.Rot.Weighted>
4.0899

> <Gold.Chemscore.Internal.Correction.Weighted>
   9.000000E+99

> <Gold.Protein.RotatedTorsions>
[ 6907 6896 6895 6894 ] final    2.86 input  -60.11 | X-H torsion
[ 7974 7965 7964 7962 ] final -134.44 input  175.53 | X-H torsion
[ 8008 7997 7996 7995 ] final -166.95 input   59.86 | X-H torsion
[ 10167 10162 10161 10158 ] final   78.56 input  -65.29 | X-H torsion
[ 10718 10713 10712 10709 ] final  -19.56 input   66.30 | X-H torsion
[ 10763 10752 10751 10750 ] final  -85.01 input  -60.55 | X-H torsion
[ 11005 11000 10999 10996 ] final  -92.36 input  -57.11 | X-H torsion

> <Gold.Protein.ActiveResidues>
 VAL166  LYS551  ARG553  GLY616  TRP617  ASP618  TYR619  PRO620  LYS621  CYS622 
 ASP623  PHE694  ASN695  SER759  ASP760  ASP761  ALA762  ILE779  LEU786  VAL792 
 PHE793  MET794  SER795  GLU796  ALA797  LYS798  CYS799  TRP800  GLU811  SER814 

> <Gold.Protein.RotatedAtoms>
  151.6157  135.1036  160.0090 H   0  0  0  0  0  0  0  0  0  0  0  0  # atno 6907 bound_to 6896
  152.4184  133.7072  159.6469 H   0  0  0  0  0  0  0  0  0  0  0  0  # atno 6908 bound_to 6896
  150.8072  133.8414  159.3221 H   0  0  0  0  0  0  0  0  0  0  0  0  # atno 6909 bound_to 6896
  144.9102  140.6885  143.5030 H   0  0  0  0  0  0  0  0  0  0  0  0  # atno 7974 bound_to 7965
  155.8710  140.0993  157.1550 H   0  0  0  0  0  0  0  0  0  0  0  0  # atno 8008 bound_to 7997
  154.3997  140.1347  156.4140 H   0  0  0  0  0  0  0  0  0  0  0  0  # atno 8009 bound_to 7997
  155.7751  140.3460  155.5270 H   0  0  0  0  0  0  0  0  0  0  0  0  # atno 8010 bound_to 7997
  139.9696  144.5904  150.7997 H   0  0  0  0  0  0  0  0  0  0  0  0  # atno 10167 bound_to 10162
  156.5440  130.4685  149.6485 H   0  0  0  0  0  0  0  0  0  0  0  0  # atno 10718 bound_to 10713
  154.6061  135.5500  153.7424 H   0  0  0  0  0  0  0  0  0  0  0  0  # atno 10763 bound_to 10752
  153.0175  135.6378  154.1645 H   0  0  0  0  0  0  0  0  0  0  0  0  # atno 10764 bound_to 10752
  154.1584  135.2898  155.3096 H   0  0  0  0  0  0  0  0  0  0  0  0  # atno 10765 bound_to 10752
  141.1524  133.7816  157.0009 H   0  0  0  0  0  0  0  0  0  0  0  0  # atno 11005 bound_to 11000
  145.3467  139.1717  143.4456 LP  0  0  0  0  0  0  0  0  0  0  0  0  # atno 17320 bound_to 7965
  146.3154  140.3514  142.8656 LP  0  0  0  0  0  0  0  0  0  0  0  0  # atno 17321 bound_to 7965
  140.7526  143.2994  151.3120 LP  0  0  0  0  0  0  0  0  0  0  0  0  # atno 17342 bound_to 10162
  139.6491  144.0395  152.2613 LP  0  0  0  0  0  0  0  0  0  0  0  0  # atno 17343 bound_to 10162
  156.2946  130.7143  151.2000 LP  0  0  0  0  0  0  0  0  0  0  0  0  # atno 17370 bound_to 10713
  157.7400  131.0522  150.5194 LP  0  0  0  0  0  0  0  0  0  0  0  0  # atno 17371 bound_to 10713
  140.0941  134.9575  157.1822 LP  0  0  0  0  0  0  0  0  0  0  0  0  # atno 17394 bound_to 11000
  140.3406  134.2708  155.7213 LP  0  0  0  0  0  0  0  0  0  0  0  0  # atno 17395 bound_to 11000

$$$$
