#       Name:                AV-unprocessed.smi:1365
#       Creating user name   scv26
#       Creation time:       Fri Mar 27 05:16:12 2020


#       File generated by GOLD software.
#

@<TRIPOS>MOLECULE
AV-unprocessed.smi:1365
    47    48     1
SMALL
NO_CHARGES


@<TRIPOS>ATOM
      1 ****        -7.4290   3.6013   1.2428 C.3            1 S1                 0.0000
      2 ****        -6.0143   3.1337   1.1987 C.2            1 S1                 0.0000
      3 ****        -5.3631   2.0839   1.7833 C.2            1 S1                 0.0000
      4 ****        -4.0283   2.2394   1.3237 C.2            1 S1                 0.0000
      5 ****        -3.0111   1.3333   1.7194 N.am           1 S1                 0.0000
      6 ****        -1.7028   1.3893   1.4168 C.2            1 S1                 0.0000
      7 ****        -1.1725   2.2501   0.7136 O.2            1 S1                 0.0000
      8 ****        -1.0251   0.3816   1.9861 N.am           1 S1                 0.0000
      9 ****         0.4185   0.1932   1.8966 C.3            1 S1                 0.0000
     10 ****         0.8335  -0.4442   0.5601 C.3            1 S1                 0.0000
     11 ****         2.3581  -0.6144   0.4487 C.3            1 S1                 0.0000
     12 ****         2.7722  -1.1516  -0.8720 N.4            1 S1                 1.0000
     13 ****         4.1682  -0.7764  -1.2205 C.3            1 S1                 0.0000
     14 ****         4.5283  -1.2280  -2.6463 C.3            1 S1                 0.0000
     15 ****         4.3137  -2.7374  -2.8150 C.3            1 S1                 0.0000
     16 ****         2.8779  -3.1072  -2.4215 C.3            1 S1                 0.0000
     17 ****         2.5520  -2.6175  -1.0005 C.3            1 S1                 0.0000
     18 ****        -3.8790   3.2857   0.5258 N.2            1 S1                 0.0000
     19 ****        -5.1509   3.8647   0.4423 O.3            1 S1                 0.0000
     20 ****        -8.0945   2.7979   1.5590 H              1 S1                 0.0000
     21 ****        -7.7564   3.9430   0.2607 H              1 S1                 0.0000
     22 ****        -7.5395   4.4287   1.9440 H              1 S1                 0.0000
     23 ****        -5.7773   1.3318   2.4385 H              1 S1                 0.0000
     24 ****        -3.3086   0.5743   2.3144 H              1 S1                 0.0000
     25 ****        -1.5395  -0.2843   2.5442 H              1 S1                 0.0000
     26 ****         0.9244   1.1497   2.0391 H              1 S1                 0.0000
     27 ****         0.7275  -0.4461   2.7240 H              1 S1                 0.0000
     28 ****         0.3318  -1.4063   0.4576 H              1 S1                 0.0000
     29 ****         0.4847   0.1760  -0.2668 H              1 S1                 0.0000
     30 ****         2.8136   0.3661   0.5950 H              1 S1                 0.0000
     31 ****         2.7400  -1.2516   1.2478 H              1 S1                 0.0000
     32 ****         4.2882   0.3055  -1.1501 H              1 S1                 0.0000
     33 ****         4.8568  -1.2202  -0.4995 H              1 S1                 0.0000
     34 ****         3.9149  -0.6870  -3.3682 H              1 S1                 0.0000
     35 ****         5.5648  -0.9722  -2.8687 H              1 S1                 0.0000
     36 ****         4.5121  -3.0348  -3.8452 H              1 S1                 0.0000
     37 ****         5.0210  -3.2835  -2.1894 H              1 S1                 0.0000
     38 ****         2.1772  -2.6651  -3.1310 H              1 S1                 0.0000
     39 ****         2.7414  -4.1874  -2.4838 H              1 S1                 0.0000
     40 ****         3.1721  -3.1445  -0.2733 H              1 S1                 0.0000
     41 ****         1.5169  -2.8673  -0.7704 H              1 S1                 0.0000
     42 ****         2.1834  -0.7024  -1.5592 H              1 S1                 0.0000
     43 ****        -1.7259   2.9829   0.3176 LP             1 S1                 0.0000
     44 ****        -0.1885   2.2163   0.5386 LP             1 S1                 0.0000
     45 ****        -3.0394   3.5953   0.0795 LP             1 S1                 0.0000
     46 ****        -5.1162   4.8038   0.7843 LP             1 S1                 0.0000
     47 ****        -5.4573   3.8678  -0.5096 LP             1 S1                 0.0000
@<TRIPOS>BOND
    1    1    2 1     
    2    1   20 1     
    3    1   21 1     
    4    1   22 1     
    5    2   19 1     
    6    2    3 2     
    7    3    4 1     
    8    3   23 1     
    9    4    5 1     
   10    4   18 2     
   11    5    6 am    
   12    5   24 1     
   13    6    7 2     
   14    6    8 am    
   15    8    9 1     
   16    8   25 1     
   17    9   10 1     
   18    9   26 1     
   19    9   27 1     
   20   10   11 1     
   21   10   28 1     
   22   10   29 1     
   23   11   12 1     
   24   11   30 1     
   25   11   31 1     
   26   12   17 1     
   27   12   13 1     
   28   12   42 1     
   29   13   14 1     
   30   13   32 1     
   31   13   33 1     
   32   14   15 1     
   33   14   34 1     
   34   14   35 1     
   35   15   16 1     
   36   15   36 1     
   37   15   37 1     
   38   16   17 1     
   39   16   38 1     
   40   16   39 1     
   41   17   40 1     
   42   17   41 1     
   43   18   19 1     
   44    7   43 1     
   45    7   44 1     
   46   18   45 1     
   47   19   46 1     
   48   19   47 1     
@<TRIPOS>SUBSTRUCTURE
      1 S1             1
@<TRIPOS>SET
LONE_PAIRS      STATIC     ATOMS    <user>   **** ""
5 43 44 45 46 47
DONOR_HYDROGENS      STATIC     ATOMS    <user>   **** ""
3 24 25 42
ATOM$BLUE        STATIC     ATOMS    COLORGROUP SYSTEM
5 43 44 45 46 47
ATOM$RED        STATIC     ATOMS    COLORGROUP SYSTEM
3 24 25 42
