AV-unprocessed.smi:2445|AV-procd|sdf|9640|dock1
  -GOLD-   2272013273D 1   1.00000     0.00000
 Structure written by MMmdl.
 40 41  0  0  0  0  0  0  0  0  1 V2000
  152.6364  138.5702  155.0544 C   0  0  0  0  0  0  0  0  0  0  0  0
  151.1753  138.5062  154.7654 C   0  0  0  0  0  0  0  0  0  0  0  0
  150.4130  137.3882  154.5346 C   0  0  0  0  0  0  0  0  0  0  0  0
  149.0656  137.6638  154.2933 N   0  0  0  0  0  0  0  0  0  0  0  0
  148.7934  138.9707  154.3399 C   0  0  0  0  0  0  0  0  0  0  0  0
  147.4278  139.5383  154.0897 C   0  0  1  0  0  0  0  0  0  0  0  0
  147.3610  141.0370  154.4148 C   0  0  0  0  0  0  0  0  0  0  0  0
  146.8953  139.2219  152.6733 C   0  0  0  0  0  0  0  0  0  0  0  0
  146.9950  137.8053  152.3331 N   0  0  0  0  0  0  0  0  0  0  0  0
  145.9535  136.9740  152.1969 C   0  0  0  0  0  0  0  0  0  0  0  0
  144.7761  137.3249  152.2747 O   0  0  0  0  0  0  0  0  0  0  0  0
  146.3508  135.7106  151.9973 N   0  0  0  0  0  0  0  0  0  0  0  0
  145.4585  134.5592  151.9127 C   0  0  1  0  0  0  0  0  0  0  0  0
  144.3767  134.7628  150.8725 C   0  0  0  0  0  0  0  0  0  0  0  0
  143.9890  133.3281  150.5256 C   0  0  0  0  0  0  0  0  0  0  0  0
  145.1491  132.5342  150.7556 O   0  0  0  0  0  0  0  0  0  0  0  0
  146.1715  133.3157  151.3663 C   0  0  2  0  0  0  0  0  0  0  0  0
  146.9125  132.4880  152.4236 C   0  0  0  0  0  0  0  0  0  0  0  0
  150.2120  139.9576  154.6812 S   0  0  0  0  0  0  0  0  0  0  0  0
  153.0478  137.5747  155.2237 H   0  0  0  0  0  0  0  0  0  0  0  0
  152.8293  139.1686  155.9449 H   0  0  0  0  0  0  0  0  0  0  0  0
  153.1751  139.0208  154.2207 H   0  0  0  0  0  0  0  0  0  0  0  0
  150.7461  136.3609  154.5225 H   0  0  0  0  0  0  0  0  0  0  0  0
  146.7561  139.0479  154.7960 H   0  0  0  0  0  0  0  0  0  0  0  0
  147.6599  141.2277  155.4461 H   0  0  0  0  0  0  0  0  0  0  0  0
  146.3483  141.4207  154.2887 H   0  0  0  0  0  0  0  0  0  0  0  0
  148.0174  141.6160  153.7647 H   0  0  0  0  0  0  0  0  0  0  0  0
  145.8639  139.5609  152.5660 H   0  0  0  0  0  0  0  0  0  0  0  0
  147.4777  139.7709  151.9330 H   0  0  0  0  0  0  0  0  0  0  0  0
  147.9248  137.4210  152.2502 H   0  0  0  0  0  0  0  0  0  0  0  0
  147.3418  135.5238  151.9487 H   0  0  0  0  0  0  0  0  0  0  0  0
  144.9894  134.3406  152.8743 H   0  0  0  0  0  0  0  0  0  0  0  0
  143.5365  135.3548  151.2365 H   0  0  0  0  0  0  0  0  0  0  0  0
  144.7831  135.2562  149.9881 H   0  0  0  0  0  0  0  0  0  0  0  0
  143.1967  132.9779  151.1882 H   0  0  0  0  0  0  0  0  0  0  0  0
  143.6374  133.2311  149.4982 H   0  0  0  0  0  0  0  0  0  0  0  0
  146.8663  133.6064  150.5764 H   0  0  0  0  0  0  0  0  0  0  0  0
  147.7236  133.0604  152.8742 H   0  0  0  0  0  0  0  0  0  0  0  0
  147.3480  131.5925  151.9804 H   0  0  0  0  0  0  0  0  0  0  0  0
  146.2399  132.1723  153.2215 H   0  0  0  0  0  0  0  0  0  0  0  0
  1  2  1  0  0  0  0
  1 20  1  0  0  0  0
  1 21  1  0  0  0  0
  1 22  1  0  0  0  0
  2 19  1  0  0  0  0
  2  3  2  0  0  0  0
  3  4  1  0  0  0  0
  3 23  1  0  0  0  0
  4  5  2  0  0  0  0
  5  6  1  0  0  0  0
  5 19  1  0  0  0  0
  6  7  1  0  0  0  0
  6  8  1  0  0  0  0
  6 24  1  0  0  0  0
  7 25  1  0  0  0  0
  7 26  1  0  0  0  0
  7 27  1  0  0  0  0
  8  9  1  0  0  0  0
  8 28  1  0  0  0  0
  8 29  1  0  0  0  0
  9 10  1  0  0  0  0
  9 30  1  0  0  0  0
 10 11  2  0  0  0  0
 10 12  1  0  0  0  0
 12 13  1  0  0  0  0
 12 31  1  0  0  0  0
 13 17  1  0  0  0  0
 13 14  1  0  0  0  0
 13 32  1  0  0  0  0
 14 15  1  0  0  0  0
 14 33  1  0  0  0  0
 14 34  1  0  0  0  0
 15 16  1  0  0  0  0
 15 35  1  0  0  0  0
 15 36  1  0  0  0  0
 16 17  1  0  0  0  0
 17 18  1  0  0  0  0
 17 37  1  0  0  0  0
 18 38  1  0  0  0  0
 18 39  1  0  0  0  0
 18 40  1  0  0  0  0
M  END
> <s_m_source_file>
AV-unprocessed.smi

> <i_m_source_file_index>
2445

> <i_lp_mmshare_version>
43012

> <i_f3d_flags>
0

> <s_epik_input>
W0NIM11jMVtjSF1uYyhzMSlbQ0BIXShbQ0gzXSlbQ0gyXVtOSF1DKD1PKVtOSF1bQ0BASF0yW0NIMl1bQ0gyXU9bQ0BIXTJbQ0gzXQ==

> <s_epik_cmdline>
J2VwaWtfcHl0aG9uJywgJy1waCcsICc3LjAnLCAnLXRuJywgJzgnLCAnLW1hJywgJzIwMCcsICctbWV0YWxfYmluZGluZycsICctaW1hZScsICc8aW5maWxlLm1hZT4nLCAnLW9tYWUnLCAnPG91dGZpbGUubWFlPic=

> <r_epik_Ionization_Penalty>
0.000649483

> <r_epik_Ionization_Penalty_Charging>
0

> <r_epik_Ionization_Penalty_Neutral>
0.000649483

> <r_epik_State_Penalty>
0.000379895

> <r_epik_Charging_Adjusted_Penalty>
0.000379895

> <i_epik_Tot_Q>
0

> <i_epik_Tot_abs_Q>
0

> <r_epik_Metal_State_Penalty>
-0

> <b_epik_Metal_Only>
0

> <s_lp_Force_Field>
OPLS_2005

> <r_lp_Energy>
5.35471

> <b_lp_Chiralities_Consistent>
1

> <s_lp_Variant>
AV-unprocessed.smi:2445-8

> <Gold.Version>
5.8.1

> <Gold.Id.Protein>
6NUR|6NUR_protein|mol2

> <Gold.PLP.Fitness>
37.6129

> <Gold.PLP.PLP>
-32.0568

> <Gold.PLP.part.hbond>
-2.0000

> <Gold.PLP.part.metal>
0.0000

> <Gold.PLP.part.buried>
-3.4622

> <Gold.PLP.part.nonpolar>
-30.4191

> <Gold.PLP.part.repulsive>
3.0406

> <Gold.PLP.ligand.clash>
0.0000

> <Gold.PLP.ligand.torsion>
0.2470

> <Gold.PLP.Chemscore.Hbond>
1.9760

> <Gold.PLP.Chemscore.CHOScore>
0.0000

> <Gold.PLP.Chemscore.Metal>
0.0000

> <Gold.Chemscore.Hbonds>
donor molecule, donor type, donor heavy atom, donor atom, acceptor molecule, acceptor atom, score
      L1  H     9    30       P1  7948  1.00
      L1  H    12    31       P1  7948  0.93

> <Gold.PLP.Chemscore.Internal.Correction>
0.1221

> <Gold.Rescore>
     Score         DG    S(hbond)    S(metal)    S(lipo)     H(rot)  DE(clash)    DE(int)     intcor
     16.78     -17.46       1.91        0.00      81.46       1.53       0.22       0.45       ----

> <Gold.Chemscore.Fitness>
16.7826

> <Gold.Chemscore.DG>
-17.4574

> <Gold.Chemscore.ZeroCoef>
-5.4800

> <Gold.Chemscore.Hbond>
1.9071

> <Gold.Chemscore.Metal>
0.0000

> <Gold.Chemscore.Lipo>
81.4602

> <Gold.Chemscore.Internal_Hbond>
0.0000

> <Gold.Chemscore.DEClash>
0.2246

> <Gold.Chemscore.DEInternal>
0.4502

> <Gold.Chemscore.Rot>
1.5325

> <Gold.Chemscore.Internal.Correction>
   9.000000E+99

> <Gold.Chemscore.Hbonds>
donor molecule, donor type, donor heavy atom, donor atom, acceptor molecule, acceptor atom, score
      L1  H     9    30       P1  7948  0.95
      L1  H    12    31       P1  7948  0.91

> <Gold.Chemscore.Hbond.Weighted>
-6.3699

> <Gold.Chemscore.Metal.Weighted>
-0.0000

> <Gold.Chemscore.Lipo.Weighted>
-9.5308

> <Gold.Chemscore.Internal_Hbond.Weighted>
0.0000

> <Gold.Chemscore.DEClash.Weighted>
0.2246

> <Gold.Chemscore.DEInternal.Weighted>
0.4502

> <Gold.Chemscore.Rot.Weighted>
3.9233

> <Gold.Chemscore.Internal.Correction.Weighted>
   9.000000E+99

> <Gold.Protein.RotatedTorsions>
[ 6907 6896 6895 6894 ] final   -4.28 input  -60.11 | X-H torsion
[ 7974 7965 7964 7962 ] final -166.26 input  175.53 | X-H torsion
[ 8008 7997 7996 7995 ] final  -46.04 input   59.86 | X-H torsion
[ 10167 10162 10161 10158 ] final -104.78 input  -65.29 | X-H torsion
[ 10718 10713 10712 10709 ] final  -74.72 input   66.30 | X-H torsion
[ 10763 10752 10751 10750 ] final  -68.48 input  -60.55 | X-H torsion
[ 11005 11000 10999 10996 ] final   33.15 input  -57.11 | X-H torsion

> <Gold.Protein.ActiveResidues>
 VAL166  LYS551  ARG553  GLY616  TRP617  ASP618  TYR619  PRO620  LYS621  CYS622 
 ASP623  PHE694  ASN695  SER759  ASP760  ASP761  ALA762  ILE779  LEU786  VAL792 
 PHE793  MET794  SER795  GLU796  ALA797  LYS798  CYS799  TRP800  GLU811  SER814 

> <Gold.Protein.RotatedAtoms>
  151.5002  135.1061  159.9826 H   0  0  0  0  0  0  0  0  0  0  0  0  # atno 6907 bound_to 6896
  152.4705  133.8014  159.6965 H   0  0  0  0  0  0  0  0  0  0  0  0  # atno 6908 bound_to 6896
  150.8711  133.7441  159.2987 H   0  0  0  0  0  0  0  0  0  0  0  0  # atno 6909 bound_to 6896
  144.7249  140.2692  143.6253 H   0  0  0  0  0  0  0  0  0  0  0  0  # atno 7974 bound_to 7965
  154.4004  140.1381  156.3947 H   0  0  0  0  0  0  0  0  0  0  0  0  # atno 8008 bound_to 7997
  155.7881  140.3479  155.5314 H   0  0  0  0  0  0  0  0  0  0  0  0  # atno 8009 bound_to 7997
  155.8607  140.0956  157.1606 H   0  0  0  0  0  0  0  0  0  0  0  0  # atno 8010 bound_to 7997
  140.2056  143.3785  152.1094 H   0  0  0  0  0  0  0  0  0  0  0  0  # atno 10167 bound_to 10162
  156.0233  130.4423  150.2934 H   0  0  0  0  0  0  0  0  0  0  0  0  # atno 10718 bound_to 10713
  154.3896  135.6055  153.5836 H   0  0  0  0  0  0  0  0  0  0  0  0  # atno 10763 bound_to 10752
  152.9787  135.5880  154.4313 H   0  0  0  0  0  0  0  0  0  0  0  0  # atno 10764 bound_to 10752
  154.4095  135.2844  155.2024 H   0  0  0  0  0  0  0  0  0  0  0  0  # atno 10765 bound_to 10752
  140.2661  134.3136  155.7842 H   0  0  0  0  0  0  0  0  0  0  0  0  # atno 11005 bound_to 11000
  145.8059  139.1983  143.2021 LP  0  0  0  0  0  0  0  0  0  0  0  0  # atno 17320 bound_to 7965
  146.0637  140.7943  142.9722 LP  0  0  0  0  0  0  0  0  0  0  0  0  # atno 17321 bound_to 7965
  139.5200  144.7027  151.5446 LP  0  0  0  0  0  0  0  0  0  0  0  0  # atno 17342 bound_to 10162
  140.6360  143.8983  150.6648 LP  0  0  0  0  0  0  0  0  0  0  0  0  # atno 17343 bound_to 10162
  157.1038  131.0203  151.3075 LP  0  0  0  0  0  0  0  0  0  0  0  0  # atno 17370 bound_to 10713
  157.4759  130.7736  149.7367 LP  0  0  0  0  0  0  0  0  0  0  0  0  # atno 17371 bound_to 10713
  141.2184  133.7438  156.9262 LP  0  0  0  0  0  0  0  0  0  0  0  0  # atno 17394 bound_to 11000
  140.1418  134.9289  157.2476 LP  0  0  0  0  0  0  0  0  0  0  0  0  # atno 17395 bound_to 11000

$$$$
