#       Name:                AV-unprocessed.smi:2090
#       Creating user name   scv26
#       Creation time:       Fri Mar 27 11:25:28 2020


#       File generated by GOLD software.
#

@<TRIPOS>MOLECULE
AV-unprocessed.smi:2090
    47    48     1
SMALL
NO_CHARGES


@<TRIPOS>ATOM
      1 ****        -6.5367   4.8834   1.7703 C.3            1 S1                 0.0000
      2 ****        -5.2532   4.1392   1.6295 C.2            1 S1                 0.0000
      3 ****        -4.8936   2.8464   1.8885 C.2            1 S1                 0.0000
      4 ****        -3.5212   2.8176   1.5241 C.2            1 S1                 0.0000
      5 ****        -2.7609   1.6260   1.6411 N.am           1 S1                 0.0000
      6 ****        -1.4673   1.4480   1.3231 C.2            1 S1                 0.0000
      7 ****        -0.7169   2.3200   0.8835 O.2            1 S1                 0.0000
      8 ****        -1.0782   0.1828   1.5385 N.am           1 S1                 0.0000
      9 ****         0.2651  -0.3269   1.2868 C.3            1 S1                 0.0000
     10 ****         0.4965  -0.5945  -0.2133 C.3            1 S1                 0.0000
     11 ****         1.8787  -1.0526  -0.5027 N.4            1 S1                 1.0000
     12 ****         2.2657  -0.8017  -1.9151 C.3            1 S1                 0.0000
     13 ****         3.7442  -1.1516  -2.1606 C.3            1 S1                 0.0000
     14 ****         4.0724  -2.6021  -1.7637 C.3            1 S1                 0.0000
     15 ****         3.5185  -3.6330  -2.7629 C.3            1 S1                 0.0000
     16 ****         3.5990  -2.8559  -0.3209 C.3            1 S1                 0.0000
     17 ****         2.1241  -2.4663  -0.1119 C.3            1 S1                 0.0000
     18 ****        -3.0825   3.9868   1.0836 N.2            1 S1                 0.0000
     19 ****        -4.1901   4.8401   1.1500 O.3            1 S1                 0.0000
     20 ****        -7.3504   4.2102   2.0402 H              1 S1                 0.0000
     21 ****        -6.8026   5.3763   0.8350 H              1 S1                 0.0000
     22 ****        -6.4575   5.6462   2.5450 H              1 S1                 0.0000
     23 ****        -5.5155   2.0523   2.2744 H              1 S1                 0.0000
     24 ****        -3.2585   0.8230   1.9963 H              1 S1                 0.0000
     25 ****        -1.7559  -0.4704   1.9045 H              1 S1                 0.0000
     26 ****         1.0066   0.3768   1.6694 H              1 S1                 0.0000
     27 ****         0.3761  -1.2418   1.8676 H              1 S1                 0.0000
     28 ****        -0.2226  -1.3214  -0.5940 H              1 S1                 0.0000
     29 ****         0.3126   0.3318  -0.7591 H              1 S1                 0.0000
     30 ****         1.6193  -1.3757  -2.5801 H              1 S1                 0.0000
     31 ****         2.1086   0.2501  -2.1578 H              1 S1                 0.0000
     32 ****         4.0018  -0.9774  -3.2061 H              1 S1                 0.0000
     33 ****         4.3687  -0.4721  -1.5792 H              1 S1                 0.0000
     34 ****         5.1578  -2.7106  -1.7791 H              1 S1                 0.0000
     35 ****         2.4306  -3.6090  -2.8198 H              1 S1                 0.0000
     36 ****         3.8106  -4.6452  -2.4815 H              1 S1                 0.0000
     37 ****         3.9048  -3.4496  -3.7660 H              1 S1                 0.0000
     38 ****         3.7519  -3.9016  -0.0520 H              1 S1                 0.0000
     39 ****         4.2175  -2.2749   0.3647 H              1 S1                 0.0000
     40 ****         1.8713  -2.6168   0.9367 H              1 S1                 0.0000
     41 ****         1.4705  -3.1243  -0.6860 H              1 S1                 0.0000
     42 ****         2.4913  -0.4797   0.0602 H              1 S1                 0.0000
     43 ****        -1.0601   3.2478   0.7374 LP             1 S1                 0.0000
     44 ****         0.2356   2.1001   0.6725 LP             1 S1                 0.0000
     45 ****        -2.1596   4.2115   0.7711 LP             1 S1                 0.0000
     46 ****        -3.9888   5.6057   1.7609 LP             1 S1                 0.0000
     47 ****        -4.4013   5.1888   0.2369 LP             1 S1                 0.0000
@<TRIPOS>BOND
    1    1    2 1     
    2    1   20 1     
    3    1   21 1     
    4    1   22 1     
    5    2   19 1     
    6    2    3 2     
    7    3    4 1     
    8    3   23 1     
    9    4    5 1     
   10    4   18 2     
   11    5    6 am    
   12    5   24 1     
   13    6    7 2     
   14    6    8 am    
   15    8    9 1     
   16    8   25 1     
   17    9   10 1     
   18    9   26 1     
   19    9   27 1     
   20   10   11 1     
   21   10   28 1     
   22   10   29 1     
   23   11   17 1     
   24   11   12 1     
   25   11   42 1     
   26   12   13 1     
   27   12   30 1     
   28   12   31 1     
   29   13   14 1     
   30   13   32 1     
   31   13   33 1     
   32   14   15 1     
   33   14   16 1     
   34   14   34 1     
   35   15   35 1     
   36   15   36 1     
   37   15   37 1     
   38   16   17 1     
   39   16   38 1     
   40   16   39 1     
   41   17   40 1     
   42   17   41 1     
   43   18   19 1     
   44    7   43 1     
   45    7   44 1     
   46   18   45 1     
   47   19   46 1     
   48   19   47 1     
@<TRIPOS>SUBSTRUCTURE
      1 S1             1
@<TRIPOS>SET
LONE_PAIRS      STATIC     ATOMS    <user>   **** ""
5 43 44 45 46 47
DONOR_HYDROGENS      STATIC     ATOMS    <user>   **** ""
3 24 25 42
ATOM$BLUE        STATIC     ATOMS    COLORGROUP SYSTEM
5 43 44 45 46 47
ATOM$RED        STATIC     ATOMS    COLORGROUP SYSTEM
3 24 25 42
