AV-unprocessed.smi:754|AV-procd|sdf|3609|dock10
  -GOLD-   22720 1 03D 1   1.00000     0.00000
 Structure written by MMmdl.
 37 38  0  0  0  0  0  0  0  0  1 V2000
  154.0249  141.4372  159.7374 C   0  0  0  0  0  0  0  0  0  0  0  0
  152.5586  141.5532  160.1587 C   0  0  0  0  0  0  0  0  0  0  0  0
  151.7528  140.8920  159.1980 O   0  0  0  0  0  0  0  0  0  0  0  0
  151.8466  141.4708  157.9060 C   0  0  2  0  0  0  0  0  0  0  0  0
  150.9110  142.6610  157.6718 C   0  0  0  0  0  0  0  0  0  0  0  0
  150.7185  142.0928  156.2649 C   0  0  2  0  0  0  0  0  0  0  0  0
  149.3489  142.2320  155.7865 N   0  0  0  0  0  0  0  0  0  0  0  0
  148.8769  141.6666  154.6656 C   0  0  0  0  0  0  0  0  0  0  0  0
  149.5825  141.0519  153.8666 O   0  0  0  0  0  0  0  0  0  0  0  0
  147.3726  141.7887  154.4239 C   0  0  0  0  0  0  0  0  0  0  0  0
  146.7835  140.4820  154.1957 N   0  0  0  0  0  0  0  0  0  0  0  0
  146.9585  139.6013  153.2081 C   0  0  0  0  0  0  0  0  0  0  0  0
  146.1962  138.5304  153.3668 N   0  0  0  0  0  0  0  0  0  0  0  0
  145.5174  138.7994  154.5437 N   0  0  0  0  0  0  0  0  0  0  0  0
  145.8616  139.9559  155.0402 N   0  0  0  0  0  0  0  0  0  0  0  0
  151.0592  140.6861  156.8281 C   0  0  0  0  0  0  0  0  0  0  0  0
  151.8989  139.7902  155.9179 C   0  0  0  0  0  0  0  0  0  0  0  0
  149.8855  139.8294  157.3378 C   0  0  0  0  0  0  0  0  0  0  0  0
  154.6769  141.9380  160.4531 H   0  0  0  0  0  0  0  0  0  0  0  0
  154.1880  141.8922  158.7601 H   0  0  0  0  0  0  0  0  0  0  0  0
  154.3329  140.3931  159.6772 H   0  0  0  0  0  0  0  0  0  0  0  0
  152.4195  141.1074  161.1443 H   0  0  0  0  0  0  0  0  0  0  0  0
  152.2737  142.6039  160.2280 H   0  0  0  0  0  0  0  0  0  0  0  0
  152.8752  141.6757  157.5993 H   0  0  0  0  0  0  0  0  0  0  0  0
  150.0129  142.6313  158.2915 H   0  0  0  0  0  0  0  0  0  0  0  0
  151.3974  143.6360  157.7088 H   0  0  0  0  0  0  0  0  0  0  0  0
  151.4753  142.4688  155.5720 H   0  0  0  0  0  0  0  0  0  0  0  0
  148.7035  142.7291  156.3829 H   0  0  0  0  0  0  0  0  0  0  0  0
  146.8910  142.2509  155.2866 H   0  0  0  0  0  0  0  0  0  0  0  0
  147.1770  142.4269  153.5609 H   0  0  0  0  0  0  0  0  0  0  0  0
  147.6306  139.7478  152.3755 H   0  0  0  0  0  0  0  0  0  0  0  0
  151.3163  139.4193  155.0741 H   0  0  0  0  0  0  0  0  0  0  0  0
  152.2880  138.9258  156.4568 H   0  0  0  0  0  0  0  0  0  0  0  0
  152.7546  140.3264  155.5067 H   0  0  0  0  0  0  0  0  0  0  0  0
  149.2818  139.4428  156.5156 H   0  0  0  0  0  0  0  0  0  0  0  0
  149.2166  140.3927  157.9886 H   0  0  0  0  0  0  0  0  0  0  0  0
  150.2387  138.9716  157.9106 H   0  0  0  0  0  0  0  0  0  0  0  0
  1  2  1  0  0  0  0
  1 19  1  0  0  0  0
  1 20  1  0  0  0  0
  1 21  1  0  0  0  0
  2  3  1  0  0  0  0
  2 22  1  0  0  0  0
  2 23  1  0  0  0  0
  3  4  1  0  0  0  0
  4 16  1  0  0  0  0
  4  5  1  0  0  0  0
  4 24  1  0  0  0  0
  5  6  1  0  0  0  0
  5 25  1  0  0  0  0
  5 26  1  0  0  0  0
  6  7  1  0  0  0  0
  6 16  1  0  0  0  0
  6 27  1  0  0  0  0
  7  8  1  0  0  0  0
  7 28  1  0  0  0  0
  8  9  2  0  0  0  0
  8 10  1  0  0  0  0
 10 11  1  0  0  0  0
 10 29  1  0  0  0  0
 10 30  1  0  0  0  0
 11 15  1  0  0  0  0
 11 12  1  0  0  0  0
 12 13  2  0  0  0  0
 12 31  1  0  0  0  0
 13 14  1  0  0  0  0
 14 15  2  0  0  0  0
 16 17  1  0  0  0  0
 16 18  1  0  0  0  0
 17 32  1  0  0  0  0
 17 33  1  0  0  0  0
 17 34  1  0  0  0  0
 18 35  1  0  0  0  0
 18 36  1  0  0  0  0
 18 37  1  0  0  0  0
M  END
> <s_m_source_file>
AV-unprocessed.smi

> <i_m_source_file_index>
754

> <i_lp_mmshare_version>
43012

> <i_f3d_flags>
0

> <s_epik_input>
W0NIM11bQ0gyXU9bQ0BASF0oQzEoW0NIM10pW0NIM10pW0NIMl1bQ0BIXTFbTkhdQyg9TylbQ0gyXW4yW2NIXW5ubjI=

> <s_epik_cmdline>
J2VwaWtfcHl0aG9uJywgJy1waCcsICc3LjAnLCAnLXRuJywgJzgnLCAnLW1hJywgJzIwMCcsICctbWV0YWxfYmluZGluZycsICctaW1hZScsICc8aW5maWxlLm1hZT4nLCAnLW9tYWUnLCAnPG91dGZpbGUubWFlPic=

> <r_lp_tautomer_probability>
1

> <r_epik_Ionization_Penalty>
8.28422e-07

> <r_epik_Ionization_Penalty_Charging>
0

> <r_epik_Ionization_Penalty_Neutral>
8.28422e-07

> <r_epik_State_Penalty>
-0

> <r_epik_Charging_Adjusted_Penalty>
0

> <i_epik_Tot_Q>
0

> <i_epik_Tot_abs_Q>
0

> <r_epik_Metal_State_Penalty>
-0

> <b_epik_Metal_Only>
0

> <s_lp_Force_Field>
OPLS_2005

> <r_lp_Energy>
20.4803

> <b_lp_Chiralities_Consistent>
1

> <s_lp_Variant>
AV-unprocessed.smi:754-3

> <Gold.Version>
5.8.1

> <Gold.Id.Protein>
6NUR|6NUR_protein|mol2

> <Gold.PLP.Fitness>
37.3324

> <Gold.PLP.PLP>
-30.5466

> <Gold.PLP.part.hbond>
-2.9957

> <Gold.PLP.part.metal>
0.0000

> <Gold.PLP.part.buried>
-3.0064

> <Gold.PLP.part.nonpolar>
-26.6925

> <Gold.PLP.part.repulsive>
2.5118

> <Gold.PLP.ligand.clash>
0.0000

> <Gold.PLP.ligand.torsion>
0.3163

> <Gold.PLP.Chemscore.Hbond>
1.3642

> <Gold.PLP.Chemscore.CHOScore>
1.0000

> <Gold.PLP.Chemscore.Metal>
0.0000

> <Gold.Chemscore.Hbonds>
donor molecule, donor type, donor heavy atom, donor atom, acceptor molecule, acceptor atom, score
      L1  H     7    28       P1  8028  0.04
      P1  H  7989  7998       L1     9  0.34
      P1  H  8011  8017       L1     9  0.84
      L1  C    12    31       P1  7957  1.00

> <Gold.PLP.Chemscore.Internal.Correction>
0.3257

> <Gold.Rescore>
     Score         DG    S(hbond)    S(metal)    S(lipo)     H(rot)  DE(clash)    DE(int)     intcor
      8.93      -9.74       1.01        0.00      61.43       2.46       0.45       0.36       ----

> <Gold.Chemscore.Fitness>
8.9259

> <Gold.Chemscore.DG>
-9.7378

> <Gold.Chemscore.ZeroCoef>
-5.4800

> <Gold.Chemscore.Hbond>
1.0097

> <Gold.Chemscore.Metal>
0.0000

> <Gold.Chemscore.Lipo>
61.4284

> <Gold.Chemscore.Internal_Hbond>
0.0000

> <Gold.Chemscore.DEClash>
0.4483

> <Gold.Chemscore.DEInternal>
0.3636

> <Gold.Chemscore.Rot>
2.4616

> <Gold.Chemscore.Internal.Correction>
   9.000000E+99

> <Gold.Chemscore.Hbonds>
donor molecule, donor type, donor heavy atom, donor atom, acceptor molecule, acceptor atom, score
      L1  H     7    28       P1  8028  0.06
      P1  H  7989  7998       L1     9  0.34
      P1  H  8011  8017       L1     9  0.27

> <Gold.Chemscore.Hbond.Weighted>
-3.3723

> <Gold.Chemscore.Metal.Weighted>
-0.0000

> <Gold.Chemscore.Lipo.Weighted>
-7.1871

> <Gold.Chemscore.Internal_Hbond.Weighted>
0.0000

> <Gold.Chemscore.DEClash.Weighted>
0.4483

> <Gold.Chemscore.DEInternal.Weighted>
0.3636

> <Gold.Chemscore.Rot.Weighted>
6.3016

> <Gold.Chemscore.Internal.Correction.Weighted>
   9.000000E+99

> <Gold.Protein.RotatedTorsions>
[ 6907 6896 6895 6894 ] final -175.21 input  -60.11 | X-H torsion
[ 7974 7965 7964 7962 ] final   42.44 input  175.53 | X-H torsion
[ 8008 7997 7996 7995 ] final -102.44 input   59.86 | X-H torsion
[ 10167 10162 10161 10158 ] final -130.46 input  -65.29 | X-H torsion
[ 10718 10713 10712 10709 ] final  -26.98 input   66.30 | X-H torsion
[ 10763 10752 10751 10750 ] final -130.95 input  -60.55 | X-H torsion
[ 11005 11000 10999 10996 ] final  151.53 input  -57.11 | X-H torsion

> <Gold.Protein.ActiveResidues>
 VAL166  LYS551  ARG553  GLY616  TRP617  ASP618  TYR619  PRO620  LYS621  CYS622 
 ASP623  PHE694  ASN695  SER759  ASP760  ASP761  ALA762  ILE779  LEU786  VAL792 
 PHE793  MET794  SER795  GLU796  ALA797  LYS798  CYS799  TRP800  GLU811  SER814 

> <Gold.Protein.RotatedAtoms>
  151.5848  133.3373  159.3015 H   0  0  0  0  0  0  0  0  0  0  0  0  # atno 6907 bound_to 6896
  150.8293  134.7541  159.6851 H   0  0  0  0  0  0  0  0  0  0  0  0  # atno 6908 bound_to 6896
  152.4378  134.5657  159.9958 H   0  0  0  0  0  0  0  0  0  0  0  0  # atno 6909 bound_to 6896
  146.0740  139.5300  142.9579 H   0  0  0  0  0  0  0  0  0  0  0  0  # atno 7974 bound_to 7965
  154.8567  140.0428  157.1639 H   0  0  0  0  0  0  0  0  0  0  0  0  # atno 8008 bound_to 7997
  154.8884  140.2983  155.5364 H   0  0  0  0  0  0  0  0  0  0  0  0  # atno 8009 bound_to 7997
  156.2997  140.2398  156.3896 H   0  0  0  0  0  0  0  0  0  0  0  0  # atno 8010 bound_to 7997
  139.9291  143.6293  152.2534 H   0  0  0  0  0  0  0  0  0  0  0  0  # atno 10167 bound_to 10162
  156.4441  130.4470  149.7033 H   0  0  0  0  0  0  0  0  0  0  0  0  # atno 10718 bound_to 10713
  154.8753  135.3846  154.4166 H   0  0  0  0  0  0  0  0  0  0  0  0  # atno 10763 bound_to 10752
  153.4874  135.7030  153.5908 H   0  0  0  0  0  0  0  0  0  0  0  0  # atno 10764 bound_to 10752
  153.4297  135.3881  155.2130 H   0  0  0  0  0  0  0  0  0  0  0  0  # atno 10765 bound_to 10752
  140.1227  134.8853  157.2095 H   0  0  0  0  0  0  0  0  0  0  0  0  # atno 11005 bound_to 11000
  145.6340  141.0298  143.1848 LP  0  0  0  0  0  0  0  0  0  0  0  0  # atno 17320 bound_to 7965
  144.7249  139.7907  143.7368 LP  0  0  0  0  0  0  0  0  0  0  0  0  # atno 17321 bound_to 7965
  139.6797  144.7656  151.1630 LP  0  0  0  0  0  0  0  0  0  0  0  0  # atno 17342 bound_to 10162
  140.7642  143.5742  150.8963 LP  0  0  0  0  0  0  0  0  0  0  0  0  # atno 17343 bound_to 10162
  156.3885  130.7615  151.2614 LP  0  0  0  0  0  0  0  0  0  0  0  0  # atno 17370 bound_to 10713
  157.7505  131.0274  150.4006 LP  0  0  0  0  0  0  0  0  0  0  0  0  # atno 17371 bound_to 10713
  140.2944  134.3204  155.7306 LP  0  0  0  0  0  0  0  0  0  0  0  0  # atno 17394 bound_to 11000
  141.2155  133.7554  156.9549 LP  0  0  0  0  0  0  0  0  0  0  0  0  # atno 17395 bound_to 11000

$$$$
