AV-unprocessed.smi:809|AV-procd|sdf|3805|dock2
  -GOLD-   22720 1243D 1   1.00000     0.00000
 Structure written by MMmdl.
 40 41  0  0  0  0  0  0  0  0  2 V2000
  152.8615  142.2682  161.3742 C   0  0  0  0  0  0  0  0  0  0  0  0
  152.3995  142.9480  160.1237 C   0  0  0  0  0  0  0  0  0  0  0  0
  153.0675  143.9163  159.4143 C   0  0  0  0  0  0  0  0  0  0  0  0
  152.1712  144.4347  158.0117 S   0  0  0  0  0  0  0  0  0  0  0  0
  150.9042  143.3001  158.4509 C   0  0  0  0  0  0  0  0  0  0  0  0
  149.7277  143.1509  157.6710 N   0  0  0  0  0  0  0  0  0  0  0  0
  148.9129  142.0846  157.5926 C   0  0  0  0  0  0  0  0  0  0  0  0
  149.0423  141.0409  158.2325 O   0  0  0  0  0  0  0  0  0  0  0  0
  147.9224  142.2969  156.7145 N   0  0  0  0  0  0  0  0  0  0  0  0
  146.8828  141.3309  156.3678 C   0  0  0  0  0  0  0  0  0  0  0  0
  147.2123  140.4871  155.1082 C   0  0  1  0  0  0  0  0  0  0  0  0
  148.4955  139.9216  155.3079 O   0  0  0  0  0  0  0  0  0  0  0  0
  146.2116  139.3161  154.9872 C   0  0  0  0  0  0  0  0  0  0  0  0
  146.4084  138.4908  153.7026 C   0  0  0  0  0  0  0  0  0  0  0  0
  146.3454  139.3560  152.5004 N   0  3  2  0  0  0  0  0  0  0  0  0
  146.3967  138.5780  151.2439 C   0  0  0  0  0  0  0  0  0  0  0  0
  147.3664  140.4304  152.5422 C   0  0  0  0  0  0  0  0  0  0  0  0
  147.2021  141.3086  153.7965 C   0  0  0  0  0  0  0  0  0  0  0  0
  151.1662  142.6040  159.5631 N   0  0  0  0  0  0  0  0  0  0  0  0
  153.7468  142.7520  161.7875 H   0  0  0  0  0  0  0  0  0  0  0  0
  153.1140  141.2252  161.1827 H   0  0  0  0  0  0  0  0  0  0  0  0
  152.0882  142.2864  162.1425 H   0  0  0  0  0  0  0  0  0  0  0  0
  154.0308  144.3538  159.6303 H   0  0  0  0  0  0  0  0  0  0  0  0
  149.4858  143.9451  157.0971 H   0  0  0  0  0  0  0  0  0  0  0  0
  147.8902  143.1882  156.2418 H   0  0  0  0  0  0  0  0  0  0  0  0
  146.6399  140.6924  157.2196 H   0  0  0  0  0  0  0  0  0  0  0  0
  145.9858  141.9215  156.1791 H   0  0  0  0  0  0  0  0  0  0  0  0
  148.8293  140.2008  156.1463 H   0  0  0  0  0  0  0  0  0  0  0  0
  146.2829  138.6643  155.8594 H   0  0  0  0  0  0  0  0  0  0  0  0
  145.1940  139.7093  154.9893 H   0  0  0  0  0  0  0  0  0  0  0  0
  147.3644  137.9650  153.7279 H   0  0  0  0  0  0  0  0  0  0  0  0
  145.6320  137.7271  153.6423 H   0  0  0  0  0  0  0  0  0  0  0  0
  147.3474  138.0519  151.1469 H   0  0  0  0  0  0  0  0  0  0  0  0
  146.2776  139.2325  150.3799 H   0  0  0  0  0  0  0  0  0  0  0  0
  145.5934  137.8412  151.2143 H   0  0  0  0  0  0  0  0  0  0  0  0
  148.3641  139.9890  152.5159 H   0  0  0  0  0  0  0  0  0  0  0  0
  147.2760  141.0537  151.6518 H   0  0  0  0  0  0  0  0  0  0  0  0
  146.2607  141.8550  153.7233 H   0  0  0  0  0  0  0  0  0  0  0  0
  147.9912  142.0616  153.8069 H   0  0  0  0  0  0  0  0  0  0  0  0
  145.4440  139.8117  152.5181 H   0  0  0  0  0  0  0  0  0  0  0  0
  1  2  1  0  0  0  0
  1 20  1  0  0  0  0
  1 21  1  0  0  0  0
  1 22  1  0  0  0  0
  2 19  1  0  0  0  0
  2  3  2  0  0  0  0
  3  4  1  0  0  0  0
  3 23  1  0  0  0  0
  4  5  1  0  0  0  0
  5  6  1  0  0  0  0
  5 19  2  0  0  0  0
  6  7  1  0  0  0  0
  6 24  1  0  0  0  0
  7  8  2  0  0  0  0
  7  9  1  0  0  0  0
  9 10  1  0  0  0  0
  9 25  1  0  0  0  0
 10 11  1  0  0  0  0
 10 26  1  0  0  0  0
 10 27  1  0  0  0  0
 11 18  1  0  0  0  0
 11 12  1  0  0  0  0
 11 13  1  0  0  0  0
 12 28  1  0  0  0  0
 13 14  1  0  0  0  0
 13 29  1  0  0  0  0
 13 30  1  0  0  0  0
 14 15  1  0  0  0  0
 14 31  1  0  0  0  0
 14 32  1  0  0  0  0
 15 16  1  0  0  0  0
 15 17  1  0  0  0  0
 15 40  1  0  0  0  0
 16 33  1  0  0  0  0
 16 34  1  0  0  0  0
 16 35  1  0  0  0  0
 17 18  1  0  0  0  0
 17 36  1  0  0  0  0
 17 37  1  0  0  0  0
 18 38  1  0  0  0  0
 18 39  1  0  0  0  0
M  CHG  1  15   1
M  END
> <s_m_source_file>
AV-unprocessed.smi

> <i_m_source_file_index>
809

> <i_lp_mmshare_version>
43012

> <i_f3d_flags>
0

> <s_epik_input>
W0NIM11jMVtjSF1zYyhuMSlbTkhdQyg9TylbTkhdW0NIMl1DMihbT0hdKVtDSDJdW0NIMl1OKFtDSDNdKVtDSDJdW0NIMl0y

> <s_epik_cmdline>
J2VwaWtfcHl0aG9uJywgJy1waCcsICc3LjAnLCAnLXRuJywgJzgnLCAnLW1hJywgJzIwMCcsICctbWV0YWxfYmluZGluZycsICctaW1hZScsICc8aW5maWxlLm1hZT4nLCAnLW9tYWUnLCAnPG91dGZpbGUubWFlPic=

> <r_lp_tautomer_probability>
0.999

> <r_epik_Ionization_Penalty>
0.00116503

> <r_epik_Ionization_Penalty_Charging>
0.000767707

> <r_epik_Ionization_Penalty_Neutral>
0.00039732

> <r_epik_State_Penalty>
0.000177984

> <r_epik_Charging_Adjusted_Penalty>
0.00094569

> <i_epik_Tot_Q>
1

> <i_epik_Tot_abs_Q>
1

> <r_epik_Metal_State_Penalty>
0.00775393

> <b_epik_Metal_Only>
0

> <s_lp_Force_Field>
OPLS_2005

> <r_lp_Energy>
16.8218

> <b_lp_Chiralities_Consistent>
1

> <s_lp_Variant>
AV-unprocessed.smi:809-1

> <Gold.Version>
5.8.1

> <Gold.Id.Protein>
6NUR|6NUR_protein|mol2

> <Gold.PLP.Fitness>
43.9949

> <Gold.PLP.PLP>
-32.7253

> <Gold.PLP.part.hbond>
-4.2404

> <Gold.PLP.part.metal>
0.0000

> <Gold.PLP.part.buried>
0.5648

> <Gold.PLP.part.nonpolar>
-29.4311

> <Gold.PLP.part.repulsive>
0.0824

> <Gold.PLP.ligand.clash>
0.0000

> <Gold.PLP.ligand.torsion>
0.3674

> <Gold.PLP.Chemscore.Hbond>
4.0000

> <Gold.PLP.Chemscore.CHOScore>
0.0000

> <Gold.PLP.Chemscore.Metal>
0.0000

> <Gold.Chemscore.Hbonds>
donor molecule, donor type, donor heavy atom, donor atom, acceptor molecule, acceptor atom, score
      L1  H     6    24       P1  8028  1.00
      L1  H     9    25       P1  8028  0.91
      L1  H    15    40       P1 10175  2.00

> <Gold.PLP.Chemscore.Internal.Correction>
0.0045

> <Gold.Rescore>
     Score         DG    S(hbond)    S(metal)    S(lipo)     H(rot)  DE(clash)    DE(int)     intcor
     16.95     -18.98       2.69        0.00      79.02       1.85       0.49       1.54       ----

> <Gold.Chemscore.Fitness>
16.9487

> <Gold.Chemscore.DG>
-18.9812

> <Gold.Chemscore.ZeroCoef>
-5.4800

> <Gold.Chemscore.Hbond>
2.6899

> <Gold.Chemscore.Metal>
0.0000

> <Gold.Chemscore.Lipo>
79.0209

> <Gold.Chemscore.Internal_Hbond>
0.0000

> <Gold.Chemscore.DEClash>
0.4888

> <Gold.Chemscore.DEInternal>
1.5437

> <Gold.Chemscore.Rot>
1.8471

> <Gold.Chemscore.Internal.Correction>
   9.000000E+99

> <Gold.Chemscore.Hbonds>
donor molecule, donor type, donor heavy atom, donor atom, acceptor molecule, acceptor atom, score
      L1  H     6    24       P1  8028  0.59
      L1  H     9    25       P1  8028  0.20
      L1  H    15    40       P1 10175  0.99

> <Gold.Chemscore.Hbond.Weighted>
-8.9844

> <Gold.Chemscore.Metal.Weighted>
-0.0000

> <Gold.Chemscore.Lipo.Weighted>
-9.2454

> <Gold.Chemscore.Internal_Hbond.Weighted>
0.0000

> <Gold.Chemscore.DEClash.Weighted>
0.4888

> <Gold.Chemscore.DEInternal.Weighted>
1.5437

> <Gold.Chemscore.Rot.Weighted>
4.7286

> <Gold.Chemscore.Internal.Correction.Weighted>
   9.000000E+99

> <Gold.Protein.RotatedTorsions>
[ 6907 6896 6895 6894 ] final -125.98 input  -60.11 | X-H torsion
[ 7974 7965 7964 7962 ] final  -70.80 input  175.53 | X-H torsion
[ 8008 7997 7996 7995 ] final  127.18 input   59.86 | X-H torsion
[ 10167 10162 10161 10158 ] final   25.60 input  -65.29 | X-H torsion
[ 10718 10713 10712 10709 ] final -138.23 input   66.30 | X-H torsion
[ 10763 10752 10751 10750 ] final   54.68 input  -60.55 | X-H torsion
[ 11005 11000 10999 10996 ] final   19.42 input  -57.11 | X-H torsion

> <Gold.Protein.ActiveResidues>
 VAL166  LYS551  ARG553  GLY616  TRP617  ASP618  TYR619  PRO620  LYS621  CYS622 
 ASP623  PHE694  ASN695  SER759  ASP760  ASP761  ALA762  ILE779  LEU786  VAL792 
 PHE793  MET794  SER795  GLU796  ALA797  LYS798  CYS799  TRP800  GLU811  SER814 

> <Gold.Protein.RotatedAtoms>
  150.8922  133.7227  159.2901 H   0  0  0  0  0  0  0  0  0  0  0  0  # atno 6907 bound_to 6896
  151.4774  135.1048  159.9778 H   0  0  0  0  0  0  0  0  0  0  0  0  # atno 6908 bound_to 6896
  152.4827  133.8248  159.7128 H   0  0  0  0  0  0  0  0  0  0  0  0  # atno 6909 bound_to 6896
  145.6862  140.9170  143.0806 H   0  0  0  0  0  0  0  0  0  0  0  0  # atno 7974 bound_to 7965
  156.2884  140.2675  156.2232 H   0  0  0  0  0  0  0  0  0  0  0  0  # atno 8008 bound_to 7997
  155.0147  140.0387  157.2431 H   0  0  0  0  0  0  0  0  0  0  0  0  # atno 8009 bound_to 7997
  154.7487  140.2739  155.6316 H   0  0  0  0  0  0  0  0  0  0  0  0  # atno 8010 bound_to 7997
  140.5093  144.0187  150.6365 H   0  0  0  0  0  0  0  0  0  0  0  0  # atno 10167 bound_to 10162
  156.2971  130.7407  151.1449 H   0  0  0  0  0  0  0  0  0  0  0  0  # atno 10718 bound_to 10713
  152.9807  135.5736  154.4944 H   0  0  0  0  0  0  0  0  0  0  0  0  # atno 10763 bound_to 10752
  154.4473  135.2777  155.1808 H   0  0  0  0  0  0  0  0  0  0  0  0  # atno 10764 bound_to 10752
  154.3451  135.6221  153.5668 H   0  0  0  0  0  0  0  0  0  0  0  0  # atno 10765 bound_to 10752
  140.4139  134.1589  155.7669 H   0  0  0  0  0  0  0  0  0  0  0  0  # atno 11005 bound_to 11000
  144.7010  139.8762  143.7444 LP  0  0  0  0  0  0  0  0  0  0  0  0  # atno 17320 bound_to 7965
  146.0921  139.3912  143.0399 LP  0  0  0  0  0  0  0  0  0  0  0  0  # atno 17321 bound_to 7965
  140.3505  143.2966  152.0492 LP  0  0  0  0  0  0  0  0  0  0  0  0  # atno 17342 bound_to 10162
  139.4892  144.6377  151.6942 LP  0  0  0  0  0  0  0  0  0  0  0  0  # atno 17343 bound_to 10162
  157.7358  131.0569  150.5449 LP  0  0  0  0  0  0  0  0  0  0  0  0  # atno 17370 bound_to 10713
  156.5572  130.4246  149.6079 LP  0  0  0  0  0  0  0  0  0  0  0  0  # atno 17371 bound_to 10713
  141.1810  133.8413  157.1256 LP  0  0  0  0  0  0  0  0  0  0  0  0  # atno 17394 bound_to 11000
  140.0248  134.9929  157.0663 LP  0  0  0  0  0  0  0  0  0  0  0  0  # atno 17395 bound_to 11000

$$$$
