AV-unprocessed.smi:1776|AV-procd|sdf|7176|dock10
  -GOLD-   22720 8413D 1   1.00000     0.00000
 Structure written by MMmdl.
 30 31  0  0  0  0  0  0  0  0  2 V2000
  152.4651  139.7344  158.5774 O   0  0  0  0  0  0  0  0  0  0  0  0
  152.2498  140.9434  158.4919 C   0  0  0  0  0  0  0  0  0  0  0  0
  151.5279  141.5381  157.5208 N   0  0  0  0  0  0  0  0  0  0  0  0
  150.8594  140.9863  156.4130 C   0  0  0  0  0  0  0  0  0  0  0  0
  149.6065  141.3258  155.9991 C   0  0  0  0  0  0  0  0  0  0  0  0
  148.9765  140.7158  154.8347 C   0  0  0  0  0  0  0  0  0  0  0  0
  147.5493  141.0022  154.4020 C   0  0  0  0  0  0  0  0  0  0  0  0
  147.3918  142.2880  154.0860 F   0  0  0  0  0  0  0  0  0  0  0  0
  147.2141  140.2649  153.3430 F   0  0  0  0  0  0  0  0  0  0  0  0
  146.7079  140.7119  155.3932 F   0  0  0  0  0  0  0  0  0  0  0  0
  149.7850  139.7691  154.2366 C   0  0  0  0  0  0  0  0  0  0  0  0
  151.0389  139.3907  154.5667 N   0  5  0  0  0  0  0  0  0  0  0  0
  151.6196  139.9697  155.6553 C   0  0  0  0  0  0  0  0  0  0  0  0
  152.7576  139.6651  156.0149 O   0  0  0  0  0  0  0  0  0  0  0  0
  152.8135  141.8974  159.5559 C   0  0  1  0  0  0  0  0  0  0  0  0
  151.8037  142.9808  160.0025 C   0  0  0  0  0  0  0  0  0  0  0  0
  152.3952  143.7880  161.0128 O   0  0  0  0  0  0  0  0  0  0  0  0
  152.7647  143.0126  162.1445 C   0  0  0  0  0  0  0  0  0  0  0  0
  153.7782  141.9433  161.7069 C   0  0  0  0  0  0  0  0  0  0  0  0
  153.1888  141.1330  160.6994 O   0  0  0  0  0  0  0  0  0  0  0  0
  151.4632  142.5445  157.5779 H   0  0  0  0  0  0  0  0  0  0  0  0
  149.0301  142.0740  156.5155 H   0  0  0  0  0  0  0  0  0  0  0  0
  149.3581  139.2313  153.3635 H   0  0  0  0  0  0  0  0  0  0  0  0
  153.7004  142.3739  159.1341 H   0  0  0  0  0  0  0  0  0  0  0  0
  151.5330  143.6245  159.1649 H   0  0  0  0  0  0  0  0  0  0  0  0
  150.8810  142.5334  160.3767 H   0  0  0  0  0  0  0  0  0  0  0  0
  153.2043  143.6670  162.8972 H   0  0  0  0  0  0  0  0  0  0  0  0
  151.8826  142.5528  162.5928 H   0  0  0  0  0  0  0  0  0  0  0  0
  154.6945  142.4032  161.3335 H   0  0  0  0  0  0  0  0  0  0  0  0
  154.0551  141.3139  162.5527 H   0  0  0  0  0  0  0  0  0  0  0  0
  1  2  2  0  0  0  0
  2  3  1  0  0  0  0
  2 15  1  0  0  0  0
  3  4  1  0  0  0  0
  3 21  1  0  0  0  0
  4 13  1  0  0  0  0
  4  5  2  0  0  0  0
  5  6  1  0  0  0  0
  5 22  1  0  0  0  0
  6  7  1  0  0  0  0
  6 11  2  0  0  0  0
  7  8  1  0  0  0  0
  7  9  1  0  0  0  0
  7 10  1  0  0  0  0
 11 12  1  0  0  0  0
 11 23  1  0  0  0  0
 12 13  1  0  0  0  0
 13 14  2  0  0  0  0
 15 20  1  0  0  0  0
 15 16  1  0  0  0  0
 15 24  1  0  0  0  0
 16 17  1  0  0  0  0
 16 25  1  0  0  0  0
 16 26  1  0  0  0  0
 17 18  1  0  0  0  0
 18 19  1  0  0  0  0
 18 27  1  0  0  0  0
 18 28  1  0  0  0  0
 19 20  1  0  0  0  0
 19 29  1  0  0  0  0
 19 30  1  0  0  0  0
M  CHG  1  12  -1
M  END
> <s_m_source_file>
AV-unprocessed.smi

> <i_m_source_file_index>
1776

> <i_lp_mmshare_version>
43012

> <i_f3d_flags>
0

> <s_epik_input>
TzFbQ0gyXVtDSDJdT1tDSDJdW0NASF0xQyg9TylbTkhdYzJbY0hdYyhDKEYpKEYpRilbY0hdW25IXWMyPU8=

> <s_epik_cmdline>
J2VwaWtfcHl0aG9uJywgJy1waCcsICc3LjAnLCAnLXRuJywgJzgnLCAnLW1hJywgJzIwMCcsICctbWV0YWxfYmluZGluZycsICctaW1hZScsICc8aW5maWxlLm1hZT4nLCAnLW9tYWUnLCAnPG91dGZpbGUubWFlPic=

> <r_epik_Ionization_Penalty>
2.46925

> <r_epik_Ionization_Penalty_Charging>
0.0509887

> <r_epik_Ionization_Penalty_Neutral>
2.41826

> <r_epik_State_Penalty>
2.57741

> <r_epik_Charging_Adjusted_Penalty>
2.6284

> <i_epik_Tot_Q>
-1

> <i_epik_Tot_abs_Q>
1

> <r_epik_Metal_State_Penalty>
0.510263

> <b_epik_Metal_Only>
0

> <s_lp_Force_Field>
OPLS_2005

> <r_lp_Energy>
25.1464

> <b_lp_Chiralities_Consistent>
1

> <s_lp_Variant>
AV-unprocessed.smi:1776-4

> <Gold.Version>
5.8.1

> <Gold.Id.Protein>
6NUR|6NUR_protein|mol2

> <Gold.PLP.Fitness>
41.2712

> <Gold.PLP.PLP>
-39.4144

> <Gold.PLP.part.hbond>
-2.0000

> <Gold.PLP.part.metal>
0.0000

> <Gold.PLP.part.buried>
-3.4056

> <Gold.PLP.part.nonpolar>
-33.9320

> <Gold.PLP.part.repulsive>
0.2747

> <Gold.PLP.ligand.clash>
0.0000

> <Gold.PLP.ligand.torsion>
0.8585

> <Gold.PLP.Chemscore.Hbond>
1.1750

> <Gold.PLP.Chemscore.CHOScore>
0.0000

> <Gold.PLP.Chemscore.Metal>
0.0000

> <Gold.Chemscore.Hbonds>
donor molecule, donor type, donor heavy atom, donor atom, acceptor molecule, acceptor atom, score
      P1  H  7989  7998       L1    12  0.18
      P1  H  7997  8010       L1    14  1.00

> <Gold.PLP.Chemscore.Internal.Correction>
0.0488

> <Gold.Rescore>
     Score         DG    S(hbond)    S(metal)    S(lipo)     H(rot)  DE(clash)    DE(int)     intcor
     11.53     -15.13       1.00        0.00      75.87       1.00       0.00       3.60       ----

> <Gold.Chemscore.Fitness>
11.5280

> <Gold.Chemscore.DG>
-15.1309

> <Gold.Chemscore.ZeroCoef>
-5.4800

> <Gold.Chemscore.Hbond>
0.9981

> <Gold.Chemscore.Metal>
0.0000

> <Gold.Chemscore.Lipo>
75.8733

> <Gold.Chemscore.Internal_Hbond>
0.0000

> <Gold.Chemscore.DEClash>
0.0000

> <Gold.Chemscore.DEInternal>
3.6029

> <Gold.Chemscore.Rot>
1.0000

> <Gold.Chemscore.Internal.Correction>
   9.000000E+99

> <Gold.Chemscore.Hbonds>
donor molecule, donor type, donor heavy atom, donor atom, acceptor molecule, acceptor atom, score
      P1  H  7997  8010       L1    14  1.00

> <Gold.Chemscore.Hbond.Weighted>
-3.3337

> <Gold.Chemscore.Metal.Weighted>
-0.0000

> <Gold.Chemscore.Lipo.Weighted>
-8.8772

> <Gold.Chemscore.Internal_Hbond.Weighted>
0.0000

> <Gold.Chemscore.DEClash.Weighted>
0.0000

> <Gold.Chemscore.DEInternal.Weighted>
3.6029

> <Gold.Chemscore.Rot.Weighted>
2.5600

> <Gold.Chemscore.Internal.Correction.Weighted>
   9.000000E+99

> <Gold.Protein.RotatedTorsions>
[ 6907 6896 6895 6894 ] final  -88.89 input  -60.11 | X-H torsion
[ 7974 7965 7964 7962 ] final -167.59 input  175.53 | X-H torsion
[ 8008 7997 7996 7995 ] final   70.06 input   59.86 | X-H torsion
[ 10167 10162 10161 10158 ] final -122.30 input  -65.29 | X-H torsion
[ 10718 10713 10712 10709 ] final   34.21 input   66.30 | X-H torsion
[ 10763 10752 10751 10750 ] final  134.93 input  -60.55 | X-H torsion
[ 11005 11000 10999 10996 ] final  121.05 input  -57.11 | X-H torsion

> <Gold.Protein.ActiveResidues>
 VAL166  LYS551  ARG553  GLY616  TRP617  ASP618  TYR619  PRO620  LYS621  CYS622 
 ASP623  PHE694  ASN695  SER759  ASP760  ASP761  ALA762  ILE779  LEU786  VAL792 
 PHE793  MET794  SER795  GLU796  ALA797  LYS798  CYS799  TRP800  GLU811  SER814 

> <Gold.Protein.RotatedAtoms>
  150.6871  134.2671  159.4572 H   0  0  0  0  0  0  0  0  0  0  0  0  # atno 6907 bound_to 6896
  152.0597  134.9600  160.0584 H   0  0  0  0  0  0  0  0  0  0  0  0  # atno 6908 bound_to 6896
  152.1032  133.4226  159.4633 H   0  0  0  0  0  0  0  0  0  0  0  0  # atno 6909 bound_to 6896
  144.7220  140.2496  143.6280 H   0  0  0  0  0  0  0  0  0  0  0  0  # atno 7974 bound_to 7965
  155.7330  140.3491  155.5068 H   0  0  0  0  0  0  0  0  0  0  0  0  # atno 8008 bound_to 7997
  155.9165  140.1059  157.1261 H   0  0  0  0  0  0  0  0  0  0  0  0  # atno 8009 bound_to 7997
  154.4063  140.1258  156.4611 H   0  0  0  0  0  0  0  0  0  0  0  0  # atno 8010 bound_to 7997
  140.0158  143.5395  152.2243 H   0  0  0  0  0  0  0  0  0  0  0  0  # atno 10167 bound_to 10162
  157.3075  130.7382  149.6704 H   0  0  0  0  0  0  0  0  0  0  0  0  # atno 10718 bound_to 10713
  153.8317  135.3103  155.3419 H   0  0  0  0  0  0  0  0  0  0  0  0  # atno 10763 bound_to 10752
  154.7970  135.4749  154.0188 H   0  0  0  0  0  0  0  0  0  0  0  0  # atno 10764 bound_to 10752
  153.1630  135.6864  153.8806 H   0  0  0  0  0  0  0  0  0  0  0  0  # atno 10765 bound_to 10752
  139.9210  134.9637  156.7899 H   0  0  0  0  0  0  0  0  0  0  0  0  # atno 11005 bound_to 11000
  145.8241  139.2056  143.1921 LP  0  0  0  0  0  0  0  0  0  0  0  0  # atno 17320 bound_to 7965
  146.0488  140.8090  142.9792 LP  0  0  0  0  0  0  0  0  0  0  0  0  # atno 17321 bound_to 7965
  139.6174  144.7622  151.2817 LP  0  0  0  0  0  0  0  0  0  0  0  0  # atno 17342 bound_to 10162
  140.7363  143.6712  150.8080 LP  0  0  0  0  0  0  0  0  0  0  0  0  # atno 17343 bound_to 10162
  155.9675  130.4261  150.4685 LP  0  0  0  0  0  0  0  0  0  0  0  0  # atno 17370 bound_to 10713
  157.2678  131.0580  151.2279 LP  0  0  0  0  0  0  0  0  0  0  0  0  # atno 17371 bound_to 10713
  140.6476  133.9761  155.7738 LP  0  0  0  0  0  0  0  0  0  0  0  0  # atno 17394 bound_to 11000
  141.0730  134.0177  157.3499 LP  0  0  0  0  0  0  0  0  0  0  0  0  # atno 17395 bound_to 11000

$$$$
