AV-unprocessed.smi:1033|AV-procd|sdf|4502|dock7
  -GOLD-   22720 2503D 1   1.00000     0.00000
 Structure written by MMmdl.
 57 59  0  0  0  0  0  0  0  0  3 V2000
  153.8643  142.9317  163.8891 C   0  0  0  0  0  0  0  0  0  0  0  0
  153.2762  142.8003  162.4944 C   0  0  0  0  0  0  0  0  0  0  0  0
  152.4061  143.8133  162.0310 C   0  0  0  0  0  0  0  0  0  0  0  0
  151.8827  143.6637  160.7522 C   0  0  0  0  0  0  0  0  0  0  0  0
  151.0105  144.4711  160.0181 N   0  3  0  0  0  0  0  0  0  0  0  0
  150.7825  143.9045  158.8005 C   0  0  0  0  0  0  0  0  0  0  0  0
  151.5009  142.7500  158.7457 N   0  0  0  0  0  0  0  0  0  0  0  0
  151.6172  141.7562  157.6713 C   0  0  0  0  0  0  0  0  0  0  0  0
  150.2484  141.2299  157.1936 C   0  0  2  0  0  0  0  0  0  0  0  0
  149.4744  140.8709  158.3196 O   0  0  0  0  0  0  0  0  0  0  0  0
  150.3744  139.9894  156.2886 C   0  0  0  0  0  0  0  0  0  0  0  0
  150.4041  140.2638  154.8468 N   0  0  0  0  0  0  0  0  0  0  0  0
  150.2509  139.0547  154.0384 C   0  0  0  0  0  0  0  0  0  0  0  0
  148.8210  138.4768  154.0703 C   0  0  0  0  0  0  0  0  0  0  0  0
  147.8383  139.4979  153.6245 N   0  3  0  0  0  0  0  0  0  0  0  0
  146.4530  138.9644  153.5688 C   0  0  0  0  0  0  0  0  0  0  0  0
  146.2210  138.0346  152.3613 C   0  0  2  0  0  0  0  0  0  0  0  0
  146.6221  138.6984  151.0375 C   0  0  0  0  0  0  0  0  0  0  0  0
  144.8498  137.6996  152.2875 O   0  0  0  0  0  0  0  0  0  0  0  0
  147.9699  140.7399  154.4328 C   0  0  0  0  0  0  0  0  0  0  0  0
  149.4238  141.2531  154.3907 C   0  0  0  0  0  0  0  0  0  0  0  0
  152.1984  142.5563  159.9419 C   0  0  0  0  0  0  0  0  0  0  0  0
  153.0528  141.5488  160.3822 C   0  0  0  0  0  0  0  0  0  0  0  0
  153.5955  141.6824  161.6802 C   0  0  0  0  0  0  0  0  0  0  0  0
  154.5313  140.5992  162.1886 C   0  0  0  0  0  0  0  0  0  0  0  0
  153.5349  143.8500  164.3763 H   0  0  0  0  0  0  0  0  0  0  0  0
  154.9534  142.9511  163.8463 H   0  0  0  0  0  0  0  0  0  0  0  0
  153.5562  142.0937  164.5148 H   0  0  0  0  0  0  0  0  0  0  0  0
  152.1583  144.6665  162.6455 H   0  0  0  0  0  0  0  0  0  0  0  0
  150.1491  144.3004  158.0194 H   0  0  0  0  0  0  0  0  0  0  0  0
  152.1747  142.2080  156.8498 H   0  0  0  0  0  0  0  0  0  0  0  0
  152.2311  140.9359  158.0462 H   0  0  0  0  0  0  0  0  0  0  0  0
  149.7018  142.0190  156.6789 H   0  0  0  0  0  0  0  0  0  0  0  0
  148.5944  141.1914  158.1928 H   0  0  0  0  0  0  0  0  0  0  0  0
  151.2915  139.4680  156.5665 H   0  0  0  0  0  0  0  0  0  0  0  0
  149.5652  139.2972  156.5204 H   0  0  0  0  0  0  0  0  0  0  0  0
  150.5161  139.2826  153.0051 H   0  0  0  0  0  0  0  0  0  0  0  0
  150.9637  138.2970  154.3656 H   0  0  0  0  0  0  0  0  0  0  0  0
  148.7714  137.6107  153.4093 H   0  0  0  0  0  0  0  0  0  0  0  0
  148.5644  138.1235  155.0700 H   0  0  0  0  0  0  0  0  0  0  0  0
  146.2382  138.4062  154.4819 H   0  0  0  0  0  0  0  0  0  0  0  0
  145.7491  139.7980  153.5511 H   0  0  0  0  0  0  0  0  0  0  0  0
  146.7930  137.1138  152.4681 H   0  0  0  0  0  0  0  0  0  0  0  0
  147.6813  138.9582  151.0359 H   0  0  0  0  0  0  0  0  0  0  0  0
  146.0560  139.6138  150.8613 H   0  0  0  0  0  0  0  0  0  0  0  0
  146.4469  138.0307  150.1930 H   0  0  0  0  0  0  0  0  0  0  0  0
  144.5361  137.8906  151.4162 H   0  0  0  0  0  0  0  0  0  0  0  0
  147.3149  141.5164  154.0402 H   0  0  0  0  0  0  0  0  0  0  0  0
  147.6519  140.5551  155.4596 H   0  0  0  0  0  0  0  0  0  0  0  0
  149.5101  142.1742  154.9649 H   0  0  0  0  0  0  0  0  0  0  0  0
  149.6619  141.5340  153.3637 H   0  0  0  0  0  0  0  0  0  0  0  0
  153.2937  140.6983  159.7621 H   0  0  0  0  0  0  0  0  0  0  0  0
  154.6835  139.8201  161.4411 H   0  0  0  0  0  0  0  0  0  0  0  0
  154.1209  140.1285  163.0824 H   0  0  0  0  0  0  0  0  0  0  0  0
  155.5067  141.0195  162.4344 H   0  0  0  0  0  0  0  0  0  0  0  0
  148.0914  139.7351  152.6755 H   0  0  0  0  0  0  0  0  0  0  0  0
  150.5983  145.3434  160.3237 H   0  0  0  0  0  0  0  0  0  0  0  0
  1  2  1  0  0  0  0
  1 26  1  0  0  0  0
  1 27  1  0  0  0  0
  1 28  1  0  0  0  0
  2 24  1  0  0  0  0
  2  3  2  0  0  0  0
  3  4  1  0  0  0  0
  3 29  1  0  0  0  0
  4 22  2  0  0  0  0
  4  5  1  0  0  0  0
  5  6  2  0  0  0  0
  5 57  1  0  0  0  0
  6  7  1  0  0  0  0
  6 30  1  0  0  0  0
  7  8  1  0  0  0  0
  7 22  1  0  0  0  0
  8  9  1  0  0  0  0
  8 31  1  0  0  0  0
  8 32  1  0  0  0  0
  9 10  1  0  0  0  0
  9 11  1  0  0  0  0
  9 33  1  0  0  0  0
 10 34  1  0  0  0  0
 11 12  1  0  0  0  0
 11 35  1  0  0  0  0
 11 36  1  0  0  0  0
 12 21  1  0  0  0  0
 12 13  1  0  0  0  0
 13 14  1  0  0  0  0
 13 37  1  0  0  0  0
 13 38  1  0  0  0  0
 14 15  1  0  0  0  0
 14 39  1  0  0  0  0
 14 40  1  0  0  0  0
 15 16  1  0  0  0  0
 15 20  1  0  0  0  0
 15 56  1  0  0  0  0
 16 17  1  0  0  0  0
 16 41  1  0  0  0  0
 16 42  1  0  0  0  0
 17 18  1  0  0  0  0
 17 19  1  0  0  0  0
 17 43  1  0  0  0  0
 18 44  1  0  0  0  0
 18 45  1  0  0  0  0
 18 46  1  0  0  0  0
 19 47  1  0  0  0  0
 20 21  1  0  0  0  0
 20 48  1  0  0  0  0
 20 49  1  0  0  0  0
 21 50  1  0  0  0  0
 21 51  1  0  0  0  0
 22 23  1  0  0  0  0
 23 24  2  0  0  0  0
 23 52  1  0  0  0  0
 24 25  1  0  0  0  0
 25 53  1  0  0  0  0
 25 54  1  0  0  0  0
 25 55  1  0  0  0  0
M  CHG  1   5   1
M  CHG  1  15   1
M  END
> <s_m_source_file>
AV-unprocessed.smi

> <i_m_source_file_index>
1033

> <i_lp_mmshare_version>
43012

> <i_f3d_flags>
0

> <s_epik_input>
W0NIM11jKFtjSF0xKWMoW0NIM10pW2NIXWMoYzEyKW4oW2NIXW4yKVtDSDJdW0NASF0oW09IXSlbQ0gyXU4zW0NIMl1bQ0gyXU4oW0NIMl1bQ0gyXTMpW0NIMl1bQ0BIXShbQ0gzXSlbT0hd

> <s_epik_cmdline>
J2VwaWtfcHl0aG9uJywgJy1waCcsICc3LjAnLCAnLXRuJywgJzgnLCAnLW1hJywgJzIwMCcsICctbWV0YWxfYmluZGluZycsICctaW1hZScsICc8aW5maWxlLm1hZT4nLCAnLW9tYWUnLCAnPG91dGZpbGUubWFlPic=

> <r_epik_Ionization_Penalty>
1.28617

> <r_epik_Ionization_Penalty_Charging>
1.23646

> <r_epik_Ionization_Penalty_Neutral>
0.0497112

> <r_epik_State_Penalty>
1.79157

> <r_epik_Charging_Adjusted_Penalty>
3.02803

> <i_epik_Tot_Q>
2

> <i_epik_Tot_abs_Q>
2

> <r_epik_Metal_State_Penalty>
5.81739

> <b_epik_Metal_Only>
0

> <s_lp_Force_Field>
OPLS_2005

> <r_lp_Energy>
39.1755

> <b_lp_Chiralities_Consistent>
1

> <s_lp_Variant>
AV-unprocessed.smi:1033-13

> <Gold.Version>
5.8.1

> <Gold.Id.Protein>
6NUR|6NUR_protein|mol2

> <Gold.PLP.Fitness>
60.9179

> <Gold.PLP.PLP>
-53.5363

> <Gold.PLP.part.hbond>
-3.9544

> <Gold.PLP.part.metal>
0.0000

> <Gold.PLP.part.buried>
1.6193

> <Gold.PLP.part.nonpolar>
-49.6389

> <Gold.PLP.part.repulsive>
0.2509

> <Gold.PLP.ligand.clash>
0.0000

> <Gold.PLP.ligand.torsion>
0.8435

> <Gold.PLP.Chemscore.Hbond>
1.9538

> <Gold.PLP.Chemscore.CHOScore>
1.0215

> <Gold.PLP.Chemscore.Metal>
0.0000

> <Gold.Chemscore.Hbonds>
donor molecule, donor type, donor heavy atom, donor atom, acceptor molecule, acceptor atom, score
      L1  H    15    56       P1  7957  0.68
      L1  H    19    47       P1 10171  1.00
      P1  H  7989  7998       L1    12  0.16
      L1  C     6    30       P1  8028  0.60
      L1  C     6    30       P1  8029  0.07

> <Gold.PLP.Chemscore.Internal.Correction>
0.1427

> <Gold.Rescore>
     Score         DG    S(hbond)    S(metal)    S(lipo)     H(rot)  DE(clash)    DE(int)     intcor
     19.24     -21.00       1.61        0.00     155.46       3.15       0.91       0.85       ----

> <Gold.Chemscore.Fitness>
19.2417

> <Gold.Chemscore.DG>
-20.9977

> <Gold.Chemscore.ZeroCoef>
-5.4800

> <Gold.Chemscore.Hbond>
1.6132

> <Gold.Chemscore.Metal>
0.0000

> <Gold.Chemscore.Lipo>
155.4630

> <Gold.Chemscore.Internal_Hbond>
0.0000

> <Gold.Chemscore.DEClash>
0.9087

> <Gold.Chemscore.DEInternal>
0.8474

> <Gold.Chemscore.Rot>
3.1483

> <Gold.Chemscore.Internal.Correction>
   9.000000E+99

> <Gold.Chemscore.Hbonds>
donor molecule, donor type, donor heavy atom, donor atom, acceptor molecule, acceptor atom, score
      L1  H    15    56       P1  7957  0.66
      L1  H    19    47       P1 10171  1.00

> <Gold.Chemscore.Hbond.Weighted>
-5.3882

> <Gold.Chemscore.Metal.Weighted>
-0.0000

> <Gold.Chemscore.Lipo.Weighted>
-18.1892

> <Gold.Chemscore.Internal_Hbond.Weighted>
0.0000

> <Gold.Chemscore.DEClash.Weighted>
0.9087

> <Gold.Chemscore.DEInternal.Weighted>
0.8474

> <Gold.Chemscore.Rot.Weighted>
8.0597

> <Gold.Chemscore.Internal.Correction.Weighted>
   9.000000E+99

> <Gold.Protein.RotatedTorsions>
[ 6907 6896 6895 6894 ] final   42.12 input  -60.11 | X-H torsion
[ 7974 7965 7964 7962 ] final  -86.67 input  175.53 | X-H torsion
[ 8008 7997 7996 7995 ] final  133.41 input   59.86 | X-H torsion
[ 10167 10162 10161 10158 ] final  -35.54 input  -65.29 | X-H torsion
[ 10718 10713 10712 10709 ] final  130.51 input   66.30 | X-H torsion
[ 10763 10752 10751 10750 ] final   93.28 input  -60.55 | X-H torsion
[ 11005 11000 10999 10996 ] final -123.65 input  -57.11 | X-H torsion

> <Gold.Protein.ActiveResidues>
 VAL166  LYS551  ARG553  GLY616  TRP617  ASP618  TYR619  PRO620  LYS621  CYS622 
 ASP623  PHE694  ASN695  SER759  ASP760  ASP761  ALA762  ILE779  LEU786  VAL792 
 PHE793  MET794  SER795  GLU796  ALA797  LYS798  CYS799  TRP800  GLU811  SER814 

> <Gold.Protein.RotatedAtoms>
  152.2039  134.8563  160.0504 H   0  0  0  0  0  0  0  0  0  0  0  0  # atno 6907 bound_to 6896
  151.9406  133.3632  159.3972 H   0  0  0  0  0  0  0  0  0  0  0  0  # atno 6908 bound_to 6896
  150.6961  134.4367  159.5317 H   0  0  0  0  0  0  0  0  0  0  0  0  # atno 6909 bound_to 6896
  145.4768  140.9558  143.1886 H   0  0  0  0  0  0  0  0  0  0  0  0  # atno 7974 bound_to 7965
  156.2992  140.2522  156.3248 H   0  0  0  0  0  0  0  0  0  0  0  0  # atno 8008 bound_to 7997
  154.9201  140.0401  157.2012 H   0  0  0  0  0  0  0  0  0  0  0  0  # atno 8009 bound_to 7997
  154.8320  140.2877  155.5720 H   0  0  0  0  0  0  0  0  0  0  0  0  # atno 8010 bound_to 7997
  140.7163  143.3470  151.2234 H   0  0  0  0  0  0  0  0  0  0  0  0  # atno 10167 bound_to 10162
  157.5055  131.1095  150.9367 H   0  0  0  0  0  0  0  0  0  0  0  0  # atno 10718 bound_to 10713
  153.2285  135.4331  155.0569 H   0  0  0  0  0  0  0  0  0  0  0  0  # atno 10763 bound_to 10752
  154.8285  135.3373  154.6822 H   0  0  0  0  0  0  0  0  0  0  0  0  # atno 10764 bound_to 10752
  153.7251  135.7014  153.5059 H   0  0  0  0  0  0  0  0  0  0  0  0  # atno 10765 bound_to 10752
  140.9902  134.0550  157.3663 H   0  0  0  0  0  0  0  0  0  0  0  0  # atno 11005 bound_to 11000
  144.7912  139.6324  143.7112 LP  0  0  0  0  0  0  0  0  0  0  0  0  # atno 17320 bound_to 7965
  146.2365  139.5915  142.9520 LP  0  0  0  0  0  0  0  0  0  0  0  0  # atno 17321 bound_to 7965
  139.6992  143.9561  152.2897 LP  0  0  0  0  0  0  0  0  0  0  0  0  # atno 17342 bound_to 10162
  139.9248  144.6777  150.8423 LP  0  0  0  0  0  0  0  0  0  0  0  0  # atno 17343 bound_to 10162
  157.0025  130.5605  149.5313 LP  0  0  0  0  0  0  0  0  0  0  0  0  # atno 17370 bound_to 10713
  156.0255  130.5349  150.8395 LP  0  0  0  0  0  0  0  0  0  0  0  0  # atno 17371 bound_to 10713
  139.8989  135.0156  156.7169 LP  0  0  0  0  0  0  0  0  0  0  0  0  # atno 17394 bound_to 11000
  140.7052  133.9272  155.8049 LP  0  0  0  0  0  0  0  0  0  0  0  0  # atno 17395 bound_to 11000

$$$$
