AV-unprocessed.smi:1381|AV-procd|sdf|5612|dock6
  -GOLD-   22720 5223D 1   1.00000     0.00000
 Structure written by MMmdl.
 42 43  0  0  0  0  0  0  0  0  3 V2000
  147.3337  133.5237  162.6893 C   0  0  0  0  0  0  0  0  0  0  0  0
  147.8681  134.7445  162.0213 C   0  0  0  0  0  0  0  0  0  0  0  0
  148.3742  134.9712  160.7730 C   0  0  0  0  0  0  0  0  0  0  0  0
  148.6938  136.3561  160.7983 C   0  0  0  0  0  0  0  0  0  0  0  0
  149.2403  137.0560  159.7919 N   0  5  0  0  0  0  0  0  0  0  0  0
  150.0005  136.4323  158.8632 C   0  0  0  0  0  0  0  0  0  0  0  0
  151.1981  136.1548  158.9612 O   0  0  0  0  0  0  0  0  0  0  0  0
  149.3318  136.1141  157.7471 N   0  0  0  0  0  0  0  0  0  0  0  0
  149.9059  135.4570  156.5809 C   0  0  0  0  0  0  0  0  0  0  0  0
  149.1767  135.9081  155.3055 C   0  0  0  0  0  0  0  0  0  0  0  0
  149.7847  137.1175  154.6963 N   0  3  1  0  0  0  0  0  0  0  0  0
  149.1929  138.3685  155.2271 C   0  0  0  0  0  0  0  0  0  0  0  0
  149.8083  139.5992  154.5348 C   0  0  1  0  0  0  0  0  0  0  0  0
  149.2807  140.9144  155.1191 C   0  0  0  0  0  0  0  0  0  0  0  0
  151.2205  139.5735  154.7098 O   0  0  0  0  0  0  0  0  0  0  0  0
  151.8223  138.4238  154.1253 C   0  0  1  0  0  0  0  0  0  0  0  0
  153.3416  138.5448  154.2874 C   0  0  0  0  0  0  0  0  0  0  0  0
  151.2641  137.1608  154.8077 C   0  0  0  0  0  0  0  0  0  0  0  0
  148.4199  136.9172  161.9642 N   0  0  0  0  0  0  0  0  0  0  0  0
  147.8838  135.8917  162.7524 O   0  0  0  0  0  0  0  0  0  0  0  0
  148.1134  132.7690  162.7914 H   0  0  0  0  0  0  0  0  0  0  0  0
  146.5195  133.0918  162.1077 H   0  0  0  0  0  0  0  0  0  0  0  0
  146.9531  133.7533  163.6847 H   0  0  0  0  0  0  0  0  0  0  0  0
  148.4947  134.2610  159.9689 H   0  0  0  0  0  0  0  0  0  0  0  0
  148.3520  136.3546  157.7081 H   0  0  0  0  0  0  0  0  0  0  0  0
  150.9672  135.6995  156.5254 H   0  0  0  0  0  0  0  0  0  0  0  0
  149.8245  134.3762  156.7045 H   0  0  0  0  0  0  0  0  0  0  0  0
  149.2167  135.0900  154.5844 H   0  0  0  0  0  0  0  0  0  0  0  0
  148.1201  136.0894  155.5093 H   0  0  0  0  0  0  0  0  0  0  0  0
  148.1135  138.3607  155.0690 H   0  0  0  0  0  0  0  0  0  0  0  0
  149.3590  138.4191  156.3047 H   0  0  0  0  0  0  0  0  0  0  0  0
  149.5777  139.5757  153.4681 H   0  0  0  0  0  0  0  0  0  0  0  0
  148.2001  140.9935  154.9974 H   0  0  0  0  0  0  0  0  0  0  0  0
  149.7343  141.7720  154.6212 H   0  0  0  0  0  0  0  0  0  0  0  0
  149.5047  140.9918  156.1836 H   0  0  0  0  0  0  0  0  0  0  0  0
  151.5897  138.3993  153.0592 H   0  0  0  0  0  0  0  0  0  0  0  0
  153.8527  137.6886  153.8464 H   0  0  0  0  0  0  0  0  0  0  0  0
  153.6242  138.5981  155.3391 H   0  0  0  0  0  0  0  0  0  0  0  0
  153.7155  139.4435  153.7961 H   0  0  0  0  0  0  0  0  0  0  0  0
  151.5503  137.1435  155.8608 H   0  0  0  0  0  0  0  0  0  0  0  0
  151.7068  136.2810  154.3425 H   0  0  0  0  0  0  0  0  0  0  0  0
  149.5600  137.0903  153.7119 H   0  0  0  0  0  0  0  0  0  0  0  0
  1  2  1  0  0  0  0
  1 21  1  0  0  0  0
  1 22  1  0  0  0  0
  1 23  1  0  0  0  0
  2 20  1  0  0  0  0
  2  3  2  0  0  0  0
  3  4  1  0  0  0  0
  3 24  1  0  0  0  0
  4  5  1  0  0  0  0
  4 19  2  0  0  0  0
  5  6  1  0  0  0  0
  6  7  2  0  0  0  0
  6  8  1  0  0  0  0
  8  9  1  0  0  0  0
  8 25  1  0  0  0  0
  9 10  1  0  0  0  0
  9 26  1  0  0  0  0
  9 27  1  0  0  0  0
 10 11  1  0  0  0  0
 10 28  1  0  0  0  0
 10 29  1  0  0  0  0
 11 18  1  0  0  0  0
 11 12  1  0  0  0  0
 11 42  1  0  0  0  0
 12 13  1  0  0  0  0
 12 30  1  0  0  0  0
 12 31  1  0  0  0  0
 13 14  1  0  0  0  0
 13 15  1  0  0  0  0
 13 32  1  0  0  0  0
 14 33  1  0  0  0  0
 14 34  1  0  0  0  0
 14 35  1  0  0  0  0
 15 16  1  0  0  0  0
 16 17  1  0  0  0  0
 16 18  1  0  0  0  0
 16 36  1  0  0  0  0
 17 37  1  0  0  0  0
 17 38  1  0  0  0  0
 17 39  1  0  0  0  0
 18 40  1  0  0  0  0
 18 41  1  0  0  0  0
 19 20  1  0  0  0  0
M  CHG  1   5  -1
M  CHG  1  11   1
M  END
> <s_m_source_file>
AV-unprocessed.smi

> <i_m_source_file_index>
1381

> <i_lp_mmshare_version>
43012

> <i_f3d_flags>
0

> <s_epik_input>
W0NIM11jMVtjSF1jKG5vMSlbTkhdQyg9TylbTkhdW0NIMl1bQ0gyXU4yW0NIMl1bQ0BASF0oW0NIM10pT1tDQEBIXShbQ0gzXSlbQ0gyXTI=

> <s_epik_cmdline>
J2VwaWtfcHl0aG9uJywgJy1waCcsICc3LjAnLCAnLXRuJywgJzgnLCAnLW1hJywgJzIwMCcsICctbWV0YWxfYmluZGluZycsICctaW1hZScsICc8aW5maWxlLm1hZT4nLCAnLW9tYWUnLCAnPG91dGZpbGUubWFlPic=

> <r_epik_Ionization_Penalty>
6.73511

> <r_epik_Ionization_Penalty_Charging>
6.73502

> <r_epik_Ionization_Penalty_Neutral>
9.26583e-05

> <r_epik_State_Penalty>
6.93549

> <r_epik_Charging_Adjusted_Penalty>
13.6705

> <i_epik_Tot_Q>
0

> <i_epik_Tot_abs_Q>
2

> <r_epik_Metal_State_Penalty>
2.87211

> <b_epik_Metal_Only>
1

> <s_lp_Force_Field>
OPLS_2005

> <r_lp_Energy>
2.9367

> <b_lp_Chiralities_Consistent>
1

> <s_lp_Variant>
AV-unprocessed.smi:1381-11

> <Gold.Version>
5.8.1

> <Gold.Id.Protein>
6NUR|6NUR_protein|mol2

> <Gold.PLP.Fitness>
49.1186

> <Gold.PLP.PLP>
-35.6365

> <Gold.PLP.part.hbond>
-5.9359

> <Gold.PLP.part.metal>
0.0000

> <Gold.PLP.part.buried>
-5.3080

> <Gold.PLP.part.nonpolar>
-25.1683

> <Gold.PLP.part.repulsive>
0.1590

> <Gold.PLP.ligand.clash>
0.0000

> <Gold.PLP.ligand.torsion>
1.5685

> <Gold.PLP.Chemscore.Hbond>
5.5080

> <Gold.PLP.Chemscore.CHOScore>
0.0000

> <Gold.PLP.Chemscore.Metal>
0.0000

> <Gold.Chemscore.Hbonds>
donor molecule, donor type, donor heavy atom, donor atom, acceptor molecule, acceptor atom, score
      L1  H    11    42       P1  7948  1.66
      P1  H  6896  6908       L1     7  0.35
      P1  H  6931  6943       L1    19  0.83
      P1  H  7989  7998       L1    15  0.90

> <Gold.PLP.Chemscore.Internal.Correction>
0.0950

> <Gold.Rescore>
     Score         DG    S(hbond)    S(metal)    S(lipo)     H(rot)  DE(clash)    DE(int)     intcor
     15.99     -18.14       2.62        0.00      67.87       1.58       0.97       1.17       ----

> <Gold.Chemscore.Fitness>
15.9934

> <Gold.Chemscore.DG>
-18.1381

> <Gold.Chemscore.ZeroCoef>
-5.4800

> <Gold.Chemscore.Hbond>
2.6230

> <Gold.Chemscore.Metal>
0.0000

> <Gold.Chemscore.Lipo>
67.8653

> <Gold.Chemscore.Internal_Hbond>
0.0000

> <Gold.Chemscore.DEClash>
0.9730

> <Gold.Chemscore.DEInternal>
1.1716

> <Gold.Chemscore.Rot>
1.5792

> <Gold.Chemscore.Internal.Correction>
   9.000000E+99

> <Gold.Chemscore.Hbonds>
donor molecule, donor type, donor heavy atom, donor atom, acceptor molecule, acceptor atom, score
      L1  H    11    42       P1  7948  0.72
      P1  H  6896  6908       L1     7  0.04
      P1  H  6931  6943       L1    19  0.44
      P1  H  7989  7998       L1    15  0.05

> <Gold.Chemscore.Hbond.Weighted>
-8.7607

> <Gold.Chemscore.Metal.Weighted>
-0.0000

> <Gold.Chemscore.Lipo.Weighted>
-7.9402

> <Gold.Chemscore.Internal_Hbond.Weighted>
0.0000

> <Gold.Chemscore.DEClash.Weighted>
0.9730

> <Gold.Chemscore.DEInternal.Weighted>
1.1716

> <Gold.Chemscore.Rot.Weighted>
4.0428

> <Gold.Chemscore.Internal.Correction.Weighted>
   9.000000E+99

> <Gold.Protein.RotatedTorsions>
[ 6907 6896 6895 6894 ] final -163.56 input  -60.11 | X-H torsion
[ 7974 7965 7964 7962 ] final   48.83 input  175.53 | X-H torsion
[ 8008 7997 7996 7995 ] final  -93.23 input   59.86 | X-H torsion
[ 10167 10162 10161 10158 ] final   -5.60 input  -65.29 | X-H torsion
[ 10718 10713 10712 10709 ] final   26.08 input   66.30 | X-H torsion
[ 10763 10752 10751 10750 ] final   84.26 input  -60.55 | X-H torsion
[ 11005 11000 10999 10996 ] final -149.86 input  -57.11 | X-H torsion

> <Gold.Protein.ActiveResidues>
 VAL166  LYS551  ARG553  GLY616  TRP617  ASP618  TYR619  PRO620  LYS621  CYS622 
 ASP623  PHE694  ASN695  SER759  ASP760  ASP761  ALA762  ILE779  LEU786  VAL792 
 PHE793  MET794  SER795  GLU796  ALA797  LYS798  CYS799  TRP800  GLU811  SER814 

> <Gold.Protein.RotatedAtoms>
  151.3979  133.3767  159.2728 H   0  0  0  0  0  0  0  0  0  0  0  0  # atno 6907 bound_to 6896
  150.9455  134.8862  159.7650 H   0  0  0  0  0  0  0  0  0  0  0  0  # atno 6908 bound_to 6896
  152.5090  134.3932  159.9443 H   0  0  0  0  0  0  0  0  0  0  0  0  # atno 6909 bound_to 6896
  146.0167  139.4604  142.9922 H   0  0  0  0  0  0  0  0  0  0  0  0  # atno 7974 bound_to 7965
  154.7331  140.0501  157.0744 H   0  0  0  0  0  0  0  0  0  0  0  0  # atno 8008 bound_to 7997
  155.0276  140.3154  155.4751 H   0  0  0  0  0  0  0  0  0  0  0  0  # atno 8009 bound_to 7997
  156.2846  140.2155  156.5396 H   0  0  0  0  0  0  0  0  0  0  0  0  # atno 8010 bound_to 7997
  140.6968  143.6290  150.8541 H   0  0  0  0  0  0  0  0  0  0  0  0  # atno 10167 bound_to 10162
  157.2020  130.6894  149.6192 H   0  0  0  0  0  0  0  0  0  0  0  0  # atno 10718 bound_to 10713
  153.1366  135.4660  154.9431 H   0  0  0  0  0  0  0  0  0  0  0  0  # atno 10763 bound_to 10752
  154.7711  135.3159  154.8190 H   0  0  0  0  0  0  0  0  0  0  0  0  # atno 10764 bound_to 10752
  153.8721  135.6902  153.4827 H   0  0  0  0  0  0  0  0  0  0  0  0  # atno 10765 bound_to 10752
  140.7463  134.3457  157.5136 H   0  0  0  0  0  0  0  0  0  0  0  0  # atno 11005 bound_to 11000
  145.7258  141.0059  143.1378 LP  0  0  0  0  0  0  0  0  0  0  0  0  # atno 17320 bound_to 7965
  144.6973  139.8924  143.7454 LP  0  0  0  0  0  0  0  0  0  0  0  0  # atno 17321 bound_to 7965
  140.0008  143.5746  152.2876 LP  0  0  0  0  0  0  0  0  0  0  0  0  # atno 17342 bound_to 10162
  139.6435  144.7656  151.2292 LP  0  0  0  0  0  0  0  0  0  0  0  0  # atno 17343 bound_to 10162
  155.9699  130.4579  150.5981 LP  0  0  0  0  0  0  0  0  0  0  0  0  # atno 17370 bound_to 10713
  157.3757  131.0773  151.1520 LP  0  0  0  0  0  0  0  0  0  0  0  0  # atno 17371 bound_to 10713
  139.8796  134.9113  156.3034 LP  0  0  0  0  0  0  0  0  0  0  0  0  # atno 17394 bound_to 11000
  140.9791  133.7278  156.0646 LP  0  0  0  0  0  0  0  0  0  0  0  0  # atno 17395 bound_to 11000

$$$$
