#       Name:                AV-unprocessed.smi:648
#       Creating user name   scv26
#       Creation time:       Fri Mar 27 00:10:12 2020


#       File generated by GOLD software.
#

@<TRIPOS>MOLECULE
AV-unprocessed.smi:648
    50    51     1
SMALL
NO_CHARGES


@<TRIPOS>ATOM
      1 ****        -2.6911  -1.6954  -1.7540 C.3            1 S1                 0.0000
      2 ****        -2.1488  -0.8406  -0.5991 C.3            1 S1                 0.0000
      3 ****        -2.6904   0.5995  -0.6761 C.3            1 S1                 0.0000
      4 ****        -2.1991   1.5113   0.4727 C.3            1 S1                 0.0000
      5 ****        -2.5328   2.9746   0.1074 C.3            1 S1                 0.0000
      6 ****        -2.9655   1.2063   1.7807 C.3            1 S1                 0.0000
      7 ****        -0.6508   1.4022   0.6292 C.3            1 S1                 0.0000
      8 ****        -0.0016  -0.0179   0.5849 C.3            1 S1                 0.0000
      9 ****        -0.2010  -0.7604   1.9350 C.3            1 S1                 0.0000
     10 ****         0.3714  -2.0551   1.9226 O.3            1 S1                 0.0000
     11 ****         1.4663   0.1150   0.4408 N.3            1 S1                 0.0000
     12 ****         2.0376   0.6959  -0.7825 C.3            1 S1                 0.0000
     13 ****         3.5727   0.7070  -0.7179 C.3            1 S1                 0.0000
     14 ****         4.1326  -0.6318  -0.7071 N.pl3          1 S1                 0.0000
     15 ****         4.6457  -1.3503   0.2930 C.2            1 S1                 0.0000
     16 ****         5.0622  -2.5548  -0.0721 N.2            1 S1                 0.0000
     17 ****         4.7553  -2.5083  -1.4029 C.2            1 S1                 0.0000
     18 ****         4.1973  -1.3773  -1.8350 N.2            1 S1                 0.0000
     19 ****        -0.6094  -0.8192  -0.6008 C.3            1 S1                 0.0000
     20 ****        -2.3827  -1.2990  -2.7220 H              1 S1                 0.0000
     21 ****        -3.7809  -1.7283  -1.7398 H              1 S1                 0.0000
     22 ****        -2.3311  -2.7221  -1.6846 H              1 S1                 0.0000
     23 ****        -2.4971  -1.3056   0.3220 H              1 S1                 0.0000
     24 ****        -2.3848   1.0282  -1.6320 H              1 S1                 0.0000
     25 ****        -3.7812   0.5851  -0.6943 H              1 S1                 0.0000
     26 ****        -2.2064   3.6623   0.8887 H              1 S1                 0.0000
     27 ****        -3.6051   3.1192  -0.0297 H              1 S1                 0.0000
     28 ****        -2.0482   3.2819  -0.8203 H              1 S1                 0.0000
     29 ****        -2.5075   1.7016   2.6373 H              1 S1                 0.0000
     30 ****        -3.0392   0.1461   2.0032 H              1 S1                 0.0000
     31 ****        -3.9957   1.5591   1.7202 H              1 S1                 0.0000
     32 ****        -0.2357   1.9856  -0.1898 H              1 S1                 0.0000
     33 ****        -0.3315   1.9261   1.5314 H              1 S1                 0.0000
     34 ****         0.2410  -0.1932   2.7554 H              1 S1                 0.0000
     35 ****        -1.2457  -0.8974   2.1859 H              1 S1                 0.0000
     36 ****         0.2254  -2.4559   2.7658 H              1 S1                 0.0000
     37 ****         1.8950  -0.7888   0.6151 H              1 S1                 0.0000
     38 ****         1.7370   0.1323  -1.6644 H              1 S1                 0.0000
     39 ****         1.6963   1.7190  -0.9275 H              1 S1                 0.0000
     40 ****         3.9766   1.2396  -1.5799 H              1 S1                 0.0000
     41 ****         3.9162   1.2411   0.1692 H              1 S1                 0.0000
     42 ****         4.7117  -0.9868   1.3081 H              1 S1                 0.0000
     43 ****         4.9498  -3.3321  -2.0737 H              1 S1                 0.0000
     44 ****        -0.2206  -1.8380  -0.6127 H              1 S1                 0.0000
     45 ****        -0.3065  -0.3795  -1.5499 H              1 S1                 0.0000
     46 ****         1.3535  -1.9880   1.7466 LP             1 S1                 0.0000
     47 ****        -0.0583  -2.6070   1.2079 LP             1 S1                 0.0000
     48 ****         1.6831   0.8179   1.1182 LP             1 S1                 0.0000
     49 ****         5.4795  -3.2850   0.4689 LP             1 S1                 0.0000
     50 ****         3.9010  -1.1395  -2.7600 LP             1 S1                 0.0000
@<TRIPOS>BOND
    1    1    2 1     
    2    1   20 1     
    3    1   21 1     
    4    1   22 1     
    5    2   19 1     
    6    2    3 1     
    7    2   23 1     
    8    3    4 1     
    9    3   24 1     
   10    3   25 1     
   11    4    5 1     
   12    4    6 1     
   13    4    7 1     
   14    5   26 1     
   15    5   27 1     
   16    5   28 1     
   17    6   29 1     
   18    6   30 1     
   19    6   31 1     
   20    7    8 1     
   21    7   32 1     
   22    7   33 1     
   23    8    9 1     
   24    8   11 1     
   25    8   19 1     
   26    9   10 1     
   27    9   34 1     
   28    9   35 1     
   29   10   36 1     
   30   11   12 1     
   31   11   37 1     
   32   12   13 1     
   33   12   38 1     
   34   12   39 1     
   35   13   14 1     
   36   13   40 1     
   37   13   41 1     
   38   14   18 1     
   39   14   15 1     
   40   15   16 2     
   41   15   42 1     
   42   16   17 1     
   43   17   18 2     
   44   17   43 1     
   45   19   44 1     
   46   19   45 1     
   47   10   46 1     
   48   10   47 1     
   49   11   48 1     
   50   16   49 1     
   51   18   50 1     
@<TRIPOS>SUBSTRUCTURE
      1 S1             1
@<TRIPOS>SET
LONE_PAIRS      STATIC     ATOMS    <user>   **** ""
5 46 47 48 49 50
DONOR_HYDROGENS      STATIC     ATOMS    <user>   **** ""
2 36 37
ATOM$BLUE        STATIC     ATOMS    COLORGROUP SYSTEM
5 46 47 48 49 50
ATOM$RED        STATIC     ATOMS    COLORGROUP SYSTEM
2 36 37
