AV-unprocessed.smi:54|AV-procd|sdf|541|dock10
  -GOLD-   2262016433D 1   1.00000     0.00000
 Structure written by MMmdl.
 44 46  0  0  0  0  0  0  0  0  1 V2000
  145.7187  135.3077  161.0519 C   0  0  0  0  0  0  0  0  0  0  0  0
  147.2194  135.3399  161.3843 C   0  0  0  0  0  0  0  0  0  0  0  0
  147.4672  135.9008  162.7938 C   0  0  0  0  0  0  0  0  0  0  0  0
  147.9889  136.1536  160.3374 C   0  0  0  0  0  0  0  0  0  0  0  0
  148.4757  137.2549  160.5960 O   0  0  0  0  0  0  0  0  0  0  0  0
  148.1055  135.5325  159.0299 N   0  0  0  0  0  0  0  0  0  0  0  0
  148.7286  136.0277  157.9353 C   0  0  0  0  0  0  0  0  0  0  0  0
  148.2240  137.0000  157.1886 N   0  0  0  0  0  0  0  0  0  0  0  0
  149.0000  137.3589  156.1216 C   0  0  0  0  0  0  0  0  0  0  0  0
  150.2167  136.8136  155.7690 C   0  0  0  0  0  0  0  0  0  0  0  0
  150.7078  137.4355  154.6267 N   0  0  0  0  0  0  0  0  0  0  0  0
  149.7942  138.3166  154.3288 C   0  0  0  0  0  0  0  0  0  0  0  0
  148.7245  138.3400  155.1931 N   0  0  0  0  0  0  0  0  0  0  0  0
  147.5030  139.2075  155.1688 C   0  0  2  0  0  0  0  0  0  0  0  0
  146.8825  139.0185  153.9319 O   0  0  0  0  0  0  0  0  0  0  0  0
  146.7693  140.2506  153.2212 C   0  0  2  0  0  0  0  0  0  0  0  0
  146.8625  140.0218  151.7021 C   0  0  0  0  0  0  0  0  0  0  0  0
  146.1059  138.8879  151.3353 O   0  0  0  0  0  0  0  0  0  0  0  0
  147.8533  141.1554  153.8249 C   0  0  2  0  0  0  0  0  0  0  0  0
  149.1062  140.9666  153.1879 O   0  0  0  0  0  0  0  0  0  0  0  0
  147.8581  140.7021  155.2784 C   0  0  2  0  0  0  0  0  0  0  0  0
  149.0694  140.9982  155.9520 O   0  0  0  0  0  0  0  0  0  0  0  0
  150.7739  135.7575  156.5636 C   0  0  0  0  0  0  0  0  0  0  0  0
  151.8345  135.1587  156.3994 O   0  0  0  0  0  0  0  0  0  0  0  0
  149.9502  135.4195  157.6453 N   0  0  0  0  0  0  0  0  0  0  0  0
  146.8823  138.8408  155.9871 H   0  0  0  0  0  0  0  0  0  0  0  0
  145.8009  140.6873  153.4723 H   0  0  0  0  0  0  0  0  0  0  0  0
  147.5889  142.2095  153.7352 H   0  0  0  0  0  0  0  0  0  0  0  0
  147.0365  141.1908  155.8037 H   0  0  0  0  0  0  0  0  0  0  0  0
  145.5426  134.9211  160.0472 H   0  0  0  0  0  0  0  0  0  0  0  0
  145.2731  136.3017  161.1090 H   0  0  0  0  0  0  0  0  0  0  0  0
  145.1797  134.6647  161.7481 H   0  0  0  0  0  0  0  0  0  0  0  0
  147.5909  134.3144  161.3588 H   0  0  0  0  0  0  0  0  0  0  0  0
  148.5315  135.9196  163.0321 H   0  0  0  0  0  0  0  0  0  0  0  0
  146.9751  135.2873  163.5486 H   0  0  0  0  0  0  0  0  0  0  0  0
  147.0849  136.9176  162.8947 H   0  0  0  0  0  0  0  0  0  0  0  0
  147.6870  134.6187  158.9377 H   0  0  0  0  0  0  0  0  0  0  0  0
  149.8787  138.9700  153.4729 H   0  0  0  0  0  0  0  0  0  0  0  0
  146.4474  140.8762  151.1669 H   0  0  0  0  0  0  0  0  0  0  0  0
  147.8976  139.9061  151.3794 H   0  0  0  0  0  0  0  0  0  0  0  0
  145.3984  139.1671  150.7746 H   0  0  0  0  0  0  0  0  0  0  0  0
  148.9973  140.3267  152.5007 H   0  0  0  0  0  0  0  0  0  0  0  0
  149.5795  141.5732  155.4018 H   0  0  0  0  0  0  0  0  0  0  0  0
  150.2809  134.6817  158.2496 H   0  0  0  0  0  0  0  0  0  0  0  0
  1  2  1  0  0  0  0
  1 30  1  0  0  0  0
  1 31  1  0  0  0  0
  1 32  1  0  0  0  0
  2  3  1  0  0  0  0
  2  4  1  0  0  0  0
  2 33  1  0  0  0  0
  3 34  1  0  0  0  0
  3 35  1  0  0  0  0
  3 36  1  0  0  0  0
  4  5  2  0  0  0  0
  4  6  1  0  0  0  0
  6 37  1  0  0  0  0
  6  7  1  0  0  0  0
  7 25  1  0  0  0  0
  7  8  2  0  0  0  0
  8  9  1  0  0  0  0
  9 13  1  0  0  0  0
  9 10  2  0  0  0  0
 10 11  1  0  0  0  0
 10 23  1  0  0  0  0
 11 12  2  0  0  0  0
 12 13  1  0  0  0  0
 12 38  1  0  0  0  0
 13 14  1  0  0  0  0
 14 26  1  0  0  0  0
 14 21  1  0  0  0  0
 14 15  1  0  0  0  0
 15 16  1  0  0  0  0
 16 27  1  0  0  0  0
 16 17  1  0  0  0  0
 16 19  1  0  0  0  0
 17 18  1  0  0  0  0
 17 39  1  0  0  0  0
 17 40  1  0  0  0  0
 18 41  1  0  0  0  0
 19 28  1  0  0  0  0
 19 20  1  0  0  0  0
 19 21  1  0  0  0  0
 20 42  1  0  0  0  0
 21 29  1  0  0  0  0
 21 22  1  0  0  0  0
 22 43  1  0  0  0  0
 23 24  2  0  0  0  0
 23 25  1  0  0  0  0
 25 44  1  0  0  0  0
M  END
> <s_m_source_file>
AV-unprocessed.smi

> <i_m_source_file_index>
54

> <i_lp_mmshare_version>
43012

> <i_f3d_flags>
0

> <s_epik_input>
W0NIM11bQ0hdKFtDSDNdKUMoPU8pW05IXWMobjEpW25IXWMoPU8pYyhjMTIpbltjSF1uMltDQEBIXTNPW0NASF0oW0NIMl1bT0hdKVtDQEBIXShbT0hdKVtDQEhdM1tPSF0=

> <s_epik_cmdline>
J2VwaWtfcHl0aG9uJywgJy1waCcsICc3LjAnLCAnLXRuJywgJzgnLCAnLW1hJywgJzIwMCcsICctbWV0YWxfYmluZGluZycsICctaW1hZScsICc8aW5maWxlLm1hZT4nLCAnLW9tYWUnLCAnPG91dGZpbGUubWFlPic=

> <r_lp_tautomer_probability>
0.85571

> <r_epik_Ionization_Penalty>
0.0316551

> <r_epik_Ionization_Penalty_Charging>
0.0316043

> <r_epik_Ionization_Penalty_Neutral>
5.07097e-05

> <r_epik_State_Penalty>
3.15494e-07

> <r_epik_Charging_Adjusted_Penalty>
0.0316047

> <i_epik_Tot_Q>
0

> <i_epik_Tot_abs_Q>
0

> <r_epik_Metal_State_Penalty>
0.421206

> <b_epik_Metal_Only>
0

> <s_epik_Chemistry_Notes>
This compound contains an acetal/aminal-like group ( X-CH(R)-Y where X, Y are N, S, or O) that may be acid/base labile, releasing an aldehyde.

> <s_lp_Force_Field>
OPLS_2005

> <r_lp_Energy>
46.8633

> <b_lp_Chiralities_Consistent>
1

> <s_lp_Variant>
AV-unprocessed.smi:54-13

> <Gold.Version>
5.8.1

> <Gold.Id.Protein>
6NUR|6NUR_protein|mol2

> <Gold.PLP.Fitness>
43.7170

> <Gold.PLP.PLP>
-29.8102

> <Gold.PLP.part.hbond>
-6.6666

> <Gold.PLP.part.metal>
0.0000

> <Gold.PLP.part.buried>
-3.3820

> <Gold.PLP.part.nonpolar>
-22.5007

> <Gold.PLP.part.repulsive>
1.4494

> <Gold.PLP.ligand.clash>
1.1259

> <Gold.PLP.ligand.torsion>
1.1400

> <Gold.PLP.Chemscore.Hbond>
4.9223

> <Gold.PLP.Chemscore.CHOScore>
0.7733

> <Gold.PLP.Chemscore.Metal>
0.0000

> <Gold.Chemscore.Hbonds>
donor molecule, donor type, donor heavy atom, donor atom, acceptor molecule, acceptor atom, score
      L1  H    18    41       P1 10171  0.93
      L1  H    20    42       P1  7957  0.68
      P1  H  6931  6943       L1     5  0.74
      P1  H  6934  6947       L1     5  0.30
      P1  H  8011  8017       L1    20  1.00
      P1  H 10752 10764       L1    24  1.00
      L1  C    12    38       P1  7957  0.94

> <Gold.PLP.Chemscore.Internal.Correction>
0.2258

> <Gold.Rescore>
     Score         DG    S(hbond)    S(metal)    S(lipo)     H(rot)  DE(clash)    DE(int)     intcor
     11.80     -15.25       4.08        0.00      55.53       4.05       0.89       2.56       ----

> <Gold.Chemscore.Fitness>
11.8034

> <Gold.Chemscore.DG>
-15.2543

> <Gold.Chemscore.ZeroCoef>
-5.4800

> <Gold.Chemscore.Hbond>
4.0849

> <Gold.Chemscore.Metal>
0.0000

> <Gold.Chemscore.Lipo>
55.5294

> <Gold.Chemscore.Internal_Hbond>
0.0000

> <Gold.Chemscore.DEClash>
0.8880

> <Gold.Chemscore.DEInternal>
2.5628

> <Gold.Chemscore.Rot>
4.0493

> <Gold.Chemscore.Internal.Correction>
   9.000000E+99

> <Gold.Chemscore.Hbonds>
donor molecule, donor type, donor heavy atom, donor atom, acceptor molecule, acceptor atom, score
      L1  H    18    41       P1 10171  0.90
      L1  H    20    42       P1  7957  0.65
      P1  H  6931  6943       L1     5  0.74
      P1  H  6934  6947       L1     5  0.29
      P1  H  8011  8017       L1    20  0.37
      P1  H 10752 10764       L1    24  0.97

> <Gold.Chemscore.Hbond.Weighted>
-13.6435

> <Gold.Chemscore.Metal.Weighted>
-0.0000

> <Gold.Chemscore.Lipo.Weighted>
-6.4969

> <Gold.Chemscore.Internal_Hbond.Weighted>
0.0000

> <Gold.Chemscore.DEClash.Weighted>
0.8880

> <Gold.Chemscore.DEInternal.Weighted>
2.5628

> <Gold.Chemscore.Rot.Weighted>
10.3662

> <Gold.Chemscore.Internal.Correction.Weighted>
   9.000000E+99

> <Gold.Protein.RotatedTorsions>
[ 6907 6896 6895 6894 ] final   39.56 input  -60.11 | X-H torsion
[ 7974 7965 7964 7962 ] final  126.20 input  175.53 | X-H torsion
[ 8008 7997 7996 7995 ] final  118.76 input   59.86 | X-H torsion
[ 10167 10162 10161 10158 ] final -102.24 input  -65.29 | X-H torsion
[ 10718 10713 10712 10709 ] final  176.66 input   66.30 | X-H torsion
[ 10763 10752 10751 10750 ] final  -33.22 input  -60.55 | X-H torsion
[ 11005 11000 10999 10996 ] final -176.95 input  -57.11 | X-H torsion

> <Gold.Protein.ActiveResidues>
 VAL166  LYS551  ARG553  GLY616  TRP617  ASP618  TYR619  PRO620  LYS621  CYS622 
 ASP623  PHE694  ASN695  SER759  ASP760  ASP761  ALA762  ILE779  LEU786  VAL792 
 PHE793  MET794  SER795  GLU796  ALA797  LYS798  CYS799  TRP800  GLU811  SER814 

> <Gold.Protein.RotatedAtoms>
  152.1712  134.8833  160.0534 H   0  0  0  0  0  0  0  0  0  0  0  0  # atno 6907 bound_to 6896
  151.9792  133.3747  159.4109 H   0  0  0  0  0  0  0  0  0  0  0  0  # atno 6908 bound_to 6896
  150.6902  134.3980  159.5150 H   0  0  0  0  0  0  0  0  0  0  0  0  # atno 6909 bound_to 6896
  145.0644  139.3779  143.4989 H   0  0  0  0  0  0  0  0  0  0  0  0  # atno 7974 bound_to 7965
  156.2563  140.2867  156.0886 H   0  0  0  0  0  0  0  0  0  0  0  0  # atno 8008 bound_to 7997
  155.1488  140.0397  157.2833 H   0  0  0  0  0  0  0  0  0  0  0  0  # atno 8009 bound_to 7997
  154.6476  140.2537  155.7257 H   0  0  0  0  0  0  0  0  0  0  0  0  # atno 8010 bound_to 7997
  140.2328  143.3594  152.0871 H   0  0  0  0  0  0  0  0  0  0  0  0  # atno 10167 bound_to 10162
  156.9169  130.9928  151.3011 H   0  0  0  0  0  0  0  0  0  0  0  0  # atno 10718 bound_to 10713
  153.8267  135.6869  153.4820 H   0  0  0  0  0  0  0  0  0  0  0  0  # atno 10763 bound_to 10752
  153.1536  135.4608  154.9670 H   0  0  0  0  0  0  0  0  0  0  0  0  # atno 10764 bound_to 10752
  154.7904  135.3300  154.7734 H   0  0  0  0  0  0  0  0  0  0  0  0  # atno 10765 bound_to 10752
  140.4464  134.6384  157.4781 H   0  0  0  0  0  0  0  0  0  0  0  0  # atno 11005 bound_to 11000
  146.3526  140.0359  142.8647 LP  0  0  0  0  0  0  0  0  0  0  0  0  # atno 17320 bound_to 7965
  145.1369  140.9549  143.4512 LP  0  0  0  0  0  0  0  0  0  0  0  0  # atno 17321 bound_to 7965
  139.5104  144.6883  151.5827 LP  0  0  0  0  0  0  0  0  0  0  0  0  # atno 17342 bound_to 10162
  140.6172  143.9326  150.6498 LP  0  0  0  0  0  0  0  0  0  0  0  0  # atno 17343 bound_to 10162
  157.5932  130.8459  149.8690 LP  0  0  0  0  0  0  0  0  0  0  0  0  # atno 17370 bound_to 10713
  156.0509  130.3718  150.1203 LP  0  0  0  0  0  0  0  0  0  0  0  0  # atno 17371 bound_to 10713
  140.0036  134.6799  155.9491 LP  0  0  0  0  0  0  0  0  0  0  0  0  # atno 17394 bound_to 11000
  141.1683  133.6537  156.4560 LP  0  0  0  0  0  0  0  0  0  0  0  0  # atno 17395 bound_to 11000

$$$$
