AV-unprocessed.smi:104|AV-procd|sdf|994|dock2
  -GOLD-   2262017573D 1   1.00000     0.00000
 Structure written by MMmdl.
 47 49  0  0  0  0  0  0  0  0  1 V2000
  142.2178  132.6693  160.0360 C   0  0  0  0  0  0  0  0  0  0  0  0
  143.2821  133.3966  159.2241 C   0  0  0  0  0  0  0  0  0  0  0  0
  143.0602  133.7808  158.0759 O   0  0  0  0  0  0  0  0  0  0  0  0
  144.4281  133.5554  159.9034 O   0  0  0  0  0  0  0  0  0  0  0  0
  145.5330  134.1986  159.2880 C   0  0  0  0  0  0  0  0  0  0  0  0
  146.7878  134.0361  160.1649 C   0  0  1  0  0  0  0  0  0  0  0  0
  147.8843  134.6093  159.4509 O   0  0  0  0  0  0  0  0  0  0  0  0
  148.4357  135.6699  160.1708 C   0  0  1  0  0  0  0  0  0  0  0  0
  148.8343  136.7651  159.2297 N   0  0  0  0  0  0  0  0  0  0  0  0
  148.0610  137.3976  158.2843 C   0  0  0  0  0  0  0  0  0  0  0  0
  146.2323  136.9456  158.0087 Br  0  0  0  0  0  0  0  0  0  0  0  0
  148.6367  138.3111  157.5545 N   0  0  0  0  0  0  0  0  0  0  0  0
  149.9417  138.3029  158.0305 C   0  0  0  0  0  0  0  0  0  0  0  0
  151.1160  139.0218  157.6925 C   0  0  0  0  0  0  0  0  0  0  0  0
  151.1502  139.9571  156.7329 N   0  0  0  0  0  0  0  0  0  0  0  0
  152.2578  138.7488  158.3657 N   0  0  0  0  0  0  0  0  0  0  0  0
  152.2516  137.8173  159.3246 C   0  0  0  0  0  0  0  0  0  0  0  0
  151.2339  137.0664  159.7531 N   0  0  0  0  0  0  0  0  0  0  0  0
  150.0803  137.3431  159.0765 C   0  0  0  0  0  0  0  0  0  0  0  0
  147.3884  136.1157  161.1990 C   0  0  1  0  0  0  0  0  0  0  0  0
  146.4459  137.0253  160.6303 O   0  0  0  0  0  0  0  0  0  0  0  0
  145.4845  137.5856  161.3857 C   0  0  0  0  0  0  0  0  0  0  0  0
  144.5336  138.4458  160.5650 C   0  0  0  0  0  0  0  0  0  0  0  0
  145.3569  137.4680  162.6042 O   0  0  0  0  0  0  0  0  0  0  0  0
  146.7515  134.7761  161.5156 C   0  0  1  0  0  0  0  0  0  0  0  0
  145.4637  134.9311  162.1035 O   0  0  0  0  0  0  0  0  0  0  0  0
  144.8160  133.8677  162.6088 C   0  0  0  0  0  0  0  0  0  0  0  0
  143.5029  134.2531  163.2764 C   0  0  0  0  0  0  0  0  0  0  0  0
  145.1889  132.6962  162.5498 O   0  0  0  0  0  0  0  0  0  0  0  0
  142.6411  132.2517  160.9502 H   0  0  0  0  0  0  0  0  0  0  0  0
  141.7890  131.8549  159.4520 H   0  0  0  0  0  0  0  0  0  0  0  0
  141.4182  133.3580  160.3093 H   0  0  0  0  0  0  0  0  0  0  0  0
  145.6965  133.7274  158.3182 H   0  0  0  0  0  0  0  0  0  0  0  0
  145.3294  135.2536  159.1013 H   0  0  0  0  0  0  0  0  0  0  0  0
  146.9898  132.9753  160.3178 H   0  0  0  0  0  0  0  0  0  0  0  0
  149.3633  135.3338  160.6346 H   0  0  0  0  0  0  0  0  0  0  0  0
  150.3122  140.1763  156.2135 H   0  0  0  0  0  0  0  0  0  0  0  0
  152.0132  140.4405  156.5304 H   0  0  0  0  0  0  0  0  0  0  0  0
  153.1967  137.6493  159.8197 H   0  0  0  0  0  0  0  0  0  0  0  0
  147.8813  136.5359  162.0767 H   0  0  0  0  0  0  0  0  0  0  0  0
  145.0832  139.0032  159.8058 H   0  0  0  0  0  0  0  0  0  0  0  0
  144.0150  139.1588  161.2065 H   0  0  0  0  0  0  0  0  0  0  0  0
  143.7912  137.8210  160.0685 H   0  0  0  0  0  0  0  0  0  0  0  0
  147.4196  134.2616  162.2088 H   0  0  0  0  0  0  0  0  0  0  0  0
  143.6434  135.1193  163.9232 H   0  0  0  0  0  0  0  0  0  0  0  0
  143.1245  133.4286  163.8810 H   0  0  0  0  0  0  0  0  0  0  0  0
  142.7560  134.5006  162.5223 H   0  0  0  0  0  0  0  0  0  0  0  0
  1  2  1  0  0  0  0
  1 30  1  0  0  0  0
  1 31  1  0  0  0  0
  1 32  1  0  0  0  0
  2  3  2  0  0  0  0
  2  4  1  0  0  0  0
  4  5  1  0  0  0  0
  5  6  1  0  0  0  0
  5 33  1  0  0  0  0
  5 34  1  0  0  0  0
  6 25  1  0  0  0  0
  6  7  1  0  0  0  0
  6 35  1  0  0  0  0
  7  8  1  0  0  0  0
  8  9  1  0  0  0  0
  8 20  1  0  0  0  0
  8 36  1  0  0  0  0
  9 19  1  0  0  0  0
  9 10  1  0  0  0  0
 10 11  1  0  0  0  0
 10 12  2  0  0  0  0
 12 13  1  0  0  0  0
 13 19  2  0  0  0  0
 13 14  1  0  0  0  0
 14 15  1  0  0  0  0
 14 16  2  0  0  0  0
 15 37  1  0  0  0  0
 15 38  1  0  0  0  0
 16 17  1  0  0  0  0
 17 18  2  0  0  0  0
 17 39  1  0  0  0  0
 18 19  1  0  0  0  0
 20 21  1  0  0  0  0
 20 25  1  0  0  0  0
 20 40  1  0  0  0  0
 21 22  1  0  0  0  0
 22 23  1  0  0  0  0
 22 24  2  0  0  0  0
 23 41  1  0  0  0  0
 23 42  1  0  0  0  0
 23 43  1  0  0  0  0
 25 26  1  0  0  0  0
 25 44  1  0  0  0  0
 26 27  1  0  0  0  0
 27 28  1  0  0  0  0
 27 29  2  0  0  0  0
 28 45  1  0  0  0  0
 28 46  1  0  0  0  0
 28 47  1  0  0  0  0
M  END
> <s_m_source_file>
AV-unprocessed.smi

> <i_m_source_file_index>
104

> <i_lp_mmshare_version>
43012

> <i_f3d_flags>
0

> <s_epik_input>
W0NIM11DKD1PKU9bQ0gyXVtDQEBIXTFPW0NASF0oW0NAQEhdKE9DKD1PKVtDSDNdKVtDQEhdMU9DKD1PKVtDSDNdKW4oYyhCciluMiljKGMyMyluW2NIXW5jM1tOSDJd

> <s_epik_cmdline>
J2VwaWtfcHl0aG9uJywgJy1waCcsICc3LjAnLCAnLXRuJywgJzgnLCAnLW1hJywgJzIwMCcsICctbWV0YWxfYmluZGluZycsICctaW1hZScsICc8aW5maWxlLm1hZT4nLCAnLW9tYWUnLCAnPG91dGZpbGUubWFlPic=

> <r_lp_tautomer_probability>
1

> <r_epik_Ionization_Penalty>
7.36622e-05

> <r_epik_Ionization_Penalty_Charging>
0

> <r_epik_Ionization_Penalty_Neutral>
7.36622e-05

> <r_epik_State_Penalty>
-0

> <r_epik_Charging_Adjusted_Penalty>
0

> <i_epik_Tot_Q>
0

> <i_epik_Tot_abs_Q>
0

> <r_epik_Metal_State_Penalty>
-0

> <b_epik_Metal_Only>
0

> <s_epik_Chemistry_Notes>
This compound has an ester and may undergo hydrolysis at high or low pH. This compound contains an acetal/aminal-like group ( X-CH(R)-Y where X, Y are N, S, or O) that may be acid/base labile, releasing an aldehyde.

> <s_lp_Force_Field>
OPLS_2005

> <r_lp_Energy>
22.6214

> <b_lp_Chiralities_Consistent>
1

> <s_lp_Variant>
AV-unprocessed.smi:104-2

> <Gold.Version>
5.8.1

> <Gold.Id.Protein>
6NUR|6NUR_protein|mol2

> <Gold.PLP.Fitness>
35.6870

> <Gold.PLP.PLP>
-29.7172

> <Gold.PLP.part.hbond>
-2.6079

> <Gold.PLP.part.metal>
0.0000

> <Gold.PLP.part.buried>
-6.5259

> <Gold.PLP.part.nonpolar>
-21.3580

> <Gold.PLP.part.repulsive>
0.2445

> <Gold.PLP.ligand.clash>
0.0040

> <Gold.PLP.ligand.torsion>
0.2184

> <Gold.PLP.Chemscore.Hbond>
2.0000

> <Gold.PLP.Chemscore.CHOScore>
0.0000

> <Gold.PLP.Chemscore.Metal>
0.0000

> <Gold.Chemscore.Hbonds>
donor molecule, donor type, donor heavy atom, donor atom, acceptor molecule, acceptor atom, score
      P1  H  6896  6907       L1    18  1.00
      P1  H 11000 11005       L1     3  0.83

> <Gold.PLP.Chemscore.Internal.Correction>
0.4108

> <Gold.Rescore>
     Score         DG    S(hbond)    S(metal)    S(lipo)     H(rot)  DE(clash)    DE(int)     intcor
     -2.87      -4.98       1.96        0.00      34.06       4.31       0.02       7.83       ----

> <Gold.Chemscore.Fitness>
-2.8697

> <Gold.Chemscore.DG>
-4.9757

> <Gold.Chemscore.ZeroCoef>
-5.4800

> <Gold.Chemscore.Hbond>
1.9571

> <Gold.Chemscore.Metal>
0.0000

> <Gold.Chemscore.Lipo>
34.0592

> <Gold.Chemscore.Internal_Hbond>
0.0000

> <Gold.Chemscore.DEClash>
0.0180

> <Gold.Chemscore.DEInternal>
7.8275

> <Gold.Chemscore.Rot>
4.3070

> <Gold.Chemscore.Internal.Correction>
   9.000000E+99

> <Gold.Chemscore.Hbonds>
donor molecule, donor type, donor heavy atom, donor atom, acceptor molecule, acceptor atom, score
      P1  H  6896  6907       L1    18  0.69
      P1  H 11000 11005       L1     3  0.81

> <Gold.Chemscore.Hbond.Weighted>
-6.5367

> <Gold.Chemscore.Metal.Weighted>
-0.0000

> <Gold.Chemscore.Lipo.Weighted>
-3.9849

> <Gold.Chemscore.Internal_Hbond.Weighted>
0.0000

> <Gold.Chemscore.DEClash.Weighted>
0.0180

> <Gold.Chemscore.DEInternal.Weighted>
7.8275

> <Gold.Chemscore.Rot.Weighted>
11.0259

> <Gold.Chemscore.Internal.Correction.Weighted>
   9.000000E+99

> <Gold.Protein.RotatedTorsions>
[ 6907 6896 6895 6894 ] final  -10.58 input  -60.11 | X-H torsion
[ 7974 7965 7964 7962 ] final  -61.63 input  175.53 | X-H torsion
[ 8008 7997 7996 7995 ] final  -59.90 input   59.86 | X-H torsion
[ 10167 10162 10161 10158 ] final   87.81 input  -65.29 | X-H torsion
[ 10718 10713 10712 10709 ] final   22.34 input   66.30 | X-H torsion
[ 10763 10752 10751 10750 ] final   50.64 input  -60.55 | X-H torsion
[ 11005 11000 10999 10996 ] final -115.11 input  -57.11 | X-H torsion

> <Gold.Protein.ActiveResidues>
 VAL166  LYS551  ARG553  GLY616  TRP617  ASP618  TYR619  PRO620  LYS621  CYS622 
 ASP623  PHE694  ASN695  SER759  ASP760  ASP761  ALA762  ILE779  LEU786  VAL792 
 PHE793  MET794  SER795  GLU796  ALA797  LYS798  CYS799  TRP800  GLU811  SER814 

> <Gold.Protein.RotatedAtoms>
  151.3997  135.0969  159.9551 H   0  0  0  0  0  0  0  0  0  0  0  0  # atno 6907 bound_to 6896
  152.5054  133.8901  159.7400 H   0  0  0  0  0  0  0  0  0  0  0  0  # atno 6908 bound_to 6896
  150.9372  133.6642  159.2827 H   0  0  0  0  0  0  0  0  0  0  0  0  # atno 6909 bound_to 6896
  145.8011  140.8655  143.0231 H   0  0  0  0  0  0  0  0  0  0  0  0  # atno 7974 bound_to 7965
  154.4374  140.1051  156.6189 H   0  0  0  0  0  0  0  0  0  0  0  0  # atno 8008 bound_to 7997
  155.5729  140.3489  155.4501 H   0  0  0  0  0  0  0  0  0  0  0  0  # atno 8009 bound_to 7997
  156.0376  140.1275  157.0180 H   0  0  0  0  0  0  0  0  0  0  0  0  # atno 8010 bound_to 7997
  139.8736  144.6479  150.8922 H   0  0  0  0  0  0  0  0  0  0  0  0  # atno 10167 bound_to 10162
  157.1509  130.6674  149.6011 H   0  0  0  0  0  0  0  0  0  0  0  0  # atno 10718 bound_to 10713
  152.9784  135.5872  154.4285 H   0  0  0  0  0  0  0  0  0  0  0  0  # atno 10763 bound_to 10752
  154.3901  135.2768  155.2162 H   0  0  0  0  0  0  0  0  0  0  0  0  # atno 10764 bound_to 10752
  154.4038  135.6097  153.5967 H   0  0  0  0  0  0  0  0  0  0  0  0  # atno 10765 bound_to 10752
  141.0508  133.9689  157.2839 H   0  0  0  0  0  0  0  0  0  0  0  0  # atno 11005 bound_to 11000
  144.6769  140.0260  143.7483 LP  0  0  0  0  0  0  0  0  0  0  0  0  # atno 17320 bound_to 7965
  145.9877  139.2990  143.1004 LP  0  0  0  0  0  0  0  0  0  0  0  0  # atno 17321 bound_to 7965
  140.7756  143.3643  151.1768 LP  0  0  0  0  0  0  0  0  0  0  0  0  # atno 17342 bound_to 10162
  139.7261  143.9146  152.3003 LP  0  0  0  0  0  0  0  0  0  0  0  0  # atno 17343 bound_to 10162
  155.9771  130.4745  150.6569 LP  0  0  0  0  0  0  0  0  0  0  0  0  # atno 17370 bound_to 10713
  157.4221  131.0838  151.1121 LP  0  0  0  0  0  0  0  0  0  0  0  0  # atno 17371 bound_to 10713
  139.9349  135.0197  156.8523 LP  0  0  0  0  0  0  0  0  0  0  0  0  # atno 17394 bound_to 11000
  140.6058  134.0129  155.7556 LP  0  0  0  0  0  0  0  0  0  0  0  0  # atno 17395 bound_to 11000

$$$$
