AV-unprocessed.smi:2782|AV-procd|sdf|10721|dock8
  -GOLD-   2272015163D 1   1.00000     0.00000
 Structure written by MMmdl.
 38 39  0  0  0  0  0  0  0  0  1 V2000
  150.7432  144.8890  159.9701 C   0  0  0  0  0  0  0  0  0  0  0  0
  151.5912  143.6993  160.3708 C   0  0  0  0  0  0  0  0  0  0  0  0
  152.3179  143.7171  161.5774 C   0  0  0  0  0  0  0  0  0  0  0  0
  153.1014  142.6069  161.9407 C   0  0  0  0  0  0  0  0  0  0  0  0
  153.1611  141.4769  161.1022 C   0  0  0  0  0  0  0  0  0  0  0  0
  154.1295  140.1264  161.5735 Cl  0  0  0  0  0  0  0  0  0  0  0  0
  152.4391  141.4439  159.8884 C   0  0  0  0  0  0  0  0  0  0  0  0
  152.5454  140.3039  159.1198 O   0  0  0  0  0  0  0  0  0  0  0  0
  151.9514  140.2952  157.8274 C   0  0  0  0  0  0  0  0  0  0  0  0
  152.4412  139.0706  157.0358 C   0  0  2  0  0  0  0  0  0  0  0  0
  153.8235  138.9149  157.2876 O   0  0  0  0  0  0  0  0  0  0  0  0
  152.1815  139.1874  155.5179 C   0  0  0  0  0  0  0  0  0  0  0  0
  150.7637  139.0082  155.1847 N   0  0  0  0  0  0  0  0  0  0  0  0
  150.1245  140.1740  154.7985 N   0  0  0  0  0  0  0  0  0  0  0  0
  148.8732  140.1723  154.4738 C   0  0  0  0  0  0  0  0  0  0  0  0
  148.2589  141.4790  154.0672 C   0  0  0  0  0  0  0  0  0  0  0  0
  148.1263  138.9295  154.5160 C   0  0  0  0  0  0  0  0  0  0  0  0
  148.7531  137.7935  154.8901 C   0  0  0  0  0  0  0  0  0  0  0  0
  150.1680  137.7814  155.2555 C   0  0  0  0  0  0  0  0  0  0  0  0
  150.7701  136.7617  155.5910 O   0  0  0  0  0  0  0  0  0  0  0  0
  151.6536  142.5691  159.5302 C   0  0  0  0  0  0  0  0  0  0  0  0
  150.7199  145.6448  160.7557 H   0  0  0  0  0  0  0  0  0  0  0  0
  149.7182  144.5740  159.7717 H   0  0  0  0  0  0  0  0  0  0  0  0
  151.1427  145.3488  159.0660 H   0  0  0  0  0  0  0  0  0  0  0  0
  152.2781  144.5790  162.2273 H   0  0  0  0  0  0  0  0  0  0  0  0
  153.6576  142.6226  162.8665 H   0  0  0  0  0  0  0  0  0  0  0  0
  150.8620  140.2959  157.8924 H   0  0  0  0  0  0  0  0  0  0  0  0
  152.2523  141.1986  157.2944 H   0  0  0  0  0  0  0  0  0  0  0  0
  151.9379  138.1912  157.4392 H   0  0  0  0  0  0  0  0  0  0  0  0
  154.1814  138.3314  156.6362 H   0  0  0  0  0  0  0  0  0  0  0  0
  152.5031  140.1695  155.1659 H   0  0  0  0  0  0  0  0  0  0  0  0
  152.8022  138.4762  154.9689 H   0  0  0  0  0  0  0  0  0  0  0  0
  147.2345  141.3422  153.7201 H   0  0  0  0  0  0  0  0  0  0  0  0
  148.8256  141.9413  153.2582 H   0  0  0  0  0  0  0  0  0  0  0  0
  148.2377  142.1745  154.9066 H   0  0  0  0  0  0  0  0  0  0  0  0
  147.0799  138.9215  154.2491 H   0  0  0  0  0  0  0  0  0  0  0  0
  148.1963  136.8684  154.9208 H   0  0  0  0  0  0  0  0  0  0  0  0
  151.0869  142.5881  158.6118 H   0  0  0  0  0  0  0  0  0  0  0  0
  1  2  1  0  0  0  0
  1 22  1  0  0  0  0
  1 23  1  0  0  0  0
  1 24  1  0  0  0  0
  2 21  1  0  0  0  0
  2  3  2  0  0  0  0
  3  4  1  0  0  0  0
  3 25  1  0  0  0  0
  4  5  2  0  0  0  0
  4 26  1  0  0  0  0
  5  6  1  0  0  0  0
  5  7  1  0  0  0  0
  7  8  1  0  0  0  0
  7 21  2  0  0  0  0
  8  9  1  0  0  0  0
  9 10  1  0  0  0  0
  9 27  1  0  0  0  0
  9 28  1  0  0  0  0
 10 11  1  0  0  0  0
 10 12  1  0  0  0  0
 10 29  1  0  0  0  0
 11 30  1  0  0  0  0
 12 13  1  0  0  0  0
 12 31  1  0  0  0  0
 12 32  1  0  0  0  0
 13 19  1  0  0  0  0
 13 14  1  0  0  0  0
 14 15  2  0  0  0  0
 15 16  1  0  0  0  0
 15 17  1  0  0  0  0
 16 33  1  0  0  0  0
 16 34  1  0  0  0  0
 16 35  1  0  0  0  0
 17 18  2  0  0  0  0
 17 36  1  0  0  0  0
 18 19  1  0  0  0  0
 18 37  1  0  0  0  0
 19 20  2  0  0  0  0
 21 38  1  0  0  0  0
M  END
> <s_m_source_file>
AV-unprocessed.smi

> <i_m_source_file_index>
2782

> <i_lp_mmshare_version>
43012

> <i_f3d_flags>
0

> <s_epik_input>
W0NIM11jMVtjSF1bY0hdYyhDbCljKFtjSF0xKU9bQ0gyXVtDQEhdKFtPSF0pW0NIMl1uMm5jKFtDSDNdKVtjSF1bY0hdYzI9Tw==

> <s_epik_cmdline>
J2VwaWtfcHl0aG9uJywgJy1waCcsICc3LjAnLCAnLXRuJywgJzgnLCAnLW1hJywgJzIwMCcsICctbWV0YWxfYmluZGluZycsICctaW1hZScsICc8aW5maWxlLm1hZT4nLCAnLW9tYWUnLCAnPG91dGZpbGUubWFlPic=

> <r_lp_tautomer_probability>
1

> <r_epik_Ionization_Penalty>
2.96353e-07

> <r_epik_Ionization_Penalty_Charging>
1.79179e-07

> <r_epik_Ionization_Penalty_Neutral>
1.17174e-07

> <r_epik_State_Penalty>
-0

> <r_epik_Charging_Adjusted_Penalty>
1.79179e-07

> <i_epik_Tot_Q>
0

> <i_epik_Tot_abs_Q>
0

> <r_epik_Metal_State_Penalty>
-0

> <b_epik_Metal_Only>
0

> <s_lp_Force_Field>
OPLS_2005

> <r_lp_Energy>
32.0669

> <b_lp_Chiralities_Consistent>
1

> <s_lp_Variant>
AV-unprocessed.smi:2782-1

> <Gold.Version>
5.8.1

> <Gold.Id.Protein>
6NUR|6NUR_protein|mol2

> <Gold.PLP.Fitness>
47.6607

> <Gold.PLP.PLP>
-43.1381

> <Gold.PLP.part.hbond>
-1.5035

> <Gold.PLP.part.metal>
0.0000

> <Gold.PLP.part.buried>
-5.3556

> <Gold.PLP.part.nonpolar>
-37.3557

> <Gold.PLP.part.repulsive>
0.1684

> <Gold.PLP.ligand.clash>
0.0000

> <Gold.PLP.ligand.torsion>
0.4633

> <Gold.PLP.Chemscore.Hbond>
1.8008

> <Gold.PLP.Chemscore.CHOScore>
0.0000

> <Gold.PLP.Chemscore.Metal>
0.0000

> <Gold.Chemscore.Hbonds>
donor molecule, donor type, donor heavy atom, donor atom, acceptor molecule, acceptor atom, score
      P1  H  7989  7998       L1    14  0.69
      P1  H  7997  8009       L1    11  0.55

> <Gold.PLP.Chemscore.Internal.Correction>
0.0468

> <Gold.Rescore>
     Score         DG    S(hbond)    S(metal)    S(lipo)     H(rot)  DE(clash)    DE(int)     intcor
     16.47     -17.07       0.92        0.00     121.23       2.22       0.32       0.28       ----

> <Gold.Chemscore.Fitness>
16.4727

> <Gold.Chemscore.DG>
-17.0697

> <Gold.Chemscore.ZeroCoef>
-5.4800

> <Gold.Chemscore.Hbond>
0.9248

> <Gold.Chemscore.Metal>
0.0000

> <Gold.Chemscore.Lipo>
121.2295

> <Gold.Chemscore.Internal_Hbond>
0.0000

> <Gold.Chemscore.DEClash>
0.3205

> <Gold.Chemscore.DEInternal>
0.2766

> <Gold.Chemscore.Rot>
2.2199

> <Gold.Chemscore.Internal.Correction>
   9.000000E+99

> <Gold.Chemscore.Hbonds>
donor molecule, donor type, donor heavy atom, donor atom, acceptor molecule, acceptor atom, score
      P1  H  7989  7998       L1    14  0.11
      P1  H  7997  8009       L1    11  0.11

> <Gold.Chemscore.Hbond.Weighted>
-3.0888

> <Gold.Chemscore.Metal.Weighted>
-0.0000

> <Gold.Chemscore.Lipo.Weighted>
-14.1838

> <Gold.Chemscore.Internal_Hbond.Weighted>
0.0000

> <Gold.Chemscore.DEClash.Weighted>
0.3205

> <Gold.Chemscore.DEInternal.Weighted>
0.2766

> <Gold.Chemscore.Rot.Weighted>
5.6829

> <Gold.Chemscore.Internal.Correction.Weighted>
   9.000000E+99

> <Gold.Protein.RotatedTorsions>
[ 6907 6896 6895 6894 ] final -173.90 input  -60.11 | X-H torsion
[ 7974 7965 7964 7962 ] final  -22.28 input  175.53 | X-H torsion
[ 8008 7997 7996 7995 ] final  146.50 input   59.86 | X-H torsion
[ 10167 10162 10161 10158 ] final -179.97 input  -65.29 | X-H torsion
[ 10718 10713 10712 10709 ] final -142.82 input   66.30 | X-H torsion
[ 10763 10752 10751 10750 ] final -178.24 input  -60.55 | X-H torsion
[ 11005 11000 10999 10996 ] final -134.15 input  -57.11 | X-H torsion

> <Gold.Protein.ActiveResidues>
 VAL166  LYS551  ARG553  GLY616  TRP617  ASP618  TYR619  PRO620  LYS621  CYS622 
 ASP623  PHE694  ASN695  SER759  ASP760  ASP761  ALA762  ILE779  LEU786  VAL792 
 PHE793  MET794  SER795  GLU796  ALA797  LYS798  CYS799  TRP800  GLU811  SER814 

> <Gold.Protein.RotatedAtoms>
  151.5637  133.3399  159.2975 H   0  0  0  0  0  0  0  0  0  0  0  0  # atno 6907 bound_to 6896
  150.8408  134.7702  159.6942 H   0  0  0  0  0  0  0  0  0  0  0  0  # atno 6908 bound_to 6896
  152.4476  134.5469  159.9907 H   0  0  0  0  0  0  0  0  0  0  0  0  # atno 6909 bound_to 6896
  146.1685  140.4457  142.8542 H   0  0  0  0  0  0  0  0  0  0  0  0  # atno 7974 bound_to 7965
  156.2853  140.2180  156.5387 H   0  0  0  0  0  0  0  0  0  0  0  0  # atno 8008 bound_to 7997
  154.7387  140.0489  157.0814 H   0  0  0  0  0  0  0  0  0  0  0  0  # atno 8009 bound_to 7997
  155.0258  140.3129  155.4779 H   0  0  0  0  0  0  0  0  0  0  0  0  # atno 8010 bound_to 7997
  139.5362  144.2490  152.0800 H   0  0  0  0  0  0  0  0  0  0  0  0  # atno 10167 bound_to 10162
  156.3505  130.7685  151.1837 H   0  0  0  0  0  0  0  0  0  0  0  0  # atno 10718 bound_to 10713
  154.5502  135.2812  155.1016 H   0  0  0  0  0  0  0  0  0  0  0  0  # atno 10763 bound_to 10752
  154.2464  135.6347  153.5229 H   0  0  0  0  0  0  0  0  0  0  0  0  # atno 10764 bound_to 10752
  153.0001  135.5572  154.6066 H   0  0  0  0  0  0  0  0  0  0  0  0  # atno 10765 bound_to 10752
  140.9016  134.1683  157.4456 H   0  0  0  0  0  0  0  0  0  0  0  0  # atno 11005 bound_to 11000
  144.8127  140.6414  143.6404 LP  0  0  0  0  0  0  0  0  0  0  0  0  # atno 17320 bound_to 7965
  145.4405  139.1536  143.3973 LP  0  0  0  0  0  0  0  0  0  0  0  0  # atno 17321 bound_to 7965
  140.1961  144.4704  150.6454 LP  0  0  0  0  0  0  0  0  0  0  0  0  # atno 17342 bound_to 10162
  140.6570  143.2240  151.5945 LP  0  0  0  0  0  0  0  0  0  0  0  0  # atno 17343 bound_to 10162
  157.7460  131.0429  150.4717 LP  0  0  0  0  0  0  0  0  0  0  0  0  # atno 17370 bound_to 10713
  156.4911  130.4095  149.6406 LP  0  0  0  0  0  0  0  0  0  0  0  0  # atno 17371 bound_to 10713
  139.8743  134.9900  156.5484 LP  0  0  0  0  0  0  0  0  0  0  0  0  # atno 17394 bound_to 11000
  140.8222  133.8344  155.8906 LP  0  0  0  0  0  0  0  0  0  0  0  0  # atno 17395 bound_to 11000

$$$$
