AV-unprocessed.smi:1354|AV-procd|sdf|5534|dock4
  -GOLD-   22720 5123D 1   1.00000     0.00000
 Structure written by MMmdl.
 39 41  0  0  0  0  0  0  0  0  1 V2000
  153.4982  137.0822  156.4019 O   0  0  0  0  0  0  0  0  0  0  0  0
  152.2414  137.7169  156.2936 C   0  0  0  0  0  0  0  0  0  0  0  0
  152.3683  139.0908  155.6124 C   0  0  0  0  0  0  0  0  0  0  0  0
  151.0595  139.8201  155.4922 C   0  0  0  0  0  0  0  0  0  0  0  0
  150.4530  139.9601  154.3120 N   0  0  0  0  0  0  0  0  0  0  0  0
  149.3242  140.6877  154.6303 C   0  0  0  0  0  0  0  0  0  0  0  0
  148.2839  141.1752  153.8070 C   0  0  0  0  0  0  0  0  0  0  0  0
  147.2183  141.9116  154.3643 C   0  0  0  0  0  0  0  0  0  0  0  0
  147.1767  142.1683  155.7498 C   0  0  0  0  0  0  0  0  0  0  0  0
  148.2009  141.6876  156.5880 C   0  0  0  0  0  0  0  0  0  0  0  0
  149.2637  140.9538  156.0267 C   0  0  0  0  0  0  0  0  0  0  0  0
  150.4037  140.3544  156.5562 N   0  0  0  0  0  0  0  0  0  0  0  0
  150.7770  140.3405  157.9653 C   0  0  0  0  0  0  0  0  0  0  0  0
  152.2256  140.7951  158.1891 C   0  0  0  0  0  0  0  0  0  0  0  0
  152.3239  141.3966  159.4731 O   0  0  0  0  0  0  0  0  0  0  0  0
  152.1688  142.7614  159.5772 C   0  0  0  0  0  0  0  0  0  0  0  0
  151.8131  143.6009  158.4914 C   0  0  0  0  0  0  0  0  0  0  0  0
  151.6746  144.9898  158.6791 C   0  0  0  0  0  0  0  0  0  0  0  0
  151.8901  145.5561  159.9487 C   0  0  0  0  0  0  0  0  0  0  0  0
  152.2458  144.7315  161.0318 C   0  0  0  0  0  0  0  0  0  0  0  0
  152.3852  143.3418  160.8467 C   0  0  0  0  0  0  0  0  0  0  0  0
  152.8166  142.3479  162.1926 Cl  0  0  0  0  0  0  0  0  0  0  0  0
  154.0904  137.6632  156.8547 H   0  0  0  0  0  0  0  0  0  0  0  0
  151.5463  137.0715  155.7560 H   0  0  0  0  0  0  0  0  0  0  0  0
  151.8444  137.8424  157.3011 H   0  0  0  0  0  0  0  0  0  0  0  0
  153.0379  139.7171  156.2028 H   0  0  0  0  0  0  0  0  0  0  0  0
  152.8492  138.9767  154.6426 H   0  0  0  0  0  0  0  0  0  0  0  0
  148.3081  140.9850  152.7442 H   0  0  0  0  0  0  0  0  0  0  0  0
  146.4302  142.2826  153.7258 H   0  0  0  0  0  0  0  0  0  0  0  0
  146.3587  142.7355  156.1691 H   0  0  0  0  0  0  0  0  0  0  0  0
  148.1725  141.8876  157.6485 H   0  0  0  0  0  0  0  0  0  0  0  0
  150.1027  141.0062  158.5043 H   0  0  0  0  0  0  0  0  0  0  0  0
  150.6067  139.3481  158.3819 H   0  0  0  0  0  0  0  0  0  0  0  0
  152.8979  139.9390  158.1195 H   0  0  0  0  0  0  0  0  0  0  0  0
  152.5083  141.5032  157.4110 H   0  0  0  0  0  0  0  0  0  0  0  0
  151.6442  143.2026  157.5026 H   0  0  0  0  0  0  0  0  0  0  0  0
  151.4029  145.6217  157.8463 H   0  0  0  0  0  0  0  0  0  0  0  0
  151.7834  146.6214  160.0918 H   0  0  0  0  0  0  0  0  0  0  0  0
  152.4111  145.1663  162.0066 H   0  0  0  0  0  0  0  0  0  0  0  0
  1  2  1  0  0  0  0
  1 23  1  0  0  0  0
  2  3  1  0  0  0  0
  2 24  1  0  0  0  0
  2 25  1  0  0  0  0
  3  4  1  0  0  0  0
  3 26  1  0  0  0  0
  3 27  1  0  0  0  0
  4 12  1  0  0  0  0
  4  5  2  0  0  0  0
  5  6  1  0  0  0  0
  6 11  2  0  0  0  0
  6  7  1  0  0  0  0
  7  8  2  0  0  0  0
  7 28  1  0  0  0  0
  8  9  1  0  0  0  0
  8 29  1  0  0  0  0
  9 10  2  0  0  0  0
  9 30  1  0  0  0  0
 10 11  1  0  0  0  0
 10 31  1  0  0  0  0
 11 12  1  0  0  0  0
 12 13  1  0  0  0  0
 13 14  1  0  0  0  0
 13 32  1  0  0  0  0
 13 33  1  0  0  0  0
 14 15  1  0  0  0  0
 14 34  1  0  0  0  0
 14 35  1  0  0  0  0
 15 16  1  0  0  0  0
 16 21  1  0  0  0  0
 16 17  2  0  0  0  0
 17 18  1  0  0  0  0
 17 36  1  0  0  0  0
 18 19  2  0  0  0  0
 18 37  1  0  0  0  0
 19 20  1  0  0  0  0
 19 38  1  0  0  0  0
 20 21  2  0  0  0  0
 20 39  1  0  0  0  0
 21 22  1  0  0  0  0
M  END
> <s_m_source_file>
AV-unprocessed.smi

> <i_m_source_file_index>
1354

> <i_lp_mmshare_version>
43012

> <i_f3d_flags>
0

> <s_epik_input>
W2NIXTFbY0hdW2NIXVtjSF1jKGMxMiluKGMobjIpW0NIMl1bQ0gyXVtPSF0pW0NIMl1bQ0gyXU9jM1tjSF1bY0hdW2NIXVtjSF1jM0Ns

> <s_epik_cmdline>
J2VwaWtfcHl0aG9uJywgJy1waCcsICc3LjAnLCAnLXRuJywgJzgnLCAnLW1hJywgJzIwMCcsICctbWV0YWxfYmluZGluZycsICctaW1hZScsICc8aW5maWxlLm1hZT4nLCAnLW9tYWUnLCAnPG91dGZpbGUubWFlPic=

> <r_lp_tautomer_probability>
1

> <r_epik_Ionization_Penalty>
0.195126

> <r_epik_Ionization_Penalty_Charging>
0

> <r_epik_Ionization_Penalty_Neutral>
0.195126

> <r_epik_State_Penalty>
0.184862

> <r_epik_Charging_Adjusted_Penalty>
0.184862

> <i_epik_Tot_Q>
0

> <i_epik_Tot_abs_Q>
0

> <r_epik_Metal_State_Penalty>
0.000216911

> <b_epik_Metal_Only>
0

> <s_lp_Force_Field>
OPLS_2005

> <r_lp_Energy>
15.3671

> <b_lp_Chiralities_Consistent>
1

> <s_lp_Variant>
AV-unprocessed.smi:1354-1

> <Gold.Version>
5.8.1

> <Gold.Id.Protein>
6NUR|6NUR_protein|mol2

> <Gold.PLP.Fitness>
55.8859

> <Gold.PLP.PLP>
-52.1335

> <Gold.PLP.part.hbond>
-2.0000

> <Gold.PLP.part.metal>
0.0000

> <Gold.PLP.part.buried>
-4.8778

> <Gold.PLP.part.nonpolar>
-46.2789

> <Gold.PLP.part.repulsive>
0.1249

> <Gold.PLP.ligand.clash>
0.0000

> <Gold.PLP.ligand.torsion>
0.6355

> <Gold.PLP.Chemscore.Hbond>
1.6400

> <Gold.PLP.Chemscore.CHOScore>
0.0000

> <Gold.PLP.Chemscore.Metal>
0.0000

> <Gold.Chemscore.Hbonds>
donor molecule, donor type, donor heavy atom, donor atom, acceptor molecule, acceptor atom, score
      P1  H  7989  7998       L1     5  1.00
      P1  H 10752 10765       L1     1  0.64

> <Gold.PLP.Chemscore.Internal.Correction>
0.1035

> <Gold.Rescore>
     Score         DG    S(hbond)    S(metal)    S(lipo)     H(rot)  DE(clash)    DE(int)     intcor
     18.20     -18.93       0.97        0.00     137.74       2.31       0.14       0.59       ----

> <Gold.Chemscore.Fitness>
18.1975

> <Gold.Chemscore.DG>
-18.9267

> <Gold.Chemscore.ZeroCoef>
-5.4800

> <Gold.Chemscore.Hbond>
0.9713

> <Gold.Chemscore.Metal>
0.0000

> <Gold.Chemscore.Lipo>
137.7410

> <Gold.Chemscore.Internal_Hbond>
0.0000

> <Gold.Chemscore.DEClash>
0.1442

> <Gold.Chemscore.DEInternal>
0.5850

> <Gold.Chemscore.Rot>
2.3098

> <Gold.Chemscore.Internal.Correction>
   9.000000E+99

> <Gold.Chemscore.Hbonds>
donor molecule, donor type, donor heavy atom, donor atom, acceptor molecule, acceptor atom, score
      P1  H  7989  7998       L1     5  0.22
      P1  H 10752 10765       L1     1  0.40

> <Gold.Chemscore.Hbond.Weighted>
-3.2442

> <Gold.Chemscore.Metal.Weighted>
-0.0000

> <Gold.Chemscore.Lipo.Weighted>
-16.1157

> <Gold.Chemscore.Internal_Hbond.Weighted>
0.0000

> <Gold.Chemscore.DEClash.Weighted>
0.1442

> <Gold.Chemscore.DEInternal.Weighted>
0.5850

> <Gold.Chemscore.Rot.Weighted>
5.9131

> <Gold.Chemscore.Internal.Correction.Weighted>
   9.000000E+99

> <Gold.Protein.RotatedTorsions>
[ 6907 6896 6895 6894 ] final    8.38 input  -60.11 | X-H torsion
[ 7974 7965 7964 7962 ] final   89.09 input  175.53 | X-H torsion
[ 8008 7997 7996 7995 ] final  -28.27 input   59.86 | X-H torsion
[ 10167 10162 10161 10158 ] final -105.39 input  -65.29 | X-H torsion
[ 10718 10713 10712 10709 ] final  109.24 input   66.30 | X-H torsion
[ 10763 10752 10751 10750 ] final -128.13 input  -60.55 | X-H torsion
[ 11005 11000 10999 10996 ] final   74.29 input  -57.11 | X-H torsion

> <Gold.Protein.ActiveResidues>
 VAL166  LYS551  ARG553  GLY616  TRP617  ASP618  TYR619  PRO620  LYS621  CYS622 
 ASP623  PHE694  ASN695  SER759  ASP760  ASP761  ALA762  ILE779  LEU786  VAL792 
 PHE793  MET794  SER795  GLU796  ALA797  LYS798  CYS799  TRP800  GLU811  SER814 

> <Gold.Protein.RotatedAtoms>
  151.7051  135.0923  160.0257 H   0  0  0  0  0  0  0  0  0  0  0  0  # atno 6907 bound_to 6896
  152.3696  133.6398  159.6086 H   0  0  0  0  0  0  0  0  0  0  0  0  # atno 6908 bound_to 6896
  150.7664  133.9207  159.3439 H   0  0  0  0  0  0  0  0  0  0  0  0  # atno 6909 bound_to 6896
  145.5370  139.2286  143.2587 H   0  0  0  0  0  0  0  0  0  0  0  0  # atno 7974 bound_to 7965
  154.4339  140.1850  156.1063 H   0  0  0  0  0  0  0  0  0  0  0  0  # atno 8008 bound_to 7997
  156.0253  140.3336  155.7056 H   0  0  0  0  0  0  0  0  0  0  0  0  # atno 8009 bound_to 7997
  155.5918  140.0631  157.2747 H   0  0  0  0  0  0  0  0  0  0  0  0  # atno 8010 bound_to 7997
  140.1991  143.3832  152.1144 H   0  0  0  0  0  0  0  0  0  0  0  0  # atno 10167 bound_to 10162
  157.6550  131.0910  150.6424 H   0  0  0  0  0  0  0  0  0  0  0  0  # atno 10718 bound_to 10713
  154.8755  135.3939  154.3707 H   0  0  0  0  0  0  0  0  0  0  0  0  # atno 10763 bound_to 10752
  153.4467  135.7027  153.6140 H   0  0  0  0  0  0  0  0  0  0  0  0  # atno 10764 bound_to 10752
  153.4698  135.3793  155.2353 H   0  0  0  0  0  0  0  0  0  0  0  0  # atno 10765 bound_to 10752
  139.9398  134.7420  156.1130 H   0  0  0  0  0  0  0  0  0  0  0  0  # atno 11005 bound_to 11000
  146.2007  140.6188  142.9104 LP  0  0  0  0  0  0  0  0  0  0  0  0  # atno 17320 bound_to 7965
  144.7596  140.5391  143.6744 LP  0  0  0  0  0  0  0  0  0  0  0  0  # atno 17321 bound_to 7965
  139.5224  144.7059  151.5356 LP  0  0  0  0  0  0  0  0  0  0  0  0  # atno 17342 bound_to 10162
  140.6403  143.8902  150.6685 LP  0  0  0  0  0  0  0  0  0  0  0  0  # atno 17343 bound_to 10162
  156.6731  130.4545  149.5651 LP  0  0  0  0  0  0  0  0  0  0  0  0  # atno 17370 bound_to 10713
  156.1983  130.6603  151.1139 LP  0  0  0  0  0  0  0  0  0  0  0  0  # atno 17371 bound_to 10713
  141.1028  133.6671  156.2794 LP  0  0  0  0  0  0  0  0  0  0  0  0  # atno 17394 bound_to 11000
  140.5981  134.5583  157.5512 LP  0  0  0  0  0  0  0  0  0  0  0  0  # atno 17395 bound_to 11000

$$$$
