#       Name:                AV-unprocessed.smi:2518
#       Creating user name   scv26
#       Creation time:       Fri Mar 27 13:53:55 2020


#       File generated by GOLD software.
#

@<TRIPOS>MOLECULE
AV-unprocessed.smi:2518
    49    51     1
SMALL
NO_CHARGES


@<TRIPOS>ATOM
      1 ****        -7.0260   2.6718   0.8976 C.3            1 S1                 0.0000
      2 ****        -5.5461   2.3561   0.8304 C.ar           1 S1                 0.0000
      3 ****        -4.5969   3.3927   0.7318 C.ar           1 S1                 0.0000
      4 ****        -3.2236   3.0883   0.6686 C.ar           1 S1                 0.0000
      5 ****        -2.7768   1.7514   0.7013 C.ar           1 S1                 0.0000
      6 ****        -1.4158   1.5454   0.6314 O.3            1 S1                 0.0000
      7 ****        -0.9366   0.2069   0.6098 C.3            1 S1                 0.0000
      8 ****         0.5948   0.2321   0.4881 C.3            1 S1                 0.0000
      9 ****         0.9289   0.4711  -0.8657 O.3            1 S1                 0.0000
     10 ****         1.2289  -1.0977   0.9425 C.3            1 S1                 0.0000
     11 ****         2.6808  -1.0873   0.8431 N.pl3          1 S1                 0.0000
     12 ****         3.4134  -0.5373   1.8459 N.2            1 S1                 0.0000
     13 ****         4.6860  -0.6612   1.4751 C.2            1 S1                 0.0000
     14 ****         4.8126  -1.2983   0.2104 C.2            1 S1                 0.0000
     15 ****         5.9290  -1.6733  -0.6504 C.2            1 S1                 0.0000
     16 ****         5.6652  -2.2535  -1.7788 N.2            1 S1                 0.0000
     17 ****         4.3492  -2.5196  -2.1734 N.am           1 S1                 0.0000
     18 ****         4.2527  -3.1758  -3.4768 C.3            1 S1                 0.0000
     19 ****         3.2354  -2.2184  -1.4363 C.2            1 S1                 0.0000
     20 ****         2.0823  -2.4692  -1.7867 O.2            1 S1                 0.0000
     21 ****         3.5285  -1.5489  -0.1453 C.2            1 S1                 0.0000
     22 ****        -3.7372   0.7134   0.8031 C.ar           1 S1                 0.0000
     23 ****        -5.1113   1.0167   0.8658 C.ar           1 S1                 0.0000
     24 ****        -7.2050   3.7475   0.8855 H              1 S1                 0.0000
     25 ****        -7.4579   2.2653   1.8124 H              1 S1                 0.0000
     26 ****        -7.5451   2.2301   0.0467 H              1 S1                 0.0000
     27 ****        -4.9165   4.4241   0.7034 H              1 S1                 0.0000
     28 ****        -2.5044   3.8905   0.5918 H              1 S1                 0.0000
     29 ****        -1.2169  -0.2735   1.5488 H              1 S1                 0.0000
     30 ****        -1.3792  -0.3684  -0.2058 H              1 S1                 0.0000
     31 ****         0.9970   1.0416   1.0988 H              1 S1                 0.0000
     32 ****         0.5485   1.2966  -1.1250 H              1 S1                 0.0000
     33 ****         0.9629  -1.2977   1.9815 H              1 S1                 0.0000
     34 ****         0.8326  -1.9334   0.3668 H              1 S1                 0.0000
     35 ****         5.4621  -0.2878   2.1266 H              1 S1                 0.0000
     36 ****         6.9555  -1.4677  -0.3471 H              1 S1                 0.0000
     37 ****         3.2291  -3.3069  -3.8296 H              1 S1                 0.0000
     38 ****         4.7148  -4.1627  -3.4332 H              1 S1                 0.0000
     39 ****         4.7815  -2.5917  -4.2311 H              1 S1                 0.0000
     40 ****        -3.4459  -0.3253   0.8356 H              1 S1                 0.0000
     41 ****        -5.8325   0.2160   0.9414 H              1 S1                 0.0000
     42 ****        -1.0073   1.9932   1.4268 LP             1 S1                 0.0000
     43 ****        -1.0917   1.9893  -0.2040 LP             1 S1                 0.0000
     44 ****         0.5649  -0.2635  -1.4383 LP             1 S1                 0.0000
     45 ****         1.9231   0.5106  -0.9665 LP             1 S1                 0.0000
     46 ****         3.0682  -0.1246   2.6888 LP             1 S1                 0.0000
     47 ****         6.4189  -2.5170  -2.3809 LP             1 S1                 0.0000
     48 ****         1.9131  -2.9223  -2.6619 LP             1 S1                 0.0000
     49 ****         1.3149  -2.2199  -1.1961 LP             1 S1                 0.0000
@<TRIPOS>BOND
    1    1    2 1     
    2    1   24 1     
    3    1   25 1     
    4    1   26 1     
    5    2   23 ar    
    6    2    3 ar    
    7    3    4 ar    
    8    3   27 1     
    9    4    5 ar    
   10    4   28 1     
   11    5    6 1     
   12    5   22 ar    
   13    6    7 1     
   14    7    8 1     
   15    7   29 1     
   16    7   30 1     
   17    8    9 1     
   18    8   10 1     
   19    8   31 1     
   20    9   32 1     
   21   10   11 1     
   22   10   33 1     
   23   10   34 1     
   24   11   21 1     
   25   11   12 1     
   26   12   13 2     
   27   13   14 1     
   28   13   35 1     
   29   14   21 2     
   30   14   15 1     
   31   15   16 2     
   32   15   36 1     
   33   16   17 1     
   34   17   18 1     
   35   17   19 am    
   36   18   37 1     
   37   18   38 1     
   38   18   39 1     
   39   19   20 2     
   40   19   21 1     
   41   22   23 ar    
   42   22   40 1     
   43   23   41 1     
   44    6   42 1     
   45    6   43 1     
   46    9   44 1     
   47    9   45 1     
   48   12   46 1     
   49   16   47 1     
   50   20   48 1     
   51   20   49 1     
@<TRIPOS>SUBSTRUCTURE
      1 S1             1
@<TRIPOS>SET
LONE_PAIRS      STATIC     ATOMS    <user>   **** ""
8 42 43 44 45 46 47 48 49
DONOR_HYDROGENS      STATIC     ATOMS    <user>   **** ""
1 32
ATOM$BLUE        STATIC     ATOMS    COLORGROUP SYSTEM
8 42 43 44 45 46 47 48 49
ATOM$RED        STATIC     ATOMS    COLORGROUP SYSTEM
1 32
