AV-unprocessed.smi:3342|AV-procd|sdf|12888|dock8
  -GOLD-   2272019293D 1   1.00000     0.00000
 Structure written by MMmdl.
 42 43  0  0  0  0  0  0  0  0  2 V2000
  150.6911  133.0762  156.4997 C   0  0  0  0  0  0  0  0  0  0  0  0
  150.4162  134.0406  155.3381 C   0  0  1  0  0  0  0  0  0  0  0  0
  148.9023  134.1616  155.0582 C   0  0  0  0  0  0  0  0  0  0  0  0
  148.4010  133.1272  154.1474 N   0  0  0  0  0  0  0  0  0  0  0  0
  147.4634  132.1634  154.4174 C   0  0  0  0  0  0  0  0  0  0  0  0
  147.3079  131.4366  153.2652 C   0  0  0  0  0  0  0  0  0  0  0  0
  148.1608  131.9828  152.3439 N   0  3  0  0  0  0  0  0  0  0  0  0
  148.8281  133.0078  152.8837 C   0  0  0  0  0  0  0  0  0  0  0  0
  150.9981  135.3430  155.6599 N   0  0  0  0  0  0  0  0  0  0  0  0
  150.8645  136.0053  156.8227 C   0  0  0  0  0  0  0  0  0  0  0  0
  150.2364  135.5376  157.7740 O   0  0  0  0  0  0  0  0  0  0  0  0
  151.5128  137.1960  156.8742 N   0  0  0  0  0  0  0  0  0  0  0  0
  152.3233  137.7930  155.7992 C   0  0  0  0  0  0  0  0  0  0  0  0
  151.5173  138.9310  155.1467 C   0  0  0  0  0  0  0  0  0  0  0  0
  151.0969  139.9887  156.1950 C   0  0  0  0  0  0  0  0  0  0  0  0
  150.1802  141.0496  155.5712 C   0  0  0  0  0  0  0  0  0  0  0  0
  149.8110  142.0695  156.3502 N   0  0  0  0  0  0  0  0  0  0  0  0
  149.8093  140.9527  154.4030 O   0  0  0  0  0  0  0  0  0  0  0  0
  150.4205  139.3175  157.4138 C   0  0  0  0  0  0  0  0  0  0  0  0
  151.2788  138.1601  157.9562 C   0  0  0  0  0  0  0  0  0  0  0  0
  150.2997  132.0813  156.2849 H   0  0  0  0  0  0  0  0  0  0  0  0
  150.2278  133.4232  157.4240 H   0  0  0  0  0  0  0  0  0  0  0  0
  151.7617  132.9748  156.6817 H   0  0  0  0  0  0  0  0  0  0  0  0
  150.9078  133.6265  154.4560 H   0  0  0  0  0  0  0  0  0  0  0  0
  148.3362  134.0772  155.9870 H   0  0  0  0  0  0  0  0  0  0  0  0
  148.6635  135.1366  154.6307 H   0  0  0  0  0  0  0  0  0  0  0  0
  146.9837  132.0734  155.3812 H   0  0  0  0  0  0  0  0  0  0  0  0
  146.6706  130.5944  153.0374 H   0  0  0  0  0  0  0  0  0  0  0  0
  149.5591  133.6247  152.3919 H   0  0  0  0  0  0  0  0  0  0  0  0
  151.5378  135.7881  154.9316 H   0  0  0  0  0  0  0  0  0  0  0  0
  153.2465  138.1890  156.2248 H   0  0  0  0  0  0  0  0  0  0  0  0
  152.6414  137.0830  155.0360 H   0  0  0  0  0  0  0  0  0  0  0  0
  152.1129  139.3992  154.3621 H   0  0  0  0  0  0  0  0  0  0  0  0
  150.6378  138.5093  154.6563 H   0  0  0  0  0  0  0  0  0  0  0  0
  152.0043  140.4812  156.5500 H   0  0  0  0  0  0  0  0  0  0  0  0
  149.2102  142.7934  155.9837 H   0  0  0  0  0  0  0  0  0  0  0  0
  150.1372  142.1134  157.3047 H   0  0  0  0  0  0  0  0  0  0  0  0
  150.2556  140.0528  158.2022 H   0  0  0  0  0  0  0  0  0  0  0  0
  149.4363  138.9336  157.1394 H   0  0  0  0  0  0  0  0  0  0  0  0
  150.7953  137.7103  158.8244 H   0  0  0  0  0  0  0  0  0  0  0  0
  152.2357  138.5395  158.3174 H   0  0  0  0  0  0  0  0  0  0  0  0
  148.2704  131.6614  151.3902 H   0  0  0  0  0  0  0  0  0  0  0  0
  1  2  1  0  0  0  0
  1 21  1  0  0  0  0
  1 22  1  0  0  0  0
  1 23  1  0  0  0  0
  2  3  1  0  0  0  0
  2  9  1  0  0  0  0
  2 24  1  0  0  0  0
  3  4  1  0  0  0  0
  3 25  1  0  0  0  0
  3 26  1  0  0  0  0
  4  8  1  0  0  0  0
  4  5  1  0  0  0  0
  5  6  2  0  0  0  0
  5 27  1  0  0  0  0
  6  7  1  0  0  0  0
  6 28  1  0  0  0  0
  7  8  2  0  0  0  0
  7 42  1  0  0  0  0
  8 29  1  0  0  0  0
  9 10  1  0  0  0  0
  9 30  1  0  0  0  0
 10 11  2  0  0  0  0
 10 12  1  0  0  0  0
 12 20  1  0  0  0  0
 12 13  1  0  0  0  0
 13 14  1  0  0  0  0
 13 31  1  0  0  0  0
 13 32  1  0  0  0  0
 14 15  1  0  0  0  0
 14 33  1  0  0  0  0
 14 34  1  0  0  0  0
 15 16  1  0  0  0  0
 15 19  1  0  0  0  0
 15 35  1  0  0  0  0
 16 17  1  0  0  0  0
 16 18  2  0  0  0  0
 17 36  1  0  0  0  0
 17 37  1  0  0  0  0
 19 20  1  0  0  0  0
 19 38  1  0  0  0  0
 19 39  1  0  0  0  0
 20 40  1  0  0  0  0
 20 41  1  0  0  0  0
M  CHG  1   7   1
M  END
> <s_m_source_file>
AV-unprocessed.smi

> <i_m_source_file_index>
3342

> <i_lp_mmshare_version>
43012

> <i_f3d_flags>
0

> <s_epik_input>
W2NIXTFuW2NIXVtjSF1uMVtDSDJdW0NAQEhdKFtDSDNdKVtOSF1DKD1PKU4yW0NIMl1bQ0gyXVtDSF0oQyg9TylbTkgyXSlbQ0gyXVtDSDJdMg==

> <s_epik_cmdline>
J2VwaWtfcHl0aG9uJywgJy1waCcsICc3LjAnLCAnLXRuJywgJzgnLCAnLW1hJywgJzIwMCcsICctbWV0YWxfYmluZGluZycsICctaW1hZScsICc8aW5maWxlLm1hZT4nLCAnLW9tYWUnLCAnPG91dGZpbGUubWFlPic=

> <r_lp_tautomer_probability>
1

> <r_epik_Ionization_Penalty>
0.254015

> <r_epik_Ionization_Penalty_Charging>
0

> <r_epik_Ionization_Penalty_Neutral>
0.254015

> <r_epik_State_Penalty>
0.245417

> <r_epik_Charging_Adjusted_Penalty>
0.245417

> <i_epik_Tot_Q>
1

> <i_epik_Tot_abs_Q>
1

> <r_epik_Metal_State_Penalty>
0.535589

> <b_epik_Metal_Only>
0

> <s_lp_Force_Field>
OPLS_2005

> <r_lp_Energy>
31.4878

> <b_lp_Chiralities_Consistent>
1

> <s_lp_Variant>
AV-unprocessed.smi:3342-2

> <Gold.Version>
5.8.1

> <Gold.Id.Protein>
6NUR|6NUR_protein|mol2

> <Gold.PLP.Fitness>
38.6154

> <Gold.PLP.PLP>
-29.7691

> <Gold.PLP.part.hbond>
-3.9138

> <Gold.PLP.part.metal>
0.0000

> <Gold.PLP.part.buried>
-5.7218

> <Gold.PLP.part.nonpolar>
-21.6894

> <Gold.PLP.part.repulsive>
0.3993

> <Gold.PLP.ligand.clash>
0.0000

> <Gold.PLP.ligand.torsion>
0.5446

> <Gold.PLP.Chemscore.Hbond>
3.2860

> <Gold.PLP.Chemscore.CHOScore>
0.0000

> <Gold.PLP.Chemscore.Metal>
0.0000

> <Gold.Chemscore.Hbonds>
donor molecule, donor type, donor heavy atom, donor atom, acceptor molecule, acceptor atom, score
      L1  H     7    42       P1 10747  1.00
      L1  H    17    36       P1  8028  0.98
      P1  H  6896  6908       L1    11  0.69
      P1  H  7989  7998       L1    18  0.59

> <Gold.PLP.Chemscore.Internal.Correction>
0.0775

> <Gold.Rescore>
     Score         DG    S(hbond)    S(metal)    S(lipo)     H(rot)  DE(clash)    DE(int)     intcor
     14.33     -16.19       3.42        0.00      45.00       2.34       0.00       1.86       ----

> <Gold.Chemscore.Fitness>
14.3257

> <Gold.Chemscore.DG>
-16.1856

> <Gold.Chemscore.ZeroCoef>
-5.4800

> <Gold.Chemscore.Hbond>
3.4223

> <Gold.Chemscore.Metal>
0.0000

> <Gold.Chemscore.Lipo>
45.0040

> <Gold.Chemscore.Internal_Hbond>
0.0000

> <Gold.Chemscore.DEClash>
0.0000

> <Gold.Chemscore.DEInternal>
1.8599

> <Gold.Chemscore.Rot>
2.3400

> <Gold.Chemscore.Internal.Correction>
   9.000000E+99

> <Gold.Chemscore.Hbonds>
donor molecule, donor type, donor heavy atom, donor atom, acceptor molecule, acceptor atom, score
      L1  H     7    42       P1 10747  0.92
      L1  H    17    36       P1  8028  0.91
      P1  H  6896  6908       L1    11  0.66
      P1  H  7989  7998       L1    18  0.14

> <Gold.Chemscore.Hbond.Weighted>
-11.4305

> <Gold.Chemscore.Metal.Weighted>
-0.0000

> <Gold.Chemscore.Lipo.Weighted>
-5.2655

> <Gold.Chemscore.Internal_Hbond.Weighted>
0.0000

> <Gold.Chemscore.DEClash.Weighted>
0.0000

> <Gold.Chemscore.DEInternal.Weighted>
1.8599

> <Gold.Chemscore.Rot.Weighted>
5.9904

> <Gold.Chemscore.Internal.Correction.Weighted>
   9.000000E+99

> <Gold.Protein.RotatedTorsions>
[ 6907 6896 6895 6894 ] final  165.42 input  -60.11 | X-H torsion
[ 7974 7965 7964 7962 ] final  100.70 input  175.53 | X-H torsion
[ 8008 7997 7996 7995 ] final    7.18 input   59.86 | X-H torsion
[ 10167 10162 10161 10158 ] final  -40.84 input  -65.29 | X-H torsion
[ 10718 10713 10712 10709 ] final -127.85 input   66.30 | X-H torsion
[ 10763 10752 10751 10750 ] final   92.85 input  -60.55 | X-H torsion
[ 11005 11000 10999 10996 ] final  101.39 input  -57.11 | X-H torsion

> <Gold.Protein.ActiveResidues>
 VAL166  LYS551  ARG553  GLY616  TRP617  ASP618  TYR619  PRO620  LYS621  CYS622 
 ASP623  PHE694  ASN695  SER759  ASP760  ASP761  ALA762  ILE779  LEU786  VAL792 
 PHE793  MET794  SER795  GLU796  ALA797  LYS798  CYS799  TRP800  GLU811  SER814 

> <Gold.Protein.RotatedAtoms>
  151.8947  133.3524  159.3810 H   0  0  0  0  0  0  0  0  0  0  0  0  # atno 6907 bound_to 6896
  150.7094  134.4888  159.5515 H   0  0  0  0  0  0  0  0  0  0  0  0  # atno 6908 bound_to 6896
  152.2465  134.8176  160.0503 H   0  0  0  0  0  0  0  0  0  0  0  0  # atno 6909 bound_to 6896
  145.3821  139.2378  143.3398 H   0  0  0  0  0  0  0  0  0  0  0  0  # atno 7974 bound_to 7965
  154.7505  140.2766  155.6296 H   0  0  0  0  0  0  0  0  0  0  0  0  # atno 8008 bound_to 7997
  156.2894  140.2679  156.2184 H   0  0  0  0  0  0  0  0  0  0  0  0  # atno 8009 bound_to 7997
  155.0142  140.0372  157.2401 H   0  0  0  0  0  0  0  0  0  0  0  0  # atno 8010 bound_to 7997
  140.7021  143.3129  151.2982 H   0  0  0  0  0  0  0  0  0  0  0  0  # atno 10167 bound_to 10162
  156.1895  130.6786  151.0406 H   0  0  0  0  0  0  0  0  0  0  0  0  # atno 10718 bound_to 10713
  153.2238  135.4346  155.0519 H   0  0  0  0  0  0  0  0  0  0  0  0  # atno 10763 bound_to 10752
  154.8263  135.3363  154.6888 H   0  0  0  0  0  0  0  0  0  0  0  0  # atno 10764 bound_to 10752
  153.7319  135.7010  153.5043 H   0  0  0  0  0  0  0  0  0  0  0  0  # atno 10765 bound_to 10752
  139.8773  134.9181  156.4900 H   0  0  0  0  0  0  0  0  0  0  0  0  # atno 11005 bound_to 11000
  146.2837  140.4490  142.8766 LP  0  0  0  0  0  0  0  0  0  0  0  0  # atno 17320 bound_to 7965
  144.8500  140.6987  143.6174 LP  0  0  0  0  0  0  0  0  0  0  0  0  # atno 17321 bound_to 7965
  139.6558  144.0278  152.2659 LP  0  0  0  0  0  0  0  0  0  0  0  0  # atno 17342 bound_to 10162
  139.9830  144.6415  150.7883 LP  0  0  0  0  0  0  0  0  0  0  0  0  # atno 17343 bound_to 10162
  157.6920  131.0807  150.7080 LP  0  0  0  0  0  0  0  0  0  0  0  0  # atno 17370 bound_to 10713
  156.7136  130.4659  149.5541 LP  0  0  0  0  0  0  0  0  0  0  0  0  # atno 17371 bound_to 10713
  140.8666  133.8020  155.9320 LP  0  0  0  0  0  0  0  0  0  0  0  0  # atno 17394 bound_to 11000
  140.8996  134.2395  157.5049 LP  0  0  0  0  0  0  0  0  0  0  0  0  # atno 17395 bound_to 11000

$$$$
