#       Name:                AV-unprocessed.smi:793
#       Creating user name   scv26
#       Creation time:       Fri Mar 27 01:18:33 2020


#       File generated by GOLD software.
#

@<TRIPOS>MOLECULE
AV-unprocessed.smi:793
    45    46     1
SMALL
NO_CHARGES


@<TRIPOS>ATOM
      1 ****        -3.4756   2.2256  -0.3546 C.3            1 S1                 0.0000
      2 ****        -2.9429   0.8084  -0.1089 C.3            1 S1                 0.0000
      3 ****        -1.4168   0.7062  -0.2900 C.3            1 S1                 0.0000
      4 ****        -0.8023   1.4646   0.7508 O.3            1 S1                 0.0000
      5 ****         0.5963   1.7093   0.6154 C.3            1 S1                 0.0000
      6 ****         1.3727   0.9218   1.6769 C.3            1 S1                 0.0000
      7 ****         1.2956   1.7602   2.9601 C.3            1 S1                 0.0000
      8 ****         0.8585   3.1693   2.5338 C.3            1 S1                 0.0000
      9 ****         0.8550   3.1648   1.0029 C.3            1 S1                 0.0000
     10 ****        -0.9404  -0.7552  -0.2382 C.2            1 S1                 0.0000
     11 ****        -1.3051  -1.4770   0.6894 O.2            1 S1                 0.0000
     12 ****        -0.1274  -1.1326  -1.2444 N.am           1 S1                 0.0000
     13 ****         0.4942  -2.3703  -1.4774 C.2            1 S1                 0.0000
     14 ****         0.4636  -3.4459  -0.6490 C.2            1 S1                 0.0000
     15 ****         1.0969  -4.6500  -0.9227 N.pl3          1 S1                 0.0000
     16 ****         1.8069  -4.7808  -2.1052 C.2            1 S1                 0.0000
     17 ****         1.9192  -3.7903  -3.0117 C.2            1 S1                 0.0000
     18 ****         1.2588  -2.4915  -2.7507 C.2            1 S1                 0.0000
     19 ****         1.3451  -1.5638  -3.5552 O.2            1 S1                 0.0000
     20 ****        -4.5582   2.2593  -0.2312 H              1 S1                 0.0000
     21 ****        -3.2452   2.5633  -1.3653 H              1 S1                 0.0000
     22 ****        -3.0390   2.9390   0.3450 H              1 S1                 0.0000
     23 ****        -3.2228   0.4893   0.8961 H              1 S1                 0.0000
     24 ****        -3.4420   0.1253  -0.7979 H              1 S1                 0.0000
     25 ****        -1.1568   1.1410  -1.2574 H              1 S1                 0.0000
     26 ****         0.9537   1.5069  -0.3958 H              1 S1                 0.0000
     27 ****         0.9980  -0.0917   1.8198 H              1 S1                 0.0000
     28 ****         2.4153   0.8386   1.3673 H              1 S1                 0.0000
     29 ****         0.5666   1.3367   3.6519 H              1 S1                 0.0000
     30 ****         2.2587   1.7764   3.4714 H              1 S1                 0.0000
     31 ****        -0.1499   3.3635   2.9013 H              1 S1                 0.0000
     32 ****         1.5084   3.9458   2.9377 H              1 S1                 0.0000
     33 ****         1.8373   3.4675   0.6378 H              1 S1                 0.0000
     34 ****         0.1211   3.8519   0.5805 H              1 S1                 0.0000
     35 ****         0.0668  -0.4308  -1.9442 H              1 S1                 0.0000
     36 ****        -0.0497  -3.4662   0.2984 H              1 S1                 0.0000
     37 ****         2.2660  -5.7492  -2.2406 H              1 S1                 0.0000
     38 ****         2.4801  -3.9221  -3.9253 H              1 S1                 0.0000
     39 ****         1.0402  -5.4186  -0.2693 H              1 S1                 0.0000
     40 ****        -0.9435   0.9726   1.6098 LP             1 S1                 0.0000
     41 ****        -1.2635   2.3509   0.7945 LP             1 S1                 0.0000
     42 ****        -1.9058  -1.1119   1.4006 LP             1 S1                 0.0000
     43 ****        -1.0008  -2.4286   0.7319 LP             1 S1                 0.0000
     44 ****         0.8932  -0.6924  -3.3640 LP             1 S1                 0.0000
     45 ****         1.8671  -1.6815  -4.4000 LP             1 S1                 0.0000
@<TRIPOS>BOND
    1    1    2 1     
    2    1   20 1     
    3    1   21 1     
    4    1   22 1     
    5    2    3 1     
    6    2   23 1     
    7    2   24 1     
    8    3    4 1     
    9    3   10 1     
   10    3   25 1     
   11    4    5 1     
   12    5    9 1     
   13    5    6 1     
   14    5   26 1     
   15    6    7 1     
   16    6   27 1     
   17    6   28 1     
   18    7    8 1     
   19    7   29 1     
   20    7   30 1     
   21    8    9 1     
   22    8   31 1     
   23    8   32 1     
   24    9   33 1     
   25    9   34 1     
   26   10   11 2     
   27   10   12 am    
   28   12   35 1     
   29   12   13 1     
   30   13   18 1     
   31   13   14 2     
   32   14   36 1     
   33   14   15 1     
   34   15   39 1     
   35   15   16 1     
   36   16   37 1     
   37   16   17 2     
   38   17   18 1     
   39   17   38 1     
   40   18   19 2     
   41    4   40 1     
   42    4   41 1     
   43   11   42 1     
   44   11   43 1     
   45   19   44 1     
   46   19   45 1     
@<TRIPOS>SUBSTRUCTURE
      1 S1             1
@<TRIPOS>SET
LONE_PAIRS      STATIC     ATOMS    <user>   **** ""
6 40 41 42 43 44 45
DONOR_HYDROGENS      STATIC     ATOMS    <user>   **** ""
2 35 39
ATOM$BLUE        STATIC     ATOMS    COLORGROUP SYSTEM
6 40 41 42 43 44 45
ATOM$RED        STATIC     ATOMS    COLORGROUP SYSTEM
2 35 39
