AV-unprocessed.smi:1947|AV-procd|sdf|7866|dock10
  -GOLD-   2272010 13D 1   1.00000     0.00000
 Structure written by MMmdl.
 39 40  0  0  0  0  0  0  0  0  1 V2000
  142.8950  133.3843  151.5917 C   0  0  0  0  0  0  0  0  0  0  0  0
  144.2518  132.7426  151.2605 C   0  0  1  0  0  0  0  0  0  0  0  0
  144.3821  132.4203  149.7586 C   0  0  0  0  0  0  0  0  0  0  0  0
  145.7280  131.7489  149.4423 C   0  0  0  0  0  0  0  0  0  0  0  0
  146.9068  132.6127  149.9160 C   0  0  0  0  0  0  0  0  0  0  0  0
  146.7891  132.9474  151.4125 C   0  0  0  0  0  0  0  0  0  0  0  0
  145.4375  133.6042  151.7497 C   0  0  1  0  0  0  0  0  0  0  0  0
  145.3827  134.8734  151.1100 O   0  0  0  0  0  0  0  0  0  0  0  0
  144.6609  135.8595  151.8305 C   0  0  0  0  0  0  0  0  0  0  0  0
  145.1516  135.8663  153.2858 C   0  0  0  0  0  0  0  0  0  0  0  0
  146.4674  136.4859  153.4054 N   0  0  0  0  0  0  0  0  0  0  0  0
  146.7320  137.6143  154.0784 C   0  0  0  0  0  0  0  0  0  0  0  0
  145.8863  138.2329  154.7242 O   0  0  0  0  0  0  0  0  0  0  0  0
  148.0195  137.9696  153.9416 N   0  0  0  0  0  0  0  0  0  0  0  0
  148.6644  139.1224  154.4545 C   0  0  0  0  0  0  0  0  0  0  0  0
  149.9736  139.0440  154.7208 N   0  0  0  0  0  0  0  0  0  0  0  0
  150.4773  140.2417  155.2137 N   0  0  0  0  0  0  0  0  0  0  0  0
  149.5274  141.1780  155.2981 C   0  0  0  0  0  0  0  0  0  0  0  0
  147.9221  140.6909  154.7834 S   0  0  0  0  0  0  0  0  0  0  0  0
  142.7514  134.3184  151.0485 H   0  0  0  0  0  0  0  0  0  0  0  0
  142.8131  133.6034  152.6566 H   0  0  0  0  0  0  0  0  0  0  0  0
  142.0721  132.7198  151.3273 H   0  0  0  0  0  0  0  0  0  0  0  0
  144.2949  131.7966  151.8021 H   0  0  0  0  0  0  0  0  0  0  0  0
  143.5668  131.7675  149.4453 H   0  0  0  0  0  0  0  0  0  0  0  0
  144.2847  133.3354  149.1727 H   0  0  0  0  0  0  0  0  0  0  0  0
  145.7726  130.7727  149.9269 H   0  0  0  0  0  0  0  0  0  0  0  0
  145.8089  131.5658  148.3704 H   0  0  0  0  0  0  0  0  0  0  0  0
  147.8471  132.0950  149.7244 H   0  0  0  0  0  0  0  0  0  0  0  0
  146.9396  133.5352  149.3351 H   0  0  0  0  0  0  0  0  0  0  0  0
  146.8992  132.0316  151.9946 H   0  0  0  0  0  0  0  0  0  0  0  0
  147.6077  133.6019  151.7135 H   0  0  0  0  0  0  0  0  0  0  0  0
  145.3667  133.7078  152.8345 H   0  0  0  0  0  0  0  0  0  0  0  0
  144.8057  136.8423  151.3789 H   0  0  0  0  0  0  0  0  0  0  0  0
  143.5939  135.6365  151.7926 H   0  0  0  0  0  0  0  0  0  0  0  0
  144.4360  136.3852  153.9251 H   0  0  0  0  0  0  0  0  0  0  0  0
  145.2193  134.8436  153.6579 H   0  0  0  0  0  0  0  0  0  0  0  0
  147.2221  136.0440  152.9011 H   0  0  0  0  0  0  0  0  0  0  0  0
  148.6012  137.3565  153.3896 H   0  0  0  0  0  0  0  0  0  0  0  0
  149.7743  142.1628  155.6657 H   0  0  0  0  0  0  0  0  0  0  0  0
  1  2  1  0  0  0  0
  1 20  1  0  0  0  0
  1 21  1  0  0  0  0
  1 22  1  0  0  0  0
  2  7  1  0  0  0  0
  2  3  1  0  0  0  0
  2 23  1  0  0  0  0
  3  4  1  0  0  0  0
  3 24  1  0  0  0  0
  3 25  1  0  0  0  0
  4  5  1  0  0  0  0
  4 26  1  0  0  0  0
  4 27  1  0  0  0  0
  5  6  1  0  0  0  0
  5 28  1  0  0  0  0
  5 29  1  0  0  0  0
  6  7  1  0  0  0  0
  6 30  1  0  0  0  0
  6 31  1  0  0  0  0
  7  8  1  0  0  0  0
  7 32  1  0  0  0  0
  8  9  1  0  0  0  0
  9 10  1  0  0  0  0
  9 33  1  0  0  0  0
  9 34  1  0  0  0  0
 10 11  1  0  0  0  0
 10 35  1  0  0  0  0
 10 36  1  0  0  0  0
 11 12  1  0  0  0  0
 11 37  1  0  0  0  0
 12 13  2  0  0  0  0
 12 14  1  0  0  0  0
 14 15  1  0  0  0  0
 14 38  1  0  0  0  0
 15 19  1  0  0  0  0
 15 16  2  0  0  0  0
 16 17  1  0  0  0  0
 17 18  2  0  0  0  0
 18 19  1  0  0  0  0
 18 39  1  0  0  0  0
M  END
> <s_m_source_file>
AV-unprocessed.smi

> <i_m_source_file_index>
1947

> <i_lp_mmshare_version>
43012

> <i_f3d_flags>
0

> <s_epik_input>
W0NIM11bQ0BASF0xW0NIMl1bQ0gyXVtDSDJdW0NIMl1bQ0BIXTFPW0NIMl1bQ0gyXVtOSF1DKD1PKVtOSF1jMm5uW2NIXXMy

> <s_epik_cmdline>
J2VwaWtfcHl0aG9uJywgJy1waCcsICc3LjAnLCAnLXRuJywgJzgnLCAnLW1hJywgJzIwMCcsICctbWV0YWxfYmluZGluZycsICctaW1hZScsICc8aW5maWxlLm1hZT4nLCAnLW9tYWUnLCAnPG91dGZpbGUubWFlPic=

> <r_lp_tautomer_probability>
1

> <r_epik_Ionization_Penalty>
0.00220897

> <r_epik_Ionization_Penalty_Charging>
0

> <r_epik_Ionization_Penalty_Neutral>
0.00220897

> <r_epik_State_Penalty>
-0

> <r_epik_Charging_Adjusted_Penalty>
0

> <i_epik_Tot_Q>
0

> <i_epik_Tot_abs_Q>
0

> <r_epik_Metal_State_Penalty>
0.345002

> <b_epik_Metal_Only>
0

> <s_lp_Force_Field>
OPLS_2005

> <r_lp_Energy>
8.88806

> <b_lp_Chiralities_Consistent>
1

> <s_lp_Variant>
AV-unprocessed.smi:1947-2

> <Gold.Version>
5.8.1

> <Gold.Id.Protein>
6NUR|6NUR_protein|mol2

> <Gold.PLP.Fitness>
39.6447

> <Gold.PLP.PLP>
-29.0051

> <Gold.PLP.part.hbond>
-3.0000

> <Gold.PLP.part.metal>
0.0000

> <Gold.PLP.part.buried>
0.6761

> <Gold.PLP.part.nonpolar>
-26.0461

> <Gold.PLP.part.repulsive>
0.5656

> <Gold.PLP.ligand.clash>
0.0252

> <Gold.PLP.ligand.torsion>
0.6804

> <Gold.PLP.Chemscore.Hbond>
3.0000

> <Gold.PLP.Chemscore.CHOScore>
1.0000

> <Gold.PLP.Chemscore.Metal>
0.0000

> <Gold.Chemscore.Hbonds>
donor molecule, donor type, donor heavy atom, donor atom, acceptor molecule, acceptor atom, score
      L1  H    11    37       P1  7948  0.99
      L1  H    14    38       P1  7948  1.00
      P1  H  7989  7998       L1    17  0.68
      L1  C    18    39       P1  8028  0.56

> <Gold.PLP.Chemscore.Internal.Correction>
0.0256

> <Gold.Rescore>
     Score         DG    S(hbond)    S(metal)    S(lipo)     H(rot)  DE(clash)    DE(int)     intcor
     15.50     -18.04       2.39        0.00      81.63       1.94       1.86       0.68       ----

> <Gold.Chemscore.Fitness>
15.5040

> <Gold.Chemscore.DG>
-18.0402

> <Gold.Chemscore.ZeroCoef>
-5.4800

> <Gold.Chemscore.Hbond>
2.3868

> <Gold.Chemscore.Metal>
0.0000

> <Gold.Chemscore.Lipo>
81.6318

> <Gold.Chemscore.Internal_Hbond>
0.0000

> <Gold.Chemscore.DEClash>
1.8581

> <Gold.Chemscore.DEInternal>
0.6781

> <Gold.Chemscore.Rot>
1.9385

> <Gold.Chemscore.Internal.Correction>
   9.000000E+99

> <Gold.Chemscore.Hbonds>
donor molecule, donor type, donor heavy atom, donor atom, acceptor molecule, acceptor atom, score
      L1  H    11    37       P1  7948  0.88
      L1  H    14    38       P1  7948  0.97
      P1  H  7989  7998       L1    17  0.07

> <Gold.Chemscore.Hbond.Weighted>
-7.9718

> <Gold.Chemscore.Metal.Weighted>
-0.0000

> <Gold.Chemscore.Lipo.Weighted>
-9.5509

> <Gold.Chemscore.Internal_Hbond.Weighted>
0.0000

> <Gold.Chemscore.DEClash.Weighted>
1.8581

> <Gold.Chemscore.DEInternal.Weighted>
0.6781

> <Gold.Chemscore.Rot.Weighted>
4.9625

> <Gold.Chemscore.Internal.Correction.Weighted>
   9.000000E+99

> <Gold.Protein.RotatedTorsions>
[ 6907 6896 6895 6894 ] final  -57.04 input  -60.11 | X-H torsion
[ 7974 7965 7964 7962 ] final   -7.92 input  175.53 | X-H torsion
[ 8008 7997 7996 7995 ] final -168.63 input   59.86 | X-H torsion
[ 10167 10162 10161 10158 ] final   44.42 input  -65.29 | X-H torsion
[ 10718 10713 10712 10709 ] final   54.01 input   66.30 | X-H torsion
[ 10763 10752 10751 10750 ] final  -89.61 input  -60.55 | X-H torsion
[ 11005 11000 10999 10996 ] final  104.22 input  -57.11 | X-H torsion

> <Gold.Protein.ActiveResidues>
 VAL166  LYS551  ARG553  GLY616  TRP617  ASP618  TYR619  PRO620  LYS621  CYS622 
 ASP623  PHE694  ASN695  SER759  ASP760  ASP761  ALA762  ILE779  LEU786  VAL792 
 PHE793  MET794  SER795  GLU796  ALA797  LYS798  CYS799  TRP800  GLU811  SER814 

> <Gold.Protein.RotatedAtoms>
  150.8118  134.7278  159.6694 H   0  0  0  0  0  0  0  0  0  0  0  0  # atno 6907 bound_to 6896
  152.4238  134.5903  159.9982 H   0  0  0  0  0  0  0  0  0  0  0  0  # atno 6908 bound_to 6896
  151.6110  133.3310  159.3103 H   0  0  0  0  0  0  0  0  0  0  0  0  # atno 6909 bound_to 6896
  146.2294  140.2392  142.8343 H   0  0  0  0  0  0  0  0  0  0  0  0  # atno 7974 bound_to 7965
  155.8940  140.1029  157.1398 H   0  0  0  0  0  0  0  0  0  0  0  0  # atno 8008 bound_to 7997
  154.4018  140.1305  156.4416 H   0  0  0  0  0  0  0  0  0  0  0  0  # atno 8009 bound_to 7997
  155.7500  140.3465  155.5148 H   0  0  0  0  0  0  0  0  0  0  0  0  # atno 8010 bound_to 7997
  140.3345  144.2547  150.6163 H   0  0  0  0  0  0  0  0  0  0  0  0  # atno 10167 bound_to 10162
  157.5219  130.8570  149.8569 H   0  0  0  0  0  0  0  0  0  0  0  0  # atno 10718 bound_to 10713
  154.6571  135.5334  153.7972 H   0  0  0  0  0  0  0  0  0  0  0  0  # atno 10763 bound_to 10752
  153.0419  135.6496  154.0929 H   0  0  0  0  0  0  0  0  0  0  0  0  # atno 10764 bound_to 10752
  154.0841  135.2945  155.3264 H   0  0  0  0  0  0  0  0  0  0  0  0  # atno 10765 bound_to 10752
  139.8790  134.9292  156.5328 H   0  0  0  0  0  0  0  0  0  0  0  0  # atno 11005 bound_to 11000
  144.9498  140.8166  143.5579 LP  0  0  0  0  0  0  0  0  0  0  0  0  # atno 17320 bound_to 7965
  145.2351  139.2097  143.5022 LP  0  0  0  0  0  0  0  0  0  0  0  0  # atno 17321 bound_to 7965
  140.5367  143.2232  151.8152 LP  0  0  0  0  0  0  0  0  0  0  0  0  # atno 17342 bound_to 10162
  139.4851  144.4653  151.9492 LP  0  0  0  0  0  0  0  0  0  0  0  0  # atno 17343 bound_to 10162
  156.0359  130.3751  150.1562 LP  0  0  0  0  0  0  0  0  0  0  0  0  # atno 17370 bound_to 10713
  156.9749  130.9846  151.3450 LP  0  0  0  0  0  0  0  0  0  0  0  0  # atno 17371 bound_to 10713
  140.8368  133.8236  155.9036 LP  0  0  0  0  0  0  0  0  0  0  0  0  # atno 17394 bound_to 11000
  140.9276  134.2063  157.4885 LP  0  0  0  0  0  0  0  0  0  0  0  0  # atno 17395 bound_to 11000

$$$$
