AV-unprocessed.smi:1386|AV-procd|sdf|5636|dock2
  -GOLD-   22720 5253D 1   1.00000     0.00000
 Structure written by MMmdl.
 36 37  0  0  0  0  0  0  0  0  2 V2000
  152.0840  139.0907  156.5475 C   0  0  0  0  0  0  0  0  0  0  0  0
  151.1846  140.2938  156.8602 C   0  0  2  0  0  0  0  0  0  0  0  0
  150.7130  140.9910  155.5656 C   0  0  0  0  0  0  0  0  0  0  0  0
  149.8295  140.1521  154.7490 N   0  0  0  0  0  0  0  0  0  0  0  0
  148.5070  140.3711  154.4598 C   0  0  0  0  0  0  0  0  0  0  0  0
  148.0991  139.3211  153.6782 C   0  0  0  0  0  0  0  0  0  0  0  0
  149.1903  138.5099  153.5184 N   0  3  0  0  0  0  0  0  0  0  0  0
  150.2430  139.0194  154.1661 C   0  0  0  0  0  0  0  0  0  0  0  0
  151.9204  141.2206  157.7192 N   0  0  0  0  0  0  0  0  0  0  0  0
  151.5077  142.4410  158.1051 C   0  0  0  0  0  0  0  0  0  0  0  0
  150.4373  142.9204  157.7280 O   0  0  0  0  0  0  0  0  0  0  0  0
  152.3789  143.1079  158.9037 N   0  0  0  0  0  0  0  0  0  0  0  0
  153.3914  142.4940  159.7790 C   0  0  0  0  0  0  0  0  0  0  0  0
  152.8242  142.3862  161.2041 C   0  0  0  0  0  0  0  0  0  0  0  0
  152.4692  144.0348  161.8885 S   0  0  0  0  0  0  0  0  0  0  0  0
  151.5038  144.7363  160.5139 C   0  0  0  0  0  0  0  0  0  0  0  0
  152.2312  144.5435  159.1721 C   0  0  0  0  0  0  0  0  0  0  0  0
  151.5590  138.3569  155.9354 H   0  0  0  0  0  0  0  0  0  0  0  0
  152.4001  138.5879  157.4622 H   0  0  0  0  0  0  0  0  0  0  0  0
  152.9812  139.3938  156.0066 H   0  0  0  0  0  0  0  0  0  0  0  0
  150.3131  139.9108  157.3942 H   0  0  0  0  0  0  0  0  0  0  0  0
  150.1861  141.9187  155.7939 H   0  0  0  0  0  0  0  0  0  0  0  0
  151.5689  141.2597  154.9447 H   0  0  0  0  0  0  0  0  0  0  0  0
  147.9664  141.2308  154.8282 H   0  0  0  0  0  0  0  0  0  0  0  0
  147.1395  139.0962  153.2360 H   0  0  0  0  0  0  0  0  0  0  0  0
  151.2291  138.5937  154.2176 H   0  0  0  0  0  0  0  0  0  0  0  0
  152.8156  140.9028  158.0619 H   0  0  0  0  0  0  0  0  0  0  0  0
  153.7198  141.5134  159.4347 H   0  0  0  0  0  0  0  0  0  0  0  0
  154.2956  143.1046  159.7846 H   0  0  0  0  0  0  0  0  0  0  0  0
  151.9084  141.7939  161.2068 H   0  0  0  0  0  0  0  0  0  0  0  0
  153.5334  141.8815  161.8600 H   0  0  0  0  0  0  0  0  0  0  0  0
  150.5234  144.2593  160.4878 H   0  0  0  0  0  0  0  0  0  0  0  0
  151.3379  145.7961  160.7080 H   0  0  0  0  0  0  0  0  0  0  0  0
  153.2102  145.0238  159.2018 H   0  0  0  0  0  0  0  0  0  0  0  0
  151.6848  145.0522  158.3764 H   0  0  0  0  0  0  0  0  0  0  0  0
  149.2013  137.6471  152.9889 H   0  0  0  0  0  0  0  0  0  0  0  0
  1  2  1  0  0  0  0
  1 18  1  0  0  0  0
  1 19  1  0  0  0  0
  1 20  1  0  0  0  0
  2  3  1  0  0  0  0
  2  9  1  0  0  0  0
  2 21  1  0  0  0  0
  3  4  1  0  0  0  0
  3 22  1  0  0  0  0
  3 23  1  0  0  0  0
  4  8  1  0  0  0  0
  4  5  1  0  0  0  0
  5  6  2  0  0  0  0
  5 24  1  0  0  0  0
  6  7  1  0  0  0  0
  6 25  1  0  0  0  0
  7  8  2  0  0  0  0
  7 36  1  0  0  0  0
  8 26  1  0  0  0  0
  9 10  1  0  0  0  0
  9 27  1  0  0  0  0
 10 11  2  0  0  0  0
 10 12  1  0  0  0  0
 12 17  1  0  0  0  0
 12 13  1  0  0  0  0
 13 14  1  0  0  0  0
 13 28  1  0  0  0  0
 13 29  1  0  0  0  0
 14 15  1  0  0  0  0
 14 30  1  0  0  0  0
 14 31  1  0  0  0  0
 15 16  1  0  0  0  0
 16 17  1  0  0  0  0
 16 32  1  0  0  0  0
 16 33  1  0  0  0  0
 17 34  1  0  0  0  0
 17 35  1  0  0  0  0
M  CHG  1   7   1
M  END
> <s_m_source_file>
AV-unprocessed.smi

> <i_m_source_file_index>
1386

> <i_lp_mmshare_version>
43012

> <i_f3d_flags>
0

> <s_epik_input>
W2NIXTFuW2NIXVtjSF1uMVtDSDJdW0NAQEhdKFtDSDNdKVtOSF1DKD1PKU4yW0NIMl1bQ0gyXVNbQ0gyXVtDSDJdMg==

> <s_epik_cmdline>
J2VwaWtfcHl0aG9uJywgJy1waCcsICc3LjAnLCAnLXRuJywgJzgnLCAnLW1hJywgJzIwMCcsICctbWV0YWxfYmluZGluZycsICctaW1hZScsICc8aW5maWxlLm1hZT4nLCAnLW9tYWUnLCAnPG91dGZpbGUubWFlPic=

> <r_lp_tautomer_probability>
1

> <r_epik_Ionization_Penalty>
0.254941

> <r_epik_Ionization_Penalty_Charging>
0

> <r_epik_Ionization_Penalty_Neutral>
0.254941

> <r_epik_State_Penalty>
0.246388

> <r_epik_Charging_Adjusted_Penalty>
0.246388

> <i_epik_Tot_Q>
1

> <i_epik_Tot_abs_Q>
1

> <r_epik_Metal_State_Penalty>
0.536262

> <b_epik_Metal_Only>
0

> <s_lp_Force_Field>
OPLS_2005

> <r_lp_Energy>
26.1467

> <b_lp_Chiralities_Consistent>
1

> <s_lp_Variant>
AV-unprocessed.smi:1386-1

> <Gold.Version>
5.8.1

> <Gold.Id.Protein>
6NUR|6NUR_protein|mol2

> <Gold.PLP.Fitness>
47.8585

> <Gold.PLP.PLP>
-42.3494

> <Gold.PLP.part.hbond>
-2.0000

> <Gold.PLP.part.metal>
0.0000

> <Gold.PLP.part.buried>
-2.1187

> <Gold.PLP.part.nonpolar>
-37.1126

> <Gold.PLP.part.repulsive>
0.2933

> <Gold.PLP.ligand.clash>
0.0000

> <Gold.PLP.ligand.torsion>
0.2762

> <Gold.PLP.Chemscore.Hbond>
2.0000

> <Gold.PLP.Chemscore.CHOScore>
0.0000

> <Gold.PLP.Chemscore.Metal>
0.0000

> <Gold.Chemscore.Hbonds>
donor molecule, donor type, donor heavy atom, donor atom, acceptor molecule, acceptor atom, score
      L1  H     7    36       P1  7948  2.00

> <Gold.PLP.Chemscore.Internal.Correction>
0.0615

> <Gold.Rescore>
     Score         DG    S(hbond)    S(metal)    S(lipo)     H(rot)  DE(clash)    DE(int)     intcor
     13.53     -15.19       1.00        0.00      90.36       1.64       0.11       1.55       ----

> <Gold.Chemscore.Fitness>
13.5311

> <Gold.Chemscore.DG>
-15.1863

> <Gold.Chemscore.ZeroCoef>
-5.4800

> <Gold.Chemscore.Hbond>
0.9981

> <Gold.Chemscore.Metal>
0.0000

> <Gold.Chemscore.Lipo>
90.3616

> <Gold.Chemscore.Internal_Hbond>
0.0000

> <Gold.Chemscore.DEClash>
0.1059

> <Gold.Chemscore.DEInternal>
1.5493

> <Gold.Chemscore.Rot>
1.6404

> <Gold.Chemscore.Internal.Correction>
   9.000000E+99

> <Gold.Chemscore.Hbonds>
donor molecule, donor type, donor heavy atom, donor atom, acceptor molecule, acceptor atom, score
      L1  H     7    36       P1  7948  0.98

> <Gold.Chemscore.Hbond.Weighted>
-3.3335

> <Gold.Chemscore.Metal.Weighted>
-0.0000

> <Gold.Chemscore.Lipo.Weighted>
-10.5723

> <Gold.Chemscore.Internal_Hbond.Weighted>
0.0000

> <Gold.Chemscore.DEClash.Weighted>
0.1059

> <Gold.Chemscore.DEInternal.Weighted>
1.5493

> <Gold.Chemscore.Rot.Weighted>
4.1995

> <Gold.Chemscore.Internal.Correction.Weighted>
   9.000000E+99

> <Gold.Protein.RotatedTorsions>
[ 6907 6896 6895 6894 ] final  171.37 input  -60.11 | X-H torsion
[ 7974 7965 7964 7962 ] final -177.96 input  175.53 | X-H torsion
[ 8008 7997 7996 7995 ] final   10.60 input   59.86 | X-H torsion
[ 10167 10162 10161 10158 ] final -121.22 input  -65.29 | X-H torsion
[ 10718 10713 10712 10709 ] final  156.27 input   66.30 | X-H torsion
[ 10763 10752 10751 10750 ] final -113.64 input  -60.55 | X-H torsion
[ 11005 11000 10999 10996 ] final -106.52 input  -57.11 | X-H torsion

> <Gold.Protein.ActiveResidues>
 VAL166  LYS551  ARG553  GLY616  TRP617  ASP618  TYR619  PRO620  LYS621  CYS622 
 ASP623  PHE694  ASN695  SER759  ASP760  ASP761  ALA762  ILE779  LEU786  VAL792 
 PHE793  MET794  SER795  GLU796  ALA797  LYS798  CYS799  TRP800  GLU811  SER814 

> <Gold.Protein.RotatedAtoms>
  151.8013  133.3370  159.3527 H   0  0  0  0  0  0  0  0  0  0  0  0  # atno 6907 bound_to 6896
  150.7357  134.5750  159.5919 H   0  0  0  0  0  0  0  0  0  0  0  0  # atno 6908 bound_to 6896
  152.3141  134.7463  160.0381 H   0  0  0  0  0  0  0  0  0  0  0  0  # atno 6909 bound_to 6896
  144.7129  140.0940  143.6420 H   0  0  0  0  0  0  0  0  0  0  0  0  # atno 7974 bound_to 7965
  154.7956  140.2843  155.5959 H   0  0  0  0  0  0  0  0  0  0  0  0  # atno 8008 bound_to 7997
  156.2970  140.2596  156.2742 H   0  0  0  0  0  0  0  0  0  0  0  0  # atno 8009 bound_to 7997
  154.9619  140.0377  157.2183 H   0  0  0  0  0  0  0  0  0  0  0  0  # atno 8010 bound_to 7997
  140.0274  143.5282  152.2192 H   0  0  0  0  0  0  0  0  0  0  0  0  # atno 10167 bound_to 10162
  157.2072  131.0689  151.1990 H   0  0  0  0  0  0  0  0  0  0  0  0  # atno 10718 bound_to 10713
  154.8405  135.4447  154.1380 H   0  0  0  0  0  0  0  0  0  0  0  0  # atno 10763 bound_to 10752
  153.2573  135.6932  153.7622 H   0  0  0  0  0  0  0  0  0  0  0  0  # atno 10764 bound_to 10752
  153.6912  135.3387  155.3178 H   0  0  0  0  0  0  0  0  0  0  0  0  # atno 10765 bound_to 10752
  141.1000  133.8901  157.1865 H   0  0  0  0  0  0  0  0  0  0  0  0  # atno 11005 bound_to 11000
  145.9596  139.2791  143.1164 LP  0  0  0  0  0  0  0  0  0  0  0  0  # atno 17320 bound_to 7965
  145.9235  140.9098  143.0393 LP  0  0  0  0  0  0  0  0  0  0  0  0  # atno 17321 bound_to 7965
  139.6099  144.7606  151.2976 LP  0  0  0  0  0  0  0  0  0  0  0  0  # atno 17342 bound_to 10162
  140.7317  143.6845  150.7973 LP  0  0  0  0  0  0  0  0  0  0  0  0  # atno 17343 bound_to 10162
  157.3708  130.7180  149.6563 LP  0  0  0  0  0  0  0  0  0  0  0  0  # atno 17370 bound_to 10713
  155.9694  130.4199  150.4398 LP  0  0  0  0  0  0  0  0  0  0  0  0  # atno 17371 bound_to 10713
  139.9849  135.0085  156.9838 LP  0  0  0  0  0  0  0  0  0  0  0  0  # atno 17394 bound_to 11000
  140.5044  134.1064  155.7257 LP  0  0  0  0  0  0  0  0  0  0  0  0  # atno 17395 bound_to 11000

$$$$
