AV-unprocessed.smi:966|AV-procd|sdf|4283|dock1
  -GOLD-   22720 2193D 1   1.00000     0.00000
 Structure written by MMmdl.
 30 31  0  0  0  0  0  0  0  0  2 V2000
  150.6254  138.5786  153.9735 C   0  0  0  0  0  0  0  0  0  0  0  0
  150.7561  139.3752  155.2589 C   0  0  0  0  0  0  0  0  0  0  0  0
  151.9394  139.2190  156.0743 C   0  0  0  0  0  0  0  0  0  0  0  0
  152.0399  139.9417  157.2473 C   0  0  0  0  0  0  0  0  0  0  0  0
  152.9728  139.9693  158.0842 O   0  5  0  0  0  0  0  0  0  0  0  0
  150.9880  140.8290  157.6554 N   0  0  0  0  0  0  0  0  0  0  0  0
  151.0679  141.6041  158.9283 C   0  0  0  0  0  0  0  0  0  0  0  0
  150.9581  143.1232  158.6871 C   0  0  2  0  0  0  0  0  0  0  0  0
  152.2438  143.7483  158.1470 C   0  0  0  0  0  0  0  0  0  0  0  0
  152.1004  145.1839  158.5965 C   0  0  0  0  0  0  0  0  0  0  0  0
  151.4794  145.0084  159.9779 C   0  0  0  0  0  0  0  0  0  0  0  0
  150.6921  143.8234  159.9017 O   0  0  0  0  0  0  0  0  0  0  0  0
  149.8714  141.0180  156.8822 C   0  0  0  0  0  0  0  0  0  0  0  0
  148.9771  141.8060  157.2007 O   0  0  0  0  0  0  0  0  0  0  0  0
  149.7884  140.2304  155.6486 C   0  0  0  0  0  0  0  0  0  0  0  0
  148.6046  140.4233  154.8718 C   0  0  0  0  0  0  0  0  0  0  0  0
  147.6570  140.5948  154.2282 N   0  0  0  0  0  0  0  0  0  0  0  0
  151.4893  137.9310  153.8210 H   0  0  0  0  0  0  0  0  0  0  0  0
  150.5506  139.2483  153.1161 H   0  0  0  0  0  0  0  0  0  0  0  0
  149.7344  137.9508  154.0018 H   0  0  0  0  0  0  0  0  0  0  0  0
  152.7356  138.5566  155.7670 H   0  0  0  0  0  0  0  0  0  0  0  0
  150.3029  141.2997  159.6442 H   0  0  0  0  0  0  0  0  0  0  0  0
  151.9888  141.3809  159.4690 H   0  0  0  0  0  0  0  0  0  0  0  0
  150.1448  143.3446  157.9945 H   0  0  0  0  0  0  0  0  0  0  0  0
  153.1190  143.2979  158.6176 H   0  0  0  0  0  0  0  0  0  0  0  0
  152.3441  143.6446  157.0663 H   0  0  0  0  0  0  0  0  0  0  0  0
  153.0460  145.7263  158.6177 H   0  0  0  0  0  0  0  0  0  0  0  0
  151.4128  145.7167  157.9384 H   0  0  0  0  0  0  0  0  0  0  0  0
  152.2567  144.8577  160.7279 H   0  0  0  0  0  0  0  0  0  0  0  0
  150.8808  145.8684  160.2784 H   0  0  0  0  0  0  0  0  0  0  0  0
  1  2  1  0  0  0  0
  1 18  1  0  0  0  0
  1 19  1  0  0  0  0
  1 20  1  0  0  0  0
  2 15  2  0  0  0  0
  2  3  1  0  0  0  0
  3  4  2  0  0  0  0
  3 21  1  0  0  0  0
  4  5  1  0  0  0  0
  4  6  1  0  0  0  0
  6  7  1  0  0  0  0
  6 13  1  0  0  0  0
  7  8  1  0  0  0  0
  7 22  1  0  0  0  0
  7 23  1  0  0  0  0
  8 12  1  0  0  0  0
  8  9  1  0  0  0  0
  8 24  1  0  0  0  0
  9 10  1  0  0  0  0
  9 25  1  0  0  0  0
  9 26  1  0  0  0  0
 10 11  1  0  0  0  0
 10 27  1  0  0  0  0
 10 28  1  0  0  0  0
 11 12  1  0  0  0  0
 11 29  1  0  0  0  0
 11 30  1  0  0  0  0
 13 14  2  0  0  0  0
 13 15  1  0  0  0  0
 15 16  1  0  0  0  0
 16 17  3  0  0  0  0
M  CHG  1   5  -1
M  END
> <s_m_source_file>
AV-unprocessed.smi

> <i_m_source_file_index>
966

> <i_lp_mmshare_version>
43012

> <i_f3d_flags>
0

> <s_epik_input>
W0NIM11jMVtjSF1jKFtPSF0pbihjKD1PKWMxQyNOKVtDSDJdW0NAQEhdMltDSDJdW0NIMl1bQ0gyXU8y

> <s_epik_cmdline>
J2VwaWtfcHl0aG9uJywgJy1waCcsICc3LjAnLCAnLXRuJywgJzgnLCAnLW1hJywgJzIwMCcsICctbWV0YWxfYmluZGluZycsICctaW1hZScsICc8aW5maWxlLm1hZT4nLCAnLW9tYWUnLCAnPG91dGZpbGUubWFlPic=

> <r_lp_tautomer_probability>
1

> <r_epik_Ionization_Penalty>
3.48555e-06

> <r_epik_Ionization_Penalty_Charging>
3.48554e-06

> <r_epik_Ionization_Penalty_Neutral>
1.71861e-11

> <r_epik_State_Penalty>
-0

> <r_epik_Charging_Adjusted_Penalty>
3.48554e-06

> <i_epik_Tot_Q>
-1

> <i_epik_Tot_abs_Q>
1

> <r_epik_Metal_State_Penalty>
-0

> <b_epik_Metal_Only>
0

> <s_lp_Force_Field>
OPLS_2005

> <r_lp_Energy>
36.1557

> <b_lp_Chiralities_Consistent>
1

> <s_lp_Variant>
AV-unprocessed.smi:966-1

> <Gold.Version>
5.8.1

> <Gold.Id.Protein>
6NUR|6NUR_protein|mol2

> <Gold.PLP.Fitness>
39.6895

> <Gold.PLP.PLP>
-33.9500

> <Gold.PLP.part.hbond>
-1.2019

> <Gold.PLP.part.metal>
0.0000

> <Gold.PLP.part.buried>
-3.7766

> <Gold.PLP.part.nonpolar>
-28.7082

> <Gold.PLP.part.repulsive>
0.3787

> <Gold.PLP.ligand.clash>
0.0000

> <Gold.PLP.ligand.torsion>
0.1312

> <Gold.PLP.Chemscore.Hbond>
2.0000

> <Gold.PLP.Chemscore.CHOScore>
0.0000

> <Gold.PLP.Chemscore.Metal>
0.0000

> <Gold.Chemscore.Hbonds>
donor molecule, donor type, donor heavy atom, donor atom, acceptor molecule, acceptor atom, score
      P1  H  7997  8008       L1     5  1.92

> <Gold.PLP.Chemscore.Internal.Correction>
0.0018

> <Gold.Rescore>
     Score         DG    S(hbond)    S(metal)    S(lipo)     H(rot)  DE(clash)    DE(int)     intcor
     13.01     -14.92       0.86        0.00      83.54       1.25       0.30       1.60       ----

> <Gold.Chemscore.Fitness>
13.0109

> <Gold.Chemscore.DG>
-14.9168

> <Gold.Chemscore.ZeroCoef>
-5.4800

> <Gold.Chemscore.Hbond>
0.8581

> <Gold.Chemscore.Metal>
0.0000

> <Gold.Chemscore.Lipo>
83.5419

> <Gold.Chemscore.Internal_Hbond>
0.0000

> <Gold.Chemscore.DEClash>
0.3044

> <Gold.Chemscore.DEInternal>
1.6016

> <Gold.Chemscore.Rot>
1.2514

> <Gold.Chemscore.Internal.Correction>
   9.000000E+99

> <Gold.Chemscore.Hbonds>
donor molecule, donor type, donor heavy atom, donor atom, acceptor molecule, acceptor atom, score
      P1  H  7997  8008       L1     5  0.63

> <Gold.Chemscore.Hbond.Weighted>
-2.8660

> <Gold.Chemscore.Metal.Weighted>
-0.0000

> <Gold.Chemscore.Lipo.Weighted>
-9.7744

> <Gold.Chemscore.Internal_Hbond.Weighted>
0.0000

> <Gold.Chemscore.DEClash.Weighted>
0.3044

> <Gold.Chemscore.DEInternal.Weighted>
1.6016

> <Gold.Chemscore.Rot.Weighted>
3.2036

> <Gold.Chemscore.Internal.Correction.Weighted>
   9.000000E+99

> <Gold.Protein.RotatedTorsions>
[ 6907 6896 6895 6894 ] final   98.10 input  -60.11 | X-H torsion
[ 7974 7965 7964 7962 ] final -160.37 input  175.53 | X-H torsion
[ 8008 7997 7996 7995 ] final  -94.51 input   59.86 | X-H torsion
[ 10167 10162 10161 10158 ] final  102.40 input  -65.29 | X-H torsion
[ 10718 10713 10712 10709 ] final  131.17 input   66.30 | X-H torsion
[ 10763 10752 10751 10750 ] final  -28.06 input  -60.55 | X-H torsion
[ 11005 11000 10999 10996 ] final -157.32 input  -57.11 | X-H torsion

> <Gold.Protein.ActiveResidues>
 VAL166  LYS551  ARG553  GLY616  TRP617  ASP618  TYR619  PRO620  LYS621  CYS622 
 ASP623  PHE694  ASN695  SER759  ASP760  ASP761  ALA762  ILE779  LEU786  VAL792 
 PHE793  MET794  SER795  GLU796  ALA797  LYS798  CYS799  TRP800  GLU811  SER814 

> <Gold.Protein.RotatedAtoms>
  152.5414  134.0633  159.8161 H   0  0  0  0  0  0  0  0  0  0  0  0  # atno 6907 bound_to 6896
  151.0757  133.5422  159.2631 H   0  0  0  0  0  0  0  0  0  0  0  0  # atno 6908 bound_to 6896
  151.2268  135.0548  159.9026 H   0  0  0  0  0  0  0  0  0  0  0  0  # atno 6909 bound_to 6896
  144.7429  140.3551  143.6107 H   0  0  0  0  0  0  0  0  0  0  0  0  # atno 7974 bound_to 7965
  154.7494  140.0488  157.0880 H   0  0  0  0  0  0  0  0  0  0  0  0  # atno 8008 bound_to 7997
  155.0077  140.3132  155.4823 H   0  0  0  0  0  0  0  0  0  0  0  0  # atno 8009 bound_to 7997
  156.2882  140.2190  156.5190 H   0  0  0  0  0  0  0  0  0  0  0  0  # atno 8010 bound_to 7997
  139.7353  144.7025  151.0659 H   0  0  0  0  0  0  0  0  0  0  0  0  # atno 10167 bound_to 10162
  157.4993  131.1093  150.9449 H   0  0  0  0  0  0  0  0  0  0  0  0  # atno 10718 bound_to 10713
  153.7422  135.6932  153.4964 H   0  0  0  0  0  0  0  0  0  0  0  0  # atno 10763 bound_to 10752
  153.2061  135.4419  155.0323 H   0  0  0  0  0  0  0  0  0  0  0  0  # atno 10764 bound_to 10752
  154.8217  135.3425  154.6947 H   0  0  0  0  0  0  0  0  0  0  0  0  # atno 10765 bound_to 10752
  140.6659  134.4299  157.5233 H   0  0  0  0  0  0  0  0  0  0  0  0  # atno 11005 bound_to 11000
  145.7235  139.1716  143.2471 LP  0  0  0  0  0  0  0  0  0  0  0  0  # atno 17320 bound_to 7965
  146.1259  140.7249  142.9435 LP  0  0  0  0  0  0  0  0  0  0  0  0  # atno 17321 bound_to 7965
  140.7778  143.4992  150.9793 LP  0  0  0  0  0  0  0  0  0  0  0  0  # atno 17342 bound_to 10162
  139.8680  143.7229  152.3168 LP  0  0  0  0  0  0  0  0  0  0  0  0  # atno 17343 bound_to 10162
  157.0126  130.5642  149.5322 LP  0  0  0  0  0  0  0  0  0  0  0  0  # atno 17370 bound_to 10713
  156.0219  130.5314  150.8300 LP  0  0  0  0  0  0  0  0  0  0  0  0  # atno 17371 bound_to 10713
  139.8997  134.8584  156.1948 LP  0  0  0  0  0  0  0  0  0  0  0  0  # atno 17394 bound_to 11000
  141.0429  133.6928  156.1631 LP  0  0  0  0  0  0  0  0  0  0  0  0  # atno 17395 bound_to 11000

$$$$
