AV-unprocessed.smi:37|AV-procd|sdf|333|dock5
  -GOLD-   2262016163D 1   1.00000     0.00000
 Structure written by MMmdl.
 43 44  0  0  0  0  0  0  0  0  2 V2000
  145.0036  143.8123  157.0036 C   0  0  0  0  0  0  0  0  0  0  0  0
  145.0824  142.6449  157.9993 C   0  0  0  0  0  0  0  0  0  0  0  0
  146.5012  142.3585  158.4959 C   0  0  0  0  0  0  0  0  0  0  0  0
  146.8200  142.4749  159.6803 O   0  0  0  0  0  0  0  0  0  0  0  0
  147.3168  141.9820  157.4942 O   0  0  0  0  0  0  0  0  0  0  0  0
  148.6944  141.7304  157.7381 C   0  0  0  0  0  0  0  0  0  0  0  0
  149.4830  141.6872  156.4144 C   0  0  2  0  0  0  0  0  0  0  0  0
  149.2266  140.4330  155.7787 O   0  0  0  0  0  0  0  0  0  0  0  0
  150.4194  139.9181  155.2826 C   0  0  2  0  0  0  0  0  0  0  0  0
  150.3198  138.4184  155.1236 N   0  0  0  0  0  0  0  0  0  0  0  0
  149.1374  137.7421  155.3760 C   0  0  0  0  0  0  0  0  0  0  0  0
  149.0555  136.4034  155.2368 C   0  0  0  0  0  0  0  0  0  0  0  0
  147.8963  135.7736  155.4947 F   0  0  0  0  0  0  0  0  0  0  0  0
  150.2311  135.6472  154.8087 C   0  0  0  0  0  0  0  0  0  0  0  0
  150.1499  134.4265  154.6811 O   0  0  0  0  0  0  0  0  0  0  0  0
  151.3818  136.3399  154.5665 N   0  5  0  0  0  0  0  0  0  0  0  0
  151.4698  137.6948  154.7087 C   0  0  0  0  0  0  0  0  0  0  0  0
  152.5032  138.3297  154.4958 O   0  0  0  0  0  0  0  0  0  0  0  0
  151.4833  140.3396  156.2913 C   0  0  2  0  0  0  0  0  0  0  0  0
  151.3947  139.2328  157.9555 Br  0  0  0  0  0  0  0  0  0  0  0  0
  151.0190  141.7624  156.5701 C   0  0  2  0  0  0  0  0  0  0  0  0
  151.4562  142.2526  157.8339 O   0  0  0  0  0  0  0  0  0  0  0  0
  151.6414  143.5703  158.0271 C   0  0  0  0  0  0  0  0  0  0  0  0
  151.5983  144.4380  157.1533 O   0  0  0  0  0  0  0  0  0  0  0  0
  151.9307  143.8957  159.4939 C   0  0  0  0  0  0  0  0  0  0  0  0
  151.9590  145.4015  159.7961 C   0  0  0  0  0  0  0  0  0  0  0  0
  143.9732  143.9805  156.6907 H   0  0  0  0  0  0  0  0  0  0  0  0
  145.5919  143.6132  156.1071 H   0  0  0  0  0  0  0  0  0  0  0  0
  145.3683  144.7392  157.4482 H   0  0  0  0  0  0  0  0  0  0  0  0
  144.4514  142.8579  158.8623 H   0  0  0  0  0  0  0  0  0  0  0  0
  144.6884  141.7398  157.5364 H   0  0  0  0  0  0  0  0  0  0  0  0
  149.0536  142.5584  158.3489 H   0  0  0  0  0  0  0  0  0  0  0  0
  148.8506  140.8235  158.3239 H   0  0  0  0  0  0  0  0  0  0  0  0
  149.1550  142.4996  155.7649 H   0  0  0  0  0  0  0  0  0  0  0  0
  150.5872  140.3209  154.2815 H   0  0  0  0  0  0  0  0  0  0  0  0
  148.2608  138.2806  155.7002 H   0  0  0  0  0  0  0  0  0  0  0  0
  152.4889  140.2748  155.8751 H   0  0  0  0  0  0  0  0  0  0  0  0
  151.3886  142.4093  155.7723 H   0  0  0  0  0  0  0  0  0  0  0  0
  151.1741  143.4110  160.1115 H   0  0  0  0  0  0  0  0  0  0  0  0
  152.8891  143.4508  159.7627 H   0  0  0  0  0  0  0  0  0  0  0  0
  152.1764  145.5771  160.8497 H   0  0  0  0  0  0  0  0  0  0  0  0
  150.9992  145.8699  159.5753 H   0  0  0  0  0  0  0  0  0  0  0  0
  152.7271  145.9101  159.2125 H   0  0  0  0  0  0  0  0  0  0  0  0
  1  2  1  0  0  0  0
  1 27  1  0  0  0  0
  1 28  1  0  0  0  0
  1 29  1  0  0  0  0
  2  3  1  0  0  0  0
  2 30  1  0  0  0  0
  2 31  1  0  0  0  0
  3  4  2  0  0  0  0
  3  5  1  0  0  0  0
  5  6  1  0  0  0  0
  6  7  1  0  0  0  0
  6 32  1  0  0  0  0
  6 33  1  0  0  0  0
  7 21  1  0  0  0  0
  7  8  1  0  0  0  0
  7 34  1  0  0  0  0
  8  9  1  0  0  0  0
  9 10  1  0  0  0  0
  9 19  1  0  0  0  0
  9 35  1  0  0  0  0
 10 17  1  0  0  0  0
 10 11  1  0  0  0  0
 11 12  2  0  0  0  0
 11 36  1  0  0  0  0
 12 13  1  0  0  0  0
 12 14  1  0  0  0  0
 14 15  2  0  0  0  0
 14 16  1  0  0  0  0
 16 17  1  0  0  0  0
 17 18  2  0  0  0  0
 19 20  1  0  0  0  0
 19 21  1  0  0  0  0
 19 37  1  0  0  0  0
 21 22  1  0  0  0  0
 21 38  1  0  0  0  0
 22 23  1  0  0  0  0
 23 24  2  0  0  0  0
 23 25  1  0  0  0  0
 25 26  1  0  0  0  0
 25 39  1  0  0  0  0
 25 40  1  0  0  0  0
 26 41  1  0  0  0  0
 26 42  1  0  0  0  0
 26 43  1  0  0  0  0
M  CHG  1  16  -1
M  END
> <s_m_source_file>
AV-unprocessed.smi

> <i_m_source_file_index>
37

> <i_lp_mmshare_version>
43012

> <i_f3d_flags>
0

> <s_epik_input>
W0NIM11bQ0gyXUMoPU8pT1tDSDJdW0NAQEhdMU9bQ0BASF0objJbY0hdYyhGKWMoPU8pW25IXWMyPU8pW0NAQEhdKEJyKVtDQEhdMU9DKD1PKVtDSDJdW0NIM10=

> <s_epik_cmdline>
J2VwaWtfcHl0aG9uJywgJy1waCcsICc3LjAnLCAnLXRuJywgJzgnLCAnLW1hJywgJzIwMCcsICctbWV0YWxfYmluZGluZycsICctaW1hZScsICc8aW5maWxlLm1hZT4nLCAnLW9tYWUnLCAnPG91dGZpbGUubWFlPic=

> <r_epik_Ionization_Penalty>
1.08158

> <r_epik_Ionization_Penalty_Charging>
9.05154e-09

> <r_epik_Ionization_Penalty_Neutral>
1.08158

> <r_epik_State_Penalty>
1.13706

> <r_epik_Charging_Adjusted_Penalty>
1.13706

> <i_epik_Tot_Q>
-1

> <i_epik_Tot_abs_Q>
1

> <r_epik_Metal_State_Penalty>
0.00343535

> <b_epik_Metal_Only>
0

> <s_epik_Chemistry_Notes>
This compound has an ester and may undergo hydrolysis at high or low pH. This compound contains an acetal/aminal-like group ( X-CH(R)-Y where X, Y are N, S, or O) that may be acid/base labile, releasing an aldehyde.

> <s_lp_Force_Field>
OPLS_2005

> <r_lp_Energy>
37.8596

> <b_lp_Chiralities_Consistent>
1

> <s_lp_Variant>
AV-unprocessed.smi:37-31

> <Gold.Version>
5.8.1

> <Gold.Id.Protein>
6NUR|6NUR_protein|mol2

> <Gold.PLP.Fitness>
44.4873

> <Gold.PLP.PLP>
-36.7063

> <Gold.PLP.part.hbond>
-2.0451

> <Gold.PLP.part.metal>
0.0000

> <Gold.PLP.part.buried>
-7.2725

> <Gold.PLP.part.nonpolar>
-30.0440

> <Gold.PLP.part.repulsive>
1.0364

> <Gold.PLP.ligand.clash>
0.0000

> <Gold.PLP.ligand.torsion>
0.6709

> <Gold.PLP.Chemscore.Hbond>
2.9920

> <Gold.PLP.Chemscore.CHOScore>
0.0000

> <Gold.PLP.Chemscore.Metal>
0.0000

> <Gold.Chemscore.Hbonds>
donor molecule, donor type, donor heavy atom, donor atom, acceptor molecule, acceptor atom, score
      P1  H  6933  6944       L1     4  0.02
      P1  H  6934  6946       L1     4  0.96
      P1  H 10752 10765       L1    16  2.00

> <Gold.PLP.Chemscore.Internal.Correction>
0.1467

> <Gold.Rescore>
     Score         DG    S(hbond)    S(metal)    S(lipo)     H(rot)  DE(clash)    DE(int)     intcor
      8.10     -10.04       1.91        0.00      56.02       3.27       0.08       1.87       ----

> <Gold.Chemscore.Fitness>
8.0955

> <Gold.Chemscore.DG>
-10.0423

> <Gold.Chemscore.ZeroCoef>
-5.4800

> <Gold.Chemscore.Hbond>
1.9076

> <Gold.Chemscore.Metal>
0.0000

> <Gold.Chemscore.Lipo>
56.0188

> <Gold.Chemscore.Internal_Hbond>
0.0000

> <Gold.Chemscore.DEClash>
0.0762

> <Gold.Chemscore.DEInternal>
1.8707

> <Gold.Chemscore.Rot>
3.2669

> <Gold.Chemscore.Internal.Correction>
   9.000000E+99

> <Gold.Chemscore.Hbonds>
donor molecule, donor type, donor heavy atom, donor atom, acceptor molecule, acceptor atom, score
      P1  H  6933  6944       L1     4  0.06
      P1  H  6934  6946       L1     4  0.87
      P1  H 10752 10765       L1    16  0.82

> <Gold.Chemscore.Hbond.Weighted>
-6.3715

> <Gold.Chemscore.Metal.Weighted>
-0.0000

> <Gold.Chemscore.Lipo.Weighted>
-6.5542

> <Gold.Chemscore.Internal_Hbond.Weighted>
0.0000

> <Gold.Chemscore.DEClash.Weighted>
0.0762

> <Gold.Chemscore.DEInternal.Weighted>
1.8707

> <Gold.Chemscore.Rot.Weighted>
8.3634

> <Gold.Chemscore.Internal.Correction.Weighted>
   9.000000E+99

> <Gold.Protein.RotatedTorsions>
[ 6907 6896 6895 6894 ] final -179.49 input  -60.11 | X-H torsion
[ 7974 7965 7964 7962 ] final    2.70 input  175.53 | X-H torsion
[ 8008 7997 7996 7995 ] final   94.89 input   59.86 | X-H torsion
[ 10167 10162 10161 10158 ] final  136.66 input  -65.29 | X-H torsion
[ 10718 10713 10712 10709 ] final  -88.63 input   66.30 | X-H torsion
[ 10763 10752 10751 10750 ] final  173.94 input  -60.55 | X-H torsion
[ 11005 11000 10999 10996 ] final -134.35 input  -57.11 | X-H torsion

> <Gold.Protein.ActiveResidues>
 VAL166  LYS551  ARG553  GLY616  TRP617  ASP618  TYR619  PRO620  LYS621  CYS622 
 ASP623  PHE694  ASN695  SER759  ASP760  ASP761  ALA762  ILE779  LEU786  VAL792 
 PHE793  MET794  SER795  GLU796  ALA797  LYS798  CYS799  TRP800  GLU811  SER814 

> <Gold.Protein.RotatedAtoms>
  151.6543  133.3319  159.3158 H   0  0  0  0  0  0  0  0  0  0  0  0  # atno 6907 bound_to 6896
  150.7945  134.6998  159.6553 H   0  0  0  0  0  0  0  0  0  0  0  0  # atno 6908 bound_to 6896
  152.4030  134.6259  160.0114 H   0  0  0  0  0  0  0  0  0  0  0  0  # atno 6909 bound_to 6896
  146.2444  140.0796  142.8358 H   0  0  0  0  0  0  0  0  0  0  0  0  # atno 7974 bound_to 7965
  156.0629  140.3294  155.7483 H   0  0  0  0  0  0  0  0  0  0  0  0  # atno 8008 bound_to 7997
  155.5427  140.0603  157.2884 H   0  0  0  0  0  0  0  0  0  0  0  0  # atno 8009 bound_to 7997
  154.4490  140.1908  156.0595 H   0  0  0  0  0  0  0  0  0  0  0  0  # atno 8010 bound_to 7997
  139.5172  144.6452  151.5459 H   0  0  0  0  0  0  0  0  0  0  0  0  # atno 10167 bound_to 10162
  155.9983  130.4842  150.5048 H   0  0  0  0  0  0  0  0  0  0  0  0  # atno 10718 bound_to 10713
  154.4470  135.2763  155.1807 H   0  0  0  0  0  0  0  0  0  0  0  0  # atno 10763 bound_to 10752
  154.3650  135.6121  153.5714 H   0  0  0  0  0  0  0  0  0  0  0  0  # atno 10764 bound_to 10752
  152.9844  135.5843  154.4808 H   0  0  0  0  0  0  0  0  0  0  0  0  # atno 10765 bound_to 10752
  140.8998  134.1705  157.4468 H   0  0  0  0  0  0  0  0  0  0  0  0  # atno 11005 bound_to 11000
  145.0745  140.9178  143.4862 LP  0  0  0  0  0  0  0  0  0  0  0  0  # atno 17320 bound_to 7965
  145.0936  139.2872  143.5722 LP  0  0  0  0  0  0  0  0  0  0  0  0  # atno 17321 bound_to 7965
  140.6234  143.9214  150.6545 LP  0  0  0  0  0  0  0  0  0  0  0  0  # atno 17342 bound_to 10162
  140.2495  143.3604  152.1418 LP  0  0  0  0  0  0  0  0  0  0  0  0  # atno 17343 bound_to 10162
  157.3028  131.0648  151.2056 LP  0  0  0  0  0  0  0  0  0  0  0  0  # atno 17370 bound_to 10713
  157.3029  130.6852  149.6174 LP  0  0  0  0  0  0  0  0  0  0  0  0  # atno 17371 bound_to 10713
  139.8740  134.9893  156.5452 LP  0  0  0  0  0  0  0  0  0  0  0  0  # atno 17394 bound_to 11000
  140.8244  133.8328  155.8925 LP  0  0  0  0  0  0  0  0  0  0  0  0  # atno 17395 bound_to 11000

$$$$
