#       Name:                AV-unprocessed.smi:3347
#       Creating user name   scv26
#       Creation time:       Fri Mar 27 19:32:51 2020


#       File generated by GOLD software.
#

@<TRIPOS>MOLECULE
AV-unprocessed.smi:3347
    43    45     1
SMALL
NO_CHARGES


@<TRIPOS>ATOM
      1 ****        -0.2936   2.4378   0.7537 O.2            1 S1                 0.0000
      2 ****        -0.8134   1.5173   1.3833 C.2            1 S1                 0.0000
      3 ****        -0.1225   0.4773   1.8716 N.am           1 S1                 0.0000
      4 ****         1.3233   0.3060   1.7663 C.3            1 S1                 0.0000
      5 ****         1.7654  -0.1253   0.3541 C.3            1 S1                 0.0000
      6 ****         3.2664  -0.3642   0.2205 C.3            1 S1                 0.0000
      7 ****         3.3553  -1.2035  -1.0513 C.3            1 S1                 0.0000
      8 ****         2.1554  -2.0683  -1.0398 N.4            1 S1                 1.0000
      9 ****         1.6374  -2.3884  -2.3870 C.3            1 S1                 0.0000
     10 ****         0.9345  -3.7228  -2.4619 C.3            1 S1                 0.0000
     11 ****         2.3264  -3.5654  -3.0349 C.3            1 S1                 0.0000
     12 ****         1.1560  -1.4460  -0.1392 C.3            1 S1                 0.0000
     13 ****        -2.1242   1.4011   1.6582 N.am           1 S1                 0.0000
     14 ****        -3.1851   2.2925   1.3397 C.ar           1 S1                 0.0000
     15 ****        -3.0117   3.6525   0.9831 C.ar           1 S1                 0.0000
     16 ****        -4.1505   4.4339   0.7084 C.ar           1 S1                 0.0000
     17 ****        -5.4198   3.8320   0.8064 C.ar           1 S1                 0.0000
     18 ****        -5.6011   2.5412   1.1561 N.ar           1 S1                 0.0000
     19 ****        -4.5048   1.7985   1.4186 C.ar           1 S1                 0.0000
     20 ****        -0.6302  -0.2351   2.3760 H              1 S1                 0.0000
     21 ****         1.8240   1.2329   2.0514 H              1 S1                 0.0000
     22 ****         1.6259  -0.4434   2.4981 H              1 S1                 0.0000
     23 ****         1.4962   0.6559  -0.3593 H              1 S1                 0.0000
     24 ****         3.8396   0.5613   0.1567 H              1 S1                 0.0000
     25 ****         3.6395  -0.9360   1.0717 H              1 S1                 0.0000
     26 ****         3.3302  -0.5451  -1.9214 H              1 S1                 0.0000
     27 ****         4.2716  -1.7922  -1.1034 H              1 S1                 0.0000
     28 ****         1.2930  -1.5480  -2.9875 H              1 S1                 0.0000
     29 ****         0.8302  -4.3026  -1.5464 H              1 S1                 0.0000
     30 ****         0.1128  -3.8185  -3.1686 H              1 S1                 0.0000
     31 ****         2.4210  -3.5570  -4.1189 H              1 S1                 0.0000
     32 ****         3.1469  -4.0407  -2.5003 H              1 S1                 0.0000
     33 ****         0.9861  -2.1305   0.6926 H              1 S1                 0.0000
     34 ****         0.1945  -1.2812  -0.6286 H              1 S1                 0.0000
     35 ****        -2.4052   0.5503   2.1234 H              1 S1                 0.0000
     36 ****        -2.0393   4.1160   0.9277 H              1 S1                 0.0000
     37 ****        -4.0527   5.4736   0.4334 H              1 S1                 0.0000
     38 ****        -6.3132   4.4038   0.6037 H              1 S1                 0.0000
     39 ****        -4.6891   0.7712   1.6984 H              1 S1                 0.0000
     40 ****         2.4259  -2.9393  -0.6054 H              1 S1                 0.0000
     41 ****         0.6919   2.4336   0.5842 LP             1 S1                 0.0000
     42 ****        -0.8567   3.1900   0.4116 LP             1 S1                 0.0000
     43 ****        -6.5182   2.1475   1.2188 LP             1 S1                 0.0000
@<TRIPOS>BOND
    1    1    2 2     
    2    2    3 am    
    3    2   13 am    
    4    3    4 1     
    5    3   20 1     
    6    4    5 1     
    7    4   21 1     
    8    4   22 1     
    9    5   12 1     
   10    5    6 1     
   11    5   23 1     
   12    6    7 1     
   13    6   24 1     
   14    6   25 1     
   15    7    8 1     
   16    7   26 1     
   17    7   27 1     
   18    8    9 1     
   19    8   12 1     
   20    8   40 1     
   21    9   11 1     
   22    9   10 1     
   23    9   28 1     
   24   10   11 1     
   25   10   29 1     
   26   10   30 1     
   27   11   31 1     
   28   11   32 1     
   29   12   33 1     
   30   12   34 1     
   31   13   14 1     
   32   13   35 1     
   33   14   19 ar    
   34   14   15 ar    
   35   15   16 ar    
   36   15   36 1     
   37   16   17 ar    
   38   16   37 1     
   39   17   18 ar    
   40   17   38 1     
   41   18   19 ar    
   42   19   39 1     
   43    1   41 1     
   44    1   42 1     
   45   18   43 1     
@<TRIPOS>SUBSTRUCTURE
      1 S1             1
@<TRIPOS>SET
LONE_PAIRS      STATIC     ATOMS    <user>   **** ""
3 41 42 43
DONOR_HYDROGENS      STATIC     ATOMS    <user>   **** ""
3 20 40 35
ATOM$BLUE        STATIC     ATOMS    COLORGROUP SYSTEM
3 41 42 43
ATOM$RED        STATIC     ATOMS    COLORGROUP SYSTEM
3 20 40 35
