#       Name:                AV-unprocessed.smi:925
#       Creating user name   scv26
#       Creation time:       Fri Mar 27 02:08:43 2020


#       File generated by GOLD software.
#

@<TRIPOS>MOLECULE
AV-unprocessed.smi:925
    33    34     1
SMALL
NO_CHARGES


@<TRIPOS>ATOM
      1 ****         1.9292   0.8757   0.5964 O.2            1 S1                 0.0000
      2 ****         1.5945  -0.1580   0.0169 C.2            1 S1                 0.0000
      3 ****         2.4120  -1.1844  -0.2777 N.am           1 S1                 0.0000
      4 ****         3.7988  -1.3131  -0.0001 C.2            1 S1                 0.0000
      5 ****         4.5209  -0.3781   0.6373 N.2            1 S1                 0.0000
      6 ****         5.8503  -0.7550   0.7788 N.2            1 S1                 0.0000
      7 ****         6.0781  -1.9578   0.2436 C.2            1 S1                 0.0000
      8 ****         4.6909  -2.7479  -0.4857 S.3            1 S1                 0.0000
      9 ****         0.3438  -0.3985  -0.4036 N.am           1 S1                 0.0000
     10 ****        -0.7875   0.5113  -0.2469 C.3            1 S1                 0.0000
     11 ****        -1.4029   0.3793   1.1620 C.3            1 S1                 0.0000
     12 ****        -2.6423   1.2750   1.3201 C.3            1 S1                 0.0000
     13 ****        -3.6868   0.9817   0.2317 C.3            1 S1                 0.0000
     14 ****        -3.0777   1.1170  -1.1726 C.3            1 S1                 0.0000
     15 ****        -1.8407   0.2182  -1.3322 C.3            1 S1                 0.0000
     16 ****         1.9929  -1.9667  -0.7583 H              1 S1                 0.0000
     17 ****         7.0702  -2.3829   0.2788 H              1 S1                 0.0000
     18 ****         0.1588  -1.2745  -0.8697 H              1 S1                 0.0000
     19 ****        -0.4390   1.5368  -0.3843 H              1 S1                 0.0000
     20 ****        -1.6818  -0.6589   1.3483 H              1 S1                 0.0000
     21 ****        -0.6659   0.6416   1.9221 H              1 S1                 0.0000
     22 ****        -3.0826   1.1290   2.3069 H              1 S1                 0.0000
     23 ****        -2.3436   2.3227   1.2666 H              1 S1                 0.0000
     24 ****        -4.0797  -0.0271   0.3644 H              1 S1                 0.0000
     25 ****        -4.5340   1.6603   0.3367 H              1 S1                 0.0000
     26 ****        -3.8225   0.8619  -1.9269 H              1 S1                 0.0000
     27 ****        -2.7997   2.1564  -1.3517 H              1 S1                 0.0000
     28 ****        -1.4081   0.3634  -2.3229 H              1 S1                 0.0000
     29 ****        -2.1465  -0.8279  -1.2787 H              1 S1                 0.0000
     30 ****         2.8775   1.0007   0.8882 LP             1 S1                 0.0000
     31 ****         1.2528   1.5901   0.7752 LP             1 S1                 0.0000
     32 ****         4.1463   0.4871   0.9707 LP             1 S1                 0.0000
     33 ****         6.5492  -0.1962   1.2253 LP             1 S1                 0.0000
@<TRIPOS>BOND
    1    1    2 2     
    2    2    3 am    
    3    2    9 am    
    4    3    4 1     
    5    3   16 1     
    6    4    8 1     
    7    4    5 2     
    8    5    6 1     
    9    6    7 2     
   10    7    8 1     
   11    7   17 1     
   12    9   10 1     
   13    9   18 1     
   14   10   15 1     
   15   10   11 1     
   16   10   19 1     
   17   11   12 1     
   18   11   20 1     
   19   11   21 1     
   20   12   13 1     
   21   12   22 1     
   22   12   23 1     
   23   13   14 1     
   24   13   24 1     
   25   13   25 1     
   26   14   15 1     
   27   14   26 1     
   28   14   27 1     
   29   15   28 1     
   30   15   29 1     
   31    1   30 1     
   32    1   31 1     
   33    5   32 1     
   34    6   33 1     
@<TRIPOS>SUBSTRUCTURE
      1 S1             1
@<TRIPOS>SET
LONE_PAIRS      STATIC     ATOMS    <user>   **** ""
4 30 31 32 33
DONOR_HYDROGENS      STATIC     ATOMS    <user>   **** ""
2 16 18
ATOM$BLUE        STATIC     ATOMS    COLORGROUP SYSTEM
4 30 31 32 33
ATOM$RED        STATIC     ATOMS    COLORGROUP SYSTEM
2 16 18
