#       Name:                AV-unprocessed.smi:560
#       Creating user name   scv26
#       Creation time:       Thu Mar 26 23:42:15 2020


#       File generated by GOLD software.
#

@<TRIPOS>MOLECULE
AV-unprocessed.smi:560
    47    48     1
SMALL
NO_CHARGES


@<TRIPOS>ATOM
      1 ****        -3.9579  -3.1286  -0.1996 C.3            1 S1                 0.0000
      2 ****        -3.2124  -1.8306  -0.5716 C.3            1 S1                 0.0000
      3 ****        -1.7442  -1.8266  -0.1124 C.2            1 S1                 0.0000
      4 ****        -1.1958  -2.8634   0.2637 O.2            1 S1                 0.0000
      5 ****        -1.1165  -0.6397  -0.1416 N.am           1 S1                 0.0000
      6 ****         0.2775  -0.4150   0.2265 C.3            1 S1                 0.0000
      7 ****         0.4333  -0.3050   1.7546 C.3            1 S1                 0.0000
      8 ****         1.8802   0.0419   2.1436 C.3            1 S1                 0.0000
      9 ****         2.3286   1.2926   1.4799 N.4            1 S1                 1.0000
     10 ****         3.6685   1.7342   1.9454 C.3            1 S1                 0.0000
     11 ****         3.8994   3.2382   1.7639 C.2            1 S1                 0.0000
     12 ****         5.1665   3.6581   1.7714 N.am           1 S1                 0.0000
     13 ****         2.9527   4.0126   1.6338 O.2            1 S1                 0.0000
     14 ****         2.2285   1.1897  -0.0010 C.3            1 S1                 0.0000
     15 ****         0.7885   0.8738  -0.4374 C.3            1 S1                 0.0000
     16 ****        -3.3047  -1.5403  -1.9984 N.pl3          1 S1                 0.0000
     17 ****        -3.6844  -0.3581  -2.6016 C.2            1 S1                 0.0000
     18 ****        -3.5918  -0.5373  -3.9520 C.2            1 S1                 0.0000
     19 ****        -3.1321  -1.8770  -4.0841 C.2            1 S1                 0.0000
     20 ****        -2.9540  -2.4715  -2.9159 N.2            1 S1                 0.0000
     21 ****        -3.9407  -3.2976   0.8778 H              1 S1                 0.0000
     22 ****        -3.5195  -4.0049  -0.6792 H              1 S1                 0.0000
     23 ****        -5.0035  -3.0755  -0.5037 H              1 S1                 0.0000
     24 ****        -3.7090  -1.0139  -0.0454 H              1 S1                 0.0000
     25 ****        -1.6400   0.1617  -0.4628 H              1 S1                 0.0000
     26 ****         0.8812  -1.2496  -0.1359 H              1 S1                 0.0000
     27 ****        -0.2393   0.4619   2.1417 H              1 S1                 0.0000
     28 ****         0.1417  -1.2407   2.2332 H              1 S1                 0.0000
     29 ****         1.9398   0.1571   3.2266 H              1 S1                 0.0000
     30 ****         2.5504  -0.7759   1.8735 H              1 S1                 0.0000
     31 ****         3.7718   1.5308   3.0122 H              1 S1                 0.0000
     32 ****         4.4487   1.1621   1.4400 H              1 S1                 0.0000
     33 ****         5.3788   4.6382   1.6512 H              1 S1                 0.0000
     34 ****         5.9142   2.9897   1.8932 H              1 S1                 0.0000
     35 ****         2.5443   2.1240  -0.4660 H              1 S1                 0.0000
     36 ****         2.9075   0.4147  -0.3604 H              1 S1                 0.0000
     37 ****         0.7458   0.7772  -1.5233 H              1 S1                 0.0000
     38 ****         0.1398   1.7113  -0.1754 H              1 S1                 0.0000
     39 ****        -3.9866   0.5042  -2.0257 H              1 S1                 0.0000
     40 ****        -3.8162   0.1798  -4.7277 H              1 S1                 0.0000
     41 ****        -2.9201  -2.4302  -4.9873 H              1 S1                 0.0000
     42 ****         1.6830   2.0141   1.7688 H              1 S1                 0.0000
     43 ****        -1.7057  -3.7235   0.2734 LP             1 S1                 0.0000
     44 ****        -0.2406  -2.8449   0.5593 LP             1 S1                 0.0000
     45 ****         2.0158   3.6634   1.6456 LP             1 S1                 0.0000
     46 ****         3.1200   4.9915   1.5162 LP             1 S1                 0.0000
     47 ****        -2.6315  -3.4030  -2.7478 LP             1 S1                 0.0000
@<TRIPOS>BOND
    1    1    2 1     
    2    1   21 1     
    3    1   22 1     
    4    1   23 1     
    5    2    3 1     
    6    2   16 1     
    7    2   24 1     
    8    3    4 2     
    9    3    5 am    
   10    5    6 1     
   11    5   25 1     
   12    6   15 1     
   13    6    7 1     
   14    6   26 1     
   15    7    8 1     
   16    7   27 1     
   17    7   28 1     
   18    8    9 1     
   19    8   29 1     
   20    8   30 1     
   21    9   10 1     
   22    9   14 1     
   23    9   42 1     
   24   10   11 1     
   25   10   31 1     
   26   10   32 1     
   27   11   12 am    
   28   11   13 2     
   29   12   33 1     
   30   12   34 1     
   31   14   15 1     
   32   14   35 1     
   33   14   36 1     
   34   15   37 1     
   35   15   38 1     
   36   16   20 1     
   37   16   17 1     
   38   17   18 2     
   39   17   39 1     
   40   18   19 1     
   41   18   40 1     
   42   19   20 2     
   43   19   41 1     
   44    4   43 1     
   45    4   44 1     
   46   13   45 1     
   47   13   46 1     
   48   20   47 1     
@<TRIPOS>SUBSTRUCTURE
      1 S1             1
@<TRIPOS>SET
LONE_PAIRS      STATIC     ATOMS    <user>   **** ""
5 43 44 45 46 47
DONOR_HYDROGENS      STATIC     ATOMS    <user>   **** ""
4 25 42 33 34
ATOM$BLUE        STATIC     ATOMS    COLORGROUP SYSTEM
5 43 44 45 46 47
ATOM$RED        STATIC     ATOMS    COLORGROUP SYSTEM
4 25 42 33 34
