AV-unprocessed.smi:191|AV-procd|sdf|1494|dock10
  -GOLD-   2262019323D 1   1.00000     0.00000
 Structure written by MMmdl.
 46 48  0  0  0  0  0  0  0  0  1 V2000
  152.3618  142.4323  161.3792 C   0  0  0  0  0  0  0  0  0  0  0  0
  153.2186  142.5727  160.1117 C   0  0  0  0  0  0  0  0  0  0  0  0
  153.0176  141.4729  159.1634 N   0  0  0  0  0  0  0  0  0  0  0  0
  153.7129  140.2099  159.4159 C   0  0  0  0  0  0  0  0  0  0  0  0
  154.9601  140.3805  160.3048 C   0  0  1  0  0  0  0  0  0  0  0  0
  154.5923  140.3283  161.7923 C   0  0  0  0  0  0  0  0  0  0  0  0
  156.0212  139.4073  159.9958 C   0  0  0  0  0  0  0  0  0  0  0  0
  156.8555  138.6439  159.7497 N   0  0  0  0  0  0  0  0  0  0  0  0
  152.0282  141.5522  158.2237 C   0  0  0  0  0  0  0  0  0  0  0  0
  151.1817  142.6171  158.2676 N   0  0  0  0  0  0  0  0  0  0  0  0
  150.1964  142.7540  157.3779 C   0  0  0  0  0  0  0  0  0  0  0  0
  149.8770  141.9546  156.3615 N   0  0  0  0  0  0  0  0  0  0  0  0
  150.7190  140.8854  156.2943 C   0  0  0  0  0  0  0  0  0  0  0  0
  151.8083  140.6062  157.1727 C   0  0  0  0  0  0  0  0  0  0  0  0
  152.4315  139.4313  156.7626 N   0  0  0  0  0  0  0  0  0  0  0  0
  151.7540  139.0410  155.7195 C   0  0  0  0  0  0  0  0  0  0  0  0
  150.7000  139.8522  155.3726 N   0  0  0  0  0  0  0  0  0  0  0  0
  149.7857  139.6640  154.2560 C   0  0  0  0  0  0  0  0  0  0  0  0
  148.3556  139.2774  154.6773 C   0  0  0  0  0  0  0  0  0  0  0  0
  147.3860  139.6776  153.5470 C   0  0  0  0  0  0  0  0  0  0  0  0
  147.5947  138.9301  152.3651 O   0  0  0  0  0  0  0  0  0  0  0  0
  148.2077  137.8519  155.2292 C   0  0  0  0  0  0  0  0  0  0  0  0
  147.5664  138.3218  156.4357 O   0  0  0  0  0  0  0  0  0  0  0  0
  147.9332  139.6780  156.0983 C   0  0  0  0  0  0  0  0  0  0  0  0
  152.5411  143.2666  162.0574 H   0  0  0  0  0  0  0  0  0  0  0  0
  152.5928  141.5149  161.9204 H   0  0  0  0  0  0  0  0  0  0  0  0
  151.2976  142.4222  161.1440 H   0  0  0  0  0  0  0  0  0  0  0  0
  153.0281  143.5328  159.6308 H   0  0  0  0  0  0  0  0  0  0  0  0
  154.2692  142.6014  160.3988 H   0  0  0  0  0  0  0  0  0  0  0  0
  153.0167  139.5436  159.9248 H   0  0  0  0  0  0  0  0  0  0  0  0
  153.9610  139.6865  158.4954 H   0  0  0  0  0  0  0  0  0  0  0  0
  155.3981  141.3587  160.1080 H   0  0  0  0  0  0  0  0  0  0  0  0
  155.4707  140.4934  162.4169 H   0  0  0  0  0  0  0  0  0  0  0  0
  154.1704  139.3592  162.0607 H   0  0  0  0  0  0  0  0  0  0  0  0
  153.8588  141.0949  162.0436 H   0  0  0  0  0  0  0  0  0  0  0  0
  149.5763  143.6302  157.4978 H   0  0  0  0  0  0  0  0  0  0  0  0
  152.0111  138.1466  155.1710 H   0  0  0  0  0  0  0  0  0  0  0  0
  149.7749  140.5768  153.6595 H   0  0  0  0  0  0  0  0  0  0  0  0
  150.2135  138.8969  153.6090 H   0  0  0  0  0  0  0  0  0  0  0  0
  146.3492  139.5232  153.8455 H   0  0  0  0  0  0  0  0  0  0  0  0
  147.4911  140.7348  153.3012 H   0  0  0  0  0  0  0  0  0  0  0  0
  148.2445  139.3724  151.8403 H   0  0  0  0  0  0  0  0  0  0  0  0
  147.5639  137.2009  154.6367 H   0  0  0  0  0  0  0  0  0  0  0  0
  149.1569  137.3589  155.4443 H   0  0  0  0  0  0  0  0  0  0  0  0
  148.7512  140.0365  156.7239 H   0  0  0  0  0  0  0  0  0  0  0  0
  147.0865  140.3643  156.1362 H   0  0  0  0  0  0  0  0  0  0  0  0
  1  2  1  0  0  0  0
  1 25  1  0  0  0  0
  1 26  1  0  0  0  0
  1 27  1  0  0  0  0
  2  3  1  0  0  0  0
  2 28  1  0  0  0  0
  2 29  1  0  0  0  0
  3  4  1  0  0  0  0
  3  9  1  0  0  0  0
  4  5  1  0  0  0  0
  4 30  1  0  0  0  0
  4 31  1  0  0  0  0
  5  6  1  0  0  0  0
  5  7  1  0  0  0  0
  5 32  1  0  0  0  0
  6 33  1  0  0  0  0
  6 34  1  0  0  0  0
  6 35  1  0  0  0  0
  7  8  3  0  0  0  0
  9 14  1  0  0  0  0
  9 10  2  0  0  0  0
 10 11  1  0  0  0  0
 11 12  2  0  0  0  0
 11 36  1  0  0  0  0
 12 13  1  0  0  0  0
 13 17  1  0  0  0  0
 13 14  2  0  0  0  0
 14 15  1  0  0  0  0
 15 16  2  0  0  0  0
 16 17  1  0  0  0  0
 16 37  1  0  0  0  0
 17 18  1  0  0  0  0
 18 19  1  0  0  0  0
 18 38  1  0  0  0  0
 18 39  1  0  0  0  0
 19 24  1  0  0  0  0
 19 20  1  0  0  0  0
 19 22  1  0  0  0  0
 20 21  1  0  0  0  0
 20 40  1  0  0  0  0
 20 41  1  0  0  0  0
 21 42  1  0  0  0  0
 22 23  1  0  0  0  0
 22 43  1  0  0  0  0
 22 44  1  0  0  0  0
 23 24  1  0  0  0  0
 24 45  1  0  0  0  0
 24 46  1  0  0  0  0
M  END
> <s_m_source_file>
AV-unprocessed.smi

> <i_m_source_file_index>
191

> <i_lp_mmshare_version>
43012

> <i_f3d_flags>
0

> <s_epik_input>
TiNDW0NAQEhdKFtDSDNdKVtDSDJdTihbQ0gyXVtDSDNdKWMobltjSF1uMSljKGMxMiluW2NIXW4yW0NIMl1DMyhbQ0gyXVtPSF0pW0NIMl1PW0NIMl0z

> <s_epik_cmdline>
J2VwaWtfcHl0aG9uJywgJy1waCcsICc3LjAnLCAnLXRuJywgJzgnLCAnLW1hJywgJzIwMCcsICctbWV0YWxfYmluZGluZycsICctaW1hZScsICc8aW5maWxlLm1hZT4nLCAnLW9tYWUnLCAnPG91dGZpbGUubWFlPic=

> <r_lp_tautomer_probability>
1

> <r_epik_Ionization_Penalty>
0.000569684

> <r_epik_Ionization_Penalty_Charging>
0

> <r_epik_Ionization_Penalty_Neutral>
0.000569684

> <r_epik_State_Penalty>
0.000286009

> <r_epik_Charging_Adjusted_Penalty>
0.000286009

> <i_epik_Tot_Q>
0

> <i_epik_Tot_abs_Q>
0

> <r_epik_Metal_State_Penalty>
-0

> <b_epik_Metal_Only>
0

> <s_lp_Force_Field>
OPLS_2005

> <r_lp_Energy>
30.7711

> <b_lp_Chiralities_Consistent>
1

> <s_lp_Variant>
AV-unprocessed.smi:191-2

> <Gold.Version>
5.8.1

> <Gold.Id.Protein>
6NUR|6NUR_protein|mol2

> <Gold.PLP.Fitness>
46.3902

> <Gold.PLP.PLP>
-40.3221

> <Gold.PLP.part.hbond>
-2.8057

> <Gold.PLP.part.metal>
0.0000

> <Gold.PLP.part.buried>
-3.5494

> <Gold.PLP.part.nonpolar>
-33.5460

> <Gold.PLP.part.repulsive>
0.1824

> <Gold.PLP.ligand.clash>
0.0000

> <Gold.PLP.ligand.torsion>
1.5837

> <Gold.PLP.Chemscore.Hbond>
2.0000

> <Gold.PLP.Chemscore.CHOScore>
0.8476

> <Gold.PLP.Chemscore.Metal>
0.0000

> <Gold.Chemscore.Hbonds>
donor molecule, donor type, donor heavy atom, donor atom, acceptor molecule, acceptor atom, score
      L1  H    21    42       P1  7957  1.00
      P1  H  7997  8008       L1    15  0.61
      L1  C    11    36       P1  8028  0.79

> <Gold.PLP.Chemscore.Internal.Correction>
0.6927

> <Gold.Rescore>
     Score         DG    S(hbond)    S(metal)    S(lipo)     H(rot)  DE(clash)    DE(int)     intcor
      7.31      -9.27       0.99        0.00      72.23       3.11       0.07       1.90       ----

> <Gold.Chemscore.Fitness>
7.3075

> <Gold.Chemscore.DG>
-9.2712

> <Gold.Chemscore.ZeroCoef>
-5.4800

> <Gold.Chemscore.Hbond>
0.9863

> <Gold.Chemscore.Metal>
0.0000

> <Gold.Chemscore.Lipo>
72.2253

> <Gold.Chemscore.Internal_Hbond>
0.0000

> <Gold.Chemscore.DEClash>
0.0673

> <Gold.Chemscore.DEInternal>
1.8965

> <Gold.Chemscore.Rot>
3.1067

> <Gold.Chemscore.Internal.Correction>
   9.000000E+99

> <Gold.Chemscore.Hbonds>
donor molecule, donor type, donor heavy atom, donor atom, acceptor molecule, acceptor atom, score
      L1  H    21    42       P1  7957  0.99
      P1  H  7997  8008       L1    15  0.15

> <Gold.Chemscore.Hbond.Weighted>
-3.2941

> <Gold.Chemscore.Metal.Weighted>
-0.0000

> <Gold.Chemscore.Lipo.Weighted>
-8.4504

> <Gold.Chemscore.Internal_Hbond.Weighted>
0.0000

> <Gold.Chemscore.DEClash.Weighted>
0.0673

> <Gold.Chemscore.DEInternal.Weighted>
1.8965

> <Gold.Chemscore.Rot.Weighted>
7.9532

> <Gold.Chemscore.Internal.Correction.Weighted>
   9.000000E+99

> <Gold.Protein.RotatedTorsions>
[ 6907 6896 6895 6894 ] final  171.72 input  -60.11 | X-H torsion
[ 7974 7965 7964 7962 ] final -149.58 input  175.53 | X-H torsion
[ 8008 7997 7996 7995 ] final  -78.56 input   59.86 | X-H torsion
[ 10167 10162 10161 10158 ] final   25.02 input  -65.29 | X-H torsion
[ 10718 10713 10712 10709 ] final  154.53 input   66.30 | X-H torsion
[ 10763 10752 10751 10750 ] final   86.27 input  -60.55 | X-H torsion
[ 11005 11000 10999 10996 ] final  132.50 input  -57.11 | X-H torsion

> <Gold.Protein.ActiveResidues>
 VAL166  LYS551  ARG553  GLY616  TRP617  ASP618  TYR619  PRO620  LYS621  CYS622 
 ASP623  PHE694  ASN695  SER759  ASP760  ASP761  ALA762  ILE779  LEU786  VAL792 
 PHE793  MET794  SER795  GLU796  ALA797  LYS798  CYS799  TRP800  GLU811  SER814 

> <Gold.Protein.RotatedAtoms>
  151.7957  133.3364  159.3511 H   0  0  0  0  0  0  0  0  0  0  0  0  # atno 6907 bound_to 6896
  150.7376  134.5801  159.5943 H   0  0  0  0  0  0  0  0  0  0  0  0  # atno 6908 bound_to 6896
  152.3179  134.7418  160.0372 H   0  0  0  0  0  0  0  0  0  0  0  0  # atno 6909 bound_to 6896
  144.7959  140.5046  143.5740 H   0  0  0  0  0  0  0  0  0  0  0  0  # atno 7974 bound_to 7965
  154.5701  140.0692  156.8950 H   0  0  0  0  0  0  0  0  0  0  0  0  # atno 8008 bound_to 7997
  155.2651  140.3361  155.4251 H   0  0  0  0  0  0  0  0  0  0  0  0  # atno 8009 bound_to 7997
  156.2111  140.1759  156.7678 H   0  0  0  0  0  0  0  0  0  0  0  0  # atno 8010 bound_to 7997
  140.5140  144.0112  150.6385 H   0  0  0  0  0  0  0  0  0  0  0  0  # atno 10167 bound_to 10162
  157.2304  131.0738  151.1856 H   0  0  0  0  0  0  0  0  0  0  0  0  # atno 10718 bound_to 10713
  153.1554  135.4586  154.9697 H   0  0  0  0  0  0  0  0  0  0  0  0  # atno 10763 bound_to 10752
  154.7857  135.3203  154.7893 H   0  0  0  0  0  0  0  0  0  0  0  0  # atno 10764 bound_to 10752
  153.8391  135.6931  153.4859 H   0  0  0  0  0  0  0  0  0  0  0  0  # atno 10765 bound_to 10752
  139.9794  134.9553  156.9592 H   0  0  0  0  0  0  0  0  0  0  0  0  # atno 11005 bound_to 11000
  145.5675  139.1482  143.3307 LP  0  0  0  0  0  0  0  0  0  0  0  0  # atno 17320 bound_to 7965
  146.2227  140.5809  142.9010 LP  0  0  0  0  0  0  0  0  0  0  0  0  # atno 17321 bound_to 7965
  140.3443  143.3001  152.0555 LP  0  0  0  0  0  0  0  0  0  0  0  0  # atno 17342 bound_to 10162
  139.4904  144.6420  151.6857 LP  0  0  0  0  0  0  0  0  0  0  0  0  # atno 17343 bound_to 10162
  157.3484  130.7069  149.6425 LP  0  0  0  0  0  0  0  0  0  0  0  0  # atno 17370 bound_to 10713
  155.9676  130.4259  150.4677 LP  0  0  0  0  0  0  0  0  0  0  0  0  # atno 17371 bound_to 10713
  140.5127  134.0986  155.7274 LP  0  0  0  0  0  0  0  0  0  0  0  0  # atno 17394 bound_to 11000
  141.1468  133.9041  157.2196 LP  0  0  0  0  0  0  0  0  0  0  0  0  # atno 17395 bound_to 11000

$$$$
