AV-unprocessed.smi:36|AV-procd|sdf|300|dock6
  -GOLD-   2262016103D 1   1.00000     0.00000
 Structure written by MMmdl.
 63 66  0  0  0  0  0  0  0  0  2 V2000
  144.0109  142.7352  158.8621 C   0  0  0  0  0  0  0  0  0  0  0  0
  144.8350  143.4783  157.7976 C   0  0  0  0  0  0  0  0  0  0  0  0
  144.2404  144.8761  157.5566 C   0  0  0  0  0  0  0  0  0  0  0  0
  146.2946  143.6093  158.2632 C   0  0  0  0  0  0  0  0  0  0  0  0
  144.7894  142.4958  156.1603 Si  0  0  0  0  0  0  0  0  0  0  0  0
  143.0046  142.1412  155.6146 C   0  0  0  0  0  0  0  0  0  0  0  0
  145.7057  143.4298  154.7802 C   0  0  0  0  0  0  0  0  0  0  0  0
  145.5635  141.0129  156.4168 O   0  0  0  0  0  0  0  0  0  0  0  0
  145.6817  140.0199  155.4195 C   0  0  0  0  0  0  0  0  0  0  0  0
  146.4509  140.5744  154.2121 C   0  0  1  0  0  0  0  0  0  0  0  0
  147.6275  141.2067  154.7192 O   0  0  0  0  0  0  0  0  0  0  0  0
  148.7546  140.6898  154.0884 C   0  0  1  0  0  0  0  0  0  0  0  0
  149.8769  140.6582  155.0708 N   0  0  0  0  0  0  0  0  0  0  0  0
  150.4030  141.6943  155.7536 C   0  0  0  0  0  0  0  0  0  0  0  0
  151.4056  141.4320  156.5895 N   0  0  0  0  0  0  0  0  0  0  0  0
  151.5462  140.0603  156.4377 C   0  0  0  0  0  0  0  0  0  0  0  0
  152.4335  139.1170  157.0250 C   0  0  0  0  0  0  0  0  0  0  0  0
  153.3687  139.4628  157.9221 N   0  5  0  0  0  0  0  0  0  0  0  0
  153.1128  139.3387  159.2492 C   0  0  0  0  0  0  0  0  0  0  0  0
  152.8857  138.3052  159.8823 O   0  0  0  0  0  0  0  0  0  0  0  0
  153.0466  140.6597  159.9684 C   0  0  0  0  0  0  0  0  0  0  0  0
  153.6620  140.7999  161.2335 C   0  0  0  0  0  0  0  0  0  0  0  0
  153.6314  142.0335  161.9126 C   0  0  0  0  0  0  0  0  0  0  0  0
  152.9923  143.1437  161.3299 C   0  0  0  0  0  0  0  0  0  0  0  0
  152.3887  143.0206  160.0645 C   0  0  0  0  0  0  0  0  0  0  0  0
  152.4193  141.7875  159.3845 C   0  0  0  0  0  0  0  0  0  0  0  0
  152.2869  137.8194  156.6542 N   0  0  0  0  0  0  0  0  0  0  0  0
  151.3506  137.4729  155.7635 C   0  0  0  0  0  0  0  0  0  0  0  0
  150.4657  138.2486  155.1308 N   0  0  0  0  0  0  0  0  0  0  0  0
  150.5980  139.5559  155.5013 C   0  0  0  0  0  0  0  0  0  0  0  0
  148.3875  139.2871  153.6176 C   0  0  0  0  0  0  0  0  0  0  0  0
  146.9342  139.4818  153.2388 C   0  0  2  0  0  0  0  0  0  0  0  0
  146.8250  139.9331  151.9031 O   0  0  0  0  0  0  0  0  0  0  0  0
  144.0172  143.2699  159.8125 H   0  0  0  0  0  0  0  0  0  0  0  0
  144.4066  141.7359  159.0449 H   0  0  0  0  0  0  0  0  0  0  0  0
  142.9707  142.6259  158.5546 H   0  0  0  0  0  0  0  0  0  0  0  0
  143.2002  144.8169  157.2357 H   0  0  0  0  0  0  0  0  0  0  0  0
  144.7920  145.4137  156.7844 H   0  0  0  0  0  0  0  0  0  0  0  0
  144.2692  145.4811  158.4635 H   0  0  0  0  0  0  0  0  0  0  0  0
  146.3663  144.1844  159.1870 H   0  0  0  0  0  0  0  0  0  0  0  0
  146.9052  144.1129  157.5132 H   0  0  0  0  0  0  0  0  0  0  0  0
  146.7420  142.6327  158.4498 H   0  0  0  0  0  0  0  0  0  0  0  0
  142.4460  143.0618  155.4479 H   0  0  0  0  0  0  0  0  0  0  0  0
  142.4636  141.5631  156.3631 H   0  0  0  0  0  0  0  0  0  0  0  0
  142.9781  141.5724  154.6852 H   0  0  0  0  0  0  0  0  0  0  0  0
  145.2400  144.3930  154.5730 H   0  0  0  0  0  0  0  0  0  0  0  0
  145.7102  142.8664  153.8473 H   0  0  0  0  0  0  0  0  0  0  0  0
  146.7444  143.6236  155.0461 H   0  0  0  0  0  0  0  0  0  0  0  0
  146.2090  139.1643  155.8421 H   0  0  0  0  0  0  0  0  0  0  0  0
  144.6958  139.6677  155.1171 H   0  0  0  0  0  0  0  0  0  0  0  0
  145.8331  141.3148  153.7012 H   0  0  0  0  0  0  0  0  0  0  0  0
  149.0786  141.3477  153.2806 H   0  0  0  0  0  0  0  0  0  0  0  0
  150.0314  142.7006  155.6283 H   0  0  0  0  0  0  0  0  0  0  0  0
  154.1580  139.9582  161.6946 H   0  0  0  0  0  0  0  0  0  0  0  0
  154.0996  142.1275  162.8812 H   0  0  0  0  0  0  0  0  0  0  0  0
  152.9691  144.0895  161.8505 H   0  0  0  0  0  0  0  0  0  0  0  0
  151.9037  143.8730  159.6125 H   0  0  0  0  0  0  0  0  0  0  0  0
  151.9584  141.7174  158.4096 H   0  0  0  0  0  0  0  0  0  0  0  0
  151.3046  136.4217  155.5214 H   0  0  0  0  0  0  0  0  0  0  0  0
  149.0314  138.9536  152.8030 H   0  0  0  0  0  0  0  0  0  0  0  0
  148.4655  138.5807  154.4444 H   0  0  0  0  0  0  0  0  0  0  0  0
  146.3674  138.5553  153.3283 H   0  0  0  0  0  0  0  0  0  0  0  0
  147.6948  140.0211  151.5446 H   0  0  0  0  0  0  0  0  0  0  0  0
  1  2  1  0  0  0  0
  1 34  1  0  0  0  0
  1 35  1  0  0  0  0
  1 36  1  0  0  0  0
  2  3  1  0  0  0  0
  2  4  1  0  0  0  0
  2  5  1  0  0  0  0
  3 37  1  0  0  0  0
  3 38  1  0  0  0  0
  3 39  1  0  0  0  0
  4 40  1  0  0  0  0
  4 41  1  0  0  0  0
  4 42  1  0  0  0  0
  5  6  1  0  0  0  0
  5  7  1  0  0  0  0
  5  8  1  0  0  0  0
  6 43  1  0  0  0  0
  6 44  1  0  0  0  0
  6 45  1  0  0  0  0
  7 46  1  0  0  0  0
  7 47  1  0  0  0  0
  7 48  1  0  0  0  0
  8  9  1  0  0  0  0
  9 10  1  0  0  0  0
  9 49  1  0  0  0  0
  9 50  1  0  0  0  0
 10 32  1  0  0  0  0
 10 11  1  0  0  0  0
 10 51  1  0  0  0  0
 11 12  1  0  0  0  0
 12 13  1  0  0  0  0
 12 31  1  0  0  0  0
 12 52  1  0  0  0  0
 13 30  1  0  0  0  0
 13 14  1  0  0  0  0
 14 15  2  0  0  0  0
 14 53  1  0  0  0  0
 15 16  1  0  0  0  0
 16 30  2  0  0  0  0
 16 17  1  0  0  0  0
 17 18  1  0  0  0  0
 17 27  2  0  0  0  0
 18 19  1  0  0  0  0
 19 20  2  0  0  0  0
 19 21  1  0  0  0  0
 21 26  1  0  0  0  0
 21 22  2  0  0  0  0
 22 23  1  0  0  0  0
 22 54  1  0  0  0  0
 23 24  2  0  0  0  0
 23 55  1  0  0  0  0
 24 25  1  0  0  0  0
 24 56  1  0  0  0  0
 25 26  2  0  0  0  0
 25 57  1  0  0  0  0
 26 58  1  0  0  0  0
 27 28  1  0  0  0  0
 28 29  2  0  0  0  0
 28 59  1  0  0  0  0
 29 30  1  0  0  0  0
 31 32  1  0  0  0  0
 31 60  1  0  0  0  0
 31 61  1  0  0  0  0
 32 33  1  0  0  0  0
 32 62  1  0  0  0  0
 33 63  1  0  0  0  0
M  CHG  1  18  -1
M  END
> <s_m_source_file>
AV-unprocessed.smi

> <i_m_source_file_index>
36

> <i_lp_mmshare_version>
43012

> <i_f3d_flags>
0

> <s_epik_input>
W0NIM11DKFtDSDNdKShbQ0gzXSlbU2ldKFtDSDNdKShbQ0gzXSlPW0NIMl1bQ0BASF0xT1tDQEhdKFtDSDJdW0NASF0xW09IXSluKFtjSF1uMiljKGMyMyluW2NIXW5jM1tOSF1DKD1PKWM0W2NIXVtjSF1bY0hdW2NIXVtjSF00

> <s_epik_cmdline>
J2VwaWtfcHl0aG9uJywgJy1waCcsICc3LjAnLCAnLXRuJywgJzgnLCAnLW1hJywgJzIwMCcsICctbWV0YWxfYmluZGluZycsICctaW1hZScsICc8aW5maWxlLm1hZT4nLCAnLW9tYWUnLCAnPG91dGZpbGUubWFlPic=

> <r_lp_tautomer_probability>
1

> <r_epik_Ionization_Penalty>
4.75685

> <r_epik_Ionization_Penalty_Charging>
3.55822

> <r_epik_Ionization_Penalty_Neutral>
1.19863

> <r_epik_State_Penalty>
3.564

> <r_epik_Charging_Adjusted_Penalty>
7.12222

> <i_epik_Tot_Q>
-1

> <i_epik_Tot_abs_Q>
1

> <r_epik_Metal_State_Penalty>
0.523258

> <b_epik_Metal_Only>
1

> <s_epik_Chemistry_Notes>
This compound contains an acetal/aminal-like group ( X-CH(R)-Y where X, Y are N, S, or O) that may be acid/base labile, releasing an aldehyde.

> <s_lp_Force_Field>
OPLS_2005

> <r_lp_Energy>
29.6254

> <b_lp_Chiralities_Consistent>
1

> <s_lp_Variant>
AV-unprocessed.smi:36-22

> <Gold.Version>
5.8.1

> <Gold.Id.Protein>
6NUR|6NUR_protein|mol2

> <Gold.PLP.Fitness>
56.8663

> <Gold.PLP.PLP>
-48.5808

> <Gold.PLP.part.hbond>
-2.3968

> <Gold.PLP.part.metal>
0.0000

> <Gold.PLP.part.buried>
-1.4017

> <Gold.PLP.part.nonpolar>
-44.1581

> <Gold.PLP.part.repulsive>
0.3023

> <Gold.PLP.ligand.clash>
0.0000

> <Gold.PLP.ligand.torsion>
2.2004

> <Gold.PLP.Chemscore.Hbond>
3.0000

> <Gold.PLP.Chemscore.CHOScore>
1.0000

> <Gold.PLP.Chemscore.Metal>
0.0000

> <Gold.Chemscore.Hbonds>
donor molecule, donor type, donor heavy atom, donor atom, acceptor molecule, acceptor atom, score
      L1  H    33    63       P1  7957  1.00
      P1  H  7997  8010       L1    18  2.00
      L1  C    14    53       P1  8028  1.00

> <Gold.PLP.Chemscore.Internal.Correction>
0.6863

> <Gold.Rescore>
     Score         DG    S(hbond)    S(metal)    S(lipo)     H(rot)  DE(clash)    DE(int)     intcor
     11.41     -15.10       1.64        0.00      93.68       2.67       0.17       3.51       ----

> <Gold.Chemscore.Fitness>
11.4092

> <Gold.Chemscore.DG>
-15.0973

> <Gold.Chemscore.ZeroCoef>
-5.4800

> <Gold.Chemscore.Hbond>
1.6446

> <Gold.Chemscore.Metal>
0.0000

> <Gold.Chemscore.Lipo>
93.6753

> <Gold.Chemscore.Internal_Hbond>
0.0000

> <Gold.Chemscore.DEClash>
0.1731

> <Gold.Chemscore.DEInternal>
3.5150

> <Gold.Chemscore.Rot>
2.6702

> <Gold.Chemscore.Internal.Correction>
   9.000000E+99

> <Gold.Chemscore.Hbonds>
donor molecule, donor type, donor heavy atom, donor atom, acceptor molecule, acceptor atom, score
      L1  H    33    63       P1  7957  1.00
      P1  H  7997  8010       L1    18  0.60

> <Gold.Chemscore.Hbond.Weighted>
-5.4930

> <Gold.Chemscore.Metal.Weighted>
-0.0000

> <Gold.Chemscore.Lipo.Weighted>
-10.9600

> <Gold.Chemscore.Internal_Hbond.Weighted>
0.0000

> <Gold.Chemscore.DEClash.Weighted>
0.1731

> <Gold.Chemscore.DEInternal.Weighted>
3.5150

> <Gold.Chemscore.Rot.Weighted>
6.8358

> <Gold.Chemscore.Internal.Correction.Weighted>
   9.000000E+99

> <Gold.Protein.RotatedTorsions>
[ 6907 6896 6895 6894 ] final  148.59 input  -60.11 | X-H torsion
[ 7974 7965 7964 7962 ] final  -75.46 input  175.53 | X-H torsion
[ 8008 7997 7996 7995 ] final   29.94 input   59.86 | X-H torsion
[ 10167 10162 10161 10158 ] final  100.07 input  -65.29 | X-H torsion
[ 10718 10713 10712 10709 ] final   55.57 input   66.30 | X-H torsion
[ 10763 10752 10751 10750 ] final  156.24 input  -60.55 | X-H torsion
[ 11005 11000 10999 10996 ] final  172.84 input  -57.11 | X-H torsion

> <Gold.Protein.ActiveResidues>
 VAL166  LYS551  ARG553  GLY616  TRP617  ASP618  TYR619  PRO620  LYS621  CYS622 
 ASP623  PHE694  ASN695  SER759  ASP760  ASP761  ALA762  ILE779  LEU786  VAL792 
 PHE793  MET794  SER795  GLU796  ALA797  LYS798  CYS799  TRP800  GLU811  SER814 

> <Gold.Protein.RotatedAtoms>
  152.1394  133.4455  159.4759 H   0  0  0  0  0  0  0  0  0  0  0  0  # atno 6907 bound_to 6896
  150.6884  134.2324  159.4449 H   0  0  0  0  0  0  0  0  0  0  0  0  # atno 6908 bound_to 6896
  152.0213  134.9820  160.0621 H   0  0  0  0  0  0  0  0  0  0  0  0  # atno 6909 bound_to 6896
  145.6257  140.9351  143.1114 H   0  0  0  0  0  0  0  0  0  0  0  0  # atno 7974 bound_to 7965
  155.0824  140.3211  155.4597 H   0  0  0  0  0  0  0  0  0  0  0  0  # atno 8008 bound_to 7997
  156.2763  140.2092  156.5898 H   0  0  0  0  0  0  0  0  0  0  0  0  # atno 8009 bound_to 7997
  154.6968  140.0511  157.0405 H   0  0  0  0  0  0  0  0  0  0  0  0  # atno 8010 bound_to 7997
  139.7560  144.6969  151.0362 H   0  0  0  0  0  0  0  0  0  0  0  0  # atno 10167 bound_to 10162
  157.5357  130.8661  149.8749 H   0  0  0  0  0  0  0  0  0  0  0  0  # atno 10718 bound_to 10713
  154.1812  135.2799  155.3051 H   0  0  0  0  0  0  0  0  0  0  0  0  # atno 10763 bound_to 10752
  154.6001  135.5532  153.7369 H   0  0  0  0  0  0  0  0  0  0  0  0  # atno 10764 bound_to 10752
  153.0137  135.6389  154.1951 H   0  0  0  0  0  0  0  0  0  0  0  0  # atno 10765 bound_to 10752
  140.3341  134.7332  157.4155 H   0  0  0  0  0  0  0  0  0  0  0  0  # atno 11005 bound_to 11000
  144.7213  139.8020  143.7381 LP  0  0  0  0  0  0  0  0  0  0  0  0  # atno 17320 bound_to 7965
  146.1396  139.4450  143.0117 LP  0  0  0  0  0  0  0  0  0  0  0  0  # atno 17321 bound_to 7965
  140.7803  143.4753  151.0091 LP  0  0  0  0  0  0  0  0  0  0  0  0  # atno 17342 bound_to 10162
  139.8440  143.7526  152.3180 LP  0  0  0  0  0  0  0  0  0  0  0  0  # atno 17343 bound_to 10162
  156.0456  130.3728  150.1325 LP  0  0  0  0  0  0  0  0  0  0  0  0  # atno 17370 bound_to 10713
  156.9507  130.9774  151.3498 LP  0  0  0  0  0  0  0  0  0  0  0  0  # atno 17371 bound_to 10713
  140.0836  134.5697  155.8515 LP  0  0  0  0  0  0  0  0  0  0  0  0  # atno 17394 bound_to 11000
  141.2056  133.6648  156.6189 LP  0  0  0  0  0  0  0  0  0  0  0  0  # atno 17395 bound_to 11000

$$$$
