AV-unprocessed.smi:793|AV-procd|sdf|3752|dock1
  -GOLD-   22720 1183D 1   1.00000     0.00000
 Structure written by MMmdl.
 39 40  0  0  0  0  0  0  0  0  1 V2000
  153.8920  140.9066  158.9679 C   0  0  0  0  0  0  0  0  0  0  0  0
  152.8175  140.2370  158.1024 C   0  0  0  0  0  0  0  0  0  0  0  0
  152.3305  141.1390  156.9528 C   0  0  2  0  0  0  0  0  0  0  0  0
  151.4999  142.1538  157.5161 O   0  0  0  0  0  0  0  0  0  0  0  0
  152.1681  143.2514  158.1328 C   0  0  0  0  0  0  0  0  0  0  0  0
  152.1004  143.2127  159.6632 C   0  0  0  0  0  0  0  0  0  0  0  0
  152.1967  144.6767  160.1149 C   0  0  0  0  0  0  0  0  0  0  0  0
  151.9197  145.5349  158.8709 C   0  0  0  0  0  0  0  0  0  0  0  0
  151.4630  144.5599  157.7839 C   0  0  0  0  0  0  0  0  0  0  0  0
  151.5405  140.3350  155.9069 C   0  0  0  0  0  0  0  0  0  0  0  0
  152.1022  139.4323  155.2870 O   0  0  0  0  0  0  0  0  0  0  0  0
  150.2459  140.6829  155.7694 N   0  0  0  0  0  0  0  0  0  0  0  0
  149.2692  140.1583  154.9078 C   0  0  0  0  0  0  0  0  0  0  0  0
  149.4835  139.2393  153.9316 C   0  0  0  0  0  0  0  0  0  0  0  0
  148.4884  138.7552  153.0944 N   0  0  0  0  0  0  0  0  0  0  0  0
  147.1961  139.2316  153.2439 C   0  0  0  0  0  0  0  0  0  0  0  0
  146.8497  140.1469  154.1701 C   0  0  0  0  0  0  0  0  0  0  0  0
  147.8854  140.6826  155.0823 C   0  0  0  0  0  0  0  0  0  0  0  0
  147.6038  141.5199  155.9397 O   0  0  0  0  0  0  0  0  0  0  0  0
  154.2167  140.2397  159.7666 H   0  0  0  0  0  0  0  0  0  0  0  0
  153.5150  141.8191  159.4306 H   0  0  0  0  0  0  0  0  0  0  0  0
  154.7690  141.1681  158.3754 H   0  0  0  0  0  0  0  0  0  0  0  0
  153.2268  139.3105  157.6967 H   0  0  0  0  0  0  0  0  0  0  0  0
  151.9760  139.9491  158.7340 H   0  0  0  0  0  0  0  0  0  0  0  0
  153.2049  141.5889  156.4794 H   0  0  0  0  0  0  0  0  0  0  0  0
  153.2070  143.3272  157.8090 H   0  0  0  0  0  0  0  0  0  0  0  0
  151.1393  142.8018  159.9764 H   0  0  0  0  0  0  0  0  0  0  0  0
  152.8824  142.5917  160.1011 H   0  0  0  0  0  0  0  0  0  0  0  0
  151.4779  144.8826  160.9086 H   0  0  0  0  0  0  0  0  0  0  0  0
  153.1895  144.8963  160.5094 H   0  0  0  0  0  0  0  0  0  0  0  0
  151.1795  146.3129  159.0591 H   0  0  0  0  0  0  0  0  0  0  0  0
  152.8403  146.0281  158.5560 H   0  0  0  0  0  0  0  0  0  0  0  0
  151.6979  144.9090  156.7781 H   0  0  0  0  0  0  0  0  0  0  0  0
  150.3819  144.4254  157.8461 H   0  0  0  0  0  0  0  0  0  0  0  0
  149.9131  141.4111  156.3851 H   0  0  0  0  0  0  0  0  0  0  0  0
  150.4462  138.8087  153.7080 H   0  0  0  0  0  0  0  0  0  0  0  0
  146.4848  138.8059  152.5515 H   0  0  0  0  0  0  0  0  0  0  0  0
  145.8329  140.4993  154.2626 H   0  0  0  0  0  0  0  0  0  0  0  0
  148.7054  138.0720  152.3823 H   0  0  0  0  0  0  0  0  0  0  0  0
  1  2  1  0  0  0  0
  1 20  1  0  0  0  0
  1 21  1  0  0  0  0
  1 22  1  0  0  0  0
  2  3  1  0  0  0  0
  2 23  1  0  0  0  0
  2 24  1  0  0  0  0
  3  4  1  0  0  0  0
  3 10  1  0  0  0  0
  3 25  1  0  0  0  0
  4  5  1  0  0  0  0
  5  9  1  0  0  0  0
  5  6  1  0  0  0  0
  5 26  1  0  0  0  0
  6  7  1  0  0  0  0
  6 27  1  0  0  0  0
  6 28  1  0  0  0  0
  7  8  1  0  0  0  0
  7 29  1  0  0  0  0
  7 30  1  0  0  0  0
  8  9  1  0  0  0  0
  8 31  1  0  0  0  0
  8 32  1  0  0  0  0
  9 33  1  0  0  0  0
  9 34  1  0  0  0  0
 10 11  2  0  0  0  0
 10 12  1  0  0  0  0
 12 35  1  0  0  0  0
 12 13  1  0  0  0  0
 13 18  1  0  0  0  0
 13 14  2  0  0  0  0
 14 36  1  0  0  0  0
 14 15  1  0  0  0  0
 15 39  1  0  0  0  0
 15 16  1  0  0  0  0
 16 37  1  0  0  0  0
 16 17  2  0  0  0  0
 17 18  1  0  0  0  0
 17 38  1  0  0  0  0
 18 19  2  0  0  0  0
M  END
> <s_m_source_file>
AV-unprocessed.smi

> <i_m_source_file_index>
793

> <i_lp_mmshare_version>
43012

> <i_f3d_flags>
0

> <s_epik_input>
W0NIMl0xW0NIMl1bQ0gyXVtDSDJdW0NIXTFPW0NAQEhdKFtDSDJdW0NIM10pQyg9TylbTkhdYzJbY0hdbltjSF1bY0hdYzJbT0hd

> <s_epik_cmdline>
J2VwaWtfcHl0aG9uJywgJy1waCcsICc3LjAnLCAnLXRuJywgJzgnLCAnLW1hJywgJzIwMCcsICctbWV0YWxfYmluZGluZycsICctaW1hZScsICc8aW5maWxlLm1hZT4nLCAnLW9tYWUnLCAnPG91dGZpbGUubWFlPic=

> <r_lp_tautomer_probability>
1

> <r_epik_Ionization_Penalty>
0.000234492

> <r_epik_Ionization_Penalty_Charging>
0.000234447

> <r_epik_Ionization_Penalty_Neutral>
4.48517e-08

> <r_epik_State_Penalty>
-0

> <r_epik_Charging_Adjusted_Penalty>
0.000234447

> <i_epik_Tot_Q>
0

> <i_epik_Tot_abs_Q>
0

> <r_epik_Metal_State_Penalty>
0.110344

> <b_epik_Metal_Only>
0

> <s_lp_Force_Field>
OPLS_2005

> <r_lp_Energy>
24.985

> <b_lp_Chiralities_Consistent>
1

> <s_lp_Variant>
AV-unprocessed.smi:793-1

> <Gold.Version>
5.8.1

> <Gold.Id.Protein>
6NUR|6NUR_protein|mol2

> <Gold.PLP.Fitness>
39.6452

> <Gold.PLP.PLP>
-38.4410

> <Gold.PLP.part.hbond>
-2.0000

> <Gold.PLP.part.metal>
0.0000

> <Gold.PLP.part.buried>
-4.2914

> <Gold.PLP.part.nonpolar>
-32.2503

> <Gold.PLP.part.repulsive>
0.8163

> <Gold.PLP.ligand.clash>
0.0000

> <Gold.PLP.ligand.torsion>
0.9309

> <Gold.PLP.Chemscore.Hbond>
1.0000

> <Gold.PLP.Chemscore.CHOScore>
0.0000

> <Gold.PLP.Chemscore.Metal>
0.0000

> <Gold.Chemscore.Hbonds>
donor molecule, donor type, donor heavy atom, donor atom, acceptor molecule, acceptor atom, score
      L1  H    15    39       P1  7948  1.00
      P1  H  7989  7998       L1    11  0.02

> <Gold.PLP.Chemscore.Internal.Correction>
0.0659

> <Gold.Rescore>
     Score         DG    S(hbond)    S(metal)    S(lipo)     H(rot)  DE(clash)    DE(int)     intcor
     14.66     -17.14       0.98        0.00     106.65       1.61       0.11       2.36       ----

> <Gold.Chemscore.Fitness>
14.6607

> <Gold.Chemscore.DG>
-17.1358

> <Gold.Chemscore.ZeroCoef>
-5.4800

> <Gold.Chemscore.Hbond>
0.9847

> <Gold.Chemscore.Metal>
0.0000

> <Gold.Chemscore.Lipo>
106.6543

> <Gold.Chemscore.Internal_Hbond>
0.0000

> <Gold.Chemscore.DEClash>
0.1147

> <Gold.Chemscore.DEInternal>
2.3603

> <Gold.Chemscore.Rot>
1.6061

> <Gold.Chemscore.Internal.Correction>
   9.000000E+99

> <Gold.Chemscore.Hbonds>
donor molecule, donor type, donor heavy atom, donor atom, acceptor molecule, acceptor atom, score
      L1  H    15    39       P1  7948  0.95

> <Gold.Chemscore.Hbond.Weighted>
-3.2888

> <Gold.Chemscore.Metal.Weighted>
-0.0000

> <Gold.Chemscore.Lipo.Weighted>
-12.4786

> <Gold.Chemscore.Internal_Hbond.Weighted>
0.0000

> <Gold.Chemscore.DEClash.Weighted>
0.1147

> <Gold.Chemscore.DEInternal.Weighted>
2.3603

> <Gold.Chemscore.Rot.Weighted>
4.1116

> <Gold.Chemscore.Internal.Correction.Weighted>
   9.000000E+99

> <Gold.Protein.RotatedTorsions>
[ 6907 6896 6895 6894 ] final  105.59 input  -60.11 | X-H torsion
[ 7974 7965 7964 7962 ] final  -28.81 input  175.53 | X-H torsion
[ 8008 7997 7996 7995 ] final   99.30 input   59.86 | X-H torsion
[ 10167 10162 10161 10158 ] final  -56.43 input  -65.29 | X-H torsion
[ 10718 10713 10712 10709 ] final  114.46 input   66.30 | X-H torsion
[ 10763 10752 10751 10750 ] final   23.61 input  -60.55 | X-H torsion
[ 11005 11000 10999 10996 ] final  125.60 input  -57.11 | X-H torsion

> <Gold.Protein.ActiveResidues>
 VAL166  LYS551  ARG553  GLY616  TRP617  ASP618  TYR619  PRO620  LYS621  CYS622 
 ASP623  PHE694  ASN695  SER759  ASP760  ASP761  ALA762  ILE779  LEU786  VAL792 
 PHE793  MET794  SER795  GLU796  ALA797  LYS798  CYS799  TRP800  GLU811  SER814 

> <Gold.Protein.RotatedAtoms>
  152.5225  133.9506  159.7669 H   0  0  0  0  0  0  0  0  0  0  0  0  # atno 6907 bound_to 6896
  150.9817  133.6230  159.2728 H   0  0  0  0  0  0  0  0  0  0  0  0  # atno 6908 bound_to 6896
  151.3405  135.0868  159.9422 H   0  0  0  0  0  0  0  0  0  0  0  0  # atno 6909 bound_to 6896
  146.1261  140.5331  142.8714 H   0  0  0  0  0  0  0  0  0  0  0  0  # atno 7974 bound_to 7965
  156.1091  140.3231  155.8047 H   0  0  0  0  0  0  0  0  0  0  0  0  # atno 8008 bound_to 7997
  155.4704  140.0546  157.2997 H   0  0  0  0  0  0  0  0  0  0  0  0  # atno 8009 bound_to 7997
  154.4748  140.2027  155.9920 H   0  0  0  0  0  0  0  0  0  0  0  0  # atno 8010 bound_to 7997
  140.6317  143.2463  151.5223 H   0  0  0  0  0  0  0  0  0  0  0  0  # atno 10167 bound_to 10162
  157.6280  131.0999  150.7189 H   0  0  0  0  0  0  0  0  0  0  0  0  # atno 10718 bound_to 10713
  153.0826  135.6623  154.0015 H   0  0  0  0  0  0  0  0  0  0  0  0  # atno 10763 bound_to 10752
  153.9632  135.2972  155.3433 H   0  0  0  0  0  0  0  0  0  0  0  0  # atno 10764 bound_to 10752
  154.7228  135.5157  153.8910 H   0  0  0  0  0  0  0  0  0  0  0  0  # atno 10765 bound_to 10752
  139.9414  134.9635  156.8582 H   0  0  0  0  0  0  0  0  0  0  0  0  # atno 11005 bound_to 11000
  144.7644  140.5496  143.6713 LP  0  0  0  0  0  0  0  0  0  0  0  0  # atno 17320 bound_to 7965
  145.5361  139.1475  143.3472 LP  0  0  0  0  0  0  0  0  0  0  0  0  # atno 17321 bound_to 7965
  139.5531  144.2345  152.1565 LP  0  0  0  0  0  0  0  0  0  0  0  0  # atno 17342 bound_to 10162
  140.1590  144.5043  150.6643 LP  0  0  0  0  0  0  0  0  0  0  0  0  # atno 17343 bound_to 10162
  156.7534  130.4776  149.5452 LP  0  0  0  0  0  0  0  0  0  0  0  0  # atno 17370 bound_to 10713
  156.1464  130.6280  151.0536 LP  0  0  0  0  0  0  0  0  0  0  0  0  # atno 17371 bound_to 10713
  140.5942  134.0233  155.7511 LP  0  0  0  0  0  0  0  0  0  0  0  0  # atno 17394 bound_to 11000
  141.1050  133.9708  157.3012 LP  0  0  0  0  0  0  0  0  0  0  0  0  # atno 17395 bound_to 11000

$$$$
