AV-unprocessed.smi:1750|AV-procd|sdf|7055|dock9
  -GOLD-   22720 8273D 1   1.00000     0.00000
 Structure written by MMmdl.
 35 36  0  0  0  0  0  0  0  0  2 V2000
  147.4465  139.6905  153.4457 C   0  0  0  0  0  0  0  0  0  0  0  0
  147.3951  141.0225  154.2018 C   0  0  0  0  0  0  0  0  0  0  0  0
  148.7652  141.7109  154.2771 C   0  0  0  0  0  0  0  0  0  0  0  0
  149.7345  140.9644  155.1315 C   0  0  0  0  0  0  0  0  0  0  0  0
  150.7423  140.2466  154.6287 N   0  0  0  0  0  0  0  0  0  0  0  0
  151.4858  139.6234  155.6205 N   0  0  0  0  0  0  0  0  0  0  0  0
  151.0163  139.8565  156.8545 C   0  0  0  0  0  0  0  0  0  0  0  0
  151.5930  139.3451  157.9546 N   0  5  0  0  0  0  0  0  0  0  0  0
  152.6215  139.9968  158.5435 C   0  0  0  0  0  0  0  0  0  0  0  0
  153.7718  139.5737  158.6811 O   0  0  0  0  0  0  0  0  0  0  0  0
  152.2983  141.2119  159.0053 N   0  0  0  0  0  0  0  0  0  0  0  0
  153.2089  142.1226  159.6868 C   0  0  0  0  0  0  0  0  0  0  0  0
  152.6182  143.5381  159.7385 C   0  0  1  0  0  0  0  0  0  0  0  0
  152.3281  144.1382  158.3633 C   0  0  0  0  0  0  0  0  0  0  0  0
  151.1964  145.1209  158.6268 C   0  0  0  0  0  0  0  0  0  0  0  0
  150.7304  144.7854  160.0460 C   0  0  0  0  0  0  0  0  0  0  0  0
  151.3344  143.5352  160.3429 O   0  0  0  0  0  0  0  0  0  0  0  0
  149.5997  140.9059  156.8807 S   0  0  0  0  0  0  0  0  0  0  0  0
  146.4626  139.2222  153.4171 H   0  0  0  0  0  0  0  0  0  0  0  0
  148.1340  138.9924  153.9241 H   0  0  0  0  0  0  0  0  0  0  0  0
  147.7765  139.8353  152.4166 H   0  0  0  0  0  0  0  0  0  0  0  0
  146.6800  141.6849  153.7121 H   0  0  0  0  0  0  0  0  0  0  0  0
  147.0169  140.8505  155.2102 H   0  0  0  0  0  0  0  0  0  0  0  0
  149.1879  141.8166  153.2771 H   0  0  0  0  0  0  0  0  0  0  0  0
  148.6567  142.7191  154.6780 H   0  0  0  0  0  0  0  0  0  0  0  0
  151.3494  141.5283  158.8698 H   0  0  0  0  0  0  0  0  0  0  0  0
  153.3848  141.7662  160.7030 H   0  0  0  0  0  0  0  0  0  0  0  0
  154.1716  142.1262  159.1737 H   0  0  0  0  0  0  0  0  0  0  0  0
  153.2757  144.2055  160.2998 H   0  0  0  0  0  0  0  0  0  0  0  0
  153.2060  144.6099  157.9208 H   0  0  0  0  0  0  0  0  0  0  0  0
  151.9833  143.3628  157.6779 H   0  0  0  0  0  0  0  0  0  0  0  0
  151.5340  146.1557  158.5636 H   0  0  0  0  0  0  0  0  0  0  0  0
  150.3939  144.9844  157.9012 H   0  0  0  0  0  0  0  0  0  0  0  0
  151.0897  145.5331  160.7545 H   0  0  0  0  0  0  0  0  0  0  0  0
  149.6449  144.7307  160.1301 H   0  0  0  0  0  0  0  0  0  0  0  0
  1  2  1  0  0  0  0
  1 19  1  0  0  0  0
  1 20  1  0  0  0  0
  1 21  1  0  0  0  0
  2  3  1  0  0  0  0
  2 22  1  0  0  0  0
  2 23  1  0  0  0  0
  3  4  1  0  0  0  0
  3 24  1  0  0  0  0
  3 25  1  0  0  0  0
  4 18  1  0  0  0  0
  4  5  2  0  0  0  0
  5  6  1  0  0  0  0
  6  7  2  0  0  0  0
  7  8  1  0  0  0  0
  7 18  1  0  0  0  0
  8  9  1  0  0  0  0
  9 10  2  0  0  0  0
  9 11  1  0  0  0  0
 11 12  1  0  0  0  0
 11 26  1  0  0  0  0
 12 13  1  0  0  0  0
 12 27  1  0  0  0  0
 12 28  1  0  0  0  0
 13 17  1  0  0  0  0
 13 14  1  0  0  0  0
 13 29  1  0  0  0  0
 14 15  1  0  0  0  0
 14 30  1  0  0  0  0
 14 31  1  0  0  0  0
 15 16  1  0  0  0  0
 15 32  1  0  0  0  0
 15 33  1  0  0  0  0
 16 17  1  0  0  0  0
 16 34  1  0  0  0  0
 16 35  1  0  0  0  0
M  CHG  1   8  -1
M  END
> <s_m_source_file>
AV-unprocessed.smi

> <i_m_source_file_index>
1750

> <i_lp_mmshare_version>
43012

> <i_f3d_flags>
0

> <s_epik_input>
W0NIM11bQ0gyXVtDSDJdYzFubmMoczEpW05IXUMoPU8pW05IXVtDSDJdW0NAQEhdMltDSDJdW0NIMl1bQ0gyXU8y

> <s_epik_cmdline>
J2VwaWtfcHl0aG9uJywgJy1waCcsICc3LjAnLCAnLXRuJywgJzgnLCAnLW1hJywgJzIwMCcsICctbWV0YWxfYmluZGluZycsICctaW1hZScsICc8aW5maWxlLm1hZT4nLCAnLW9tYWUnLCAnPG91dGZpbGUubWFlPic=

> <r_lp_tautomer_probability>
1

> <r_epik_Ionization_Penalty>
4.22484

> <r_epik_Ionization_Penalty_Charging>
4.21437

> <r_epik_Ionization_Penalty_Neutral>
0.0104685

> <r_epik_State_Penalty>
4.21389

> <r_epik_Charging_Adjusted_Penalty>
8.42826

> <i_epik_Tot_Q>
-1

> <i_epik_Tot_abs_Q>
1

> <r_epik_Metal_State_Penalty>
0.69377

> <b_epik_Metal_Only>
1

> <s_lp_Force_Field>
OPLS_2005

> <r_lp_Energy>
10.9062

> <b_lp_Chiralities_Consistent>
1

> <s_lp_Variant>
AV-unprocessed.smi:1750-4

> <Gold.Version>
5.8.1

> <Gold.Id.Protein>
6NUR|6NUR_protein|mol2

> <Gold.PLP.Fitness>
40.5952

> <Gold.PLP.PLP>
-37.7467

> <Gold.PLP.part.hbond>
-2.4484

> <Gold.PLP.part.metal>
0.0000

> <Gold.PLP.part.buried>
-5.1532

> <Gold.PLP.part.nonpolar>
-30.4902

> <Gold.PLP.part.repulsive>
0.2867

> <Gold.PLP.ligand.clash>
0.0000

> <Gold.PLP.ligand.torsion>
1.6031

> <Gold.PLP.Chemscore.Hbond>
2.0000

> <Gold.PLP.Chemscore.CHOScore>
0.0000

> <Gold.PLP.Chemscore.Metal>
0.0000

> <Gold.Chemscore.Hbonds>
donor molecule, donor type, donor heavy atom, donor atom, acceptor molecule, acceptor atom, score
      P1  H  7989  7998       L1     5  1.00
      P1  H  7997  8008       L1    10  1.00

> <Gold.PLP.Chemscore.Internal.Correction>
0.0546

> <Gold.Rescore>
     Score         DG    S(hbond)    S(metal)    S(lipo)     H(rot)  DE(clash)    DE(int)     intcor
     15.80     -17.39       1.71        0.00      87.80       1.59       0.05       1.55       ----

> <Gold.Chemscore.Fitness>
15.7978

> <Gold.Chemscore.DG>
-17.3944

> <Gold.Chemscore.ZeroCoef>
-5.4800

> <Gold.Chemscore.Hbond>
1.7120

> <Gold.Chemscore.Metal>
0.0000

> <Gold.Chemscore.Lipo>
87.7975

> <Gold.Chemscore.Internal_Hbond>
0.0000

> <Gold.Chemscore.DEClash>
0.0456

> <Gold.Chemscore.DEInternal>
1.5510

> <Gold.Chemscore.Rot>
1.5922

> <Gold.Chemscore.Internal.Correction>
   9.000000E+99

> <Gold.Chemscore.Hbonds>
donor molecule, donor type, donor heavy atom, donor atom, acceptor molecule, acceptor atom, score
      P1  H  7989  7998       L1     5  0.80
      P1  H  7997  8008       L1    10  0.55

> <Gold.Chemscore.Hbond.Weighted>
-5.7181

> <Gold.Chemscore.Metal.Weighted>
-0.0000

> <Gold.Chemscore.Lipo.Weighted>
-10.2723

> <Gold.Chemscore.Internal_Hbond.Weighted>
0.0000

> <Gold.Chemscore.DEClash.Weighted>
0.0456

> <Gold.Chemscore.DEInternal.Weighted>
1.5510

> <Gold.Chemscore.Rot.Weighted>
4.0761

> <Gold.Chemscore.Internal.Correction.Weighted>
   9.000000E+99

> <Gold.Protein.RotatedTorsions>
[ 6907 6896 6895 6894 ] final  108.91 input  -60.11 | X-H torsion
[ 7974 7965 7964 7962 ] final  145.56 input  175.53 | X-H torsion
[ 8008 7997 7996 7995 ] final  -91.89 input   59.86 | X-H torsion
[ 10167 10162 10161 10158 ] final   52.34 input  -65.29 | X-H torsion
[ 10718 10713 10712 10709 ] final  -56.91 input   66.30 | X-H torsion
[ 10763 10752 10751 10750 ] final -104.14 input  -60.55 | X-H torsion
[ 11005 11000 10999 10996 ] final -169.48 input  -57.11 | X-H torsion

> <Gold.Protein.ActiveResidues>
 VAL166  LYS551  ARG553  GLY616  TRP617  ASP618  TYR619  PRO620  LYS621  CYS622 
 ASP623  PHE694  ASN695  SER759  ASP760  ASP761  ALA762  ILE779  LEU786  VAL792 
 PHE793  MET794  SER795  GLU796  ALA797  LYS798  CYS799  TRP800  GLU811  SER814 

> <Gold.Protein.RotatedAtoms>
  152.5091  133.9020  159.7445 H   0  0  0  0  0  0  0  0  0  0  0  0  # atno 6907 bound_to 6896
  150.9434  133.6622  159.2793 H   0  0  0  0  0  0  0  0  0  0  0  0  # atno 6908 bound_to 6896
  151.3926  135.0963  159.9583 H   0  0  0  0  0  0  0  0  0  0  0  0  # atno 6909 bound_to 6896
  144.8743  139.5798  143.5872 H   0  0  0  0  0  0  0  0  0  0  0  0  # atno 7974 bound_to 7965
  154.7163  140.0514  157.0598 H   0  0  0  0  0  0  0  0  0  0  0  0  # atno 8008 bound_to 7997
  155.0487  140.3176  155.4680 H   0  0  0  0  0  0  0  0  0  0  0  0  # atno 8009 bound_to 7997
  156.2804  140.2120  156.5612 H   0  0  0  0  0  0  0  0  0  0  0  0  # atno 8010 bound_to 7997
  140.2524  144.3464  150.6344 H   0  0  0  0  0  0  0  0  0  0  0  0  # atno 10167 bound_to 10162
  156.1251  130.4163  150.0369 H   0  0  0  0  0  0  0  0  0  0  0  0  # atno 10718 bound_to 10713
  154.7857  135.4797  153.9942 H   0  0  0  0  0  0  0  0  0  0  0  0  # atno 10763 bound_to 10752
  153.1557  135.6799  153.8822 H   0  0  0  0  0  0  0  0  0  0  0  0  # atno 10764 bound_to 10752
  153.8452  135.3174  155.3407 H   0  0  0  0  0  0  0  0  0  0  0  0  # atno 10765 bound_to 10752
  140.5303  134.5623  157.5073 H   0  0  0  0  0  0  0  0  0  0  0  0  # atno 11005 bound_to 11000
  146.2951  139.7255  142.9132 LP  0  0  0  0  0  0  0  0  0  0  0  0  # atno 17320 bound_to 7965
  145.4073  141.0392  143.3037 LP  0  0  0  0  0  0  0  0  0  0  0  0  # atno 17321 bound_to 7965
  140.6030  143.2167  151.7035 LP  0  0  0  0  0  0  0  0  0  0  0  0  # atno 17342 bound_to 10162
  139.5042  144.3762  152.0421 LP  0  0  0  0  0  0  0  0  0  0  0  0  # atno 17343 bound_to 10162
  156.8297  130.9388  151.3637 LP  0  0  0  0  0  0  0  0  0  0  0  0  # atno 17370 bound_to 10713
  157.6433  130.8824  149.9490 LP  0  0  0  0  0  0  0  0  0  0  0  0  # atno 17371 bound_to 10713
  139.9558  134.7538  156.0345 LP  0  0  0  0  0  0  0  0  0  0  0  0  # atno 17394 bound_to 11000
  141.1285  133.6592  156.3401 LP  0  0  0  0  0  0  0  0  0  0  0  0  # atno 17395 bound_to 11000

$$$$
