#       Name:                AV-unprocessed.smi:3108
#       Creating user name   scv26
#       Creation time:       Fri Mar 27 17:19:59 2020


#       File generated by GOLD software.
#

@<TRIPOS>MOLECULE
AV-unprocessed.smi:3108
    38    39     1
SMALL
NO_CHARGES


@<TRIPOS>ATOM
      1 ****        -4.0229   5.2252   0.8505 C.3            1 S1                 0.0000
      2 ****        -3.3894   4.0645   0.1391 C.2            1 S1                 0.0000
      3 ****        -2.9934   3.9850  -1.2265 C.2            1 S1                 0.0000
      4 ****        -2.4618   2.8145  -1.5403 N.2            1 S1                 0.0000
      5 ****        -2.4971   2.1092  -0.3902 N.pl3          1 S1                 0.0000
      6 ****        -1.9860   0.7526  -0.3624 C.3            1 S1                 0.0000
      7 ****        -0.4529   0.7208  -0.4422 C.3            1 S1                 0.0000
      8 ****         0.0530  -0.6637  -0.3814 N.4            1 S1                 1.0000
      9 ****         1.5231  -0.7689  -0.4639 C.3            1 S1                 0.0000
     10 ****         1.9848  -2.2321  -0.3685 C.3            1 S1                 0.0000
     11 ****         1.7638  -2.8740   1.0057 C.3            1 S1                 0.0000
     12 ****         2.7337  -4.0607   1.0593 C.3            1 S1                 0.0000
     13 ****         3.8143  -3.7841   0.0029 C.3            1 S1                 0.0000
     14 ****         3.4882  -2.4105  -0.5910 C.3            1 S1                 0.0000
     15 ****        -3.0547   2.8378   0.6388 C.2            1 S1                 0.0000
     16 ****        -4.3555   5.9953   0.1540 H              1 S1                 0.0000
     17 ****        -3.3280   5.6982   1.5446 H              1 S1                 0.0000
     18 ****        -4.8950   4.9168   1.4274 H              1 S1                 0.0000
     19 ****        -3.0765   4.7397  -1.9948 H              1 S1                 0.0000
     20 ****        -2.3287   0.2725   0.5553 H              1 S1                 0.0000
     21 ****        -2.4259   0.1995  -1.1937 H              1 S1                 0.0000
     22 ****        -0.1143   1.1844  -1.3701 H              1 S1                 0.0000
     23 ****        -0.0251   1.2948   0.3809 H              1 S1                 0.0000
     24 ****        -0.2492  -1.0778   0.4889 H              1 S1                 0.0000
     25 ****         1.8502  -0.3421  -1.4129 H              1 S1                 0.0000
     26 ****         1.9795  -0.1731   0.3280 H              1 S1                 0.0000
     27 ****         1.4611  -2.8261  -1.1199 H              1 S1                 0.0000
     28 ****         2.0203  -2.1640   1.7934 H              1 S1                 0.0000
     29 ****         0.7288  -3.1790   1.1639 H              1 S1                 0.0000
     30 ****         3.1611  -4.1743   2.0563 H              1 S1                 0.0000
     31 ****         2.2125  -4.9889   0.8215 H              1 S1                 0.0000
     32 ****         4.8192  -3.8097   0.4258 H              1 S1                 0.0000
     33 ****         3.7695  -4.5466  -0.7758 H              1 S1                 0.0000
     34 ****         3.7682  -2.3352  -1.6424 H              1 S1                 0.0000
     35 ****         4.0388  -1.6410  -0.0477 H              1 S1                 0.0000
     36 ****        -3.1659   2.4291   1.6326 H              1 S1                 0.0000
     37 ****        -0.3490  -1.1875  -1.1458 H              1 S1                 0.0000
     38 ****        -2.1125   2.5190  -2.4295 LP             1 S1                 0.0000
@<TRIPOS>BOND
    1    1    2 1     
    2    1   16 1     
    3    1   17 1     
    4    1   18 1     
    5    2   15 2     
    6    2    3 1     
    7    3    4 2     
    8    3   19 1     
    9    4    5 1     
   10    5    6 1     
   11    5   15 1     
   12    6    7 1     
   13    6   20 1     
   14    6   21 1     
   15    7    8 1     
   16    7   22 1     
   17    7   23 1     
   18    8    9 1     
   19    8   24 1     
   20    8   37 1     
   21    9   10 1     
   22    9   25 1     
   23    9   26 1     
   24   10   14 1     
   25   10   11 1     
   26   10   27 1     
   27   11   12 1     
   28   11   28 1     
   29   11   29 1     
   30   12   13 1     
   31   12   30 1     
   32   12   31 1     
   33   13   14 1     
   34   13   32 1     
   35   13   33 1     
   36   14   34 1     
   37   14   35 1     
   38   15   36 1     
   39    4   38 1     
@<TRIPOS>SUBSTRUCTURE
      1 S1             1
@<TRIPOS>SET
LONE_PAIRS      STATIC     ATOMS    <user>   **** ""
1 38
DONOR_HYDROGENS      STATIC     ATOMS    <user>   **** ""
2 24 37
ATOM$BLUE        STATIC     ATOMS    COLORGROUP SYSTEM
1 38
ATOM$RED        STATIC     ATOMS    COLORGROUP SYSTEM
2 24 37
