AV-unprocessed.smi:1230|AV-procd|sdf|5158|dock3
  -GOLD-   22720 4233D 1   1.00000     0.00000
 Structure written by MMmdl.
 39 40  0  0  0  0  0  0  0  0  1 V2000
  153.2838  141.7559  160.7826 C   0  0  0  0  0  0  0  0  0  0  0  0
  152.9668  143.0897  160.0892 C   0  0  2  0  0  0  0  0  0  0  0  0
  152.1506  144.0234  161.0053 C   0  0  0  0  0  0  0  0  0  0  0  0
  151.8768  145.3767  160.3304 C   0  0  0  0  0  0  0  0  0  0  0  0
  151.1768  145.1934  158.9756 C   0  0  0  0  0  0  0  0  0  0  0  0
  151.9790  144.2589  158.0542 C   0  0  0  0  0  0  0  0  0  0  0  0
  152.2681  142.9012  158.7214 C   0  0  2  0  0  0  0  0  0  0  0  0
  151.0257  142.2360  158.9084 O   0  0  0  0  0  0  0  0  0  0  0  0
  150.1992  142.1828  157.7558 C   0  0  0  0  0  0  0  0  0  0  0  0
  151.0433  141.6572  156.5849 C   0  0  0  0  0  0  0  0  0  0  0  0
  151.1984  140.2241  156.6280 N   0  0  0  0  0  0  0  0  0  0  0  0
  151.5938  139.5598  157.7788 C   0  0  0  0  0  0  0  0  0  0  0  0
  151.8103  138.2241  157.8164 C   0  0  0  0  0  0  0  0  0  0  0  0
  152.2268  137.5571  159.0052 C   0  0  0  0  0  0  0  0  0  0  0  0
  152.5437  137.0021  159.9699 N   0  0  0  0  0  0  0  0  0  0  0  0
  151.6326  137.4047  156.6190 C   0  0  0  0  0  0  0  0  0  0  0  0
  151.8000  136.1885  156.5509 O   0  0  0  0  0  0  0  0  0  0  0  0
  151.2416  138.1212  155.4831 N   0  0  0  0  0  0  0  0  0  0  0  0
  151.0213  139.4988  155.4261 C   0  0  0  0  0  0  0  0  0  0  0  0
  150.7009  140.0245  154.3600 O   0  0  0  0  0  0  0  0  0  0  0  0
  151.1142  137.5981  154.6289 H   0  0  0  0  0  0  0  0  0  0  0  0
  152.3735  141.2302  161.0693 H   0  0  0  0  0  0  0  0  0  0  0  0
  153.8688  141.9156  161.6886 H   0  0  0  0  0  0  0  0  0  0  0  0
  153.8595  141.0990  160.1304 H   0  0  0  0  0  0  0  0  0  0  0  0
  153.9234  143.5775  159.8963 H   0  0  0  0  0  0  0  0  0  0  0  0
  151.2047  143.5488  161.2708 H   0  0  0  0  0  0  0  0  0  0  0  0
  152.6850  144.1868  161.9417 H   0  0  0  0  0  0  0  0  0  0  0  0
  151.2662  146.0013  160.9832 H   0  0  0  0  0  0  0  0  0  0  0  0
  152.8177  145.9091  160.1852 H   0  0  0  0  0  0  0  0  0  0  0  0
  150.1772  144.7860  159.1330 H   0  0  0  0  0  0  0  0  0  0  0  0
  151.0411  146.1620  158.4939 H   0  0  0  0  0  0  0  0  0  0  0  0
  151.4407  144.1070  157.1181 H   0  0  0  0  0  0  0  0  0  0  0  0
  152.9223  144.7386  157.7903 H   0  0  0  0  0  0  0  0  0  0  0  0
  152.9204  142.3306  158.0571 H   0  0  0  0  0  0  0  0  0  0  0  0
  149.3554  141.5187  157.9454 H   0  0  0  0  0  0  0  0  0  0  0  0
  149.7928  143.1670  157.5180 H   0  0  0  0  0  0  0  0  0  0  0  0
  150.5739  141.8873  155.6272 H   0  0  0  0  0  0  0  0  0  0  0  0
  152.0392  142.1036  156.5529 H   0  0  0  0  0  0  0  0  0  0  0  0
  151.7478  140.1307  158.6841 H   0  0  0  0  0  0  0  0  0  0  0  0
  1  2  1  0  0  0  0
  1 22  1  0  0  0  0
  1 23  1  0  0  0  0
  1 24  1  0  0  0  0
  2  7  1  0  0  0  0
  2  3  1  0  0  0  0
  2 25  1  0  0  0  0
  3  4  1  0  0  0  0
  3 26  1  0  0  0  0
  3 27  1  0  0  0  0
  4  5  1  0  0  0  0
  4 28  1  0  0  0  0
  4 29  1  0  0  0  0
  5  6  1  0  0  0  0
  5 30  1  0  0  0  0
  5 31  1  0  0  0  0
  6  7  1  0  0  0  0
  6 32  1  0  0  0  0
  6 33  1  0  0  0  0
  7  8  1  0  0  0  0
  7 34  1  0  0  0  0
  8  9  1  0  0  0  0
  9 10  1  0  0  0  0
  9 35  1  0  0  0  0
  9 36  1  0  0  0  0
 10 11  1  0  0  0  0
 10 37  1  0  0  0  0
 10 38  1  0  0  0  0
 11 19  1  0  0  0  0
 11 12  1  0  0  0  0
 12 13  2  0  0  0  0
 12 39  1  0  0  0  0
 13 14  1  0  0  0  0
 13 16  1  0  0  0  0
 14 15  3  0  0  0  0
 16 17  2  0  0  0  0
 16 18  1  0  0  0  0
 18 21  1  0  0  0  0
 18 19  1  0  0  0  0
 19 20  2  0  0  0  0
M  END
> <s_m_source_file>
AV-unprocessed.smi

> <i_m_source_file_index>
1230

> <i_lp_mmshare_version>
43012

> <i_f3d_flags>
0

> <s_epik_input>
W0NIM11bQ0BASF0xW0NIMl1bQ0gyXVtDSDJdW0NIMl1bQ0BIXTFPW0NIMl1bQ0gyXW4yW2NIXWMoQyNOKWMoPU8pW25IXWMyPU8=

> <s_epik_cmdline>
J2VwaWtfcHl0aG9uJywgJy1waCcsICc3LjAnLCAnLXRuJywgJzgnLCAnLW1hJywgJzIwMCcsICctbWV0YWxfYmluZGluZycsICctaW1hZScsICc8aW5maWxlLm1hZT4nLCAnLW9tYWUnLCAnPG91dGZpbGUubWFlPic=

> <r_epik_Ionization_Penalty>
0.421541

> <r_epik_Ionization_Penalty_Charging>
0.421541

> <r_epik_Ionization_Penalty_Neutral>
2.29267e-11

> <r_epik_State_Penalty>
0.422277

> <r_epik_Charging_Adjusted_Penalty>
0.843818

> <i_epik_Tot_Q>
0

> <i_epik_Tot_abs_Q>
0

> <r_epik_Metal_State_Penalty>
4.11629

> <b_epik_Metal_Only>
0

> <s_lp_Force_Field>
OPLS_2005

> <r_lp_Energy>
14.6453

> <b_lp_Chiralities_Consistent>
1

> <s_lp_Variant>
AV-unprocessed.smi:1230-7

> <Gold.Version>
5.8.1

> <Gold.Id.Protein>
6NUR|6NUR_protein|mol2

> <Gold.PLP.Fitness>
53.5203

> <Gold.PLP.PLP>
-45.1010

> <Gold.PLP.part.hbond>
-2.9504

> <Gold.PLP.part.metal>
0.0000

> <Gold.PLP.part.buried>
-7.2792

> <Gold.PLP.part.nonpolar>
-36.6729

> <Gold.PLP.part.repulsive>
0.2238

> <Gold.PLP.ligand.clash>
0.0000

> <Gold.PLP.ligand.torsion>
0.2991

> <Gold.PLP.Chemscore.Hbond>
3.0000

> <Gold.PLP.Chemscore.CHOScore>
0.0000

> <Gold.PLP.Chemscore.Metal>
0.0000

> <Gold.Chemscore.Hbonds>
donor molecule, donor type, donor heavy atom, donor atom, acceptor molecule, acceptor atom, score
      P1  H  6896  6909       L1    15  1.00
      P1  H  7989  7998       L1    20  0.98
      P1  H 10752 10765       L1    17  0.75

> <Gold.PLP.Chemscore.Internal.Correction>
0.0176

> <Gold.Rescore>
     Score         DG    S(hbond)    S(metal)    S(lipo)     H(rot)  DE(clash)    DE(int)     intcor
     20.74     -22.26       2.93        0.00     102.23       1.94       0.03       1.49       ----

> <Gold.Chemscore.Fitness>
20.7384

> <Gold.Chemscore.DG>
-22.2624

> <Gold.Chemscore.ZeroCoef>
-5.4800

> <Gold.Chemscore.Hbond>
2.9293

> <Gold.Chemscore.Metal>
0.0000

> <Gold.Chemscore.Lipo>
102.2311

> <Gold.Chemscore.Internal_Hbond>
0.0000

> <Gold.Chemscore.DEClash>
0.0310

> <Gold.Chemscore.DEInternal>
1.4930

> <Gold.Chemscore.Rot>
1.9385

> <Gold.Chemscore.Internal.Correction>
   9.000000E+99

> <Gold.Chemscore.Hbonds>
donor molecule, donor type, donor heavy atom, donor atom, acceptor molecule, acceptor atom, score
      P1  H  6896  6909       L1    15  0.79
      P1  H  7989  7998       L1    20  0.92
      P1  H 10752 10765       L1    17  0.71

> <Gold.Chemscore.Hbond.Weighted>
-9.7839

> <Gold.Chemscore.Metal.Weighted>
-0.0000

> <Gold.Chemscore.Lipo.Weighted>
-11.9610

> <Gold.Chemscore.Internal_Hbond.Weighted>
0.0000

> <Gold.Chemscore.DEClash.Weighted>
0.0310

> <Gold.Chemscore.DEInternal.Weighted>
1.4930

> <Gold.Chemscore.Rot.Weighted>
4.9625

> <Gold.Chemscore.Internal.Correction.Weighted>
   9.000000E+99

> <Gold.Protein.RotatedTorsions>
[ 6907 6896 6895 6894 ] final  134.23 input  -60.11 | X-H torsion
[ 7974 7965 7964 7962 ] final  173.78 input  175.53 | X-H torsion
[ 8008 7997 7996 7995 ] final -162.73 input   59.86 | X-H torsion
[ 10167 10162 10161 10158 ] final  -64.83 input  -65.29 | X-H torsion
[ 10718 10713 10712 10709 ] final  -54.13 input   66.30 | X-H torsion
[ 10763 10752 10751 10750 ] final -147.40 input  -60.55 | X-H torsion
[ 11005 11000 10999 10996 ] final -133.61 input  -57.11 | X-H torsion

> <Gold.Protein.ActiveResidues>
 VAL166  LYS551  ARG553  GLY616  TRP617  ASP618  TYR619  PRO620  LYS621  CYS622 
 ASP623  PHE694  ASN695  SER759  ASP760  ASP761  ALA762  ILE779  LEU786  VAL792 
 PHE793  MET794  SER795  GLU796  ALA797  LYS798  CYS799  TRP800  GLU811  SER814 

> <Gold.Protein.RotatedAtoms>
  152.3135  133.5778  159.5696 H   0  0  0  0  0  0  0  0  0  0  0  0  # atno 6907 bound_to 6896
  150.7335  134.0117  159.3681 H   0  0  0  0  0  0  0  0  0  0  0  0  # atno 6908 bound_to 6896
  151.8008  135.0710  160.0451 H   0  0  0  0  0  0  0  0  0  0  0  0  # atno 6909 bound_to 6896
  144.7236  139.9699  143.6437 H   0  0  0  0  0  0  0  0  0  0  0  0  # atno 7974 bound_to 7965
  155.8110  140.0905  157.1904 H   0  0  0  0  0  0  0  0  0  0  0  0  # atno 8008 bound_to 7997
  154.3980  140.1454  156.3446 H   0  0  0  0  0  0  0  0  0  0  0  0  # atno 8009 bound_to 7997
  155.8365  140.3440  155.5607 H   0  0  0  0  0  0  0  0  0  0  0  0  # atno 8010 bound_to 7997
  140.5773  143.2323  151.6416 H   0  0  0  0  0  0  0  0  0  0  0  0  # atno 10167 bound_to 10162
  156.1476  130.4152  149.9997 H   0  0  0  0  0  0  0  0  0  0  0  0  # atno 10718 bound_to 10713
  154.8287  135.3361  154.6812 H   0  0  0  0  0  0  0  0  0  0  0  0  # atno 10763 bound_to 10752
  153.7435  135.6944  153.4966 H   0  0  0  0  0  0  0  0  0  0  0  0  # atno 10764 bound_to 10752
  153.2227  135.4443  155.0458 H   0  0  0  0  0  0  0  0  0  0  0  0  # atno 10765 bound_to 10752
  140.9065  134.1623  157.4421 H   0  0  0  0  0  0  0  0  0  0  0  0  # atno 11005 bound_to 11000
  146.0571  139.3567  143.0604 LP  0  0  0  0  0  0  0  0  0  0  0  0  # atno 17320 bound_to 7965
  145.8140  140.9712  143.0933 LP  0  0  0  0  0  0  0  0  0  0  0  0  # atno 17321 bound_to 7965
  139.5150  144.3393  152.0755 LP  0  0  0  0  0  0  0  0  0  0  0  0  # atno 17342 bound_to 10162
  140.2538  144.4140  150.6211 LP  0  0  0  0  0  0  0  0  0  0  0  0  # atno 17343 bound_to 10162
  156.7864  130.9240  151.3646 LP  0  0  0  0  0  0  0  0  0  0  0  0  # atno 17370 bound_to 10713
  157.6630  130.8983  149.9871 LP  0  0  0  0  0  0  0  0  0  0  0  0  # atno 17371 bound_to 10713
  139.8750  134.9919  156.5571 LP  0  0  0  0  0  0  0  0  0  0  0  0  # atno 17394 bound_to 11000
  140.8164  133.8388  155.8856 LP  0  0  0  0  0  0  0  0  0  0  0  0  # atno 17395 bound_to 11000

$$$$
