AV-unprocessed.smi:2410|AV-procd|sdf|9526|dock4
  -GOLD-   2272013153D 1   1.00000     0.00000
 Structure written by MMmdl.
 46 48  0  0  0  0  0  0  0  0  1 V2000
  152.8621  143.2366  161.0613 C   0  0  0  0  0  0  0  0  0  0  0  0
  152.2554  142.7627  159.7525 C   0  0  0  0  0  0  0  0  0  0  0  0
  152.7163  141.5563  159.1782 C   0  0  0  0  0  0  0  0  0  0  0  0
  152.1744  141.0783  157.9649 C   0  0  0  0  0  0  0  0  0  0  0  0
  152.4687  139.9394  157.2342 N   0  0  0  0  0  0  0  0  0  0  0  0
  151.6270  140.0528  156.2104 C   0  0  0  0  0  0  0  0  0  0  0  0
  150.8208  141.1316  156.1925 N   0  0  0  0  0  0  0  0  0  0  0  0
  149.8243  141.4725  155.1940 C   0  0  0  0  0  0  0  0  0  0  0  0
  149.1615  140.2230  154.5829 C   0  0  2  0  0  0  0  0  0  0  0  0
  149.9657  139.7717  153.5097 O   0  0  0  0  0  0  0  0  0  0  0  0
  147.7443  140.5242  154.0499 C   0  0  0  0  0  0  0  0  0  0  0  0
  147.1541  139.3605  153.3678 N   0  0  0  0  0  0  0  0  0  0  0  0
  147.2033  139.3702  151.9646 C   0  0  0  0  0  0  0  0  0  0  0  0
  146.7104  138.4036  151.2614 N   0  0  0  0  0  0  0  0  0  0  0  0
  146.1161  137.3104  151.8985 C   0  0  0  0  0  0  0  0  0  0  0  0
  145.5632  136.2361  150.9789 C   0  0  0  0  0  0  0  0  0  0  0  0
  146.0504  137.2329  153.2559 C   0  0  0  0  0  0  0  0  0  0  0  0
  145.4194  136.0658  154.0050 C   0  0  0  0  0  0  0  0  0  0  0  0
  146.6119  138.3232  154.0696 C   0  0  0  0  0  0  0  0  0  0  0  0
  146.6009  138.3121  155.3024 O   0  0  0  0  0  0  0  0  0  0  0  0
  151.1511  141.8468  157.3376 C   0  0  0  0  0  0  0  0  0  0  0  0
  150.6869  143.0505  157.8965 C   0  0  0  0  0  0  0  0  0  0  0  0
  151.2389  143.5135  159.1090 C   0  0  0  0  0  0  0  0  0  0  0  0
  150.7275  144.8126  159.7063 C   0  0  0  0  0  0  0  0  0  0  0  0
  153.6068  142.5324  161.4330 H   0  0  0  0  0  0  0  0  0  0  0  0
  152.0903  143.3407  161.8243 H   0  0  0  0  0  0  0  0  0  0  0  0
  153.3513  144.2017  160.9281 H   0  0  0  0  0  0  0  0  0  0  0  0
  153.4909  140.9847  159.6679 H   0  0  0  0  0  0  0  0  0  0  0  0
  151.5906  139.3063  155.4304 H   0  0  0  0  0  0  0  0  0  0  0  0
  149.0725  142.0991  155.6757 H   0  0  0  0  0  0  0  0  0  0  0  0
  150.2905  142.0828  154.4190 H   0  0  0  0  0  0  0  0  0  0  0  0
  149.1234  139.4392  155.3406 H   0  0  0  0  0  0  0  0  0  0  0  0
  149.5314  139.9838  152.6977 H   0  0  0  0  0  0  0  0  0  0  0  0
  147.0916  140.7936  154.8825 H   0  0  0  0  0  0  0  0  0  0  0  0
  147.7491  141.4165  153.4201 H   0  0  0  0  0  0  0  0  0  0  0  0
  147.6851  140.2411  151.5172 H   0  0  0  0  0  0  0  0  0  0  0  0
  144.4918  136.1118  151.1377 H   0  0  0  0  0  0  0  0  0  0  0  0
  146.0574  135.2820  151.1652 H   0  0  0  0  0  0  0  0  0  0  0  0
  145.7169  136.4930  149.9300 H   0  0  0  0  0  0  0  0  0  0  0  0
  146.1605  135.5868  154.6461 H   0  0  0  0  0  0  0  0  0  0  0  0
  145.0138  135.3006  153.3452 H   0  0  0  0  0  0  0  0  0  0  0  0
  144.6034  136.4203  154.6358 H   0  0  0  0  0  0  0  0  0  0  0  0
  149.9096  143.6099  157.3969 H   0  0  0  0  0  0  0  0  0  0  0  0
  149.9933  145.2877  159.0548 H   0  0  0  0  0  0  0  0  0  0  0  0
  151.5465  145.5169  159.8538 H   0  0  0  0  0  0  0  0  0  0  0  0
  150.2516  144.6271  160.6693 H   0  0  0  0  0  0  0  0  0  0  0  0
  1  2  1  0  0  0  0
  1 25  1  0  0  0  0
  1 26  1  0  0  0  0
  1 27  1  0  0  0  0
  2 23  1  0  0  0  0
  2  3  2  0  0  0  0
  3  4  1  0  0  0  0
  3 28  1  0  0  0  0
  4 21  2  0  0  0  0
  4  5  1  0  0  0  0
  5  6  2  0  0  0  0
  6  7  1  0  0  0  0
  6 29  1  0  0  0  0
  7  8  1  0  0  0  0
  7 21  1  0  0  0  0
  8  9  1  0  0  0  0
  8 30  1  0  0  0  0
  8 31  1  0  0  0  0
  9 10  1  0  0  0  0
  9 11  1  0  0  0  0
  9 32  1  0  0  0  0
 10 33  1  0  0  0  0
 11 12  1  0  0  0  0
 11 34  1  0  0  0  0
 11 35  1  0  0  0  0
 12 19  1  0  0  0  0
 12 13  1  0  0  0  0
 13 14  2  0  0  0  0
 13 36  1  0  0  0  0
 14 15  1  0  0  0  0
 15 16  1  0  0  0  0
 15 17  2  0  0  0  0
 16 37  1  0  0  0  0
 16 38  1  0  0  0  0
 16 39  1  0  0  0  0
 17 18  1  0  0  0  0
 17 19  1  0  0  0  0
 18 40  1  0  0  0  0
 18 41  1  0  0  0  0
 18 42  1  0  0  0  0
 19 20  2  0  0  0  0
 21 22  1  0  0  0  0
 22 23  2  0  0  0  0
 22 43  1  0  0  0  0
 23 24  1  0  0  0  0
 24 44  1  0  0  0  0
 24 45  1  0  0  0  0
 24 46  1  0  0  0  0
M  END
> <s_m_source_file>
AV-unprocessed.smi

> <i_m_source_file_index>
2410

> <i_lp_mmshare_version>
43012

> <i_f3d_flags>
0

> <s_epik_input>
W0NIM11jKFtjSF0xKWMoW0NIM10pW2NIXWMoYzEyKW4oW2NIXW4yKVtDSDJdW0NASF0oW09IXSlbQ0gyXW4zW2NIXW5jKFtDSDNdKWMoW0NIM10pYzM9Tw==

> <s_epik_cmdline>
J2VwaWtfcHl0aG9uJywgJy1waCcsICc3LjAnLCAnLXRuJywgJzgnLCAnLW1hJywgJzIwMCcsICctbWV0YWxfYmluZGluZycsICctaW1hZScsICc8aW5maWxlLm1hZT4nLCAnLW9tYWUnLCAnPG91dGZpbGUubWFlPic=

> <r_lp_tautomer_probability>
1

> <r_epik_Ionization_Penalty>
0.113377

> <r_epik_Ionization_Penalty_Charging>
7.56033e-08

> <r_epik_Ionization_Penalty_Neutral>
0.113377

> <r_epik_State_Penalty>
0.103025

> <r_epik_Charging_Adjusted_Penalty>
0.103025

> <i_epik_Tot_Q>
0

> <i_epik_Tot_abs_Q>
0

> <r_epik_Metal_State_Penalty>
0.0863476

> <b_epik_Metal_Only>
0

> <s_lp_Force_Field>
OPLS_2005

> <r_lp_Energy>
18.2684

> <b_lp_Chiralities_Consistent>
1

> <s_lp_Variant>
AV-unprocessed.smi:2410-1

> <Gold.Version>
5.8.1

> <Gold.Id.Protein>
6NUR|6NUR_protein|mol2

> <Gold.PLP.Fitness>
55.7484

> <Gold.PLP.PLP>
-45.1030

> <Gold.PLP.part.hbond>
-3.4896

> <Gold.PLP.part.metal>
0.0000

> <Gold.PLP.part.buried>
0.3158

> <Gold.PLP.part.nonpolar>
-43.0384

> <Gold.PLP.part.repulsive>
0.3846

> <Gold.PLP.ligand.clash>
0.0000

> <Gold.PLP.ligand.torsion>
0.9384

> <Gold.PLP.Chemscore.Hbond>
3.6640

> <Gold.PLP.Chemscore.CHOScore>
0.4950

> <Gold.PLP.Chemscore.Metal>
0.0000

> <Gold.Chemscore.Hbonds>
donor molecule, donor type, donor heavy atom, donor atom, acceptor molecule, acceptor atom, score
      L1  H    10    33       P1  7957  0.94
      P1  H  7954  7966       L1    14  0.91
      P1  H  7989  7998       L1    10  0.72
      P1  H  7997  8008       L1     5  1.00
      L1  C    13    36       P1  7957  0.53

> <Gold.PLP.Chemscore.Internal.Correction>
0.0451

> <Gold.Rescore>
     Score         DG    S(hbond)    S(metal)    S(lipo)     H(rot)  DE(clash)    DE(int)     intcor
     18.37     -20.77       2.51        0.00     110.30       2.35       1.57       0.82       ----

> <Gold.Chemscore.Fitness>
18.3734

> <Gold.Chemscore.DG>
-20.7714

> <Gold.Chemscore.ZeroCoef>
-5.4800

> <Gold.Chemscore.Hbond>
2.5140

> <Gold.Chemscore.Metal>
0.0000

> <Gold.Chemscore.Lipo>
110.2998

> <Gold.Chemscore.Internal_Hbond>
0.0000

> <Gold.Chemscore.DEClash>
1.5731

> <Gold.Chemscore.DEInternal>
0.8249

> <Gold.Chemscore.Rot>
2.3479

> <Gold.Chemscore.Internal.Correction>
   9.000000E+99

> <Gold.Chemscore.Hbonds>
donor molecule, donor type, donor heavy atom, donor atom, acceptor molecule, acceptor atom, score
      L1  H    10    33       P1  7957  0.86
      P1  H  7954  7966       L1    14  0.43
      P1  H  7989  7998       L1    10  0.20
      P1  H  7997  8008       L1     5  0.43

> <Gold.Chemscore.Hbond.Weighted>
-8.3969

> <Gold.Chemscore.Metal.Weighted>
-0.0000

> <Gold.Chemscore.Lipo.Weighted>
-12.9051

> <Gold.Chemscore.Internal_Hbond.Weighted>
0.0000

> <Gold.Chemscore.DEClash.Weighted>
1.5731

> <Gold.Chemscore.DEInternal.Weighted>
0.8249

> <Gold.Chemscore.Rot.Weighted>
6.0106

> <Gold.Chemscore.Internal.Correction.Weighted>
   9.000000E+99

> <Gold.Protein.RotatedTorsions>
[ 6907 6896 6895 6894 ] final   19.18 input  -60.11 | X-H torsion
[ 7974 7965 7964 7962 ] final   10.03 input  175.53 | X-H torsion
[ 8008 7997 7996 7995 ] final  -53.41 input   59.86 | X-H torsion
[ 10167 10162 10161 10158 ] final   47.57 input  -65.29 | X-H torsion
[ 10718 10713 10712 10709 ] final  -44.37 input   66.30 | X-H torsion
[ 10763 10752 10751 10750 ] final   -5.00 input  -60.55 | X-H torsion
[ 11005 11000 10999 10996 ] final  166.91 input  -57.11 | X-H torsion

> <Gold.Protein.ActiveResidues>
 VAL166  LYS551  ARG553  GLY616  TRP617  ASP618  TYR619  PRO620  LYS621  CYS622 
 ASP623  PHE694  ASN695  SER759  ASP760  ASP761  ALA762  ILE779  LEU786  VAL792 
 PHE793  MET794  SER795  GLU796  ALA797  LYS798  CYS799  TRP800  GLU811  SER814 

> <Gold.Protein.RotatedAtoms>
  151.8768  135.0469  160.0484 H   0  0  0  0  0  0  0  0  0  0  0  0  # atno 6907 bound_to 6896
  152.2544  133.5238  159.5353 H   0  0  0  0  0  0  0  0  0  0  0  0  # atno 6908 bound_to 6896
  150.7095  134.0832  159.3947 H   0  0  0  0  0  0  0  0  0  0  0  0  # atno 6909 bound_to 6896
  146.2395  139.9695  142.8449 H   0  0  0  0  0  0  0  0  0  0  0  0  # atno 7974 bound_to 7965
  154.4132  140.1201  156.5148 H   0  0  0  0  0  0  0  0  0  0  0  0  # atno 8008 bound_to 7997
  155.6762  140.3496  155.4818 H   0  0  0  0  0  0  0  0  0  0  0  0  # atno 8009 bound_to 7997
  155.9591  140.1119  157.0901 H   0  0  0  0  0  0  0  0  0  0  0  0  # atno 8010 bound_to 7997
  140.3023  144.2920  150.6216 H   0  0  0  0  0  0  0  0  0  0  0  0  # atno 10167 bound_to 10162
  156.2393  130.4178  149.8780 H   0  0  0  0  0  0  0  0  0  0  0  0  # atno 10718 bound_to 10713
  153.3925  135.7002  153.6484 H   0  0  0  0  0  0  0  0  0  0  0  0  # atno 10763 bound_to 10752
  153.5051  135.3644  155.2559 H   0  0  0  0  0  0  0  0  0  0  0  0  # atno 10764 bound_to 10752
  154.8703  135.4121  154.3244 H   0  0  0  0  0  0  0  0  0  0  0  0  # atno 10765 bound_to 10752
  140.2713  134.7824  157.3678 H   0  0  0  0  0  0  0  0  0  0  0  0  # atno 11005 bound_to 11000
  145.1695  140.9713  143.4330 LP  0  0  0  0  0  0  0  0  0  0  0  0  # atno 17320 bound_to 7965
  145.0042  139.3570  143.6152 LP  0  0  0  0  0  0  0  0  0  0  0  0  # atno 17321 bound_to 7965
  140.5641  143.2188  151.7715 LP  0  0  0  0  0  0  0  0  0  0  0  0  # atno 17342 bound_to 10162
  139.4912  144.4309  151.9874 LP  0  0  0  0  0  0  0  0  0  0  0  0  # atno 17343 bound_to 10162
  156.6367  130.8688  151.3506 LP  0  0  0  0  0  0  0  0  0  0  0  0  # atno 17370 bound_to 10713
  157.7168  130.9507  150.1286 LP  0  0  0  0  0  0  0  0  0  0  0  0  # atno 17371 bound_to 10713
  140.1370  134.5021  155.8061 LP  0  0  0  0  0  0  0  0  0  0  0  0  # atno 17394 bound_to 11000
  141.2177  133.6811  156.7142 LP  0  0  0  0  0  0  0  0  0  0  0  0  # atno 17395 bound_to 11000

$$$$
