AV-unprocessed.smi:2909|AV-procd|sdf|11173|dock5
  -GOLD-   2272016 63D 1   1.00000     0.00000
 Structure written by MMmdl.
 44 45  0  0  0  0  0  0  0  0  1 V2000
  144.5464  143.7295  155.8840 C   0  0  0  0  0  0  0  0  0  0  0  0
  145.6981  142.7884  155.6860 C   0  0  0  0  0  0  0  0  0  0  0  0
  146.5563  142.6722  154.5531 C   0  0  0  0  0  0  0  0  0  0  0  0
  147.4311  141.6779  154.8919 C   0  0  0  0  0  0  0  0  0  0  0  0
  148.5807  141.0773  154.1488 C   0  0  0  0  0  0  0  0  0  0  0  0
  149.8399  141.0737  155.0147 C   0  0  0  0  0  0  0  0  0  0  0  0
  150.6763  140.1809  154.8784 O   0  0  0  0  0  0  0  0  0  0  0  0
  149.9555  142.0694  155.9077 N   0  0  0  0  0  0  0  0  0  0  0  0
  151.0518  142.2251  156.8585 C   0  0  2  0  0  0  0  0  0  0  0  0
  151.3842  140.8775  157.5206 C   0  0  0  0  0  0  0  0  0  0  0  0
  152.4933  141.0256  158.5737 C   0  0  0  0  0  0  0  0  0  0  0  0
  152.1470  142.0700  159.6636 C   0  0  1  0  0  0  0  0  0  0  0  0
  153.2883  142.2282  160.7114 C   0  0  0  0  0  0  0  0  0  0  0  0
  153.9571  140.8865  161.0695 C   0  0  0  0  0  0  0  0  0  0  0  0
  152.8159  142.9084  162.0111 C   0  0  0  0  0  0  0  0  0  0  0  0
  151.7809  143.4117  158.9817 C   0  0  0  0  0  0  0  0  0  0  0  0
  150.6705  143.2565  157.9303 C   0  0  0  0  0  0  0  0  0  0  0  0
  147.0680  141.2623  156.1533 N   0  0  0  0  0  0  0  0  0  0  0  0
  146.0127  141.9343  156.6486 N   0  0  0  0  0  0  0  0  0  0  0  0
  147.5299  140.5361  156.6821 H   0  0  0  0  0  0  0  0  0  0  0  0
  144.2653  144.2102  154.9468 H   0  0  0  0  0  0  0  0  0  0  0  0
  144.8011  144.5141  156.5966 H   0  0  0  0  0  0  0  0  0  0  0  0
  143.6684  143.2059  156.2635 H   0  0  0  0  0  0  0  0  0  0  0  0
  146.5346  143.2367  153.6329 H   0  0  0  0  0  0  0  0  0  0  0  0
  148.7669  141.6338  153.2293 H   0  0  0  0  0  0  0  0  0  0  0  0
  148.3442  140.0551  153.8504 H   0  0  0  0  0  0  0  0  0  0  0  0
  149.2176  142.7577  155.9479 H   0  0  0  0  0  0  0  0  0  0  0  0
  151.9356  142.5919  156.3327 H   0  0  0  0  0  0  0  0  0  0  0  0
  150.4906  140.4661  157.9923 H   0  0  0  0  0  0  0  0  0  0  0  0
  151.6940  140.1540  156.7656 H   0  0  0  0  0  0  0  0  0  0  0  0
  152.6591  140.0450  159.0177 H   0  0  0  0  0  0  0  0  0  0  0  0
  153.4255  141.3045  158.0808 H   0  0  0  0  0  0  0  0  0  0  0  0
  151.2591  141.7159  160.1900 H   0  0  0  0  0  0  0  0  0  0  0  0
  154.0593  142.8661  160.2772 H   0  0  0  0  0  0  0  0  0  0  0  0
  153.2242  140.1580  161.4177 H   0  0  0  0  0  0  0  0  0  0  0  0
  154.6961  141.0141  161.8610 H   0  0  0  0  0  0  0  0  0  0  0  0
  154.4881  140.4543  160.2222 H   0  0  0  0  0  0  0  0  0  0  0  0
  151.9698  142.3801  162.4514 H   0  0  0  0  0  0  0  0  0  0  0  0
  152.5209  143.9441  161.8463 H   0  0  0  0  0  0  0  0  0  0  0  0
  153.6129  142.9320  162.7548 H   0  0  0  0  0  0  0  0  0  0  0  0
  151.4393  144.1381  159.7178 H   0  0  0  0  0  0  0  0  0  0  0  0
  152.6679  143.8398  158.5129 H   0  0  0  0  0  0  0  0  0  0  0  0
  150.4709  144.2222  157.4643 H   0  0  0  0  0  0  0  0  0  0  0  0
  149.7455  142.9547  158.4243 H   0  0  0  0  0  0  0  0  0  0  0  0
  1 21  1  0  0  0  0
  1 22  1  0  0  0  0
  1 23  1  0  0  0  0
  1  2  1  0  0  0  0
  2 19  2  0  0  0  0
  2  3  1  0  0  0  0
  3  4  2  0  0  0  0
  3 24  1  0  0  0  0
  4 18  1  0  0  0  0
  4  5  1  0  0  0  0
  5  6  1  0  0  0  0
  5 25  1  0  0  0  0
  5 26  1  0  0  0  0
  6  7  2  0  0  0  0
  6  8  1  0  0  0  0
  8  9  1  0  0  0  0
  8 27  1  0  0  0  0
  9 17  1  0  0  0  0
  9 10  1  0  0  0  0
  9 28  1  0  0  0  0
 10 11  1  0  0  0  0
 10 29  1  0  0  0  0
 10 30  1  0  0  0  0
 11 12  1  0  0  0  0
 11 31  1  0  0  0  0
 11 32  1  0  0  0  0
 12 13  1  0  0  0  0
 12 16  1  0  0  0  0
 12 33  1  0  0  0  0
 13 14  1  0  0  0  0
 13 15  1  0  0  0  0
 13 34  1  0  0  0  0
 14 35  1  0  0  0  0
 14 36  1  0  0  0  0
 14 37  1  0  0  0  0
 15 38  1  0  0  0  0
 15 39  1  0  0  0  0
 15 40  1  0  0  0  0
 16 17  1  0  0  0  0
 16 41  1  0  0  0  0
 16 42  1  0  0  0  0
 17 43  1  0  0  0  0
 17 44  1  0  0  0  0
 18 19  1  0  0  0  0
 18 20  1  0  0  0  0
M  END
> <s_m_source_file>
AV-unprocessed.smi

> <i_m_source_file_index>
2909

> <i_lp_mmshare_version>
43012

> <i_f3d_flags>
0

> <s_epik_input>
W0NIM11jMVtjSF1jKG5bbkhdMSlbQ0gyXUMoPU8pW05IXVtDQEBIXTJbQ0gyXVtDSDJdW0NAQEhdKFtDSF0oW0NIM10pW0NIM10pW0NIMl1bQ0gyXTI=

> <s_epik_cmdline>
J2VwaWtfcHl0aG9uJywgJy1waCcsICc3LjAnLCAnLXRuJywgJzgnLCAnLW1hJywgJzIwMCcsICctbWV0YWxfYmluZGluZycsICctaW1hZScsICc8aW5maWxlLm1hZT4nLCAnLW9tYWUnLCAnPG91dGZpbGUubWFlPic=

> <r_lp_tautomer_probability>
0.5

> <r_epik_Ionization_Penalty>
0.00013296

> <r_epik_Ionization_Penalty_Charging>
0

> <r_epik_Ionization_Penalty_Neutral>
0.00013296

> <r_epik_State_Penalty>
0.41068

> <r_epik_Charging_Adjusted_Penalty>
0.41068

> <i_epik_Tot_Q>
0

> <i_epik_Tot_abs_Q>
0

> <r_epik_Metal_State_Penalty>
0.41066

> <b_epik_Metal_Only>
0

> <s_lp_Force_Field>
OPLS_2005

> <r_lp_Energy>
10.7875

> <b_lp_Chiralities_Consistent>
1

> <s_lp_Variant>
AV-unprocessed.smi:2909-3

> <Gold.Version>
5.8.1

> <Gold.Id.Protein>
6NUR|6NUR_protein|mol2

> <Gold.PLP.Fitness>
46.8905

> <Gold.PLP.PLP>
-43.2703

> <Gold.PLP.part.hbond>
-2.0000

> <Gold.PLP.part.metal>
0.0000

> <Gold.PLP.part.buried>
-4.5389

> <Gold.PLP.part.nonpolar>
-36.9912

> <Gold.PLP.part.repulsive>
0.2634

> <Gold.PLP.ligand.clash>
0.0305

> <Gold.PLP.ligand.torsion>
0.9338

> <Gold.PLP.Chemscore.Hbond>
1.8320

> <Gold.PLP.Chemscore.CHOScore>
0.0000

> <Gold.PLP.Chemscore.Metal>
0.0000

> <Gold.Chemscore.Hbonds>
donor molecule, donor type, donor heavy atom, donor atom, acceptor molecule, acceptor atom, score
      L1  H     8    27       P1  8028  0.83
      P1  H  7989  7998       L1     7  0.95

> <Gold.PLP.Chemscore.Internal.Correction>
0.0222

> <Gold.Rescore>
     Score         DG    S(hbond)    S(metal)    S(lipo)     H(rot)  DE(clash)    DE(int)     intcor
     17.48     -19.79       1.65        0.00     108.05       1.50       0.21       2.09       ----

> <Gold.Chemscore.Fitness>
17.4840

> <Gold.Chemscore.DG>
-19.7906

> <Gold.Chemscore.ZeroCoef>
-5.4800

> <Gold.Chemscore.Hbond>
1.6502

> <Gold.Chemscore.Metal>
0.0000

> <Gold.Chemscore.Lipo>
108.0489

> <Gold.Chemscore.Internal_Hbond>
0.0000

> <Gold.Chemscore.DEClash>
0.2137

> <Gold.Chemscore.DEInternal>
2.0928

> <Gold.Chemscore.Rot>
1.5011

> <Gold.Chemscore.Internal.Correction>
   9.000000E+99

> <Gold.Chemscore.Hbonds>
donor molecule, donor type, donor heavy atom, donor atom, acceptor molecule, acceptor atom, score
      L1  H     8    27       P1  8028  0.79
      P1  H  7989  7998       L1     7  0.21

> <Gold.Chemscore.Hbond.Weighted>
-5.5117

> <Gold.Chemscore.Metal.Weighted>
-0.0000

> <Gold.Chemscore.Lipo.Weighted>
-12.6417

> <Gold.Chemscore.Internal_Hbond.Weighted>
0.0000

> <Gold.Chemscore.DEClash.Weighted>
0.2137

> <Gold.Chemscore.DEInternal.Weighted>
2.0928

> <Gold.Chemscore.Rot.Weighted>
3.8429

> <Gold.Chemscore.Internal.Correction.Weighted>
   9.000000E+99

> <Gold.Protein.RotatedTorsions>
[ 6907 6896 6895 6894 ] final  -20.90 input  -60.11 | X-H torsion
[ 7974 7965 7964 7962 ] final -131.89 input  175.53 | X-H torsion
[ 8008 7997 7996 7995 ] final  111.61 input   59.86 | X-H torsion
[ 10167 10162 10161 10158 ] final  -76.43 input  -65.29 | X-H torsion
[ 10718 10713 10712 10709 ] final -139.94 input   66.30 | X-H torsion
[ 10763 10752 10751 10750 ] final  -99.34 input  -60.55 | X-H torsion
[ 11005 11000 10999 10996 ] final  -24.86 input  -57.11 | X-H torsion

> <Gold.Protein.ActiveResidues>
 VAL166  LYS551  ARG553  GLY616  TRP617  ASP618  TYR619  PRO620  LYS621  CYS622 
 ASP623  PHE694  ASN695  SER759  ASP760  ASP761  ALA762  ILE779  LEU786  VAL792 
 PHE793  MET794  SER795  GLU796  ALA797  LYS798  CYS799  TRP800  GLU811  SER814 

> <Gold.Protein.RotatedAtoms>
  151.2412  135.0589  159.9025 H   0  0  0  0  0  0  0  0  0  0  0  0  # atno 6907 bound_to 6896
  152.5393  134.0432  159.8087 H   0  0  0  0  0  0  0  0  0  0  0  0  # atno 6908 bound_to 6896
  151.0626  133.5483  159.2664 H   0  0  0  0  0  0  0  0  0  0  0  0  # atno 6909 bound_to 6896
  144.9336  140.7158  143.4890 H   0  0  0  0  0  0  0  0  0  0  0  0  # atno 7974 bound_to 7965
  156.2135  140.3016  155.9787 H   0  0  0  0  0  0  0  0  0  0  0  0  # atno 8008 bound_to 7997
  155.2663  140.0432  157.3019 H   0  0  0  0  0  0  0  0  0  0  0  0  # atno 8009 bound_to 7997
  154.5734  140.2355  155.8166 H   0  0  0  0  0  0  0  0  0  0  0  0  # atno 8010 bound_to 7997
  140.4857  143.2391  151.7987 H   0  0  0  0  0  0  0  0  0  0  0  0  # atno 10167 bound_to 10162
  156.3165  130.7510  151.1598 H   0  0  0  0  0  0  0  0  0  0  0  0  # atno 10718 bound_to 10713
  154.7490  135.4976  153.9255 H   0  0  0  0  0  0  0  0  0  0  0  0  # atno 10763 bound_to 10752
  153.1123  135.6712  153.9487 H   0  0  0  0  0  0  0  0  0  0  0  0  # atno 10764 bound_to 10752
  153.9243  135.3085  155.3426 H   0  0  0  0  0  0  0  0  0  0  0  0  # atno 10765 bound_to 10752
  140.8884  133.7605  156.0390 H   0  0  0  0  0  0  0  0  0  0  0  0  # atno 11005 bound_to 11000
  145.3102  139.1821  143.4643 LP  0  0  0  0  0  0  0  0  0  0  0  0  # atno 17320 bound_to 7965
  146.3257  140.3105  142.8626 LP  0  0  0  0  0  0  0  0  0  0  0  0  # atno 17321 bound_to 7965
  139.4841  144.4715  151.9420 LP  0  0  0  0  0  0  0  0  0  0  0  0  # atno 17342 bound_to 10162
  140.3801  144.2747  150.5909 LP  0  0  0  0  0  0  0  0  0  0  0  0  # atno 17343 bound_to 10162
  157.7402  131.0519  150.5178 LP  0  0  0  0  0  0  0  0  0  0  0  0  # atno 17370 bound_to 10713
  156.5324  130.4188  149.6195 LP  0  0  0  0  0  0  0  0  0  0  0  0  # atno 17371 bound_to 10713
  140.8376  134.3104  157.5325 LP  0  0  0  0  0  0  0  0  0  0  0  0  # atno 17394 bound_to 11000
  139.8727  134.9398  156.3752 LP  0  0  0  0  0  0  0  0  0  0  0  0  # atno 17395 bound_to 11000

$$$$
