#       Name:                AV-unprocessed.smi:1897
#       Creating user name   scv26
#       Creation time:       Fri Mar 27 09:42:50 2020


#       File generated by GOLD software.
#

@<TRIPOS>MOLECULE
AV-unprocessed.smi:1897
    43    45     1
SMALL
NO_CHARGES


@<TRIPOS>ATOM
      1 ****         1.4915   7.7539   2.4587 C.3            1 S1                 0.0000
      2 ****         1.6484   6.3012   2.1639 C.2            1 S1                 0.0000
      3 ****         2.8326   5.7426   1.8866 N.2            1 S1                 0.0000
      4 ****         2.7290   4.3788   1.6566 N.2            1 S1                 0.0000
      5 ****         1.4629   3.9464   1.7536 C.2            1 S1                 0.0000
      6 ****         1.0627   2.5879   1.5925 N.am           1 S1                 0.0000
      7 ****         1.7516   1.5046   1.1762 C.2            1 S1                 0.0000
      8 ****         2.9355   1.5872   0.8552 O.2            1 S1                 0.0000
      9 ****         1.0660   0.3496   1.1378 N.am           1 S1                 0.0000
     10 ****         1.5776  -0.9356   0.6681 C.3            1 S1                 0.0000
     11 ****         0.9648  -2.1319   1.4224 C.3            1 S1                 0.0000
     12 ****         0.6624  -3.1668   0.3337 C.3            1 S1                 0.0000
     13 ****         0.3341  -2.3348  -0.8296 N.4            1 S1                 1.0000
     14 ****         0.2243  -2.9843  -2.1518 C.3            1 S1                 0.0000
     15 ****        -0.2973  -1.9439  -3.1662 C.3            1 S1                 0.0000
     16 ****         0.5448  -0.6480  -3.1603 C.3            1 S1                 0.0000
     17 ****         0.7270  -0.0899  -1.7323 C.3            1 S1                 0.0000
     18 ****         1.2790  -1.2050  -0.8253 C.3            1 S1                 0.0000
     19 ****         0.2887   5.1846   2.1672 S.3            1 S1                 0.0000
     20 ****         2.2797   8.3298   1.9727 H              1 S1                 0.0000
     21 ****         1.5452   7.9226   3.5343 H              1 S1                 0.0000
     22 ****         0.5272   8.1096   2.0955 H              1 S1                 0.0000
     23 ****         0.1310   2.3885   1.9267 H              1 S1                 0.0000
     24 ****         0.0985   0.3742   1.4280 H              1 S1                 0.0000
     25 ****         2.6594  -0.9666   0.8131 H              1 S1                 0.0000
     26 ****         1.6262  -2.5238   2.1957 H              1 S1                 0.0000
     27 ****         0.0322  -1.8378   1.9072 H              1 S1                 0.0000
     28 ****         1.5474  -3.7682   0.1192 H              1 S1                 0.0000
     29 ****        -0.1556  -3.8356   0.6029 H              1 S1                 0.0000
     30 ****         1.1944  -3.3769  -2.4600 H              1 S1                 0.0000
     31 ****        -0.4635  -3.8285  -2.0917 H              1 S1                 0.0000
     32 ****        -0.3143  -2.3741  -4.1679 H              1 S1                 0.0000
     33 ****        -1.3314  -1.6962  -2.9230 H              1 S1                 0.0000
     34 ****         1.5243  -0.8558  -3.5927 H              1 S1                 0.0000
     35 ****         0.0809   0.1031  -3.8002 H              1 S1                 0.0000
     36 ****         1.4090   0.7606  -1.7522 H              1 S1                 0.0000
     37 ****        -0.2273   0.2758  -1.3502 H              1 S1                 0.0000
     38 ****         2.2141  -1.5599  -1.2642 H              1 S1                 0.0000
     39 ****        -0.5732  -1.9391  -0.6288 H              1 S1                 0.0000
     40 ****         3.6933   6.2503   1.8496 LP             1 S1                 0.0000
     41 ****         3.5067   3.7874   1.4436 LP             1 S1                 0.0000
     42 ****         3.4053   2.4688   0.9000 LP             1 S1                 0.0000
     43 ****         3.4286   0.7727   0.5493 LP             1 S1                 0.0000
@<TRIPOS>BOND
    1    1    2 1     
    2    1   20 1     
    3    1   21 1     
    4    1   22 1     
    5    2   19 1     
    6    2    3 2     
    7    3    4 1     
    8    4    5 2     
    9    5    6 1     
   10    5   19 1     
   11    6    7 am    
   12    6   23 1     
   13    7    8 2     
   14    7    9 am    
   15    9   10 1     
   16    9   24 1     
   17   10   18 1     
   18   10   11 1     
   19   10   25 1     
   20   11   12 1     
   21   11   26 1     
   22   11   27 1     
   23   12   13 1     
   24   12   28 1     
   25   12   29 1     
   26   13   18 1     
   27   13   14 1     
   28   13   39 1     
   29   14   15 1     
   30   14   30 1     
   31   14   31 1     
   32   15   16 1     
   33   15   32 1     
   34   15   33 1     
   35   16   17 1     
   36   16   34 1     
   37   16   35 1     
   38   17   18 1     
   39   17   36 1     
   40   17   37 1     
   41   18   38 1     
   42    3   40 1     
   43    4   41 1     
   44    8   42 1     
   45    8   43 1     
@<TRIPOS>SUBSTRUCTURE
      1 S1             1
@<TRIPOS>SET
LONE_PAIRS      STATIC     ATOMS    <user>   **** ""
4 40 41 42 43
DONOR_HYDROGENS      STATIC     ATOMS    <user>   **** ""
3 23 24 39
ATOM$BLUE        STATIC     ATOMS    COLORGROUP SYSTEM
4 40 41 42 43
ATOM$RED        STATIC     ATOMS    COLORGROUP SYSTEM
3 23 24 39
