AV-unprocessed.smi:1362|AV-procd|sdf|5561|dock1
  -GOLD-   22720 5153D 1   1.00000     0.00000
 Structure written by MMmdl.
 39 39  0  0  0  0  0  0  0  0  1 V2000
  146.4593  138.2815  152.1642 C   0  0  0  0  0  0  0  0  0  0  0  0
  147.2661  139.2368  153.0168 C   0  0  0  0  0  0  0  0  0  0  0  0
  148.5103  138.7462  153.3767 N   0  0  0  0  0  0  0  0  0  0  0  0
  149.3239  139.5518  154.1536 C   0  0  0  0  0  0  0  0  0  0  0  0
  150.6709  138.9413  154.5005 C   0  0  0  0  0  0  0  0  0  0  0  0
  148.9189  140.7851  154.5501 C   0  0  0  0  0  0  0  0  0  0  0  0
  149.7917  141.7056  155.4020 C   0  0  0  0  0  0  0  0  0  0  0  0
  150.1516  141.1831  156.7952 C   0  0  0  0  0  0  0  0  0  0  0  0
  149.6648  140.1317  157.2118 O   0  0  0  0  0  0  0  0  0  0  0  0
  151.0052  141.9352  157.5068 N   0  0  0  0  0  0  0  0  0  0  0  0
  151.4592  141.6527  158.8681 C   0  0  1  0  0  0  0  0  0  0  0  0
  152.0401  140.2264  158.9122 C   0  0  0  0  0  0  0  0  0  0  0  0
  152.4647  142.7397  159.3323 C   0  0  0  0  0  0  0  0  0  0  0  0
  152.9943  142.4806  160.7545 C   0  0  0  0  0  0  0  0  0  0  0  0
  151.8667  144.1587  159.2588 C   0  0  0  0  0  0  0  0  0  0  0  0
  147.5779  141.2569  154.1307 C   0  0  0  0  0  0  0  0  0  0  0  0
  147.1574  142.3686  154.4484 O   0  0  0  0  0  0  0  0  0  0  0  0
  146.7897  140.3986  153.3468 N   0  0  0  0  0  0  0  0  0  0  0  0
  148.8529  137.8377  153.0992 H   0  0  0  0  0  0  0  0  0  0  0  0
  145.4319  138.6303  152.0538 H   0  0  0  0  0  0  0  0  0  0  0  0
  146.4342  137.2899  152.6173 H   0  0  0  0  0  0  0  0  0  0  0  0
  146.9004  138.1982  151.1706 H   0  0  0  0  0  0  0  0  0  0  0  0
  150.7715  138.8280  155.5802 H   0  0  0  0  0  0  0  0  0  0  0  0
  151.4817  139.5764  154.1427 H   0  0  0  0  0  0  0  0  0  0  0  0
  150.7940  137.9567  154.0477 H   0  0  0  0  0  0  0  0  0  0  0  0
  149.2721  142.6582  155.5127 H   0  0  0  0  0  0  0  0  0  0  0  0
  150.7172  141.9537  154.8816 H   0  0  0  0  0  0  0  0  0  0  0  0
  151.3563  142.7799  157.0798 H   0  0  0  0  0  0  0  0  0  0  0  0
  150.5977  141.6900  159.5377 H   0  0  0  0  0  0  0  0  0  0  0  0
  152.2726  139.9166  159.9304 H   0  0  0  0  0  0  0  0  0  0  0  0
  152.9530  140.1506  158.3204 H   0  0  0  0  0  0  0  0  0  0  0  0
  151.3300  139.4986  158.5184 H   0  0  0  0  0  0  0  0  0  0  0  0
  153.3220  142.7164  158.6579 H   0  0  0  0  0  0  0  0  0  0  0  0
  152.1791  142.4269  161.4770 H   0  0  0  0  0  0  0  0  0  0  0  0
  153.6670  143.2771  161.0738 H   0  0  0  0  0  0  0  0  0  0  0  0
  153.5591  141.5509  160.8149 H   0  0  0  0  0  0  0  0  0  0  0  0
  150.9744  144.2429  159.8799 H   0  0  0  0  0  0  0  0  0  0  0  0
  151.5906  144.4348  158.2409 H   0  0  0  0  0  0  0  0  0  0  0  0
  152.5825  144.9046  159.6054 H   0  0  0  0  0  0  0  0  0  0  0  0
  1 20  1  0  0  0  0
  1 21  1  0  0  0  0
  1 22  1  0  0  0  0
  1  2  1  0  0  0  0
  2  3  1  0  0  0  0
  2 18  2  0  0  0  0
  3  4  1  0  0  0  0
  3 19  1  0  0  0  0
  4  6  2  0  0  0  0
  4  5  1  0  0  0  0
  5 23  1  0  0  0  0
  5 24  1  0  0  0  0
  5 25  1  0  0  0  0
  6 16  1  0  0  0  0
  6  7  1  0  0  0  0
  7  8  1  0  0  0  0
  7 26  1  0  0  0  0
  7 27  1  0  0  0  0
  8  9  2  0  0  0  0
  8 10  1  0  0  0  0
 10 11  1  0  0  0  0
 10 28  1  0  0  0  0
 11 12  1  0  0  0  0
 11 13  1  0  0  0  0
 11 29  1  0  0  0  0
 12 30  1  0  0  0  0
 12 31  1  0  0  0  0
 12 32  1  0  0  0  0
 13 14  1  0  0  0  0
 13 15  1  0  0  0  0
 13 33  1  0  0  0  0
 14 34  1  0  0  0  0
 14 35  1  0  0  0  0
 14 36  1  0  0  0  0
 15 37  1  0  0  0  0
 15 38  1  0  0  0  0
 15 39  1  0  0  0  0
 16 17  2  0  0  0  0
 16 18  1  0  0  0  0
M  END
> <s_m_source_file>
AV-unprocessed.smi

> <i_m_source_file_index>
1362

> <i_lp_mmshare_version>
43012

> <i_f3d_flags>
0

> <s_epik_input>
W0NIM11jMW5jKFtDSDNdKWMoYyg9TylbbkhdMSlbQ0gyXUMoPU8pW05IXVtDQEhdKFtDSDNdKVtDSF0oW0NIM10pW0NIM10=

> <s_epik_cmdline>
J2VwaWtfcHl0aG9uJywgJy1waCcsICc3LjAnLCAnLXRuJywgJzgnLCAnLW1hJywgJzIwMCcsICctbWV0YWxfYmluZGluZycsICctaW1hZScsICc8aW5maWxlLm1hZT4nLCAnLW9tYWUnLCAnPG91dGZpbGUubWFlPic=

> <r_lp_tautomer_probability>
0.156392

> <r_epik_Ionization_Penalty>
0.0140737

> <r_epik_Ionization_Penalty_Charging>
0.0139511

> <r_epik_Ionization_Penalty_Neutral>
0.000122633

> <r_epik_State_Penalty>
1.53034

> <r_epik_Charging_Adjusted_Penalty>
1.54429

> <i_epik_Tot_Q>
0

> <i_epik_Tot_abs_Q>
0

> <r_epik_Metal_State_Penalty>
1.70655

> <b_epik_Metal_Only>
0

> <s_lp_Force_Field>
OPLS_2005

> <r_lp_Energy>
10.7391

> <b_lp_Chiralities_Consistent>
1

> <s_lp_Variant>
AV-unprocessed.smi:1362-4

> <Gold.Version>
5.8.1

> <Gold.Id.Protein>
6NUR|6NUR_protein|mol2

> <Gold.PLP.Fitness>
42.2297

> <Gold.PLP.PLP>
-39.3195

> <Gold.PLP.part.hbond>
-2.0000

> <Gold.PLP.part.metal>
0.0000

> <Gold.PLP.part.buried>
-1.4862

> <Gold.PLP.part.nonpolar>
-36.1932

> <Gold.PLP.part.repulsive>
1.5463

> <Gold.PLP.ligand.clash>
0.0000

> <Gold.PLP.ligand.torsion>
0.0587

> <Gold.PLP.Chemscore.Hbond>
1.0000

> <Gold.PLP.Chemscore.CHOScore>
0.0000

> <Gold.PLP.Chemscore.Metal>
0.0000

> <Gold.Chemscore.Hbonds>
donor molecule, donor type, donor heavy atom, donor atom, acceptor molecule, acceptor atom, score
      L1  H     3    19       P1  7948  1.00

> <Gold.PLP.Chemscore.Internal.Correction>
0.0276

> <Gold.Rescore>
     Score         DG    S(hbond)    S(metal)    S(lipo)     H(rot)  DE(clash)    DE(int)     intcor
     14.54     -14.81       0.98        0.00      88.91       1.69       0.14       0.13       ----

> <Gold.Chemscore.Fitness>
14.5387

> <Gold.Chemscore.DG>
-14.8090

> <Gold.Chemscore.ZeroCoef>
-5.4800

> <Gold.Chemscore.Hbond>
0.9751

> <Gold.Chemscore.Metal>
0.0000

> <Gold.Chemscore.Lipo>
88.9128

> <Gold.Chemscore.Internal_Hbond>
0.0000

> <Gold.Chemscore.DEClash>
0.1403

> <Gold.Chemscore.DEInternal>
0.1301

> <Gold.Chemscore.Rot>
1.6916

> <Gold.Chemscore.Internal.Correction>
   9.000000E+99

> <Gold.Chemscore.Hbonds>
donor molecule, donor type, donor heavy atom, donor atom, acceptor molecule, acceptor atom, score
      L1  H     3    19       P1  7948  0.93

> <Gold.Chemscore.Hbond.Weighted>
-3.2568

> <Gold.Chemscore.Metal.Weighted>
-0.0000

> <Gold.Chemscore.Lipo.Weighted>
-10.4028

> <Gold.Chemscore.Internal_Hbond.Weighted>
0.0000

> <Gold.Chemscore.DEClash.Weighted>
0.1403

> <Gold.Chemscore.DEInternal.Weighted>
0.1301

> <Gold.Chemscore.Rot.Weighted>
4.3305

> <Gold.Chemscore.Internal.Correction.Weighted>
   9.000000E+99

> <Gold.Protein.RotatedTorsions>
[ 6907 6896 6895 6894 ] final -169.10 input  -60.11 | X-H torsion
[ 7974 7965 7964 7962 ] final  129.18 input  175.53 | X-H torsion
[ 8008 7997 7996 7995 ] final  172.20 input   59.86 | X-H torsion
[ 10167 10162 10161 10158 ] final   46.57 input  -65.29 | X-H torsion
[ 10718 10713 10712 10709 ] final  111.84 input   66.30 | X-H torsion
[ 10763 10752 10751 10750 ] final  -32.69 input  -60.55 | X-H torsion
[ 11005 11000 10999 10996 ] final   -7.06 input  -57.11 | X-H torsion

> <Gold.Protein.ActiveResidues>
 VAL166  LYS551  ARG553  GLY616  TRP617  ASP618  TYR619  PRO620  LYS621  CYS622 
 ASP623  PHE694  ASN695  SER759  ASP760  ASP761  ALA762  ILE779  LEU786  VAL792 
 PHE793  MET794  SER795  GLU796  ALA797  LYS798  CYS799  TRP800  GLU811  SER814 

> <Gold.Protein.RotatedAtoms>
  151.4861  133.3535  159.2845 H   0  0  0  0  0  0  0  0  0  0  0  0  # atno 6907 bound_to 6896
  150.8865  134.8265  159.7273 H   0  0  0  0  0  0  0  0  0  0  0  0  # atno 6908 bound_to 6896
  152.4796  134.4766  159.9704 H   0  0  0  0  0  0  0  0  0  0  0  0  # atno 6909 bound_to 6896
  145.0314  139.4042  143.5147 H   0  0  0  0  0  0  0  0  0  0  0  0  # atno 7974 bound_to 7965
  156.1197  140.1492  156.9221 H   0  0  0  0  0  0  0  0  0  0  0  0  # atno 8008 bound_to 7997
  154.4827  140.0874  156.7456 H   0  0  0  0  0  0  0  0  0  0  0  0  # atno 8009 bound_to 7997
  155.4449  140.3432  155.4296 H   0  0  0  0  0  0  0  0  0  0  0  0  # atno 8010 bound_to 7997
  140.3125  144.2803  150.6197 H   0  0  0  0  0  0  0  0  0  0  0  0  # atno 10167 bound_to 10162
  157.6424  131.0957  150.6808 H   0  0  0  0  0  0  0  0  0  0  0  0  # atno 10718 bound_to 10713
  153.8180  135.6877  153.4831 H   0  0  0  0  0  0  0  0  0  0  0  0  # atno 10763 bound_to 10752
  153.1587  135.4588  154.9739 H   0  0  0  0  0  0  0  0  0  0  0  0  # atno 10764 bound_to 10752
  154.7940  135.3312  154.7655 H   0  0  0  0  0  0  0  0  0  0  0  0  # atno 10765 bound_to 10752
  140.7087  133.8927  155.8735 H   0  0  0  0  0  0  0  0  0  0  0  0  # atno 11005 bound_to 11000
  146.3499  139.9866  142.8690 LP  0  0  0  0  0  0  0  0  0  0  0  0  # atno 17320 bound_to 7965
  145.1765  140.9746  143.4291 LP  0  0  0  0  0  0  0  0  0  0  0  0  # atno 17321 bound_to 7965
  140.5555  143.2199  151.7854 LP  0  0  0  0  0  0  0  0  0  0  0  0  # atno 17342 bound_to 10162
  139.4890  144.4419  151.9754 LP  0  0  0  0  0  0  0  0  0  0  0  0  # atno 17343 bound_to 10162
  156.7130  130.4657  149.5542 LP  0  0  0  0  0  0  0  0  0  0  0  0  # atno 17370 bound_to 10713
  156.1717  130.6441  151.0845 LP  0  0  0  0  0  0  0  0  0  0  0  0  # atno 17371 bound_to 10713
  141.0102  134.1030  157.4229 LP  0  0  0  0  0  0  0  0  0  0  0  0  # atno 17394 bound_to 11000
  139.8877  135.0092  156.6577 LP  0  0  0  0  0  0  0  0  0  0  0  0  # atno 17395 bound_to 11000

$$$$
