#       Name:                AV-unprocessed.smi:884
#       Creating user name   scv26
#       Creation time:       Fri Mar 27 01:53:26 2020


#       File generated by GOLD software.
#

@<TRIPOS>MOLECULE
AV-unprocessed.smi:884
    50    52     1
SMALL
NO_CHARGES


@<TRIPOS>ATOM
      1 ****         1.7897   1.4189   0.8981 O.2            1 S1                 0.0000
      2 ****         1.5137   0.3851   1.5082 C.2            1 S1                 0.0000
      3 ****         2.3950  -0.6219   1.6441 N.am           1 S1                 0.0000
      4 ****         3.7431  -0.6574   1.0810 C.3            1 S1                 0.0000
      5 ****         3.8406  -1.5545  -0.1683 C.3            1 S1                 0.0000
      6 ****         2.8312  -1.2189  -1.2533 C.ar           1 S1                 0.0000
      7 ****         3.0233  -0.1440  -2.1477 C.ar           1 S1                 0.0000
      8 ****         2.0380   0.1287  -3.1195 C.ar           1 S1                 0.0000
      9 ****         0.8850  -0.6811  -3.1797 C.ar           1 S1                 0.0000
     10 ****         0.7429  -1.7407  -2.2608 C.ar           1 S1                 0.0000
     11 ****         1.7048  -1.9642  -1.3387 N.pl3          1 S1                 1.0000
     12 ****         0.3071   0.1697   2.0928 N.am           1 S1                 0.0000
     13 ****        -0.1574  -1.0990   2.6740 C.3            1 S1                 0.0000
     14 ****        -1.0769  -1.7967   1.6638 C.3            1 S1                 0.0000
     15 ****        -2.5606  -0.7956   1.3401 S.3            1 S1                 0.0000
     16 ****        -1.8353   0.8496   0.9777 C.3            1 S1                 0.0000
     17 ****        -1.2218   0.8726  -0.4474 C.3            1 S1                 0.0000
     18 ****        -2.2683   0.7574  -1.5698 C.3            1 S1                 0.0000
     19 ****        -3.3388   1.8489  -1.4462 C.3            1 S1                 0.0000
     20 ****        -3.9972   1.8146  -0.0610 C.3            1 S1                 0.0000
     21 ****        -2.9471   1.9256   1.0601 C.3            1 S1                 0.0000
     22 ****        -0.7669   1.1740   2.0587 C.3            1 S1                 0.0000
     23 ****         2.1040  -1.4297   2.1756 H              1 S1                 0.0000
     24 ****         4.0854   0.3491   0.8359 H              1 S1                 0.0000
     25 ****         4.4247  -1.0249   1.8483 H              1 S1                 0.0000
     26 ****         4.8442  -1.4872  -0.5899 H              1 S1                 0.0000
     27 ****         3.7076  -2.5971   0.1243 H              1 S1                 0.0000
     28 ****         3.9105   0.4693  -2.0854 H              1 S1                 0.0000
     29 ****         2.1653   0.9495  -3.8102 H              1 S1                 0.0000
     30 ****         0.1185  -0.4883  -3.9162 H              1 S1                 0.0000
     31 ****        -0.1086  -2.4046  -2.2296 H              1 S1                 0.0000
     32 ****         0.6536  -1.7685   2.9603 H              1 S1                 0.0000
     33 ****        -0.7004  -0.9075   3.6007 H              1 S1                 0.0000
     34 ****        -0.5507  -1.9792   0.7265 H              1 S1                 0.0000
     35 ****        -1.3913  -2.7681   2.0457 H              1 S1                 0.0000
     36 ****        -0.6683   1.8024  -0.5847 H              1 S1                 0.0000
     37 ****        -0.4929   0.0734  -0.5615 H              1 S1                 0.0000
     38 ****        -1.7773   0.8332  -2.5403 H              1 S1                 0.0000
     39 ****        -2.7397  -0.2256  -1.5432 H              1 S1                 0.0000
     40 ****        -2.8857   2.8270  -1.6119 H              1 S1                 0.0000
     41 ****        -4.0945   1.7211  -2.2217 H              1 S1                 0.0000
     42 ****        -4.7145   2.6311   0.0254 H              1 S1                 0.0000
     43 ****        -4.5709   0.8942   0.0507 H              1 S1                 0.0000
     44 ****        -3.4451   1.8754   2.0293 H              1 S1                 0.0000
     45 ****        -2.4950   2.9171   1.0083 H              1 S1                 0.0000
     46 ****        -1.2380   1.2233   3.0417 H              1 S1                 0.0000
     47 ****        -0.3650   2.1757   1.8976 H              1 S1                 0.0000
     48 ****         1.5787  -2.7332  -0.6803 H              1 S1                 0.0000
     49 ****         2.6935   1.5293   0.4845 LP             1 S1                 0.0000
     50 ****         1.1100   2.1479   0.8163 LP             1 S1                 0.0000
@<TRIPOS>BOND
    1    1    2 2     
    2    2    3 am    
    3    2   12 am    
    4    3    4 1     
    5    3   23 1     
    6    4    5 1     
    7    4   24 1     
    8    4   25 1     
    9    5    6 1     
   10    5   26 1     
   11    5   27 1     
   12    6   11 ar    
   13    6    7 ar    
   14    7    8 ar    
   15    7   28 1     
   16    8    9 ar    
   17    8   29 1     
   18    9   10 ar    
   19    9   30 1     
   20   10   11 ar    
   21   10   31 1     
   22   11   48 1     
   23   12   22 1     
   24   12   13 1     
   25   13   14 1     
   26   13   32 1     
   27   13   33 1     
   28   14   15 1     
   29   14   34 1     
   30   14   35 1     
   31   15   16 1     
   32   16   21 1     
   33   16   17 1     
   34   16   22 1     
   35   17   18 1     
   36   17   36 1     
   37   17   37 1     
   38   18   19 1     
   39   18   38 1     
   40   18   39 1     
   41   19   20 1     
   42   19   40 1     
   43   19   41 1     
   44   20   21 1     
   45   20   42 1     
   46   20   43 1     
   47   21   44 1     
   48   21   45 1     
   49   22   46 1     
   50   22   47 1     
   51    1   49 1     
   52    1   50 1     
@<TRIPOS>SUBSTRUCTURE
      1 S1             1
@<TRIPOS>SET
LONE_PAIRS      STATIC     ATOMS    <user>   **** ""
2 49 50
DONOR_HYDROGENS      STATIC     ATOMS    <user>   **** ""
2 23 48
ATOM$BLUE        STATIC     ATOMS    COLORGROUP SYSTEM
2 49 50
ATOM$RED        STATIC     ATOMS    COLORGROUP SYSTEM
2 23 48
