AV-unprocessed.smi:2570|AV-procd|sdf|10107|dock8
  -GOLD-   2272014123D 1   1.00000     0.00000
 Structure written by MMmdl.
 32 33  0  0  0  0  0  0  0  0  1 V2000
  148.6756  135.3368  158.2332 C   0  0  0  0  0  0  0  0  0  0  0  0
  149.9597  135.9445  158.3612 O   0  0  0  0  0  0  0  0  0  0  0  0
  150.3438  136.8097  157.3516 C   0  0  0  0  0  0  0  0  0  0  0  0
  150.6134  136.2631  156.0383 C   0  0  0  0  0  0  0  0  0  0  0  0
  151.0023  137.0965  155.0490 C   0  0  0  0  0  0  0  0  0  0  0  0
  151.1608  138.5336  155.2701 C   0  0  0  0  0  0  0  0  0  0  0  0
  151.5322  139.3143  154.3943 O   0  0  0  0  0  0  0  0  0  0  0  0
  150.8705  138.9302  156.5442 N   0  0  0  0  0  0  0  0  0  0  0  0
  151.0137  140.3348  156.9513 C   0  0  0  0  0  0  0  0  0  0  0  0
  151.8046  140.4957  158.2710 C   0  0  1  0  0  0  0  0  0  0  0  0
  153.1032  139.9692  158.0902 O   0  0  0  0  0  0  0  0  0  0  0  0
  151.8255  141.9314  158.7866 C   0  0  0  0  0  0  0  0  0  0  0  0
  151.0758  142.9228  158.1165 C   0  0  0  0  0  0  0  0  0  0  0  0
  151.1089  144.2601  158.5557 C   0  0  0  0  0  0  0  0  0  0  0  0
  151.8926  144.6162  159.6692 C   0  0  0  0  0  0  0  0  0  0  0  0
  151.9271  145.9027  160.0901 F   0  0  0  0  0  0  0  0  0  0  0  0
  152.6425  143.6341  160.3431 C   0  0  0  0  0  0  0  0  0  0  0  0
  152.6120  142.2958  159.9051 C   0  0  0  0  0  0  0  0  0  0  0  0
  153.3530  141.3686  160.5579 F   0  0  0  0  0  0  0  0  0  0  0  0
  150.4626  138.0825  157.5603 N   0  0  0  0  0  0  0  0  0  0  0  0
  148.4962  134.6974  159.0974 H   0  0  0  0  0  0  0  0  0  0  0  0
  148.6101  134.7078  157.3437 H   0  0  0  0  0  0  0  0  0  0  0  0
  147.8761  136.0796  158.2063 H   0  0  0  0  0  0  0  0  0  0  0  0
  150.5028  135.2031  155.8641 H   0  0  0  0  0  0  0  0  0  0  0  0
  151.2050  136.6924  154.0682 H   0  0  0  0  0  0  0  0  0  0  0  0
  151.4891  140.9111  156.1555 H   0  0  0  0  0  0  0  0  0  0  0  0
  150.0211  140.7750  157.0661 H   0  0  0  0  0  0  0  0  0  0  0  0
  151.3316  139.8717  159.0302 H   0  0  0  0  0  0  0  0  0  0  0  0
  153.1883  139.1916  158.6206 H   0  0  0  0  0  0  0  0  0  0  0  0
  150.4783  142.6631  157.2547 H   0  0  0  0  0  0  0  0  0  0  0  0
  150.5353  145.0131  158.0358 H   0  0  0  0  0  0  0  0  0  0  0  0
  153.2467  143.9082  161.1953 H   0  0  0  0  0  0  0  0  0  0  0  0
  1  2  1  0  0  0  0
  1 21  1  0  0  0  0
  1 22  1  0  0  0  0
  1 23  1  0  0  0  0
  2  3  1  0  0  0  0
  3 20  2  0  0  0  0
  3  4  1  0  0  0  0
  4  5  2  0  0  0  0
  4 24  1  0  0  0  0
  5  6  1  0  0  0  0
  5 25  1  0  0  0  0
  6  7  2  0  0  0  0
  6  8  1  0  0  0  0
  8  9  1  0  0  0  0
  8 20  1  0  0  0  0
  9 10  1  0  0  0  0
  9 26  1  0  0  0  0
  9 27  1  0  0  0  0
 10 11  1  0  0  0  0
 10 12  1  0  0  0  0
 10 28  1  0  0  0  0
 11 29  1  0  0  0  0
 12 18  1  0  0  0  0
 12 13  2  0  0  0  0
 13 14  1  0  0  0  0
 13 30  1  0  0  0  0
 14 15  2  0  0  0  0
 14 31  1  0  0  0  0
 15 16  1  0  0  0  0
 15 17  1  0  0  0  0
 17 18  2  0  0  0  0
 17 32  1  0  0  0  0
 18 19  1  0  0  0  0
M  END
> <s_m_source_file>
AV-unprocessed.smi

> <i_m_source_file_index>
2570

> <i_lp_mmshare_version>
43012

> <i_f3d_flags>
0

> <s_epik_input>
W0NIM11PYzFbY0hdW2NIXWMoPU8pbihuMSlbQ0gyXVtDQEhdKFtPSF0pYzJbY0hdW2NIXWMoRilbY0hdYzJG

> <s_epik_cmdline>
J2VwaWtfcHl0aG9uJywgJy1waCcsICc3LjAnLCAnLXRuJywgJzgnLCAnLW1hJywgJzIwMCcsICctbWV0YWxfYmluZGluZycsICctaW1hZScsICc8aW5maWxlLm1hZT4nLCAnLW9tYWUnLCAnPG91dGZpbGUubWFlPic=

> <r_lp_tautomer_probability>
1

> <r_epik_Ionization_Penalty>
6.40224e-06

> <r_epik_Ionization_Penalty_Charging>
4.38647e-06

> <r_epik_Ionization_Penalty_Neutral>
2.01577e-06

> <r_epik_State_Penalty>
-0

> <r_epik_Charging_Adjusted_Penalty>
4.38647e-06

> <i_epik_Tot_Q>
0

> <i_epik_Tot_abs_Q>
0

> <r_epik_Metal_State_Penalty>
-0

> <b_epik_Metal_Only>
0

> <s_lp_Force_Field>
OPLS_2005

> <r_lp_Energy>
26.7666

> <b_lp_Chiralities_Consistent>
1

> <s_lp_Variant>
AV-unprocessed.smi:2570-2

> <Gold.Version>
5.8.1

> <Gold.Id.Protein>
6NUR|6NUR_protein|mol2

> <Gold.PLP.Fitness>
48.5370

> <Gold.PLP.PLP>
-40.1442

> <Gold.PLP.part.hbond>
-3.0000

> <Gold.PLP.part.metal>
0.0000

> <Gold.PLP.part.buried>
-3.6099

> <Gold.PLP.part.nonpolar>
-33.2891

> <Gold.PLP.part.repulsive>
0.1219

> <Gold.PLP.ligand.clash>
0.0000

> <Gold.PLP.ligand.torsion>
0.3175

> <Gold.PLP.Chemscore.Hbond>
3.0000

> <Gold.PLP.Chemscore.CHOScore>
0.0000

> <Gold.PLP.Chemscore.Metal>
0.0000

> <Gold.Chemscore.Hbonds>
donor molecule, donor type, donor heavy atom, donor atom, acceptor molecule, acceptor atom, score
      P1  H  6896  6908       L1     2  1.00
      P1  H  7989  7998       L1     7  1.00
      P1  H  7997  8009       L1    11  1.00

> <Gold.PLP.Chemscore.Internal.Correction>
0.0278

> <Gold.Rescore>
     Score         DG    S(hbond)    S(metal)    S(lipo)     H(rot)  DE(clash)    DE(int)     intcor
     16.34     -18.58       2.66        0.00      89.60       2.45       0.54       1.70       ----

> <Gold.Chemscore.Fitness>
16.3374

> <Gold.Chemscore.DG>
-18.5796

> <Gold.Chemscore.ZeroCoef>
-5.4800

> <Gold.Chemscore.Hbond>
2.6635

> <Gold.Chemscore.Metal>
0.0000

> <Gold.Chemscore.Lipo>
89.6048

> <Gold.Chemscore.Internal_Hbond>
0.0000

> <Gold.Chemscore.DEClash>
0.5437

> <Gold.Chemscore.DEInternal>
1.6985

> <Gold.Chemscore.Rot>
2.4533

> <Gold.Chemscore.Internal.Correction>
   9.000000E+99

> <Gold.Chemscore.Hbonds>
donor molecule, donor type, donor heavy atom, donor atom, acceptor molecule, acceptor atom, score
      P1  H  6896  6908       L1     2  0.33
      P1  H  7989  7998       L1     7  0.99
      P1  H  7997  8009       L1    11  0.48

> <Gold.Chemscore.Hbond.Weighted>
-8.8962

> <Gold.Chemscore.Metal.Weighted>
-0.0000

> <Gold.Chemscore.Lipo.Weighted>
-10.4838

> <Gold.Chemscore.Internal_Hbond.Weighted>
0.0000

> <Gold.Chemscore.DEClash.Weighted>
0.5437

> <Gold.Chemscore.DEInternal.Weighted>
1.6985

> <Gold.Chemscore.Rot.Weighted>
6.2804

> <Gold.Chemscore.Internal.Correction.Weighted>
   9.000000E+99

> <Gold.Protein.RotatedTorsions>
[ 6907 6896 6895 6894 ] final -173.67 input  -60.11 | X-H torsion
[ 7974 7965 7964 7962 ] final   -9.11 input  175.53 | X-H torsion
[ 8008 7997 7996 7995 ] final  148.83 input   59.86 | X-H torsion
[ 10167 10162 10161 10158 ] final  -96.02 input  -65.29 | X-H torsion
[ 10718 10713 10712 10709 ] final   40.65 input   66.30 | X-H torsion
[ 10763 10752 10751 10750 ] final   65.22 input  -60.55 | X-H torsion
[ 11005 11000 10999 10996 ] final  -84.68 input  -57.11 | X-H torsion

> <Gold.Protein.ActiveResidues>
 VAL166  LYS551  ARG553  GLY616  TRP617  ASP618  TYR619  PRO620  LYS621  CYS622 
 ASP623  PHE694  ASN695  SER759  ASP760  ASP761  ALA762  ILE779  LEU786  VAL792 
 PHE793  MET794  SER795  GLU796  ALA797  LYS798  CYS799  TRP800  GLU811  SER814 

> <Gold.Protein.RotatedAtoms>
  151.5600  133.3404  159.2969 H   0  0  0  0  0  0  0  0  0  0  0  0  # atno 6907 bound_to 6896
  150.8428  134.7729  159.6957 H   0  0  0  0  0  0  0  0  0  0  0  0  # atno 6908 bound_to 6896
  152.4492  134.5437  159.9898 H   0  0  0  0  0  0  0  0  0  0  0  0  # atno 6909 bound_to 6896
  146.2261  140.2567  142.8350 H   0  0  0  0  0  0  0  0  0  0  0  0  # atno 7974 bound_to 7965
  156.2777  140.2118  156.5762 H   0  0  0  0  0  0  0  0  0  0  0  0  # atno 8008 bound_to 7997
  154.7096  140.0513  157.0560 H   0  0  0  0  0  0  0  0  0  0  0  0  # atno 8009 bound_to 7997
  155.0624  140.3168  155.4659 H   0  0  0  0  0  0  0  0  0  0  0  0  # atno 8010 bound_to 7997
  140.2982  143.3179  152.0276 H   0  0  0  0  0  0  0  0  0  0  0  0  # atno 10167 bound_to 10162
  157.3846  130.7772  149.7220 H   0  0  0  0  0  0  0  0  0  0  0  0  # atno 10718 bound_to 10713
  153.0087  135.5364  154.6633 H   0  0  0  0  0  0  0  0  0  0  0  0  # atno 10763 bound_to 10752
  154.5836  135.2852  155.0709 H   0  0  0  0  0  0  0  0  0  0  0  0  # atno 10764 bound_to 10752
  154.1829  135.6513  153.5091 H   0  0  0  0  0  0  0  0  0  0  0  0  # atno 10765 bound_to 10752
  141.1648  133.7359  156.8903 H   0  0  0  0  0  0  0  0  0  0  0  0  # atno 11005 bound_to 11000
  144.9370  140.8038  143.5654 LP  0  0  0  0  0  0  0  0  0  0  0  0  # atno 17320 bound_to 7965
  145.2515  139.2029  143.4940 LP  0  0  0  0  0  0  0  0  0  0  0  0  # atno 17321 bound_to 7965
  139.4921  144.6475  151.6746 LP  0  0  0  0  0  0  0  0  0  0  0  0  # atno 17342 bound_to 10162
  140.5674  144.0166  150.6199 LP  0  0  0  0  0  0  0  0  0  0  0  0  # atno 17343 bound_to 10162
  155.9783  130.4052  150.3654 LP  0  0  0  0  0  0  0  0  0  0  0  0  # atno 17370 bound_to 10713
  157.1762  131.0381  151.2771 LP  0  0  0  0  0  0  0  0  0  0  0  0  # atno 17371 bound_to 10713
  140.1653  134.9137  157.2766 LP  0  0  0  0  0  0  0  0  0  0  0  0  # atno 17394 bound_to 11000
  140.2564  134.3622  155.7422 LP  0  0  0  0  0  0  0  0  0  0  0  0  # atno 17395 bound_to 11000

$$$$
