AV-unprocessed.smi:1383|AV-procd|sdf|5624|dock5
  -GOLD-   22720 5233D 1   1.00000     0.00000
 Structure written by MMmdl.
 30 30  0  0  0  0  0  0  0  0  2 V2000
  151.8103  144.6288  159.0138 C   0  0  0  0  0  0  0  0  0  0  0  0
  151.8429  143.4677  158.0076 C   0  0  0  0  0  0  0  0  0  0  0  0
  151.7413  142.0665  158.6515 C   0  0  2  0  0  0  0  0  0  0  0  0
  152.8231  141.8695  159.7274 C   0  0  0  0  0  0  0  0  0  0  0  0
  151.8330  140.9424  157.6016 C   0  0  0  0  0  0  0  0  0  0  0  0
  152.7137  140.0869  157.7099 O   0  0  0  0  0  0  0  0  0  0  0  0
  150.8787  141.0558  156.6461 N   0  5  0  0  0  0  0  0  0  0  0  0
  150.6183  140.0127  155.8434 C   0  0  0  0  0  0  0  0  0  0  0  0
  151.2362  138.8324  155.9608 N   0  0  0  0  0  0  0  0  0  0  0  0
  150.8252  137.8875  155.0157 C   0  0  0  0  0  0  0  0  0  0  0  0
  151.4265  136.5116  155.0204 C   0  0  0  0  0  0  0  0  0  0  0  0
  150.4221  135.4835  155.5470 C   0  0  0  0  0  0  0  0  0  0  0  0
  149.3847  135.1818  154.7608 N   0  0  0  0  0  0  0  0  0  0  0  0
  150.5869  134.9576  156.6460 O   0  0  0  0  0  0  0  0  0  0  0  0
  149.8674  138.3676  154.1596 C   0  0  0  0  0  0  0  0  0  0  0  0
  149.4628  140.0238  154.5095 S   0  0  0  0  0  0  0  0  0  0  0  0
  151.9445  145.5837  158.5056 H   0  0  0  0  0  0  0  0  0  0  0  0
  152.6063  144.5301  159.7523 H   0  0  0  0  0  0  0  0  0  0  0  0
  150.8611  144.6727  159.5485 H   0  0  0  0  0  0  0  0  0  0  0  0
  151.0450  143.6023  157.2758 H   0  0  0  0  0  0  0  0  0  0  0  0
  152.7747  143.5304  157.4448 H   0  0  0  0  0  0  0  0  0  0  0  0
  150.7767  142.0133  159.1616 H   0  0  0  0  0  0  0  0  0  0  0  0
  152.7584  140.8779  160.1771 H   0  0  0  0  0  0  0  0  0  0  0  0
  152.7116  142.5986  160.5304 H   0  0  0  0  0  0  0  0  0  0  0  0
  153.8258  141.9838  159.3138 H   0  0  0  0  0  0  0  0  0  0  0  0
  151.7412  136.2196  154.0177 H   0  0  0  0  0  0  0  0  0  0  0  0
  152.3229  136.4908  155.6414 H   0  0  0  0  0  0  0  0  0  0  0  0
  148.7105  134.4931  155.0637 H   0  0  0  0  0  0  0  0  0  0  0  0
  149.2890  135.6273  153.8601 H   0  0  0  0  0  0  0  0  0  0  0  0
  149.3816  137.8522  153.3450 H   0  0  0  0  0  0  0  0  0  0  0  0
  1  2  1  0  0  0  0
  1 17  1  0  0  0  0
  1 18  1  0  0  0  0
  1 19  1  0  0  0  0
  2  3  1  0  0  0  0
  2 20  1  0  0  0  0
  2 21  1  0  0  0  0
  3  4  1  0  0  0  0
  3  5  1  0  0  0  0
  3 22  1  0  0  0  0
  4 23  1  0  0  0  0
  4 24  1  0  0  0  0
  4 25  1  0  0  0  0
  5  6  2  0  0  0  0
  5  7  1  0  0  0  0
  7  8  1  0  0  0  0
  8 16  1  0  0  0  0
  8  9  2  0  0  0  0
  9 10  1  0  0  0  0
 10 11  1  0  0  0  0
 10 15  2  0  0  0  0
 11 12  1  0  0  0  0
 11 26  1  0  0  0  0
 11 27  1  0  0  0  0
 12 13  1  0  0  0  0
 12 14  2  0  0  0  0
 13 28  1  0  0  0  0
 13 29  1  0  0  0  0
 15 16  1  0  0  0  0
 15 30  1  0  0  0  0
M  CHG  1   7  -1
M  END
> <s_m_source_file>
AV-unprocessed.smi

> <i_m_source_file_index>
1383

> <i_lp_mmshare_version>
43012

> <i_f3d_flags>
0

> <s_epik_input>
W0NIM11bQ0gyXVtDQEhdKFtDSDNdKUMoPU8pW05IXWMxbmMoW2NIXXMxKVtDSDJdQyg9TylbTkgyXQ==

> <s_epik_cmdline>
J2VwaWtfcHl0aG9uJywgJy1waCcsICc3LjAnLCAnLXRuJywgJzgnLCAnLW1hJywgJzIwMCcsICctbWV0YWxfYmluZGluZycsICctaW1hZScsICc8aW5maWxlLm1hZT4nLCAnLW9tYWUnLCAnPG91dGZpbGUubWFlPic=

> <r_lp_tautomer_probability>
1

> <r_epik_Ionization_Penalty>
5.3563

> <r_epik_Ionization_Penalty_Charging>
4.90463

> <r_epik_Ionization_Penalty_Neutral>
0.451677

> <r_epik_State_Penalty>
4.90447

> <r_epik_Charging_Adjusted_Penalty>
9.8091

> <i_epik_Tot_Q>
-1

> <i_epik_Tot_abs_Q>
1

> <r_epik_Metal_State_Penalty>
1.05508

> <b_epik_Metal_Only>
1

> <s_lp_Force_Field>
OPLS_2005

> <r_lp_Energy>
-0.655456

> <b_lp_Chiralities_Consistent>
1

> <s_lp_Variant>
AV-unprocessed.smi:1383-3

> <Gold.Version>
5.8.1

> <Gold.Id.Protein>
6NUR|6NUR_protein|mol2

> <Gold.PLP.Fitness>
40.9486

> <Gold.PLP.PLP>
-31.0905

> <Gold.PLP.part.hbond>
-2.0000

> <Gold.PLP.part.metal>
0.0000

> <Gold.PLP.part.buried>
-1.3595

> <Gold.PLP.part.nonpolar>
-27.5535

> <Gold.PLP.part.repulsive>
0.0670

> <Gold.PLP.ligand.clash>
0.0000

> <Gold.PLP.ligand.torsion>
0.3267

> <Gold.PLP.Chemscore.Hbond>
1.9920

> <Gold.PLP.Chemscore.CHOScore>
1.4716

> <Gold.PLP.Chemscore.Metal>
0.0000

> <Gold.Chemscore.Hbonds>
donor molecule, donor type, donor heavy atom, donor atom, acceptor molecule, acceptor atom, score
      L1  H    13    29       P1  7948  0.86
      P1  H  7997  8009       L1     6  1.00
      L1  C    15    30       P1  7948  1.00

> <Gold.PLP.Chemscore.Internal.Correction>
0.1206

> <Gold.Rescore>
     Score         DG    S(hbond)    S(metal)    S(lipo)     H(rot)  DE(clash)    DE(int)     intcor
     12.76     -15.21       1.96        0.00      74.27       2.15       0.06       2.39       ----

> <Gold.Chemscore.Fitness>
12.7627

> <Gold.Chemscore.DG>
-15.2119

> <Gold.Chemscore.ZeroCoef>
-5.4800

> <Gold.Chemscore.Hbond>
1.9626

> <Gold.Chemscore.Metal>
0.0000

> <Gold.Chemscore.Lipo>
74.2667

> <Gold.Chemscore.Internal_Hbond>
0.0000

> <Gold.Chemscore.DEClash>
0.0625

> <Gold.Chemscore.DEInternal>
2.3868

> <Gold.Chemscore.Rot>
2.1532

> <Gold.Chemscore.Internal.Correction>
   9.000000E+99

> <Gold.Chemscore.Hbonds>
donor molecule, donor type, donor heavy atom, donor atom, acceptor molecule, acceptor atom, score
      L1  H    13    29       P1  7948  0.51
      P1  H  7997  8009       L1     6  0.97

> <Gold.Chemscore.Hbond.Weighted>
-6.5550

> <Gold.Chemscore.Metal.Weighted>
-0.0000

> <Gold.Chemscore.Lipo.Weighted>
-8.6892

> <Gold.Chemscore.Internal_Hbond.Weighted>
0.0000

> <Gold.Chemscore.DEClash.Weighted>
0.0625

> <Gold.Chemscore.DEInternal.Weighted>
2.3868

> <Gold.Chemscore.Rot.Weighted>
5.5123

> <Gold.Chemscore.Internal.Correction.Weighted>
   9.000000E+99

> <Gold.Protein.RotatedTorsions>
[ 6907 6896 6895 6894 ] final  141.24 input  -60.11 | X-H torsion
[ 7974 7965 7964 7962 ] final  122.49 input  175.53 | X-H torsion
[ 8008 7997 7996 7995 ] final  169.93 input   59.86 | X-H torsion
[ 10167 10162 10161 10158 ] final  -71.97 input  -65.29 | X-H torsion
[ 10718 10713 10712 10709 ] final  -25.28 input   66.30 | X-H torsion
[ 10763 10752 10751 10750 ] final   -6.42 input  -60.55 | X-H torsion
[ 11005 11000 10999 10996 ] final -121.49 input  -57.11 | X-H torsion

> <Gold.Protein.ActiveResidues>
 VAL166  LYS551  ARG553  GLY616  TRP617  ASP618  TYR619  PRO620  LYS621  CYS622 
 ASP623  PHE694  ASN695  SER759  ASP760  ASP761  ALA762  ILE779  LEU786  VAL792 
 PHE793  MET794  SER795  GLU796  ALA797  LYS798  CYS799  TRP800  GLU811  SER814 

> <Gold.Protein.RotatedAtoms>
  152.2334  133.5076  159.5228 H   0  0  0  0  0  0  0  0  0  0  0  0  # atno 6907 bound_to 6896
  150.7043  134.1186  159.4035 H   0  0  0  0  0  0  0  0  0  0  0  0  # atno 6908 bound_to 6896
  151.9107  135.0340  160.0565 H   0  0  0  0  0  0  0  0  0  0  0  0  # atno 6909 bound_to 6896
  145.1069  139.3479  143.4783 H   0  0  0  0  0  0  0  0  0  0  0  0  # atno 7974 bound_to 7965
  156.1412  140.1551  156.8917 H   0  0  0  0  0  0  0  0  0  0  0  0  # atno 8008 bound_to 7997
  154.4989  140.0830  156.7795 H   0  0  0  0  0  0  0  0  0  0  0  0  # atno 8009 bound_to 7997
  155.4074  140.3417  155.4263 H   0  0  0  0  0  0  0  0  0  0  0  0  # atno 8010 bound_to 7997
  140.5230  143.2329  151.7397 H   0  0  0  0  0  0  0  0  0  0  0  0  # atno 10167 bound_to 10162
  156.4665  130.4515  149.6896 H   0  0  0  0  0  0  0  0  0  0  0  0  # atno 10718 bound_to 10713
  153.4121  135.7008  153.6352 H   0  0  0  0  0  0  0  0  0  0  0  0  # atno 10763 bound_to 10752
  153.4841  135.3687  155.2458 H   0  0  0  0  0  0  0  0  0  0  0  0  # atno 10764 bound_to 10752
  154.8717  135.4073  154.3475 H   0  0  0  0  0  0  0  0  0  0  0  0  # atno 10765 bound_to 10752
  141.0066  134.0326  157.3469 H   0  0  0  0  0  0  0  0  0  0  0  0  # atno 11005 bound_to 11000
  146.3528  140.0971  142.8610 LP  0  0  0  0  0  0  0  0  0  0  0  0  # atno 17320 bound_to 7965
  145.0891  140.9272  143.4779 LP  0  0  0  0  0  0  0  0  0  0  0  0  # atno 17321 bound_to 7965
  139.4929  144.4227  151.9960 LP  0  0  0  0  0  0  0  0  0  0  0  0  # atno 17342 bound_to 10162
  140.3324  144.3300  150.5984 LP  0  0  0  0  0  0  0  0  0  0  0  0  # atno 17343 bound_to 10162
  156.3662  130.7507  151.2485 LP  0  0  0  0  0  0  0  0  0  0  0  0  # atno 17370 bound_to 10713
  157.7494  131.0336  150.4279 LP  0  0  0  0  0  0  0  0  0  0  0  0  # atno 17371 bound_to 10713
  139.9067  135.0181  156.7514 LP  0  0  0  0  0  0  0  0  0  0  0  0  # atno 17394 bound_to 11000
  140.6803  133.9480  155.7906 LP  0  0  0  0  0  0  0  0  0  0  0  0  # atno 17395 bound_to 11000

$$$$
