AV-unprocessed.smi:2721|AV-procd|sdf|10501|dock9
  -GOLD-   2272014543D 1   1.00000     0.00000
 Structure written by MMmdl.
 29 30  0  0  0  0  0  0  0  0  2 V2000
  151.9129  138.1606  154.6186 C   0  0  0  0  0  0  0  0  0  0  0  0
  150.7466  139.0137  154.5392 N   0  0  0  0  0  0  0  0  0  0  0  0
  149.4825  138.7038  154.0884 C   0  0  0  0  0  0  0  0  0  0  0  0
  148.7115  139.8301  154.1998 C   0  0  0  0  0  0  0  0  0  0  0  0
  147.2596  140.0852  153.8405 C   0  0  2  0  0  0  0  0  0  0  0  0
  146.4587  140.4654  154.9622 O   0  0  0  0  0  0  0  0  0  0  0  0
  146.1232  139.4245  155.8783 C   0  0  0  0  0  0  0  0  0  0  0  0
  145.3676  138.2955  155.1611 C   0  0  0  0  0  0  0  0  0  0  0  0
  146.1778  137.7665  153.9737 C   0  0  0  0  0  0  0  0  0  0  0  0
  146.5723  138.9359  153.0601 C   0  0  2  0  0  0  0  0  0  0  0  0
  147.3843  138.4815  151.9158 N   0  3  0  0  0  0  0  0  0  0  0  0
  149.6217  140.7854  154.7388 C   0  0  0  0  0  0  0  0  0  0  0  0
  150.8343  140.2975  154.9373 N   0  0  0  0  0  0  0  0  0  0  0  0
  147.2325  140.9563  153.1845 H   0  0  0  0  0  0  0  0  0  0  0  0
  145.6484  139.3361  152.6401 H   0  0  0  0  0  0  0  0  0  0  0  0
  151.6550  137.1447  154.3179 H   0  0  0  0  0  0  0  0  0  0  0  0
  152.2893  138.1421  155.6421 H   0  0  0  0  0  0  0  0  0  0  0  0
  152.6921  138.5396  153.9568 H   0  0  0  0  0  0  0  0  0  0  0  0
  149.2479  137.7130  153.7296 H   0  0  0  0  0  0  0  0  0  0  0  0
  147.0131  139.0443  156.3770 H   0  0  0  0  0  0  0  0  0  0  0  0
  145.4944  139.8475  156.6618 H   0  0  0  0  0  0  0  0  0  0  0  0
  145.1484  137.4862  155.8584 H   0  0  0  0  0  0  0  0  0  0  0  0
  144.4065  138.6714  154.8079 H   0  0  0  0  0  0  0  0  0  0  0  0
  147.0604  137.2368  154.3301 H   0  0  0  0  0  0  0  0  0  0  0  0
  145.5863  137.0361  153.4203 H   0  0  0  0  0  0  0  0  0  0  0  0
  148.1237  139.1474  151.7418 H   0  0  0  0  0  0  0  0  0  0  0  0
  146.7997  138.4094  151.0953 H   0  0  0  0  0  0  0  0  0  0  0  0
  149.4367  141.8205  154.9858 H   0  0  0  0  0  0  0  0  0  0  0  0
  147.7856  137.5780  152.1229 H   0  0  0  0  0  0  0  0  0  0  0  0
  1  2  1  0  0  0  0
  1 16  1  0  0  0  0
  1 17  1  0  0  0  0
  1 18  1  0  0  0  0
  2 13  1  0  0  0  0
  2  3  1  0  0  0  0
  3  4  2  0  0  0  0
  3 19  1  0  0  0  0
  4  5  1  0  0  0  0
  4 12  1  0  0  0  0
  5 14  1  0  0  0  0
  5 10  1  0  0  0  0
  5  6  1  0  0  0  0
  6  7  1  0  0  0  0
  7  8  1  0  0  0  0
  7 20  1  0  0  0  0
  7 21  1  0  0  0  0
  8  9  1  0  0  0  0
  8 22  1  0  0  0  0
  8 23  1  0  0  0  0
  9 10  1  0  0  0  0
  9 24  1  0  0  0  0
  9 25  1  0  0  0  0
 10 15  1  0  0  0  0
 10 11  1  0  0  0  0
 11 26  1  0  0  0  0
 11 27  1  0  0  0  0
 11 29  1  0  0  0  0
 12 13  2  0  0  0  0
 12 28  1  0  0  0  0
M  CHG  1  11   1
M  END
> <s_m_source_file>
AV-unprocessed.smi

> <i_m_source_file_index>
2721

> <i_lp_mmshare_version>
43012

> <i_f3d_flags>
0

> <s_epik_input>
W0NIM11uMVtjSF1jKFtjSF1uMSlbQ0BIXTJPW0NIMl1bQ0gyXVtDSDJdW0NAQEhdMltOSDJd

> <s_epik_cmdline>
J2VwaWtfcHl0aG9uJywgJy1waCcsICc3LjAnLCAnLXRuJywgJzgnLCAnLW1hJywgJzIwMCcsICctbWV0YWxfYmluZGluZycsICctaW1hZScsICc8aW5maWxlLm1hZT4nLCAnLW9tYWUnLCAnPG91dGZpbGUubWFlPic=

> <r_lp_tautomer_probability>
1

> <r_epik_Ionization_Penalty>
0.0061467

> <r_epik_Ionization_Penalty_Charging>
0.00611941

> <r_epik_Ionization_Penalty_Neutral>
2.72888e-05

> <r_epik_State_Penalty>
0.00451057

> <r_epik_Charging_Adjusted_Penalty>
0.01063

> <i_epik_Tot_Q>
1

> <i_epik_Tot_abs_Q>
1

> <r_epik_Metal_State_Penalty>
-0

> <b_epik_Metal_Only>
0

> <s_lp_Force_Field>
OPLS_2005

> <r_lp_Energy>
14.6487

> <b_lp_Chiralities_Consistent>
1

> <s_lp_Variant>
AV-unprocessed.smi:2721-2

> <Gold.Version>
5.8.1

> <Gold.Id.Protein>
6NUR|6NUR_protein|mol2

> <Gold.PLP.Fitness>
36.2409

> <Gold.PLP.PLP>
-21.7869

> <Gold.PLP.part.hbond>
-3.0000

> <Gold.PLP.part.metal>
0.0000

> <Gold.PLP.part.buried>
-2.3835

> <Gold.PLP.part.nonpolar>
-17.5055

> <Gold.PLP.part.repulsive>
0.2247

> <Gold.PLP.ligand.clash>
0.0000

> <Gold.PLP.ligand.torsion>
0.0783

> <Gold.PLP.Chemscore.Hbond>
3.8500

> <Gold.PLP.Chemscore.CHOScore>
1.0000

> <Gold.PLP.Chemscore.Metal>
0.0000

> <Gold.Chemscore.Hbonds>
donor molecule, donor type, donor heavy atom, donor atom, acceptor molecule, acceptor atom, score
      L1  H    11    26       P1  7957  1.00
      L1  H    11    29       P1  7948  2.00
      P1  H  7989  7998       L1    13  0.80
      L1  C     3    19       P1  7948  1.00

> <Gold.PLP.Chemscore.Internal.Correction>
0.0607

> <Gold.Rescore>
     Score         DG    S(hbond)    S(metal)    S(lipo)     H(rot)  DE(clash)    DE(int)     intcor
     13.73     -14.70       1.98        0.00      44.27       1.00       0.01       0.97       ----

> <Gold.Chemscore.Fitness>
13.7261

> <Gold.Chemscore.DG>
-14.7040

> <Gold.Chemscore.ZeroCoef>
-5.4800

> <Gold.Chemscore.Hbond>
1.9774

> <Gold.Chemscore.Metal>
0.0000

> <Gold.Chemscore.Lipo>
44.2677

> <Gold.Chemscore.Internal_Hbond>
0.0000

> <Gold.Chemscore.DEClash>
0.0126

> <Gold.Chemscore.DEInternal>
0.9653

> <Gold.Chemscore.Rot>
1.0000

> <Gold.Chemscore.Internal.Correction>
   9.000000E+99

> <Gold.Chemscore.Hbonds>
donor molecule, donor type, donor heavy atom, donor atom, acceptor molecule, acceptor atom, score
      L1  H    11    26       P1  7957  0.97
      L1  H    11    29       P1  7948  0.96
      P1  H  7989  7998       L1    13  0.03

> <Gold.Chemscore.Hbond.Weighted>
-6.6047

> <Gold.Chemscore.Metal.Weighted>
-0.0000

> <Gold.Chemscore.Lipo.Weighted>
-5.1793

> <Gold.Chemscore.Internal_Hbond.Weighted>
0.0000

> <Gold.Chemscore.DEClash.Weighted>
0.0126

> <Gold.Chemscore.DEInternal.Weighted>
0.9653

> <Gold.Chemscore.Rot.Weighted>
2.5600

> <Gold.Chemscore.Internal.Correction.Weighted>
   9.000000E+99

> <Gold.Protein.RotatedTorsions>
[ 6907 6896 6895 6894 ] final  -56.87 input  -60.11 | X-H torsion
[ 7974 7965 7964 7962 ] final   74.52 input  175.53 | X-H torsion
[ 8008 7997 7996 7995 ] final -119.99 input   59.86 | X-H torsion
[ 10167 10162 10161 10158 ] final  -67.57 input  -65.29 | X-H torsion
[ 10718 10713 10712 10709 ] final   92.71 input   66.30 | X-H torsion
[ 10763 10752 10751 10750 ] final  103.86 input  -60.55 | X-H torsion
[ 11005 11000 10999 10996 ] final  -16.16 input  -57.11 | X-H torsion

> <Gold.Protein.ActiveResidues>
 VAL166  LYS551  ARG553  GLY616  TRP617  ASP618  TYR619  PRO620  LYS621  CYS622 
 ASP623  PHE694  ASN695  SER759  ASP760  ASP761  ALA762  ILE779  LEU786  VAL792 
 PHE793  MET794  SER795  GLU796  ALA797  LYS798  CYS799  TRP800  GLU811  SER814 

> <Gold.Protein.RotatedAtoms>
  150.8132  134.7299  159.6706 H   0  0  0  0  0  0  0  0  0  0  0  0  # atno 6907 bound_to 6896
  152.4251  134.5879  159.9976 H   0  0  0  0  0  0  0  0  0  0  0  0  # atno 6908 bound_to 6896
  151.6083  133.3312  159.3098 H   0  0  0  0  0  0  0  0  0  0  0  0  # atno 6909 bound_to 6896
  145.7272  139.2670  143.1562 H   0  0  0  0  0  0  0  0  0  0  0  0  # atno 7974 bound_to 7965
  155.1247  140.0399  157.2759 H   0  0  0  0  0  0  0  0  0  0  0  0  # atno 8008 bound_to 7997
  154.6587  140.2586  155.7106 H   0  0  0  0  0  0  0  0  0  0  0  0  # atno 8009 bound_to 7997
  156.2610  140.2821  156.1051 H   0  0  0  0  0  0  0  0  0  0  0  0  # atno 8010 bound_to 7997
  140.5573  143.2312  151.6796 H   0  0  0  0  0  0  0  0  0  0  0  0  # atno 10167 bound_to 10162
  157.6957  131.0453  150.3923 H   0  0  0  0  0  0  0  0  0  0  0  0  # atno 10718 bound_to 10713
  153.3583  135.3962  155.1699 H   0  0  0  0  0  0  0  0  0  0  0  0  # atno 10763 bound_to 10752
  154.8675  135.3673  154.5132 H   0  0  0  0  0  0  0  0  0  0  0  0  # atno 10764 bound_to 10752
  153.5590  135.7081  153.5616 H   0  0  0  0  0  0  0  0  0  0  0  0  # atno 10765 bound_to 10752
  140.8039  133.8192  155.9497 H   0  0  0  0  0  0  0  0  0  0  0  0  # atno 11005 bound_to 11000
  146.0571  140.8009  142.9753 LP  0  0  0  0  0  0  0  0  0  0  0  0  # atno 17320 bound_to 7965
  144.6902  140.3140  143.7243 LP  0  0  0  0  0  0  0  0  0  0  0  0  # atno 17321 bound_to 7965
  139.5054  144.3720  152.0461 LP  0  0  0  0  0  0  0  0  0  0  0  0  # atno 17342 bound_to 10162
  140.2842  144.3825  150.6109 LP  0  0  0  0  0  0  0  0  0  0  0  0  # atno 17343 bound_to 10162
  156.4325  130.3975  149.6751 LP  0  0  0  0  0  0  0  0  0  0  0  0  # atno 17370 bound_to 10713
  156.3963  130.7652  151.2657 LP  0  0  0  0  0  0  0  0  0  0  0  0  # atno 17371 bound_to 10713
  140.9266  134.2074  157.4892 LP  0  0  0  0  0  0  0  0  0  0  0  0  # atno 17394 bound_to 11000
  139.8719  134.9815  156.5119 LP  0  0  0  0  0  0  0  0  0  0  0  0  # atno 17395 bound_to 11000

$$$$
