AV-unprocessed.smi:1005|AV-procd|sdf|4363|dock3
  -GOLD-   22720 2263D 1   1.00000     0.00000
 Structure written by MMmdl.
 56 58  0  0  0  0  0  0  0  0  2 V2000
  153.5194  142.3310  162.0586 C   0  0  0  0  0  0  0  0  0  0  0  0
  152.9218  142.1325  160.6767 C   0  0  0  0  0  0  0  0  0  0  0  0
  153.2099  140.9447  159.9672 C   0  0  0  0  0  0  0  0  0  0  0  0
  152.6717  140.7208  158.6808 C   0  0  0  0  0  0  0  0  0  0  0  0
  152.8179  139.6473  157.8189 N   0  0  0  0  0  0  0  0  0  0  0  0
  152.0723  140.0293  156.7860 C   0  0  0  0  0  0  0  0  0  0  0  0
  151.4586  141.2248  156.8774 N   0  0  0  0  0  0  0  0  0  0  0  0
  150.5945  141.8475  155.8908 C   0  0  0  0  0  0  0  0  0  0  0  0
  149.2390  141.1287  155.7550 C   0  0  1  0  0  0  0  0  0  0  0  0
  148.3531  141.9464  155.0148 O   0  0  0  0  0  0  0  0  0  0  0  0
  149.3934  139.7732  155.0352 C   0  0  0  0  0  0  0  0  0  0  0  0
  148.1688  138.9846  154.8794 N   0  0  0  0  0  0  0  0  0  0  0  0
  147.5743  139.2117  153.5666 C   0  0  0  0  0  0  0  0  0  0  0  0
  146.2871  138.3957  153.3661 C   0  0  0  0  0  0  0  0  0  0  0  0
  146.5655  137.0148  153.5714 O   0  0  0  0  0  0  0  0  0  0  0  0
  147.0872  136.7399  154.8692 C   0  0  1  0  0  0  0  0  0  0  0  0
  147.3370  135.2249  154.9757 C   0  0  0  0  0  0  0  0  0  0  0  0
  148.4614  134.7681  154.1191 N   0  3  0  0  0  0  0  0  0  0  0  0
  148.2469  133.4273  153.5271 C   0  0  0  0  0  0  0  0  0  0  0  0
  149.7623  134.8496  154.8190 C   0  0  0  0  0  0  0  0  0  0  0  0
  148.3857  137.5503  155.0604 C   0  0  0  0  0  0  0  0  0  0  0  0
  151.8291  141.7249  158.1205 C   0  0  0  0  0  0  0  0  0  0  0  0
  151.5372  142.9119  158.8152 C   0  0  0  0  0  0  0  0  0  0  0  0
  152.0852  143.1207  160.0982 C   0  0  0  0  0  0  0  0  0  0  0  0
  151.7675  144.4076  160.8390 C   0  0  0  0  0  0  0  0  0  0  0  0
  154.1091  141.4667  162.3659 H   0  0  0  0  0  0  0  0  0  0  0  0
  152.7321  142.4769  162.7984 H   0  0  0  0  0  0  0  0  0  0  0  0
  154.1724  143.2037  162.0705 H   0  0  0  0  0  0  0  0  0  0  0  0
  153.8483  140.1925  160.4066 H   0  0  0  0  0  0  0  0  0  0  0  0
  151.9659  139.4047  155.9112 H   0  0  0  0  0  0  0  0  0  0  0  0
  150.4499  142.8945  156.1617 H   0  0  0  0  0  0  0  0  0  0  0  0
  151.1193  141.8445  154.9347 H   0  0  0  0  0  0  0  0  0  0  0  0
  148.8259  140.9881  156.7531 H   0  0  0  0  0  0  0  0  0  0  0  0
  148.6639  142.8379  155.0517 H   0  0  0  0  0  0  0  0  0  0  0  0
  149.8209  139.9638  154.0495 H   0  0  0  0  0  0  0  0  0  0  0  0
  150.1351  139.1741  155.5659 H   0  0  0  0  0  0  0  0  0  0  0  0
  147.3511  140.2715  153.4391 H   0  0  0  0  0  0  0  0  0  0  0  0
  148.2902  138.9485  152.7862 H   0  0  0  0  0  0  0  0  0  0  0  0
  145.5073  138.7249  154.0548 H   0  0  0  0  0  0  0  0  0  0  0  0
  145.9031  138.5360  152.3557 H   0  0  0  0  0  0  0  0  0  0  0  0
  146.3657  137.0571  155.6225 H   0  0  0  0  0  0  0  0  0  0  0  0
  147.5565  134.9883  156.0180 H   0  0  0  0  0  0  0  0  0  0  0  0
  146.4348  134.6679  154.7179 H   0  0  0  0  0  0  0  0  0  0  0  0
  148.1479  132.6676  154.3034 H   0  0  0  0  0  0  0  0  0  0  0  0
  149.0884  133.1523  152.8902 H   0  0  0  0  0  0  0  0  0  0  0  0
  147.3533  133.4003  152.9053 H   0  0  0  0  0  0  0  0  0  0  0  0
  149.7829  134.1851  155.6839 H   0  0  0  0  0  0  0  0  0  0  0  0
  149.9545  135.8666  155.1630 H   0  0  0  0  0  0  0  0  0  0  0  0
  150.5784  134.5696  154.1522 H   0  0  0  0  0  0  0  0  0  0  0  0
  149.1431  137.1998  154.3574 H   0  0  0  0  0  0  0  0  0  0  0  0
  148.7693  137.3499  156.0599 H   0  0  0  0  0  0  0  0  0  0  0  0
  150.8972  143.6549  158.3631 H   0  0  0  0  0  0  0  0  0  0  0  0
  151.1126  145.0528  160.2528 H   0  0  0  0  0  0  0  0  0  0  0  0
  152.6821  144.9620  161.0498 H   0  0  0  0  0  0  0  0  0  0  0  0
  151.2669  144.1920  161.7831 H   0  0  0  0  0  0  0  0  0  0  0  0
  148.5178  135.4225  153.3512 H   0  0  0  0  0  0  0  0  0  0  0  0
  1  2  1  0  0  0  0
  1 26  1  0  0  0  0
  1 27  1  0  0  0  0
  1 28  1  0  0  0  0
  2 24  1  0  0  0  0
  2  3  2  0  0  0  0
  3  4  1  0  0  0  0
  3 29  1  0  0  0  0
  4 22  2  0  0  0  0
  4  5  1  0  0  0  0
  5  6  2  0  0  0  0
  6  7  1  0  0  0  0
  6 30  1  0  0  0  0
  7  8  1  0  0  0  0
  7 22  1  0  0  0  0
  8  9  1  0  0  0  0
  8 31  1  0  0  0  0
  8 32  1  0  0  0  0
  9 10  1  0  0  0  0
  9 11  1  0  0  0  0
  9 33  1  0  0  0  0
 10 34  1  0  0  0  0
 11 12  1  0  0  0  0
 11 35  1  0  0  0  0
 11 36  1  0  0  0  0
 12 21  1  0  0  0  0
 12 13  1  0  0  0  0
 13 14  1  0  0  0  0
 13 37  1  0  0  0  0
 13 38  1  0  0  0  0
 14 15  1  0  0  0  0
 14 39  1  0  0  0  0
 14 40  1  0  0  0  0
 15 16  1  0  0  0  0
 16 17  1  0  0  0  0
 16 21  1  0  0  0  0
 16 41  1  0  0  0  0
 17 18  1  0  0  0  0
 17 42  1  0  0  0  0
 17 43  1  0  0  0  0
 18 19  1  0  0  0  0
 18 20  1  0  0  0  0
 18 56  1  0  0  0  0
 19 44  1  0  0  0  0
 19 45  1  0  0  0  0
 19 46  1  0  0  0  0
 20 47  1  0  0  0  0
 20 48  1  0  0  0  0
 20 49  1  0  0  0  0
 21 50  1  0  0  0  0
 21 51  1  0  0  0  0
 22 23  1  0  0  0  0
 23 24  2  0  0  0  0
 23 52  1  0  0  0  0
 24 25  1  0  0  0  0
 25 53  1  0  0  0  0
 25 54  1  0  0  0  0
 25 55  1  0  0  0  0
M  CHG  1  18   1
M  END
> <s_m_source_file>
AV-unprocessed.smi

> <i_m_source_file_index>
1005

> <i_lp_mmshare_version>
43012

> <i_f3d_flags>
0

> <s_epik_input>
W0NIM11jKFtjSF0xKWMoW0NIM10pW2NIXWMoYzEyKW4oW2NIXW4yKVtDSDJdW0NASF0oW09IXSlbQ0gyXU4zW0NIMl1bQ0gyXU9bQ0BIXShbQ0gyXTMpW0NIMl1OKFtDSDNdKVtDSDNd

> <s_epik_cmdline>
J2VwaWtfcHl0aG9uJywgJy1waCcsICc3LjAnLCAnLXRuJywgJzgnLCAnLW1hJywgJzIwMCcsICctbWV0YWxfYmluZGluZycsICctaW1hZScsICc8aW5maWxlLm1hZT4nLCAnLW9tYWUnLCAnPG91dGZpbGUubWFlPic=

> <r_epik_Ionization_Penalty>
0.226781

> <r_epik_Ionization_Penalty_Charging>
0.00915946

> <r_epik_Ionization_Penalty_Neutral>
0.217622

> <r_epik_State_Penalty>
0.173018

> <r_epik_Charging_Adjusted_Penalty>
0.182178

> <i_epik_Tot_Q>
1

> <i_epik_Tot_abs_Q>
1

> <r_epik_Metal_State_Penalty>
0.0905268

> <b_epik_Metal_Only>
0

> <s_lp_Force_Field>
OPLS_2005

> <r_lp_Energy>
37.2431

> <b_lp_Chiralities_Consistent>
1

> <s_lp_Variant>
AV-unprocessed.smi:1005-2

> <Gold.Version>
5.8.1

> <Gold.Id.Protein>
6NUR|6NUR_protein|mol2

> <Gold.PLP.Fitness>
54.2296

> <Gold.PLP.PLP>
-44.4415

> <Gold.PLP.part.hbond>
-3.0000

> <Gold.PLP.part.metal>
0.0000

> <Gold.PLP.part.buried>
-5.6677

> <Gold.PLP.part.nonpolar>
-36.3353

> <Gold.PLP.part.repulsive>
1.0190

> <Gold.PLP.ligand.clash>
0.0000

> <Gold.PLP.ligand.torsion>
1.1479

> <Gold.PLP.Chemscore.Hbond>
3.9913

> <Gold.PLP.Chemscore.CHOScore>
0.0000

> <Gold.PLP.Chemscore.Metal>
0.0000

> <Gold.Chemscore.Hbonds>
donor molecule, donor type, donor heavy atom, donor atom, acceptor molecule, acceptor atom, score
      L1  H    10    34       P1  8028  1.00
      L1  H    18    56       P1  7948  2.00
      P1  H  7997  8010       L1     5  1.00

> <Gold.PLP.Chemscore.Internal.Correction>
0.1101

> <Gold.Rescore>
     Score         DG    S(hbond)    S(metal)    S(lipo)     H(rot)  DE(clash)    DE(int)     intcor
     19.74     -21.10       2.14        0.00     125.23       2.41       0.16       1.21       ----

> <Gold.Chemscore.Fitness>
19.7356

> <Gold.Chemscore.DG>
-21.0975

> <Gold.Chemscore.ZeroCoef>
-5.4800

> <Gold.Chemscore.Hbond>
2.1389

> <Gold.Chemscore.Metal>
0.0000

> <Gold.Chemscore.Lipo>
125.2322

> <Gold.Chemscore.Internal_Hbond>
0.0000

> <Gold.Chemscore.DEClash>
0.1563

> <Gold.Chemscore.DEInternal>
1.2056

> <Gold.Chemscore.Rot>
2.4136

> <Gold.Chemscore.Internal.Correction>
   9.000000E+99

> <Gold.Chemscore.Hbonds>
donor molecule, donor type, donor heavy atom, donor atom, acceptor molecule, acceptor atom, score
      L1  H    10    34       P1  8028  0.97
      L1  H    18    56       P1  7948  0.97
      P1  H  7997  8010       L1     5  0.06

> <Gold.Chemscore.Hbond.Weighted>
-7.1441

> <Gold.Chemscore.Metal.Weighted>
-0.0000

> <Gold.Chemscore.Lipo.Weighted>
-14.6522

> <Gold.Chemscore.Internal_Hbond.Weighted>
0.0000

> <Gold.Chemscore.DEClash.Weighted>
0.1563

> <Gold.Chemscore.DEInternal.Weighted>
1.2056

> <Gold.Chemscore.Rot.Weighted>
6.1788

> <Gold.Chemscore.Internal.Correction.Weighted>
   9.000000E+99

> <Gold.Protein.RotatedTorsions>
[ 6907 6896 6895 6894 ] final -123.82 input  -60.11 | X-H torsion
[ 7974 7965 7964 7962 ] final -131.25 input  175.53 | X-H torsion
[ 8008 7997 7996 7995 ] final   27.31 input   59.86 | X-H torsion
[ 10167 10162 10161 10158 ] final  101.64 input  -65.29 | X-H torsion
[ 10718 10713 10712 10709 ] final -156.35 input   66.30 | X-H torsion
[ 10763 10752 10751 10750 ] final  -43.87 input  -60.55 | X-H torsion
[ 11005 11000 10999 10996 ] final   12.91 input  -57.11 | X-H torsion

> <Gold.Protein.ActiveResidues>
 VAL166  LYS551  ARG553  GLY616  TRP617  ASP618  TYR619  PRO620  LYS621  CYS622 
 ASP623  PHE694  ASN695  SER759  ASP760  ASP761  ALA762  ILE779  LEU786  VAL792 
 PHE793  MET794  SER795  GLU796  ALA797  LYS798  CYS799  TRP800  GLU811  SER814 

> <Gold.Protein.RotatedAtoms>
  150.8708  133.7508  159.2961 H   0  0  0  0  0  0  0  0  0  0  0  0  # atno 6907 bound_to 6896
  151.5121  135.1064  159.9866 H   0  0  0  0  0  0  0  0  0  0  0  0  # atno 6908 bound_to 6896
  152.4693  133.7949  159.6978 H   0  0  0  0  0  0  0  0  0  0  0  0  # atno 6909 bound_to 6896
  144.9397  140.7224  143.4854 H   0  0  0  0  0  0  0  0  0  0  0  0  # atno 7974 bound_to 7965
  155.0409  140.3169  155.4725 H   0  0  0  0  0  0  0  0  0  0  0  0  # atno 8008 bound_to 7997
  156.2855  140.2163  156.5475 H   0  0  0  0  0  0  0  0  0  0  0  0  # atno 8009 bound_to 7997
  154.7291  140.0483  157.0698 H   0  0  0  0  0  0  0  0  0  0  0  0  # atno 8010 bound_to 7997
  139.7420  144.7008  151.0561 H   0  0  0  0  0  0  0  0  0  0  0  0  # atno 10167 bound_to 10162
  156.5253  130.8496  151.2697 H   0  0  0  0  0  0  0  0  0  0  0  0  # atno 10718 bound_to 10713
  154.0026  135.6691  153.4760 H   0  0  0  0  0  0  0  0  0  0  0  0  # atno 10763 bound_to 10752
  153.0655  135.5003  154.8187 H   0  0  0  0  0  0  0  0  0  0  0  0  # atno 10764 bound_to 10752
  154.7043  135.3085  154.9257 H   0  0  0  0  0  0  0  0  0  0  0  0  # atno 10765 bound_to 10752
  140.4867  134.0881  155.7762 H   0  0  0  0  0  0  0  0  0  0  0  0  # atno 11005 bound_to 11000
  145.3011  139.1850  143.4689 LP  0  0  0  0  0  0  0  0  0  0  0  0  # atno 17320 bound_to 7965
  146.3281  140.3002  142.8620 LP  0  0  0  0  0  0  0  0  0  0  0  0  # atno 17321 bound_to 7965
  140.7787  143.4913  150.9889 LP  0  0  0  0  0  0  0  0  0  0  0  0  # atno 17342 bound_to 10162
  139.8601  143.7325  152.3174 LP  0  0  0  0  0  0  0  0  0  0  0  0  # atno 17343 bound_to 10162
  157.7430  130.9903  150.2562 LP  0  0  0  0  0  0  0  0  0  0  0  0  # atno 17370 bound_to 10713
  156.3111  130.3772  149.7661 LP  0  0  0  0  0  0  0  0  0  0  0  0  # atno 17371 bound_to 10713
  141.1504  133.8978  157.2111 LP  0  0  0  0  0  0  0  0  0  0  0  0  # atno 17394 bound_to 11000
  139.9794  135.0103  156.9711 LP  0  0  0  0  0  0  0  0  0  0  0  0  # atno 17395 bound_to 11000

$$$$
