AV-unprocessed.smi:1623|AV-procd|sdf|6502|dock4
  -GOLD-   22720 7163D 1   1.00000     0.00000
 Structure written by MMmdl.
 42 43  0  0  0  0  0  0  0  0  1 V2000
  146.7107  137.0079  162.3922 C   0  0  0  0  0  0  0  0  0  0  0  0
  147.5384  136.0229  161.6115 C   0  0  0  0  0  0  0  0  0  0  0  0
  148.3571  136.5145  160.7401 N   0  0  0  0  0  0  0  0  0  0  0  0
  149.1629  135.6989  159.9718 N   0  0  0  0  0  0  0  0  0  0  0  0
  150.0136  136.4255  159.0230 C   0  0  0  0  0  0  0  0  0  0  0  0
  150.9214  137.4533  159.7356 C   0  0  1  0  0  0  0  0  0  0  0  0
  152.0517  136.7803  160.2525 O   0  0  0  0  0  0  0  0  0  0  0  0
  151.4320  138.5336  158.7723 C   0  0  0  0  0  0  0  0  0  0  0  0
  151.4347  139.7778  159.4566 O   0  0  0  0  0  0  0  0  0  0  0  0
  152.6628  140.4850  159.3704 C   0  0  0  0  0  0  0  0  0  0  0  0
  152.4913  141.9929  159.4836 C   0  0  0  0  0  0  0  0  0  0  0  0
  151.8991  142.7035  158.4174 C   0  0  0  0  0  0  0  0  0  0  0  0
  151.7286  144.0986  158.4987 C   0  0  0  0  0  0  0  0  0  0  0  0
  152.1532  144.7933  159.6464 C   0  0  0  0  0  0  0  0  0  0  0  0
  152.7496  144.0918  160.7112 C   0  0  0  0  0  0  0  0  0  0  0  0
  152.9219  142.6950  160.6352 C   0  0  0  0  0  0  0  0  0  0  0  0
  153.6619  141.8729  161.9641 Cl  0  0  0  0  0  0  0  0  0  0  0  0
  149.1866  134.3372  160.0437 C   0  0  0  0  0  0  0  0  0  0  0  0
  149.9200  133.6481  159.3329 O   0  0  0  0  0  0  0  0  0  0  0  0
  148.2570  133.7867  161.0326 C   0  0  0  0  0  0  0  0  0  0  0  0
  148.2474  132.3633  161.1387 C   0  0  0  0  0  0  0  0  0  0  0  0
  148.2517  131.2103  161.2424 N   0  0  0  0  0  0  0  0  0  0  0  0
  147.4573  134.5768  161.7922 C   0  0  0  0  0  0  0  0  0  0  0  0
  146.4728  134.0549  162.8299 C   0  0  0  0  0  0  0  0  0  0  0  0
  145.6467  136.8367  162.2272 H   0  0  0  0  0  0  0  0  0  0  0  0
  146.9261  138.0383  162.1046 H   0  0  0  0  0  0  0  0  0  0  0  0
  146.9073  136.9174  163.4608 H   0  0  0  0  0  0  0  0  0  0  0  0
  150.6083  135.7369  158.4192 H   0  0  0  0  0  0  0  0  0  0  0  0
  149.3706  136.9316  158.3007 H   0  0  0  0  0  0  0  0  0  0  0  0
  150.4000  137.9378  160.5623 H   0  0  0  0  0  0  0  0  0  0  0  0
  152.6443  136.6006  159.5385 H   0  0  0  0  0  0  0  0  0  0  0  0
  152.4494  138.3079  158.4487 H   0  0  0  0  0  0  0  0  0  0  0  0
  150.8042  138.5673  157.8804 H   0  0  0  0  0  0  0  0  0  0  0  0
  153.3025  140.1539  160.1889 H   0  0  0  0  0  0  0  0  0  0  0  0
  153.1846  140.2192  158.4498 H   0  0  0  0  0  0  0  0  0  0  0  0
  151.5687  142.1794  157.5324 H   0  0  0  0  0  0  0  0  0  0  0  0
  151.2725  144.6354  157.6801 H   0  0  0  0  0  0  0  0  0  0  0  0
  152.0230  145.8634  159.7097 H   0  0  0  0  0  0  0  0  0  0  0  0
  153.0763  144.6287  161.5896 H   0  0  0  0  0  0  0  0  0  0  0  0
  146.4780  132.9672  162.8934 H   0  0  0  0  0  0  0  0  0  0  0  0
  145.4563  134.3625  162.5822 H   0  0  0  0  0  0  0  0  0  0  0  0
  146.7186  134.4416  163.8193 H   0  0  0  0  0  0  0  0  0  0  0  0
  1  2  1  0  0  0  0
  1 25  1  0  0  0  0
  1 26  1  0  0  0  0
  1 27  1  0  0  0  0
  2 23  1  0  0  0  0
  2  3  2  0  0  0  0
  3  4  1  0  0  0  0
  4  5  1  0  0  0  0
  4 18  1  0  0  0  0
  5  6  1  0  0  0  0
  5 28  1  0  0  0  0
  5 29  1  0  0  0  0
  6  7  1  0  0  0  0
  6  8  1  0  0  0  0
  6 30  1  0  0  0  0
  7 31  1  0  0  0  0
  8  9  1  0  0  0  0
  8 32  1  0  0  0  0
  8 33  1  0  0  0  0
  9 10  1  0  0  0  0
 10 11  1  0  0  0  0
 10 34  1  0  0  0  0
 10 35  1  0  0  0  0
 11 16  1  0  0  0  0
 11 12  2  0  0  0  0
 12 13  1  0  0  0  0
 12 36  1  0  0  0  0
 13 14  2  0  0  0  0
 13 37  1  0  0  0  0
 14 15  1  0  0  0  0
 14 38  1  0  0  0  0
 15 16  2  0  0  0  0
 15 39  1  0  0  0  0
 16 17  1  0  0  0  0
 18 19  2  0  0  0  0
 18 20  1  0  0  0  0
 20 21  1  0  0  0  0
 20 23  2  0  0  0  0
 21 22  3  0  0  0  0
 23 24  1  0  0  0  0
 24 40  1  0  0  0  0
 24 41  1  0  0  0  0
 24 42  1  0  0  0  0
M  END
> <s_m_source_file>
AV-unprocessed.smi

> <i_m_source_file_index>
1623

> <i_lp_mmshare_version>
43012

> <i_f3d_flags>
0

> <s_epik_input>
TiNDYyhjMVtDSDNdKWMoPU8pbihuYzFbQ0gzXSlbQ0gyXVtDQEhdKFtPSF0pW0NIMl1PW0NIMl1jMltjSF1bY0hdW2NIXVtjSF1jMkNs

> <s_epik_cmdline>
J2VwaWtfcHl0aG9uJywgJy1waCcsICc3LjAnLCAnLXRuJywgJzgnLCAnLW1hJywgJzIwMCcsICctbWV0YWxfYmluZGluZycsICctaW1hZScsICc8aW5maWxlLm1hZT4nLCAnLW9tYWUnLCAnPG91dGZpbGUubWFlPic=

> <r_lp_tautomer_probability>
1

> <r_epik_Ionization_Penalty>
6.50533e-08

> <r_epik_Ionization_Penalty_Charging>
2.19172e-10

> <r_epik_Ionization_Penalty_Neutral>
6.48342e-08

> <r_epik_State_Penalty>
-0

> <r_epik_Charging_Adjusted_Penalty>
2.19172e-10

> <i_epik_Tot_Q>
0

> <i_epik_Tot_abs_Q>
0

> <r_epik_Metal_State_Penalty>
-0

> <b_epik_Metal_Only>
0

> <s_lp_Force_Field>
OPLS_2005

> <r_lp_Energy>
29.8059

> <b_lp_Chiralities_Consistent>
1

> <s_lp_Variant>
AV-unprocessed.smi:1623-2

> <Gold.Version>
5.8.1

> <Gold.Id.Protein>
6NUR|6NUR_protein|mol2

> <Gold.PLP.Fitness>
55.3456

> <Gold.PLP.PLP>
-50.3127

> <Gold.PLP.part.hbond>
-3.6549

> <Gold.PLP.part.metal>
0.0000

> <Gold.PLP.part.buried>
-2.5676

> <Gold.PLP.part.nonpolar>
-44.8178

> <Gold.PLP.part.repulsive>
0.0000

> <Gold.PLP.ligand.clash>
0.0000

> <Gold.PLP.ligand.torsion>
1.3902

> <Gold.PLP.Chemscore.Hbond>
2.5331

> <Gold.PLP.Chemscore.CHOScore>
0.0000

> <Gold.PLP.Chemscore.Metal>
0.0000

> <Gold.Chemscore.Hbonds>
donor molecule, donor type, donor heavy atom, donor atom, acceptor molecule, acceptor atom, score
      P1  H  6896  6907       L1     7  0.15
      P1  H  6931  6943       L1     3  0.54

> <Gold.PLP.Chemscore.Internal.Correction>
0.2139

> <Gold.Rescore>
     Score         DG    S(hbond)    S(metal)    S(lipo)     H(rot)  DE(clash)    DE(int)     intcor
     17.96     -19.18       1.58        0.00     126.08       2.48       0.01       1.21       ----

> <Gold.Chemscore.Fitness>
17.9566

> <Gold.Chemscore.DG>
-19.1810

> <Gold.Chemscore.ZeroCoef>
-5.4800

> <Gold.Chemscore.Hbond>
1.5844

> <Gold.Chemscore.Metal>
0.0000

> <Gold.Chemscore.Lipo>
126.0845

> <Gold.Chemscore.Internal_Hbond>
0.0000

> <Gold.Chemscore.DEClash>
0.0126

> <Gold.Chemscore.DEInternal>
1.2118

> <Gold.Chemscore.Rot>
2.4777

> <Gold.Chemscore.Internal.Correction>
   9.000000E+99

> <Gold.Chemscore.Hbonds>
donor molecule, donor type, donor heavy atom, donor atom, acceptor molecule, acceptor atom, score
      P1  H  6931  6943       L1     3  0.11

> <Gold.Chemscore.Hbond.Weighted>
-5.2919

> <Gold.Chemscore.Metal.Weighted>
-0.0000

> <Gold.Chemscore.Lipo.Weighted>
-14.7519

> <Gold.Chemscore.Internal_Hbond.Weighted>
0.0000

> <Gold.Chemscore.DEClash.Weighted>
0.0126

> <Gold.Chemscore.DEInternal.Weighted>
1.2118

> <Gold.Chemscore.Rot.Weighted>
6.3428

> <Gold.Chemscore.Internal.Correction.Weighted>
   9.000000E+99

> <Gold.Protein.RotatedTorsions>
[ 6907 6896 6895 6894 ] final    1.09 input  -60.11 | X-H torsion
[ 7974 7965 7964 7962 ] final  179.17 input  175.53 | X-H torsion
[ 8008 7997 7996 7995 ] final -171.79 input   59.86 | X-H torsion
[ 10167 10162 10161 10158 ] final  -27.25 input  -65.29 | X-H torsion
[ 10718 10713 10712 10709 ] final  141.04 input   66.30 | X-H torsion
[ 10763 10752 10751 10750 ] final -154.52 input  -60.55 | X-H torsion
[ 11005 11000 10999 10996 ] final  167.72 input  -57.11 | X-H torsion

> <Gold.Protein.ActiveResidues>
 VAL166  LYS551  ARG553  GLY616  TRP617  ASP618  TYR619  PRO620  LYS621  CYS622 
 ASP623  PHE694  ASN695  SER759  ASP760  ASP761  ALA762  ILE779  LEU786  VAL792 
 PHE793  MET794  SER795  GLU796  ALA797  LYS798  CYS799  TRP800  GLU811  SER814 

> <Gold.Protein.RotatedAtoms>
  151.5870  135.1055  160.0029 H   0  0  0  0  0  0  0  0  0  0  0  0  # atno 6907 bound_to 6896
  152.4326  133.7299  159.6592 H   0  0  0  0  0  0  0  0  0  0  0  0  # atno 6908 bound_to 6896
  150.8220  133.8166  159.3158 H   0  0  0  0  0  0  0  0  0  0  0  0  # atno 6909 bound_to 6896
  144.7148  140.0507  143.6435 H   0  0  0  0  0  0  0  0  0  0  0  0  # atno 7974 bound_to 7965
  155.9362  140.1100  157.1093 H   0  0  0  0  0  0  0  0  0  0  0  0  # atno 8008 bound_to 7997
  154.4080  140.1228  156.4933 H   0  0  0  0  0  0  0  0  0  0  0  0  # atno 8009 bound_to 7997
  155.7019  140.3472  155.4939 H   0  0  0  0  0  0  0  0  0  0  0  0  # atno 8010 bound_to 7997
  140.7278  143.4109  151.1108 H   0  0  0  0  0  0  0  0  0  0  0  0  # atno 10167 bound_to 10162
  157.3965  131.1011  151.0594 H   0  0  0  0  0  0  0  0  0  0  0  0  # atno 10718 bound_to 10713
  154.7853  135.3188  154.7901 H   0  0  0  0  0  0  0  0  0  0  0  0  # atno 10763 bound_to 10752
  153.8602  135.6854  153.4788 H   0  0  0  0  0  0  0  0  0  0  0  0  # atno 10764 bound_to 10752
  153.1502  135.4702  154.9564 H   0  0  0  0  0  0  0  0  0  0  0  0  # atno 10765 bound_to 10752
  140.2797  134.7760  157.3748 H   0  0  0  0  0  0  0  0  0  0  0  0  # atno 11005 bound_to 11000
  145.9946  139.3042  143.0964 LP  0  0  0  0  0  0  0  0  0  0  0  0  # atno 17320 bound_to 7965
  145.8863  140.9331  143.0575 LP  0  0  0  0  0  0  0  0  0  0  0  0  # atno 17321 bound_to 7965
  139.7742  143.8450  152.3126 LP  0  0  0  0  0  0  0  0  0  0  0  0  # atno 17342 bound_to 10162
  139.8379  144.7224  150.9368 LP  0  0  0  0  0  0  0  0  0  0  0  0  # atno 17343 bound_to 10162
  157.1609  130.6225  149.5610 LP  0  0  0  0  0  0  0  0  0  0  0  0  # atno 17370 bound_to 10713
  155.9812  130.4817  150.6813 LP  0  0  0  0  0  0  0  0  0  0  0  0  # atno 17371 bound_to 10713
  140.1295  134.5114  155.8117 LP  0  0  0  0  0  0  0  0  0  0  0  0  # atno 17394 bound_to 11000
  141.2164  133.6784  156.7012 LP  0  0  0  0  0  0  0  0  0  0  0  0  # atno 17395 bound_to 11000

$$$$
