AV-unprocessed.smi:284|AV-procd|sdf|2158|dock4
  -GOLD-   2262021503D 1   1.00000     0.00000
 Structure written by MMmdl.
 60 62  0  0  0  0  0  0  0  0  1 V2000
  147.7523  129.4872  152.7173 C   0  0  0  0  0  0  0  0  0  0  0  0
  147.8040  130.9509  153.1260 C   0  0  0  0  0  0  0  0  0  0  0  0
  146.8588  131.8390  152.7404 C   0  0  0  0  0  0  0  0  0  0  0  0
  146.8771  133.1748  153.0949 N   0  0  0  0  0  0  0  0  0  0  0  0
  145.7960  134.1253  152.6387 C   0  0  1  0  0  0  0  0  0  0  0  0
  145.9340  134.4313  151.1514 C   0  0  0  0  0  0  0  0  0  0  0  0
  144.4917  134.7116  150.7930 C   0  0  1  0  0  0  0  0  0  0  0  0
  144.2683  134.5881  149.4027 O   0  0  0  0  0  0  0  0  0  0  0  0
  143.7237  133.7045  151.6689 C   0  0  1  0  0  0  0  0  0  0  0  0
  143.4982  132.3089  151.0504 C   0  0  0  0  0  0  0  0  0  0  0  0
  142.8224  132.4102  149.8141 O   0  0  0  0  0  0  0  0  0  0  0  0
  144.5431  133.5345  152.8285 O   0  0  0  0  0  0  0  0  0  0  0  0
  147.9436  133.6783  153.8655 C   0  0  0  0  0  0  0  0  0  0  0  0
  147.9971  134.8733  154.1661 O   0  0  0  0  0  0  0  0  0  0  0  0
  148.9493  132.7778  154.2826 N   0  0  0  0  0  0  0  0  0  0  0  0
  150.0573  133.2973  155.1152 C   0  0  0  0  0  0  0  0  0  0  0  0
  149.7055  133.4076  156.6071 C   0  0  0  0  0  0  0  0  0  0  0  0
  150.3879  132.8303  157.4547 O   0  0  0  0  0  0  0  0  0  0  0  0
  148.6477  134.1907  156.8857 N   0  0  0  0  0  0  0  0  0  0  0  0
  148.0552  134.4667  158.1474 C   0  0  0  0  0  0  0  0  0  0  0  0
  148.2282  133.5116  159.1676 C   0  0  0  0  0  0  0  0  0  0  0  0
  147.6932  133.7268  160.4522 C   0  0  0  0  0  0  0  0  0  0  0  0
  146.9786  134.9128  160.7517 C   0  0  0  0  0  0  0  0  0  0  0  0
  146.3848  135.1894  162.1461 C   0  0  0  0  0  0  0  0  0  0  0  0
  147.5195  135.2261  163.1908 C   0  0  0  0  0  0  0  0  0  0  0  0
  145.3689  134.1141  162.5940 C   0  0  0  0  0  0  0  0  0  0  0  0
  145.6527  136.5479  162.1407 C   0  0  0  0  0  0  0  0  0  0  0  0
  146.8232  135.8736  159.7246 C   0  0  0  0  0  0  0  0  0  0  0  0
  147.3562  135.6603  158.4391 C   0  0  0  0  0  0  0  0  0  0  0  0
  148.9243  131.3992  153.9570 C   0  0  0  0  0  0  0  0  0  0  0  0
  149.8068  130.6412  154.3640 O   0  0  0  0  0  0  0  0  0  0  0  0
  146.8684  129.2636  152.1191 H   0  0  0  0  0  0  0  0  0  0  0  0
  147.7286  128.8449  153.5985 H   0  0  0  0  0  0  0  0  0  0  0  0
  148.6303  129.2258  152.1257 H   0  0  0  0  0  0  0  0  0  0  0  0
  146.0534  131.4787  152.1187 H   0  0  0  0  0  0  0  0  0  0  0  0
  145.8485  135.0121  153.2728 H   0  0  0  0  0  0  0  0  0  0  0  0
  146.6098  135.2693  150.9774 H   0  0  0  0  0  0  0  0  0  0  0  0
  146.3066  133.5499  150.6264 H   0  0  0  0  0  0  0  0  0  0  0  0
  144.2360  135.7260  151.1032 H   0  0  0  0  0  0  0  0  0  0  0  0
  144.9985  134.9772  148.9455 H   0  0  0  0  0  0  0  0  0  0  0  0
  142.7654  134.1211  151.9824 H   0  0  0  0  0  0  0  0  0  0  0  0
  144.4369  131.7697  150.9213 H   0  0  0  0  0  0  0  0  0  0  0  0
  142.8733  131.7081  151.7119 H   0  0  0  0  0  0  0  0  0  0  0  0
  142.2397  133.1535  149.8506 H   0  0  0  0  0  0  0  0  0  0  0  0
  150.9528  132.6814  155.0217 H   0  0  0  0  0  0  0  0  0  0  0  0
  150.3750  134.2775  154.7552 H   0  0  0  0  0  0  0  0  0  0  0  0
  148.2485  134.6872  156.1023 H   0  0  0  0  0  0  0  0  0  0  0  0
  148.7728  132.6002  158.9678 H   0  0  0  0  0  0  0  0  0  0  0  0
  147.8517  132.9588  161.1929 H   0  0  0  0  0  0  0  0  0  0  0  0
  147.1299  135.4041  164.1937 H   0  0  0  0  0  0  0  0  0  0  0  0
  148.2418  136.0161  162.9846 H   0  0  0  0  0  0  0  0  0  0  0  0
  148.0643  134.2816  163.2144 H   0  0  0  0  0  0  0  0  0  0  0  0
  145.8269  133.1262  162.6578 H   0  0  0  0  0  0  0  0  0  0  0  0
  144.5208  134.0520  161.9110 H   0  0  0  0  0  0  0  0  0  0  0  0
  144.9657  134.3399  163.5819 H   0  0  0  0  0  0  0  0  0  0  0  0
  145.2019  136.7594  163.1109 H   0  0  0  0  0  0  0  0  0  0  0  0
  144.8532  136.5616  161.3991 H   0  0  0  0  0  0  0  0  0  0  0  0
  146.3235  137.3769  161.9152 H   0  0  0  0  0  0  0  0  0  0  0  0
  146.2955  136.7960  159.9158 H   0  0  0  0  0  0  0  0  0  0  0  0
  147.2299  136.4344  157.6980 H   0  0  0  0  0  0  0  0  0  0  0  0
  1  2  1  0  0  0  0
  1 32  1  0  0  0  0
  1 33  1  0  0  0  0
  1 34  1  0  0  0  0
  2 30  1  0  0  0  0
  2  3  2  0  0  0  0
  3  4  1  0  0  0  0
  3 35  1  0  0  0  0
  4  5  1  0  0  0  0
  4 13  1  0  0  0  0
  5 12  1  0  0  0  0
  5  6  1  0  0  0  0
  5 36  1  0  0  0  0
  6  7  1  0  0  0  0
  6 37  1  0  0  0  0
  6 38  1  0  0  0  0
  7  8  1  0  0  0  0
  7  9  1  0  0  0  0
  7 39  1  0  0  0  0
  8 40  1  0  0  0  0
  9 10  1  0  0  0  0
  9 12  1  0  0  0  0
  9 41  1  0  0  0  0
 10 11  1  0  0  0  0
 10 42  1  0  0  0  0
 10 43  1  0  0  0  0
 11 44  1  0  0  0  0
 13 14  2  0  0  0  0
 13 15  1  0  0  0  0
 15 16  1  0  0  0  0
 15 30  1  0  0  0  0
 16 17  1  0  0  0  0
 16 45  1  0  0  0  0
 16 46  1  0  0  0  0
 17 18  2  0  0  0  0
 17 19  1  0  0  0  0
 19 20  1  0  0  0  0
 19 47  1  0  0  0  0
 20 29  1  0  0  0  0
 20 21  2  0  0  0  0
 21 22  1  0  0  0  0
 21 48  1  0  0  0  0
 22 23  2  0  0  0  0
 22 49  1  0  0  0  0
 23 24  1  0  0  0  0
 23 28  1  0  0  0  0
 24 25  1  0  0  0  0
 24 26  1  0  0  0  0
 24 27  1  0  0  0  0
 25 50  1  0  0  0  0
 25 51  1  0  0  0  0
 25 52  1  0  0  0  0
 26 53  1  0  0  0  0
 26 54  1  0  0  0  0
 26 55  1  0  0  0  0
 27 56  1  0  0  0  0
 27 57  1  0  0  0  0
 27 58  1  0  0  0  0
 28 29  2  0  0  0  0
 28 59  1  0  0  0  0
 29 60  1  0  0  0  0
 30 31  2  0  0  0  0
M  END
> <s_m_source_file>
AV-unprocessed.smi

> <i_m_source_file_index>
284

> <i_lp_mmshare_version>
43012

> <i_f3d_flags>
0

> <s_epik_input>
W09IXVtDSDJdW0NAQEhdKE8xKVtDQEhdKFtPSF0pW0NIMl1bQ0BIXTFuKFtjSF1jMltDSDNdKWMoPU8pbihjMj1PKVtDSDJdQyg9TylbTkhdYzNbY0hdW2NIXWMoQyhbQ0gzXSkoW0NIM10pW0NIM10pW2NIXVtjSF0z

> <s_epik_cmdline>
J2VwaWtfcHl0aG9uJywgJy1waCcsICc3LjAnLCAnLXRuJywgJzgnLCAnLW1hJywgJzIwMCcsICctbWV0YWxfYmluZGluZycsICctaW1hZScsICc8aW5maWxlLm1hZT4nLCAnLW9tYWUnLCAnPG91dGZpbGUubWFlPic=

> <r_lp_tautomer_probability>
1

> <r_epik_Ionization_Penalty>
4.92358e-06

> <r_epik_Ionization_Penalty_Charging>
1.29777e-07

> <r_epik_Ionization_Penalty_Neutral>
4.79381e-06

> <r_epik_State_Penalty>
-0

> <r_epik_Charging_Adjusted_Penalty>
1.29777e-07

> <i_epik_Tot_Q>
0

> <i_epik_Tot_abs_Q>
0

> <r_epik_Metal_State_Penalty>
-0

> <b_epik_Metal_Only>
0

> <s_epik_Chemistry_Notes>
This compound contains an acetal/aminal-like group ( X-CH(R)-Y where X, Y are N, S, or O) that may be acid/base labile, releasing an aldehyde.

> <s_lp_Force_Field>
OPLS_2005

> <r_lp_Energy>
41.7726

> <b_lp_Chiralities_Consistent>
1

> <s_lp_Variant>
AV-unprocessed.smi:284-2

> <Gold.Version>
5.8.1

> <Gold.Id.Protein>
6NUR|6NUR_protein|mol2

> <Gold.PLP.Fitness>
56.8144

> <Gold.PLP.PLP>
-49.3550

> <Gold.PLP.part.hbond>
-3.7166

> <Gold.PLP.part.metal>
0.0000

> <Gold.PLP.part.buried>
-8.4276

> <Gold.PLP.part.nonpolar>
-39.1315

> <Gold.PLP.part.repulsive>
3.0228

> <Gold.PLP.ligand.clash>
0.0000

> <Gold.PLP.ligand.torsion>
0.8370

> <Gold.PLP.Chemscore.Hbond>
3.0000

> <Gold.PLP.Chemscore.CHOScore>
0.0000

> <Gold.PLP.Chemscore.Metal>
0.0000

> <Gold.Chemscore.Hbonds>
donor molecule, donor type, donor heavy atom, donor atom, acceptor molecule, acceptor atom, score
      L1  H     8    40       P1  7921  0.93
      L1  H    11    44       P1 10186  1.00
      P1  H  6896  6907       L1    18  0.96

> <Gold.PLP.Chemscore.Internal.Correction>
0.1334

> <Gold.Rescore>
     Score         DG    S(hbond)    S(metal)    S(lipo)     H(rot)  DE(clash)    DE(int)     intcor
     16.98     -19.31       3.15        0.00      99.89       3.27       0.19       2.14       ----

> <Gold.Chemscore.Fitness>
16.9783

> <Gold.Chemscore.DG>
-19.3058

> <Gold.Chemscore.ZeroCoef>
-5.4800

> <Gold.Chemscore.Hbond>
3.1493

> <Gold.Chemscore.Metal>
0.0000

> <Gold.Chemscore.Lipo>
99.8890

> <Gold.Chemscore.Internal_Hbond>
0.0000

> <Gold.Chemscore.DEClash>
0.1894

> <Gold.Chemscore.DEInternal>
2.1381

> <Gold.Chemscore.Rot>
3.2735

> <Gold.Chemscore.Internal.Correction>
   9.000000E+99

> <Gold.Chemscore.Hbonds>
donor molecule, donor type, donor heavy atom, donor atom, acceptor molecule, acceptor atom, score
      L1  H     8    40       P1  7921  0.90
      L1  H    11    44       P1 10186  1.00
      P1  H  6896  6907       L1    18  0.87

> <Gold.Chemscore.Hbond.Weighted>
-10.5188

> <Gold.Chemscore.Metal.Weighted>
-0.0000

> <Gold.Chemscore.Lipo.Weighted>
-11.6870

> <Gold.Chemscore.Internal_Hbond.Weighted>
0.0000

> <Gold.Chemscore.DEClash.Weighted>
0.1894

> <Gold.Chemscore.DEInternal.Weighted>
2.1381

> <Gold.Chemscore.Rot.Weighted>
8.3801

> <Gold.Chemscore.Internal.Correction.Weighted>
   9.000000E+99

> <Gold.Protein.RotatedTorsions>
[ 6907 6896 6895 6894 ] final -158.43 input  -60.11 | X-H torsion
[ 7974 7965 7964 7962 ] final   70.08 input  175.53 | X-H torsion
[ 8008 7997 7996 7995 ] final   79.48 input   59.86 | X-H torsion
[ 10167 10162 10161 10158 ] final  143.24 input  -65.29 | X-H torsion
[ 10718 10713 10712 10709 ] final -146.45 input   66.30 | X-H torsion
[ 10763 10752 10751 10750 ] final  -12.57 input  -60.55 | X-H torsion
[ 11005 11000 10999 10996 ] final  161.98 input  -57.11 | X-H torsion

> <Gold.Protein.ActiveResidues>
 VAL166  LYS551  ARG553  GLY616  TRP617  ASP618  TYR619  PRO620  LYS621  CYS622 
 ASP623  PHE694  ASN695  SER759  ASP760  ASP761  ALA762  ILE779  LEU786  VAL792 
 PHE793  MET794  SER795  GLU796  ALA797  LYS798  CYS799  TRP800  GLU811  SER814 

> <Gold.Protein.RotatedAtoms>
  151.3181  133.4051  159.2652 H   0  0  0  0  0  0  0  0  0  0  0  0  # atno 6907 bound_to 6896
  151.0057  134.9358  159.7989 H   0  0  0  0  0  0  0  0  0  0  0  0  # atno 6908 bound_to 6896
  152.5287  134.3146  159.9178 H   0  0  0  0  0  0  0  0  0  0  0  0  # atno 6909 bound_to 6896
  145.7826  139.2895  143.1257 H   0  0  0  0  0  0  0  0  0  0  0  0  # atno 7974 bound_to 7965
  155.8703  140.3449  155.5817 H   0  0  0  0  0  0  0  0  0  0  0  0  # atno 8008 bound_to 7997
  155.7834  140.0861  157.2066 H   0  0  0  0  0  0  0  0  0  0  0  0  # atno 8009 bound_to 7997
  154.4017  140.1496  156.3066 H   0  0  0  0  0  0  0  0  0  0  0  0  # atno 8010 bound_to 7997
  139.4974  144.6054  151.6391 H   0  0  0  0  0  0  0  0  0  0  0  0  # atno 10167 bound_to 10162
  156.3951  130.7905  151.2111 H   0  0  0  0  0  0  0  0  0  0  0  0  # atno 10718 bound_to 10713
  153.5004  135.7017  153.5835 H   0  0  0  0  0  0  0  0  0  0  0  0  # atno 10763 bound_to 10752
  153.3969  135.3882  155.1961 H   0  0  0  0  0  0  0  0  0  0  0  0  # atno 10764 bound_to 10752
  154.8711  135.3872  154.4474 H   0  0  0  0  0  0  0  0  0  0  0  0  # atno 10765 bound_to 10752
  140.2212  134.8195  157.3222 H   0  0  0  0  0  0  0  0  0  0  0  0  # atno 11005 bound_to 11000
  146.0059  140.8479  142.9995 LP  0  0  0  0  0  0  0  0  0  0  0  0  # atno 17320 bound_to 7965
  144.6794  140.2419  143.7342 LP  0  0  0  0  0  0  0  0  0  0  0  0  # atno 17321 bound_to 7965
  140.5714  144.0103  150.6218 LP  0  0  0  0  0  0  0  0  0  0  0  0  # atno 17342 bound_to 10162
  140.3221  143.3130  152.0773 LP  0  0  0  0  0  0  0  0  0  0  0  0  # atno 17343 bound_to 10162
  157.7501  131.0304  150.4134 LP  0  0  0  0  0  0  0  0  0  0  0  0  # atno 17370 bound_to 10713
  156.4403  130.3990  149.6702 LP  0  0  0  0  0  0  0  0  0  0  0  0  # atno 17371 bound_to 10713
  140.1848  134.4445  155.7750 LP  0  0  0  0  0  0  0  0  0  0  0  0  # atno 17394 bound_to 11000
  141.2223  133.7000  156.7929 LP  0  0  0  0  0  0  0  0  0  0  0  0  # atno 17395 bound_to 11000

$$$$
