AV-unprocessed.smi:3091|AV-procd|sdf|11779|dock3
  -GOLD-   2272017163D 1   1.00000     0.00000
 Structure written by MMmdl.
 29 30  0  0  0  0  0  0  0  0  2 V2000
  150.3329  138.2101  153.1915 N   0  3  0  0  0  0  0  0  0  0  0  0
  150.1129  138.1293  154.6442 C   0  0  0  0  0  0  0  0  0  0  0  0
  150.4897  139.4332  155.3166 C   0  0  0  0  0  0  0  0  0  0  0  0
  149.9322  140.6533  154.8842 C   0  0  0  0  0  0  0  0  0  0  0  0
  150.3205  141.8370  155.5417 C   0  0  0  0  0  0  0  0  0  0  0  0
  151.2021  141.8607  156.5634 N   0  0  0  0  0  0  0  0  0  0  0  0
  151.7384  140.6867  156.9799 C   0  0  0  0  0  0  0  0  0  0  0  0
  152.6426  140.6927  158.0235 O   0  0  0  0  0  0  0  0  0  0  0  0
  152.2374  141.1862  159.3012 C   0  0  1  0  0  0  0  0  0  0  0  0
  153.3717  141.1091  160.3214 C   0  0  0  0  0  0  0  0  0  0  0  0
  153.3336  142.4721  160.9993 C   0  0  0  0  0  0  0  0  0  0  0  0
  152.9762  143.3343  159.9343 O   0  0  0  0  0  0  0  0  0  0  0  0
  151.9434  142.6899  159.2014 C   0  0  0  0  0  0  0  0  0  0  0  0
  151.4117  139.4515  156.3831 C   0  0  0  0  0  0  0  0  0  0  0  0
  151.3110  138.0621  152.9884 H   0  0  0  0  0  0  0  0  0  0  0  0
  150.0535  139.1226  152.8608 H   0  0  0  0  0  0  0  0  0  0  0  0
  149.0654  137.8972  154.8391 H   0  0  0  0  0  0  0  0  0  0  0  0
  150.7070  137.3123  155.0553 H   0  0  0  0  0  0  0  0  0  0  0  0
  149.2226  140.6869  154.0704 H   0  0  0  0  0  0  0  0  0  0  0  0
  149.9133  142.7899  155.2378 H   0  0  0  0  0  0  0  0  0  0  0  0
  151.3381  140.6810  159.6579 H   0  0  0  0  0  0  0  0  0  0  0  0
  153.2575  140.2847  161.0258 H   0  0  0  0  0  0  0  0  0  0  0  0
  154.3287  140.9865  159.8124 H   0  0  0  0  0  0  0  0  0  0  0  0
  152.5674  142.5045  161.7756 H   0  0  0  0  0  0  0  0  0  0  0  0
  154.2900  142.7509  161.4421 H   0  0  0  0  0  0  0  0  0  0  0  0
  151.9104  143.0511  158.1731 H   0  0  0  0  0  0  0  0  0  0  0  0
  150.9845  142.9208  159.6676 H   0  0  0  0  0  0  0  0  0  0  0  0
  151.8617  138.5376  156.7427 H   0  0  0  0  0  0  0  0  0  0  0  0
  149.7807  137.5022  152.7288 H   0  0  0  0  0  0  0  0  0  0  0  0
  1  2  1  0  0  0  0
  1 15  1  0  0  0  0
  1 16  1  0  0  0  0
  1 29  1  0  0  0  0
  2  3  1  0  0  0  0
  2 17  1  0  0  0  0
  2 18  1  0  0  0  0
  3 14  1  0  0  0  0
  3  4  2  0  0  0  0
  4  5  1  0  0  0  0
  4 19  1  0  0  0  0
  5  6  2  0  0  0  0
  5 20  1  0  0  0  0
  6  7  1  0  0  0  0
  7  8  1  0  0  0  0
  7 14  2  0  0  0  0
  8  9  1  0  0  0  0
  9 13  1  0  0  0  0
  9 10  1  0  0  0  0
  9 21  1  0  0  0  0
 10 11  1  0  0  0  0
 10 22  1  0  0  0  0
 10 23  1  0  0  0  0
 11 12  1  0  0  0  0
 11 24  1  0  0  0  0
 11 25  1  0  0  0  0
 12 13  1  0  0  0  0
 13 26  1  0  0  0  0
 13 27  1  0  0  0  0
 14 28  1  0  0  0  0
M  CHG  1   1   1
M  END
> <s_m_source_file>
AV-unprocessed.smi

> <i_m_source_file_index>
3091

> <i_lp_mmshare_version>
43012

> <i_f3d_flags>
0

> <s_epik_input>
W05IMl1bQ0gyXWMxW2NIXVtjSF1uYyhbY0hdMSlPW0NAQEhdMltDSDJdW0NIMl1PW0NIMl0y

> <s_epik_cmdline>
J2VwaWtfcHl0aG9uJywgJy1waCcsICc3LjAnLCAnLXRuJywgJzgnLCAnLW1hJywgJzIwMCcsICctbWV0YWxfYmluZGluZycsICctaW1hZScsICc8aW5maWxlLm1hZT4nLCAnLW9tYWUnLCAnPG91dGZpbGUubWFlPic=

> <r_lp_tautomer_probability>
1

> <r_epik_Ionization_Penalty>
0.0773124

> <r_epik_Ionization_Penalty_Charging>
0.0773118

> <r_epik_Ionization_Penalty_Neutral>
5.92883e-07

> <r_epik_State_Penalty>
0.0682686

> <r_epik_Charging_Adjusted_Penalty>
0.14558

> <i_epik_Tot_Q>
1

> <i_epik_Tot_abs_Q>
1

> <r_epik_Metal_State_Penalty>
0.0682821

> <b_epik_Metal_Only>
0

> <s_lp_Force_Field>
OPLS_2005

> <r_lp_Energy>
12.8261

> <b_lp_Chiralities_Consistent>
1

> <s_lp_Variant>
AV-unprocessed.smi:3091-2

> <Gold.Version>
5.8.1

> <Gold.Id.Protein>
6NUR|6NUR_protein|mol2

> <Gold.PLP.Fitness>
38.8796

> <Gold.PLP.PLP>
-26.6263

> <Gold.PLP.part.hbond>
-3.9387

> <Gold.PLP.part.metal>
0.0000

> <Gold.PLP.part.buried>
0.2759

> <Gold.PLP.part.nonpolar>
-21.8418

> <Gold.PLP.part.repulsive>
0.1686

> <Gold.PLP.ligand.clash>
0.0000

> <Gold.PLP.ligand.torsion>
0.0414

> <Gold.PLP.Chemscore.Hbond>
3.1084

> <Gold.PLP.Chemscore.CHOScore>
1.0000

> <Gold.PLP.Chemscore.Metal>
0.0000

> <Gold.Chemscore.Hbonds>
donor molecule, donor type, donor heavy atom, donor atom, acceptor molecule, acceptor atom, score
      L1  H     1    16       P1  7957  0.77
      L1  H     1    29       P1  7948  2.00
      P1  H  7997  8008       L1     8  0.33
      L1  C     5    20       P1  8028  1.00

> <Gold.PLP.Chemscore.Internal.Correction>
0.0108

> <Gold.Rescore>
     Score         DG    S(hbond)    S(metal)    S(lipo)     H(rot)  DE(clash)    DE(int)     intcor
     14.98     -16.66       2.08        0.00      71.01       1.59       0.32       1.36       ----

> <Gold.Chemscore.Fitness>
14.9779

> <Gold.Chemscore.DG>
-16.6602

> <Gold.Chemscore.ZeroCoef>
-5.4800

> <Gold.Chemscore.Hbond>
2.0804

> <Gold.Chemscore.Metal>
0.0000

> <Gold.Chemscore.Lipo>
71.0105

> <Gold.Chemscore.Internal_Hbond>
0.0000

> <Gold.Chemscore.DEClash>
0.3238

> <Gold.Chemscore.DEInternal>
1.3585

> <Gold.Chemscore.Rot>
1.5924

> <Gold.Chemscore.Internal.Correction>
   9.000000E+99

> <Gold.Chemscore.Hbonds>
donor molecule, donor type, donor heavy atom, donor atom, acceptor molecule, acceptor atom, score
      L1  H     1    16       P1  7957  0.65
      L1  H     1    29       P1  7948  0.30
      P1  H  7997  8008       L1     8  0.07

> <Gold.Chemscore.Hbond.Weighted>
-6.9485

> <Gold.Chemscore.Metal.Weighted>
-0.0000

> <Gold.Chemscore.Lipo.Weighted>
-8.3082

> <Gold.Chemscore.Internal_Hbond.Weighted>
0.0000

> <Gold.Chemscore.DEClash.Weighted>
0.3238

> <Gold.Chemscore.DEInternal.Weighted>
1.3585

> <Gold.Chemscore.Rot.Weighted>
4.0765

> <Gold.Chemscore.Internal.Correction.Weighted>
   9.000000E+99

> <Gold.Protein.RotatedTorsions>
[ 6907 6896 6895 6894 ] final   59.23 input  -60.11 | X-H torsion
[ 7974 7965 7964 7962 ] final -110.34 input  175.53 | X-H torsion
[ 8008 7997 7996 7995 ] final  -76.98 input   59.86 | X-H torsion
[ 10167 10162 10161 10158 ] final   -9.93 input  -65.29 | X-H torsion
[ 10718 10713 10712 10709 ] final   29.66 input   66.30 | X-H torsion
[ 10763 10752 10751 10750 ] final -135.78 input  -60.55 | X-H torsion
[ 11005 11000 10999 10996 ] final   68.61 input  -57.11 | X-H torsion

> <Gold.Protein.ActiveResidues>
 VAL166  LYS551  ARG553  GLY616  TRP617  ASP618  TYR619  PRO620  LYS621  CYS622 
 ASP623  PHE694  ASN695  SER759  ASP760  ASP761  ALA762  ILE779  LEU786  VAL792 
 PHE793  MET794  SER795  GLU796  ALA797  LYS798  CYS799  TRP800  GLU811  SER814 

> <Gold.Protein.RotatedAtoms>
  152.3896  134.6462  160.0112 H   0  0  0  0  0  0  0  0  0  0  0  0  # atno 6907 bound_to 6896
  151.6700  133.3308  159.3202 H   0  0  0  0  0  0  0  0  0  0  0  0  # atno 6908 bound_to 6896
  150.7815  134.6807  159.6487 H   0  0  0  0  0  0  0  0  0  0  0  0  # atno 6909 bound_to 6896
  145.1694  140.8918  143.3544 H   0  0  0  0  0  0  0  0  0  0  0  0  # atno 7974 bound_to 7965
  154.5554  140.0718  156.8735 H   0  0  0  0  0  0  0  0  0  0  0  0  # atno 8008 bound_to 7997
  155.2912  140.3378  155.4234 H   0  0  0  0  0  0  0  0  0  0  0  0  # atno 8009 bound_to 7997
  156.1997  140.1717  156.7910 H   0  0  0  0  0  0  0  0  0  0  0  0  # atno 8010 bound_to 7997
  140.7100  143.5804  150.8998 H   0  0  0  0  0  0  0  0  0  0  0  0  # atno 10167 bound_to 10162
  157.2495  130.7108  149.6398 H   0  0  0  0  0  0  0  0  0  0  0  0  # atno 10718 bound_to 10713
  154.8696  135.3693  154.4955 H   0  0  0  0  0  0  0  0  0  0  0  0  # atno 10763 bound_to 10752
  153.5599  135.7023  153.5557 H   0  0  0  0  0  0  0  0  0  0  0  0  # atno 10764 bound_to 10752
  153.3638  135.4039  155.1701 H   0  0  0  0  0  0  0  0  0  0  0  0  # atno 10765 bound_to 10752
  139.9702  134.6914  156.0463 H   0  0  0  0  0  0  0  0  0  0  0  0  # atno 11005 bound_to 11000
  145.0248  139.3392  143.6054 LP  0  0  0  0  0  0  0  0  0  0  0  0  # atno 17320 bound_to 7965
  146.3471  139.9562  142.8723 LP  0  0  0  0  0  0  0  0  0  0  0  0  # atno 17321 bound_to 7965
  139.9530  143.6251  152.3024 LP  0  0  0  0  0  0  0  0  0  0  0  0  # atno 17342 bound_to 10162
  139.6776  144.7657  151.1667 LP  0  0  0  0  0  0  0  0  0  0  0  0  # atno 17343 bound_to 10162
  155.9667  130.4432  150.5412 LP  0  0  0  0  0  0  0  0  0  0  0  0  # atno 17370 bound_to 10713
  157.3293  131.0696  151.1873 LP  0  0  0  0  0  0  0  0  0  0  0  0  # atno 17371 bound_to 10713
  141.1381  133.6570  156.3652 LP  0  0  0  0  0  0  0  0  0  0  0  0  # atno 17394 bound_to 11000
  140.5311  134.6212  157.5350 LP  0  0  0  0  0  0  0  0  0  0  0  0  # atno 17395 bound_to 11000

$$$$
