AV-unprocessed.smi:3249|AV-procd|sdf|12422|dock6
  -GOLD-   2272018303D 1   1.00000     0.00000
 Structure written by MMmdl.
 44 45  0  0  0  0  0  0  0  0  2 V2000
  151.6324  136.7015  154.4857 C   0  0  0  0  0  0  0  0  0  0  0  0
  151.0534  138.0855  154.5442 C   0  0  0  0  0  0  0  0  0  0  0  0
  151.6544  139.2633  155.0712 C   0  0  0  0  0  0  0  0  0  0  0  0
  150.8720  140.3253  154.9750 N   0  0  0  0  0  0  0  0  0  0  0  0
  149.7484  139.8692  154.3776 N   0  0  0  0  0  0  0  0  0  0  0  0
  148.6292  140.7699  154.1211 C   0  0  1  0  0  0  0  0  0  0  0  0
  147.5497  140.0236  153.3153 C   0  0  0  0  0  0  0  0  0  0  0  0
  148.0856  141.4088  155.4293 C   0  0  2  0  0  0  0  0  0  0  0  0
  146.9000  142.3583  155.1686 C   0  0  0  0  0  0  0  0  0  0  0  0
  149.1726  142.1383  156.1248 N   0  3  0  0  0  0  0  0  0  0  0  0
  149.2920  141.8682  157.5733 C   0  0  0  0  0  0  0  0  0  0  0  0
  150.6340  142.3696  158.1277 C   0  0  1  0  0  0  0  0  0  0  0  0
  150.7897  143.9009  158.0150 C   0  0  0  0  0  0  0  0  0  0  0  0
  152.0955  144.3610  158.6731 C   0  0  0  0  0  0  0  0  0  0  0  0
  152.1685  143.8259  160.1068 C   0  0  0  0  0  0  0  0  0  0  0  0
  151.9410  142.3061  160.1212 C   0  0  0  0  0  0  0  0  0  0  0  0
  150.6957  141.9965  159.5022 O   0  0  0  0  0  0  0  0  0  0  0  0
  149.8291  138.5166  154.1184 C   0  0  0  0  0  0  0  0  0  0  0  0
  152.7157  136.7096  154.6083 H   0  0  0  0  0  0  0  0  0  0  0  0
  151.4217  136.2155  153.5328 H   0  0  0  0  0  0  0  0  0  0  0  0
  151.2253  136.0632  155.2700 H   0  0  0  0  0  0  0  0  0  0  0  0
  152.6301  139.3766  155.5205 H   0  0  0  0  0  0  0  0  0  0  0  0
  149.0131  141.5729  153.4896 H   0  0  0  0  0  0  0  0  0  0  0  0
  146.7772  140.6986  152.9489 H   0  0  0  0  0  0  0  0  0  0  0  0
  147.0647  139.2537  153.9164 H   0  0  0  0  0  0  0  0  0  0  0  0
  147.9828  139.5355  152.4414 H   0  0  0  0  0  0  0  0  0  0  0  0
  147.7434  140.6051  156.0834 H   0  0  0  0  0  0  0  0  0  0  0  0
  146.0518  141.8328  154.7313 H   0  0  0  0  0  0  0  0  0  0  0  0
  147.1794  143.1642  154.4892 H   0  0  0  0  0  0  0  0  0  0  0  0
  146.5369  142.8140  156.0893 H   0  0  0  0  0  0  0  0  0  0  0  0
  150.0432  141.8509  155.7003 H   0  0  0  0  0  0  0  0  0  0  0  0
  148.4663  142.3235  158.1199 H   0  0  0  0  0  0  0  0  0  0  0  0
  149.2206  140.7906  157.7281 H   0  0  0  0  0  0  0  0  0  0  0  0
  151.4463  141.8715  157.5947 H   0  0  0  0  0  0  0  0  0  0  0  0
  150.7752  144.2122  156.9702 H   0  0  0  0  0  0  0  0  0  0  0  0
  149.9458  144.3939  158.4998 H   0  0  0  0  0  0  0  0  0  0  0  0
  152.9466  143.9923  158.0990 H   0  0  0  0  0  0  0  0  0  0  0  0
  152.1620  145.4494  158.6693 H   0  0  0  0  0  0  0  0  0  0  0  0
  153.1336  144.0688  160.5524 H   0  0  0  0  0  0  0  0  0  0  0  0
  151.4090  144.3132  160.7199 H   0  0  0  0  0  0  0  0  0  0  0  0
  152.7531  141.7854  159.6110 H   0  0  0  0  0  0  0  0  0  0  0  0
  151.9243  141.9395  161.1479 H   0  0  0  0  0  0  0  0  0  0  0  0
  149.0163  137.9759  153.6558 H   0  0  0  0  0  0  0  0  0  0  0  0
  149.0543  143.1298  155.9736 H   0  0  0  0  0  0  0  0  0  0  0  0
  1  2  1  0  0  0  0
  1 19  1  0  0  0  0
  1 20  1  0  0  0  0
  1 21  1  0  0  0  0
  2 18  2  0  0  0  0
  2  3  1  0  0  0  0
  3  4  2  0  0  0  0
  3 22  1  0  0  0  0
  4  5  1  0  0  0  0
  5  6  1  0  0  0  0
  5 18  1  0  0  0  0
  6  7  1  0  0  0  0
  6  8  1  0  0  0  0
  6 23  1  0  0  0  0
  7 24  1  0  0  0  0
  7 25  1  0  0  0  0
  7 26  1  0  0  0  0
  8  9  1  0  0  0  0
  8 10  1  0  0  0  0
  8 27  1  0  0  0  0
  9 28  1  0  0  0  0
  9 29  1  0  0  0  0
  9 30  1  0  0  0  0
 10 11  1  0  0  0  0
 10 31  1  0  0  0  0
 10 44  1  0  0  0  0
 11 12  1  0  0  0  0
 11 32  1  0  0  0  0
 11 33  1  0  0  0  0
 12 17  1  0  0  0  0
 12 13  1  0  0  0  0
 12 34  1  0  0  0  0
 13 14  1  0  0  0  0
 13 35  1  0  0  0  0
 13 36  1  0  0  0  0
 14 15  1  0  0  0  0
 14 37  1  0  0  0  0
 14 38  1  0  0  0  0
 15 16  1  0  0  0  0
 15 39  1  0  0  0  0
 15 40  1  0  0  0  0
 16 17  1  0  0  0  0
 16 41  1  0  0  0  0
 16 42  1  0  0  0  0
 18 43  1  0  0  0  0
M  CHG  1  10   1
M  END
> <s_m_source_file>
AV-unprocessed.smi

> <i_m_source_file_index>
3249

> <i_lp_mmshare_version>
43012

> <i_f3d_flags>
0

> <s_epik_input>
W0NIM11jMVtjSF1ubihbY0hdMSlbQ0BIXShbQ0gzXSlbQ0BIXShbQ0gzXSlbTkhdW0NIMl1bQ0BASF0yW0NIMl1bQ0gyXVtDSDJdW0NIMl1PMg==

> <s_epik_cmdline>
J2VwaWtfcHl0aG9uJywgJy1waCcsICc3LjAnLCAnLXRuJywgJzgnLCAnLW1hJywgJzIwMCcsICctbWV0YWxfYmluZGluZycsICctaW1hZScsICc8aW5maWxlLm1hZT4nLCAnLW9tYWUnLCAnPG91dGZpbGUubWFlPic=

> <r_lp_tautomer_probability>
1

> <r_epik_Ionization_Penalty>
0.00659207

> <r_epik_Ionization_Penalty_Charging>
0.00656881

> <r_epik_Ionization_Penalty_Neutral>
2.32662e-05

> <r_epik_State_Penalty>
0.0048654

> <r_epik_Charging_Adjusted_Penalty>
0.0114342

> <i_epik_Tot_Q>
1

> <i_epik_Tot_abs_Q>
1

> <r_epik_Metal_State_Penalty>
-0

> <b_epik_Metal_Only>
0

> <s_lp_Force_Field>
OPLS_2005

> <r_lp_Energy>
17.782

> <b_lp_Chiralities_Consistent>
1

> <s_lp_Variant>
AV-unprocessed.smi:3249-6

> <Gold.Version>
5.8.1

> <Gold.Id.Protein>
6NUR|6NUR_protein|mol2

> <Gold.PLP.Fitness>
48.5220

> <Gold.PLP.PLP>
-38.2495

> <Gold.PLP.part.hbond>
-2.5531

> <Gold.PLP.part.metal>
0.0000

> <Gold.PLP.part.buried>
5.2041

> <Gold.PLP.part.nonpolar>
-40.5599

> <Gold.PLP.part.repulsive>
0.1710

> <Gold.PLP.ligand.clash>
0.0000

> <Gold.PLP.ligand.torsion>
0.7504

> <Gold.PLP.Chemscore.Hbond>
3.0000

> <Gold.PLP.Chemscore.CHOScore>
0.8814

> <Gold.PLP.Chemscore.Metal>
0.0000

> <Gold.Chemscore.Hbonds>
donor molecule, donor type, donor heavy atom, donor atom, acceptor molecule, acceptor atom, score
      L1  H    10    44       P1  8028  2.00
      P1  H  7989  7998       L1     4  0.52
      L1  C    18    43       P1  7948  1.00

> <Gold.PLP.Chemscore.Internal.Correction>
0.1292

> <Gold.Rescore>
     Score         DG    S(hbond)    S(metal)    S(lipo)     H(rot)  DE(clash)    DE(int)     intcor
     19.30     -20.94       1.97        0.00     109.46       1.53       0.12       1.52       ----

> <Gold.Chemscore.Fitness>
19.3001

> <Gold.Chemscore.DG>
-20.9362

> <Gold.Chemscore.ZeroCoef>
-5.4800

> <Gold.Chemscore.Hbond>
1.9683

> <Gold.Chemscore.Metal>
0.0000

> <Gold.Chemscore.Lipo>
109.4623

> <Gold.Chemscore.Internal_Hbond>
0.0000

> <Gold.Chemscore.DEClash>
0.1169

> <Gold.Chemscore.DEInternal>
1.5191

> <Gold.Chemscore.Rot>
1.5333

> <Gold.Chemscore.Internal.Correction>
   9.000000E+99

> <Gold.Chemscore.Hbonds>
donor molecule, donor type, donor heavy atom, donor atom, acceptor molecule, acceptor atom, score
      L1  H    10    44       P1  8028  0.99
      P1  H  7989  7998       L1     4  0.01

> <Gold.Chemscore.Hbond.Weighted>
-6.5743

> <Gold.Chemscore.Metal.Weighted>
-0.0000

> <Gold.Chemscore.Lipo.Weighted>
-12.8071

> <Gold.Chemscore.Internal_Hbond.Weighted>
0.0000

> <Gold.Chemscore.DEClash.Weighted>
0.1169

> <Gold.Chemscore.DEInternal.Weighted>
1.5191

> <Gold.Chemscore.Rot.Weighted>
3.9252

> <Gold.Chemscore.Internal.Correction.Weighted>
   9.000000E+99

> <Gold.Protein.RotatedTorsions>
[ 6907 6896 6895 6894 ] final  159.43 input  -60.11 | X-H torsion
[ 7974 7965 7964 7962 ] final  -58.85 input  175.53 | X-H torsion
[ 8008 7997 7996 7995 ] final  127.50 input   59.86 | X-H torsion
[ 10167 10162 10161 10158 ] final    1.08 input  -65.29 | X-H torsion
[ 10718 10713 10712 10709 ] final -159.83 input   66.30 | X-H torsion
[ 10763 10752 10751 10750 ] final  -55.25 input  -60.55 | X-H torsion
[ 11005 11000 10999 10996 ] final   43.97 input  -57.11 | X-H torsion

> <Gold.Protein.ActiveResidues>
 VAL166  LYS551  ARG553  GLY616  TRP617  ASP618  TYR619  PRO620  LYS621  CYS622 
 ASP623  PHE694  ASN695  SER759  ASP760  ASP761  ALA762  ILE779  LEU786  VAL792 
 PHE793  MET794  SER795  GLU796  ALA797  LYS798  CYS799  TRP800  GLU811  SER814 

> <Gold.Protein.RotatedAtoms>
  151.9856  133.3773  159.4124 H   0  0  0  0  0  0  0  0  0  0  0  0  # atno 6907 bound_to 6896
  150.6928  134.3992  159.5120 H   0  0  0  0  0  0  0  0  0  0  0  0  # atno 6908 bound_to 6896
  152.1717  134.8828  160.0584 H   0  0  0  0  0  0  0  0  0  0  0  0  # atno 6909 bound_to 6896
  145.8344  140.8458  143.0067 H   0  0  0  0  0  0  0  0  0  0  0  0  # atno 7974 bound_to 7965
  156.2892  140.2667  156.2284 H   0  0  0  0  0  0  0  0  0  0  0  0  # atno 8008 bound_to 7997
  155.0097  140.0387  157.2412 H   0  0  0  0  0  0  0  0  0  0  0  0  # atno 8009 bound_to 7997
  154.7528  140.2746  155.6283 H   0  0  0  0  0  0  0  0  0  0  0  0  # atno 8010 bound_to 7997
  140.6699  143.7077  150.7902 H   0  0  0  0  0  0  0  0  0  0  0  0  # atno 10167 bound_to 10162
  156.5736  130.8699  151.2845 H   0  0  0  0  0  0  0  0  0  0  0  0  # atno 10718 bound_to 10713
  154.1878  135.6432  153.5051 H   0  0  0  0  0  0  0  0  0  0  0  0  # atno 10763 bound_to 10752
  153.0042  135.5421  154.6447 H   0  0  0  0  0  0  0  0  0  0  0  0  # atno 10764 bound_to 10752
  154.5828  135.2927  155.0688 H   0  0  0  0  0  0  0  0  0  0  0  0  # atno 10765 bound_to 10752
  140.1595  134.4359  155.8327 H   0  0  0  0  0  0  0  0  0  0  0  0  # atno 11005 bound_to 11000
  144.6737  140.0720  143.7472 LP  0  0  0  0  0  0  0  0  0  0  0  0  # atno 17320 bound_to 7965
  145.9535  139.2750  143.1198 LP  0  0  0  0  0  0  0  0  0  0  0  0  # atno 17321 bound_to 7965
  140.0761  143.5014  152.2555 LP  0  0  0  0  0  0  0  0  0  0  0  0  # atno 17342 bound_to 10162
  139.5963  144.7568  151.3279 LP  0  0  0  0  0  0  0  0  0  0  0  0  # atno 17343 bound_to 10162
  157.7342  130.9743  150.2020 LP  0  0  0  0  0  0  0  0  0  0  0  0  # atno 17370 bound_to 10713
  156.2693  130.3720  149.8048 LP  0  0  0  0  0  0  0  0  0  0  0  0  # atno 17371 bound_to 10713
  141.2208  133.6907  156.7568 LP  0  0  0  0  0  0  0  0  0  0  0  0  # atno 17394 bound_to 11000
  140.2507  134.8543  157.3664 LP  0  0  0  0  0  0  0  0  0  0  0  0  # atno 17395 bound_to 11000

$$$$
