AV-unprocessed.smi:3046|AV-procd|sdf|11614|dock1
  -GOLD-   2272016593D 1   1.00000     0.00000
 Structure written by MMmdl.
 38 38  0  0  0  0  0  0  0  0  2 V2000
  145.6874  130.5158  151.6132 C   0  0  0  0  0  0  0  0  0  0  0  0
  144.9673  131.4226  150.9358 C   0  0  0  0  0  0  0  0  0  0  0  0
  145.5364  132.3644  149.8931 C   0  0  0  0  0  0  0  0  0  0  0  0
  145.3118  133.7590  150.2537 N   0  0  0  0  0  0  0  0  0  0  0  0
  145.9589  134.4202  151.2263 C   0  0  0  0  0  0  0  0  0  0  0  0
  146.8287  133.9057  151.9303 O   0  0  0  0  0  0  0  0  0  0  0  0
  145.5502  135.8839  151.4460 C   0  0  1  0  0  0  0  0  0  0  0  0
  144.0682  135.9567  151.8441 C   0  0  0  0  0  0  0  0  0  0  0  0
  146.3783  136.5366  152.4893 N   0  3  0  0  0  0  0  0  0  0  0  0
  146.2346  138.0062  152.6166 C   0  0  2  0  0  0  0  0  0  0  0  0
  146.6435  138.6721  151.2924 C   0  0  0  0  0  0  0  0  0  0  0  0
  147.0510  138.5390  153.8164 C   0  0  0  0  0  0  0  0  0  0  0  0
  146.8593  139.9603  154.0408 N   0  0  0  0  0  0  0  0  0  0  0  0
  147.1529  141.0125  153.1985 C   0  0  0  0  0  0  0  0  0  0  0  0
  146.8037  142.1614  153.8482 C   0  0  0  0  0  0  0  0  0  0  0  0
  146.3062  141.7048  155.1007 C   0  0  0  0  0  0  0  0  0  0  0  0
  146.3442  140.3867  155.2141 N   0  0  0  0  0  0  0  0  0  0  0  0
  146.7482  130.4005  151.4444 H   0  0  0  0  0  0  0  0  0  0  0  0
  145.2225  129.8752  152.3483 H   0  0  0  0  0  0  0  0  0  0  0  0
  143.9095  131.5104  151.1376 H   0  0  0  0  0  0  0  0  0  0  0  0
  146.6032  132.1676  149.7750 H   0  0  0  0  0  0  0  0  0  0  0  0
  145.0716  132.1742  148.9250 H   0  0  0  0  0  0  0  0  0  0  0  0
  144.6066  134.2546  149.7272 H   0  0  0  0  0  0  0  0  0  0  0  0
  145.6704  136.4251  150.5072 H   0  0  0  0  0  0  0  0  0  0  0  0
  143.4300  135.4950  151.0893 H   0  0  0  0  0  0  0  0  0  0  0  0
  143.7438  136.9920  151.9537 H   0  0  0  0  0  0  0  0  0  0  0  0
  143.8819  135.4492  152.7919 H   0  0  0  0  0  0  0  0  0  0  0  0
  146.1616  136.1237  153.3848 H   0  0  0  0  0  0  0  0  0  0  0  0
  145.1807  138.2369  152.7769 H   0  0  0  0  0  0  0  0  0  0  0  0
  146.4751  139.7491  151.3154 H   0  0  0  0  0  0  0  0  0  0  0  0
  146.0626  138.2743  150.4595 H   0  0  0  0  0  0  0  0  0  0  0  0
  147.6983  138.5045  151.0726 H   0  0  0  0  0  0  0  0  0  0  0  0
  146.7821  138.0204  154.7367 H   0  0  0  0  0  0  0  0  0  0  0  0
  148.1148  138.3559  153.6581 H   0  0  0  0  0  0  0  0  0  0  0  0
  147.5777  140.8588  152.2174 H   0  0  0  0  0  0  0  0  0  0  0  0
  146.8920  143.1748  153.4853 H   0  0  0  0  0  0  0  0  0  0  0  0
  145.9225  142.2874  155.9252 H   0  0  0  0  0  0  0  0  0  0  0  0
  147.3430  136.3322  152.2689 H   0  0  0  0  0  0  0  0  0  0  0  0
  1  2  2  0  0  0  0
  1 18  1  0  0  0  0
  1 19  1  0  0  0  0
  2  3  1  0  0  0  0
  2 20  1  0  0  0  0
  3  4  1  0  0  0  0
  3 21  1  0  0  0  0
  3 22  1  0  0  0  0
  4  5  1  0  0  0  0
  4 23  1  0  0  0  0
  5  6  2  0  0  0  0
  5  7  1  0  0  0  0
  7  8  1  0  0  0  0
  7  9  1  0  0  0  0
  7 24  1  0  0  0  0
  8 25  1  0  0  0  0
  8 26  1  0  0  0  0
  8 27  1  0  0  0  0
  9 10  1  0  0  0  0
  9 28  1  0  0  0  0
  9 38  1  0  0  0  0
 10 11  1  0  0  0  0
 10 12  1  0  0  0  0
 10 29  1  0  0  0  0
 11 30  1  0  0  0  0
 11 31  1  0  0  0  0
 11 32  1  0  0  0  0
 12 13  1  0  0  0  0
 12 33  1  0  0  0  0
 12 34  1  0  0  0  0
 13 17  1  0  0  0  0
 13 14  1  0  0  0  0
 14 15  2  0  0  0  0
 14 35  1  0  0  0  0
 15 16  1  0  0  0  0
 15 36  1  0  0  0  0
 16 17  2  0  0  0  0
 16 37  1  0  0  0  0
M  CHG  1   9   1
M  END
> <s_m_source_file>
AV-unprocessed.smi

> <i_m_source_file_index>
3046

> <i_lp_mmshare_version>
43012

> <i_f3d_flags>
0

> <s_epik_input>
W0NIMl09W0NIXVtDSDJdW05IXUMoPU8pW0NASF0oW0NIM10pW05IXVtDQEhdKFtDSDNdKVtDSDJdbjFbY0hdW2NIXVtjSF1uMQ==

> <s_epik_cmdline>
J2VwaWtfcHl0aG9uJywgJy1waCcsICc3LjAnLCAnLXRuJywgJzgnLCAnLW1hJywgJzIwMCcsICctbWV0YWxfYmluZGluZycsICctaW1hZScsICc8aW5maWxlLm1hZT4nLCAnLW9tYWUnLCAnPG91dGZpbGUubWFlPic=

> <r_lp_tautomer_probability>
1

> <r_epik_Ionization_Penalty>
0.132961

> <r_epik_Ionization_Penalty_Charging>
0.132956

> <r_epik_Ionization_Penalty_Neutral>
5.00268e-06

> <r_epik_State_Penalty>
0.122332

> <r_epik_Charging_Adjusted_Penalty>
0.255288

> <i_epik_Tot_Q>
1

> <i_epik_Tot_abs_Q>
1

> <r_epik_Metal_State_Penalty>
0.122338

> <b_epik_Metal_Only>
0

> <s_lp_Force_Field>
OPLS_2005

> <r_lp_Energy>
6.33671

> <b_lp_Chiralities_Consistent>
1

> <s_lp_Variant>
AV-unprocessed.smi:3046-2

> <Gold.Version>
5.8.1

> <Gold.Id.Protein>
6NUR|6NUR_protein|mol2

> <Gold.PLP.Fitness>
42.9056

> <Gold.PLP.PLP>
-34.0719

> <Gold.PLP.part.hbond>
-2.0000

> <Gold.PLP.part.metal>
0.0000

> <Gold.PLP.part.buried>
-3.3848

> <Gold.PLP.part.nonpolar>
-29.1563

> <Gold.PLP.part.repulsive>
0.3570

> <Gold.PLP.ligand.clash>
0.0000

> <Gold.PLP.ligand.torsion>
0.1504

> <Gold.PLP.Chemscore.Hbond>
2.0000

> <Gold.PLP.Chemscore.CHOScore>
1.0000

> <Gold.PLP.Chemscore.Metal>
0.0000

> <Gold.Chemscore.Hbonds>
donor molecule, donor type, donor heavy atom, donor atom, acceptor molecule, acceptor atom, score
      L1  H     9    38       P1  7948  2.00
      L1  C    14    35       P1  7957  1.00

> <Gold.PLP.Chemscore.Internal.Correction>
0.1345

> <Gold.Rescore>
     Score         DG    S(hbond)    S(metal)    S(lipo)     H(rot)  DE(clash)    DE(int)     intcor
     12.43     -12.61       1.00        0.00      81.94       2.26       0.06       0.13       ----

> <Gold.Chemscore.Fitness>
12.4275

> <Gold.Chemscore.DG>
-12.6127

> <Gold.Chemscore.ZeroCoef>
-5.4800

> <Gold.Chemscore.Hbond>
0.9992

> <Gold.Chemscore.Metal>
0.0000

> <Gold.Chemscore.Lipo>
81.9435

> <Gold.Chemscore.Internal_Hbond>
0.0000

> <Gold.Chemscore.DEClash>
0.0560

> <Gold.Chemscore.DEInternal>
0.1291

> <Gold.Chemscore.Rot>
2.2626

> <Gold.Chemscore.Internal.Correction>
   9.000000E+99

> <Gold.Chemscore.Hbonds>
donor molecule, donor type, donor heavy atom, donor atom, acceptor molecule, acceptor atom, score
      L1  H     9    38       P1  7948  1.00

> <Gold.Chemscore.Hbond.Weighted>
-3.3374

> <Gold.Chemscore.Metal.Weighted>
-0.0000

> <Gold.Chemscore.Lipo.Weighted>
-9.5874

> <Gold.Chemscore.Internal_Hbond.Weighted>
0.0000

> <Gold.Chemscore.DEClash.Weighted>
0.0560

> <Gold.Chemscore.DEInternal.Weighted>
0.1291

> <Gold.Chemscore.Rot.Weighted>
5.7922

> <Gold.Chemscore.Internal.Correction.Weighted>
   9.000000E+99

> <Gold.Protein.RotatedTorsions>
[ 6907 6896 6895 6894 ] final   16.26 input  -60.11 | X-H torsion
[ 7974 7965 7964 7962 ] final -127.36 input  175.53 | X-H torsion
[ 8008 7997 7996 7995 ] final  139.47 input   59.86 | X-H torsion
[ 10167 10162 10161 10158 ] final  158.09 input  -65.29 | X-H torsion
[ 10718 10713 10712 10709 ] final   54.61 input   66.30 | X-H torsion
[ 10763 10752 10751 10750 ] final  -87.54 input  -60.55 | X-H torsion
[ 11005 11000 10999 10996 ] final   92.25 input  -57.11 | X-H torsion

> <Gold.Protein.ActiveResidues>
 VAL166  LYS551  ARG553  GLY616  TRP617  ASP618  TYR619  PRO620  LYS621  CYS622 
 ASP623  PHE694  ASN695  SER759  ASP760  ASP761  ALA762  ILE779  LEU786  VAL792 
 PHE793  MET794  SER795  GLU796  ALA797  LYS798  CYS799  TRP800  GLU811  SER814 

> <Gold.Protein.RotatedAtoms>
  151.8311  135.0621  160.0436 H   0  0  0  0  0  0  0  0  0  0  0  0  # atno 6907 bound_to 6896
  152.2880  133.5529  159.5548 H   0  0  0  0  0  0  0  0  0  0  0  0  # atno 6908 bound_to 6896
  150.7217  134.0385  159.3800 H   0  0  0  0  0  0  0  0  0  0  0  0  # atno 6909 bound_to 6896
  144.9779  140.7611  143.4630 H   0  0  0  0  0  0  0  0  0  0  0  0  # atno 7974 bound_to 7965
  156.2989  140.2366  156.4243 H   0  0  0  0  0  0  0  0  0  0  0  0  # atno 8008 bound_to 7997
  154.8327  140.0432  157.1508 H   0  0  0  0  0  0  0  0  0  0  0  0  # atno 8009 bound_to 7997
  154.9189  140.3001  155.5230 H   0  0  0  0  0  0  0  0  0  0  0  0  # atno 8010 bound_to 7997
  139.4825  144.4857  151.8381 H   0  0  0  0  0  0  0  0  0  0  0  0  # atno 10167 bound_to 10162
  157.5272  130.8605  149.8638 H   0  0  0  0  0  0  0  0  0  0  0  0  # atno 10718 bound_to 10713
  154.6347  135.5409  153.7720 H   0  0  0  0  0  0  0  0  0  0  0  0  # atno 10763 bound_to 10752
  153.0302  135.6444  154.1249 H   0  0  0  0  0  0  0  0  0  0  0  0  # atno 10764 bound_to 10752
  154.1177  135.2922  155.3196 H   0  0  0  0  0  0  0  0  0  0  0  0  # atno 10765 bound_to 10752
  139.8826  134.8722  156.3546 H   0  0  0  0  0  0  0  0  0  0  0  0  # atno 11005 bound_to 11000
  145.2464  139.2050  143.4966 LP  0  0  0  0  0  0  0  0  0  0  0  0  # atno 17320 bound_to 7965
  146.3400  140.2368  142.8594 LP  0  0  0  0  0  0  0  0  0  0  0  0  # atno 17321 bound_to 7965
  140.4336  144.2082  150.5888 LP  0  0  0  0  0  0  0  0  0  0  0  0  # atno 17342 bound_to 10162
  140.4754  143.2398  151.9030 LP  0  0  0  0  0  0  0  0  0  0  0  0  # atno 17343 bound_to 10162
  156.0395  130.3742  150.1471 LP  0  0  0  0  0  0  0  0  0  0  0  0  # atno 17370 bound_to 10713
  156.9657  130.9819  151.3469 LP  0  0  0  0  0  0  0  0  0  0  0  0  # atno 17371 bound_to 10713
  140.9571  133.7413  156.0350 LP  0  0  0  0  0  0  0  0  0  0  0  0  # atno 17394 bound_to 11000
  140.8035  134.3481  157.5433 LP  0  0  0  0  0  0  0  0  0  0  0  0  # atno 17395 bound_to 11000

$$$$
