AV-unprocessed.smi:3346|AV-procd|sdf|12907|dock1
  -GOLD-   2272019323D 1   1.00000     0.00000
 Structure written by MMmdl.
 48 49  0  0  0  0  0  0  0  0  2 V2000
  152.6095  144.3261  158.3664 C   0  0  0  0  0  0  0  0  0  0  0  0
  152.1691  143.3105  159.4341 C   0  0  0  0  0  0  0  0  0  0  0  0
  153.3965  142.6594  160.0902 C   0  0  0  0  0  0  0  0  0  0  0  0
  151.2314  142.2240  158.8656 C   0  0  0  0  0  0  0  0  0  0  0  0
  150.0127  142.7231  158.0540 C   0  0  2  0  0  0  0  0  0  0  0  0
  148.8176  141.7614  158.1441 C   0  0  0  0  0  0  0  0  0  0  0  0
  150.3943  142.8868  156.6352 N   0  3  0  0  0  0  0  0  0  0  0  0
  150.6285  141.6271  155.8987 C   0  0  0  0  0  0  0  0  0  0  0  0
  149.3806  141.2317  155.1274 C   0  0  0  0  0  0  0  0  0  0  0  0
  148.4714  142.2262  154.7087 C   0  0  0  0  0  0  0  0  0  0  0  0
  147.3091  141.8433  154.0155 C   0  0  0  0  0  0  0  0  0  0  0  0
  147.0996  140.4740  153.7681 C   0  0  0  0  0  0  0  0  0  0  0  0
  147.9598  139.5124  154.1634 N   0  0  0  0  0  0  0  0  0  0  0  0
  149.0816  139.8759  154.8306 C   0  0  0  0  0  0  0  0  0  0  0  0
  149.9688  138.8551  155.2154 N   0  0  0  0  0  0  0  0  0  0  0  0
  149.4521  137.4943  155.1140 C   0  0  0  0  0  0  0  0  0  0  0  0
  150.4689  136.5030  155.7060 C   0  0  0  0  0  0  0  0  0  0  0  0
  151.7197  136.6523  155.0408 O   0  0  0  0  0  0  0  0  0  0  0  0
  152.2596  137.9615  155.1965 C   0  0  0  0  0  0  0  0  0  0  0  0
  151.2866  138.9995  154.6089 C   0  0  0  0  0  0  0  0  0  0  0  0
  153.0991  143.8321  157.5264 H   0  0  0  0  0  0  0  0  0  0  0  0
  153.3131  145.0484  158.7809 H   0  0  0  0  0  0  0  0  0  0  0  0
  151.7646  144.8936  157.9772 H   0  0  0  0  0  0  0  0  0  0  0  0
  151.6439  143.8543  160.2192 H   0  0  0  0  0  0  0  0  0  0  0  0
  153.9804  142.0917  159.3649 H   0  0  0  0  0  0  0  0  0  0  0  0
  153.1018  141.9751  160.8867 H   0  0  0  0  0  0  0  0  0  0  0  0
  154.0530  143.4102  160.5312 H   0  0  0  0  0  0  0  0  0  0  0  0
  151.8306  141.5565  158.2478 H   0  0  0  0  0  0  0  0  0  0  0  0
  150.8668  141.6071  159.6884 H   0  0  0  0  0  0  0  0  0  0  0  0
  149.6875  143.6968  158.4218 H   0  0  0  0  0  0  0  0  0  0  0  0
  148.4335  141.6934  159.1617 H   0  0  0  0  0  0  0  0  0  0  0  0
  149.0894  140.7560  157.8206 H   0  0  0  0  0  0  0  0  0  0  0  0
  147.9938  142.1010  157.5155 H   0  0  0  0  0  0  0  0  0  0  0  0
  149.6605  143.4043  156.1729 H   0  0  0  0  0  0  0  0  0  0  0  0
  151.4688  141.7636  155.2174 H   0  0  0  0  0  0  0  0  0  0  0  0
  150.9127  140.8203  156.5736 H   0  0  0  0  0  0  0  0  0  0  0  0
  148.6581  143.2694  154.9185 H   0  0  0  0  0  0  0  0  0  0  0  0
  146.5937  142.5807  153.6825 H   0  0  0  0  0  0  0  0  0  0  0  0
  146.2183  140.1420  153.2396 H   0  0  0  0  0  0  0  0  0  0  0  0
  148.5016  137.4194  155.6433 H   0  0  0  0  0  0  0  0  0  0  0  0
  149.2635  137.2440  154.0691 H   0  0  0  0  0  0  0  0  0  0  0  0
  150.5939  136.6622  156.7780 H   0  0  0  0  0  0  0  0  0  0  0  0
  150.1167  135.4799  155.5747 H   0  0  0  0  0  0  0  0  0  0  0  0
  152.4558  138.1607  156.2507 H   0  0  0  0  0  0  0  0  0  0  0  0
  153.2188  138.0132  154.6812 H   0  0  0  0  0  0  0  0  0  0  0  0
  151.2046  138.8625  153.5295 H   0  0  0  0  0  0  0  0  0  0  0  0
  151.6702  140.0068  154.7756 H   0  0  0  0  0  0  0  0  0  0  0  0
  151.2451  143.4291  156.5890 H   0  0  0  0  0  0  0  0  0  0  0  0
  1  2  1  0  0  0  0
  1 21  1  0  0  0  0
  1 22  1  0  0  0  0
  1 23  1  0  0  0  0
  2  3  1  0  0  0  0
  2  4  1  0  0  0  0
  2 24  1  0  0  0  0
  3 25  1  0  0  0  0
  3 26  1  0  0  0  0
  3 27  1  0  0  0  0
  4  5  1  0  0  0  0
  4 28  1  0  0  0  0
  4 29  1  0  0  0  0
  5  6  1  0  0  0  0
  5  7  1  0  0  0  0
  5 30  1  0  0  0  0
  6 31  1  0  0  0  0
  6 32  1  0  0  0  0
  6 33  1  0  0  0  0
  7  8  1  0  0  0  0
  7 34  1  0  0  0  0
  7 48  1  0  0  0  0
  8  9  1  0  0  0  0
  8 35  1  0  0  0  0
  8 36  1  0  0  0  0
  9 14  1  0  0  0  0
  9 10  2  0  0  0  0
 10 11  1  0  0  0  0
 10 37  1  0  0  0  0
 11 12  2  0  0  0  0
 11 38  1  0  0  0  0
 12 13  1  0  0  0  0
 12 39  1  0  0  0  0
 13 14  2  0  0  0  0
 14 15  1  0  0  0  0
 15 20  1  0  0  0  0
 15 16  1  0  0  0  0
 16 17  1  0  0  0  0
 16 40  1  0  0  0  0
 16 41  1  0  0  0  0
 17 18  1  0  0  0  0
 17 42  1  0  0  0  0
 17 43  1  0  0  0  0
 18 19  1  0  0  0  0
 19 20  1  0  0  0  0
 19 44  1  0  0  0  0
 19 45  1  0  0  0  0
 20 46  1  0  0  0  0
 20 47  1  0  0  0  0
M  CHG  1   7   1
M  END
> <s_m_source_file>
AV-unprocessed.smi

> <i_m_source_file_index>
3346

> <i_lp_mmshare_version>
43012

> <i_f3d_flags>
0

> <s_epik_input>
W0NIM11bQ0hdKFtDSDNdKVtDSDJdW0NASF0oW0NIM10pW05IXVtDSDJdYzFbY0hdW2NIXVtjSF1uYzFOMltDSDJdW0NIMl1PW0NIMl1bQ0gyXTI=

> <s_epik_cmdline>
J2VwaWtfcHl0aG9uJywgJy1waCcsICc3LjAnLCAnLXRuJywgJzgnLCAnLW1hJywgJzIwMCcsICctbWV0YWxfYmluZGluZycsICctaW1hZScsICc8aW5maWxlLm1hZT4nLCAnLW9tYWUnLCAnPG91dGZpbGUubWFlPic=

> <r_lp_tautomer_probability>
1

> <r_epik_Ionization_Penalty>
0.0185938

> <r_epik_Ionization_Penalty_Charging>
0.0176519

> <r_epik_Ionization_Penalty_Neutral>
0.000941891

> <r_epik_State_Penalty>
0.0140027

> <r_epik_Charging_Adjusted_Penalty>
0.0316546

> <i_epik_Tot_Q>
1

> <i_epik_Tot_abs_Q>
1

> <r_epik_Metal_State_Penalty>
0.0141454

> <b_epik_Metal_Only>
0

> <s_lp_Force_Field>
OPLS_2005

> <r_lp_Energy>
22.6913

> <b_lp_Chiralities_Consistent>
1

> <s_lp_Variant>
AV-unprocessed.smi:3346-1

> <Gold.Version>
5.8.1

> <Gold.Id.Protein>
6NUR|6NUR_protein|mol2

> <Gold.PLP.Fitness>
48.2073

> <Gold.PLP.PLP>
-39.4036

> <Gold.PLP.part.hbond>
-1.9630

> <Gold.PLP.part.metal>
0.0000

> <Gold.PLP.part.buried>
-1.5079

> <Gold.PLP.part.nonpolar>
-36.5314

> <Gold.PLP.part.repulsive>
0.3835

> <Gold.PLP.ligand.clash>
0.0000

> <Gold.PLP.ligand.torsion>
1.1850

> <Gold.PLP.Chemscore.Hbond>
3.0000

> <Gold.PLP.Chemscore.CHOScore>
0.6353

> <Gold.PLP.Chemscore.Metal>
0.0000

> <Gold.Chemscore.Hbonds>
donor molecule, donor type, donor heavy atom, donor atom, acceptor molecule, acceptor atom, score
      L1  H     7    34       P1  8028  2.00
      P1  H 10752 10765       L1    18  1.00
      L1  C    12    39       P1 10175  0.66

> <Gold.PLP.Chemscore.Internal.Correction>
0.2679

> <Gold.Rescore>
     Score         DG    S(hbond)    S(metal)    S(lipo)     H(rot)  DE(clash)    DE(int)     intcor
     18.51     -21.45       1.89        0.00     118.16       1.62       1.66       1.29       ----

> <Gold.Chemscore.Fitness>
18.5075

> <Gold.Chemscore.DG>
-21.4487

> <Gold.Chemscore.ZeroCoef>
-5.4800

> <Gold.Chemscore.Hbond>
1.8874

> <Gold.Chemscore.Metal>
0.0000

> <Gold.Chemscore.Lipo>
118.1563

> <Gold.Chemscore.Internal_Hbond>
0.0000

> <Gold.Chemscore.DEClash>
1.6558

> <Gold.Chemscore.DEInternal>
1.2854

> <Gold.Chemscore.Rot>
1.6248

> <Gold.Chemscore.Internal.Correction>
   9.000000E+99

> <Gold.Chemscore.Hbonds>
donor molecule, donor type, donor heavy atom, donor atom, acceptor molecule, acceptor atom, score
      L1  H     7    34       P1  8028  0.97
      P1  H 10752 10765       L1    18  0.63

> <Gold.Chemscore.Hbond.Weighted>
-6.3040

> <Gold.Chemscore.Metal.Weighted>
-0.0000

> <Gold.Chemscore.Lipo.Weighted>
-13.8243

> <Gold.Chemscore.Internal_Hbond.Weighted>
0.0000

> <Gold.Chemscore.DEClash.Weighted>
1.6558

> <Gold.Chemscore.DEInternal.Weighted>
1.2854

> <Gold.Chemscore.Rot.Weighted>
4.1596

> <Gold.Chemscore.Internal.Correction.Weighted>
   9.000000E+99

> <Gold.Protein.RotatedTorsions>
[ 6907 6896 6895 6894 ] final -141.66 input  -60.11 | X-H torsion
[ 7974 7965 7964 7962 ] final  -44.35 input  175.53 | X-H torsion
[ 8008 7997 7996 7995 ] final  -52.70 input   59.86 | X-H torsion
[ 10167 10162 10161 10158 ] final   65.07 input  -65.29 | X-H torsion
[ 10718 10713 10712 10709 ] final  -60.52 input   66.30 | X-H torsion
[ 10763 10752 10751 10750 ] final -164.45 input  -60.55 | X-H torsion
[ 11005 11000 10999 10996 ] final   99.24 input  -57.11 | X-H torsion

> <Gold.Protein.ActiveResidues>
 VAL166  LYS551  ARG553  GLY616  TRP617  ASP618  TYR619  PRO620  LYS621  CYS622 
 ASP623  PHE694  ASN695  SER759  ASP760  ASP761  ALA762  ILE779  LEU786  VAL792 
 PHE793  MET794  SER795  GLU796  ALA797  LYS798  CYS799  TRP800  GLU811  SER814 

> <Gold.Protein.RotatedAtoms>
  151.0767  133.5422  159.2623 H   0  0  0  0  0  0  0  0  0  0  0  0  # atno 6907 bound_to 6896
  151.2341  135.0564  159.9009 H   0  0  0  0  0  0  0  0  0  0  0  0  # atno 6908 bound_to 6896
  152.5418  134.0552  159.8181 H   0  0  0  0  0  0  0  0  0  0  0  0  # atno 6909 bound_to 6896
  145.9929  140.7161  142.9308 H   0  0  0  0  0  0  0  0  0  0  0  0  # atno 7974 bound_to 7965
  154.4113  140.1217  156.5034 H   0  0  0  0  0  0  0  0  0  0  0  0  # atno 8008 bound_to 7997
  155.6872  140.3495  155.4859 H   0  0  0  0  0  0  0  0  0  0  0  0  # atno 8009 bound_to 7997
  155.9500  140.1103  157.0974 H   0  0  0  0  0  0  0  0  0  0  0  0  # atno 8010 bound_to 7997
  140.1153  144.4781  150.6953 H   0  0  0  0  0  0  0  0  0  0  0  0  # atno 10167 bound_to 10162
  156.0985  130.4189  150.0865 H   0  0  0  0  0  0  0  0  0  0  0  0  # atno 10718 bound_to 10713
  154.7027  135.2991  154.9316 H   0  0  0  0  0  0  0  0  0  0  0  0  # atno 10763 bound_to 10752
  154.0243  135.6678  153.4779 H   0  0  0  0  0  0  0  0  0  0  0  0  # atno 10764 bound_to 10752
  153.0693  135.5070  154.8180 H   0  0  0  0  0  0  0  0  0  0  0  0  # atno 10765 bound_to 10752
  139.8771  134.9086  156.4576 H   0  0  0  0  0  0  0  0  0  0  0  0  # atno 11005 bound_to 11000
  144.6894  140.3100  143.7249 LP  0  0  0  0  0  0  0  0  0  0  0  0  # atno 17320 bound_to 7965
  145.7603  139.1822  143.2270 LP  0  0  0  0  0  0  0  0  0  0  0  0  # atno 17321 bound_to 7965
  140.6903  143.2372  151.5149 LP  0  0  0  0  0  0  0  0  0  0  0  0  # atno 17342 bound_to 10162
  139.5597  144.2186  152.1672 LP  0  0  0  0  0  0  0  0  0  0  0  0  # atno 17343 bound_to 10162
  156.8858  130.9572  151.3594 LP  0  0  0  0  0  0  0  0  0  0  0  0  # atno 17370 bound_to 10713
  157.6151  130.8612  149.9015 LP  0  0  0  0  0  0  0  0  0  0  0  0  # atno 17371 bound_to 10713
  140.8887  133.7864  155.9547 LP  0  0  0  0  0  0  0  0  0  0  0  0  # atno 17394 bound_to 11000
  140.8777  134.2649  157.5160 LP  0  0  0  0  0  0  0  0  0  0  0  0  # atno 17395 bound_to 11000

$$$$
