AV-unprocessed.smi:83|AV-procd|sdf|800|dock3
  -GOLD-   2262017183D 1   1.00000     0.00000
 Structure written by MMmdl.
 56 59  0  0  0  0  0  0  0  0  1 V2000
  151.7190  144.6481  162.0828 C   0  0  0  0  0  0  0  0  0  0  0  0
  151.7276  144.9616  160.5855 C   0  0  0  0  0  0  0  0  0  0  0  0
  151.5634  146.1251  160.2194 O   0  0  0  0  0  0  0  0  0  0  0  0
  151.9145  143.9483  159.7156 N   0  0  0  0  0  0  0  0  0  0  0  0
  152.1140  142.5585  160.1171 C   0  0  0  0  0  0  0  0  0  0  0  0
  152.3557  141.7880  158.8156 C   0  0  0  0  0  0  0  0  0  0  0  0
  151.6618  142.6255  157.7418 C   0  0  1  0  0  0  0  0  0  0  0  0
  150.1710  142.2214  157.6310 C   0  0  0  0  0  0  0  0  0  0  0  0
  149.9341  141.0095  156.8446 N   0  0  0  0  0  0  0  0  0  0  0  0
  151.0815  140.4426  156.1380 C   0  0  0  0  0  0  0  0  0  0  0  0
  148.6752  140.6490  156.4515 C   0  0  0  0  0  0  0  0  0  0  0  0
  147.6246  141.0630  157.2121 N   0  0  0  0  0  0  0  0  0  0  0  0
  146.3724  140.7124  156.9112 C   0  0  0  0  0  0  0  0  0  0  0  0
  145.9402  139.9562  155.9037 N   0  0  0  0  0  0  0  0  0  0  0  0
  146.9755  139.5436  155.1206 C   0  0  0  0  0  0  0  0  0  0  0  0
  148.3573  139.8461  155.3092 C   0  0  0  0  0  0  0  0  0  0  0  0
  149.0921  139.2529  154.2862 N   0  0  0  0  0  0  0  0  0  0  0  0
  148.2106  138.6255  153.5595 C   0  0  0  0  0  0  0  0  0  0  0  0
  146.9127  138.7466  153.9913 N   0  0  0  0  0  0  0  0  0  0  0  0
  145.7383  138.1530  153.3772 C   0  0  0  0  0  0  0  0  0  0  0  0
  146.0956  137.2295  152.1970 C   0  0  2  0  0  0  0  0  0  0  0  0
  146.5737  137.9843  151.0996 O   0  0  0  0  0  0  0  0  0  0  0  0
  144.9202  136.3267  151.7694 C   0  0  2  0  0  0  0  0  0  0  0  0
  144.3818  135.3571  152.8255 C   0  0  0  0  0  0  0  0  0  0  0  0
  143.7277  134.3075  151.9553 C   0  0  0  0  0  0  0  0  0  0  0  0
  144.7028  134.2239  150.7837 C   0  0  0  0  0  0  0  0  0  0  0  0
  145.2391  135.5348  150.6272 O   0  0  0  0  0  0  0  0  0  0  0  0
  151.9013  144.0530  158.2586 C   0  0  0  0  0  0  0  0  0  0  0  0
  150.9984  143.8624  162.3104 H   0  0  0  0  0  0  0  0  0  0  0  0
  151.4455  145.5323  162.6593 H   0  0  0  0  0  0  0  0  0  0  0  0
  152.7054  144.3247  162.4143 H   0  0  0  0  0  0  0  0  0  0  0  0
  152.9516  142.4508  160.8079 H   0  0  0  0  0  0  0  0  0  0  0  0
  151.2131  142.1974  160.6157 H   0  0  0  0  0  0  0  0  0  0  0  0
  153.4266  141.7526  158.6105 H   0  0  0  0  0  0  0  0  0  0  0  0
  151.9986  140.7586  158.8623 H   0  0  0  0  0  0  0  0  0  0  0  0
  152.1430  142.4812  156.7737 H   0  0  0  0  0  0  0  0  0  0  0  0
  149.8006  142.0199  158.6366 H   0  0  0  0  0  0  0  0  0  0  0  0
  149.5665  143.0583  157.2984 H   0  0  0  0  0  0  0  0  0  0  0  0
  151.0374  139.3529  156.1364 H   0  0  0  0  0  0  0  0  0  0  0  0
  152.0178  140.7328  156.6150 H   0  0  0  0  0  0  0  0  0  0  0  0
  151.1101  140.7926  155.1056 H   0  0  0  0  0  0  0  0  0  0  0  0
  145.6083  141.0872  157.5765 H   0  0  0  0  0  0  0  0  0  0  0  0
  148.4853  138.0537  152.6850 H   0  0  0  0  0  0  0  0  0  0  0  0
  145.2020  137.5924  154.1438 H   0  0  0  0  0  0  0  0  0  0  0  0
  145.0705  138.9524  153.0538 H   0  0  0  0  0  0  0  0  0  0  0  0
  146.9167  136.5807  152.5045 H   0  0  0  0  0  0  0  0  0  0  0  0
  145.9003  138.0099  150.4372 H   0  0  0  0  0  0  0  0  0  0  0  0
  144.0940  136.9688  151.4594 H   0  0  0  0  0  0  0  0  0  0  0  0
  145.1866  134.9003  153.4021 H   0  0  0  0  0  0  0  0  0  0  0  0
  143.6890  135.8292  153.5224 H   0  0  0  0  0  0  0  0  0  0  0  0
  143.5883  133.3528  152.4632 H   0  0  0  0  0  0  0  0  0  0  0  0
  142.7542  134.6588  151.6108 H   0  0  0  0  0  0  0  0  0  0  0  0
  145.5210  133.5426  151.0198 H   0  0  0  0  0  0  0  0  0  0  0  0
  144.2260  133.8756  149.8673 H   0  0  0  0  0  0  0  0  0  0  0  0
  151.1756  144.7703  157.8833 H   0  0  0  0  0  0  0  0  0  0  0  0
  152.8837  144.4028  157.9383 H   0  0  0  0  0  0  0  0  0  0  0  0
  1  2  1  0  0  0  0
  1 29  1  0  0  0  0
  1 30  1  0  0  0  0
  1 31  1  0  0  0  0
  2  3  2  0  0  0  0
  2  4  1  0  0  0  0
  4 28  1  0  0  0  0
  4  5  1  0  0  0  0
  5  6  1  0  0  0  0
  5 32  1  0  0  0  0
  5 33  1  0  0  0  0
  6  7  1  0  0  0  0
  6 34  1  0  0  0  0
  6 35  1  0  0  0  0
  7  8  1  0  0  0  0
  7 28  1  0  0  0  0
  7 36  1  0  0  0  0
  8  9  1  0  0  0  0
  8 37  1  0  0  0  0
  8 38  1  0  0  0  0
  9 10  1  0  0  0  0
  9 11  1  0  0  0  0
 10 39  1  0  0  0  0
 10 40  1  0  0  0  0
 10 41  1  0  0  0  0
 11 16  1  0  0  0  0
 11 12  2  0  0  0  0
 12 13  1  0  0  0  0
 13 14  2  0  0  0  0
 13 42  1  0  0  0  0
 14 15  1  0  0  0  0
 15 19  1  0  0  0  0
 15 16  2  0  0  0  0
 16 17  1  0  0  0  0
 17 18  2  0  0  0  0
 18 19  1  0  0  0  0
 18 43  1  0  0  0  0
 19 20  1  0  0  0  0
 20 21  1  0  0  0  0
 20 44  1  0  0  0  0
 20 45  1  0  0  0  0
 21 22  1  0  0  0  0
 21 23  1  0  0  0  0
 21 46  1  0  0  0  0
 22 47  1  0  0  0  0
 23 27  1  0  0  0  0
 23 24  1  0  0  0  0
 23 48  1  0  0  0  0
 24 25  1  0  0  0  0
 24 49  1  0  0  0  0
 24 50  1  0  0  0  0
 25 26  1  0  0  0  0
 25 51  1  0  0  0  0
 25 52  1  0  0  0  0
 26 27  1  0  0  0  0
 26 53  1  0  0  0  0
 26 54  1  0  0  0  0
 28 55  1  0  0  0  0
 28 56  1  0  0  0  0
M  END
> <s_m_source_file>
AV-unprocessed.smi

> <i_m_source_file_index>
83

> <i_lp_mmshare_version>
43012

> <i_f3d_flags>
0

> <s_epik_input>
W0NIM11DKD1PKU4xW0NIMl1bQ0gyXVtDQEhdKFtDSDJdMSlbQ0gyXU4oW0NIM10pYyhuW2NIXW4yKWMoYzIzKW5bY0hdbjNbQ0gyXVtDQEhdKFtPSF0pW0NAQEhdNFtDSDJdW0NIMl1bQ0gyXU80

> <s_epik_cmdline>
J2VwaWtfcHl0aG9uJywgJy1waCcsICc3LjAnLCAnLXRuJywgJzgnLCAnLW1hJywgJzIwMCcsICctbWV0YWxfYmluZGluZycsICctaW1hZScsICc8aW5maWxlLm1hZT4nLCAnLW9tYWUnLCAnPG91dGZpbGUubWFlPic=

> <r_lp_tautomer_probability>
1

> <r_epik_Ionization_Penalty>
0.00109752

> <r_epik_Ionization_Penalty_Charging>
0

> <r_epik_Ionization_Penalty_Neutral>
0.00109752

> <r_epik_State_Penalty>
0.000634803

> <r_epik_Charging_Adjusted_Penalty>
0.000634803

> <i_epik_Tot_Q>
0

> <i_epik_Tot_abs_Q>
0

> <r_epik_Metal_State_Penalty>
-0

> <b_epik_Metal_Only>
0

> <s_lp_Force_Field>
OPLS_2005

> <r_lp_Energy>
57.114

> <b_lp_Chiralities_Consistent>
1

> <s_lp_Variant>
AV-unprocessed.smi:83-1

> <Gold.Version>
5.8.1

> <Gold.Id.Protein>
6NUR|6NUR_protein|mol2

> <Gold.PLP.Fitness>
51.5063

> <Gold.PLP.PLP>
-41.8176

> <Gold.PLP.part.hbond>
-4.3949

> <Gold.PLP.part.metal>
0.0000

> <Gold.PLP.part.buried>
1.2564

> <Gold.PLP.part.nonpolar>
-39.7346

> <Gold.PLP.part.repulsive>
1.3194

> <Gold.PLP.ligand.clash>
0.0000

> <Gold.PLP.ligand.torsion>
0.5201

> <Gold.PLP.Chemscore.Hbond>
2.0000

> <Gold.PLP.Chemscore.CHOScore>
1.4410

> <Gold.PLP.Chemscore.Metal>
0.0000

> <Gold.Chemscore.Hbonds>
donor molecule, donor type, donor heavy atom, donor atom, acceptor molecule, acceptor atom, score
      L1  H    22    47       P1 10171  0.62
      P1  H  7954  7966       L1    22  0.90
      L1  C    18    43       P1  7948  1.00
      L1  C    18    43       P1  7957  0.22

> <Gold.PLP.Chemscore.Internal.Correction>
0.4057

> <Gold.Rescore>
     Score         DG    S(hbond)    S(metal)    S(lipo)     H(rot)  DE(clash)    DE(int)     intcor
     10.51     -15.43       1.47        0.00     100.37       2.62       3.20       1.72       ----

> <Gold.Chemscore.Fitness>
10.5070

> <Gold.Chemscore.DG>
-15.4289

> <Gold.Chemscore.ZeroCoef>
-5.4800

> <Gold.Chemscore.Hbond>
1.4671

> <Gold.Chemscore.Metal>
0.0000

> <Gold.Chemscore.Lipo>
100.3728

> <Gold.Chemscore.Internal_Hbond>
0.0000

> <Gold.Chemscore.DEClash>
3.1999

> <Gold.Chemscore.DEInternal>
1.7220

> <Gold.Chemscore.Rot>
2.6152

> <Gold.Chemscore.Internal.Correction>
   9.000000E+99

> <Gold.Chemscore.Hbonds>
donor molecule, donor type, donor heavy atom, donor atom, acceptor molecule, acceptor atom, score
      L1  H    22    47       P1 10171  0.57
      P1  H  7954  7966       L1    22  0.17

> <Gold.Chemscore.Hbond.Weighted>
-4.9002

> <Gold.Chemscore.Metal.Weighted>
-0.0000

> <Gold.Chemscore.Lipo.Weighted>
-11.7436

> <Gold.Chemscore.Internal_Hbond.Weighted>
0.0000

> <Gold.Chemscore.DEClash.Weighted>
3.1999

> <Gold.Chemscore.DEInternal.Weighted>
1.7220

> <Gold.Chemscore.Rot.Weighted>
6.6949

> <Gold.Chemscore.Internal.Correction.Weighted>
   9.000000E+99

> <Gold.Protein.RotatedTorsions>
[ 6907 6896 6895 6894 ] final  -87.72 input  -60.11 | X-H torsion
[ 7974 7965 7964 7962 ] final  172.58 input  175.53 | X-H torsion
[ 8008 7997 7996 7995 ] final  -49.89 input   59.86 | X-H torsion
[ 10167 10162 10161 10158 ] final  116.90 input  -65.29 | X-H torsion
[ 10718 10713 10712 10709 ] final  158.25 input   66.30 | X-H torsion
[ 10763 10752 10751 10750 ] final   41.49 input  -60.55 | X-H torsion
[ 11005 11000 10999 10996 ] final  123.47 input  -57.11 | X-H torsion

> <Gold.Protein.ActiveResidues>
 VAL166  LYS551  ARG553  GLY616  TRP617  ASP618  TYR619  PRO620  LYS621  CYS622 
 ASP623  PHE694  ASN695  SER759  ASP760  ASP761  ALA762  ILE779  LEU786  VAL792 
 PHE793  MET794  SER795  GLU796  ALA797  LYS798  CYS799  TRP800  GLU811  SER814 

> <Gold.Protein.RotatedAtoms>
  150.6867  134.2852  159.4643 H   0  0  0  0  0  0  0  0  0  0  0  0  # atno 6907 bound_to 6896
  152.0763  134.9498  160.0583 H   0  0  0  0  0  0  0  0  0  0  0  0  # atno 6908 bound_to 6896
  152.0868  133.4146  159.4563 H   0  0  0  0  0  0  0  0  0  0  0  0  # atno 6909 bound_to 6896
  144.7264  139.9520  143.6432 H   0  0  0  0  0  0  0  0  0  0  0  0  # atno 7974 bound_to 7965
  154.4052  140.1285  156.4577 H   0  0  0  0  0  0  0  0  0  0  0  0  # atno 8008 bound_to 7997
  155.7304  140.3491  155.5037 H   0  0  0  0  0  0  0  0  0  0  0  0  # atno 8009 bound_to 7997
  155.9133  140.1039  157.1253 H   0  0  0  0  0  0  0  0  0  0  0  0  # atno 8010 bound_to 7997
  139.6215  144.7101  151.2624 H   0  0  0  0  0  0  0  0  0  0  0  0  # atno 10167 bound_to 10162
  157.1805  131.0631  151.2134 H   0  0  0  0  0  0  0  0  0  0  0  0  # atno 10718 bound_to 10713
  152.9907  135.6160  154.2796 H   0  0  0  0  0  0  0  0  0  0  0  0  # atno 10763 bound_to 10752
  154.2526  135.2785  155.2812 H   0  0  0  0  0  0  0  0  0  0  0  0  # atno 10764 bound_to 10752
  154.5275  135.5797  153.6789 H   0  0  0  0  0  0  0  0  0  0  0  0  # atno 10765 bound_to 10752
  139.9314  134.9641  156.8264 H   0  0  0  0  0  0  0  0  0  0  0  0  # atno 11005 bound_to 11000
  146.0704  139.3693  143.0526 LP  0  0  0  0  0  0  0  0  0  0  0  0  # atno 17320 bound_to 7965
  145.7976  140.9786  143.1016 LP  0  0  0  0  0  0  0  0  0  0  0  0  # atno 17321 bound_to 7965
  140.7385  143.6647  150.8134 LP  0  0  0  0  0  0  0  0  0  0  0  0  # atno 17342 bound_to 10162
  140.0258  143.5495  152.2781 LP  0  0  0  0  0  0  0  0  0  0  0  0  # atno 17343 bound_to 10162
  157.3957  130.7306  149.6730 LP  0  0  0  0  0  0  0  0  0  0  0  0  # atno 17370 bound_to 10713
  155.9725  130.4134  150.4082 LP  0  0  0  0  0  0  0  0  0  0  0  0  # atno 17371 bound_to 10713
  140.6192  134.0010  155.7610 LP  0  0  0  0  0  0  0  0  0  0  0  0  # atno 17394 bound_to 11000
  141.0905  133.9924  157.3245 LP  0  0  0  0  0  0  0  0  0  0  0  0  # atno 17395 bound_to 11000

$$$$
