#       Name:                AV-unprocessed.smi:72
#       Creating user name   scv26
#       Creation time:       Thu Mar 26 17:01:54 2020


#       File generated by GOLD software.
#

@<TRIPOS>MOLECULE
AV-unprocessed.smi:72
    41    42     1
SMALL
NO_CHARGES


@<TRIPOS>ATOM
      1 ****        -5.0317  -0.0334  -0.3657 N.pl3          1 S1                 0.0000
      2 ****        -3.6946  -0.3671  -0.4254 C.2            1 S1                 0.0000
      3 ****        -2.7737   0.6651  -0.4251 N.pl3          1 S1                 1.0000
      4 ****        -1.4433   0.5125  -0.4753 C.2            1 S1                 0.0000
      5 ****        -0.9397  -0.7052  -0.5205 N.am           1 S1                 0.0000
      6 ****         0.5501  -0.9537  -0.5766 C.3            1 S1                 0.0000
      7 ****         1.1817   0.2347  -0.9441 O.3            1 S1                 0.0000
      8 ****         1.7889   0.8348   0.1953 C.3            1 S1                 0.0000
      9 ****         2.8750   1.8426  -0.2172 C.3            1 S1                 0.0000
     10 ****         2.2798   3.0820  -0.5372 O.3            1 S1                 0.0000
     11 ****         2.2768  -0.3814   0.9896 C.3            1 S1                 0.0000
     12 ****         3.4922  -0.8808   0.4617 O.3            1 S1                 0.0000
     13 ****         1.1530  -1.3901   0.7843 C.3            1 S1                 0.0000
     14 ****         0.2464  -1.3129   1.8719 O.3            1 S1                 0.0000
     15 ****        -1.8075  -1.8276  -0.5380 C.2            1 S1                 0.0000
     16 ****        -1.3464  -2.9675  -0.5854 O.2            1 S1                 0.0000
     17 ****        -3.1842  -1.5658  -0.4849 N.2            1 S1                 0.0000
     18 ****         0.6976  -1.6820  -1.3761 H              1 S1                 0.0000
     19 ****         1.0245   1.3364   0.7914 H              1 S1                 0.0000
     20 ****         2.4416  -0.1412   2.0411 H              1 S1                 0.0000
     21 ****         1.5242  -2.4137   0.7155 H              1 S1                 0.0000
     22 ****        -5.7726  -0.7201  -0.3625 H              1 S1                 0.0000
     23 ****        -5.3764   0.9147  -0.3170 H              1 S1                 0.0000
     24 ****        -0.8158   1.3933  -0.4819 H              1 S1                 0.0000
     25 ****         3.5624   2.0141   0.6117 H              1 S1                 0.0000
     26 ****         3.4624   1.4764  -1.0598 H              1 S1                 0.0000
     27 ****         2.9625   3.6895  -0.7792 H              1 S1                 0.0000
     28 ****         4.1668  -0.2316   0.5913 H              1 S1                 0.0000
     29 ****        -0.3656  -2.0304   1.8039 H              1 S1                 0.0000
     30 ****        -3.1356   1.6071  -0.3851 H              1 S1                 0.0000
     31 ****         0.5063   0.8635  -1.3294 LP             1 S1                 0.0000
     32 ****         1.8836   0.0389  -1.6290 LP             1 S1                 0.0000
     33 ****         1.7826   3.4323   0.2566 LP             1 S1                 0.0000
     34 ****         1.6464   2.9645  -1.3020 LP             1 S1                 0.0000
     35 ****         3.3848  -1.0645  -0.5154 LP             1 S1                 0.0000
     36 ****         3.7427  -1.7258   0.9342 LP             1 S1                 0.0000
     37 ****        -0.2474  -0.4439   1.8383 LP             1 S1                 0.0000
     38 ****         0.7481  -1.3780   2.7345 LP             1 S1                 0.0000
     39 ****        -0.3563  -3.1056  -0.6118 LP             1 S1                 0.0000
     40 ****        -1.9617  -3.7556  -0.5976 LP             1 S1                 0.0000
     41 ****        -3.8117  -2.3443  -0.4932 LP             1 S1                 0.0000
@<TRIPOS>BOND
    1    1    2 1     
    2    1   22 1     
    3    1   23 1     
    4    2   17 2     
    5    2    3 1     
    6    3    4 2     
    7    3   30 1     
    8    4    5 1     
    9    4   24 1     
   10    5    6 1     
   11    5   15 am    
   12    6   18 1     
   13    6   13 1     
   14    6    7 1     
   15    7    8 1     
   16    8   19 1     
   17    8    9 1     
   18    8   11 1     
   19    9   10 1     
   20    9   25 1     
   21    9   26 1     
   22   10   27 1     
   23   11   20 1     
   24   11   12 1     
   25   11   13 1     
   26   12   28 1     
   27   13   21 1     
   28   13   14 1     
   29   14   29 1     
   30   15   16 2     
   31   15   17 1     
   32    7   31 1     
   33    7   32 1     
   34   10   33 1     
   35   10   34 1     
   36   12   35 1     
   37   12   36 1     
   38   14   37 1     
   39   14   38 1     
   40   16   39 1     
   41   16   40 1     
   42   17   41 1     
@<TRIPOS>SUBSTRUCTURE
      1 S1             1
@<TRIPOS>SET
LONE_PAIRS      STATIC     ATOMS    <user>   **** ""
11 31 32 33 34 35 36 37 38 39 40 41
DONOR_HYDROGENS      STATIC     ATOMS    <user>   **** ""
6 22 23 30 27 28 29
ATOM$BLUE        STATIC     ATOMS    COLORGROUP SYSTEM
11 31 32 33 34 35 36 37 38 39 40 41
ATOM$RED        STATIC     ATOMS    COLORGROUP SYSTEM
6 22 23 30 27 28 29
