#       Name:                AV-unprocessed.smi:38
#       Creating user name   scv26
#       Creation time:       Thu Mar 26 16:18:10 2020


#       File generated by GOLD software.
#

@<TRIPOS>MOLECULE
AV-unprocessed.smi:38
    38    39     1
SMALL
NO_CHARGES


@<TRIPOS>ATOM
      1 ****        -2.3714   4.4258  -1.2279 O.2            1 S1                 0.0000
      2 ****        -2.0874   3.3092  -0.7971 C.2            1 S1                 0.0000
      3 ****        -3.0271   2.3507  -0.5520 N.pl3          1 S1                -1.0000
      4 ****        -2.7096   1.1120  -0.0730 C.2            1 S1                 0.0000
      5 ****        -3.5496   0.2357   0.1328 O.2            1 S1                 0.0000
      6 ****        -1.3470   0.8062   0.1952 N.am           1 S1                 0.0000
      7 ****        -0.9876  -0.5673   0.7228 C.3            1 S1                 0.0000
      8 ****        -0.8657  -1.5654  -0.4315 C.3            1 S1                 0.0000
      9 ****         0.6260  -1.5536  -0.6911 C.3            1 S1                 0.0000
     10 ****         1.0409  -2.7568  -1.3047 O.3            1 S1                 0.0000
     11 ****         1.1875  -1.3908   0.7234 C.3            1 S1                 0.0000
     12 ****         2.6023  -0.7914   0.7591 C.3            1 S1                 0.0000
     13 ****         3.2138  -1.0571   2.0035 O.3            1 S1                 0.0000
     14 ****         0.2585  -0.5116   1.3586 O.3            1 S1                 0.0000
     15 ****        -0.3713   1.7568  -0.0554 C.2            1 S1                 0.0000
     16 ****        -0.6888   2.9771  -0.5336 C.2            1 S1                 0.0000
     17 ****         0.2816   3.8770  -0.7681 F              1 S1                 0.0000
     18 ****        -1.7584  -0.8232   1.4515 H              1 S1                 0.0000
     19 ****         0.8925  -0.7001  -1.3162 H              1 S1                 0.0000
     20 ****         1.1569  -2.3547   1.2357 H              1 S1                 0.0000
     21 ****        -1.1941  -2.5419  -0.0719 H              1 S1                 0.0000
     22 ****        -1.4710  -1.2860  -1.2949 H              1 S1                 0.0000
     23 ****         0.6092  -2.8289  -2.1420 H              1 S1                 0.0000
     24 ****         3.2217  -1.2505  -0.0117 H              1 S1                 0.0000
     25 ****         2.5889   0.2808   0.5648 H              1 S1                 0.0000
     26 ****         4.0808  -0.6816   1.9979 H              1 S1                 0.0000
     27 ****         0.6673   1.5305   0.1262 H              1 S1                 0.0000
     28 ****        -1.6483   5.0962  -1.3945 LP             1 S1                 0.0000
     29 ****        -3.3253   4.6631  -1.4115 LP             1 S1                 0.0000
     30 ****        -3.9876   2.5641  -0.7305 LP             1 S1                 0.0000
     31 ****        -4.5157   0.4159  -0.0519 LP             1 S1                 0.0000
     32 ****        -3.2657  -0.6563   0.4846 LP             1 S1                 0.0000
     33 ****         0.7905  -3.5341  -0.7276 LP             1 S1                 0.0000
     34 ****         2.0322  -2.7448  -1.4358 LP             1 S1                 0.0000
     35 ****         3.2751  -2.0452   2.1451 LP             1 S1                 0.0000
     36 ****         2.6738  -0.6479   2.7389 LP             1 S1                 0.0000
     37 ****         0.1516  -0.7823   2.3153 LP             1 S1                 0.0000
     38 ****         0.6086   0.4240   1.3140 LP             1 S1                 0.0000
@<TRIPOS>BOND
    1    1    2 2     
    2    2   16 1     
    3    2    3 1     
    4    3    4 1     
    5    4    5 2     
    6    4    6 am    
    7    6    7 1     
    8    6   15 1     
    9    7   18 1     
   10    7   14 1     
   11    7    8 1     
   12    8    9 1     
   13    8   21 1     
   14    8   22 1     
   15    9   19 1     
   16    9   10 1     
   17    9   11 1     
   18   10   23 1     
   19   11   20 1     
   20   11   12 1     
   21   11   14 1     
   22   12   13 1     
   23   12   24 1     
   24   12   25 1     
   25   13   26 1     
   26   15   16 2     
   27   15   27 1     
   28   16   17 1     
   29    1   28 1     
   30    1   29 1     
   31    3   30 1     
   32    5   31 1     
   33    5   32 1     
   34   10   33 1     
   35   10   34 1     
   36   13   35 1     
   37   13   36 1     
   38   14   37 1     
   39   14   38 1     
@<TRIPOS>SUBSTRUCTURE
      1 S1             1
@<TRIPOS>SET
LONE_PAIRS      STATIC     ATOMS    <user>   **** ""
11 28 29 30 31 32 33 34 35 36 37 38
DONOR_HYDROGENS      STATIC     ATOMS    <user>   **** ""
2 23 26
ATOM$BLUE        STATIC     ATOMS    COLORGROUP SYSTEM
11 28 29 30 31 32 33 34 35 36 37 38
ATOM$RED        STATIC     ATOMS    COLORGROUP SYSTEM
2 23 26
