AV-unprocessed.smi:2001|AV-procd|sdf|8110|dock2
  -GOLD-   2272010333D 1   1.00000     0.00000
 Structure written by MMmdl.
 50 51  0  0  0  0  0  0  0  0  3 V2000
  146.7231  138.4937  152.5381 C   0  0  0  0  0  0  0  0  0  0  0  0
  146.9001  139.0852  153.8126 O   0  0  0  0  0  0  0  0  0  0  0  0
  147.0456  140.4942  153.7449 C   0  0  0  0  0  0  0  0  0  0  0  0
  148.5176  140.8567  153.4898 C   0  0  0  0  0  0  0  0  0  0  0  0
  149.3440  140.6623  154.6867 N   0  0  0  0  0  0  0  0  0  0  0  0
  150.3060  139.6755  154.5492 N   0  0  0  0  0  0  0  0  0  0  0  0
  151.1070  139.3986  155.5272 C   0  0  0  0  0  0  0  0  0  0  0  0
  152.1363  138.3188  155.3852 C   0  0  0  0  0  0  0  0  0  0  0  0
  153.2967  138.7159  155.2106 O   0  0  0  0  0  0  0  0  0  0  0  0
  151.7410  137.0116  155.4507 N   0  5  0  0  0  0  0  0  0  0  0  0
  150.4310  136.5457  155.9004 C   0  0  0  0  0  0  0  0  0  0  0  0
  150.3809  135.0075  155.8271 C   0  0  0  0  0  0  0  0  0  0  0  0
  149.0212  134.5040  155.4958 N   0  3  1  0  0  0  0  0  0  0  0  0
  148.9635  133.0252  155.4014 C   0  0  0  0  0  0  0  0  0  0  0  0
  147.5594  132.5460  154.9828 C   0  0  2  0  0  0  0  0  0  0  0  0
  147.2418  132.7958  153.4979 C   0  0  0  0  0  0  0  0  0  0  0  0
  146.5679  133.1002  155.8472 O   0  0  0  0  0  0  0  0  0  0  0  0
  146.5753  134.5229  155.9317 C   0  0  1  0  0  0  0  0  0  0  0  0
  145.4592  134.9423  156.8948 C   0  0  0  0  0  0  0  0  0  0  0  0
  147.9585  134.9987  156.4089 C   0  0  0  0  0  0  0  0  0  0  0  0
  151.0137  140.1290  156.7856 C   0  0  0  0  0  0  0  0  0  0  0  0
  150.0710  141.0890  156.9043 C   0  0  0  0  0  0  0  0  0  0  0  0
  149.1512  141.4116  155.8135 C   0  0  0  0  0  0  0  0  0  0  0  0
  148.2826  142.2791  155.9027 O   0  0  0  0  0  0  0  0  0  0  0  0
  146.6054  137.4160  152.6488 H   0  0  0  0  0  0  0  0  0  0  0  0
  147.5861  138.6745  151.8963 H   0  0  0  0  0  0  0  0  0  0  0  0
  145.8311  138.8805  152.0442 H   0  0  0  0  0  0  0  0  0  0  0  0
  146.4324  140.8799  152.9293 H   0  0  0  0  0  0  0  0  0  0  0  0
  146.6912  140.9615  154.6652 H   0  0  0  0  0  0  0  0  0  0  0  0
  148.9039  140.2929  152.6389 H   0  0  0  0  0  0  0  0  0  0  0  0
  148.5757  141.9035  153.1870 H   0  0  0  0  0  0  0  0  0  0  0  0
  150.2144  136.8547  156.9238 H   0  0  0  0  0  0  0  0  0  0  0  0
  149.6271  136.9571  155.2891 H   0  0  0  0  0  0  0  0  0  0  0  0
  151.0875  134.6859  155.0599 H   0  0  0  0  0  0  0  0  0  0  0  0
  150.7271  134.5597  156.7605 H   0  0  0  0  0  0  0  0  0  0  0  0
  149.7052  132.6641  154.6875 H   0  0  0  0  0  0  0  0  0  0  0  0
  149.2243  132.5991  156.3717 H   0  0  0  0  0  0  0  0  0  0  0  0
  147.5198  131.4669  155.1346 H   0  0  0  0  0  0  0  0  0  0  0  0
  147.9339  132.2482  152.8580 H   0  0  0  0  0  0  0  0  0  0  0  0
  147.3183  133.8490  153.2290 H   0  0  0  0  0  0  0  0  0  0  0  0
  146.2333  132.4600  153.2548 H   0  0  0  0  0  0  0  0  0  0  0  0
  146.3563  134.9530  154.9541 H   0  0  0  0  0  0  0  0  0  0  0  0
  145.4111  136.0272  156.9922 H   0  0  0  0  0  0  0  0  0  0  0  0
  145.6170  134.5236  157.8892 H   0  0  0  0  0  0  0  0  0  0  0  0
  144.4879  134.5978  156.5389 H   0  0  0  0  0  0  0  0  0  0  0  0
  148.1528  134.6407  157.4212 H   0  0  0  0  0  0  0  0  0  0  0  0
  147.9736  136.0884  156.4501 H   0  0  0  0  0  0  0  0  0  0  0  0
  151.6753  139.9233  157.6139 H   0  0  0  0  0  0  0  0  0  0  0  0
  149.9937  141.6369  157.8317 H   0  0  0  0  0  0  0  0  0  0  0  0
  148.8115  134.8556  154.5723 H   0  0  0  0  0  0  0  0  0  0  0  0
  1  2  1  0  0  0  0
  1 25  1  0  0  0  0
  1 26  1  0  0  0  0
  1 27  1  0  0  0  0
  2  3  1  0  0  0  0
  3  4  1  0  0  0  0
  3 28  1  0  0  0  0
  3 29  1  0  0  0  0
  4  5  1  0  0  0  0
  4 30  1  0  0  0  0
  4 31  1  0  0  0  0
  5 23  1  0  0  0  0
  5  6  1  0  0  0  0
  6  7  2  0  0  0  0
  7  8  1  0  0  0  0
  7 21  1  0  0  0  0
  8  9  2  0  0  0  0
  8 10  1  0  0  0  0
 10 11  1  0  0  0  0
 11 12  1  0  0  0  0
 11 32  1  0  0  0  0
 11 33  1  0  0  0  0
 12 13  1  0  0  0  0
 12 34  1  0  0  0  0
 12 35  1  0  0  0  0
 13 20  1  0  0  0  0
 13 14  1  0  0  0  0
 13 50  1  0  0  0  0
 14 15  1  0  0  0  0
 14 36  1  0  0  0  0
 14 37  1  0  0  0  0
 15 16  1  0  0  0  0
 15 17  1  0  0  0  0
 15 38  1  0  0  0  0
 16 39  1  0  0  0  0
 16 40  1  0  0  0  0
 16 41  1  0  0  0  0
 17 18  1  0  0  0  0
 18 19  1  0  0  0  0
 18 20  1  0  0  0  0
 18 42  1  0  0  0  0
 19 43  1  0  0  0  0
 19 44  1  0  0  0  0
 19 45  1  0  0  0  0
 20 46  1  0  0  0  0
 20 47  1  0  0  0  0
 21 22  2  0  0  0  0
 21 48  1  0  0  0  0
 22 23  1  0  0  0  0
 22 49  1  0  0  0  0
 23 24  2  0  0  0  0
M  CHG  1  10  -1
M  CHG  1  13   1
M  END
> <s_m_source_file>
AV-unprocessed.smi

> <i_m_source_file_index>
2001

> <i_lp_mmshare_version>
43012

> <i_f3d_flags>
0

> <s_epik_input>
W0NIM11PW0NIMl1bQ0gyXW4xbmMoW2NIXVtjSF1jMT1PKUMoPU8pW05IXVtDSDJdW0NIMl1OMltDSDJdW0NAQEhdKFtDSDNdKU9bQ0BASF0oW0NIM10pW0NIMl0y

> <s_epik_cmdline>
J2VwaWtfcHl0aG9uJywgJy1waCcsICc3LjAnLCAnLXRuJywgJzgnLCAnLW1hJywgJzIwMCcsICctbWV0YWxfYmluZGluZycsICctaW1hZScsICc8aW5maWxlLm1hZT4nLCAnLW9tYWUnLCAnPG91dGZpbGUubWFlPic=

> <r_lp_tautomer_probability>
1

> <r_epik_Ionization_Penalty>
6.90846

> <r_epik_Ionization_Penalty_Charging>
6.90846

> <r_epik_Ionization_Penalty_Neutral>
1.08445e-11

> <r_epik_State_Penalty>
7.54671

> <r_epik_Charging_Adjusted_Penalty>
14.4552

> <i_epik_Tot_Q>
0

> <i_epik_Tot_abs_Q>
2

> <r_epik_Metal_State_Penalty>
3.46181

> <b_epik_Metal_Only>
1

> <s_lp_Force_Field>
OPLS_2005

> <r_lp_Energy>
44.3308

> <b_lp_Chiralities_Consistent>
1

> <s_lp_Variant>
AV-unprocessed.smi:2001-9

> <Gold.Version>
5.8.1

> <Gold.Id.Protein>
6NUR|6NUR_protein|mol2

> <Gold.PLP.Fitness>
50.3005

> <Gold.PLP.PLP>
-35.7841

> <Gold.PLP.part.hbond>
-4.0000

> <Gold.PLP.part.metal>
0.0000

> <Gold.PLP.part.buried>
-3.9672

> <Gold.PLP.part.nonpolar>
-29.7429

> <Gold.PLP.part.repulsive>
2.1826

> <Gold.PLP.ligand.clash>
0.0000

> <Gold.PLP.ligand.torsion>
1.8868

> <Gold.PLP.Chemscore.Hbond>
5.9760

> <Gold.PLP.Chemscore.CHOScore>
0.0000

> <Gold.PLP.Chemscore.Metal>
0.0000

> <Gold.Chemscore.Hbonds>
donor molecule, donor type, donor heavy atom, donor atom, acceptor molecule, acceptor atom, score
      P1  H  7989  7998       L1     6  0.58
      P1  H  7997  8009       L1     9  0.99
      P1  H 10752 10765       L1    10  1.95

> <Gold.PLP.Chemscore.Internal.Correction>
0.3621

> <Gold.Rescore>
     Score         DG    S(hbond)    S(metal)    S(lipo)     H(rot)  DE(clash)    DE(int)     intcor
     14.87     -16.53       2.46        0.00      68.35       2.02       0.02       1.64       ----

> <Gold.Chemscore.Fitness>
14.8725

> <Gold.Chemscore.DG>
-16.5332

> <Gold.Chemscore.ZeroCoef>
-5.4800

> <Gold.Chemscore.Hbond>
2.4618

> <Gold.Chemscore.Metal>
0.0000

> <Gold.Chemscore.Lipo>
68.3483

> <Gold.Chemscore.Internal_Hbond>
0.0000

> <Gold.Chemscore.DEClash>
0.0188

> <Gold.Chemscore.DEInternal>
1.6420

> <Gold.Chemscore.Rot>
2.0179

> <Gold.Chemscore.Internal.Correction>
   9.000000E+99

> <Gold.Chemscore.Hbonds>
donor molecule, donor type, donor heavy atom, donor atom, acceptor molecule, acceptor atom, score
      P1  H  7989  7998       L1     6  0.01
      P1  H  7997  8009       L1     9  0.91
      P1  H 10752 10765       L1    10  0.77

> <Gold.Chemscore.Hbond.Weighted>
-8.2223

> <Gold.Chemscore.Metal.Weighted>
-0.0000

> <Gold.Chemscore.Lipo.Weighted>
-7.9968

> <Gold.Chemscore.Internal_Hbond.Weighted>
0.0000

> <Gold.Chemscore.DEClash.Weighted>
0.0188

> <Gold.Chemscore.DEInternal.Weighted>
1.6420

> <Gold.Chemscore.Rot.Weighted>
5.1659

> <Gold.Chemscore.Internal.Correction.Weighted>
   9.000000E+99

> <Gold.Protein.RotatedTorsions>
[ 6907 6896 6895 6894 ] final  -81.03 input  -60.11 | X-H torsion
[ 7974 7965 7964 7962 ] final   40.97 input  175.53 | X-H torsion
[ 8008 7997 7996 7995 ] final -147.55 input   59.86 | X-H torsion
[ 10167 10162 10161 10158 ] final  -90.33 input  -65.29 | X-H torsion
[ 10718 10713 10712 10709 ] final -104.75 input   66.30 | X-H torsion
[ 10763 10752 10751 10750 ] final  177.96 input  -60.55 | X-H torsion
[ 11005 11000 10999 10996 ] final  -31.47 input  -57.11 | X-H torsion

> <Gold.Protein.ActiveResidues>
 VAL166  LYS551  ARG553  GLY616  TRP617  ASP618  TYR619  PRO620  LYS621  CYS622 
 ASP623  PHE694  ASN695  SER759  ASP760  ASP761  ALA762  ILE779  LEU786  VAL792 
 PHE793  MET794  SER795  GLU796  ALA797  LYS798  CYS799  TRP800  GLU811  SER814 

> <Gold.Protein.RotatedAtoms>
  150.6919  134.3880  159.5063 H   0  0  0  0  0  0  0  0  0  0  0  0  # atno 6907 bound_to 6896
  152.1672  134.8861  160.0546 H   0  0  0  0  0  0  0  0  0  0  0  0  # atno 6908 bound_to 6896
  151.9900  133.3753  159.4178 H   0  0  0  0  0  0  0  0  0  0  0  0  # atno 6909 bound_to 6896
  146.0862  139.5471  142.9505 H   0  0  0  0  0  0  0  0  0  0  0  0  # atno 7974 bound_to 7965
  155.5774  140.0640  157.2791 H   0  0  0  0  0  0  0  0  0  0  0  0  # atno 8008 bound_to 7997
  154.4343  140.1858  156.0987 H   0  0  0  0  0  0  0  0  0  0  0  0  # atno 8009 bound_to 7997
  156.0331  140.3304  155.7165 H   0  0  0  0  0  0  0  0  0  0  0  0  # atno 8010 bound_to 7997
  140.3559  143.2866  151.9671 H   0  0  0  0  0  0  0  0  0  0  0  0  # atno 10167 bound_to 10162
  156.0317  130.5530  150.7441 H   0  0  0  0  0  0  0  0  0  0  0  0  # atno 10718 bound_to 10713
  154.5013  135.2784  155.1418 H   0  0  0  0  0  0  0  0  0  0  0  0  # atno 10763 bound_to 10752
  154.3050  135.6240  153.5444 H   0  0  0  0  0  0  0  0  0  0  0  0  # atno 10764 bound_to 10752
  152.9903  135.5706  154.5457 H   0  0  0  0  0  0  0  0  0  0  0  0  # atno 10765 bound_to 10752
  140.9471  133.7243  156.1163 H   0  0  0  0  0  0  0  0  0  0  0  0  # atno 11005 bound_to 11000
  145.6125  141.0337  143.1958 LP  0  0  0  0  0  0  0  0  0  0  0  0  # atno 17320 bound_to 7965
  144.7327  139.7676  143.7341 LP  0  0  0  0  0  0  0  0  0  0  0  0  # atno 17321 bound_to 7965
  139.4820  144.6035  151.7563 LP  0  0  0  0  0  0  0  0  0  0  0  0  # atno 17342 bound_to 10162
  140.5174  144.0932  150.6012 LP  0  0  0  0  0  0  0  0  0  0  0  0  # atno 17343 bound_to 10162
  157.5002  131.0918  151.0323 LP  0  0  0  0  0  0  0  0  0  0  0  0  # atno 17370 bound_to 10713
  157.0706  130.5862  149.5402 LP  0  0  0  0  0  0  0  0  0  0  0  0  # atno 17371 bound_to 10713
  140.7654  134.3892  157.5518 LP  0  0  0  0  0  0  0  0  0  0  0  0  # atno 17394 bound_to 11000
  139.8836  134.8988  156.2753 LP  0  0  0  0  0  0  0  0  0  0  0  0  # atno 17395 bound_to 11000

$$$$
