AV-unprocessed.smi:1914|AV-procd|sdf|7758|dock1
  -GOLD-   22720 9493D 1   1.00000     0.00000
 Structure written by MMmdl.
 44 45  0  0  0  0  0  0  0  0  2 V2000
  146.3667  135.2225  153.0521 C   0  0  0  0  0  0  0  0  0  0  0  0
  145.2966  136.1002  152.3795 C   0  0  2  0  0  0  0  0  0  0  0  0
  144.9642  135.6439  150.9468 C   0  0  0  0  0  0  0  0  0  0  0  0
  146.0904  136.0108  149.9700 C   0  0  0  0  0  0  0  0  0  0  0  0
  146.4308  137.5068  150.0582 C   0  0  0  0  0  0  0  0  0  0  0  0
  146.7835  137.8951  151.4482 N   0  3  1  0  0  0  0  0  0  0  0  0
  147.2644  139.2969  151.5341 C   0  0  0  0  0  0  0  0  0  0  0  0
  147.3298  139.8065  152.9829 C   0  0  0  0  0  0  0  0  0  0  0  0
  148.7137  140.0095  153.3880 N   0  0  0  0  0  0  0  0  0  0  0  0
  149.0936  140.4050  154.6109 C   0  0  0  0  0  0  0  0  0  0  0  0
  148.2955  140.6271  155.5223 O   0  0  0  0  0  0  0  0  0  0  0  0
  150.6060  140.5471  154.8352 C   0  0  0  0  0  0  0  0  0  0  0  0
  150.9479  141.1271  156.1448 N   0  0  0  0  0  0  0  0  0  0  0  0
  150.2634  142.2974  156.5286 C   0  0  0  0  0  0  0  0  0  0  0  0
  150.4990  142.9050  157.7023 C   0  0  0  0  0  0  0  0  0  0  0  0
  151.4865  142.3282  158.5833 C   0  0  0  0  0  0  0  0  0  0  0  0
  152.1491  141.2105  158.2250 C   0  0  0  0  0  0  0  0  0  0  0  0
  151.8947  140.5432  156.9431 C   0  0  0  0  0  0  0  0  0  0  0  0
  152.4948  139.5219  156.6063 O   0  0  0  0  0  0  0  0  0  0  0  0
  145.6761  137.5954  152.3968 C   0  0  0  0  0  0  0  0  0  0  0  0
  147.3295  135.2923  152.5455 H   0  0  0  0  0  0  0  0  0  0  0  0
  146.0688  134.1736  153.0542 H   0  0  0  0  0  0  0  0  0  0  0  0
  146.5198  135.5203  154.0897 H   0  0  0  0  0  0  0  0  0  0  0  0
  144.3890  135.9861  152.9738 H   0  0  0  0  0  0  0  0  0  0  0  0
  144.7731  134.5706  150.9203 H   0  0  0  0  0  0  0  0  0  0  0  0
  144.0410  136.1258  150.6219 H   0  0  0  0  0  0  0  0  0  0  0  0
  146.9798  135.4173  150.1848 H   0  0  0  0  0  0  0  0  0  0  0  0
  145.7943  135.7573  148.9516 H   0  0  0  0  0  0  0  0  0  0  0  0
  147.2663  137.7192  149.3902 H   0  0  0  0  0  0  0  0  0  0  0  0
  145.5879  138.1081  149.7130 H   0  0  0  0  0  0  0  0  0  0  0  0
  148.2691  139.3580  151.1130 H   0  0  0  0  0  0  0  0  0  0  0  0
  146.6335  139.9426  150.9211 H   0  0  0  0  0  0  0  0  0  0  0  0
  146.7951  140.7500  153.0932 H   0  0  0  0  0  0  0  0  0  0  0  0
  146.8578  139.0868  153.6539 H   0  0  0  0  0  0  0  0  0  0  0  0
  149.4296  139.8454  152.6947 H   0  0  0  0  0  0  0  0  0  0  0  0
  151.0578  139.5608  154.7219 H   0  0  0  0  0  0  0  0  0  0  0  0
  151.0401  141.1523  154.0368 H   0  0  0  0  0  0  0  0  0  0  0  0
  149.5463  142.6688  155.8111 H   0  0  0  0  0  0  0  0  0  0  0  0
  149.9669  143.8035  157.9780 H   0  0  0  0  0  0  0  0  0  0  0  0
  151.6964  142.7966  159.5337 H   0  0  0  0  0  0  0  0  0  0  0  0
  152.8856  140.7938  158.8966 H   0  0  0  0  0  0  0  0  0  0  0  0
  144.8066  138.1977  152.1288 H   0  0  0  0  0  0  0  0  0  0  0  0
  145.9489  137.8840  153.4112 H   0  0  0  0  0  0  0  0  0  0  0  0
  147.5633  137.3097  151.7121 H   0  0  0  0  0  0  0  0  0  0  0  0
  1  2  1  0  0  0  0
  1 21  1  0  0  0  0
  1 22  1  0  0  0  0
  1 23  1  0  0  0  0
  2 20  1  0  0  0  0
  2  3  1  0  0  0  0
  2 24  1  0  0  0  0
  3  4  1  0  0  0  0
  3 25  1  0  0  0  0
  3 26  1  0  0  0  0
  4  5  1  0  0  0  0
  4 27  1  0  0  0  0
  4 28  1  0  0  0  0
  5  6  1  0  0  0  0
  5 29  1  0  0  0  0
  5 30  1  0  0  0  0
  6  7  1  0  0  0  0
  6 20  1  0  0  0  0
  6 44  1  0  0  0  0
  7  8  1  0  0  0  0
  7 31  1  0  0  0  0
  7 32  1  0  0  0  0
  8  9  1  0  0  0  0
  8 33  1  0  0  0  0
  8 34  1  0  0  0  0
  9 10  1  0  0  0  0
  9 35  1  0  0  0  0
 10 11  2  0  0  0  0
 10 12  1  0  0  0  0
 12 13  1  0  0  0  0
 12 36  1  0  0  0  0
 12 37  1  0  0  0  0
 13 18  1  0  0  0  0
 13 14  1  0  0  0  0
 14 15  2  0  0  0  0
 14 38  1  0  0  0  0
 15 16  1  0  0  0  0
 15 39  1  0  0  0  0
 16 17  2  0  0  0  0
 16 40  1  0  0  0  0
 17 18  1  0  0  0  0
 17 41  1  0  0  0  0
 18 19  2  0  0  0  0
 20 42  1  0  0  0  0
 20 43  1  0  0  0  0
M  CHG  1   6   1
M  END
> <s_m_source_file>
AV-unprocessed.smi

> <i_m_source_file_index>
1914

> <i_lp_mmshare_version>
43012

> <i_f3d_flags>
0

> <s_epik_input>
W0NIM11bQ0BASF0xW0NIMl1bQ0gyXVtDSDJdTihbQ0gyXTEpW0NIMl1bQ0gyXVtOSF1DKD1PKVtDSDJdbjJbY0hdW2NIXVtjSF1bY0hdYzI9Tw==

> <s_epik_cmdline>
J2VwaWtfcHl0aG9uJywgJy1waCcsICc3LjAnLCAnLXRuJywgJzgnLCAnLW1hJywgJzIwMCcsICctbWV0YWxfYmluZGluZycsICctaW1hZScsICc8aW5maWxlLm1hZT4nLCAnLW9tYWUnLCAnPG91dGZpbGUubWFlPic=

> <r_lp_tautomer_probability>
1

> <r_epik_Ionization_Penalty>
0.00192477

> <r_epik_Ionization_Penalty_Charging>
0.00192469

> <r_epik_Ionization_Penalty_Neutral>
8.16761e-08

> <r_epik_State_Penalty>
0.00131115

> <r_epik_Charging_Adjusted_Penalty>
0.00323584

> <i_epik_Tot_Q>
1

> <i_epik_Tot_abs_Q>
1

> <r_epik_Metal_State_Penalty>
-0

> <b_epik_Metal_Only>
0

> <s_lp_Force_Field>
OPLS_2005

> <r_lp_Energy>
28.3213

> <b_lp_Chiralities_Consistent>
1

> <s_lp_Variant>
AV-unprocessed.smi:1914-3

> <Gold.Version>
5.8.1

> <Gold.Id.Protein>
6NUR|6NUR_protein|mol2

> <Gold.PLP.Fitness>
44.8484

> <Gold.PLP.PLP>
-31.4507

> <Gold.PLP.part.hbond>
-3.0000

> <Gold.PLP.part.metal>
0.0000

> <Gold.PLP.part.buried>
2.8942

> <Gold.PLP.part.nonpolar>
-31.8773

> <Gold.PLP.part.repulsive>
0.1676

> <Gold.PLP.ligand.clash>
0.0000

> <Gold.PLP.ligand.torsion>
0.6666

> <Gold.PLP.Chemscore.Hbond>
3.9500

> <Gold.PLP.Chemscore.CHOScore>
0.9331

> <Gold.PLP.Chemscore.Metal>
0.0000

> <Gold.Chemscore.Hbonds>
donor molecule, donor type, donor heavy atom, donor atom, acceptor molecule, acceptor atom, score
      L1  H     6    44       P1  7948  2.00
      L1  H     9    35       P1  7957  0.75
      P1  H  7997  8009       L1    19  1.00
      L1  C    14    38       P1  8028  0.91

> <Gold.PLP.Chemscore.Internal.Correction>
0.0816

> <Gold.Rescore>
     Score         DG    S(hbond)    S(metal)    S(lipo)     H(rot)  DE(clash)    DE(int)     intcor
     15.62     -20.05       2.83        0.00      84.35       1.86       1.89       2.54       ----

> <Gold.Chemscore.Fitness>
15.6169

> <Gold.Chemscore.DG>
-20.0524

> <Gold.Chemscore.ZeroCoef>
-5.4800

> <Gold.Chemscore.Hbond>
2.8328

> <Gold.Chemscore.Metal>
0.0000

> <Gold.Chemscore.Lipo>
84.3501

> <Gold.Chemscore.Internal_Hbond>
0.0000

> <Gold.Chemscore.DEClash>
1.8946

> <Gold.Chemscore.DEInternal>
2.5409

> <Gold.Chemscore.Rot>
1.8586

> <Gold.Chemscore.Internal.Correction>
   9.000000E+99

> <Gold.Chemscore.Hbonds>
donor molecule, donor type, donor heavy atom, donor atom, acceptor molecule, acceptor atom, score
      L1  H     6    44       P1  7948  1.00
      L1  H     9    35       P1  7957  0.73
      P1  H  7997  8009       L1    19  0.39

> <Gold.Chemscore.Hbond.Weighted>
-9.4616

> <Gold.Chemscore.Metal.Weighted>
-0.0000

> <Gold.Chemscore.Lipo.Weighted>
-9.8690

> <Gold.Chemscore.Internal_Hbond.Weighted>
0.0000

> <Gold.Chemscore.DEClash.Weighted>
1.8946

> <Gold.Chemscore.DEInternal.Weighted>
2.5409

> <Gold.Chemscore.Rot.Weighted>
4.7581

> <Gold.Chemscore.Internal.Correction.Weighted>
   9.000000E+99

> <Gold.Protein.RotatedTorsions>
[ 6907 6896 6895 6894 ] final  116.18 input  -60.11 | X-H torsion
[ 7974 7965 7964 7962 ] final  135.34 input  175.53 | X-H torsion
[ 8008 7997 7996 7995 ] final -172.03 input   59.86 | X-H torsion
[ 10167 10162 10161 10158 ] final  -19.62 input  -65.29 | X-H torsion
[ 10718 10713 10712 10709 ] final   -1.62 input   66.30 | X-H torsion
[ 10763 10752 10751 10750 ] final  178.77 input  -60.55 | X-H torsion
[ 11005 11000 10999 10996 ] final    1.21 input  -57.11 | X-H torsion

> <Gold.Protein.ActiveResidues>
 VAL166  LYS551  ARG553  GLY616  TRP617  ASP618  TYR619  PRO620  LYS621  CYS622 
 ASP623  PHE694  ASN695  SER759  ASP760  ASP761  ALA762  ILE779  LEU786  VAL792 
 PHE793  MET794  SER795  GLU796  ALA797  LYS798  CYS799  TRP800  GLU811  SER814 

> <Gold.Protein.RotatedAtoms>
  152.4695  133.7997  159.6945 H   0  0  0  0  0  0  0  0  0  0  0  0  # atno 6907 bound_to 6896
  150.8676  133.7542  159.2978 H   0  0  0  0  0  0  0  0  0  0  0  0  # atno 6908 bound_to 6896
  151.5088  135.1067  159.9900 H   0  0  0  0  0  0  0  0  0  0  0  0  # atno 6909 bound_to 6896
  144.9673  139.4644  143.5450 H   0  0  0  0  0  0  0  0  0  0  0  0  # atno 7974 bound_to 7965
  155.9392  140.1105  157.1069 H   0  0  0  0  0  0  0  0  0  0  0  0  # atno 8008 bound_to 7997
  154.4086  140.1222  156.4971 H   0  0  0  0  0  0  0  0  0  0  0  0  # atno 8009 bound_to 7997
  155.6983  140.3472  155.4924 H   0  0  0  0  0  0  0  0  0  0  0  0  # atno 8010 bound_to 7997
  140.7270  143.4801  151.0130 H   0  0  0  0  0  0  0  0  0  0  0  0  # atno 10167 bound_to 10162
  156.8030  130.5399  149.5719 H   0  0  0  0  0  0  0  0  0  0  0  0  # atno 10718 bound_to 10713
  154.5119  135.2789  155.1335 H   0  0  0  0  0  0  0  0  0  0  0  0  # atno 10763 bound_to 10752
  154.2927  135.6263  153.5395 H   0  0  0  0  0  0  0  0  0  0  0  0  # atno 10764 bound_to 10752
  152.9920  135.5678  154.5587 H   0  0  0  0  0  0  0  0  0  0  0  0  # atno 10765 bound_to 10752
  140.6180  133.9688  155.8210 H   0  0  0  0  0  0  0  0  0  0  0  0  # atno 11005 bound_to 11000
  146.3371  139.8862  142.8816 LP  0  0  0  0  0  0  0  0  0  0  0  0  # atno 17320 bound_to 7965
  145.2611  141.0077  143.3826 LP  0  0  0  0  0  0  0  0  0  0  0  0  # atno 17321 bound_to 7965
  139.8499  143.7453  152.3178 LP  0  0  0  0  0  0  0  0  0  0  0  0  # atno 17342 bound_to 10162
  139.7631  144.7500  151.0335 LP  0  0  0  0  0  0  0  0  0  0  0  0  # atno 17343 bound_to 10162
  156.1090  130.6026  151.0017 LP  0  0  0  0  0  0  0  0  0  0  0  0  # atno 17370 bound_to 10713
  157.6544  131.0892  150.7979 LP  0  0  0  0  0  0  0  0  0  0  0  0  # atno 17371 bound_to 10713
  141.0762  134.0131  157.3454 LP  0  0  0  0  0  0  0  0  0  0  0  0  # atno 17394 bound_to 11000
  139.9165  135.0197  156.7901 LP  0  0  0  0  0  0  0  0  0  0  0  0  # atno 17395 bound_to 11000

$$$$
