AV-unprocessed.smi:392|AV-procd|sdf|2483|dock1
  -GOLD-   2262022423D 1   1.00000     0.00000
 Structure written by MMmdl.
 33 35  0  0  0  0  0  0  0  0  2 V2000
  149.5480  140.5777  157.5448 O   0  0  0  0  0  0  0  0  0  0  0  0
  150.9512  140.6551  157.4003 C   0  0  1  0  0  0  0  0  0  0  0  0
  151.2683  140.8211  155.9004 C   0  0  0  0  0  0  0  0  0  0  0  0
  150.4449  139.9527  155.0493 N   0  0  0  0  0  0  0  0  0  0  0  0
  150.6506  138.6676  154.6520 C   0  0  0  0  0  0  0  0  0  0  0  0
  149.5873  138.3000  153.8842 N   0  3  0  0  0  0  0  0  0  0  0  0
  148.6909  139.3665  153.7876 C   0  0  0  0  0  0  0  0  0  0  0  0
  147.4729  139.4777  153.1240 C   0  0  0  0  0  0  0  0  0  0  0  0
  146.8044  140.7151  153.2316 C   0  0  0  0  0  0  0  0  0  0  0  0
  147.3492  141.7829  153.9745 C   0  0  0  0  0  0  0  0  0  0  0  0
  148.5854  141.6597  154.6422 C   0  0  0  0  0  0  0  0  0  0  0  0
  149.2380  140.4328  154.5319 C   0  0  0  0  0  0  0  0  0  0  0  0
  151.5621  141.7691  158.2431 C   0  0  0  0  0  0  0  0  0  0  0  0
  151.2640  143.1214  157.9619 C   0  0  0  0  0  0  0  0  0  0  0  0
  151.8432  144.1525  158.7262 C   0  0  0  0  0  0  0  0  0  0  0  0
  152.7272  143.8392  159.7757 C   0  0  0  0  0  0  0  0  0  0  0  0
  153.0327  142.4945  160.0589 C   0  0  0  0  0  0  0  0  0  0  0  0
  152.4546  141.4612  159.2956 C   0  0  0  0  0  0  0  0  0  0  0  0
  152.7726  140.1734  159.5723 F   0  0  0  0  0  0  0  0  0  0  0  0
  149.1806  141.4300  157.3651 H   0  0  0  0  0  0  0  0  0  0  0  0
  151.3391  139.6967  157.7454 H   0  0  0  0  0  0  0  0  0  0  0  0
  151.1154  141.8525  155.5791 H   0  0  0  0  0  0  0  0  0  0  0  0
  152.3146  140.5852  155.7005 H   0  0  0  0  0  0  0  0  0  0  0  0
  151.4983  138.0483  154.9086 H   0  0  0  0  0  0  0  0  0  0  0  0
  147.0529  138.6617  152.5544 H   0  0  0  0  0  0  0  0  0  0  0  0
  145.8543  140.8480  152.7345 H   0  0  0  0  0  0  0  0  0  0  0  0
  146.8073  142.7157  154.0345 H   0  0  0  0  0  0  0  0  0  0  0  0
  148.9951  142.4820  155.2102 H   0  0  0  0  0  0  0  0  0  0  0  0
  150.5928  143.3740  157.1541 H   0  0  0  0  0  0  0  0  0  0  0  0
  151.6105  145.1839  158.5058 H   0  0  0  0  0  0  0  0  0  0  0  0
  153.1728  144.6295  160.3617 H   0  0  0  0  0  0  0  0  0  0  0  0
  153.7151  142.2552  160.8611 H   0  0  0  0  0  0  0  0  0  0  0  0
  149.4827  137.3868  153.4608 H   0  0  0  0  0  0  0  0  0  0  0  0
  1  2  1  0  0  0  0
  1 20  1  0  0  0  0
  2  3  1  0  0  0  0
  2 13  1  0  0  0  0
  2 21  1  0  0  0  0
  3  4  1  0  0  0  0
  3 22  1  0  0  0  0
  3 23  1  0  0  0  0
  4 12  1  0  0  0  0
  4  5  1  0  0  0  0
  5  6  2  0  0  0  0
  5 24  1  0  0  0  0
  6  7  1  0  0  0  0
  6 33  1  0  0  0  0
  7 12  2  0  0  0  0
  7  8  1  0  0  0  0
  8  9  2  0  0  0  0
  8 25  1  0  0  0  0
  9 10  1  0  0  0  0
  9 26  1  0  0  0  0
 10 11  2  0  0  0  0
 10 27  1  0  0  0  0
 11 12  1  0  0  0  0
 11 28  1  0  0  0  0
 13 18  1  0  0  0  0
 13 14  2  0  0  0  0
 14 15  1  0  0  0  0
 14 29  1  0  0  0  0
 15 16  2  0  0  0  0
 15 30  1  0  0  0  0
 16 17  1  0  0  0  0
 16 31  1  0  0  0  0
 17 18  2  0  0  0  0
 17 32  1  0  0  0  0
 18 19  1  0  0  0  0
M  CHG  1   6   1
M  END
> <s_m_source_file>
AV-unprocessed.smi

> <i_m_source_file_index>
392

> <i_lp_mmshare_version>
43012

> <i_f3d_flags>
0

> <s_epik_input>
RmMxW2NIXVtjSF1bY0hdW2NIXWMxW0NASF0oW09IXSlbQ0gyXW4oW2NIXW4yKWMoYzIzKVtjSF1bY0hdW2NIXVtjSF0z

> <s_epik_cmdline>
J2VwaWtfcHl0aG9uJywgJy1waCcsICc3LjAnLCAnLXRuJywgJzgnLCAnLW1hJywgJzIwMCcsICctbWV0YWxfYmluZGluZycsICctaW1hZScsICc8aW5maWxlLm1hZT4nLCAnLW9tYWUnLCAnPG91dGZpbGUubWFlPic=

> <r_epik_Ionization_Penalty>
1.3029

> <r_epik_Ionization_Penalty_Charging>
1.3029

> <r_epik_Ionization_Penalty_Neutral>
1.34362e-06

> <r_epik_State_Penalty>
1.377

> <r_epik_Charging_Adjusted_Penalty>
2.6799

> <i_epik_Tot_Q>
1

> <i_epik_Tot_abs_Q>
1

> <r_epik_Metal_State_Penalty>
5.40879

> <b_epik_Metal_Only>
0

> <s_lp_Force_Field>
OPLS_2005

> <r_lp_Energy>
17.8975

> <b_lp_Chiralities_Consistent>
1

> <s_lp_Variant>
AV-unprocessed.smi:392-4

> <Gold.Version>
5.8.1

> <Gold.Id.Protein>
6NUR|6NUR_protein|mol2

> <Gold.PLP.Fitness>
50.3382

> <Gold.PLP.PLP>
-45.3289

> <Gold.PLP.part.hbond>
-1.3867

> <Gold.PLP.part.metal>
0.0000

> <Gold.PLP.part.buried>
1.0907

> <Gold.PLP.part.nonpolar>
-44.5074

> <Gold.PLP.part.repulsive>
0.0467

> <Gold.PLP.ligand.clash>
0.0000

> <Gold.PLP.ligand.torsion>
0.5244

> <Gold.PLP.Chemscore.Hbond>
2.0000

> <Gold.PLP.Chemscore.CHOScore>
0.0000

> <Gold.PLP.Chemscore.Metal>
0.0000

> <Gold.Chemscore.Hbonds>
donor molecule, donor type, donor heavy atom, donor atom, acceptor molecule, acceptor atom, score
      L1  H     6    33       P1  7948  1.98

> <Gold.PLP.Chemscore.Internal.Correction>
0.0580

> <Gold.Rescore>
     Score         DG    S(hbond)    S(metal)    S(lipo)     H(rot)  DE(clash)    DE(int)     intcor
     16.22     -16.75       0.89        0.00     113.87       1.97       0.15       0.38       ----

> <Gold.Chemscore.Fitness>
16.2232

> <Gold.Chemscore.DG>
-16.7537

> <Gold.Chemscore.ZeroCoef>
-5.4800

> <Gold.Chemscore.Hbond>
0.8946

> <Gold.Chemscore.Metal>
0.0000

> <Gold.Chemscore.Lipo>
113.8719

> <Gold.Chemscore.Internal_Hbond>
0.0000

> <Gold.Chemscore.DEClash>
0.1509

> <Gold.Chemscore.DEInternal>
0.3796

> <Gold.Chemscore.Rot>
1.9677

> <Gold.Chemscore.Internal.Correction>
   9.000000E+99

> <Gold.Chemscore.Hbonds>
donor molecule, donor type, donor heavy atom, donor atom, acceptor molecule, acceptor atom, score
      L1  H     6    33       P1  7948  0.83

> <Gold.Chemscore.Hbond.Weighted>
-2.9879

> <Gold.Chemscore.Metal.Weighted>
-0.0000

> <Gold.Chemscore.Lipo.Weighted>
-13.3230

> <Gold.Chemscore.Internal_Hbond.Weighted>
0.0000

> <Gold.Chemscore.DEClash.Weighted>
0.1509

> <Gold.Chemscore.DEInternal.Weighted>
0.3796

> <Gold.Chemscore.Rot.Weighted>
5.0372

> <Gold.Chemscore.Internal.Correction.Weighted>
   9.000000E+99

> <Gold.Protein.RotatedTorsions>
[ 6907 6896 6895 6894 ] final  162.49 input  -60.11 | X-H torsion
[ 7974 7965 7964 7962 ] final  -29.26 input  175.53 | X-H torsion
[ 8008 7997 7996 7995 ] final -128.63 input   59.86 | X-H torsion
[ 10167 10162 10161 10158 ] final  154.23 input  -65.29 | X-H torsion
[ 10718 10713 10712 10709 ] final -176.75 input   66.30 | X-H torsion
[ 10763 10752 10751 10750 ] final   52.29 input  -60.55 | X-H torsion
[ 11005 11000 10999 10996 ] final -165.46 input  -57.11 | X-H torsion

> <Gold.Protein.ActiveResidues>
 VAL166  LYS551  ARG553  GLY616  TRP617  ASP618  TYR619  PRO620  LYS621  CYS622 
 ASP623  PHE694  ASN695  SER759  ASP760  ASP761  ALA762  ILE779  LEU786  VAL792 
 PHE793  MET794  SER795  GLU796  ALA797  LYS798  CYS799  TRP800  GLU811  SER814 

> <Gold.Protein.RotatedAtoms>
  151.9396  133.3634  159.3960 H   0  0  0  0  0  0  0  0  0  0  0  0  # atno 6907 bound_to 6896
  150.7001  134.4453  159.5320 H   0  0  0  0  0  0  0  0  0  0  0  0  # atno 6908 bound_to 6896
  152.2108  134.8503  160.0548 H   0  0  0  0  0  0  0  0  0  0  0  0  # atno 6909 bound_to 6896
  146.1229  140.5390  142.8727 H   0  0  0  0  0  0  0  0  0  0  0  0  # atno 7974 bound_to 7965
  155.2658  140.0438  157.3002 H   0  0  0  0  0  0  0  0  0  0  0  0  # atno 8008 bound_to 7997
  154.5683  140.2366  155.8199 H   0  0  0  0  0  0  0  0  0  0  0  0  # atno 8009 bound_to 7997
  156.2102  140.3001  155.9724 H   0  0  0  0  0  0  0  0  0  0  0  0  # atno 8010 bound_to 7997
  139.4824  144.5204  151.7884 H   0  0  0  0  0  0  0  0  0  0  0  0  # atno 10167 bound_to 10162
  156.8193  130.9614  151.3112 H   0  0  0  0  0  0  0  0  0  0  0  0  # atno 10718 bound_to 10713
  152.9788  135.5817  154.4555 H   0  0  0  0  0  0  0  0  0  0  0  0  # atno 10763 bound_to 10752
  154.4138  135.2770  155.2022 H   0  0  0  0  0  0  0  0  0  0  0  0  # atno 10764 bound_to 10752
  154.3800  135.6149  153.5839 H   0  0  0  0  0  0  0  0  0  0  0  0  # atno 10765 bound_to 10752
  140.5754  134.5195  157.5169 H   0  0  0  0  0  0  0  0  0  0  0  0  # atno 11005 bound_to 11000
  144.7614  140.5431  143.6733 LP  0  0  0  0  0  0  0  0  0  0  0  0  # atno 17320 bound_to 7965
  145.5428  139.1475  143.3437 LP  0  0  0  0  0  0  0  0  0  0  0  0  # atno 17321 bound_to 7965
  140.4718  144.1576  150.5919 LP  0  0  0  0  0  0  0  0  0  0  0  0  # atno 17342 bound_to 10162
  140.4374  143.2541  151.9517 LP  0  0  0  0  0  0  0  0  0  0  0  0  # atno 17343 bound_to 10162
  157.6465  130.8849  149.9549 LP  0  0  0  0  0  0  0  0  0  0  0  0  # atno 17370 bound_to 10713
  156.0998  130.3656  150.0238 LP  0  0  0  0  0  0  0  0  0  0  0  0  # atno 17371 bound_to 10713
  139.9342  134.7906  156.0848 LP  0  0  0  0  0  0  0  0  0  0  0  0  # atno 17394 bound_to 11000
  141.1030  133.6670  156.2798 LP  0  0  0  0  0  0  0  0  0  0  0  0  # atno 17395 bound_to 11000

$$$$
