AV-unprocessed.smi:1196|AV-procd|sdf|4999|dock9
  -GOLD-   22720 4 03D 1   1.00000     0.00000
 Structure written by MMmdl.
 37 38  0  0  0  0  0  0  0  0  1 V2000
  153.4963  139.8890  160.0344 C   0  0  0  0  0  0  0  0  0  0  0  0
  152.6243  141.0414  159.5124 C   0  0  1  0  0  0  0  0  0  0  0  0
  153.2151  142.4134  159.8907 C   0  0  0  0  0  0  0  0  0  0  0  0
  152.3682  143.5136  159.4637 N   0  0  0  0  0  0  0  0  0  0  0  0
  151.8484  144.5382  160.2262 C   0  0  0  0  0  0  0  0  0  0  0  0
  151.1036  145.3251  159.3954 C   0  0  0  0  0  0  0  0  0  0  0  0
  151.2289  144.6916  158.1274 C   0  0  0  0  0  0  0  0  0  0  0  0
  151.9878  143.6086  158.1708 N   0  0  0  0  0  0  0  0  0  0  0  0
  152.4811  140.9419  158.0614 N   0  0  0  0  0  0  0  0  0  0  0  0
  151.8430  139.9622  157.4041 C   0  0  0  0  0  0  0  0  0  0  0  0
  151.3337  138.9917  157.9655 O   0  0  0  0  0  0  0  0  0  0  0  0
  151.7772  140.1133  155.8814 C   0  0  0  0  0  0  0  0  0  0  0  0
  150.7470  139.1792  155.2168 C   0  0  0  0  0  0  0  0  0  0  0  0
  149.3014  139.6999  155.3340 C   0  0  1  0  0  0  0  0  0  0  0  0
  148.8965  139.9294  156.7105 N   0  0  0  0  0  0  0  0  0  0  0  0
  148.5472  141.2029  156.9363 C   0  0  0  0  0  0  0  0  0  0  0  0
  148.1624  141.6666  158.0069 O   0  0  0  0  0  0  0  0  0  0  0  0
  148.6919  141.8799  155.7919 N   0  0  0  0  0  0  0  0  0  0  0  0
  149.1354  141.1112  154.7987 C   0  0  0  0  0  0  0  0  0  0  0  0
  149.3764  141.4590  153.6443 O   0  0  0  0  0  0  0  0  0  0  0  0
  153.5972  139.9357  161.1191 H   0  0  0  0  0  0  0  0  0  0  0  0
  154.4983  139.9228  159.6056 H   0  0  0  0  0  0  0  0  0  0  0  0
  153.0600  138.9202  159.7885 H   0  0  0  0  0  0  0  0  0  0  0  0
  151.6402  140.9595  159.9777 H   0  0  0  0  0  0  0  0  0  0  0  0
  153.3335  142.4844  160.9725 H   0  0  0  0  0  0  0  0  0  0  0  0
  154.2106  142.5384  159.4610 H   0  0  0  0  0  0  0  0  0  0  0  0
  152.0472  144.6190  161.2847 H   0  0  0  0  0  0  0  0  0  0  0  0
  150.5516  146.2164  159.6547 H   0  0  0  0  0  0  0  0  0  0  0  0
  150.7943  144.9843  157.1831 H   0  0  0  0  0  0  0  0  0  0  0  0
  152.8675  141.6998  157.5175 H   0  0  0  0  0  0  0  0  0  0  0  0
  151.5303  141.1493  155.6436 H   0  0  0  0  0  0  0  0  0  0  0  0
  152.7725  139.9264  155.4770 H   0  0  0  0  0  0  0  0  0  0  0  0
  151.0042  139.0386  154.1652 H   0  0  0  0  0  0  0  0  0  0  0  0
  150.8056  138.1922  155.6792 H   0  0  0  0  0  0  0  0  0  0  0  0
  148.5951  139.0288  154.8435 H   0  0  0  0  0  0  0  0  0  0  0  0
  148.8813  139.1995  157.4080 H   0  0  0  0  0  0  0  0  0  0  0  0
  148.4966  142.8655  155.6946 H   0  0  0  0  0  0  0  0  0  0  0  0
  1  2  1  0  0  0  0
  1 21  1  0  0  0  0
  1 22  1  0  0  0  0
  1 23  1  0  0  0  0
  2  3  1  0  0  0  0
  2  9  1  0  0  0  0
  2 24  1  0  0  0  0
  3  4  1  0  0  0  0
  3 25  1  0  0  0  0
  3 26  1  0  0  0  0
  4  8  1  0  0  0  0
  4  5  1  0  0  0  0
  5  6  2  0  0  0  0
  5 27  1  0  0  0  0
  6  7  1  0  0  0  0
  6 28  1  0  0  0  0
  7  8  2  0  0  0  0
  7 29  1  0  0  0  0
  9 10  1  0  0  0  0
  9 30  1  0  0  0  0
 10 11  2  0  0  0  0
 10 12  1  0  0  0  0
 12 13  1  0  0  0  0
 12 31  1  0  0  0  0
 12 32  1  0  0  0  0
 13 14  1  0  0  0  0
 13 33  1  0  0  0  0
 13 34  1  0  0  0  0
 14 19  1  0  0  0  0
 14 15  1  0  0  0  0
 14 35  1  0  0  0  0
 15 16  1  0  0  0  0
 15 36  1  0  0  0  0
 16 17  2  0  0  0  0
 16 18  1  0  0  0  0
 18 19  1  0  0  0  0
 18 37  1  0  0  0  0
 19 20  2  0  0  0  0
M  END
> <s_m_source_file>
AV-unprocessed.smi

> <i_m_source_file_index>
1196

> <i_lp_mmshare_version>
43012

> <i_f3d_flags>
0

> <s_epik_input>
bjFbY0hdW2NIXVtjSF1uMVtDSDJdW0NAQEhdKFtDSDNdKVtOSF1DKD1PKVtDSDJdW0NIMl1bQ0BASF0yW05IXUMoPU8pW05IXUMyPU8=

> <s_epik_cmdline>
J2VwaWtfcHl0aG9uJywgJy1waCcsICc3LjAnLCAnLXRuJywgJzgnLCAnLW1hJywgJzIwMCcsICctbWV0YWxfYmluZGluZycsICctaW1hZScsICc8aW5maWxlLm1hZT4nLCAnLW9tYWUnLCAnPG91dGZpbGUubWFlPic=

> <r_lp_tautomer_probability>
1

> <r_epik_Ionization_Penalty>
0.00815973

> <r_epik_Ionization_Penalty_Charging>
0

> <r_epik_Ionization_Penalty_Neutral>
0.00815973

> <r_epik_State_Penalty>
0.00583796

> <r_epik_Charging_Adjusted_Penalty>
0.00583796

> <i_epik_Tot_Q>
0

> <i_epik_Tot_abs_Q>
0

> <r_epik_Metal_State_Penalty>
0.409204

> <b_epik_Metal_Only>
0

> <s_lp_Force_Field>
OPLS_2005

> <r_lp_Energy>
17.2443

> <b_lp_Chiralities_Consistent>
1

> <s_lp_Variant>
AV-unprocessed.smi:1196-4

> <Gold.Version>
5.8.1

> <Gold.Id.Protein>
6NUR|6NUR_protein|mol2

> <Gold.PLP.Fitness>
47.2080

> <Gold.PLP.PLP>
-39.8214

> <Gold.PLP.part.hbond>
-3.0614

> <Gold.PLP.part.metal>
0.0000

> <Gold.PLP.part.buried>
-5.1808

> <Gold.PLP.part.nonpolar>
-31.2807

> <Gold.PLP.part.repulsive>
0.7292

> <Gold.PLP.ligand.clash>
0.0000

> <Gold.PLP.ligand.torsion>
0.3696

> <Gold.PLP.Chemscore.Hbond>
1.6880

> <Gold.PLP.Chemscore.CHOScore>
1.0000

> <Gold.PLP.Chemscore.Metal>
0.0000

> <Gold.Chemscore.Hbonds>
donor molecule, donor type, donor heavy atom, donor atom, acceptor molecule, acceptor atom, score
      L1  H    18    37       P1  8028  1.00
      P1  H  7989  7998       L1    20  0.05
      P1  H  8011  8017       L1    20  0.82
      L1  C     7    29       P1  8028  1.00

> <Gold.PLP.Chemscore.Internal.Correction>
0.0617

> <Gold.Rescore>
     Score         DG    S(hbond)    S(metal)    S(lipo)     H(rot)  DE(clash)    DE(int)     intcor
     12.53     -13.49       1.92        0.00      78.38       2.96       0.07       0.89       ----

> <Gold.Chemscore.Fitness>
12.5314

> <Gold.Chemscore.DG>
-13.4899

> <Gold.Chemscore.ZeroCoef>
-5.4800

> <Gold.Chemscore.Hbond>
1.9193

> <Gold.Chemscore.Metal>
0.0000

> <Gold.Chemscore.Lipo>
78.3818

> <Gold.Chemscore.Internal_Hbond>
0.0000

> <Gold.Chemscore.DEClash>
0.0659

> <Gold.Chemscore.DEInternal>
0.8926

> <Gold.Chemscore.Rot>
2.9575

> <Gold.Chemscore.Internal.Correction>
   9.000000E+99

> <Gold.Chemscore.Hbonds>
donor molecule, donor type, donor heavy atom, donor atom, acceptor molecule, acceptor atom, score
      L1  H    18    37       P1  8028  0.99
      P1  H  7989  7998       L1    20  0.02
      P1  H  8011  8017       L1    20  0.81

> <Gold.Chemscore.Hbond.Weighted>
-6.4106

> <Gold.Chemscore.Metal.Weighted>
-0.0000

> <Gold.Chemscore.Lipo.Weighted>
-9.1707

> <Gold.Chemscore.Internal_Hbond.Weighted>
0.0000

> <Gold.Chemscore.DEClash.Weighted>
0.0659

> <Gold.Chemscore.DEInternal.Weighted>
0.8926

> <Gold.Chemscore.Rot.Weighted>
7.5713

> <Gold.Chemscore.Internal.Correction.Weighted>
   9.000000E+99

> <Gold.Protein.RotatedTorsions>
[ 6907 6896 6895 6894 ] final  101.87 input  -60.11 | X-H torsion
[ 7974 7965 7964 7962 ] final   57.29 input  175.53 | X-H torsion
[ 8008 7997 7996 7995 ] final  -70.46 input   59.86 | X-H torsion
[ 10167 10162 10161 10158 ] final  -64.58 input  -65.29 | X-H torsion
[ 10718 10713 10712 10709 ] final -112.12 input   66.30 | X-H torsion
[ 10763 10752 10751 10750 ] final  -98.98 input  -60.55 | X-H torsion
[ 11005 11000 10999 10996 ] final  -72.96 input  -57.11 | X-H torsion

> <Gold.Protein.ActiveResidues>
 VAL166  LYS551  ARG553  GLY616  TRP617  ASP618  TYR619  PRO620  LYS621  CYS622 
 ASP623  PHE694  ASN695  SER759  ASP760  ASP761  ALA762  ILE779  LEU786  VAL792 
 PHE793  MET794  SER795  GLU796  ALA797  LYS798  CYS799  TRP800  GLU811  SER814 

> <Gold.Protein.RotatedAtoms>
  152.5338  134.0060  159.7916 H   0  0  0  0  0  0  0  0  0  0  0  0  # atno 6907 bound_to 6896
  151.0271  133.5816  159.2672 H   0  0  0  0  0  0  0  0  0  0  0  0  # atno 6908 bound_to 6896
  151.2834  135.0728  159.9231 H   0  0  0  0  0  0  0  0  0  0  0  0  # atno 6909 bound_to 6896
  145.9306  139.3805  143.0423 H   0  0  0  0  0  0  0  0  0  0  0  0  # atno 7974 bound_to 7965
  154.5013  140.0834  156.7804 H   0  0  0  0  0  0  0  0  0  0  0  0  # atno 8008 bound_to 7997
  155.3996  140.3436  155.4238 H   0  0  0  0  0  0  0  0  0  0  0  0  # atno 8009 bound_to 7997
  156.1460  140.1544  156.8833 H   0  0  0  0  0  0  0  0  0  0  0  0  # atno 8010 bound_to 7997
  140.5790  143.2325  151.6381 H   0  0  0  0  0  0  0  0  0  0  0  0  # atno 10167 bound_to 10162
  156.0687  130.5903  150.8465 H   0  0  0  0  0  0  0  0  0  0  0  0  # atno 10718 bound_to 10713
  154.7459  135.4989  153.9204 H   0  0  0  0  0  0  0  0  0  0  0  0  # atno 10763 bound_to 10752
  153.1092  135.6705  153.9539 H   0  0  0  0  0  0  0  0  0  0  0  0  # atno 10764 bound_to 10752
  153.9303  135.3078  155.3425 H   0  0  0  0  0  0  0  0  0  0  0  0  # atno 10765 bound_to 10752
  141.1616  133.6863  156.7138 H   0  0  0  0  0  0  0  0  0  0  0  0  # atno 11005 bound_to 11000
  145.8430  140.9570  143.0789 LP  0  0  0  0  0  0  0  0  0  0  0  0  # atno 17320 bound_to 7965
  144.6764  140.0309  143.7482 LP  0  0  0  0  0  0  0  0  0  0  0  0  # atno 17321 bound_to 7965
  139.5159  144.3363  152.0780 LP  0  0  0  0  0  0  0  0  0  0  0  0  # atno 17342 bound_to 10162
  140.2511  144.4168  150.6221 LP  0  0  0  0  0  0  0  0  0  0  0  0  # atno 17343 bound_to 10162
  157.5744  131.0946  150.9368 LP  0  0  0  0  0  0  0  0  0  0  0  0  # atno 17370 bound_to 10713
  156.9577  130.5443  149.5284 LP  0  0  0  0  0  0  0  0  0  0  0  0  # atno 17371 bound_to 10713
  140.2867  134.8273  157.3981 LP  0  0  0  0  0  0  0  0  0  0  0  0  # atno 17394 bound_to 11000
  140.1384  134.5004  155.8050 LP  0  0  0  0  0  0  0  0  0  0  0  0  # atno 17395 bound_to 11000

$$$$
