AV-unprocessed.smi:2895|AV-procd|sdf|11135|dock5
  -GOLD-   2272016 13D 1   1.00000     0.00000
 Structure written by MMmdl.
 54 57  0  0  0  0  0  0  0  0  3 V2000
  148.6580  141.8930  154.1279 O   0  0  0  0  0  0  0  0  0  0  0  0
  148.4937  140.9278  154.8750 C   0  0  0  0  0  0  0  0  0  0  0  0
  149.2082  140.7737  156.0030 N   0  0  0  0  0  0  0  0  0  0  0  0
  150.2343  141.6925  156.4837 C   0  0  0  0  0  0  0  0  0  0  0  0
  151.0990  141.0592  157.5871 C   0  0  0  0  0  0  0  0  0  0  0  0
  151.6743  142.0967  158.5324 C   0  0  0  0  0  0  0  0  0  0  0  0
  152.4963  141.7023  159.6112 C   0  0  0  0  0  0  0  0  0  0  0  0
  153.0190  142.6873  160.4742 C   0  0  0  0  0  0  0  0  0  0  0  0
  152.7283  143.9898  160.2627 N   0  3  0  0  0  0  0  0  0  0  0  0
  151.9466  144.4091  159.2435 C   0  0  0  0  0  0  0  0  0  0  0  0
  151.3980  143.4695  158.3468 C   0  0  0  0  0  0  0  0  0  0  0  0
  147.5689  139.9599  154.6468 N   0  0  0  0  0  0  0  0  0  0  0  0
  147.4019  138.7135  155.4120 C   0  0  0  0  0  0  0  0  0  0  0  0
  147.7864  137.5175  154.5188 C   0  0  0  0  0  0  0  0  0  0  0  0
  146.9948  137.4845  153.2554 N   0  3  0  0  0  0  0  0  0  0  0  0
  145.6023  136.9634  153.4098 C   0  0  1  0  0  0  0  0  0  0  0  0
  144.8107  136.8734  152.0814 C   0  0  0  0  0  0  0  0  0  0  0  0
  144.2497  135.4393  152.1007 C   0  0  1  0  0  0  0  0  0  0  0  0
  145.3882  134.4576  151.7744 C   0  0  0  0  0  0  0  0  0  0  0  0
  146.2527  134.5151  153.0462 C   0  0  0  0  0  0  0  0  0  0  0  0
  145.4862  135.5123  153.9425 C   0  0  2  0  0  0  0  0  0  0  0  0
  144.0388  135.1869  153.5883 C   0  0  0  0  0  0  0  0  0  0  0  0
  147.0633  138.7918  152.5410 C   0  0  0  0  0  0  0  0  0  0  0  0
  146.7047  139.9774  153.4606 C   0  0  0  0  0  0  0  0  0  0  0  0
  149.0130  139.9681  156.5795 H   0  0  0  0  0  0  0  0  0  0  0  0
  150.8557  142.0230  155.6495 H   0  0  0  0  0  0  0  0  0  0  0  0
  149.7341  142.5813  156.8695 H   0  0  0  0  0  0  0  0  0  0  0  0
  150.5092  140.3401  158.1569 H   0  0  0  0  0  0  0  0  0  0  0  0
  151.9250  140.4982  157.1477 H   0  0  0  0  0  0  0  0  0  0  0  0
  152.7253  140.6591  159.7753 H   0  0  0  0  0  0  0  0  0  0  0  0
  153.6553  142.4742  161.3207 H   0  0  0  0  0  0  0  0  0  0  0  0
  151.7845  145.4752  159.1766 H   0  0  0  0  0  0  0  0  0  0  0  0
  150.7735  143.8013  157.5297 H   0  0  0  0  0  0  0  0  0  0  0  0
  147.9872  138.6735  156.3303 H   0  0  0  0  0  0  0  0  0  0  0  0
  146.3624  138.6302  155.7317 H   0  0  0  0  0  0  0  0  0  0  0  0
  148.8395  137.6046  154.2479 H   0  0  0  0  0  0  0  0  0  0  0  0
  147.7093  136.5828  155.0715 H   0  0  0  0  0  0  0  0  0  0  0  0
  145.0607  137.6162  154.0958 H   0  0  0  0  0  0  0  0  0  0  0  0
  144.0061  137.6097  152.0672 H   0  0  0  0  0  0  0  0  0  0  0  0
  145.4256  137.0381  151.1958 H   0  0  0  0  0  0  0  0  0  0  0  0
  143.3651  135.3050  151.4772 H   0  0  0  0  0  0  0  0  0  0  0  0
  144.9993  133.4499  151.6196 H   0  0  0  0  0  0  0  0  0  0  0  0
  145.9419  134.7423  150.8788 H   0  0  0  0  0  0  0  0  0  0  0  0
  146.2988  133.5322  153.5170 H   0  0  0  0  0  0  0  0  0  0  0  0
  147.2763  134.8276  152.8395 H   0  0  0  0  0  0  0  0  0  0  0  0
  145.7086  135.4108  155.0050 H   0  0  0  0  0  0  0  0  0  0  0  0
  143.3148  135.8644  154.0446 H   0  0  0  0  0  0  0  0  0  0  0  0
  143.7573  134.1572  153.8170 H   0  0  0  0  0  0  0  0  0  0  0  0
  148.0836  138.9213  152.1775 H   0  0  0  0  0  0  0  0  0  0  0  0
  146.4309  138.7992  151.6544 H   0  0  0  0  0  0  0  0  0  0  0  0
  145.6632  139.9173  153.7777 H   0  0  0  0  0  0  0  0  0  0  0  0
  146.7795  140.9072  152.8954 H   0  0  0  0  0  0  0  0  0  0  0  0
  147.4550  136.8116  152.6585 H   0  0  0  0  0  0  0  0  0  0  0  0
  153.1151  144.6865  160.9002 H   0  0  0  0  0  0  0  0  0  0  0  0
  1  2  2  0  0  0  0
  2  3  1  0  0  0  0
  2 12  1  0  0  0  0
  3  4  1  0  0  0  0
  3 25  1  0  0  0  0
  4  5  1  0  0  0  0
  4 26  1  0  0  0  0
  4 27  1  0  0  0  0
  5  6  1  0  0  0  0
  5 28  1  0  0  0  0
  5 29  1  0  0  0  0
  6 11  1  0  0  0  0
  6  7  2  0  0  0  0
  7  8  1  0  0  0  0
  7 30  1  0  0  0  0
  8  9  2  0  0  0  0
  8 31  1  0  0  0  0
  9 10  1  0  0  0  0
  9 54  1  0  0  0  0
 10 11  2  0  0  0  0
 10 32  1  0  0  0  0
 11 33  1  0  0  0  0
 12 24  1  0  0  0  0
 12 13  1  0  0  0  0
 13 14  1  0  0  0  0
 13 34  1  0  0  0  0
 13 35  1  0  0  0  0
 14 15  1  0  0  0  0
 14 36  1  0  0  0  0
 14 37  1  0  0  0  0
 15 16  1  0  0  0  0
 15 23  1  0  0  0  0
 15 53  1  0  0  0  0
 16 21  1  0  0  0  0
 16 17  1  0  0  0  0
 16 38  1  0  0  0  0
 17 18  1  0  0  0  0
 17 39  1  0  0  0  0
 17 40  1  0  0  0  0
 18 22  1  0  0  0  0
 18 19  1  0  0  0  0
 18 41  1  0  0  0  0
 19 20  1  0  0  0  0
 19 42  1  0  0  0  0
 19 43  1  0  0  0  0
 20 21  1  0  0  0  0
 20 44  1  0  0  0  0
 20 45  1  0  0  0  0
 21 22  1  0  0  0  0
 21 46  1  0  0  0  0
 22 47  1  0  0  0  0
 22 48  1  0  0  0  0
 23 24  1  0  0  0  0
 23 49  1  0  0  0  0
 23 50  1  0  0  0  0
 24 51  1  0  0  0  0
 24 52  1  0  0  0  0
M  CHG  1   9   1
M  CHG  1  15   1
M  END
> <s_m_source_file>
AV-unprocessed.smi

> <i_m_source_file_index>
2895

> <i_lp_mmshare_version>
43012

> <i_f3d_flags>
0

> <s_epik_input>
W0NIMl0xW0NIMl1bQ0BASF0oW0NIMl0yKVtDQEBIXShbQ0gyXVtDQEhdMTIpTihbQ0gyXVtDSDJdMylbQ0gyXVtDSDJdTjNDKD1PKVtOSF1bQ0gyXVtDSDJdYzRbY0hdW2NIXW5bY0hdW2NIXTQ=

> <s_epik_cmdline>
J2VwaWtfcHl0aG9uJywgJy1waCcsICc3LjAnLCAnLXRuJywgJzgnLCAnLW1hJywgJzIwMCcsICctbWV0YWxfYmluZGluZycsICctaW1hZScsICc8aW5maWxlLm1hZT4nLCAnLW9tYWUnLCAnPG91dGZpbGUubWFlPic=

> <r_epik_Ionization_Penalty>
1.44916

> <r_epik_Ionization_Penalty_Charging>
1.44913

> <r_epik_Ionization_Penalty_Neutral>
2.64641e-05

> <r_epik_State_Penalty>
1.53218

> <r_epik_Charging_Adjusted_Penalty>
2.98131

> <i_epik_Tot_Q>
2

> <i_epik_Tot_abs_Q>
2

> <r_epik_Metal_State_Penalty>
1.58241

> <b_epik_Metal_Only>
0

> <s_lp_Force_Field>
OPLS_2005

> <r_lp_Energy>
107.439

> <b_lp_Chiralities_Consistent>
1

> <s_lp_Variant>
AV-unprocessed.smi:2895-8

> <Gold.Version>
5.8.1

> <Gold.Id.Protein>
6NUR|6NUR_protein|mol2

> <Gold.PLP.Fitness>
43.2618

> <Gold.PLP.PLP>
-36.5148

> <Gold.PLP.part.hbond>
-2.0000

> <Gold.PLP.part.metal>
0.0000

> <Gold.PLP.part.buried>
0.7000

> <Gold.PLP.part.nonpolar>
-36.0520

> <Gold.PLP.part.repulsive>
0.3154

> <Gold.PLP.ligand.clash>
0.0000

> <Gold.PLP.ligand.torsion>
0.2981

> <Gold.PLP.Chemscore.Hbond>
2.4160

> <Gold.PLP.Chemscore.CHOScore>
0.0000

> <Gold.PLP.Chemscore.Metal>
0.0000

> <Gold.Chemscore.Hbonds>
donor molecule, donor type, donor heavy atom, donor atom, acceptor molecule, acceptor atom, score
      L1  H    15    53       P1  7948  1.98
      P1  H  8011  8017       L1     1  0.28

> <Gold.PLP.Chemscore.Internal.Correction>
0.0952

> <Gold.Rescore>
     Score         DG    S(hbond)    S(metal)    S(lipo)     H(rot)  DE(clash)    DE(int)     intcor
     18.64     -19.45       1.40        0.00     111.27       1.46       0.45       0.36       ----

> <Gold.Chemscore.Fitness>
18.6436

> <Gold.Chemscore.DG>
-19.4497

> <Gold.Chemscore.ZeroCoef>
-5.4800

> <Gold.Chemscore.Hbond>
1.4017

> <Gold.Chemscore.Metal>
0.0000

> <Gold.Chemscore.Lipo>
111.2701

> <Gold.Chemscore.Internal_Hbond>
0.0000

> <Gold.Chemscore.DEClash>
0.4473

> <Gold.Chemscore.DEInternal>
0.3588

> <Gold.Chemscore.Rot>
1.4572

> <Gold.Chemscore.Internal.Correction>
   9.000000E+99

> <Gold.Chemscore.Hbonds>
donor molecule, donor type, donor heavy atom, donor atom, acceptor molecule, acceptor atom, score
      L1  H    15    53       P1  7948  0.93
      P1  H  8011  8017       L1     1  0.29

> <Gold.Chemscore.Hbond.Weighted>
-4.6816

> <Gold.Chemscore.Metal.Weighted>
-0.0000

> <Gold.Chemscore.Lipo.Weighted>
-13.0186

> <Gold.Chemscore.Internal_Hbond.Weighted>
0.0000

> <Gold.Chemscore.DEClash.Weighted>
0.4473

> <Gold.Chemscore.DEInternal.Weighted>
0.3588

> <Gold.Chemscore.Rot.Weighted>
3.7305

> <Gold.Chemscore.Internal.Correction.Weighted>
   9.000000E+99

> <Gold.Protein.RotatedTorsions>
[ 6907 6896 6895 6894 ] final -125.74 input  -60.11 | X-H torsion
[ 7974 7965 7964 7962 ] final   27.75 input  175.53 | X-H torsion
[ 8008 7997 7996 7995 ] final -167.64 input   59.86 | X-H torsion
[ 10167 10162 10161 10158 ] final   76.26 input  -65.29 | X-H torsion
[ 10718 10713 10712 10709 ] final  112.77 input   66.30 | X-H torsion
[ 10763 10752 10751 10750 ] final  101.69 input  -60.55 | X-H torsion
[ 11005 11000 10999 10996 ] final  -32.24 input  -57.11 | X-H torsion

> <Gold.Protein.ActiveResidues>
 VAL166  LYS551  ARG553  GLY616  TRP617  ASP618  TYR619  PRO620  LYS621  CYS622 
 ASP623  PHE694  ASN695  SER759  ASP760  ASP761  ALA762  ILE779  LEU786  VAL792 
 PHE793  MET794  SER795  GLU796  ALA797  LYS798  CYS799  TRP800  GLU811  SER814 

> <Gold.Protein.RotatedAtoms>
  150.8898  133.7259  159.2907 H   0  0  0  0  0  0  0  0  0  0  0  0  # atno 6907 bound_to 6896
  151.4812  135.1051  159.9788 H   0  0  0  0  0  0  0  0  0  0  0  0  # atno 6908 bound_to 6896
  152.4813  133.8214  159.7111 H   0  0  0  0  0  0  0  0  0  0  0  0  # atno 6909 bound_to 6896
  146.1767  139.7149  142.8929 H   0  0  0  0  0  0  0  0  0  0  0  0  # atno 7974 bound_to 7965
  155.8805  140.1008  157.1488 H   0  0  0  0  0  0  0  0  0  0  0  0  # atno 8008 bound_to 7997
  154.4005  140.1330  156.4254 H   0  0  0  0  0  0  0  0  0  0  0  0  # atno 8009 bound_to 7997
  155.7648  140.3462  155.5219 H   0  0  0  0  0  0  0  0  0  0  0  0  # atno 8010 bound_to 7997
  139.9941  144.5735  150.7793 H   0  0  0  0  0  0  0  0  0  0  0  0  # atno 10167 bound_to 10162
  157.6374  131.0973  150.6944 H   0  0  0  0  0  0  0  0  0  0  0  0  # atno 10718 bound_to 10713
  153.3300  135.4036  155.1487 H   0  0  0  0  0  0  0  0  0  0  0  0  # atno 10763 bound_to 10752
  154.8621  135.3608  154.5483 H   0  0  0  0  0  0  0  0  0  0  0  0  # atno 10764 bound_to 10752
  153.5921  135.7073  153.5478 H   0  0  0  0  0  0  0  0  0  0  0  0  # atno 10765 bound_to 10752
  140.9535  133.7206  156.1258 H   0  0  0  0  0  0  0  0  0  0  0  0  # atno 11005 bound_to 11000
  145.4192  141.0404  143.2974 LP  0  0  0  0  0  0  0  0  0  0  0  0  # atno 17320 bound_to 7965
  144.8248  139.5729  143.6970 LP  0  0  0  0  0  0  0  0  0  0  0  0  # atno 17321 bound_to 7965
  140.7444  143.2859  151.3464 LP  0  0  0  0  0  0  0  0  0  0  0  0  # atno 17342 bound_to 10162
  139.6319  144.0705  152.2483 LP  0  0  0  0  0  0  0  0  0  0  0  0  # atno 17343 bound_to 10162
  156.7273  130.4699  149.5508 LP  0  0  0  0  0  0  0  0  0  0  0  0  # atno 17370 bound_to 10713
  156.1626  130.6384  151.0737 LP  0  0  0  0  0  0  0  0  0  0  0  0  # atno 17371 bound_to 10713
  140.7568  134.3983  157.5532 LP  0  0  0  0  0  0  0  0  0  0  0  0  # atno 17394 bound_to 11000
  139.8855  134.8936  156.2640 LP  0  0  0  0  0  0  0  0  0  0  0  0  # atno 17395 bound_to 11000

$$$$
