AV-unprocessed.smi:74|AV-procd|sdf|763|dock2
  -GOLD-   2262017103D 1   1.00000     0.00000
 Structure written by MMmdl.
 58 62  0  0  0  0  0  0  0  0  1 V2000
  142.1101  138.8710  153.8678 O   0  0  0  0  0  0  0  0  0  0  0  0
  141.5587  137.6389  153.4499 C   0  0  0  0  0  0  0  0  0  0  0  0
  142.5708  136.4929  153.6128 C   0  0  0  0  0  0  0  0  0  0  0  0
  141.8826  135.1564  153.2682 C   0  0  0  0  0  0  0  0  0  0  0  0
  140.6451  135.0244  153.9379 O   0  0  0  0  0  0  0  0  0  0  0  0
  143.9452  136.7186  152.9429 C   0  0  0  0  0  0  0  0  0  0  0  0
  144.6346  136.1206  154.1709 C   0  0  0  0  0  0  0  0  0  0  0  0
  145.9241  136.5828  154.5929 N   0  0  0  0  0  0  0  0  0  0  0  0
  146.7178  136.0303  155.5724 C   0  0  0  0  0  0  0  0  0  0  0  0
  147.8758  136.6077  155.7417 N   0  0  0  0  0  0  0  0  0  0  0  0
  147.8969  137.6159  154.7848 C   0  0  0  0  0  0  0  0  0  0  0  0
  148.8496  138.6041  154.4057 C   0  0  0  0  0  0  0  0  0  0  0  0
  150.0444  138.7513  155.0337 N   0  0  0  0  0  0  0  0  0  0  0  0
  151.2458  138.3014  154.3344 C   0  0  0  0  0  0  0  0  0  0  0  0
  152.4448  138.2895  155.2962 C   0  0  0  0  0  0  0  0  0  0  0  0
  152.6070  139.5794  155.8769 O   0  0  0  0  0  0  0  0  0  0  0  0
  151.4633  139.9826  156.6262 C   0  0  1  0  0  0  0  0  0  0  0  0
  151.7627  141.3271  157.3035 C   0  0  0  0  0  0  0  0  0  0  0  0
  150.6239  141.7666  158.0264 O   0  0  0  0  0  0  0  0  0  0  0  0
  150.5341  143.1781  158.1038 C   0  0  0  0  0  0  0  0  0  0  0  0
  151.8191  143.7195  158.6925 C   0  0  0  0  0  0  0  0  0  0  0  0
  151.8935  145.1369  159.2134 C   0  0  0  0  0  0  0  0  0  0  0  0
  152.6189  144.7630  157.9461 C   0  0  0  0  0  0  0  0  0  0  0  0
  150.2235  140.0315  155.7112 C   0  0  0  0  0  0  0  0  0  0  0  0
  148.5229  139.4184  153.3659 N   0  0  0  0  0  0  0  0  0  0  0  0
  147.3468  139.2861  152.7460 C   0  0  0  0  0  0  0  0  0  0  0  0
  146.3636  138.4208  152.9993 N   0  0  0  0  0  0  0  0  0  0  0  0
  146.6846  137.5974  154.0380 C   0  0  0  0  0  0  0  0  0  0  0  0
  143.3654  136.5006  154.9375 C   0  0  0  0  0  0  0  0  0  0  0  0
  142.6803  139.1911  153.1855 H   0  0  0  0  0  0  0  0  0  0  0  0
  140.6434  137.4509  154.0115 H   0  0  0  0  0  0  0  0  0  0  0  0
  141.2588  137.7458  152.4070 H   0  0  0  0  0  0  0  0  0  0  0  0
  141.6901  135.0762  152.1982 H   0  0  0  0  0  0  0  0  0  0  0  0
  142.5129  134.3049  153.5256 H   0  0  0  0  0  0  0  0  0  0  0  0
  139.9558  135.2979  153.3522 H   0  0  0  0  0  0  0  0  0  0  0  0
  144.1091  136.1607  152.0204 H   0  0  0  0  0  0  0  0  0  0  0  0
  144.1859  137.7745  152.8052 H   0  0  0  0  0  0  0  0  0  0  0  0
  144.7196  135.0369  154.0757 H   0  0  0  0  0  0  0  0  0  0  0  0
  146.4081  135.1827  156.1667 H   0  0  0  0  0  0  0  0  0  0  0  0
  151.0923  137.3006  153.9286 H   0  0  0  0  0  0  0  0  0  0  0  0
  151.4504  138.9673  153.4948 H   0  0  0  0  0  0  0  0  0  0  0  0
  152.3087  137.5409  156.0783 H   0  0  0  0  0  0  0  0  0  0  0  0
  153.3552  138.0252  154.7580 H   0  0  0  0  0  0  0  0  0  0  0  0
  151.2956  139.2446  157.4128 H   0  0  0  0  0  0  0  0  0  0  0  0
  152.6066  141.2127  157.9858 H   0  0  0  0  0  0  0  0  0  0  0  0
  152.0471  142.0683  156.5550 H   0  0  0  0  0  0  0  0  0  0  0  0
  150.3931  143.6048  157.1099 H   0  0  0  0  0  0  0  0  0  0  0  0
  149.6867  143.4773  158.7228 H   0  0  0  0  0  0  0  0  0  0  0  0
  152.4035  142.9761  159.2314 H   0  0  0  0  0  0  0  0  0  0  0  0
  151.0061  145.7597  159.1192 H   0  0  0  0  0  0  0  0  0  0  0  0
  152.4927  145.3120  160.1046 H   0  0  0  0  0  0  0  0  0  0  0  0
  153.7037  144.6906  157.9902 H   0  0  0  0  0  0  0  0  0  0  0  0
  152.2145  145.1379  157.0078 H   0  0  0  0  0  0  0  0  0  0  0  0
  150.3399  140.8095  154.9553 H   0  0  0  0  0  0  0  0  0  0  0  0
  149.3483  140.2962  156.3031 H   0  0  0  0  0  0  0  0  0  0  0  0
  147.1680  139.9734  151.9323 H   0  0  0  0  0  0  0  0  0  0  0  0
  143.4296  137.4937  155.3867 H   0  0  0  0  0  0  0  0  0  0  0  0
  143.0419  135.7609  155.6705 H   0  0  0  0  0  0  0  0  0  0  0  0
  1  2  1  0  0  0  0
  1 30  1  0  0  0  0
  2  3  1  0  0  0  0
  2 31  1  0  0  0  0
  2 32  1  0  0  0  0
  3 29  1  0  0  0  0
  3  4  1  0  0  0  0
  3  6  1  0  0  0  0
  4  5  1  0  0  0  0
  4 33  1  0  0  0  0
  4 34  1  0  0  0  0
  5 35  1  0  0  0  0
  6  7  1  0  0  0  0
  6 36  1  0  0  0  0
  6 37  1  0  0  0  0
  7  8  1  0  0  0  0
  7 29  1  0  0  0  0
  7 38  1  0  0  0  0
  8 28  1  0  0  0  0
  8  9  1  0  0  0  0
  9 10  2  0  0  0  0
  9 39  1  0  0  0  0
 10 11  1  0  0  0  0
 11 28  2  0  0  0  0
 11 12  1  0  0  0  0
 12 13  1  0  0  0  0
 12 25  2  0  0  0  0
 13 24  1  0  0  0  0
 13 14  1  0  0  0  0
 14 15  1  0  0  0  0
 14 40  1  0  0  0  0
 14 41  1  0  0  0  0
 15 16  1  0  0  0  0
 15 42  1  0  0  0  0
 15 43  1  0  0  0  0
 16 17  1  0  0  0  0
 17 18  1  0  0  0  0
 17 24  1  0  0  0  0
 17 44  1  0  0  0  0
 18 19  1  0  0  0  0
 18 45  1  0  0  0  0
 18 46  1  0  0  0  0
 19 20  1  0  0  0  0
 20 21  1  0  0  0  0
 20 47  1  0  0  0  0
 20 48  1  0  0  0  0
 21 23  1  0  0  0  0
 21 22  1  0  0  0  0
 21 49  1  0  0  0  0
 22 23  1  0  0  0  0
 22 50  1  0  0  0  0
 22 51  1  0  0  0  0
 23 52  1  0  0  0  0
 23 53  1  0  0  0  0
 24 54  1  0  0  0  0
 24 55  1  0  0  0  0
 25 26  1  0  0  0  0
 26 27  2  0  0  0  0
 26 56  1  0  0  0  0
 27 28  1  0  0  0  0
 29 57  1  0  0  0  0
 29 58  1  0  0  0  0
M  END
> <s_m_source_file>
AV-unprocessed.smi

> <i_m_source_file_index>
74

> <i_lp_mmshare_version>
43012

> <i_f3d_flags>
0

> <s_epik_input>
W09IXVtDSDJdQzEoW0NIMl1bT0hdKVtDSDJdW0NIXShbQ0gyXTEpbihbY0hdbjIpYyhjMjMpbltjSF1uYzNONFtDSDJdW0NIMl1PW0NASF0oW0NIMl00KVtDSDJdT1tDSDJdW0NIXTVbQ0gyXVtDSDJdNQ==

> <s_epik_cmdline>
J2VwaWtfcHl0aG9uJywgJy1waCcsICc3LjAnLCAnLXRuJywgJzgnLCAnLW1hJywgJzIwMCcsICctbWV0YWxfYmluZGluZycsICctaW1hZScsICc8aW5maWxlLm1hZT4nLCAnLW9tYWUnLCAnPG91dGZpbGUubWFlPic=

> <r_lp_tautomer_probability>
1

> <r_epik_Ionization_Penalty>
5.89322e-05

> <r_epik_Ionization_Penalty_Charging>
0

> <r_epik_Ionization_Penalty_Neutral>
5.89322e-05

> <r_epik_State_Penalty>
-0

> <r_epik_Charging_Adjusted_Penalty>
0

> <i_epik_Tot_Q>
0

> <i_epik_Tot_abs_Q>
0

> <r_epik_Metal_State_Penalty>
-0

> <b_epik_Metal_Only>
0

> <s_lp_Force_Field>
OPLS_2005

> <r_lp_Energy>
49.0423

> <b_lp_Chiralities_Consistent>
1

> <s_lp_Variant>
AV-unprocessed.smi:74-1

> <Gold.Version>
5.8.1

> <Gold.Id.Protein>
6NUR|6NUR_protein|mol2

> <Gold.PLP.Fitness>
51.6890

> <Gold.PLP.PLP>
-42.6567

> <Gold.PLP.part.hbond>
-3.8735

> <Gold.PLP.part.metal>
0.0000

> <Gold.PLP.part.buried>
-8.4044

> <Gold.PLP.part.nonpolar>
-34.6667

> <Gold.PLP.part.repulsive>
4.1175

> <Gold.PLP.ligand.clash>
0.0000

> <Gold.PLP.ligand.torsion>
1.3280

> <Gold.PLP.Chemscore.Hbond>
3.0000

> <Gold.PLP.Chemscore.CHOScore>
0.3222

> <Gold.PLP.Chemscore.Metal>
0.0000

> <Gold.Chemscore.Hbonds>
donor molecule, donor type, donor heavy atom, donor atom, acceptor molecule, acceptor atom, score
      L1  H     1    30       P1 10175  1.00
      P1  H  7997  8009       L1    16  1.00
      P1  H 11000 11005       L1     5  1.00
      L1  C    26    56       P1  7957  0.32

> <Gold.PLP.Chemscore.Internal.Correction>
1.7219

> <Gold.Rescore>
     Score         DG    S(hbond)    S(metal)    S(lipo)     H(rot)  DE(clash)    DE(int)     intcor
     13.36     -17.37       2.97        0.00     103.77       3.97       1.56       2.45       ----

> <Gold.Chemscore.Fitness>
13.3591

> <Gold.Chemscore.DG>
-17.3741

> <Gold.Chemscore.ZeroCoef>
-5.4800

> <Gold.Chemscore.Hbond>
2.9658

> <Gold.Chemscore.Metal>
0.0000

> <Gold.Chemscore.Lipo>
103.7708

> <Gold.Chemscore.Internal_Hbond>
0.0000

> <Gold.Chemscore.DEClash>
1.5642

> <Gold.Chemscore.DEInternal>
2.4508

> <Gold.Chemscore.Rot>
3.9660

> <Gold.Chemscore.Internal.Correction>
   9.000000E+99

> <Gold.Chemscore.Hbonds>
donor molecule, donor type, donor heavy atom, donor atom, acceptor molecule, acceptor atom, score
      L1  H     1    30       P1 10175  0.95
      P1  H  7997  8009       L1    16  0.95
      P1  H 11000 11005       L1     5  0.98

> <Gold.Chemscore.Hbond.Weighted>
-9.9058

> <Gold.Chemscore.Metal.Weighted>
-0.0000

> <Gold.Chemscore.Lipo.Weighted>
-12.1412

> <Gold.Chemscore.Internal_Hbond.Weighted>
0.0000

> <Gold.Chemscore.DEClash.Weighted>
1.5642

> <Gold.Chemscore.DEInternal.Weighted>
2.4508

> <Gold.Chemscore.Rot.Weighted>
10.1529

> <Gold.Chemscore.Internal.Correction.Weighted>
   9.000000E+99

> <Gold.Protein.RotatedTorsions>
[ 6907 6896 6895 6894 ] final -123.44 input  -60.11 | X-H torsion
[ 7974 7965 7964 7962 ] final   88.22 input  175.53 | X-H torsion
[ 8008 7997 7996 7995 ] final -161.01 input   59.86 | X-H torsion
[ 10167 10162 10161 10158 ] final  -92.27 input  -65.29 | X-H torsion
[ 10718 10713 10712 10709 ] final  -90.79 input   66.30 | X-H torsion
[ 10763 10752 10751 10750 ] final -124.37 input  -60.55 | X-H torsion
[ 11005 11000 10999 10996 ] final   33.44 input  -57.11 | X-H torsion

> <Gold.Protein.ActiveResidues>
 VAL166  LYS551  ARG553  GLY616  TRP617  ASP618  TYR619  PRO620  LYS621  CYS622 
 ASP623  PHE694  ASN695  SER759  ASP760  ASP761  ALA762  ILE779  LEU786  VAL792 
 PHE793  MET794  SER795  GLU796  ALA797  LYS798  CYS799  TRP800  GLU811  SER814 

> <Gold.Protein.RotatedAtoms>
  150.8671  133.7559  159.2973 H   0  0  0  0  0  0  0  0  0  0  0  0  # atno 6907 bound_to 6896
  151.5183  135.1065  159.9881 H   0  0  0  0  0  0  0  0  0  0  0  0  # atno 6908 bound_to 6896
  152.4669  133.7897  159.6951 H   0  0  0  0  0  0  0  0  0  0  0  0  # atno 6909 bound_to 6896
  145.5486  139.2294  143.2525 H   0  0  0  0  0  0  0  0  0  0  0  0  # atno 7974 bound_to 7965
  155.7858  140.0871  157.2035 H   0  0  0  0  0  0  0  0  0  0  0  0  # atno 8008 bound_to 7997
  154.3988  140.1499  156.3164 H   0  0  0  0  0  0  0  0  0  0  0  0  # atno 8009 bound_to 7997
  155.8608  140.3430  155.5757 H   0  0  0  0  0  0  0  0  0  0  0  0  # atno 8010 bound_to 7997
  140.3365  143.2966  151.9883 H   0  0  0  0  0  0  0  0  0  0  0  0  # atno 10167 bound_to 10162
  155.9989  130.4923  150.5377 H   0  0  0  0  0  0  0  0  0  0  0  0  # atno 10718 bound_to 10713
  154.8722  135.4066  154.3094 H   0  0  0  0  0  0  0  0  0  0  0  0  # atno 10763 bound_to 10752
  153.3940  135.7016  153.6479 H   0  0  0  0  0  0  0  0  0  0  0  0  # atno 10764 bound_to 10752
  153.5250  135.3679  155.2620 H   0  0  0  0  0  0  0  0  0  0  0  0  # atno 10765 bound_to 10752
  140.2631  134.3169  155.7851 H   0  0  0  0  0  0  0  0  0  0  0  0  # atno 11005 bound_to 11000
  146.1932  140.6308  142.9136 LP  0  0  0  0  0  0  0  0  0  0  0  0  # atno 17320 bound_to 7965
  144.7540  140.5263  143.6781 LP  0  0  0  0  0  0  0  0  0  0  0  0  # atno 17321 bound_to 7965
  139.4847  144.6192  151.7287 LP  0  0  0  0  0  0  0  0  0  0  0  0  # atno 17342 bound_to 10162
  140.5349  144.0672  150.6067 LP  0  0  0  0  0  0  0  0  0  0  0  0  # atno 17343 bound_to 10162
  157.3317  131.0701  151.1855 LP  0  0  0  0  0  0  0  0  0  0  0  0  # atno 17370 bound_to 10713
  157.2734  130.6715  149.6030 LP  0  0  0  0  0  0  0  0  0  0  0  0  # atno 17371 bound_to 10713
  141.2188  133.7421  156.9218 LP  0  0  0  0  0  0  0  0  0  0  0  0  # atno 17394 bound_to 11000
  140.1445  134.9271  157.2511 LP  0  0  0  0  0  0  0  0  0  0  0  0  # atno 17395 bound_to 11000

$$$$
