#       Name:                AV-unprocessed.smi:195
#       Creating user name   scv26
#       Creation time:       Thu Mar 26 19:37:37 2020


#       File generated by GOLD software.
#

@<TRIPOS>MOLECULE
AV-unprocessed.smi:195
    56    59     1
SMALL
NO_CHARGES


@<TRIPOS>ATOM
      1 ****        -4.3048   3.7225  -4.3190 N.1            1 S1                 0.0000
      2 ****        -4.1987   2.6534  -3.8895 C.1            1 S1                 0.0000
      3 ****        -4.0628   1.2940  -3.3428 C.3            1 S1                 0.0000
      4 ****        -4.9102   1.0544  -2.0899 C.3            1 S1                 0.0000
      5 ****        -6.2358   0.9492  -2.5653 O.3            1 S1                 0.0000
      6 ****        -4.4688  -0.0666  -1.1443 C.3            1 S1                 0.0000
      7 ****        -3.9046   0.9618  -0.2742 N.3            1 S1                 0.0000
      8 ****        -2.4829   1.0832  -0.3741 C.ar           1 S1                 0.0000
      9 ****        -1.9039   2.2683  -0.7088 N.ar           1 S1                 0.0000
     10 ****        -0.5761   2.3915  -0.7945 C.ar           1 S1                 0.0000
     11 ****         0.3615   1.4691  -0.5775 N.ar           1 S1                 0.0000
     12 ****        -0.2000   0.2801  -0.2213 C.ar           1 S1                 0.0000
     13 ****        -1.5919   0.0068  -0.0952 C.ar           1 S1                 0.0000
     14 ****        -1.7777  -1.3149   0.2942 N.2            1 S1                 0.0000
     15 ****        -0.5678  -1.7952   0.3887 C.2            1 S1                 0.0000
     16 ****         0.4392  -0.9041   0.0969 N.pl3          1 S1                 0.0000
     17 ****         1.8675  -1.1621   0.1249 C.3            1 S1                 0.0000
     18 ****         2.5355  -0.6184   1.4026 C.3            1 S1                 0.0000
     19 ****         1.9620  -1.2076   2.5542 O.3            1 S1                 0.0000
     20 ****         4.0655  -0.8083   1.4028 C.3            1 S1                 0.0000
     21 ****         4.8106  -0.3466   2.6580 C.3            1 S1                 0.0000
     22 ****         6.0761  -1.1693   2.5664 C.3            1 S1                 0.0000
     23 ****         5.5478  -2.4970   2.0285 C.3            1 S1                 0.0000
     24 ****         4.4335  -2.1708   1.2018 O.3            1 S1                 0.0000
     25 ****        -4.7223   2.0013  -0.9000 C.3            1 S1                 0.0000
     26 ****        -4.3179   0.5862  -4.1323 H              1 S1                 0.0000
     27 ****        -3.0041   1.1458  -3.1307 H              1 S1                 0.0000
     28 ****        -6.7889   0.8078  -1.8122 H              1 S1                 0.0000
     29 ****        -5.3007  -0.5879  -0.6688 H              1 S1                 0.0000
     30 ****        -3.7521  -0.7617  -1.5833 H              1 S1                 0.0000
     31 ****        -0.2146   3.3699  -1.0752 H              1 S1                 0.0000
     32 ****        -0.3752  -2.8175   0.6804 H              1 S1                 0.0000
     33 ****         2.0285  -2.2369   0.0334 H              1 S1                 0.0000
     34 ****         2.3132  -0.7034  -0.7586 H              1 S1                 0.0000
     35 ****         2.3335   0.4513   1.4697 H              1 S1                 0.0000
     36 ****         2.1593  -2.1317   2.5445 H              1 S1                 0.0000
     37 ****         4.4777  -0.2607   0.5536 H              1 S1                 0.0000
     38 ****         4.9974   0.7275   2.6702 H              1 S1                 0.0000
     39 ****         4.2702  -0.6089   3.5681 H              1 S1                 0.0000
     40 ****         6.7644  -0.7197   1.8494 H              1 S1                 0.0000
     41 ****         6.5934  -1.2707   3.5207 H              1 S1                 0.0000
     42 ****         6.3050  -3.0537   1.4764 H              1 S1                 0.0000
     43 ****         5.1967  -3.1251   2.8480 H              1 S1                 0.0000
     44 ****        -4.2324   2.9455  -1.1366 H              1 S1                 0.0000
     45 ****        -5.6436   2.1691  -0.3406 H              1 S1                 0.0000
     46 ****        -4.3965   4.6465  -4.6902 LP             1 S1                 0.0000
     47 ****        -6.3136   0.1788  -3.1981 LP             1 S1                 0.0000
     48 ****        -6.5010   1.7925  -3.0327 LP             1 S1                 0.0000
     49 ****        -3.9490   0.8788   0.7214 LP             1 S1                 0.0000
     50 ****        -2.4831   3.0621  -0.8941 LP             1 S1                 0.0000
     51 ****         1.3449   1.6285  -0.6645 LP             1 S1                 0.0000
     52 ****        -2.6416  -1.7894   0.4634 LP             1 S1                 0.0000
     53 ****         0.9711  -1.0733   2.5449 LP             1 S1                 0.0000
     54 ****         2.3474  -0.7882   3.3762 LP             1 S1                 0.0000
     55 ****         4.6797  -2.3102   0.2427 LP             1 S1                 0.0000
     56 ****         3.6615  -2.7613   1.4370 LP             1 S1                 0.0000
@<TRIPOS>BOND
    1    1    2 3     
    2    2    3 1     
    3    3    4 1     
    4    3   26 1     
    5    3   27 1     
    6    4   25 1     
    7    4    5 1     
    8    4    6 1     
    9    5   28 1     
   10    6    7 1     
   11    6   29 1     
   12    6   30 1     
   13    7    8 1     
   14    7   25 1     
   15    8   13 ar    
   16    8    9 ar    
   17    9   10 ar    
   18   10   11 ar    
   19   10   31 1     
   20   11   12 ar    
   21   12   16 1     
   22   12   13 ar    
   23   13   14 1     
   24   14   15 2     
   25   15   16 1     
   26   15   32 1     
   27   16   17 1     
   28   17   18 1     
   29   17   33 1     
   30   17   34 1     
   31   18   19 1     
   32   18   20 1     
   33   18   35 1     
   34   19   36 1     
   35   20   24 1     
   36   20   21 1     
   37   20   37 1     
   38   21   22 1     
   39   21   38 1     
   40   21   39 1     
   41   22   23 1     
   42   22   40 1     
   43   22   41 1     
   44   23   24 1     
   45   23   42 1     
   46   23   43 1     
   47   25   44 1     
   48   25   45 1     
   49    1   46 1     
   50    5   47 1     
   51    5   48 1     
   52    7   49 1     
   53    9   50 1     
   54   11   51 1     
   55   14   52 1     
   56   19   53 1     
   57   19   54 1     
   58   24   55 1     
   59   24   56 1     
@<TRIPOS>SUBSTRUCTURE
      1 S1             1
@<TRIPOS>SET
LONE_PAIRS      STATIC     ATOMS    <user>   **** ""
11 46 47 48 49 50 51 52 53 54 55 56
DONOR_HYDROGENS      STATIC     ATOMS    <user>   **** ""
2 28 36
ATOM$BLUE        STATIC     ATOMS    COLORGROUP SYSTEM
11 46 47 48 49 50 51 52 53 54 55 56
ATOM$RED        STATIC     ATOMS    COLORGROUP SYSTEM
2 28 36
