AV-unprocessed.smi:1596|AV-procd|sdf|6419|dock10
  -GOLD-   22720 7 53D 1   1.00000     0.00000
 Structure written by MMmdl.
 48 49  0  0  0  0  0  0  0  0  1 V2000
  151.9077  144.8074  158.9643 C   0  0  0  0  0  0  0  0  0  0  0  0
  151.1807  143.6100  158.3310 C   0  0  0  0  0  0  0  0  0  0  0  0
  151.9713  142.3791  158.3391 N   0  0  0  0  0  0  0  0  0  0  0  0
  152.3497  141.9063  159.6704 C   0  0  0  0  0  0  0  0  0  0  0  0
  153.5426  140.9363  159.6617 C   0  0  0  0  0  0  0  0  0  0  0  0
  151.4273  141.3623  157.5339 C   0  0  0  0  0  0  0  0  0  0  0  0
  150.9963  141.6778  156.2285 C   0  0  0  0  0  0  0  0  0  0  0  0
  150.4562  140.6560  155.4247 C   0  0  0  0  0  0  0  0  0  0  0  0
  150.3698  139.3454  155.9512 C   0  0  0  0  0  0  0  0  0  0  0  0
  149.8233  138.2371  155.2495 N   0  0  0  0  0  0  0  0  0  0  0  0
  149.6144  136.9869  155.6960 C   0  0  0  0  0  0  0  0  0  0  0  0
  149.8222  136.5981  156.8453 O   0  0  0  0  0  0  0  0  0  0  0  0
  149.1202  136.2029  154.7270 N   0  0  0  0  0  0  0  0  0  0  0  0
  148.7688  134.7940  154.8783 C   0  0  2  0  0  0  0  0  0  0  0  0
  149.7349  133.9280  154.0498 C   0  0  0  0  0  0  0  0  0  0  0  0
  149.3731  132.4350  154.1405 C   0  0  0  0  0  0  0  0  0  0  0  0
  147.9092  132.1642  153.7453 C   0  0  2  0  0  0  0  0  0  0  0  0
  147.7384  132.3638  152.3558 O   0  0  0  0  0  0  0  0  0  0  0  0
  146.9345  133.0611  154.5318 C   0  0  0  0  0  0  0  0  0  0  0  0
  147.3097  134.5511  154.4438 C   0  0  0  0  0  0  0  0  0  0  0  0
  150.8153  139.1384  157.2730 C   0  0  0  0  0  0  0  0  0  0  0  0
  151.3366  140.1127  158.0480 N   0  0  0  0  0  0  0  0  0  0  0  0
  151.2543  145.6793  158.9951 H   0  0  0  0  0  0  0  0  0  0  0  0
  152.7978  145.0875  158.4007 H   0  0  0  0  0  0  0  0  0  0  0  0
  152.2123  144.5856  159.9874 H   0  0  0  0  0  0  0  0  0  0  0  0
  150.2577  143.4321  158.8837 H   0  0  0  0  0  0  0  0  0  0  0  0
  150.8831  143.8520  157.3098 H   0  0  0  0  0  0  0  0  0  0  0  0
  152.6079  142.7692  160.2852 H   0  0  0  0  0  0  0  0  0  0  0  0
  151.4913  141.4345  160.1502 H   0  0  0  0  0  0  0  0  0  0  0  0
  153.8237  140.6673  160.6799 H   0  0  0  0  0  0  0  0  0  0  0  0
  154.4133  141.3894  159.1864 H   0  0  0  0  0  0  0  0  0  0  0  0
  153.3125  140.0109  159.1330 H   0  0  0  0  0  0  0  0  0  0  0  0
  151.0743  142.6866  155.8501 H   0  0  0  0  0  0  0  0  0  0  0  0
  150.1078  140.9007  154.4335 H   0  0  0  0  0  0  0  0  0  0  0  0
  149.5131  138.4307  154.3084 H   0  0  0  0  0  0  0  0  0  0  0  0
  148.9740  136.6101  153.8150 H   0  0  0  0  0  0  0  0  0  0  0  0
  148.8770  134.5090  155.9268 H   0  0  0  0  0  0  0  0  0  0  0  0
  149.7147  134.2443  153.0059 H   0  0  0  0  0  0  0  0  0  0  0  0
  150.7586  134.0764  154.3954 H   0  0  0  0  0  0  0  0  0  0  0  0
  150.0483  131.8468  153.5181 H   0  0  0  0  0  0  0  0  0  0  0  0
  149.5324  132.0957  155.1649 H   0  0  0  0  0  0  0  0  0  0  0  0
  147.6733  131.1188  153.9469 H   0  0  0  0  0  0  0  0  0  0  0  0
  148.3405  131.7995  151.8949 H   0  0  0  0  0  0  0  0  0  0  0  0
  145.9132  132.9101  154.1808 H   0  0  0  0  0  0  0  0  0  0  0  0
  146.9420  132.7586  155.5797 H   0  0  0  0  0  0  0  0  0  0  0  0
  146.6302  135.1333  155.0673 H   0  0  0  0  0  0  0  0  0  0  0  0
  147.1651  134.9029  153.4213 H   0  0  0  0  0  0  0  0  0  0  0  0
  150.7574  138.1585  157.7242 H   0  0  0  0  0  0  0  0  0  0  0  0
  1  2  1  0  0  0  0
  1 23  1  0  0  0  0
  1 24  1  0  0  0  0
  1 25  1  0  0  0  0
  2  3  1  0  0  0  0
  2 26  1  0  0  0  0
  2 27  1  0  0  0  0
  3  4  1  0  0  0  0
  3  6  1  0  0  0  0
  4  5  1  0  0  0  0
  4 28  1  0  0  0  0
  4 29  1  0  0  0  0
  5 30  1  0  0  0  0
  5 31  1  0  0  0  0
  5 32  1  0  0  0  0
  6 22  1  0  0  0  0
  6  7  2  0  0  0  0
  7  8  1  0  0  0  0
  7 33  1  0  0  0  0
  8  9  2  0  0  0  0
  8 34  1  0  0  0  0
  9 10  1  0  0  0  0
  9 21  1  0  0  0  0
 10 11  1  0  0  0  0
 10 35  1  0  0  0  0
 11 12  2  0  0  0  0
 11 13  1  0  0  0  0
 13 14  1  0  0  0  0
 13 36  1  0  0  0  0
 14 20  1  0  0  0  0
 14 15  1  0  0  0  0
 14 37  1  0  0  0  0
 15 16  1  0  0  0  0
 15 38  1  0  0  0  0
 15 39  1  0  0  0  0
 16 17  1  0  0  0  0
 16 40  1  0  0  0  0
 16 41  1  0  0  0  0
 17 18  1  0  0  0  0
 17 19  1  0  0  0  0
 17 42  1  0  0  0  0
 18 43  1  0  0  0  0
 19 20  1  0  0  0  0
 19 44  1  0  0  0  0
 19 45  1  0  0  0  0
 20 46  1  0  0  0  0
 20 47  1  0  0  0  0
 21 22  2  0  0  0  0
 21 48  1  0  0  0  0
M  END
> <s_m_source_file>
AV-unprocessed.smi

> <i_m_source_file_index>
1596

> <i_lp_mmshare_version>
43012

> <i_f3d_flags>
0

> <s_epik_input>
W0NIM11bQ0gyXU4oW0NIMl1bQ0gzXSljMVtjSF1bY0hdYyhbY0hdbjEpW05IXUMoPU8pW05IXVtDQEBIXTJbQ0gyXVtDSDJdW0NAQEhdKFtPSF0pW0NIMl1bQ0gyXTI=

> <s_epik_cmdline>
J2VwaWtfcHl0aG9uJywgJy1waCcsICc3LjAnLCAnLXRuJywgJzgnLCAnLW1hJywgJzIwMCcsICctbWV0YWxfYmluZGluZycsICctaW1hZScsICc8aW5maWxlLm1hZT4nLCAnLW9tYWUnLCAnPG91dGZpbGUubWFlPic=

> <r_lp_tautomer_probability>
1

> <r_epik_Ionization_Penalty>
0.709395

> <r_epik_Ionization_Penalty_Charging>
0

> <r_epik_Ionization_Penalty_Neutral>
0.709395

> <r_epik_State_Penalty>
2.20721

> <r_epik_Charging_Adjusted_Penalty>
2.20721

> <i_epik_Tot_Q>
0

> <i_epik_Tot_abs_Q>
0

> <r_epik_Metal_State_Penalty>
1.55411

> <b_epik_Metal_Only>
0

> <s_lp_Force_Field>
OPLS_2005

> <r_lp_Energy>
19.3677

> <b_lp_Chiralities_Consistent>
1

> <s_lp_Variant>
AV-unprocessed.smi:1596-4

> <Gold.Version>
5.8.1

> <Gold.Id.Protein>
6NUR|6NUR_protein|mol2

> <Gold.PLP.Fitness>
40.4816

> <Gold.PLP.PLP>
-35.1509

> <Gold.PLP.part.hbond>
-2.0000

> <Gold.PLP.part.metal>
0.0000

> <Gold.PLP.part.buried>
-4.9847

> <Gold.PLP.part.nonpolar>
-27.9922

> <Gold.PLP.part.repulsive>
0.0392

> <Gold.PLP.ligand.clash>
0.0000

> <Gold.PLP.ligand.torsion>
0.3463

> <Gold.PLP.Chemscore.Hbond>
1.9200

> <Gold.PLP.Chemscore.CHOScore>
0.0000

> <Gold.PLP.Chemscore.Metal>
0.0000

> <Gold.Chemscore.Hbonds>
donor molecule, donor type, donor heavy atom, donor atom, acceptor molecule, acceptor atom, score
      L1  H    13    36       P1  7948  0.88
      L1  H    18    43       P1 10747  1.00

> <Gold.PLP.Chemscore.Internal.Correction>
0.2634

> <Gold.Rescore>
     Score         DG    S(hbond)    S(metal)    S(lipo)     H(rot)  DE(clash)    DE(int)     intcor
     15.54     -17.47       1.93        0.00      91.17       2.01       0.01       1.93       ----

> <Gold.Chemscore.Fitness>
15.5410

> <Gold.Chemscore.DG>
-17.4738

> <Gold.Chemscore.ZeroCoef>
-5.4800

> <Gold.Chemscore.Hbond>
1.9342

> <Gold.Chemscore.Metal>
0.0000

> <Gold.Chemscore.Lipo>
91.1693

> <Gold.Chemscore.Internal_Hbond>
0.0000

> <Gold.Chemscore.DEClash>
0.0060

> <Gold.Chemscore.DEInternal>
1.9268

> <Gold.Chemscore.Rot>
2.0052

> <Gold.Chemscore.Internal.Correction>
   9.000000E+99

> <Gold.Chemscore.Hbonds>
donor molecule, donor type, donor heavy atom, donor atom, acceptor molecule, acceptor atom, score
      L1  H    13    36       P1  7948  0.85
      L1  H    18    43       P1 10747  0.96

> <Gold.Chemscore.Hbond.Weighted>
-6.4604

> <Gold.Chemscore.Metal.Weighted>
-0.0000

> <Gold.Chemscore.Lipo.Weighted>
-10.6668

> <Gold.Chemscore.Internal_Hbond.Weighted>
0.0000

> <Gold.Chemscore.DEClash.Weighted>
0.0060

> <Gold.Chemscore.DEInternal.Weighted>
1.9268

> <Gold.Chemscore.Rot.Weighted>
5.1334

> <Gold.Chemscore.Internal.Correction.Weighted>
   9.000000E+99

> <Gold.Protein.RotatedTorsions>
[ 6907 6896 6895 6894 ] final   53.50 input  -60.11 | X-H torsion
[ 7974 7965 7964 7962 ] final  102.05 input  175.53 | X-H torsion
[ 8008 7997 7996 7995 ] final   58.88 input   59.86 | X-H torsion
[ 10167 10162 10161 10158 ] final  160.41 input  -65.29 | X-H torsion
[ 10718 10713 10712 10709 ] final   -5.44 input   66.30 | X-H torsion
[ 10763 10752 10751 10750 ] final  -61.08 input  -60.55 | X-H torsion
[ 11005 11000 10999 10996 ] final  -44.67 input  -57.11 | X-H torsion

> <Gold.Protein.ActiveResidues>
 VAL166  LYS551  ARG553  GLY616  TRP617  ASP618  TYR619  PRO620  LYS621  CYS622 
 ASP623  PHE694  ASN695  SER759  ASP760  ASP761  ALA762  ILE779  LEU786  VAL792 
 PHE793  MET794  SER795  GLU796  ALA797  LYS798  CYS799  TRP800  GLU811  SER814 

> <Gold.Protein.RotatedAtoms>
  152.3344  134.7218  160.0280 H   0  0  0  0  0  0  0  0  0  0  0  0  # atno 6907 bound_to 6896
  151.7624  133.3329  159.3429 H   0  0  0  0  0  0  0  0  0  0  0  0  # atno 6908 bound_to 6896
  150.7442  134.6026  159.6089 H   0  0  0  0  0  0  0  0  0  0  0  0  # atno 6909 bound_to 6896
  145.3642  139.2411  143.3490 H   0  0  0  0  0  0  0  0  0  0  0  0  # atno 7974 bound_to 7965
  155.5571  140.3487  155.4482 H   0  0  0  0  0  0  0  0  0  0  0  0  # atno 8008 bound_to 7997
  156.0541  140.1324  157.0042 H   0  0  0  0  0  0  0  0  0  0  0  0  # atno 8009 bound_to 7997
  154.4448  140.0998  156.6405 H   0  0  0  0  0  0  0  0  0  0  0  0  # atno 8010 bound_to 7997
  139.4840  144.4637  151.8671 H   0  0  0  0  0  0  0  0  0  0  0  0  # atno 10167 bound_to 10162
  156.7465  130.5226  149.5813 H   0  0  0  0  0  0  0  0  0  0  0  0  # atno 10718 bound_to 10713
  154.2791  135.6275  153.5340 H   0  0  0  0  0  0  0  0  0  0  0  0  # atno 10763 bound_to 10752
  152.9868  135.5628  154.5516 H   0  0  0  0  0  0  0  0  0  0  0  0  # atno 10764 bound_to 10752
  154.5102  135.2876  155.1324 H   0  0  0  0  0  0  0  0  0  0  0  0  # atno 10765 bound_to 10752
  141.0465  133.6759  156.2905 H   0  0  0  0  0  0  0  0  0  0  0  0  # atno 11005 bound_to 11000
  146.2914  140.4281  142.8738 LP  0  0  0  0  0  0  0  0  0  0  0  0  # atno 17320 bound_to 7965
  144.8624  140.7158  143.6099 LP  0  0  0  0  0  0  0  0  0  0  0  0  # atno 17321 bound_to 7965
  140.4101  144.2381  150.5889 LP  0  0  0  0  0  0  0  0  0  0  0  0  # atno 17342 bound_to 10162
  140.4975  143.2328  151.8728 LP  0  0  0  0  0  0  0  0  0  0  0  0  # atno 17343 bound_to 10162
  156.1429  130.6257  151.0492 LP  0  0  0  0  0  0  0  0  0  0  0  0  # atno 17370 bound_to 10713
  157.6796  131.0841  150.7406 LP  0  0  0  0  0  0  0  0  0  0  0  0  # atno 17371 bound_to 10713
  140.6136  134.5433  157.5537 LP  0  0  0  0  0  0  0  0  0  0  0  0  # atno 17394 bound_to 11000
  139.9316  134.7953  156.0915 LP  0  0  0  0  0  0  0  0  0  0  0  0  # atno 17395 bound_to 11000

$$$$
