AV-unprocessed.smi:3126|AV-procd|sdf|11911|dock2
  -GOLD-   2272017293D 1   1.00000     0.00000
 Structure written by MMmdl.
 42 43  0  0  0  0  0  0  0  0  2 V2000
  153.9906  141.6864  161.0035 C   0  0  0  0  0  0  0  0  0  0  0  0
  152.8055  142.3208  161.7449 C   0  0  0  0  0  0  0  0  0  0  0  0
  151.9064  143.2051  160.8567 C   0  0  1  0  0  0  0  0  0  0  0  0
  152.4099  144.6621  160.8488 C   0  0  0  0  0  0  0  0  0  0  0  0
  151.5235  145.5642  159.9776 C   0  0  0  0  0  0  0  0  0  0  0  0
  151.4261  145.0245  158.5438 C   0  0  0  0  0  0  0  0  0  0  0  0
  150.9095  143.5747  158.5243 C   0  0  1  0  0  0  0  0  0  0  0  0
  150.8538  143.0853  157.1285 N   0  3  0  0  0  0  0  0  0  0  0  0
  150.1249  141.8149  156.9319 C   0  0  0  0  0  0  0  0  0  0  0  0
  150.4876  141.1771  155.5848 C   0  0  0  0  0  0  0  0  0  0  0  0
  149.2567  140.7621  154.8034 C   0  0  0  0  0  0  0  0  0  0  0  0
  149.0516  139.4161  154.4355 C   0  0  0  0  0  0  0  0  0  0  0  0
  147.8888  139.0791  153.7165 C   0  0  0  0  0  0  0  0  0  0  0  0
  146.9780  140.1052  153.3946 C   0  0  0  0  0  0  0  0  0  0  0  0
  147.1640  141.3969  153.7423 N   0  0  0  0  0  0  0  0  0  0  0  0
  148.2817  141.7120  154.4308 C   0  0  0  0  0  0  0  0  0  0  0  0
  151.7992  142.6742  159.4098 C   0  0  0  0  0  0  0  0  0  0  0  0
  154.5454  141.0212  161.6654 H   0  0  0  0  0  0  0  0  0  0  0  0
  154.6901  142.4372  160.6375 H   0  0  0  0  0  0  0  0  0  0  0  0
  153.6519  141.0961  160.1517 H   0  0  0  0  0  0  0  0  0  0  0  0
  152.2053  141.5139  162.1671 H   0  0  0  0  0  0  0  0  0  0  0  0
  153.1719  142.8976  162.5951 H   0  0  0  0  0  0  0  0  0  0  0  0
  150.9060  143.2062  161.2927 H   0  0  0  0  0  0  0  0  0  0  0  0
  152.4342  145.0547  161.8661 H   0  0  0  0  0  0  0  0  0  0  0  0
  153.4366  144.6963  160.4816 H   0  0  0  0  0  0  0  0  0  0  0  0
  150.5259  145.6311  160.4141 H   0  0  0  0  0  0  0  0  0  0  0  0
  151.9240  146.5782  159.9663 H   0  0  0  0  0  0  0  0  0  0  0  0
  150.7665  145.6653  157.9574 H   0  0  0  0  0  0  0  0  0  0  0  0
  152.4081  145.0762  158.0707 H   0  0  0  0  0  0  0  0  0  0  0  0
  149.8944  143.5751  158.9247 H   0  0  0  0  0  0  0  0  0  0  0  0
  150.3812  143.7888  156.5789 H   0  0  0  0  0  0  0  0  0  0  0  0
  150.3635  141.1221  157.7390 H   0  0  0  0  0  0  0  0  0  0  0  0
  149.0516  142.0047  156.9747 H   0  0  0  0  0  0  0  0  0  0  0  0
  151.0704  141.8763  154.9831 H   0  0  0  0  0  0  0  0  0  0  0  0
  151.1203  140.3021  155.7406 H   0  0  0  0  0  0  0  0  0  0  0  0
  149.7696  138.6538  154.7006 H   0  0  0  0  0  0  0  0  0  0  0  0
  147.6981  138.0585  153.4189 H   0  0  0  0  0  0  0  0  0  0  0  0
  146.0751  139.8820  152.8456 H   0  0  0  0  0  0  0  0  0  0  0  0
  148.3992  142.7525  154.6958 H   0  0  0  0  0  0  0  0  0  0  0  0
  152.7962  142.6000  158.9726 H   0  0  0  0  0  0  0  0  0  0  0  0
  151.3944  141.6635  159.4266 H   0  0  0  0  0  0  0  0  0  0  0  0
  151.7961  142.9869  156.7787 H   0  0  0  0  0  0  0  0  0  0  0  0
  1  2  1  0  0  0  0
  1 18  1  0  0  0  0
  1 19  1  0  0  0  0
  1 20  1  0  0  0  0
  2  3  1  0  0  0  0
  2 21  1  0  0  0  0
  2 22  1  0  0  0  0
  3 17  1  0  0  0  0
  3  4  1  0  0  0  0
  3 23  1  0  0  0  0
  4  5  1  0  0  0  0
  4 24  1  0  0  0  0
  4 25  1  0  0  0  0
  5  6  1  0  0  0  0
  5 26  1  0  0  0  0
  5 27  1  0  0  0  0
  6  7  1  0  0  0  0
  6 28  1  0  0  0  0
  6 29  1  0  0  0  0
  7  8  1  0  0  0  0
  7 17  1  0  0  0  0
  7 30  1  0  0  0  0
  8  9  1  0  0  0  0
  8 31  1  0  0  0  0
  8 42  1  0  0  0  0
  9 10  1  0  0  0  0
  9 32  1  0  0  0  0
  9 33  1  0  0  0  0
 10 11  1  0  0  0  0
 10 34  1  0  0  0  0
 10 35  1  0  0  0  0
 11 16  1  0  0  0  0
 11 12  2  0  0  0  0
 12 13  1  0  0  0  0
 12 36  1  0  0  0  0
 13 14  2  0  0  0  0
 13 37  1  0  0  0  0
 14 15  1  0  0  0  0
 14 38  1  0  0  0  0
 15 16  2  0  0  0  0
 16 39  1  0  0  0  0
 17 40  1  0  0  0  0
 17 41  1  0  0  0  0
M  CHG  1   8   1
M  END
> <s_m_source_file>
AV-unprocessed.smi

> <i_m_source_file_index>
3126

> <i_lp_mmshare_version>
43012

> <i_f3d_flags>
0

> <s_epik_input>
W0NIM11bQ0gyXVtDQEBIXTFbQ0gyXVtDSDJdW0NIMl1bQ0BIXShbQ0gyXTEpW05IXVtDSDJdW0NIMl1jMltjSF1bY0hdW2NIXW5bY0hdMg==

> <s_epik_cmdline>
J2VwaWtfcHl0aG9uJywgJy1waCcsICc3LjAnLCAnLXRuJywgJzgnLCAnLW1hJywgJzIwMCcsICctbWV0YWxfYmluZGluZycsICctaW1hZScsICc8aW5maWxlLm1hZT4nLCAnLW9tYWUnLCAnPG91dGZpbGUubWFlPic=

> <r_lp_tautomer_probability>
1

> <r_epik_Ionization_Penalty>
0.000947364

> <r_epik_Ionization_Penalty_Charging>
0.000286103

> <r_epik_Ionization_Penalty_Neutral>
0.000661261

> <r_epik_State_Penalty>
-0

> <r_epik_Charging_Adjusted_Penalty>
0.000286103

> <i_epik_Tot_Q>
1

> <i_epik_Tot_abs_Q>
1

> <r_epik_Metal_State_Penalty>
-0

> <b_epik_Metal_Only>
0

> <s_lp_Force_Field>
OPLS_2005

> <r_lp_Energy>
13.7456

> <b_lp_Chiralities_Consistent>
1

> <s_lp_Variant>
AV-unprocessed.smi:3126-2

> <Gold.Version>
5.8.1

> <Gold.Id.Protein>
6NUR|6NUR_protein|mol2

> <Gold.PLP.Fitness>
53.0868

> <Gold.PLP.PLP>
-42.6619

> <Gold.PLP.part.hbond>
-1.0000

> <Gold.PLP.part.metal>
0.0000

> <Gold.PLP.part.buried>
-4.4884

> <Gold.PLP.part.nonpolar>
-37.4475

> <Gold.PLP.part.repulsive>
0.1867

> <Gold.PLP.ligand.clash>
0.0000

> <Gold.PLP.ligand.torsion>
0.8016

> <Gold.PLP.Chemscore.Hbond>
2.0000

> <Gold.PLP.Chemscore.CHOScore>
1.9827

> <Gold.PLP.Chemscore.Metal>
0.0000

> <Gold.Chemscore.Hbonds>
donor molecule, donor type, donor heavy atom, donor atom, acceptor molecule, acceptor atom, score
      L1  H     8    31       P1  8028  2.00
      L1  C    14    38       P1 10175  1.00
      L1  C    16    39       P1  8028  1.00

> <Gold.PLP.Chemscore.Internal.Correction>
0.0799

> <Gold.Rescore>
     Score         DG    S(hbond)    S(metal)    S(lipo)     H(rot)  DE(clash)    DE(int)     intcor
     20.35     -21.24       0.99        0.00     135.86       1.35       0.09       0.81       ----

> <Gold.Chemscore.Fitness>
20.3464

> <Gold.Chemscore.DG>
-21.2372

> <Gold.Chemscore.ZeroCoef>
-5.4800

> <Gold.Chemscore.Hbond>
0.9938

> <Gold.Chemscore.Metal>
0.0000

> <Gold.Chemscore.Lipo>
135.8619

> <Gold.Chemscore.Internal_Hbond>
0.0000

> <Gold.Chemscore.DEClash>
0.0853

> <Gold.Chemscore.DEInternal>
0.8055

> <Gold.Chemscore.Rot>
1.3507

> <Gold.Chemscore.Internal.Correction>
   9.000000E+99

> <Gold.Chemscore.Hbonds>
donor molecule, donor type, donor heavy atom, donor atom, acceptor molecule, acceptor atom, score
      L1  H     8    31       P1  8028  0.97

> <Gold.Chemscore.Hbond.Weighted>
-3.3192

> <Gold.Chemscore.Metal.Weighted>
-0.0000

> <Gold.Chemscore.Lipo.Weighted>
-15.8958

> <Gold.Chemscore.Internal_Hbond.Weighted>
0.0000

> <Gold.Chemscore.DEClash.Weighted>
0.0853

> <Gold.Chemscore.DEInternal.Weighted>
0.8055

> <Gold.Chemscore.Rot.Weighted>
3.4579

> <Gold.Chemscore.Internal.Correction.Weighted>
   9.000000E+99

> <Gold.Protein.RotatedTorsions>
[ 6907 6896 6895 6894 ] final -137.60 input  -60.11 | X-H torsion
[ 7974 7965 7964 7962 ] final  -78.92 input  175.53 | X-H torsion
[ 8008 7997 7996 7995 ] final   79.41 input   59.86 | X-H torsion
[ 10167 10162 10161 10158 ] final   15.17 input  -65.29 | X-H torsion
[ 10718 10713 10712 10709 ] final  -38.03 input   66.30 | X-H torsion
[ 10763 10752 10751 10750 ] final   71.33 input  -60.55 | X-H torsion
[ 11005 11000 10999 10996 ] final  107.94 input  -57.11 | X-H torsion

> <Gold.Protein.ActiveResidues>
 VAL166  LYS551  ARG553  GLY616  TRP617  ASP618  TYR619  PRO620  LYS621  CYS622 
 ASP623  PHE694  ASN695  SER759  ASP760  ASP761  ALA762  ILE779  LEU786  VAL792 
 PHE793  MET794  SER795  GLU796  ALA797  LYS798  CYS799  TRP800  GLU811  SER814 

> <Gold.Protein.RotatedAtoms>
  151.0245  133.5846  159.2667 H   0  0  0  0  0  0  0  0  0  0  0  0  # atno 6907 bound_to 6896
  151.2951  135.0752  159.9228 H   0  0  0  0  0  0  0  0  0  0  0  0  # atno 6908 bound_to 6896
  152.5331  133.9936  159.7916 H   0  0  0  0  0  0  0  0  0  0  0  0  # atno 6909 bound_to 6896
  145.5801  140.9450  143.1348 H   0  0  0  0  0  0  0  0  0  0  0  0  # atno 7974 bound_to 7965
  155.8693  140.3450  155.5810 H   0  0  0  0  0  0  0  0  0  0  0  0  # atno 8008 bound_to 7997
  155.7845  140.0863  157.2061 H   0  0  0  0  0  0  0  0  0  0  0  0  # atno 8009 bound_to 7997
  154.4016  140.1494  156.3078 H   0  0  0  0  0  0  0  0  0  0  0  0  # atno 8010 bound_to 7997
  140.5886  143.8841  150.6852 H   0  0  0  0  0  0  0  0  0  0  0  0  # atno 10167 bound_to 10162
  156.3085  130.4249  149.8074 H   0  0  0  0  0  0  0  0  0  0  0  0  # atno 10718 bound_to 10713
  153.0392  135.5141  154.7576 H   0  0  0  0  0  0  0  0  0  0  0  0  # atno 10763 bound_to 10752
  154.6527  135.2927  154.9968 H   0  0  0  0  0  0  0  0  0  0  0  0  # atno 10764 bound_to 10752
  154.0847  135.6659  153.4895 H   0  0  0  0  0  0  0  0  0  0  0  0  # atno 10765 bound_to 10752
  139.8836  134.9416  156.5897 H   0  0  0  0  0  0  0  0  0  0  0  0  # atno 11005 bound_to 11000
  144.7398  139.7482  143.7315 LP  0  0  0  0  0  0  0  0  0  0  0  0  # atno 17320 bound_to 7965
  146.1722  139.4878  142.9920 LP  0  0  0  0  0  0  0  0  0  0  0  0  # atno 17321 bound_to 7965
  140.2358  143.3701  152.1528 LP  0  0  0  0  0  0  0  0  0  0  0  0  # atno 17342 bound_to 10162
  139.5213  144.7044  151.5398 LP  0  0  0  0  0  0  0  0  0  0  0  0  # atno 17343 bound_to 10162
  156.5426  130.8306  151.3274 LP  0  0  0  0  0  0  0  0  0  0  0  0  # atno 17370 bound_to 10713
  157.7385  130.9815  150.2257 LP  0  0  0  0  0  0  0  0  0  0  0  0  # atno 17371 bound_to 10713
  140.7965  133.8540  155.8690 LP  0  0  0  0  0  0  0  0  0  0  0  0  # atno 17394 bound_to 11000
  140.9631  134.1630  157.4638 LP  0  0  0  0  0  0  0  0  0  0  0  0  # atno 17395 bound_to 11000

$$$$
