#       Name:                AV-unprocessed.smi:252
#       Creating user name   scv26
#       Creation time:       Thu Mar 26 21:06:04 2020


#       File generated by GOLD software.
#

@<TRIPOS>MOLECULE
AV-unprocessed.smi:252
    66    69     1
SMALL
NO_CHARGES


@<TRIPOS>ATOM
      1 ****        -4.5184   4.4937   1.4615 C.3            1 S1                 0.0000
      2 ****        -4.2551   3.9512   0.0481 C.3            1 S1                 0.0000
      3 ****        -3.8464   2.4748   0.0285 C.2            1 S1                 0.0000
      4 ****        -3.3724   1.9377   1.0305 O.2            1 S1                 0.0000
      5 ****        -4.0308   1.8296  -1.1338 N.am           1 S1                 0.0000
      6 ****        -3.7069   0.4282  -1.3809 C.3            1 S1                 0.0000
      7 ****        -4.4822  -0.0767  -2.6115 C.3            1 S1                 0.0000
      8 ****        -4.0881  -1.5250  -2.9413 C.3            1 S1                 0.0000
      9 ****        -2.5658  -1.6608  -3.1077 C.3            1 S1                 0.0000
     10 ****        -1.8680  -1.1355  -1.9335 N.3            1 S1                 0.0000
     11 ****        -0.5649  -1.4738  -1.7624 C.ar           1 S1                 0.0000
     12 ****         0.1819  -1.8641  -2.8300 N.ar           1 S1                 0.0000
     13 ****         1.4700  -2.1829  -2.6717 C.ar           1 S1                 0.0000
     14 ****         2.1991  -2.1820  -1.5544 N.ar           1 S1                 0.0000
     15 ****         1.4543  -1.7989  -0.4782 C.ar           1 S1                 0.0000
     16 ****         0.0778  -1.4361  -0.4927 C.ar           1 S1                 0.0000
     17 ****        -0.3425  -1.1253   0.7953 N.2            1 S1                 0.0000
     18 ****         0.7268  -1.2822   1.5262 C.2            1 S1                 0.0000
     19 ****         1.8545  -1.6751   0.8412 N.pl3          1 S1                 0.0000
     20 ****         3.1755  -1.9149   1.4026 C.3            1 S1                 0.0000
     21 ****         4.0637  -0.6437   1.4513 C.3            1 S1                 0.0000
     22 ****         4.2508  -0.1900   0.1213 O.3            1 S1                 0.0000
     23 ****         3.4477   0.5012   2.2510 C.3            1 S1                 0.0000
     24 ****         4.6652   1.2639   2.7493 C.3            1 S1                 0.0000
     25 ****         5.5626   0.2199   3.0826 O.3            1 S1                 0.0000
     26 ****         5.4697  -0.8053   2.0963 C.3            1 S1                 0.0000
     27 ****         5.7635  -2.1442   2.7908 C.3            1 S1                 0.0000
     28 ****        -2.1897   0.2494  -1.5918 C.3            1 S1                 0.0000
     29 ****        -4.8463   5.5325   1.4196 H              1 S1                 0.0000
     30 ****        -3.6184   4.4590   2.0766 H              1 S1                 0.0000
     31 ****        -5.2970   3.9224   1.9686 H              1 S1                 0.0000
     32 ****        -5.1527   4.0797  -0.5585 H              1 S1                 0.0000
     33 ****        -3.4677   4.5349  -0.4292 H              1 S1                 0.0000
     34 ****        -4.4238   2.3483  -1.9059 H              1 S1                 0.0000
     35 ****        -4.0158  -0.1628  -0.5162 H              1 S1                 0.0000
     36 ****        -5.5566  -0.0154  -2.4338 H              1 S1                 0.0000
     37 ****        -4.2703   0.5602  -3.4716 H              1 S1                 0.0000
     38 ****        -4.4260  -2.1858  -2.1421 H              1 S1                 0.0000
     39 ****        -4.5933  -1.8536  -3.8498 H              1 S1                 0.0000
     40 ****        -2.3108  -2.7106  -3.2591 H              1 S1                 0.0000
     41 ****        -2.2373  -1.1167  -3.9943 H              1 S1                 0.0000
     42 ****         1.9920  -2.4791  -3.5697 H              1 S1                 0.0000
     43 ****         0.7221  -1.1100   2.5926 H              1 S1                 0.0000
     44 ****         3.0345  -2.3211   2.4045 H              1 S1                 0.0000
     45 ****         3.6601  -2.6971   0.8171 H              1 S1                 0.0000
     46 ****         4.7831   0.5904   0.1427 H              1 S1                 0.0000
     47 ****         2.7565   1.1205   1.6773 H              1 S1                 0.0000
     48 ****         2.9056   0.1081   3.1120 H              1 S1                 0.0000
     49 ****         5.0935   1.8836   1.9600 H              1 S1                 0.0000
     50 ****         4.4456   1.8973   3.6088 H              1 S1                 0.0000
     51 ****         6.2517  -0.6243   1.3563 H              1 S1                 0.0000
     52 ****         5.7271  -2.9752   2.0864 H              1 S1                 0.0000
     53 ****         5.0537  -2.3441   3.5936 H              1 S1                 0.0000
     54 ****         6.7600  -2.1361   3.2327 H              1 S1                 0.0000
     55 ****        -1.8482   0.8924  -2.4042 H              1 S1                 0.0000
     56 ****        -1.6555   0.5718  -0.6989 H              1 S1                 0.0000
     57 ****        -3.2501   2.4662   1.8705 LP             1 S1                 0.0000
     58 ****        -3.1098   0.9731   1.0039 LP             1 S1                 0.0000
     59 ****        -2.2951  -1.6852  -1.2156 LP             1 S1                 0.0000
     60 ****        -0.2348  -1.9128  -3.7377 LP             1 S1                 0.0000
     61 ****         3.1669  -2.4303  -1.5117 LP             1 S1                 0.0000
     62 ****        -1.2551  -0.8456   1.0933 LP             1 S1                 0.0000
     63 ****         3.3643   0.0176  -0.2921 LP             1 S1                 0.0000
     64 ****         4.7111  -0.8976  -0.4149 LP             1 S1                 0.0000
     65 ****         5.3236  -0.1544   3.9785 LP             1 S1                 0.0000
     66 ****         6.4966   0.5762   3.1086 LP             1 S1                 0.0000
@<TRIPOS>BOND
    1    1    2 1     
    2    1   29 1     
    3    1   30 1     
    4    1   31 1     
    5    2    3 1     
    6    2   32 1     
    7    2   33 1     
    8    3    4 2     
    9    3    5 am    
   10    5    6 1     
   11    5   34 1     
   12    6   28 1     
   13    6    7 1     
   14    6   35 1     
   15    7    8 1     
   16    7   36 1     
   17    7   37 1     
   18    8    9 1     
   19    8   38 1     
   20    8   39 1     
   21    9   10 1     
   22    9   40 1     
   23    9   41 1     
   24   10   11 1     
   25   10   28 1     
   26   11   16 ar    
   27   11   12 ar    
   28   12   13 ar    
   29   13   14 ar    
   30   13   42 1     
   31   14   15 ar    
   32   15   19 1     
   33   15   16 ar    
   34   16   17 1     
   35   17   18 2     
   36   18   19 1     
   37   18   43 1     
   38   19   20 1     
   39   20   21 1     
   40   20   44 1     
   41   20   45 1     
   42   21   26 1     
   43   21   22 1     
   44   21   23 1     
   45   22   46 1     
   46   23   24 1     
   47   23   47 1     
   48   23   48 1     
   49   24   25 1     
   50   24   49 1     
   51   24   50 1     
   52   25   26 1     
   53   26   27 1     
   54   26   51 1     
   55   27   52 1     
   56   27   53 1     
   57   27   54 1     
   58   28   55 1     
   59   28   56 1     
   60    4   57 1     
   61    4   58 1     
   62   10   59 1     
   63   12   60 1     
   64   14   61 1     
   65   17   62 1     
   66   22   63 1     
   67   22   64 1     
   68   25   65 1     
   69   25   66 1     
@<TRIPOS>SUBSTRUCTURE
      1 S1             1
@<TRIPOS>SET
LONE_PAIRS      STATIC     ATOMS    <user>   **** ""
10 57 58 59 60 61 62 63 64 65 66
DONOR_HYDROGENS      STATIC     ATOMS    <user>   **** ""
2 34 46
ATOM$BLUE        STATIC     ATOMS    COLORGROUP SYSTEM
10 57 58 59 60 61 62 63 64 65 66
ATOM$RED        STATIC     ATOMS    COLORGROUP SYSTEM
2 34 46
