AV-unprocessed.smi:672|AV-procd|sdf|3290|dock8
  -GOLD-   22720 0253D 1   1.00000     0.00000
 Structure written by MMmdl.
 36 37  0  0  0  0  0  0  0  0  1 V2000
  146.5702  138.2468  151.8753 C   0  0  0  0  0  0  0  0  0  0  0  0
  146.3640  139.7185  152.2490 C   0  0  0  0  0  0  0  0  0  0  0  0
  147.3907  140.2151  153.2116 C   0  0  0  0  0  0  0  0  0  0  0  0
  148.2844  139.4078  153.7965 N   0  0  0  0  0  0  0  0  0  0  0  0
  149.1535  140.0998  154.6281 N   0  0  0  0  0  0  0  0  0  0  0  0
  148.8984  141.4153  154.6343 C   0  0  0  0  0  0  0  0  0  0  0  0
  149.6368  142.3589  155.3962 N   0  0  0  0  0  0  0  0  0  0  0  0
  150.7507  142.1560  156.1215 C   0  0  0  0  0  0  0  0  0  0  0  0
  151.3357  141.0794  156.2440 O   0  0  0  0  0  0  0  0  0  0  0  0
  151.1613  143.2903  156.7066 N   0  0  0  0  0  0  0  0  0  0  0  0
  152.3387  143.4149  157.5622 C   0  0  1  0  0  0  0  0  0  0  0  0
  152.6057  144.8839  157.9468 C   0  0  0  0  0  0  0  0  0  0  0  0
  152.2559  145.0013  159.4302 C   0  0  0  0  0  0  0  0  0  0  0  0
  152.5709  143.6184  159.9976 C   0  0  1  0  0  0  0  0  0  0  0  0
  151.7366  143.2842  161.5759 S   0  0  0  0  0  0  0  0  0  0  0  0
  153.1722  143.0673  162.6608 C   0  0  0  0  0  0  0  0  0  0  0  0
  152.1349  142.6571  158.8879 C   0  0  0  0  0  0  0  0  0  0  0  0
  147.5622  141.9197  153.6141 S   0  0  0  0  0  0  0  0  0  0  0  0
  145.8079  137.9146  151.1705 H   0  0  0  0  0  0  0  0  0  0  0  0
  146.5123  137.6057  152.7555 H   0  0  0  0  0  0  0  0  0  0  0  0
  147.5444  138.0917  151.4108 H   0  0  0  0  0  0  0  0  0  0  0  0
  146.3978  140.3373  151.3519 H   0  0  0  0  0  0  0  0  0  0  0  0
  145.3740  139.8565  152.6852 H   0  0  0  0  0  0  0  0  0  0  0  0
  149.2738  143.3007  155.3872 H   0  0  0  0  0  0  0  0  0  0  0  0
  150.6226  144.1297  156.5508 H   0  0  0  0  0  0  0  0  0  0  0  0
  153.2112  143.0107  157.0454 H   0  0  0  0  0  0  0  0  0  0  0  0
  153.6656  145.1019  157.8096 H   0  0  0  0  0  0  0  0  0  0  0  0
  152.0521  145.6018  157.3401 H   0  0  0  0  0  0  0  0  0  0  0  0
  152.8115  145.7982  159.9248 H   0  0  0  0  0  0  0  0  0  0  0  0
  151.1922  145.2176  159.5387 H   0  0  0  0  0  0  0  0  0  0  0  0
  153.6484  143.5247  160.1403 H   0  0  0  0  0  0  0  0  0  0  0  0
  152.8443  142.8158  163.6694 H   0  0  0  0  0  0  0  0  0  0  0  0
  153.7594  143.9841  162.7096 H   0  0  0  0  0  0  0  0  0  0  0  0
  153.8096  142.2628  162.2940 H   0  0  0  0  0  0  0  0  0  0  0  0
  151.0821  142.4015  159.0209 H   0  0  0  0  0  0  0  0  0  0  0  0
  152.6963  141.7226  158.9165 H   0  0  0  0  0  0  0  0  0  0  0  0
  1  2  1  0  0  0  0
  1 19  1  0  0  0  0
  1 20  1  0  0  0  0
  1 21  1  0  0  0  0
  2  3  1  0  0  0  0
  2 22  1  0  0  0  0
  2 23  1  0  0  0  0
  3 18  1  0  0  0  0
  3  4  2  0  0  0  0
  4  5  1  0  0  0  0
  5  6  2  0  0  0  0
  6  7  1  0  0  0  0
  6 18  1  0  0  0  0
  7  8  1  0  0  0  0
  7 24  1  0  0  0  0
  8  9  2  0  0  0  0
  8 10  1  0  0  0  0
 10 11  1  0  0  0  0
 10 25  1  0  0  0  0
 11 17  1  0  0  0  0
 11 12  1  0  0  0  0
 11 26  1  0  0  0  0
 12 13  1  0  0  0  0
 12 27  1  0  0  0  0
 12 28  1  0  0  0  0
 13 14  1  0  0  0  0
 13 29  1  0  0  0  0
 13 30  1  0  0  0  0
 14 15  1  0  0  0  0
 14 17  1  0  0  0  0
 14 31  1  0  0  0  0
 15 16  1  0  0  0  0
 16 32  1  0  0  0  0
 16 33  1  0  0  0  0
 16 34  1  0  0  0  0
 17 35  1  0  0  0  0
 17 36  1  0  0  0  0
M  END
> <s_m_source_file>
AV-unprocessed.smi

> <i_m_source_file_index>
672

> <i_lp_mmshare_version>
43012

> <i_f3d_flags>
0

> <s_epik_input>
W0NIM11bQ0gyXWMxbm5jKHMxKVtOSF1DKD1PKVtOSF1bQ0BASF0yW0NIMl1bQ0gyXVtDQEhdKFtDSDJdMilTW0NIM10=

> <s_epik_cmdline>
J2VwaWtfcHl0aG9uJywgJy1waCcsICc3LjAnLCAnLXRuJywgJzgnLCAnLW1hJywgJzIwMCcsICctbWV0YWxfYmluZGluZycsICctaW1hZScsICc8aW5maWxlLm1hZT4nLCAnLW9tYWUnLCAnPG91dGZpbGUubWFlPic=

> <r_lp_tautomer_probability>
1

> <r_epik_Ionization_Penalty>
0.000422169

> <r_epik_Ionization_Penalty_Charging>
0

> <r_epik_Ionization_Penalty_Neutral>
0.000422169

> <r_epik_State_Penalty>
-0

> <r_epik_Charging_Adjusted_Penalty>
0

> <i_epik_Tot_Q>
0

> <i_epik_Tot_abs_Q>
0

> <r_epik_Metal_State_Penalty>
0.200061

> <b_epik_Metal_Only>
0

> <s_lp_Force_Field>
OPLS_2005

> <r_lp_Energy>
11.4796

> <b_lp_Chiralities_Consistent>
1

> <s_lp_Variant>
AV-unprocessed.smi:672-2

> <Gold.Version>
5.8.1

> <Gold.Id.Protein>
6NUR|6NUR_protein|mol2

> <Gold.PLP.Fitness>
42.2332

> <Gold.PLP.PLP>
-38.5306

> <Gold.PLP.part.hbond>
-2.0000

> <Gold.PLP.part.metal>
0.0000

> <Gold.PLP.part.buried>
1.0379

> <Gold.PLP.part.nonpolar>
-39.3475

> <Gold.PLP.part.repulsive>
1.1932

> <Gold.PLP.ligand.clash>
0.0000

> <Gold.PLP.ligand.torsion>
0.8793

> <Gold.PLP.Chemscore.Hbond>
1.8160

> <Gold.PLP.Chemscore.CHOScore>
0.0000

> <Gold.PLP.Chemscore.Metal>
0.0000

> <Gold.Chemscore.Hbonds>
donor molecule, donor type, donor heavy atom, donor atom, acceptor molecule, acceptor atom, score
      L1  H     7    24       P1  8028  0.89
      L1  H    10    25       P1  8028  0.82

> <Gold.PLP.Chemscore.Internal.Correction>
0.0133

> <Gold.Rescore>
     Score         DG    S(hbond)    S(metal)    S(lipo)     H(rot)  DE(clash)    DE(int)     intcor
     16.94     -22.04       1.89        0.00     117.32       1.37       2.82       2.28       ----

> <Gold.Chemscore.Fitness>
16.9378

> <Gold.Chemscore.DG>
-22.0356

> <Gold.Chemscore.ZeroCoef>
-5.4800

> <Gold.Chemscore.Hbond>
1.8947

> <Gold.Chemscore.Metal>
0.0000

> <Gold.Chemscore.Lipo>
117.3212

> <Gold.Chemscore.Internal_Hbond>
0.0000

> <Gold.Chemscore.DEClash>
2.8214

> <Gold.Chemscore.DEInternal>
2.2764

> <Gold.Chemscore.Rot>
1.3669

> <Gold.Chemscore.Internal.Correction>
   9.000000E+99

> <Gold.Chemscore.Hbonds>
donor molecule, donor type, donor heavy atom, donor atom, acceptor molecule, acceptor atom, score
      L1  H     7    24       P1  8028  0.87
      L1  H    10    25       P1  8028  0.77

> <Gold.Chemscore.Hbond.Weighted>
-6.3282

> <Gold.Chemscore.Metal.Weighted>
-0.0000

> <Gold.Chemscore.Lipo.Weighted>
-13.7266

> <Gold.Chemscore.Internal_Hbond.Weighted>
0.0000

> <Gold.Chemscore.DEClash.Weighted>
2.8214

> <Gold.Chemscore.DEInternal.Weighted>
2.2764

> <Gold.Chemscore.Rot.Weighted>
3.4992

> <Gold.Chemscore.Internal.Correction.Weighted>
   9.000000E+99

> <Gold.Protein.RotatedTorsions>
[ 6907 6896 6895 6894 ] final  -82.46 input  -60.11 | X-H torsion
[ 7974 7965 7964 7962 ] final   35.78 input  175.53 | X-H torsion
[ 8008 7997 7996 7995 ] final  153.21 input   59.86 | X-H torsion
[ 10167 10162 10161 10158 ] final -136.03 input  -65.29 | X-H torsion
[ 10718 10713 10712 10709 ] final  -95.06 input   66.30 | X-H torsion
[ 10763 10752 10751 10750 ] final   71.42 input  -60.55 | X-H torsion
[ 11005 11000 10999 10996 ] final  150.99 input  -57.11 | X-H torsion

> <Gold.Protein.ActiveResidues>
 VAL166  LYS551  ARG553  GLY616  TRP617  ASP618  TYR619  PRO620  LYS621  CYS622 
 ASP623  PHE694  ASN695  SER759  ASP760  ASP761  ALA762  ILE779  LEU786  VAL792 
 PHE793  MET794  SER795  GLU796  ALA797  LYS798  CYS799  TRP800  GLU811  SER814 

> <Gold.Protein.RotatedAtoms>
  150.6897  134.3662  159.4971 H   0  0  0  0  0  0  0  0  0  0  0  0  # atno 6907 bound_to 6896
  152.1484  134.9005  160.0559 H   0  0  0  0  0  0  0  0  0  0  0  0  # atno 6908 bound_to 6896
  152.0112  133.3827  159.4257 H   0  0  0  0  0  0  0  0  0  0  0  0  # atno 6909 bound_to 6896
  146.1258  139.6100  142.9259 H   0  0  0  0  0  0  0  0  0  0  0  0  # atno 7974 bound_to 7965
  156.2593  140.2000  156.6454 H   0  0  0  0  0  0  0  0  0  0  0  0  # atno 8008 bound_to 7997
  154.6577  140.0564  157.0052 H   0  0  0  0  0  0  0  0  0  0  0  0  # atno 8009 bound_to 7997
  155.1322  140.3235  155.4474 H   0  0  0  0  0  0  0  0  0  0  0  0  # atno 8010 bound_to 7997
  139.8719  143.6947  152.2639 H   0  0  0  0  0  0  0  0  0  0  0  0  # atno 10167 bound_to 10162
  156.0037  130.5093  150.6019 H   0  0  0  0  0  0  0  0  0  0  0  0  # atno 10718 bound_to 10713
  153.0398  135.5137  154.7590 H   0  0  0  0  0  0  0  0  0  0  0  0  # atno 10763 bound_to 10752
  154.6537  135.2928  154.9957 H   0  0  0  0  0  0  0  0  0  0  0  0  # atno 10764 bound_to 10752
  154.0832  135.6661  153.4893 H   0  0  0  0  0  0  0  0  0  0  0  0  # atno 10765 bound_to 10752
  140.1179  134.8882  157.2030 H   0  0  0  0  0  0  0  0  0  0  0  0  # atno 11005 bound_to 11000
  145.5367  141.0423  143.2353 LP  0  0  0  0  0  0  0  0  0  0  0  0  # atno 17320 bound_to 7965
  144.7641  139.6886  143.7222 LP  0  0  0  0  0  0  0  0  0  0  0  0  # atno 17321 bound_to 7965
  139.7276  144.7589  151.0853 LP  0  0  0  0  0  0  0  0  0  0  0  0  # atno 17342 bound_to 10162
  140.7759  143.5128  150.9631 LP  0  0  0  0  0  0  0  0  0  0  0  0  # atno 17343 bound_to 10162
  157.3866  131.0789  151.1430 LP  0  0  0  0  0  0  0  0  0  0  0  0  # atno 17370 bound_to 10713
  157.2135  130.6449  149.5783 LP  0  0  0  0  0  0  0  0  0  0  0  0  # atno 17371 bound_to 10713
  140.3004  134.3138  155.7291 LP  0  0  0  0  0  0  0  0  0  0  0  0  # atno 17394 bound_to 11000
  141.2145  133.7588  156.9632 LP  0  0  0  0  0  0  0  0  0  0  0  0  # atno 17395 bound_to 11000

$$$$
