AV-unprocessed.smi:3303|AV-procd|sdf|12685|dock10
  -GOLD-   2272019 23D 1   1.00000     0.00000
 Structure written by MMmdl.
 44 45  0  0  0  0  0  0  0  0  2 V2000
  147.1765  140.5751  157.7848 C   0  0  0  0  0  0  0  0  0  0  0  0
  147.7566  141.3150  156.5662 C   0  0  2  0  0  0  0  0  0  0  0  0
  146.6129  141.8576  155.6834 C   0  0  0  0  0  0  0  0  0  0  0  0
  147.1316  142.5692  154.4883 N   0  3  2  0  0  0  0  0  0  0  0  0
  146.0729  143.2828  153.7388 C   0  0  0  0  0  0  0  0  0  0  0  0
  148.0186  141.7262  153.6380 C   0  0  2  0  0  0  0  0  0  0  0  0
  147.2749  140.5996  152.8881 C   0  0  0  0  0  0  0  0  0  0  0  0
  149.1915  141.1924  154.4814 C   0  0  0  0  0  0  0  0  0  0  0  0
  148.7143  140.4299  155.7319 C   0  0  1  0  0  0  0  0  0  0  0  0
  149.8966  140.1031  156.5186 N   0  0  0  0  0  0  0  0  0  0  0  0
  150.6285  141.2986  156.9132 C   0  0  0  0  0  0  0  0  0  0  0  0
  150.9240  141.2902  158.4226 C   0  0  0  0  0  0  0  0  0  0  0  0
  151.1336  142.6819  158.9974 C   0  0  0  0  0  0  0  0  0  0  0  0
  152.0012  142.8793  160.0929 C   0  0  0  0  0  0  0  0  0  0  0  0
  152.1487  144.1822  160.6069 C   0  0  0  0  0  0  0  0  0  0  0  0
  151.4246  145.2325  160.0109 C   0  0  0  0  0  0  0  0  0  0  0  0
  150.5830  144.9321  158.9215 C   0  0  0  0  0  0  0  0  0  0  0  0
  150.4353  143.6868  158.4205 N   0  0  0  0  0  0  0  0  0  0  0  0
  146.6338  139.6788  157.4832 H   0  0  0  0  0  0  0  0  0  0  0  0
  146.4855  141.2116  158.3380 H   0  0  0  0  0  0  0  0  0  0  0  0
  147.9594  140.2728  158.4811 H   0  0  0  0  0  0  0  0  0  0  0  0
  148.3188  142.1735  156.9383 H   0  0  0  0  0  0  0  0  0  0  0  0
  145.9467  141.0505  155.3774 H   0  0  0  0  0  0  0  0  0  0  0  0
  146.0066  142.5504  156.2689 H   0  0  0  0  0  0  0  0  0  0  0  0
  145.3020  142.5983  153.3841 H   0  0  0  0  0  0  0  0  0  0  0  0
  146.4917  143.8078  152.8797 H   0  0  0  0  0  0  0  0  0  0  0  0
  145.5923  144.0244  154.3773 H   0  0  0  0  0  0  0  0  0  0  0  0
  148.4472  142.3827  152.8794 H   0  0  0  0  0  0  0  0  0  0  0  0
  147.9706  140.0197  152.2809 H   0  0  0  0  0  0  0  0  0  0  0  0
  146.5194  140.9943  152.2092 H   0  0  0  0  0  0  0  0  0  0  0  0
  146.7820  139.9029  153.5653 H   0  0  0  0  0  0  0  0  0  0  0  0
  149.8301  140.5530  153.8704 H   0  0  0  0  0  0  0  0  0  0  0  0
  149.8132  142.0364  154.7858 H   0  0  0  0  0  0  0  0  0  0  0  0
  148.1970  139.5223  155.4161 H   0  0  0  0  0  0  0  0  0  0  0  0
  149.6387  139.5783  157.3424 H   0  0  0  0  0  0  0  0  0  0  0  0
  151.5642  141.3723  156.3579 H   0  0  0  0  0  0  0  0  0  0  0  0
  150.0313  142.1746  156.6575 H   0  0  0  0  0  0  0  0  0  0  0  0
  150.0928  140.8198  158.9489 H   0  0  0  0  0  0  0  0  0  0  0  0
  151.7988  140.6727  158.6329 H   0  0  0  0  0  0  0  0  0  0  0  0
  152.5382  142.0520  160.5332 H   0  0  0  0  0  0  0  0  0  0  0  0
  152.8036  144.3718  161.4443 H   0  0  0  0  0  0  0  0  0  0  0  0
  151.5117  146.2437  160.3797 H   0  0  0  0  0  0  0  0  0  0  0  0
  150.0120  145.7124  158.4408 H   0  0  0  0  0  0  0  0  0  0  0  0
  147.7321  143.2958  154.8520 H   0  0  0  0  0  0  0  0  0  0  0  0
  1  2  1  0  0  0  0
  1 19  1  0  0  0  0
  1 20  1  0  0  0  0
  1 21  1  0  0  0  0
  2  9  1  0  0  0  0
  2  3  1  0  0  0  0
  2 22  1  0  0  0  0
  3  4  1  0  0  0  0
  3 23  1  0  0  0  0
  3 24  1  0  0  0  0
  4  5  1  0  0  0  0
  4  6  1  0  0  0  0
  4 44  1  0  0  0  0
  5 25  1  0  0  0  0
  5 26  1  0  0  0  0
  5 27  1  0  0  0  0
  6  7  1  0  0  0  0
  6  8  1  0  0  0  0
  6 28  1  0  0  0  0
  7 29  1  0  0  0  0
  7 30  1  0  0  0  0
  7 31  1  0  0  0  0
  8  9  1  0  0  0  0
  8 32  1  0  0  0  0
  8 33  1  0  0  0  0
  9 10  1  0  0  0  0
  9 34  1  0  0  0  0
 10 11  1  0  0  0  0
 10 35  1  0  0  0  0
 11 12  1  0  0  0  0
 11 36  1  0  0  0  0
 11 37  1  0  0  0  0
 12 13  1  0  0  0  0
 12 38  1  0  0  0  0
 12 39  1  0  0  0  0
 13 18  1  0  0  0  0
 13 14  2  0  0  0  0
 14 15  1  0  0  0  0
 14 40  1  0  0  0  0
 15 16  2  0  0  0  0
 15 41  1  0  0  0  0
 16 17  1  0  0  0  0
 16 42  1  0  0  0  0
 17 18  2  0  0  0  0
 17 43  1  0  0  0  0
M  CHG  1   4   1
M  END
> <s_m_source_file>
AV-unprocessed.smi

> <i_m_source_file_index>
3303

> <i_lp_mmshare_version>
43012

> <i_f3d_flags>
0

> <s_epik_input>
W0NIM11bQ0BASF0xW0NIMl1OKFtDSDNdKVtDQEBIXShbQ0gzXSlbQ0gyXVtDQEhdMVtOSF1bQ0gyXVtDSDJdYzJbY0hdW2NIXVtjSF1bY0hdbjI=

> <s_epik_cmdline>
J2VwaWtfcHl0aG9uJywgJy1waCcsICc3LjAnLCAnLXRuJywgJzgnLCAnLW1hJywgJzIwMCcsICctbWV0YWxfYmluZGluZycsICctaW1hZScsICc8aW5maWxlLm1hZT4nLCAnLW9tYWUnLCAnPG91dGZpbGUubWFlPic=

> <r_epik_Ionization_Penalty>
2.31085

> <r_epik_Ionization_Penalty_Charging>
0.000313057

> <r_epik_Ionization_Penalty_Neutral>
2.31054

> <r_epik_State_Penalty>
2.4087

> <r_epik_Charging_Adjusted_Penalty>
2.40902

> <i_epik_Tot_Q>
1

> <i_epik_Tot_abs_Q>
1

> <r_epik_Metal_State_Penalty>
2.30979

> <b_epik_Metal_Only>
0

> <s_lp_Force_Field>
OPLS_2005

> <r_lp_Energy>
26.7889

> <b_lp_Chiralities_Consistent>
1

> <s_lp_Variant>
AV-unprocessed.smi:3303-29

> <Gold.Version>
5.8.1

> <Gold.Id.Protein>
6NUR|6NUR_protein|mol2

> <Gold.PLP.Fitness>
43.2719

> <Gold.PLP.PLP>
-35.9785

> <Gold.PLP.part.hbond>
-1.0000

> <Gold.PLP.part.metal>
0.0000

> <Gold.PLP.part.buried>
-4.1673

> <Gold.PLP.part.nonpolar>
-31.1932

> <Gold.PLP.part.repulsive>
0.2923

> <Gold.PLP.ligand.clash>
0.0000

> <Gold.PLP.ligand.torsion>
0.8559

> <Gold.PLP.Chemscore.Hbond>
2.0000

> <Gold.PLP.Chemscore.CHOScore>
1.0000

> <Gold.PLP.Chemscore.Metal>
0.0000

> <Gold.Chemscore.Hbonds>
donor molecule, donor type, donor heavy atom, donor atom, acceptor molecule, acceptor atom, score
      L1  H     4    44       P1  8028  2.00
      L1  C    17    43       P1  8029  1.00

> <Gold.PLP.Chemscore.Internal.Correction>
0.0051

> <Gold.Rescore>
     Score         DG    S(hbond)    S(metal)    S(lipo)     H(rot)  DE(clash)    DE(int)     intcor
     16.20     -17.30       0.65        0.00     111.47       1.33       0.25       0.84       ----

> <Gold.Chemscore.Fitness>
16.1995

> <Gold.Chemscore.DG>
-17.2956

> <Gold.Chemscore.ZeroCoef>
-5.4800

> <Gold.Chemscore.Hbond>
0.6499

> <Gold.Chemscore.Metal>
0.0000

> <Gold.Chemscore.Lipo>
111.4744

> <Gold.Chemscore.Internal_Hbond>
0.0000

> <Gold.Chemscore.DEClash>
0.2536

> <Gold.Chemscore.DEInternal>
0.8425

> <Gold.Chemscore.Rot>
1.3272

> <Gold.Chemscore.Internal.Correction>
   9.000000E+99

> <Gold.Chemscore.Hbonds>
donor molecule, donor type, donor heavy atom, donor atom, acceptor molecule, acceptor atom, score
      L1  H     4    44       P1  8028  0.54

> <Gold.Chemscore.Hbond.Weighted>
-2.1707

> <Gold.Chemscore.Metal.Weighted>
-0.0000

> <Gold.Chemscore.Lipo.Weighted>
-13.0425

> <Gold.Chemscore.Internal_Hbond.Weighted>
0.0000

> <Gold.Chemscore.DEClash.Weighted>
0.2536

> <Gold.Chemscore.DEInternal.Weighted>
0.8425

> <Gold.Chemscore.Rot.Weighted>
3.3976

> <Gold.Chemscore.Internal.Correction.Weighted>
   9.000000E+99

> <Gold.Protein.RotatedTorsions>
[ 6907 6896 6895 6894 ] final  155.61 input  -60.11 | X-H torsion
[ 7974 7965 7964 7962 ] final  164.39 input  175.53 | X-H torsion
[ 8008 7997 7996 7995 ] final  -77.21 input   59.86 | X-H torsion
[ 10167 10162 10161 10158 ] final  173.99 input  -65.29 | X-H torsion
[ 10718 10713 10712 10709 ] final  109.29 input   66.30 | X-H torsion
[ 10763 10752 10751 10750 ] final  -25.79 input  -60.55 | X-H torsion
[ 11005 11000 10999 10996 ] final  -23.74 input  -57.11 | X-H torsion

> <Gold.Protein.ActiveResidues>
 VAL166  LYS551  ARG553  GLY616  TRP617  ASP618  TYR619  PRO620  LYS621  CYS622 
 ASP623  PHE694  ASN695  SER759  ASP760  ASP761  ALA762  ILE779  LEU786  VAL792 
 PHE793  MET794  SER795  GLU796  ALA797  LYS798  CYS799  TRP800  GLU811  SER814 

> <Gold.Protein.RotatedAtoms>
  152.0416  133.3980  159.4339 H   0  0  0  0  0  0  0  0  0  0  0  0  # atno 6907 bound_to 6896
  150.6875  134.3408  159.4876 H   0  0  0  0  0  0  0  0  0  0  0  0  # atno 6908 bound_to 6896
  152.1207  134.9207  160.0614 H   0  0  0  0  0  0  0  0  0  0  0  0  # atno 6909 bound_to 6896
  144.7547  139.8319  143.6354 H   0  0  0  0  0  0  0  0  0  0  0  0  # atno 7974 bound_to 7965
  154.5575  140.0714  156.8767 H   0  0  0  0  0  0  0  0  0  0  0  0  # atno 8008 bound_to 7997
  155.2874  140.3375  155.4236 H   0  0  0  0  0  0  0  0  0  0  0  0  # atno 8009 bound_to 7997
  156.2015  140.1723  156.7876 H   0  0  0  0  0  0  0  0  0  0  0  0  # atno 8010 bound_to 7997
  139.5126  144.3198  152.0213 H   0  0  0  0  0  0  0  0  0  0  0  0  # atno 10167 bound_to 10162
  157.6548  131.0911  150.6432 H   0  0  0  0  0  0  0  0  0  0  0  0  # atno 10718 bound_to 10713
  153.7055  135.6954  153.5051 H   0  0  0  0  0  0  0  0  0  0  0  0  # atno 10763 bound_to 10752
  153.2311  135.4337  155.0595 H   0  0  0  0  0  0  0  0  0  0  0  0  # atno 10764 bound_to 10752
  154.8331  135.3484  154.6593 H   0  0  0  0  0  0  0  0  0  0  0  0  # atno 10765 bound_to 10752
  140.8780  133.7674  156.0267 H   0  0  0  0  0  0  0  0  0  0  0  0  # atno 11005 bound_to 11000
  146.1543  139.4636  143.0029 LP  0  0  0  0  0  0  0  0  0  0  0  0  # atno 17320 bound_to 7965
  145.6820  141.0188  143.1601 LP  0  0  0  0  0  0  0  0  0  0  0  0  # atno 17321 bound_to 7965
  140.2640  144.4036  150.6175 LP  0  0  0  0  0  0  0  0  0  0  0  0  # atno 17342 bound_to 10162
  140.6137  143.2171  151.6835 LP  0  0  0  0  0  0  0  0  0  0  0  0  # atno 17343 bound_to 10162
  156.6740  130.4547  149.5648 LP  0  0  0  0  0  0  0  0  0  0  0  0  # atno 17370 bound_to 10713
  156.1977  130.6600  151.1133 LP  0  0  0  0  0  0  0  0  0  0  0  0  # atno 17371 bound_to 10713
  140.8495  134.2971  157.5281 LP  0  0  0  0  0  0  0  0  0  0  0  0  # atno 17394 bound_to 11000
  139.8717  134.9460  156.3925 LP  0  0  0  0  0  0  0  0  0  0  0  0  # atno 17395 bound_to 11000

$$$$
