AV-unprocessed.smi:283|AV-procd|sdf|2126|dock1
  -GOLD-   2262021433D 1   1.00000     0.00000
 Structure written by MMmdl.
 48 51  0  0  0  0  0  0  0  0  1 V2000
  154.2998  139.3031  160.4631 C   0  0  0  0  0  0  0  0  0  0  0  0
  153.5226  140.4942  159.8738 C   0  0  1  0  0  0  0  0  0  0  0  0
  152.2636  140.0571  159.2716 N   0  0  0  0  0  0  0  0  0  0  0  0
  152.0974  140.0038  157.9313 C   0  0  0  0  0  0  0  0  0  0  0  0
  153.1401  139.7486  157.0979 N   0  0  0  0  0  0  0  0  0  0  0  0
  152.9462  139.7055  155.7761 C   0  0  0  0  0  0  0  0  0  0  0  0
  151.8143  139.8883  155.0917 N   0  0  0  0  0  0  0  0  0  0  0  0
  150.7670  140.1505  155.9260 C   0  0  0  0  0  0  0  0  0  0  0  0
  150.8246  140.2240  157.3449 C   0  0  0  0  0  0  0  0  0  0  0  0
  149.5623  140.5046  157.8520 N   0  0  0  0  0  0  0  0  0  0  0  0
  148.8064  140.5903  156.7899 C   0  0  0  0  0  0  0  0  0  0  0  0
  149.4537  140.3902  155.5886 N   0  0  0  0  0  0  0  0  0  0  0  0
  148.9028  140.4095  154.1994 C   0  0  2  0  0  0  0  0  0  0  0  0
  148.2373  141.6266  154.0194 O   0  0  0  0  0  0  0  0  0  0  0  0
  146.8430  141.4186  153.8015 C   0  0  2  0  0  0  0  0  0  0  0  0
  146.0417  142.5510  154.4625 C   0  0  0  0  0  0  0  0  0  0  0  0
  144.6633  142.2469  154.4595 O   0  0  0  0  0  0  0  0  0  0  0  0
  146.5741  140.0232  154.3694 C   0  0  1  0  0  0  0  0  0  0  0  0
  145.4369  139.3927  153.8124 O   0  0  0  0  0  0  0  0  0  0  0  0
  147.8675  139.2881  154.0501 C   0  0  1  0  0  0  0  0  0  0  0  0
  147.8957  138.7468  152.7418 O   0  0  0  0  0  0  0  0  0  0  0  0
  153.3219  141.5661  160.9441 C   0  0  0  0  0  0  0  0  0  0  0  0
  153.9326  141.4221  162.2127 C   0  0  0  0  0  0  0  0  0  0  0  0
  153.7640  142.4040  163.2071 C   0  0  0  0  0  0  0  0  0  0  0  0
  152.9875  143.5461  162.9429 C   0  0  0  0  0  0  0  0  0  0  0  0
  152.3858  143.7068  161.6814 C   0  0  0  0  0  0  0  0  0  0  0  0
  152.5514  142.7276  160.6812 C   0  0  0  0  0  0  0  0  0  0  0  0
  151.8033  142.9905  159.1444 Cl  0  0  0  0  0  0  0  0  0  0  0  0
  149.7770  140.3171  153.5533 H   0  0  0  0  0  0  0  0  0  0  0  0
  146.6875  141.4214  152.7209 H   0  0  0  0  0  0  0  0  0  0  0  0
  146.4528  140.0823  155.4520 H   0  0  0  0  0  0  0  0  0  0  0  0
  148.0608  138.4771  154.7540 H   0  0  0  0  0  0  0  0  0  0  0  0
  155.2593  139.6256  160.8682 H   0  0  0  0  0  0  0  0  0  0  0  0
  154.5067  138.5401  159.7129 H   0  0  0  0  0  0  0  0  0  0  0  0
  153.7419  138.8290  161.2713 H   0  0  0  0  0  0  0  0  0  0  0  0
  154.1164  140.9376  159.0757 H   0  0  0  0  0  0  0  0  0  0  0  0
  151.5663  139.7199  159.9194 H   0  0  0  0  0  0  0  0  0  0  0  0
  153.8236  139.4950  155.1827 H   0  0  0  0  0  0  0  0  0  0  0  0
  147.7497  140.8025  156.8591 H   0  0  0  0  0  0  0  0  0  0  0  0
  146.3775  142.7286  155.4844 H   0  0  0  0  0  0  0  0  0  0  0  0
  146.1838  143.4804  153.9108 H   0  0  0  0  0  0  0  0  0  0  0  0
  144.2056  142.9300  153.9929 H   0  0  0  0  0  0  0  0  0  0  0  0
  144.9630  140.0331  153.3032 H   0  0  0  0  0  0  0  0  0  0  0  0
  148.3636  139.3459  152.1801 H   0  0  0  0  0  0  0  0  0  0  0  0
  154.5412  140.5578  162.4334 H   0  0  0  0  0  0  0  0  0  0  0  0
  154.2332  142.2814  164.1723 H   0  0  0  0  0  0  0  0  0  0  0  0
  152.8577  144.3008  163.7045 H   0  0  0  0  0  0  0  0  0  0  0  0
  151.7961  144.5889  161.4795 H   0  0  0  0  0  0  0  0  0  0  0  0
  1  2  1  0  0  0  0
  1 33  1  0  0  0  0
  1 34  1  0  0  0  0
  1 35  1  0  0  0  0
  2  3  1  0  0  0  0
  2 22  1  0  0  0  0
  2 36  1  0  0  0  0
  3  4  1  0  0  0  0
  3 37  1  0  0  0  0
  4  9  1  0  0  0  0
  4  5  2  0  0  0  0
  5  6  1  0  0  0  0
  6  7  2  0  0  0  0
  6 38  1  0  0  0  0
  7  8  1  0  0  0  0
  8 12  1  0  0  0  0
  8  9  2  0  0  0  0
  9 10  1  0  0  0  0
 10 11  2  0  0  0  0
 11 12  1  0  0  0  0
 11 39  1  0  0  0  0
 12 13  1  0  0  0  0
 13 29  1  0  0  0  0
 13 20  1  0  0  0  0
 13 14  1  0  0  0  0
 14 15  1  0  0  0  0
 15 30  1  0  0  0  0
 15 16  1  0  0  0  0
 15 18  1  0  0  0  0
 16 17  1  0  0  0  0
 16 40  1  0  0  0  0
 16 41  1  0  0  0  0
 17 42  1  0  0  0  0
 18 31  1  0  0  0  0
 18 19  1  0  0  0  0
 18 20  1  0  0  0  0
 19 43  1  0  0  0  0
 20 32  1  0  0  0  0
 20 21  1  0  0  0  0
 21 44  1  0  0  0  0
 22 27  1  0  0  0  0
 22 23  2  0  0  0  0
 23 24  1  0  0  0  0
 23 45  1  0  0  0  0
 24 25  2  0  0  0  0
 24 46  1  0  0  0  0
 25 26  1  0  0  0  0
 25 47  1  0  0  0  0
 26 27  2  0  0  0  0
 26 48  1  0  0  0  0
 27 28  1  0  0  0  0
M  END
> <s_m_source_file>
AV-unprocessed.smi

> <i_m_source_file_index>
283

> <i_lp_mmshare_version>
43012

> <i_f3d_flags>
0

> <s_epik_input>
Q2xjMVtjSF1bY0hdW2NIXVtjSF1jMVtDQEhdKFtDSDNdKVtOSF1jKG5bY0hdbjIpYyhjMjMpbltjSF1uM1tDQEBIXTRPW0NASF0oW0NIMl1bT0hdKVtDQEBIXShbT0hdKVtDQEhdNFtPSF0=

> <s_epik_cmdline>
J2VwaWtfcHl0aG9uJywgJy1waCcsICc3LjAnLCAnLXRuJywgJzgnLCAnLW1hJywgJzIwMCcsICctbWV0YWxfYmluZGluZycsICctaW1hZScsICc8aW5maWxlLm1hZT4nLCAnLW9tYWUnLCAnPG91dGZpbGUubWFlPic=

> <r_lp_tautomer_probability>
1

> <r_epik_Ionization_Penalty>
0.000266407

> <r_epik_Ionization_Penalty_Charging>
0

> <r_epik_Ionization_Penalty_Neutral>
0.000266407

> <r_epik_State_Penalty>
-0

> <r_epik_Charging_Adjusted_Penalty>
0

> <i_epik_Tot_Q>
0

> <i_epik_Tot_abs_Q>
0

> <r_epik_Metal_State_Penalty>
-0

> <b_epik_Metal_Only>
0

> <s_epik_Chemistry_Notes>
This compound contains an acetal/aminal-like group ( X-CH(R)-Y where X, Y are N, S, or O) that may be acid/base labile, releasing an aldehyde.

> <s_lp_Force_Field>
OPLS_2005

> <r_lp_Energy>
43.9323

> <b_lp_Chiralities_Consistent>
1

> <s_lp_Variant>
AV-unprocessed.smi:283-2

> <Gold.Version>
5.8.1

> <Gold.Id.Protein>
6NUR|6NUR_protein|mol2

> <Gold.PLP.Fitness>
62.2758

> <Gold.PLP.PLP>
-52.0513

> <Gold.PLP.part.hbond>
-7.0493

> <Gold.PLP.part.metal>
0.0000

> <Gold.PLP.part.buried>
-1.3684

> <Gold.PLP.part.nonpolar>
-43.2493

> <Gold.PLP.part.repulsive>
0.3378

> <Gold.PLP.ligand.clash>
0.0000

> <Gold.PLP.ligand.torsion>
0.5233

> <Gold.PLP.Chemscore.Hbond>
3.6868

> <Gold.PLP.Chemscore.CHOScore>
0.0000

> <Gold.PLP.Chemscore.Metal>
0.0000

> <Gold.Chemscore.Hbonds>
donor molecule, donor type, donor heavy atom, donor atom, acceptor molecule, acceptor atom, score
      L1  H    19    43       P1 10175  1.00
      L1  H    21    44       P1  7957  1.00
      P1  H  7989  7998       L1     7  0.96
      P1  H  7997  8009       L1     5  0.54
      P1  H  8011  8017       L1    14  0.01

> <Gold.PLP.Chemscore.Internal.Correction>
0.2106

> <Gold.Rescore>
     Score         DG    S(hbond)    S(metal)    S(lipo)     H(rot)  DE(clash)    DE(int)     intcor
     14.92     -17.66       2.41        0.00     124.91       4.10       2.35       0.39       ----

> <Gold.Chemscore.Fitness>
14.9193

> <Gold.Chemscore.DG>
-17.6564

> <Gold.Chemscore.ZeroCoef>
-5.4800

> <Gold.Chemscore.Hbond>
2.4100

> <Gold.Chemscore.Metal>
0.0000

> <Gold.Chemscore.Lipo>
124.9149

> <Gold.Chemscore.Internal_Hbond>
0.0000

> <Gold.Chemscore.DEClash>
2.3498

> <Gold.Chemscore.DEInternal>
0.3873

> <Gold.Chemscore.Rot>
4.0968

> <Gold.Chemscore.Internal.Correction>
   9.000000E+99

> <Gold.Chemscore.Hbonds>
donor molecule, donor type, donor heavy atom, donor atom, acceptor molecule, acceptor atom, score
      L1  H    19    43       P1 10175  0.93
      L1  H    21    44       P1  7957  1.00
      P1  H  7989  7998       L1     7  0.72
      P1  H  7997  8009       L1     5  0.07

> <Gold.Chemscore.Hbond.Weighted>
-8.0493

> <Gold.Chemscore.Metal.Weighted>
-0.0000

> <Gold.Chemscore.Lipo.Weighted>
-14.6150

> <Gold.Chemscore.Internal_Hbond.Weighted>
0.0000

> <Gold.Chemscore.DEClash.Weighted>
2.3498

> <Gold.Chemscore.DEInternal.Weighted>
0.3873

> <Gold.Chemscore.Rot.Weighted>
10.4879

> <Gold.Chemscore.Internal.Correction.Weighted>
   9.000000E+99

> <Gold.Protein.RotatedTorsions>
[ 6907 6896 6895 6894 ] final  168.45 input  -60.11 | X-H torsion
[ 7974 7965 7964 7962 ] final  -43.26 input  175.53 | X-H torsion
[ 8008 7997 7996 7995 ] final  153.09 input   59.86 | X-H torsion
[ 10167 10162 10161 10158 ] final   42.58 input  -65.29 | X-H torsion
[ 10718 10713 10712 10709 ] final    1.34 input   66.30 | X-H torsion
[ 10763 10752 10751 10750 ] final -174.06 input  -60.55 | X-H torsion
[ 11005 11000 10999 10996 ] final -105.66 input  -57.11 | X-H torsion

> <Gold.Protein.ActiveResidues>
 VAL166  LYS551  ARG553  GLY616  TRP617  ASP618  TYR619  PRO620  LYS621  CYS622 
 ASP623  PHE694  ASN695  SER759  ASP760  ASP761  ALA762  ILE779  LEU786  VAL792 
 PHE793  MET794  SER795  GLU796  ALA797  LYS798  CYS799  TRP800  GLU811  SER814 

> <Gold.Protein.RotatedAtoms>
  151.8475  133.3434  159.3662 H   0  0  0  0  0  0  0  0  0  0  0  0  # atno 6907 bound_to 6896
  150.7216  134.5331  159.5719 H   0  0  0  0  0  0  0  0  0  0  0  0  # atno 6908 bound_to 6896
  152.2818  134.7821  160.0446 H   0  0  0  0  0  0  0  0  0  0  0  0  # atno 6909 bound_to 6896
  146.0036  140.7046  142.9258 H   0  0  0  0  0  0  0  0  0  0  0  0  # atno 7974 bound_to 7965
  156.2598  140.2003  156.6436 H   0  0  0  0  0  0  0  0  0  0  0  0  # atno 8008 bound_to 7997
  154.6590  140.0563  157.0066 H   0  0  0  0  0  0  0  0  0  0  0  0  # atno 8009 bound_to 7997
  155.1304  140.3233  155.4478 H   0  0  0  0  0  0  0  0  0  0  0  0  # atno 8010 bound_to 7997
  140.3529  144.2327  150.6144 H   0  0  0  0  0  0  0  0  0  0  0  0  # atno 10167 bound_to 10162
  156.8467  130.5539  149.5673 H   0  0  0  0  0  0  0  0  0  0  0  0  # atno 10718 bound_to 10713
  154.6006  135.2854  155.0539 H   0  0  0  0  0  0  0  0  0  0  0  0  # atno 10763 bound_to 10752
  154.1805  135.6457  153.5037 H   0  0  0  0  0  0  0  0  0  0  0  0  # atno 10764 bound_to 10752
  153.0155  135.5422  154.6724 H   0  0  0  0  0  0  0  0  0  0  0  0  # atno 10765 bound_to 10752
  141.1042  133.8827  157.1762 H   0  0  0  0  0  0  0  0  0  0  0  0  # atno 11005 bound_to 11000
  144.6928  140.3276  143.7221 LP  0  0  0  0  0  0  0  0  0  0  0  0  # atno 17320 bound_to 7965
  145.7450  139.1776  143.2354 LP  0  0  0  0  0  0  0  0  0  0  0  0  # atno 17321 bound_to 7965
  140.5201  143.2268  151.8402 LP  0  0  0  0  0  0  0  0  0  0  0  0  # atno 17342 bound_to 10162
  139.4824  144.4847  151.9262 LP  0  0  0  0  0  0  0  0  0  0  0  0  # atno 17343 bound_to 10162
  156.0851  130.5851  150.9633 LP  0  0  0  0  0  0  0  0  0  0  0  0  # atno 17370 bound_to 10713
  157.6326  131.0919  150.8411 LP  0  0  0  0  0  0  0  0  0  0  0  0  # atno 17371 bound_to 10713
  139.9906  135.0066  156.9965 LP  0  0  0  0  0  0  0  0  0  0  0  0  # atno 17394 bound_to 11000
  140.4944  134.1160  155.7238 LP  0  0  0  0  0  0  0  0  0  0  0  0  # atno 17395 bound_to 11000

$$$$
