AV-unprocessed.smi:224|AV-procd|sdf|1715|dock3
  -GOLD-   2262020183D 1   1.00000     0.00000
 Structure written by MMmdl.
 56 59  0  0  0  0  0  0  0  0  2 V2000
  144.2888  132.7449  149.5354 C   0  0  0  0  0  0  0  0  0  0  0  0
  143.7078  132.6082  150.9486 C   0  0  2  0  0  0  0  0  0  0  0  0
  142.2992  132.6727  150.8455 O   0  0  0  0  0  0  0  0  0  0  0  0
  144.2113  133.7302  151.8807 C   0  0  0  0  0  0  0  0  0  0  0  0
  144.7401  133.2461  153.1861 N   0  3  2  0  0  0  0  0  0  0  0  0
  145.0478  134.3695  154.1102 C   0  0  0  0  0  0  0  0  0  0  0  0
  145.4466  133.8560  155.5050 C   0  0  0  0  0  0  0  0  0  0  0  0
  146.5288  132.8786  155.4184 N   0  0  0  0  0  0  0  0  0  0  0  0
  147.8202  133.3022  155.4859 C   0  0  0  0  0  0  0  0  0  0  0  0
  148.7844  132.6308  154.8008 N   0  0  0  0  0  0  0  0  0  0  0  0
  150.0624  133.0115  154.8770 C   0  0  0  0  0  0  0  0  0  0  0  0
  150.5897  134.0241  155.5654 N   0  0  0  0  0  0  0  0  0  0  0  0
  149.6287  134.7183  156.2384 C   0  0  0  0  0  0  0  0  0  0  0  0
  148.2341  134.4292  156.2538 C   0  0  0  0  0  0  0  0  0  0  0  0
  147.5711  135.3620  157.0436 N   0  0  0  0  0  0  0  0  0  0  0  0
  148.5184  136.1457  157.4803 C   0  0  0  0  0  0  0  0  0  0  0  0
  149.7851  135.8348  157.0412 N   0  0  0  0  0  0  0  0  0  0  0  0
  151.0167  136.5366  157.3677 C   0  0  0  0  0  0  0  0  0  0  0  0
  151.5558  137.4072  156.2089 C   0  0  1  0  0  0  0  0  0  0  0  0
  151.7014  136.5998  155.0536 O   0  0  0  0  0  0  0  0  0  0  0  0
  150.6690  138.5983  155.8571 C   0  0  0  0  0  0  0  0  0  0  0  0
  151.6730  139.6429  155.3905 C   0  0  0  0  0  0  0  0  0  0  0  0
  152.7492  139.4594  156.2939 O   0  0  0  0  0  0  0  0  0  0  0  0
  152.9155  138.0635  156.5213 C   0  0  0  0  0  0  0  0  0  0  0  0
  146.2412  131.7556  154.5285 C   0  0  0  0  0  0  0  0  0  0  0  0
  145.8342  132.2262  153.1133 C   0  0  2  0  0  0  0  0  0  0  0  0
  147.0509  132.6832  152.2800 C   0  0  0  0  0  0  0  0  0  0  0  0
  145.3776  132.6840  149.5525 H   0  0  0  0  0  0  0  0  0  0  0  0
  144.0167  133.6988  149.0815 H   0  0  0  0  0  0  0  0  0  0  0  0
  143.9260  131.9502  148.8825 H   0  0  0  0  0  0  0  0  0  0  0  0
  143.9875  131.6268  151.3295 H   0  0  0  0  0  0  0  0  0  0  0  0
  142.0675  133.2875  150.1668 H   0  0  0  0  0  0  0  0  0  0  0  0
  144.9705  134.3287  151.3765 H   0  0  0  0  0  0  0  0  0  0  0  0
  143.3815  134.4124  152.0732 H   0  0  0  0  0  0  0  0  0  0  0  0
  145.8420  134.9849  153.6871 H   0  0  0  0  0  0  0  0  0  0  0  0
  144.1747  135.0155  154.2075 H   0  0  0  0  0  0  0  0  0  0  0  0
  145.7127  134.6845  156.1624 H   0  0  0  0  0  0  0  0  0  0  0  0
  144.5900  133.3683  155.9720 H   0  0  0  0  0  0  0  0  0  0  0  0
  150.7627  132.4187  154.3071 H   0  0  0  0  0  0  0  0  0  0  0  0
  148.3165  136.9805  158.1357 H   0  0  0  0  0  0  0  0  0  0  0  0
  150.8269  137.1577  158.2440 H   0  0  0  0  0  0  0  0  0  0  0  0
  151.7645  135.8024  157.6704 H   0  0  0  0  0  0  0  0  0  0  0  0
  151.2191  136.9987  154.3457 H   0  0  0  0  0  0  0  0  0  0  0  0
  149.9017  138.3745  155.1146 H   0  0  0  0  0  0  0  0  0  0  0  0
  150.1676  138.9722  156.7507 H   0  0  0  0  0  0  0  0  0  0  0  0
  152.0066  139.4420  154.3711 H   0  0  0  0  0  0  0  0  0  0  0  0
  151.2783  140.6581  155.4338 H   0  0  0  0  0  0  0  0  0  0  0  0
  153.2241  137.9072  157.5555 H   0  0  0  0  0  0  0  0  0  0  0  0
  153.7136  137.6812  155.8826 H   0  0  0  0  0  0  0  0  0  0  0  0
  147.0722  131.0560  154.4577 H   0  0  0  0  0  0  0  0  0  0  0  0
  145.4186  131.1924  154.9705 H   0  0  0  0  0  0  0  0  0  0  0  0
  145.4316  131.3421  152.6210 H   0  0  0  0  0  0  0  0  0  0  0  0
  147.8426  131.9344  152.3108 H   0  0  0  0  0  0  0  0  0  0  0  0
  147.4742  133.6182  152.6446 H   0  0  0  0  0  0  0  0  0  0  0  0
  146.7926  132.8231  151.2306 H   0  0  0  0  0  0  0  0  0  0  0  0
  143.9650  132.7665  153.6207 H   0  0  0  0  0  0  0  0  0  0  0  0
  1  2  1  0  0  0  0
  1 28  1  0  0  0  0
  1 29  1  0  0  0  0
  1 30  1  0  0  0  0
  2  3  1  0  0  0  0
  2  4  1  0  0  0  0
  2 31  1  0  0  0  0
  3 32  1  0  0  0  0
  4  5  1  0  0  0  0
  4 33  1  0  0  0  0
  4 34  1  0  0  0  0
  5 26  1  0  0  0  0
  5  6  1  0  0  0  0
  5 56  1  0  0  0  0
  6  7  1  0  0  0  0
  6 35  1  0  0  0  0
  6 36  1  0  0  0  0
  7  8  1  0  0  0  0
  7 37  1  0  0  0  0
  7 38  1  0  0  0  0
  8  9  1  0  0  0  0
  8 25  1  0  0  0  0
  9 14  1  0  0  0  0
  9 10  2  0  0  0  0
 10 11  1  0  0  0  0
 11 12  2  0  0  0  0
 11 39  1  0  0  0  0
 12 13  1  0  0  0  0
 13 17  1  0  0  0  0
 13 14  2  0  0  0  0
 14 15  1  0  0  0  0
 15 16  2  0  0  0  0
 16 17  1  0  0  0  0
 16 40  1  0  0  0  0
 17 18  1  0  0  0  0
 18 19  1  0  0  0  0
 18 41  1  0  0  0  0
 18 42  1  0  0  0  0
 19 24  1  0  0  0  0
 19 20  1  0  0  0  0
 19 21  1  0  0  0  0
 20 43  1  0  0  0  0
 21 22  1  0  0  0  0
 21 44  1  0  0  0  0
 21 45  1  0  0  0  0
 22 23  1  0  0  0  0
 22 46  1  0  0  0  0
 22 47  1  0  0  0  0
 23 24  1  0  0  0  0
 24 48  1  0  0  0  0
 24 49  1  0  0  0  0
 25 26  1  0  0  0  0
 25 50  1  0  0  0  0
 25 51  1  0  0  0  0
 26 27  1  0  0  0  0
 26 52  1  0  0  0  0
 27 53  1  0  0  0  0
 27 54  1  0  0  0  0
 27 55  1  0  0  0  0
M  CHG  1   5   1
M  END
> <s_m_source_file>
AV-unprocessed.smi

> <i_m_source_file_index>
224

> <i_lp_mmshare_version>
43012

> <i_f3d_flags>
0

> <s_epik_input>
W0NIM11bQ0BIXShbT0hdKVtDSDJdTjFbQ0gyXVtDSDJdTihbQ0gyXVtDQEhdMVtDSDNdKWMobltjSF1uMiljKGMyMyluW2NIXW4zW0NIMl1bQ0BAXTQoW09IXSlbQ0gyXVtDSDJdT1tDSDJdNA==

> <s_epik_cmdline>
J2VwaWtfcHl0aG9uJywgJy1waCcsICc3LjAnLCAnLXRuJywgJzgnLCAnLW1hJywgJzIwMCcsICctbWV0YWxfYmluZGluZycsICctaW1hZScsICc8aW5maWxlLm1hZT4nLCAnLW9tYWUnLCAnPG91dGZpbGUubWFlPic=

> <r_lp_tautomer_probability>
1

> <r_epik_Ionization_Penalty>
0.00516958

> <r_epik_Ionization_Penalty_Charging>
0.00509693

> <r_epik_Ionization_Penalty_Neutral>
7.26542e-05

> <r_epik_State_Penalty>
-0

> <r_epik_Charging_Adjusted_Penalty>
0.00509693

> <i_epik_Tot_Q>
1

> <i_epik_Tot_abs_Q>
1

> <r_epik_Metal_State_Penalty>
-0

> <b_epik_Metal_Only>
0

> <s_lp_Force_Field>
OPLS_2005

> <r_lp_Energy>
50.3788

> <b_lp_Chiralities_Consistent>
1

> <s_lp_Variant>
AV-unprocessed.smi:224-9

> <Gold.Version>
5.8.1

> <Gold.Id.Protein>
6NUR|6NUR_protein|mol2

> <Gold.PLP.Fitness>
44.6366

> <Gold.PLP.PLP>
-31.5696

> <Gold.PLP.part.hbond>
-4.8746

> <Gold.PLP.part.metal>
0.0000

> <Gold.PLP.part.buried>
-6.6225

> <Gold.PLP.part.nonpolar>
-20.7505

> <Gold.PLP.part.repulsive>
0.0781

> <Gold.PLP.ligand.clash>
0.0000

> <Gold.PLP.ligand.torsion>
1.1388

> <Gold.PLP.Chemscore.Hbond>
4.9920

> <Gold.PLP.Chemscore.CHOScore>
0.0000

> <Gold.PLP.Chemscore.Metal>
0.0000

> <Gold.Chemscore.Hbonds>
donor molecule, donor type, donor heavy atom, donor atom, acceptor molecule, acceptor atom, score
      L1  H     3    32       P1 10186  0.98
      L1  H     5    56       P1 10957  2.00
      P1  H  7997  8008       L1    23  1.00
      P1  H 10752 10764       L1    20  1.00

> <Gold.PLP.Chemscore.Internal.Correction>
0.3686

> <Gold.Rescore>
     Score         DG    S(hbond)    S(metal)    S(lipo)     H(rot)  DE(clash)    DE(int)     intcor
     15.45     -18.33       3.81        0.00      67.36       3.02       0.01       2.88       ----

> <Gold.Chemscore.Fitness>
15.4461

> <Gold.Chemscore.DG>
-18.3343

> <Gold.Chemscore.ZeroCoef>
-5.4800

> <Gold.Chemscore.Hbond>
3.8059

> <Gold.Chemscore.Metal>
0.0000

> <Gold.Chemscore.Lipo>
67.3639

> <Gold.Chemscore.Internal_Hbond>
0.0000

> <Gold.Chemscore.DEClash>
0.0079

> <Gold.Chemscore.DEInternal>
2.8803

> <Gold.Chemscore.Rot>
3.0231

> <Gold.Chemscore.Internal.Correction>
   9.000000E+99

> <Gold.Chemscore.Hbonds>
donor molecule, donor type, donor heavy atom, donor atom, acceptor molecule, acceptor atom, score
      L1  H     3    32       P1 10186  0.93
      L1  H     5    56       P1 10957  0.67
      P1  H  7997  8008       L1    23  0.50
      P1  H 10752 10764       L1    20  0.64

> <Gold.Chemscore.Hbond.Weighted>
-12.7118

> <Gold.Chemscore.Metal.Weighted>
-0.0000

> <Gold.Chemscore.Lipo.Weighted>
-7.8816

> <Gold.Chemscore.Internal_Hbond.Weighted>
0.0000

> <Gold.Chemscore.DEClash.Weighted>
0.0079

> <Gold.Chemscore.DEInternal.Weighted>
2.8803

> <Gold.Chemscore.Rot.Weighted>
7.7391

> <Gold.Chemscore.Internal.Correction.Weighted>
   9.000000E+99

> <Gold.Protein.RotatedTorsions>
[ 6907 6896 6895 6894 ] final  -88.78 input  -60.11 | X-H torsion
[ 7974 7965 7964 7962 ] final -158.14 input  175.53 | X-H torsion
[ 8008 7997 7996 7995 ] final  -45.08 input   59.86 | X-H torsion
[ 10167 10162 10161 10158 ] final  -93.64 input  -65.29 | X-H torsion
[ 10718 10713 10712 10709 ] final  -45.07 input   66.30 | X-H torsion
[ 10763 10752 10751 10750 ] final  -72.81 input  -60.55 | X-H torsion
[ 11005 11000 10999 10996 ] final  -64.79 input  -57.11 | X-H torsion

> <Gold.Protein.ActiveResidues>
 VAL166  LYS551  ARG553  GLY616  TRP617  ASP618  TYR619  PRO620  LYS621  CYS622 
 ASP623  PHE694  ASN695  SER759  ASP760  ASP761  ALA762  ILE779  LEU786  VAL792 
 PHE793  MET794  SER795  GLU796  ALA797  LYS798  CYS799  TRP800  GLU811  SER814 

> <Gold.Protein.RotatedAtoms>
  150.6870  134.2689  159.4579 H   0  0  0  0  0  0  0  0  0  0  0  0  # atno 6907 bound_to 6896
  152.0613  134.9590  160.0584 H   0  0  0  0  0  0  0  0  0  0  0  0  # atno 6908 bound_to 6896
  152.1016  133.4218  159.4626 H   0  0  0  0  0  0  0  0  0  0  0  0  # atno 6909 bound_to 6896
  144.7518  140.3869  143.6042 H   0  0  0  0  0  0  0  0  0  0  0  0  # atno 7974 bound_to 7965
  154.3999  140.1406  156.3789 H   0  0  0  0  0  0  0  0  0  0  0  0  # atno 8008 bound_to 7997
  155.8022  140.3475  155.5389 H   0  0  0  0  0  0  0  0  0  0  0  0  # atno 8009 bound_to 7997
  155.8471  140.0936  157.1688 H   0  0  0  0  0  0  0  0  0  0  0  0  # atno 8010 bound_to 7997
  140.3225  143.3041  152.0030 H   0  0  0  0  0  0  0  0  0  0  0  0  # atno 10167 bound_to 10162
  156.2320  130.4173  149.8863 H   0  0  0  0  0  0  0  0  0  0  0  0  # atno 10718 bound_to 10713
  154.4508  135.5918  153.6190 H   0  0  0  0  0  0  0  0  0  0  0  0  # atno 10763 bound_to 10752
  152.9813  135.6020  154.3607 H   0  0  0  0  0  0  0  0  0  0  0  0  # atno 10764 bound_to 10752
  154.3468  135.2841  155.2372 H   0  0  0  0  0  0  0  0  0  0  0  0  # atno 10765 bound_to 10752
  141.1435  133.6671  156.5888 H   0  0  0  0  0  0  0  0  0  0  0  0  # atno 11005 bound_to 11000
  145.6918  139.1641  143.2642 LP  0  0  0  0  0  0  0  0  0  0  0  0  # atno 17320 bound_to 7965
  146.1478  140.6968  142.9336 LP  0  0  0  0  0  0  0  0  0  0  0  0  # atno 17321 bound_to 7965
  139.4871  144.6299  151.7090 LP  0  0  0  0  0  0  0  0  0  0  0  0  # atno 17342 bound_to 10162
  140.5470  144.0487  150.6111 LP  0  0  0  0  0  0  0  0  0  0  0  0  # atno 17343 bound_to 10162
  156.6474  130.8729  151.3525 LP  0  0  0  0  0  0  0  0  0  0  0  0  # atno 17370 bound_to 10713
  157.7137  130.9471  150.1180 LP  0  0  0  0  0  0  0  0  0  0  0  0  # atno 17371 bound_to 10713
  140.3780  134.7548  157.4642 LP  0  0  0  0  0  0  0  0  0  0  0  0  # atno 17394 bound_to 11000
  140.0660  134.5929  155.8695 LP  0  0  0  0  0  0  0  0  0  0  0  0  # atno 17395 bound_to 11000

$$$$
