#       Name:                AV-unprocessed.smi:2648
#       Creating user name   scv26
#       Creation time:       Fri Mar 27 14:30:00 2020


#       File generated by GOLD software.
#

@<TRIPOS>MOLECULE
AV-unprocessed.smi:2648
    39    40     1
SMALL
NO_CHARGES


@<TRIPOS>ATOM
      1 ****        -0.3473   1.1879   0.4697 O.2            1 S1                 0.0000
      2 ****        -0.8708   0.0772   0.5537 C.2            1 S1                 0.0000
      3 ****        -0.1724  -1.0662   0.6070 N.am           1 S1                 0.0000
      4 ****         1.2828  -1.1535   0.5766 C.3            1 S1                 0.0000
      5 ****         1.8200  -1.0920  -0.8649 C.3            1 S1                 0.0000
      6 ****         3.2846  -1.0856  -0.8859 N.am           1 S1                 0.0000
      7 ****         4.0326   0.0253  -0.8644 C.2            1 S1                 0.0000
      8 ****         3.6416   1.1917  -0.8355 O.2            1 S1                 0.0000
      9 ****         5.4907  -0.3791  -0.8728 C.3            1 S1                 0.0000
     10 ****         5.3351  -1.8178  -0.8907 N.am           1 S1                 0.0000
     11 ****         4.0492  -2.1925  -0.8942 C.2            1 S1                 0.0000
     12 ****         3.6498  -3.3560  -0.8985 O.2            1 S1                 0.0000
     13 ****        -2.1948  -0.1555   0.5811 N.am           1 S1                 0.0000
     14 ****        -3.2580   0.7885   0.5714 C.ar           1 S1                 0.0000
     15 ****        -4.5292   0.3398   0.1489 C.ar           1 S1                 0.0000
     16 ****        -5.6168   1.2369   0.1411 C.ar           1 S1                 0.0000
     17 ****        -5.4391   2.5128   0.5457 N.pl3          1 S1                 1.0000
     18 ****        -4.2474   2.9844   0.9705 C.ar           1 S1                 0.0000
     19 ****        -3.1234   2.1339   1.0002 C.ar           1 S1                 0.0000
     20 ****        -0.6790  -1.9373   0.6701 H              1 S1                 0.0000
     21 ****         1.7157  -0.3552   1.1824 H              1 S1                 0.0000
     22 ****         1.5790  -2.0919   1.0463 H              1 S1                 0.0000
     23 ****         1.4418  -1.9383  -1.4411 H              1 S1                 0.0000
     24 ****         1.4435  -0.2008  -1.3703 H              1 S1                 0.0000
     25 ****         6.0041  -0.0181  -1.7646 H              1 S1                 0.0000
     26 ****         6.0080  -0.0407   0.0255 H              1 S1                 0.0000
     27 ****         6.1174  -2.4563  -0.8925 H              1 S1                 0.0000
     28 ****        -2.4744  -1.1252   0.5558 H              1 S1                 0.0000
     29 ****        -4.6728  -0.6816  -0.1731 H              1 S1                 0.0000
     30 ****        -6.6164   0.9735  -0.1723 H              1 S1                 0.0000
     31 ****        -4.2294   4.0199   1.2781 H              1 S1                 0.0000
     32 ****        -2.1859   2.5268   1.3627 H              1 S1                 0.0000
     33 ****        -6.2394   3.1457   0.5348 H              1 S1                 0.0000
     34 ****         0.6488   1.2700   0.4378 LP             1 S1                 0.0000
     35 ****        -0.9180   2.0082   0.4333 LP             1 S1                 0.0000
     36 ****         2.6616   1.3904  -0.8257 LP             1 S1                 0.0000
     37 ****         4.3039   1.9408  -0.8219 LP             1 S1                 0.0000
     38 ****         2.6684  -3.5478  -0.8959 LP             1 S1                 0.0000
     39 ****         4.3066  -4.1101  -0.9047 LP             1 S1                 0.0000
@<TRIPOS>BOND
    1    1    2 2     
    2    2    3 am    
    3    2   13 am    
    4    3    4 1     
    5    3   20 1     
    6    4    5 1     
    7    4   21 1     
    8    4   22 1     
    9    5    6 1     
   10    5   23 1     
   11    5   24 1     
   12    6   11 am    
   13    6    7 am    
   14    7    8 2     
   15    7    9 1     
   16    9   10 1     
   17    9   25 1     
   18    9   26 1     
   19   10   11 am    
   20   10   27 1     
   21   11   12 2     
   22   13   14 1     
   23   13   28 1     
   24   14   19 ar    
   25   14   15 ar    
   26   15   16 ar    
   27   15   29 1     
   28   16   17 ar    
   29   16   30 1     
   30   17   18 ar    
   31   17   33 1     
   32   18   19 ar    
   33   18   31 1     
   34   19   32 1     
   35    1   34 1     
   36    1   35 1     
   37    8   36 1     
   38    8   37 1     
   39   12   38 1     
   40   12   39 1     
@<TRIPOS>SUBSTRUCTURE
      1 S1             1
@<TRIPOS>SET
LONE_PAIRS      STATIC     ATOMS    <user>   **** ""
6 34 35 36 37 38 39
DONOR_HYDROGENS      STATIC     ATOMS    <user>   **** ""
4 20 27 28 33
ATOM$BLUE        STATIC     ATOMS    COLORGROUP SYSTEM
6 34 35 36 37 38 39
ATOM$RED        STATIC     ATOMS    COLORGROUP SYSTEM
4 20 27 28 33
