#       Name:                AV-unprocessed.smi:2712
#       Creating user name   scv26
#       Creation time:       Fri Mar 27 14:51:41 2020


#       File generated by GOLD software.
#

@<TRIPOS>MOLECULE
AV-unprocessed.smi:2712
    57    58     1
SMALL
NO_CHARGES


@<TRIPOS>ATOM
      1 ****        -4.7518   4.6129   0.7086 C.3            1 S1                 0.0000
      2 ****        -4.2349   3.8765   1.9088 C.2            1 S1                 0.0000
      3 ****        -4.3290   4.4017   3.2575 C.2            1 S1                 0.0000
      4 ****        -3.8374   3.6773   4.2855 C.2            1 S1                 0.0000
      5 ****        -3.2101   2.3740   4.0764 C.2            1 S1                 0.0000
      6 ****        -2.7511   1.6909   4.9918 O.2            1 S1                 0.0000
      7 ****        -3.1761   1.9844   2.7672 N.am           1 S1                 0.0000
      8 ****        -2.5614   0.7113   2.3637 C.3            1 S1                 0.0000
      9 ****        -1.0429   0.8011   2.1484 C.2            1 S1                 0.0000
     10 ****        -0.4198   1.8291   2.4190 O.2            1 S1                 0.0000
     11 ****        -0.4589  -0.2986   1.6473 N.am           1 S1                 0.0000
     12 ****         0.9656  -0.4463   1.3541 C.3            1 S1                 0.0000
     13 ****         1.3362  -1.9392   1.4278 C.3            1 S1                 0.0000
     14 ****         2.6839  -2.2955   0.7827 C.3            1 S1                 0.0000
     15 ****         2.5674  -2.6352  -0.7158 C.3            1 S1                 0.0000
     16 ****         2.3257  -1.4400  -1.6804 C.3            1 S1                 0.0000
     17 ****         2.2806  -1.8635  -3.1959 C.3            1 S1                 0.0000
     18 ****         1.0002  -2.6581  -3.5339 C.3            1 S1                 0.0000
     19 ****         3.5039  -2.7332  -3.5684 C.3            1 S1                 0.0000
     20 ****         2.3436  -0.6191  -4.1138 C.3            1 S1                 0.0000
     21 ****         1.0964  -0.5910  -1.2460 C.3            1 S1                 0.0000
     22 ****         1.3374   0.2451   0.0235 C.3            1 S1                 0.0000
     23 ****        -3.6830   2.7244   1.7114 N.2            1 S1                 0.0000
     24 ****        -5.2557   5.5353   0.9977 H              1 S1                 0.0000
     25 ****        -5.4657   4.0025   0.1547 H              1 S1                 0.0000
     26 ****        -3.9356   4.8748   0.0344 H              1 S1                 0.0000
     27 ****        -4.7880   5.3642   3.4288 H              1 S1                 0.0000
     28 ****        -3.9066   4.0704   5.2892 H              1 S1                 0.0000
     29 ****        -2.7675  -0.0645   3.1031 H              1 S1                 0.0000
     30 ****        -3.0204   0.3590   1.4378 H              1 S1                 0.0000
     31 ****        -1.0456  -1.0976   1.4553 H              1 S1                 0.0000
     32 ****         1.5224   0.0626   2.1433 H              1 S1                 0.0000
     33 ****         1.3604  -2.2282   2.4794 H              1 S1                 0.0000
     34 ****         0.5518  -2.5517   0.9803 H              1 S1                 0.0000
     35 ****         3.4252  -1.5146   0.9556 H              1 S1                 0.0000
     36 ****         3.0690  -3.1816   1.2887 H              1 S1                 0.0000
     37 ****         3.5042  -3.1238  -0.9788 H              1 S1                 0.0000
     38 ****         1.7929  -3.3901  -0.8482 H              1 S1                 0.0000
     39 ****         3.2021  -0.7975  -1.5832 H              1 S1                 0.0000
     40 ****         0.9886  -2.9530  -4.5838 H              1 S1                 0.0000
     41 ****         0.0982  -2.0716  -3.3598 H              1 S1                 0.0000
     42 ****         0.9194  -3.5718  -2.9458 H              1 S1                 0.0000
     43 ****         3.4666  -3.7187  -3.1045 H              1 S1                 0.0000
     44 ****         4.4382  -2.2555  -3.2714 H              1 S1                 0.0000
     45 ****         3.5569  -2.9076  -4.6438 H              1 S1                 0.0000
     46 ****         2.4565  -0.9046  -5.1603 H              1 S1                 0.0000
     47 ****         3.1902   0.0206  -3.8617 H              1 S1                 0.0000
     48 ****         1.4416  -0.0112  -4.0673 H              1 S1                 0.0000
     49 ****         0.8453   0.1237  -2.0252 H              1 S1                 0.0000
     50 ****         0.2082  -1.2133  -1.1327 H              1 S1                 0.0000
     51 ****         0.7822   1.1803  -0.0604 H              1 S1                 0.0000
     52 ****         2.3817   0.5565   0.0584 H              1 S1                 0.0000
     53 ****        -2.7974   2.0218   5.9343 LP             1 S1                 0.0000
     54 ****        -2.3319   0.8050   4.7929 LP             1 S1                 0.0000
     55 ****        -0.9025   2.6244   2.7858 LP             1 S1                 0.0000
     56 ****         0.5685   1.8680   2.2718 LP             1 S1                 0.0000
     57 ****        -3.6210   2.3614   0.7817 LP             1 S1                 0.0000
@<TRIPOS>BOND
    1    1    2 1     
    2    1   24 1     
    3    1   25 1     
    4    1   26 1     
    5    2   23 2     
    6    2    3 1     
    7    3    4 2     
    8    3   27 1     
    9    4    5 1     
   10    4   28 1     
   11    5    6 2     
   12    5    7 am    
   13    7    8 1     
   14    7   23 1     
   15    8    9 1     
   16    8   29 1     
   17    8   30 1     
   18    9   10 2     
   19    9   11 am    
   20   11   12 1     
   21   11   31 1     
   22   12   22 1     
   23   12   13 1     
   24   12   32 1     
   25   13   14 1     
   26   13   33 1     
   27   13   34 1     
   28   14   15 1     
   29   14   35 1     
   30   14   36 1     
   31   15   16 1     
   32   15   37 1     
   33   15   38 1     
   34   16   17 1     
   35   16   21 1     
   36   16   39 1     
   37   17   18 1     
   38   17   19 1     
   39   17   20 1     
   40   18   40 1     
   41   18   41 1     
   42   18   42 1     
   43   19   43 1     
   44   19   44 1     
   45   19   45 1     
   46   20   46 1     
   47   20   47 1     
   48   20   48 1     
   49   21   22 1     
   50   21   49 1     
   51   21   50 1     
   52   22   51 1     
   53   22   52 1     
   54    6   53 1     
   55    6   54 1     
   56   10   55 1     
   57   10   56 1     
   58   23   57 1     
@<TRIPOS>SUBSTRUCTURE
      1 S1             1
@<TRIPOS>SET
LONE_PAIRS      STATIC     ATOMS    <user>   **** ""
5 53 54 55 56 57
DONOR_HYDROGENS      STATIC     ATOMS    <user>   **** ""
1 31
ATOM$BLUE        STATIC     ATOMS    COLORGROUP SYSTEM
5 53 54 55 56 57
ATOM$RED        STATIC     ATOMS    COLORGROUP SYSTEM
1 31
