AV-unprocessed.smi:1936|AV-procd|sdf|7830|dock2
  -GOLD-   22720 9573D 1   1.00000     0.00000
 Structure written by MMmdl.
 38 39  0  0  0  0  0  0  0  0  1 V2000
  147.7305  141.9423  154.5981 C   0  0  0  0  0  0  0  0  0  0  0  0
  148.8501  141.2531  155.3954 C   0  0  1  0  0  0  0  0  0  0  0  0
  149.7205  140.3580  154.4862 C   0  0  0  0  0  0  0  0  0  0  0  0
  150.4569  139.2953  155.1722 N   0  0  0  0  0  0  0  0  0  0  0  0
  151.9062  139.4458  155.0573 C   0  0  0  0  0  0  0  0  0  0  0  0
  152.6619  138.3012  155.7546 C   0  0  0  0  0  0  0  0  0  0  0  0
  152.2355  137.0511  155.2232 O   0  0  0  0  0  0  0  0  0  0  0  0
  150.8339  136.8458  155.3662 C   0  0  0  0  0  0  0  0  0  0  0  0
  150.0743  137.9829  154.6616 C   0  0  0  0  0  0  0  0  0  0  0  0
  149.6837  142.2738  156.0273 N   0  0  0  0  0  0  0  0  0  0  0  0
  150.5803  142.0549  157.0013 C   0  0  0  0  0  0  0  0  0  0  0  0
  150.7891  140.9418  157.4869 O   0  0  0  0  0  0  0  0  0  0  0  0
  151.3473  143.2920  157.4848 C   0  0  0  0  0  0  0  0  0  0  0  0
  151.9823  143.0974  158.7785 N   0  0  0  0  0  0  0  0  0  0  0  0
  151.9217  143.9074  159.8936 C   0  0  0  0  0  0  0  0  0  0  0  0
  152.6735  143.3155  160.8677 C   0  0  0  0  0  0  0  0  0  0  0  0
  153.1609  142.1320  160.2461 C   0  0  0  0  0  0  0  0  0  0  0  0
  152.7479  142.0052  158.9952 N   0  0  0  0  0  0  0  0  0  0  0  0
  147.0752  141.2088  154.1274 H   0  0  0  0  0  0  0  0  0  0  0  0
  148.1367  142.5794  153.8117 H   0  0  0  0  0  0  0  0  0  0  0  0
  147.1099  142.5643  155.2441 H   0  0  0  0  0  0  0  0  0  0  0  0
  148.3786  140.6277  156.1565 H   0  0  0  0  0  0  0  0  0  0  0  0
  149.0568  139.8811  153.7638 H   0  0  0  0  0  0  0  0  0  0  0  0
  150.4011  140.9676  153.8894 H   0  0  0  0  0  0  0  0  0  0  0  0
  152.1925  139.4798  154.0050 H   0  0  0  0  0  0  0  0  0  0  0  0
  152.2238  140.3894  155.5000 H   0  0  0  0  0  0  0  0  0  0  0  0
  153.7359  138.4071  155.6002 H   0  0  0  0  0  0  0  0  0  0  0  0
  152.4891  138.3243  156.8318 H   0  0  0  0  0  0  0  0  0  0  0  0
  150.5680  135.8834  154.9290 H   0  0  0  0  0  0  0  0  0  0  0  0
  150.5707  136.8017  156.4243 H   0  0  0  0  0  0  0  0  0  0  0  0
  149.0019  137.8328  154.7918 H   0  0  0  0  0  0  0  0  0  0  0  0
  150.2680  137.9327  153.5890 H   0  0  0  0  0  0  0  0  0  0  0  0
  149.5768  143.2190  155.6884 H   0  0  0  0  0  0  0  0  0  0  0  0
  152.1065  143.5588  156.7476 H   0  0  0  0  0  0  0  0  0  0  0  0
  150.6623  144.1374  157.5617 H   0  0  0  0  0  0  0  0  0  0  0  0
  151.3527  144.8255  159.9009 H   0  0  0  0  0  0  0  0  0  0  0  0
  152.8476  143.6725  161.8719 H   0  0  0  0  0  0  0  0  0  0  0  0
  153.7986  141.3668  160.6636 H   0  0  0  0  0  0  0  0  0  0  0  0
  1  2  1  0  0  0  0
  1 19  1  0  0  0  0
  1 20  1  0  0  0  0
  1 21  1  0  0  0  0
  2  3  1  0  0  0  0
  2 10  1  0  0  0  0
  2 22  1  0  0  0  0
  3  4  1  0  0  0  0
  3 23  1  0  0  0  0
  3 24  1  0  0  0  0
  4  9  1  0  0  0  0
  4  5  1  0  0  0  0
  5  6  1  0  0  0  0
  5 25  1  0  0  0  0
  5 26  1  0  0  0  0
  6  7  1  0  0  0  0
  6 27  1  0  0  0  0
  6 28  1  0  0  0  0
  7  8  1  0  0  0  0
  8  9  1  0  0  0  0
  8 29  1  0  0  0  0
  8 30  1  0  0  0  0
  9 31  1  0  0  0  0
  9 32  1  0  0  0  0
 10 11  1  0  0  0  0
 10 33  1  0  0  0  0
 11 12  2  0  0  0  0
 11 13  1  0  0  0  0
 13 14  1  0  0  0  0
 13 34  1  0  0  0  0
 13 35  1  0  0  0  0
 14 18  1  0  0  0  0
 14 15  1  0  0  0  0
 15 16  2  0  0  0  0
 15 36  1  0  0  0  0
 16 17  1  0  0  0  0
 16 37  1  0  0  0  0
 17 18  2  0  0  0  0
 17 38  1  0  0  0  0
M  END
> <s_m_source_file>
AV-unprocessed.smi

> <i_m_source_file_index>
1936

> <i_lp_mmshare_version>
43012

> <i_f3d_flags>
0

> <s_epik_input>
W0NIMl0xW0NIMl1PW0NIMl1bQ0gyXU4xW0NIMl1bQ0BASF0oW0NIM10pW05IXUMoPU8pW0NIMl1uMltjSF1bY0hdW2NIXW4y

> <s_epik_cmdline>
J2VwaWtfcHl0aG9uJywgJy1waCcsICc3LjAnLCAnLXRuJywgJzgnLCAnLW1hJywgJzIwMCcsICctbWV0YWxfYmluZGluZycsICctaW1hZScsICc8aW5maWxlLm1hZT4nLCAnLW9tYWUnLCAnPG91dGZpbGUubWFlPic=

> <r_lp_tautomer_probability>
1

> <r_epik_Ionization_Penalty>
0.196927

> <r_epik_Ionization_Penalty_Charging>
0

> <r_epik_Ionization_Penalty_Neutral>
0.196927

> <r_epik_State_Penalty>
0.186684

> <r_epik_Charging_Adjusted_Penalty>
0.186684

> <i_epik_Tot_Q>
0

> <i_epik_Tot_abs_Q>
0

> <r_epik_Metal_State_Penalty>
0.186682

> <b_epik_Metal_Only>
0

> <s_lp_Force_Field>
OPLS_2005

> <r_lp_Energy>
27.4163

> <b_lp_Chiralities_Consistent>
1

> <s_lp_Variant>
AV-unprocessed.smi:1936-2

> <Gold.Version>
5.8.1

> <Gold.Id.Protein>
6NUR|6NUR_protein|mol2

> <Gold.PLP.Fitness>
41.3889

> <Gold.PLP.PLP>
-38.3137

> <Gold.PLP.part.hbond>
-2.0000

> <Gold.PLP.part.metal>
0.0000

> <Gold.PLP.part.buried>
-2.6416

> <Gold.PLP.part.nonpolar>
-33.8036

> <Gold.PLP.part.repulsive>
0.2692

> <Gold.PLP.ligand.clash>
0.0000

> <Gold.PLP.ligand.torsion>
1.4513

> <Gold.PLP.Chemscore.Hbond>
1.9520

> <Gold.PLP.Chemscore.CHOScore>
0.0000

> <Gold.PLP.Chemscore.Metal>
0.0000

> <Gold.Chemscore.Hbonds>
donor molecule, donor type, donor heavy atom, donor atom, acceptor molecule, acceptor atom, score
      L1  H    10    33       P1  8028  1.00
      P1  H 10752 10765       L1     7  0.85

> <Gold.PLP.Chemscore.Internal.Correction>
0.1218

> <Gold.Rescore>
     Score         DG    S(hbond)    S(metal)    S(lipo)     H(rot)  DE(clash)    DE(int)     intcor
     14.42     -17.13       1.77        0.00      89.74       1.85       0.07       2.64       ----

> <Gold.Chemscore.Fitness>
14.4233

> <Gold.Chemscore.DG>
-17.1291

> <Gold.Chemscore.ZeroCoef>
-5.4800

> <Gold.Chemscore.Hbond>
1.7660

> <Gold.Chemscore.Metal>
0.0000

> <Gold.Chemscore.Lipo>
89.7374

> <Gold.Chemscore.Internal_Hbond>
0.0000

> <Gold.Chemscore.DEClash>
0.0674

> <Gold.Chemscore.DEInternal>
2.6384

> <Gold.Chemscore.Rot>
1.8549

> <Gold.Chemscore.Internal.Correction>
   9.000000E+99

> <Gold.Chemscore.Hbonds>
donor molecule, donor type, donor heavy atom, donor atom, acceptor molecule, acceptor atom, score
      L1  H    10    33       P1  8028  0.98
      P1  H 10752 10765       L1     7  0.63

> <Gold.Chemscore.Hbond.Weighted>
-5.8984

> <Gold.Chemscore.Metal.Weighted>
-0.0000

> <Gold.Chemscore.Lipo.Weighted>
-10.4993

> <Gold.Chemscore.Internal_Hbond.Weighted>
0.0000

> <Gold.Chemscore.DEClash.Weighted>
0.0674

> <Gold.Chemscore.DEInternal.Weighted>
2.6384

> <Gold.Chemscore.Rot.Weighted>
4.7485

> <Gold.Chemscore.Internal.Correction.Weighted>
   9.000000E+99

> <Gold.Protein.RotatedTorsions>
[ 6907 6896 6895 6894 ] final -151.73 input  -60.11 | X-H torsion
[ 7974 7965 7964 7962 ] final -174.92 input  175.53 | X-H torsion
[ 8008 7997 7996 7995 ] final -126.82 input   59.86 | X-H torsion
[ 10167 10162 10161 10158 ] final  -87.33 input  -65.29 | X-H torsion
[ 10718 10713 10712 10709 ] final  148.80 input   66.30 | X-H torsion
[ 10763 10752 10751 10750 ] final -172.78 input  -60.55 | X-H torsion
[ 11005 11000 10999 10996 ] final  -41.39 input  -57.11 | X-H torsion

> <Gold.Protein.ActiveResidues>
 VAL166  LYS551  ARG553  GLY616  TRP617  ASP618  TYR619  PRO620  LYS621  CYS622 
 ASP623  PHE694  ASN695  SER759  ASP760  ASP761  ALA762  ILE779  LEU786  VAL792 
 PHE793  MET794  SER795  GLU796  ALA797  LYS798  CYS799  TRP800  GLU811  SER814 

> <Gold.Protein.RotatedAtoms>
  151.2174  133.4521  159.2599 H   0  0  0  0  0  0  0  0  0  0  0  0  # atno 6907 bound_to 6896
  151.0918  134.9920  159.8416 H   0  0  0  0  0  0  0  0  0  0  0  0  # atno 6908 bound_to 6896
  152.5435  134.2107  159.8801 H   0  0  0  0  0  0  0  0  0  0  0  0  # atno 6909 bound_to 6896
  144.7130  140.1398  143.6392 H   0  0  0  0  0  0  0  0  0  0  0  0  # atno 7974 bound_to 7965
  155.2361  140.0427  157.2969 H   0  0  0  0  0  0  0  0  0  0  0  0  # atno 8008 bound_to 7997
  154.5858  140.2413  155.7960 H   0  0  0  0  0  0  0  0  0  0  0  0  # atno 8009 bound_to 7997
  156.2225  140.2965  155.9995 H   0  0  0  0  0  0  0  0  0  0  0  0  # atno 8010 bound_to 7997
  140.3855  143.2729  151.9330 H   0  0  0  0  0  0  0  0  0  0  0  0  # atno 10167 bound_to 10162
  157.3041  131.0876  151.1368 H   0  0  0  0  0  0  0  0  0  0  0  0  # atno 10718 bound_to 10713
  154.6154  135.2869  155.0386 H   0  0  0  0  0  0  0  0  0  0  0  0  # atno 10763 bound_to 10752
  154.1600  135.6489  153.4987 H   0  0  0  0  0  0  0  0  0  0  0  0  # atno 10764 bound_to 10752
  153.0213  135.5376  154.6923 H   0  0  0  0  0  0  0  0  0  0  0  0  # atno 10765 bound_to 10752
  141.0243  133.6848  156.2451 H   0  0  0  0  0  0  0  0  0  0  0  0  # atno 11005 bound_to 11000
  145.9212  139.2547  143.1380 LP  0  0  0  0  0  0  0  0  0  0  0  0  # atno 17320 bound_to 7965
  145.9618  140.8829  143.0207 LP  0  0  0  0  0  0  0  0  0  0  0  0  # atno 17321 bound_to 7965
  139.4792  144.5778  151.7983 LP  0  0  0  0  0  0  0  0  0  0  0  0  # atno 17342 bound_to 10162
  140.4894  144.1333  150.5947 LP  0  0  0  0  0  0  0  0  0  0  0  0  # atno 17343 bound_to 10162
  157.2715  130.6707  149.6022 LP  0  0  0  0  0  0  0  0  0  0  0  0  # atno 17370 bound_to 10713
  155.9673  130.4477  150.5592 LP  0  0  0  0  0  0  0  0  0  0  0  0  # atno 17371 bound_to 10713
  140.6519  134.5058  157.5578 LP  0  0  0  0  0  0  0  0  0  0  0  0  # atno 17394 bound_to 11000
  139.9165  134.8235  156.1348 LP  0  0  0  0  0  0  0  0  0  0  0  0  # atno 17395 bound_to 11000

$$$$
