AV-unprocessed.smi:37|AV-procd|sdf|307|dock1
  -GOLD-   2262016113D 1   1.00000     0.00000
 Structure written by MMmdl.
 44 45  0  0  0  0  0  0  0  0  1 V2000
  154.4414  140.4478  161.3487 C   0  0  0  0  0  0  0  0  0  0  0  0
  153.8663  139.0897  160.9191 C   0  0  0  0  0  0  0  0  0  0  0  0
  153.2402  139.1041  159.5228 C   0  0  0  0  0  0  0  0  0  0  0  0
  153.6512  139.8377  158.6218 O   0  0  0  0  0  0  0  0  0  0  0  0
  152.2192  138.2390  159.4211 O   0  0  0  0  0  0  0  0  0  0  0  0
  151.5718  138.0642  158.1717 C   0  0  0  0  0  0  0  0  0  0  0  0
  150.7548  136.7670  158.1945 C   0  0  2  0  0  0  0  0  0  0  0  0
  150.6472  136.2359  156.8727 O   0  0  0  0  0  0  0  0  0  0  0  0
  149.3536  135.7640  156.6399 C   0  0  1  0  0  0  0  0  0  0  0  0
  149.4376  134.3672  156.0641 N   0  0  0  0  0  0  0  0  0  0  0  0
  148.9905  134.1232  154.7728 C   0  0  0  0  0  0  0  0  0  0  0  0
  149.0598  132.9058  154.1837 C   0  0  0  0  0  0  0  0  0  0  0  0
  148.5984  132.7471  152.9316 F   0  0  0  0  0  0  0  0  0  0  0  0
  149.6333  131.7668  154.8941 C   0  0  0  0  0  0  0  0  0  0  0  0
  149.7330  130.6254  154.4486 O   0  0  0  0  0  0  0  0  0  0  0  0
  150.0933  132.0627  156.1806 N   0  0  0  0  0  0  0  0  0  0  0  0
  150.0323  133.3137  156.7975 C   0  0  0  0  0  0  0  0  0  0  0  0
  150.4903  133.4580  157.9298 O   0  0  0  0  0  0  0  0  0  0  0  0
  148.5949  135.8276  157.9676 C   0  0  2  0  0  0  0  0  0  0  0  0
  146.6650  136.2303  157.6934 Br  0  0  0  0  0  0  0  0  0  0  0  0
  149.3083  136.9666  158.6616 C   0  0  1  0  0  0  0  0  0  0  0  0
  149.1643  136.8240  160.0686 O   0  0  0  0  0  0  0  0  0  0  0  0
  147.9427  136.7800  160.6296 C   0  0  0  0  0  0  0  0  0  0  0  0
  146.9076  137.2408  160.1479 O   0  0  0  0  0  0  0  0  0  0  0  0
  147.9456  136.0832  161.9881 C   0  0  0  0  0  0  0  0  0  0  0  0
  147.0318  134.8504  162.0082 C   0  0  0  0  0  0  0  0  0  0  0  0
  150.5104  131.3078  156.7058 H   0  0  0  0  0  0  0  0  0  0  0  0
  154.8648  140.3854  162.3512 H   0  0  0  0  0  0  0  0  0  0  0  0
  153.6706  141.2194  161.3646 H   0  0  0  0  0  0  0  0  0  0  0  0
  155.2348  140.7751  160.6758 H   0  0  0  0  0  0  0  0  0  0  0  0
  154.6534  138.3356  160.9377 H   0  0  0  0  0  0  0  0  0  0  0  0
  153.1078  138.7708  161.6343 H   0  0  0  0  0  0  0  0  0  0  0  0
  150.9103  138.9142  158.0011 H   0  0  0  0  0  0  0  0  0  0  0  0
  152.2995  138.0463  157.3591 H   0  0  0  0  0  0  0  0  0  0  0  0
  151.2389  136.0197  158.8255 H   0  0  0  0  0  0  0  0  0  0  0  0
  148.9041  136.3988  155.8750 H   0  0  0  0  0  0  0  0  0  0  0  0
  148.5578  134.9321  154.2014 H   0  0  0  0  0  0  0  0  0  0  0  0
  148.6823  134.8986  158.5299 H   0  0  0  0  0  0  0  0  0  0  0  0
  148.9178  137.9143  158.2868 H   0  0  0  0  0  0  0  0  0  0  0  0
  148.9677  135.7954  162.2350 H   0  0  0  0  0  0  0  0  0  0  0  0
  147.6240  136.7942  162.7495 H   0  0  0  0  0  0  0  0  0  0  0  0
  147.0214  134.3970  162.9993 H   0  0  0  0  0  0  0  0  0  0  0  0
  147.3686  134.0904  161.3024 H   0  0  0  0  0  0  0  0  0  0  0  0
  146.0043  135.1140  161.7544 H   0  0  0  0  0  0  0  0  0  0  0  0
  1  2  1  0  0  0  0
  1 28  1  0  0  0  0
  1 29  1  0  0  0  0
  1 30  1  0  0  0  0
  2  3  1  0  0  0  0
  2 31  1  0  0  0  0
  2 32  1  0  0  0  0
  3  4  2  0  0  0  0
  3  5  1  0  0  0  0
  5  6  1  0  0  0  0
  6  7  1  0  0  0  0
  6 33  1  0  0  0  0
  6 34  1  0  0  0  0
  7 21  1  0  0  0  0
  7  8  1  0  0  0  0
  7 35  1  0  0  0  0
  8  9  1  0  0  0  0
  9 10  1  0  0  0  0
  9 19  1  0  0  0  0
  9 36  1  0  0  0  0
 10 17  1  0  0  0  0
 10 11  1  0  0  0  0
 11 12  2  0  0  0  0
 11 37  1  0  0  0  0
 12 13  1  0  0  0  0
 12 14  1  0  0  0  0
 14 15  2  0  0  0  0
 14 16  1  0  0  0  0
 16 27  1  0  0  0  0
 16 17  1  0  0  0  0
 17 18  2  0  0  0  0
 19 20  1  0  0  0  0
 19 21  1  0  0  0  0
 19 38  1  0  0  0  0
 21 22  1  0  0  0  0
 21 39  1  0  0  0  0
 22 23  1  0  0  0  0
 23 24  2  0  0  0  0
 23 25  1  0  0  0  0
 25 26  1  0  0  0  0
 25 40  1  0  0  0  0
 25 41  1  0  0  0  0
 26 42  1  0  0  0  0
 26 43  1  0  0  0  0
 26 44  1  0  0  0  0
M  END
> <s_m_source_file>
AV-unprocessed.smi

> <i_m_source_file_index>
37

> <i_lp_mmshare_version>
43012

> <i_f3d_flags>
0

> <s_epik_input>
W0NIM11bQ0gyXUMoPU8pT1tDSDJdW0NAQEhdMU9bQ0BASF0objJbY0hdYyhGKWMoPU8pW25IXWMyPU8pW0NAQEhdKEJyKVtDQEhdMU9DKD1PKVtDSDJdW0NIM10=

> <s_epik_cmdline>
J2VwaWtfcHl0aG9uJywgJy1waCcsICc3LjAnLCAnLXRuJywgJzgnLCAnLW1hJywgJzIwMCcsICctbWV0YWxfYmluZGluZycsICctaW1hZScsICc8aW5maWxlLm1hZT4nLCAnLW9tYWUnLCAnPG91dGZpbGUubWFlPic=

> <r_lp_tautomer_probability>
0.999537

> <r_epik_Ionization_Penalty>
0.104106

> <r_epik_Ionization_Penalty_Charging>
0.104106

> <r_epik_Ionization_Penalty_Neutral>
3.94675e-16

> <r_epik_State_Penalty>
0.0940182

> <r_epik_Charging_Adjusted_Penalty>
0.198124

> <i_epik_Tot_Q>
0

> <i_epik_Tot_abs_Q>
0

> <r_epik_Metal_State_Penalty>
3.05314

> <b_epik_Metal_Only>
0

> <s_epik_Chemistry_Notes>
This compound has an ester and may undergo hydrolysis at high or low pH. This compound contains an acetal/aminal-like group ( X-CH(R)-Y where X, Y are N, S, or O) that may be acid/base labile, releasing an aldehyde.

> <s_lp_Force_Field>
OPLS_2005

> <r_lp_Energy>
20.0289

> <b_lp_Chiralities_Consistent>
1

> <s_lp_Variant>
AV-unprocessed.smi:37-5

> <Gold.Version>
5.8.1

> <Gold.Id.Protein>
6NUR|6NUR_protein|mol2

> <Gold.PLP.Fitness>
43.9385

> <Gold.PLP.PLP>
-33.9206

> <Gold.PLP.part.hbond>
-3.5433

> <Gold.PLP.part.metal>
0.0000

> <Gold.PLP.part.buried>
-4.0839

> <Gold.PLP.part.nonpolar>
-27.2299

> <Gold.PLP.part.repulsive>
0.0920

> <Gold.PLP.ligand.clash>
0.0000

> <Gold.PLP.ligand.torsion>
1.2009

> <Gold.PLP.Chemscore.Hbond>
3.0000

> <Gold.PLP.Chemscore.CHOScore>
1.0000

> <Gold.PLP.Chemscore.Metal>
0.0000

> <Gold.Chemscore.Hbonds>
donor molecule, donor type, donor heavy atom, donor atom, acceptor molecule, acceptor atom, score
      P1  H  6896  6908       L1    18  0.60
      P1  H  6934  6947       L1    24  0.70
      P1  H  7997  8009       L1     4  1.00
      L1  C    11    37       P1  7948  0.62

> <Gold.PLP.Chemscore.Internal.Correction>
0.4196

> <Gold.Rescore>
     Score         DG    S(hbond)    S(metal)    S(lipo)     H(rot)  DE(clash)    DE(int)     intcor
      9.29     -13.19       2.89        0.00      56.24       3.33       0.16       3.74       ----

> <Gold.Chemscore.Fitness>
9.2884

> <Gold.Chemscore.DG>
-13.1932

> <Gold.Chemscore.ZeroCoef>
-5.4800

> <Gold.Chemscore.Hbond>
2.8917

> <Gold.Chemscore.Metal>
0.0000

> <Gold.Chemscore.Lipo>
56.2430

> <Gold.Chemscore.Internal_Hbond>
0.0000

> <Gold.Chemscore.DEClash>
0.1600

> <Gold.Chemscore.DEInternal>
3.7449

> <Gold.Chemscore.Rot>
3.3303

> <Gold.Chemscore.Internal.Correction>
   9.000000E+99

> <Gold.Chemscore.Hbonds>
donor molecule, donor type, donor heavy atom, donor atom, acceptor molecule, acceptor atom, score
      P1  H  6896  6908       L1    18  0.58
      P1  H  6934  6947       L1    24  0.07
      P1  H  7997  8009       L1     4  0.99

> <Gold.Chemscore.Hbond.Weighted>
-9.6584

> <Gold.Chemscore.Metal.Weighted>
-0.0000

> <Gold.Chemscore.Lipo.Weighted>
-6.5804

> <Gold.Chemscore.Internal_Hbond.Weighted>
0.0000

> <Gold.Chemscore.DEClash.Weighted>
0.1600

> <Gold.Chemscore.DEInternal.Weighted>
3.7449

> <Gold.Chemscore.Rot.Weighted>
8.5256

> <Gold.Chemscore.Internal.Correction.Weighted>
   9.000000E+99

> <Gold.Protein.RotatedTorsions>
[ 6907 6896 6895 6894 ] final  106.39 input  -60.11 | X-H torsion
[ 7974 7965 7964 7962 ] final   48.21 input  175.53 | X-H torsion
[ 8008 7997 7996 7995 ] final  145.32 input   59.86 | X-H torsion
[ 10167 10162 10161 10158 ] final   59.11 input  -65.29 | X-H torsion
[ 10718 10713 10712 10709 ] final -169.34 input   66.30 | X-H torsion
[ 10763 10752 10751 10750 ] final  -45.37 input  -60.55 | X-H torsion
[ 11005 11000 10999 10996 ] final -169.00 input  -57.11 | X-H torsion

> <Gold.Protein.ActiveResidues>
 VAL166  LYS551  ARG553  GLY616  TRP617  ASP618  TYR619  PRO620  LYS621  CYS622 
 ASP623  PHE694  ASN695  SER759  ASP760  ASP761  ALA762  ILE779  LEU786  VAL792 
 PHE793  MET794  SER795  GLU796  ALA797  LYS798  CYS799  TRP800  GLU811  SER814 

> <Gold.Protein.RotatedAtoms>
  152.5195  133.9389  159.7616 H   0  0  0  0  0  0  0  0  0  0  0  0  # atno 6907 bound_to 6896
  150.9723  133.6323  159.2743 H   0  0  0  0  0  0  0  0  0  0  0  0  # atno 6908 bound_to 6896
  151.3530  135.0894  159.9462 H   0  0  0  0  0  0  0  0  0  0  0  0  # atno 6909 bound_to 6896
  146.0226  139.4669  142.9888 H   0  0  0  0  0  0  0  0  0  0  0  0  # atno 7974 bound_to 7965
  156.2886  140.2212  156.5196 H   0  0  0  0  0  0  0  0  0  0  0  0  # atno 8008 bound_to 7997
  154.7540  140.0478  157.0939 H   0  0  0  0  0  0  0  0  0  0  0  0  # atno 8009 bound_to 7997
  155.0074  140.3109  155.4846 H   0  0  0  0  0  0  0  0  0  0  0  0  # atno 8010 bound_to 7997
  140.1799  144.4192  150.6620 H   0  0  0  0  0  0  0  0  0  0  0  0  # atno 10167 bound_to 10162
  156.7102  130.9230  151.3088 H   0  0  0  0  0  0  0  0  0  0  0  0  # atno 10718 bound_to 10713
  154.0275  135.6661  153.4778 H   0  0  0  0  0  0  0  0  0  0  0  0  # atno 10763 bound_to 10752
  153.0554  135.5059  154.7964 H   0  0  0  0  0  0  0  0  0  0  0  0  # atno 10764 bound_to 10752
  154.6899  135.3059  154.9459 H   0  0  0  0  0  0  0  0  0  0  0  0  # atno 10765 bound_to 10752
  140.5356  134.5573  157.5086 H   0  0  0  0  0  0  0  0  0  0  0  0  # atno 11005 bound_to 11000
  145.7169  141.0088  143.1423 LP  0  0  0  0  0  0  0  0  0  0  0  0  # atno 17320 bound_to 7965
  144.6996  139.8824  143.7448 LP  0  0  0  0  0  0  0  0  0  0  0  0  # atno 17321 bound_to 7965
  140.6526  143.2229  151.6042 LP  0  0  0  0  0  0  0  0  0  0  0  0  # atno 17342 bound_to 10162
  139.5301  144.2943  152.1126 LP  0  0  0  0  0  0  0  0  0  0  0  0  # atno 17343 bound_to 10162
  157.6939  130.9262  150.0590 LP  0  0  0  0  0  0  0  0  0  0  0  0  # atno 17370 bound_to 10713
  156.1666  130.3645  149.9223 LP  0  0  0  0  0  0  0  0  0  0  0  0  # atno 17371 bound_to 10713
  139.9531  134.7582  156.0403 LP  0  0  0  0  0  0  0  0  0  0  0  0  # atno 17394 bound_to 11000
  141.1256  133.6600  156.3329 LP  0  0  0  0  0  0  0  0  0  0  0  0  # atno 17395 bound_to 11000

$$$$
