AV-unprocessed.smi:634|AV-procd|sdf|3136|dock4
  -GOLD-   22720 0 63D 1   1.00000     0.00000
 Structure written by MMmdl.
 32 33  0  0  0  0  0  0  0  0  2 V2000
  144.7086  134.6325  162.7532 C   0  0  0  0  0  0  0  0  0  0  0  0
  145.7591  135.4910  162.1358 C   0  0  0  0  0  0  0  0  0  0  0  0
  147.0857  135.2927  161.8779 C   0  0  0  0  0  0  0  0  0  0  0  0
  147.4851  136.5151  161.2718 C   0  0  0  0  0  0  0  0  0  0  0  0
  148.7211  136.8171  160.8448 N   0  5  0  0  0  0  0  0  0  0  0  0
  149.0744  136.5857  159.5593 C   0  0  0  0  0  0  0  0  0  0  0  0
  149.1340  135.4835  159.0108 O   0  0  0  0  0  0  0  0  0  0  0  0
  149.3761  137.7064  158.8813 N   0  0  0  0  0  0  0  0  0  0  0  0
  149.7956  137.8798  157.4834 C   0  0  2  0  0  0  0  0  0  0  0  0
  148.5080  137.8453  156.6345 C   0  0  0  0  0  0  0  0  0  0  0  0
  150.7501  136.7508  157.0085 C   0  0  0  0  0  0  0  0  0  0  0  0
  151.4469  137.1782  155.7082 C   0  0  0  0  0  0  0  0  0  0  0  0
  151.5555  139.0073  155.7571 S   0  0  0  0  0  0  0  0  0  0  0  0
  152.9378  139.4115  156.0557 O   0  0  0  0  0  0  0  0  0  0  0  0
  150.8441  139.5570  154.5928 O   0  0  0  0  0  0  0  0  0  0  0  0
  150.5270  139.2241  157.2590 C   0  0  0  0  0  0  0  0  0  0  0  0
  146.4926  137.3849  161.1859 N   0  0  0  0  0  0  0  0  0  0  0  0
  145.3804  136.7335  161.7325 O   0  0  0  0  0  0  0  0  0  0  0  0
  144.8754  134.5320  163.8255 H   0  0  0  0  0  0  0  0  0  0  0  0
  144.7186  133.6349  162.3139 H   0  0  0  0  0  0  0  0  0  0  0  0
  143.7157  135.0568  162.6026 H   0  0  0  0  0  0  0  0  0  0  0  0
  147.6768  134.4132  162.0851 H   0  0  0  0  0  0  0  0  0  0  0  0
  149.2977  138.5617  159.4119 H   0  0  0  0  0  0  0  0  0  0  0  0
  148.7128  137.9796  155.5725 H   0  0  0  0  0  0  0  0  0  0  0  0
  147.8169  138.6349  156.9324 H   0  0  0  0  0  0  0  0  0  0  0  0
  147.9849  136.8949  156.7474 H   0  0  0  0  0  0  0  0  0  0  0  0
  151.5302  136.5750  157.7476 H   0  0  0  0  0  0  0  0  0  0  0  0
  150.2305  135.7998  156.8868 H   0  0  0  0  0  0  0  0  0  0  0  0
  152.4418  136.7458  155.6020 H   0  0  0  0  0  0  0  0  0  0  0  0
  150.8529  136.8989  154.8381 H   0  0  0  0  0  0  0  0  0  0  0  0
  149.8501  140.0687  157.1300 H   0  0  0  0  0  0  0  0  0  0  0  0
  151.2072  139.4680  158.0737 H   0  0  0  0  0  0  0  0  0  0  0  0
  1  2  1  0  0  0  0
  1 19  1  0  0  0  0
  1 20  1  0  0  0  0
  1 21  1  0  0  0  0
  2 18  1  0  0  0  0
  2  3  2  0  0  0  0
  3  4  1  0  0  0  0
  3 22  1  0  0  0  0
  4  5  1  0  0  0  0
  4 17  2  0  0  0  0
  5  6  1  0  0  0  0
  6  7  2  0  0  0  0
  6  8  1  0  0  0  0
  8  9  1  0  0  0  0
  8 23  1  0  0  0  0
  9 16  1  0  0  0  0
  9 10  1  0  0  0  0
  9 11  1  0  0  0  0
 10 24  1  0  0  0  0
 10 25  1  0  0  0  0
 10 26  1  0  0  0  0
 11 12  1  0  0  0  0
 11 27  1  0  0  0  0
 11 28  1  0  0  0  0
 12 13  1  0  0  0  0
 12 29  1  0  0  0  0
 12 30  1  0  0  0  0
 13 14  2  0  0  0  0
 13 15  2  0  0  0  0
 13 16  1  0  0  0  0
 16 31  1  0  0  0  0
 16 32  1  0  0  0  0
 17 18  1  0  0  0  0
M  CHG  1   5  -1
M  END
> <s_m_source_file>
AV-unprocessed.smi

> <i_m_source_file_index>
634

> <i_lp_mmshare_version>
43012

> <i_f3d_flags>
0

> <s_epik_input>
W0NIM11jMVtjSF1jKG5vMSlbTkhdQyg9TylbTkhdW0NAQF0yKFtDSDNdKVtDSDJdW0NIMl1TKD1PKSg9TylbQ0gyXTI=

> <s_epik_cmdline>
J2VwaWtfcHl0aG9uJywgJy1waCcsICc3LjAnLCAnLXRuJywgJzgnLCAnLW1hJywgJzIwMCcsICctbWV0YWxfYmluZGluZycsICctaW1hZScsICc8aW5maWxlLm1hZT4nLCAnLW9tYWUnLCAnPG91dGZpbGUubWFlPic=

> <r_lp_tautomer_probability>
1

> <r_epik_Ionization_Penalty>
6.15572

> <r_epik_Ionization_Penalty_Charging>
6.1556

> <r_epik_Ionization_Penalty_Neutral>
0.000118136

> <r_epik_State_Penalty>
6.15558

> <r_epik_Charging_Adjusted_Penalty>
12.3112

> <i_epik_Tot_Q>
-1

> <i_epik_Tot_abs_Q>
1

> <r_epik_Metal_State_Penalty>
2.10569

> <b_epik_Metal_Only>
1

> <s_lp_Force_Field>
OPLS_2005

> <r_lp_Energy>
-1.68809

> <b_lp_Chiralities_Consistent>
1

> <s_lp_Variant>
AV-unprocessed.smi:634-4

> <Gold.Version>
5.8.1

> <Gold.Id.Protein>
6NUR|6NUR_protein|mol2

> <Gold.PLP.Fitness>
39.3825

> <Gold.PLP.PLP>
-25.0346

> <Gold.PLP.part.hbond>
-5.0000

> <Gold.PLP.part.metal>
0.0000

> <Gold.PLP.part.buried>
-5.7380

> <Gold.PLP.part.nonpolar>
-15.2860

> <Gold.PLP.part.repulsive>
0.2969

> <Gold.PLP.ligand.clash>
0.0000

> <Gold.PLP.ligand.torsion>
1.8051

> <Gold.PLP.Chemscore.Hbond>
5.9840

> <Gold.PLP.Chemscore.CHOScore>
0.0000

> <Gold.PLP.Chemscore.Metal>
0.0000

> <Gold.Chemscore.Hbonds>
donor molecule, donor type, donor heavy atom, donor atom, acceptor molecule, acceptor atom, score
      P1  H  6896  6908       L1     7  1.00
      P1  H  6931  6943       L1     5  1.95
      P1  H  6934  6947       L1    17  1.00
      P1  H  7989  7998       L1    15  1.00
      P1  H  7997  8009       L1    14  0.99

> <Gold.PLP.Chemscore.Internal.Correction>
0.0061

> <Gold.Rescore>
     Score         DG    S(hbond)    S(metal)    S(lipo)     H(rot)  DE(clash)    DE(int)     intcor
     17.65     -20.95       4.13        0.00      36.22       1.00       0.00       3.30       ----

> <Gold.Chemscore.Fitness>
17.6485

> <Gold.Chemscore.DG>
-20.9485

> <Gold.Chemscore.ZeroCoef>
-5.4800

> <Gold.Chemscore.Hbond>
4.1289

> <Gold.Chemscore.Metal>
0.0000

> <Gold.Chemscore.Lipo>
36.2222

> <Gold.Chemscore.Internal_Hbond>
0.0000

> <Gold.Chemscore.DEClash>
0.0000

> <Gold.Chemscore.DEInternal>
3.3000

> <Gold.Chemscore.Rot>
1.0000

> <Gold.Chemscore.Internal.Correction>
   9.000000E+99

> <Gold.Chemscore.Hbonds>
donor molecule, donor type, donor heavy atom, donor atom, acceptor molecule, acceptor atom, score
      P1  H  6896  6908       L1     7  0.74
      P1  H  6931  6943       L1     5  0.24
      P1  H  6934  6947       L1    17  0.74
      P1  H  7989  7998       L1    15  0.98
      P1  H  7997  8009       L1    14  0.93

> <Gold.Chemscore.Hbond.Weighted>
-13.7905

> <Gold.Chemscore.Metal.Weighted>
-0.0000

> <Gold.Chemscore.Lipo.Weighted>
-4.2380

> <Gold.Chemscore.Internal_Hbond.Weighted>
0.0000

> <Gold.Chemscore.DEClash.Weighted>
0.0000

> <Gold.Chemscore.DEInternal.Weighted>
3.3000

> <Gold.Chemscore.Rot.Weighted>
2.5600

> <Gold.Chemscore.Internal.Correction.Weighted>
   9.000000E+99

> <Gold.Protein.RotatedTorsions>
[ 6907 6896 6895 6894 ] final  169.92 input  -60.11 | X-H torsion
[ 7974 7965 7964 7962 ] final  101.35 input  175.53 | X-H torsion
[ 8008 7997 7996 7995 ] final -138.57 input   59.86 | X-H torsion
[ 10167 10162 10161 10158 ] final  159.37 input  -65.29 | X-H torsion
[ 10718 10713 10712 10709 ] final   49.14 input   66.30 | X-H torsion
[ 10763 10752 10751 10750 ] final  -92.13 input  -60.55 | X-H torsion
[ 11005 11000 10999 10996 ] final -127.69 input  -57.11 | X-H torsion

> <Gold.Protein.ActiveResidues>
 VAL166  LYS551  ARG553  GLY616  TRP617  ASP618  TYR619  PRO620  LYS621  CYS622 
 ASP623  PHE694  ASN695  SER759  ASP760  ASP761  ALA762  ILE779  LEU786  VAL792 
 PHE793  MET794  SER795  GLU796  ALA797  LYS798  CYS799  TRP800  GLU811  SER814 

> <Gold.Protein.RotatedAtoms>
  151.8243  133.3399  159.3593 H   0  0  0  0  0  0  0  0  0  0  0  0  # atno 6907 bound_to 6896
  150.7284  134.5544  159.5820 H   0  0  0  0  0  0  0  0  0  0  0  0  # atno 6908 bound_to 6896
  152.2983  134.7642  160.0414 H   0  0  0  0  0  0  0  0  0  0  0  0  # atno 6909 bound_to 6896
  145.3735  139.2393  143.3442 H   0  0  0  0  0  0  0  0  0  0  0  0  # atno 7974 bound_to 7965
  155.4306  140.0525  157.3019 H   0  0  0  0  0  0  0  0  0  0  0  0  # atno 8008 bound_to 7997
  154.4861  140.2101  155.9609 H   0  0  0  0  0  0  0  0  0  0  0  0  # atno 8009 bound_to 7997
  156.1277  140.3177  155.8307 H   0  0  0  0  0  0  0  0  0  0  0  0  # atno 8010 bound_to 7997
  139.4832  144.4736  151.8542 H   0  0  0  0  0  0  0  0  0  0  0  0  # atno 10167 bound_to 10162
  157.4756  130.8283  149.8036 H   0  0  0  0  0  0  0  0  0  0  0  0  # atno 10718 bound_to 10713
  154.6830  135.5242  153.8289 H   0  0  0  0  0  0  0  0  0  0  0  0  # atno 10763 bound_to 10752
  153.0578  135.6557  154.0545 H   0  0  0  0  0  0  0  0  0  0  0  0  # atno 10764 bound_to 10752
  154.0429  135.2975  155.3332 H   0  0  0  0  0  0  0  0  0  0  0  0  # atno 10765 bound_to 10752
  140.9579  134.0977  157.3998 H   0  0  0  0  0  0  0  0  0  0  0  0  # atno 11005 bound_to 11000
  146.2874  140.4390  142.8752 LP  0  0  0  0  0  0  0  0  0  0  0  0  # atno 17320 bound_to 7965
  144.8559  140.7069  143.6138 LP  0  0  0  0  0  0  0  0  0  0  0  0  # atno 17321 bound_to 7965
  140.4207  144.2247  150.5887 LP  0  0  0  0  0  0  0  0  0  0  0  0  # atno 17342 bound_to 10162
  140.4877  143.2358  151.8864 LP  0  0  0  0  0  0  0  0  0  0  0  0  # atno 17343 bound_to 10162
  156.0095  130.3839  150.2313 LP  0  0  0  0  0  0  0  0  0  0  0  0  # atno 17370 bound_to 10713
  157.0497  131.0059  151.3257 LP  0  0  0  0  0  0  0  0  0  0  0  0  # atno 17371 bound_to 10713
  139.8868  135.0084  156.6521 LP  0  0  0  0  0  0  0  0  0  0  0  0  # atno 17394 bound_to 11000
  140.7510  133.8897  155.8347 LP  0  0  0  0  0  0  0  0  0  0  0  0  # atno 17395 bound_to 11000

$$$$
