AV-unprocessed.smi:1873|AV-procd|sdf|7607|dock10
  -GOLD-   22720 9323D 1   1.00000     0.00000
 Structure written by MMmdl.
 36 38  0  0  0  0  0  0  0  0  1 V2000
  150.7329  139.9741  154.5097 O   0  0  0  0  0  0  0  0  0  0  0  0
  150.4012  140.9573  155.4721 C   0  0  2  0  0  0  0  0  0  0  0  0
  150.7106  140.4287  156.8861 C   0  0  0  0  0  0  0  0  0  0  0  0
  151.1539  141.4782  157.7856 N   0  0  0  0  0  0  0  0  0  0  0  0
  150.8174  142.7819  157.7459 C   0  0  0  0  0  0  0  0  0  0  0  0
  151.3428  143.5750  158.6758 N   0  0  0  0  0  0  0  0  0  0  0  0
  152.1100  142.6819  159.4039 C   0  0  0  0  0  0  0  0  0  0  0  0
  152.9282  142.8865  160.5382 C   0  0  0  0  0  0  0  0  0  0  0  0
  153.6264  141.8074  161.1196 C   0  0  0  0  0  0  0  0  0  0  0  0
  153.5186  140.5101  160.5773 C   0  0  0  0  0  0  0  0  0  0  0  0
  152.7098  140.2817  159.4474 C   0  0  0  0  0  0  0  0  0  0  0  0
  152.0146  141.3610  158.8709 C   0  0  0  0  0  0  0  0  0  0  0  0
  148.9553  141.4144  155.3584 C   0  0  0  0  0  0  0  0  0  0  0  0
  148.1272  141.4822  156.4993 C   0  0  0  0  0  0  0  0  0  0  0  0
  146.7937  141.9189  156.3831 C   0  0  0  0  0  0  0  0  0  0  0  0
  146.2656  142.2894  155.1300 C   0  0  0  0  0  0  0  0  0  0  0  0
  144.9599  142.7233  155.0861 O   0  0  0  0  0  0  0  0  0  0  0  0
  144.6996  144.0347  154.8387 C   0  0  0  0  0  0  0  0  0  0  0  0
  144.9918  144.3233  153.5476 F   0  0  0  0  0  0  0  0  0  0  0  0
  143.3840  144.3008  155.0293 F   0  0  0  0  0  0  0  0  0  0  0  0
  147.1021  142.2339  153.9893 C   0  0  0  0  0  0  0  0  0  0  0  0
  148.4358  141.7972  154.1044 C   0  0  0  0  0  0  0  0  0  0  0  0
  149.9929  139.8572  153.9338 H   0  0  0  0  0  0  0  0  0  0  0  0
  151.0426  141.8161  155.2704 H   0  0  0  0  0  0  0  0  0  0  0  0
  149.8212  139.9685  157.3186 H   0  0  0  0  0  0  0  0  0  0  0  0
  151.4767  139.6527  156.8469 H   0  0  0  0  0  0  0  0  0  0  0  0
  150.1463  143.1699  156.9935 H   0  0  0  0  0  0  0  0  0  0  0  0
  153.0179  143.8757  160.9621 H   0  0  0  0  0  0  0  0  0  0  0  0
  154.2481  141.9763  161.9865 H   0  0  0  0  0  0  0  0  0  0  0  0
  154.0571  139.6903  161.0296 H   0  0  0  0  0  0  0  0  0  0  0  0
  152.6237  139.2898  159.0291 H   0  0  0  0  0  0  0  0  0  0  0  0
  148.5127  141.2040  157.4692 H   0  0  0  0  0  0  0  0  0  0  0  0
  146.1704  141.9691  157.2637 H   0  0  0  0  0  0  0  0  0  0  0  0
  145.2987  144.6914  155.4699 H   0  0  0  0  0  0  0  0  0  0  0  0
  146.7358  142.5319  153.0183 H   0  0  0  0  0  0  0  0  0  0  0  0
  149.0609  141.7634  153.2239 H   0  0  0  0  0  0  0  0  0  0  0  0
  1  2  1  0  0  0  0
  1 23  1  0  0  0  0
  2  3  1  0  0  0  0
  2 13  1  0  0  0  0
  2 24  1  0  0  0  0
  3  4  1  0  0  0  0
  3 25  1  0  0  0  0
  3 26  1  0  0  0  0
  4 12  1  0  0  0  0
  4  5  1  0  0  0  0
  5  6  2  0  0  0  0
  5 27  1  0  0  0  0
  6  7  1  0  0  0  0
  7 12  2  0  0  0  0
  7  8  1  0  0  0  0
  8  9  2  0  0  0  0
  8 28  1  0  0  0  0
  9 10  1  0  0  0  0
  9 29  1  0  0  0  0
 10 11  2  0  0  0  0
 10 30  1  0  0  0  0
 11 12  1  0  0  0  0
 11 31  1  0  0  0  0
 13 22  1  0  0  0  0
 13 14  2  0  0  0  0
 14 15  1  0  0  0  0
 14 32  1  0  0  0  0
 15 16  2  0  0  0  0
 15 33  1  0  0  0  0
 16 17  1  0  0  0  0
 16 21  1  0  0  0  0
 17 18  1  0  0  0  0
 18 19  1  0  0  0  0
 18 20  1  0  0  0  0
 18 34  1  0  0  0  0
 21 22  2  0  0  0  0
 21 35  1  0  0  0  0
 22 36  1  0  0  0  0
M  END
> <s_m_source_file>
AV-unprocessed.smi

> <i_m_source_file_index>
1873

> <i_lp_mmshare_version>
43012

> <i_f3d_flags>
0

> <s_epik_input>
RltDSF0oRilPYyhbY0hdW2NIXTEpW2NIXVtjSF1jMVtDQEhdKFtPSF0pW0NIMl1uKFtjSF1uMiljKGMyMylbY0hdW2NIXVtjSF1bY0hdMw==

> <s_epik_cmdline>
J2VwaWtfcHl0aG9uJywgJy1waCcsICc3LjAnLCAnLXRuJywgJzgnLCAnLW1hJywgJzIwMCcsICctbWV0YWxfYmluZGluZycsICctaW1hZScsICc8aW5maWxlLm1hZT4nLCAnLW9tYWUnLCAnPG91dGZpbGUubWFlPic=

> <r_lp_tautomer_probability>
1

> <r_epik_Ionization_Penalty>
0.0696507

> <r_epik_Ionization_Penalty_Charging>
0

> <r_epik_Ionization_Penalty_Neutral>
0.0696507

> <r_epik_State_Penalty>
0.0610247

> <r_epik_Charging_Adjusted_Penalty>
0.0610247

> <i_epik_Tot_Q>
0

> <i_epik_Tot_abs_Q>
0

> <r_epik_Metal_State_Penalty>
6.42746e-05

> <b_epik_Metal_Only>
0

> <s_lp_Force_Field>
OPLS_2005

> <r_lp_Energy>
11.1273

> <b_lp_Chiralities_Consistent>
1

> <s_lp_Variant>
AV-unprocessed.smi:1873-1

> <Gold.Version>
5.8.1

> <Gold.Id.Protein>
6NUR|6NUR_protein|mol2

> <Gold.PLP.Fitness>
50.4137

> <Gold.PLP.PLP>
-46.5077

> <Gold.PLP.part.hbond>
-1.0000

> <Gold.PLP.part.metal>
0.0000

> <Gold.PLP.part.buried>
-5.7600

> <Gold.PLP.part.nonpolar>
-40.3140

> <Gold.PLP.part.repulsive>
0.2378

> <Gold.PLP.ligand.clash>
0.0000

> <Gold.PLP.ligand.torsion>
1.0714

> <Gold.PLP.Chemscore.Hbond>
1.0000

> <Gold.PLP.Chemscore.CHOScore>
1.0000

> <Gold.PLP.Chemscore.Metal>
0.0000

> <Gold.Chemscore.Hbonds>
donor molecule, donor type, donor heavy atom, donor atom, acceptor molecule, acceptor atom, score
      P1  H  7989  7998       L1     1  0.85
      L1  C     5    27       P1  8028  1.00

> <Gold.PLP.Chemscore.Internal.Correction>
0.0488

> <Gold.Rescore>
     Score         DG    S(hbond)    S(metal)    S(lipo)     H(rot)  DE(clash)    DE(int)     intcor
     12.78     -13.96       0.71        0.00     104.58       2.40       0.11       1.07       ----

> <Gold.Chemscore.Fitness>
12.7842

> <Gold.Chemscore.DG>
-13.9626

> <Gold.Chemscore.ZeroCoef>
-5.4800

> <Gold.Chemscore.Hbond>
0.7149

> <Gold.Chemscore.Metal>
0.0000

> <Gold.Chemscore.Lipo>
104.5765

> <Gold.Chemscore.Internal_Hbond>
0.0000

> <Gold.Chemscore.DEClash>
0.1069

> <Gold.Chemscore.DEInternal>
1.0714

> <Gold.Chemscore.Rot>
2.3986

> <Gold.Chemscore.Internal.Correction>
   9.000000E+99

> <Gold.Chemscore.Hbonds>
donor molecule, donor type, donor heavy atom, donor atom, acceptor molecule, acceptor atom, score
      P1  H  7989  7998       L1     1  0.04

> <Gold.Chemscore.Hbond.Weighted>
-2.3876

> <Gold.Chemscore.Metal.Weighted>
-0.0000

> <Gold.Chemscore.Lipo.Weighted>
-12.2354

> <Gold.Chemscore.Internal_Hbond.Weighted>
0.0000

> <Gold.Chemscore.DEClash.Weighted>
0.1069

> <Gold.Chemscore.DEInternal.Weighted>
1.0714

> <Gold.Chemscore.Rot.Weighted>
6.1405

> <Gold.Chemscore.Internal.Correction.Weighted>
   9.000000E+99

> <Gold.Protein.RotatedTorsions>
[ 6907 6896 6895 6894 ] final  -43.68 input  -60.11 | X-H torsion
[ 7974 7965 7964 7962 ] final  -55.38 input  175.53 | X-H torsion
[ 8008 7997 7996 7995 ] final   31.03 input   59.86 | X-H torsion
[ 10167 10162 10161 10158 ] final   82.92 input  -65.29 | X-H torsion
[ 10718 10713 10712 10709 ] final  -41.11 input   66.30 | X-H torsion
[ 10763 10752 10751 10750 ] final   74.09 input  -60.55 | X-H torsion
[ 11005 11000 10999 10996 ] final   10.84 input  -57.11 | X-H torsion

> <Gold.Protein.ActiveResidues>
 VAL166  LYS551  ARG553  GLY616  TRP617  ASP618  TYR619  PRO620  LYS621  CYS622 
 ASP623  PHE694  ASN695  SER759  ASP760  ASP761  ALA762  ILE779  LEU786  VAL792 
 PHE793  MET794  SER795  GLU796  ALA797  LYS798  CYS799  TRP800  GLU811  SER814 

> <Gold.Protein.RotatedAtoms>
  150.9412  134.8821  159.7613 H   0  0  0  0  0  0  0  0  0  0  0  0  # atno 6907 bound_to 6896
  152.5081  134.3939  159.9403 H   0  0  0  0  0  0  0  0  0  0  0  0  # atno 6908 bound_to 6896
  151.3960  133.3733  159.2761 H   0  0  0  0  0  0  0  0  0  0  0  0  # atno 6909 bound_to 6896
  145.8748  140.8189  142.9870 H   0  0  0  0  0  0  0  0  0  0  0  0  # atno 7974 bound_to 7965
  155.0998  140.3228  155.4550 H   0  0  0  0  0  0  0  0  0  0  0  0  # atno 8008 bound_to 7997
  156.2720  140.2063  156.6071 H   0  0  0  0  0  0  0  0  0  0  0  0  # atno 8009 bound_to 7997
  154.6838  140.0523  157.0280 H   0  0  0  0  0  0  0  0  0  0  0  0  # atno 8010 bound_to 7997
  139.9238  144.6196  150.8413 H   0  0  0  0  0  0  0  0  0  0  0  0  # atno 10167 bound_to 10162
  156.2739  130.4209  149.8408 H   0  0  0  0  0  0  0  0  0  0  0  0  # atno 10718 bound_to 10713
  153.0564  135.5038  154.7991 H   0  0  0  0  0  0  0  0  0  0  0  0  # atno 10763 bound_to 10752
  154.6813  135.2969  154.9611 H   0  0  0  0  0  0  0  0  0  0  0  0  # atno 10764 bound_to 10752
  154.0396  135.6718  153.4841 H   0  0  0  0  0  0  0  0  0  0  0  0  # atno 10765 bound_to 10752
  140.5099  134.0662  155.7815 H   0  0  0  0  0  0  0  0  0  0  0  0  # atno 11005 bound_to 11000
  144.6726  140.1294  143.7444 LP  0  0  0  0  0  0  0  0  0  0  0  0  # atno 17320 bound_to 7965
  145.9094  139.2478  143.1446 LP  0  0  0  0  0  0  0  0  0  0  0  0  # atno 17321 bound_to 7965
  140.7655  143.3278  151.2477 LP  0  0  0  0  0  0  0  0  0  0  0  0  # atno 17342 bound_to 10162
  139.6839  143.9806  152.2824 LP  0  0  0  0  0  0  0  0  0  0  0  0  # atno 17343 bound_to 10162
  156.5880  130.8494  151.3400 LP  0  0  0  0  0  0  0  0  0  0  0  0  # atno 17370 bound_to 10713
  157.7293  130.9669  150.1781 LP  0  0  0  0  0  0  0  0  0  0  0  0  # atno 17371 bound_to 10713
  141.1391  133.9170  157.2367 LP  0  0  0  0  0  0  0  0  0  0  0  0  # atno 17394 bound_to 11000
  139.9664  135.0140  156.9399 LP  0  0  0  0  0  0  0  0  0  0  0  0  # atno 17395 bound_to 11000

$$$$
