AV-unprocessed.smi:789|AV-procd|sdf|3739|dock3
  -GOLD-   22720 1173D 1   1.00000     0.00000
 Structure written by MMmdl.
 34 35  0  0  0  0  0  0  0  0  1 V2000
  147.0283  138.5316  152.7537 C   0  0  0  0  0  0  0  0  0  0  0  0
  147.3816  139.8236  153.4289 C   0  0  0  0  0  0  0  0  0  0  0  0
  148.5277  140.1133  154.2247 C   0  0  0  0  0  0  0  0  0  0  0  0
  148.3286  141.4208  154.5745 C   0  0  0  0  0  0  0  0  0  0  0  0
  149.1122  142.2285  155.3362 N   0  0  0  0  0  0  0  0  0  0  0  0
  150.1348  141.8996  156.1500 C   0  0  0  0  0  0  0  0  0  0  0  0
  150.5537  140.7574  156.3274 O   0  0  0  0  0  0  0  0  0  0  0  0
  150.6826  142.9488  156.7902 N   0  0  0  0  0  0  0  0  0  0  0  0
  151.7997  142.9470  157.7389 C   0  0  0  0  0  0  0  0  0  0  0  0
  151.3716  142.3254  159.0822 C   0  0  0  0  0  0  0  0  0  0  0  0
  151.8707  143.2783  160.1694 C   0  0  0  0  0  0  0  0  0  0  0  0
  151.8472  144.6510  159.5058 C   0  0  0  0  0  0  0  0  0  0  0  0
  152.2784  144.3776  158.0649 C   0  0  0  0  0  0  0  0  0  0  0  0
  147.1465  141.8566  154.0157 N   0  0  0  0  0  0  0  0  0  0  0  0
  146.4986  143.1523  154.0887 C   0  0  0  0  0  0  0  0  0  0  0  0
  146.5655  140.8646  153.3075 N   0  0  0  0  0  0  0  0  0  0  0  0
  147.7518  137.7518  152.9922 H   0  0  0  0  0  0  0  0  0  0  0  0
  147.0103  138.6474  151.6699 H   0  0  0  0  0  0  0  0  0  0  0  0
  146.0459  138.1791  153.0692 H   0  0  0  0  0  0  0  0  0  0  0  0
  149.3453  139.4573  154.4826 H   0  0  0  0  0  0  0  0  0  0  0  0
  148.8800  143.2101  155.2991 H   0  0  0  0  0  0  0  0  0  0  0  0
  150.2639  143.8502  156.6111 H   0  0  0  0  0  0  0  0  0  0  0  0
  152.6302  142.3675  157.3310 H   0  0  0  0  0  0  0  0  0  0  0  0
  150.2843  142.2566  159.1458 H   0  0  0  0  0  0  0  0  0  0  0  0
  151.7649  141.3168  159.2132 H   0  0  0  0  0  0  0  0  0  0  0  0
  151.2640  143.2377  161.0744 H   0  0  0  0  0  0  0  0  0  0  0  0
  152.8949  143.0209  160.4427 H   0  0  0  0  0  0  0  0  0  0  0  0
  150.8305  145.0464  159.5168 H   0  0  0  0  0  0  0  0  0  0  0  0
  152.4919  145.3728  160.0080 H   0  0  0  0  0  0  0  0  0  0  0  0
  153.3668  144.4134  158.0020 H   0  0  0  0  0  0  0  0  0  0  0  0
  151.8957  145.1337  157.3781 H   0  0  0  0  0  0  0  0  0  0  0  0
  147.0310  143.8124  154.7735 H   0  0  0  0  0  0  0  0  0  0  0  0
  145.4746  143.0324  154.4436 H   0  0  0  0  0  0  0  0  0  0  0  0
  146.4817  143.6095  153.0991 H   0  0  0  0  0  0  0  0  0  0  0  0
  1  2  1  0  0  0  0
  1 17  1  0  0  0  0
  1 18  1  0  0  0  0
  1 19  1  0  0  0  0
  2 16  2  0  0  0  0
  2  3  1  0  0  0  0
  3  4  2  0  0  0  0
  3 20  1  0  0  0  0
  4  5  1  0  0  0  0
  4 14  1  0  0  0  0
  5  6  1  0  0  0  0
  5 21  1  0  0  0  0
  6  7  2  0  0  0  0
  6  8  1  0  0  0  0
  8  9  1  0  0  0  0
  8 22  1  0  0  0  0
  9 13  1  0  0  0  0
  9 10  1  0  0  0  0
  9 23  1  0  0  0  0
 10 11  1  0  0  0  0
 10 24  1  0  0  0  0
 10 25  1  0  0  0  0
 11 12  1  0  0  0  0
 11 26  1  0  0  0  0
 11 27  1  0  0  0  0
 12 13  1  0  0  0  0
 12 28  1  0  0  0  0
 12 29  1  0  0  0  0
 13 30  1  0  0  0  0
 13 31  1  0  0  0  0
 14 15  1  0  0  0  0
 14 16  1  0  0  0  0
 15 32  1  0  0  0  0
 15 33  1  0  0  0  0
 15 34  1  0  0  0  0
M  END
> <s_m_source_file>
AV-unprocessed.smi

> <i_m_source_file_index>
789

> <i_lp_mmshare_version>
43012

> <i_f3d_flags>
0

> <s_epik_input>
W0NIM11jMVtjSF1jKG4objEpW0NIM10pW05IXUMoPU8pW05IXVtDSF0yW0NIMl1bQ0gyXVtDSDJdW0NIMl0y

> <s_epik_cmdline>
J2VwaWtfcHl0aG9uJywgJy1waCcsICc3LjAnLCAnLXRuJywgJzgnLCAnLW1hJywgJzIwMCcsICctbWV0YWxfYmluZGluZycsICctaW1hZScsICc8aW5maWxlLm1hZT4nLCAnLW9tYWUnLCAnPG91dGZpbGUubWFlPic=

> <r_lp_tautomer_probability>
1

> <r_epik_Ionization_Penalty>
0.000101808

> <r_epik_Ionization_Penalty_Charging>
0

> <r_epik_Ionization_Penalty_Neutral>
0.000101808

> <r_epik_State_Penalty>
-0

> <r_epik_Charging_Adjusted_Penalty>
0

> <i_epik_Tot_Q>
0

> <i_epik_Tot_abs_Q>
0

> <r_epik_Metal_State_Penalty>
-0

> <b_epik_Metal_Only>
0

> <s_lp_Force_Field>
OPLS_2005

> <r_lp_Energy>
29.7198

> <b_lp_Chiralities_Consistent>
1

> <s_lp_Variant>
AV-unprocessed.smi:789-1

> <Gold.Version>
5.8.1

> <Gold.Id.Protein>
6NUR|6NUR_protein|mol2

> <Gold.PLP.Fitness>
40.6816

> <Gold.PLP.PLP>
-35.2959

> <Gold.PLP.part.hbond>
-1.9079

> <Gold.PLP.part.metal>
0.0000

> <Gold.PLP.part.buried>
-2.6934

> <Gold.PLP.part.nonpolar>
-31.9692

> <Gold.PLP.part.repulsive>
1.1610

> <Gold.PLP.ligand.clash>
0.0000

> <Gold.PLP.ligand.torsion>
0.1523

> <Gold.PLP.Chemscore.Hbond>
1.8960

> <Gold.PLP.Chemscore.CHOScore>
0.0000

> <Gold.PLP.Chemscore.Metal>
0.0000

> <Gold.Chemscore.Hbonds>
donor molecule, donor type, donor heavy atom, donor atom, acceptor molecule, acceptor atom, score
      L1  H     5    21       P1  8028  1.00
      L1  H     8    22       P1  8028  0.90

> <Gold.PLP.Chemscore.Internal.Correction>
0.0022

> <Gold.Rescore>
     Score         DG    S(hbond)    S(metal)    S(lipo)     H(rot)  DE(clash)    DE(int)     intcor
     17.46     -18.94       1.90        0.00      82.80       1.00       0.34       1.15       ----

> <Gold.Chemscore.Fitness>
17.4562

> <Gold.Chemscore.DG>
-18.9431

> <Gold.Chemscore.ZeroCoef>
-5.4800

> <Gold.Chemscore.Hbond>
1.8970

> <Gold.Chemscore.Metal>
0.0000

> <Gold.Chemscore.Lipo>
82.7967

> <Gold.Chemscore.Internal_Hbond>
0.0000

> <Gold.Chemscore.DEClash>
0.3360

> <Gold.Chemscore.DEInternal>
1.1509

> <Gold.Chemscore.Rot>
1.0000

> <Gold.Chemscore.Internal.Correction>
   9.000000E+99

> <Gold.Chemscore.Hbonds>
donor molecule, donor type, donor heavy atom, donor atom, acceptor molecule, acceptor atom, score
      L1  H     5    21       P1  8028  0.94
      L1  H     8    22       P1  8028  0.88

> <Gold.Chemscore.Hbond.Weighted>
-6.3358

> <Gold.Chemscore.Metal.Weighted>
-0.0000

> <Gold.Chemscore.Lipo.Weighted>
-9.6872

> <Gold.Chemscore.Internal_Hbond.Weighted>
0.0000

> <Gold.Chemscore.DEClash.Weighted>
0.3360

> <Gold.Chemscore.DEInternal.Weighted>
1.1509

> <Gold.Chemscore.Rot.Weighted>
2.5600

> <Gold.Chemscore.Internal.Correction.Weighted>
   9.000000E+99

> <Gold.Protein.RotatedTorsions>
[ 6907 6896 6895 6894 ] final   14.54 input  -60.11 | X-H torsion
[ 7974 7965 7964 7962 ] final   20.60 input  175.53 | X-H torsion
[ 8008 7997 7996 7995 ] final  -38.92 input   59.86 | X-H torsion
[ 10167 10162 10161 10158 ] final  -69.59 input  -65.29 | X-H torsion
[ 10718 10713 10712 10709 ] final -104.57 input   66.30 | X-H torsion
[ 10763 10752 10751 10750 ] final   13.95 input  -60.55 | X-H torsion
[ 11005 11000 10999 10996 ] final -105.81 input  -57.11 | X-H torsion

> <Gold.Protein.ActiveResidues>
 VAL166  LYS551  ARG553  GLY616  TRP617  ASP618  TYR619  PRO620  LYS621  CYS622 
 ASP623  PHE694  ASN695  SER759  ASP760  ASP761  ALA762  ILE779  LEU786  VAL792 
 PHE793  MET794  SER795  GLU796  ALA797  LYS798  CYS799  TRP800  GLU811  SER814 

> <Gold.Protein.RotatedAtoms>
  151.8038  135.0701  160.0403 H   0  0  0  0  0  0  0  0  0  0  0  0  # atno 6907 bound_to 6896
  152.3070  133.5709  159.5664 H   0  0  0  0  0  0  0  0  0  0  0  0  # atno 6908 bound_to 6896
  150.7301  134.0125  159.3716 H   0  0  0  0  0  0  0  0  0  0  0  0  # atno 6909 bound_to 6896
  146.2105  139.8146  142.8693 H   0  0  0  0  0  0  0  0  0  0  0  0  # atno 7974 bound_to 7965
  154.4030  140.1565  156.2779 H   0  0  0  0  0  0  0  0  0  0  0  0  # atno 8008 bound_to 7997
  155.8896  140.3439  155.5924 H   0  0  0  0  0  0  0  0  0  0  0  0  # atno 8009 bound_to 7997
  155.7574  140.0813  157.2162 H   0  0  0  0  0  0  0  0  0  0  0  0  # atno 8010 bound_to 7997
  140.5418  143.2314  151.7074 H   0  0  0  0  0  0  0  0  0  0  0  0  # atno 10167 bound_to 10162
  156.0310  130.5521  150.7415 H   0  0  0  0  0  0  0  0  0  0  0  0  # atno 10718 bound_to 10713
  153.1670  135.6806  153.8661 H   0  0  0  0  0  0  0  0  0  0  0  0  # atno 10763 bound_to 10752
  153.8037  135.3152  155.3394 H   0  0  0  0  0  0  0  0  0  0  0  0  # atno 10764 bound_to 10752
  154.7972  135.4800  154.0280 H   0  0  0  0  0  0  0  0  0  0  0  0  # atno 10765 bound_to 10752
  141.1035  133.8840  157.1780 H   0  0  0  0  0  0  0  0  0  0  0  0  # atno 11005 bound_to 11000
  145.3160  141.0232  143.3527 LP  0  0  0  0  0  0  0  0  0  0  0  0  # atno 17320 bound_to 7965
  144.8901  139.4786  143.6682 LP  0  0  0  0  0  0  0  0  0  0  0  0  # atno 17321 bound_to 7965
  139.4992  144.3956  152.0234 LP  0  0  0  0  0  0  0  0  0  0  0  0  # atno 17342 bound_to 10162
  140.3066  144.3586  150.6045 LP  0  0  0  0  0  0  0  0  0  0  0  0  # atno 17343 bound_to 10162
  157.4982  131.0916  151.0345 LP  0  0  0  0  0  0  0  0  0  0  0  0  # atno 17370 bound_to 10713
  157.0733  130.5873  149.5406 LP  0  0  0  0  0  0  0  0  0  0  0  0  # atno 17371 bound_to 10713
  139.9896  135.0069  156.9943 LP  0  0  0  0  0  0  0  0  0  0  0  0  # atno 17394 bound_to 11000
  140.4961  134.1144  155.7241 LP  0  0  0  0  0  0  0  0  0  0  0  0  # atno 17395 bound_to 11000

$$$$
