AV-unprocessed.smi:2822|AV-procd|sdf|10883|dock3
  -GOLD-   2272015323D 1   1.00000     0.00000
 Structure written by MMmdl.
 39 41  0  0  0  0  0  0  0  0  1 V2000
  146.4163  141.5838  157.9728 Cl  0  0  0  0  0  0  0  0  0  0  0  0
  146.3087  142.1594  156.3457 C   0  0  0  0  0  0  0  0  0  0  0  0
  145.2610  143.0297  155.9808 C   0  0  0  0  0  0  0  0  0  0  0  0
  145.1037  143.5245  154.7351 N   0  0  0  0  0  0  0  0  0  0  0  0
  146.0033  143.1606  153.7976 C   0  0  0  0  0  0  0  0  0  0  0  0
  147.0873  142.2979  154.0551 C   0  0  0  0  0  0  0  0  0  0  0  0
  147.2507  141.7797  155.3618 C   0  0  0  0  0  0  0  0  0  0  0  0
  148.2995  140.9124  155.7043 N   0  0  0  0  0  0  0  0  0  0  0  0
  149.5821  140.9831  155.0214 C   0  0  0  0  0  0  0  0  0  0  0  0
  150.7428  141.1402  156.0132 C   0  0  1  0  0  0  0  0  0  0  0  0
  150.6972  142.5040  156.7272 C   0  0  0  0  0  0  0  0  0  0  0  0
  151.7462  142.6304  157.7312 N   0  0  0  0  0  0  0  0  0  0  0  0
  151.6812  143.9252  158.4073 C   0  0  0  0  0  0  0  0  0  0  0  0
  152.7984  144.0995  159.4484 C   0  0  0  0  0  0  0  0  0  0  0  0
  152.7517  142.9599  160.4761 C   0  0  0  0  0  0  0  0  0  0  0  0
  152.7651  141.6015  159.7583 C   0  0  0  0  0  0  0  0  0  0  0  0
  151.6512  141.5286  158.6935 C   0  0  2  0  0  0  0  0  0  0  0  0
  151.6748  140.1660  157.9718 C   0  0  0  0  0  0  0  0  0  0  0  0
  150.6367  140.1153  156.9983 O   0  0  0  0  0  0  0  0  0  0  0  0
  144.5269  143.3382  156.7105 H   0  0  0  0  0  0  0  0  0  0  0  0
  145.8546  143.5689  152.8089 H   0  0  0  0  0  0  0  0  0  0  0  0
  147.7661  142.0504  153.2531 H   0  0  0  0  0  0  0  0  0  0  0  0
  148.2401  140.3815  156.5617 H   0  0  0  0  0  0  0  0  0  0  0  0
  149.7185  140.0644  154.4501 H   0  0  0  0  0  0  0  0  0  0  0  0
  149.5800  141.8113  154.3113 H   0  0  0  0  0  0  0  0  0  0  0  0
  151.6922  141.0414  155.4827 H   0  0  0  0  0  0  0  0  0  0  0  0
  150.7976  143.3022  155.9907 H   0  0  0  0  0  0  0  0  0  0  0  0
  149.7204  142.6344  157.1960 H   0  0  0  0  0  0  0  0  0  0  0  0
  151.7532  144.7264  157.6710 H   0  0  0  0  0  0  0  0  0  0  0  0
  150.7116  144.0404  158.8943 H   0  0  0  0  0  0  0  0  0  0  0  0
  153.7676  144.1054  158.9482 H   0  0  0  0  0  0  0  0  0  0  0  0
  152.6994  145.0627  159.9497 H   0  0  0  0  0  0  0  0  0  0  0  0
  153.5939  143.0343  161.1645 H   0  0  0  0  0  0  0  0  0  0  0  0
  151.8463  143.0470  161.0779 H   0  0  0  0  0  0  0  0  0  0  0  0
  153.7369  141.4496  159.2863 H   0  0  0  0  0  0  0  0  0  0  0  0
  152.6449  140.7990  160.4870 H   0  0  0  0  0  0  0  0  0  0  0  0
  150.6936  141.6053  159.2115 H   0  0  0  0  0  0  0  0  0  0  0  0
  152.6392  139.9947  157.4904 H   0  0  0  0  0  0  0  0  0  0  0  0
  151.5253  139.3546  158.6845 H   0  0  0  0  0  0  0  0  0  0  0  0
  1  2  1  0  0  0  0
  2  7  1  0  0  0  0
  2  3  2  0  0  0  0
  3  4  1  0  0  0  0
  3 20  1  0  0  0  0
  4  5  2  0  0  0  0
  5  6  1  0  0  0  0
  5 21  1  0  0  0  0
  6  7  2  0  0  0  0
  6 22  1  0  0  0  0
  7  8  1  0  0  0  0
  8  9  1  0  0  0  0
  8 23  1  0  0  0  0
  9 10  1  0  0  0  0
  9 24  1  0  0  0  0
  9 25  1  0  0  0  0
 10 19  1  0  0  0  0
 10 11  1  0  0  0  0
 10 26  1  0  0  0  0
 11 12  1  0  0  0  0
 11 27  1  0  0  0  0
 11 28  1  0  0  0  0
 12 17  1  0  0  0  0
 12 13  1  0  0  0  0
 13 14  1  0  0  0  0
 13 29  1  0  0  0  0
 13 30  1  0  0  0  0
 14 15  1  0  0  0  0
 14 31  1  0  0  0  0
 14 32  1  0  0  0  0
 15 16  1  0  0  0  0
 15 33  1  0  0  0  0
 15 34  1  0  0  0  0
 16 17  1  0  0  0  0
 16 35  1  0  0  0  0
 16 36  1  0  0  0  0
 17 18  1  0  0  0  0
 17 37  1  0  0  0  0
 18 19  1  0  0  0  0
 18 38  1  0  0  0  0
 18 39  1  0  0  0  0
M  END
> <s_m_source_file>
AV-unprocessed.smi

> <i_m_source_file_index>
2822

> <i_lp_mmshare_version>
43012

> <i_f3d_flags>
0

> <s_epik_input>
Q2xjMVtjSF1uW2NIXVtjSF1jMVtOSF1bQ0gyXVtDQEhdKFtDSDJdMilPW0NIMl1bQ0BASF0oTjIzKVtDSDJdW0NIMl1bQ0gyXVtDSDJdMw==

> <s_epik_cmdline>
J2VwaWtfcHl0aG9uJywgJy1waCcsICc3LjAnLCAnLXRuJywgJzgnLCAnLW1hJywgJzIwMCcsICctbWV0YWxfYmluZGluZycsICctaW1hZScsICc8aW5maWxlLm1hZT4nLCAnLW9tYWUnLCAnPG91dGZpbGUubWFlPic=

> <r_lp_tautomer_probability>
0.999999

> <r_epik_Ionization_Penalty>
2.10064

> <r_epik_Ionization_Penalty_Charging>
0

> <r_epik_Ionization_Penalty_Neutral>
2.10064

> <r_epik_State_Penalty>
2.1757

> <r_epik_Charging_Adjusted_Penalty>
2.1757

> <i_epik_Tot_Q>
0

> <i_epik_Tot_abs_Q>
0

> <r_epik_Metal_State_Penalty>
1.25425

> <b_epik_Metal_Only>
0

> <s_lp_Force_Field>
OPLS_2005

> <r_lp_Energy>
37.6932

> <b_lp_Chiralities_Consistent>
1

> <s_lp_Variant>
AV-unprocessed.smi:2822-24

> <Gold.Version>
5.8.1

> <Gold.Id.Protein>
6NUR|6NUR_protein|mol2

> <Gold.PLP.Fitness>
38.0364

> <Gold.PLP.PLP>
-38.5015

> <Gold.PLP.part.hbond>
0.0000

> <Gold.PLP.part.metal>
0.0000

> <Gold.PLP.part.buried>
-3.8661

> <Gold.PLP.part.nonpolar>
-35.1229

> <Gold.PLP.part.repulsive>
0.2722

> <Gold.PLP.ligand.clash>
0.0000

> <Gold.PLP.ligand.torsion>
0.2336

> <Gold.PLP.Chemscore.Hbond>
0.0000

> <Gold.PLP.Chemscore.CHOScore>
0.0000

> <Gold.PLP.Chemscore.Metal>
0.0000

> <Gold.PLP.Chemscore.Internal.Correction>
0.0021

> <Gold.Rescore>
     Score         DG    S(hbond)    S(metal)    S(lipo)     H(rot)  DE(clash)    DE(int)     intcor
     14.62     -15.26       0.00        0.00     108.76       1.15       0.43       0.20       ----

> <Gold.Chemscore.Fitness>
14.6213

> <Gold.Chemscore.DG>
-15.2559

> <Gold.Chemscore.ZeroCoef>
-5.4800

> <Gold.Chemscore.Hbond>
0.0000

> <Gold.Chemscore.Metal>
0.0000

> <Gold.Chemscore.Lipo>
108.7574

> <Gold.Chemscore.Internal_Hbond>
0.0000

> <Gold.Chemscore.DEClash>
0.4298

> <Gold.Chemscore.DEInternal>
0.2048

> <Gold.Chemscore.Rot>
1.1519

> <Gold.Chemscore.Internal.Correction>
   9.000000E+99

> <Gold.Chemscore.Hbond.Weighted>
-0.0000

> <Gold.Chemscore.Metal.Weighted>
-0.0000

> <Gold.Chemscore.Lipo.Weighted>
-12.7246

> <Gold.Chemscore.Internal_Hbond.Weighted>
0.0000

> <Gold.Chemscore.DEClash.Weighted>
0.4298

> <Gold.Chemscore.DEInternal.Weighted>
0.2048

> <Gold.Chemscore.Rot.Weighted>
2.9487

> <Gold.Chemscore.Internal.Correction.Weighted>
   9.000000E+99

> <Gold.Protein.RotatedTorsions>
[ 6907 6896 6895 6894 ] final  123.22 input  -60.11 | X-H torsion
[ 7974 7965 7964 7962 ] final   -0.07 input  175.53 | X-H torsion
[ 8008 7997 7996 7995 ] final -142.76 input   59.86 | X-H torsion
[ 10167 10162 10161 10158 ] final  -52.36 input  -65.29 | X-H torsion
[ 10718 10713 10712 10709 ] final  -64.80 input   66.30 | X-H torsion
[ 10763 10752 10751 10750 ] final   64.45 input  -60.55 | X-H torsion
[ 11005 11000 10999 10996 ] final   32.65 input  -57.11 | X-H torsion

> <Gold.Protein.ActiveResidues>
 VAL166  LYS551  ARG553  GLY616  TRP617  ASP618  TYR619  PRO620  LYS621  CYS622 
 ASP623  PHE694  ASN695  SER759  ASP760  ASP761  ALA762  ILE779  LEU786  VAL792 
 PHE793  MET794  SER795  GLU796  ALA797  LYS798  CYS799  TRP800  GLU811  SER814 

> <Gold.Protein.RotatedAtoms>
  152.4179  133.7068  159.6455 H   0  0  0  0  0  0  0  0  0  0  0  0  # atno 6907 bound_to 6896
  150.8056  133.8506  159.3213 H   0  0  0  0  0  0  0  0  0  0  0  0  # atno 6908 bound_to 6896
  151.6231  135.1032  160.0157 H   0  0  0  0  0  0  0  0  0  0  0  0  # atno 6909 bound_to 6896
  146.2430  140.1214  142.8340 H   0  0  0  0  0  0  0  0  0  0  0  0  # atno 7974 bound_to 7965
  155.4995  140.0574  157.2941 H   0  0  0  0  0  0  0  0  0  0  0  0  # atno 8008 bound_to 7997
  154.4592  140.1988  156.0242 H   0  0  0  0  0  0  0  0  0  0  0  0  # atno 8009 bound_to 7997
  156.0858  140.3240  155.7756 H   0  0  0  0  0  0  0  0  0  0  0  0  # atno 8010 bound_to 7997
  140.6541  143.2587  151.4636 H   0  0  0  0  0  0  0  0  0  0  0  0  # atno 10167 bound_to 10162
  156.0707  130.4238  150.1472 H   0  0  0  0  0  0  0  0  0  0  0  0  # atno 10718 bound_to 10713
  153.0056  135.5393  154.6511 H   0  0  0  0  0  0  0  0  0  0  0  0  # atno 10763 bound_to 10752
  154.5743  135.2844  155.0798 H   0  0  0  0  0  0  0  0  0  0  0  0  # atno 10764 bound_to 10752
  154.1952  135.6493  153.5124 H   0  0  0  0  0  0  0  0  0  0  0  0  # atno 10765 bound_to 10752
  140.2713  134.3079  155.7827 H   0  0  0  0  0  0  0  0  0  0  0  0  # atno 11005 bound_to 11000
  145.0403  140.8940  143.5056 LP  0  0  0  0  0  0  0  0  0  0  0  0  # atno 17320 bound_to 7965
  145.1294  139.2642  143.5547 LP  0  0  0  0  0  0  0  0  0  0  0  0  # atno 17321 bound_to 7965
  139.5761  144.1816  152.1905 LP  0  0  0  0  0  0  0  0  0  0  0  0  # atno 17342 bound_to 10162
  140.1127  144.5443  150.6914 LP  0  0  0  0  0  0  0  0  0  0  0  0  # atno 17343 bound_to 10162
  156.9523  130.9778  151.3496 LP  0  0  0  0  0  0  0  0  0  0  0  0  # atno 17370 bound_to 10713
  157.5777  130.8354  149.8478 LP  0  0  0  0  0  0  0  0  0  0  0  0  # atno 17371 bound_to 10713
  141.2177  133.7468  156.9338 LP  0  0  0  0  0  0  0  0  0  0  0  0  # atno 17394 bound_to 11000
  140.1371  134.9318  157.2416 LP  0  0  0  0  0  0  0  0  0  0  0  0  # atno 17395 bound_to 11000

$$$$
