AV-unprocessed.smi:148|AV-procd|sdf|1233|dock7
  -GOLD-   2262018443D 1   1.00000     0.00000
 Structure written by MMmdl.
 63 67  0  0  0  0  0  0  0  0  1 V2000
  147.3971  135.2512  153.6501 O   0  0  0  0  0  0  0  0  0  0  0  0
  148.2942  135.2814  154.7406 C   0  0  0  0  0  0  0  0  0  0  0  0
  149.4331  134.2481  154.5609 C   0  0  1  0  0  0  0  0  0  0  0  0
  150.5550  134.4312  155.6164 C   0  0  0  0  0  0  0  0  0  0  0  0
  150.5536  135.7473  156.2315 N   0  0  0  0  0  0  0  0  0  0  0  0
  150.0206  136.0814  157.4565 C   0  0  0  0  0  0  0  0  0  0  0  0
  150.1348  137.3388  157.7894 N   0  0  0  0  0  0  0  0  0  0  0  0
  150.7931  137.9128  156.7093 C   0  0  0  0  0  0  0  0  0  0  0  0
  151.2215  139.2306  156.4023 C   0  0  0  0  0  0  0  0  0  0  0  0
  151.0174  140.2653  157.2505 N   0  0  0  0  0  0  0  0  0  0  0  0
  152.2123  140.4721  158.0691 C   0  0  0  0  0  0  0  0  0  0  0  0
  151.9554  141.4835  159.1924 C   0  0  0  0  0  0  0  0  0  0  0  0
  151.4393  142.8006  158.6072 C   0  0  0  0  0  0  0  0  0  0  0  0
  150.1763  142.5432  157.7754 C   0  0  0  0  0  0  0  0  0  0  0  0
  150.4117  141.4795  156.6699 C   0  0  2  0  0  0  0  0  0  0  0  0
  149.1277  141.1682  155.8363 C   0  0  1  0  0  0  0  0  0  0  0  0
  147.8380  141.8850  156.2827 C   0  0  0  0  0  0  0  0  0  0  0  0
  146.9710  142.0423  155.0226 C   0  0  0  0  0  0  0  0  0  0  0  0
  147.7490  141.3813  153.8804 C   0  0  0  0  0  0  0  0  0  0  0  0
  149.2086  141.4466  154.3281 C   0  0  2  0  0  0  0  0  0  0  0  0
  149.9998  140.4941  153.6485 O   0  0  0  0  0  0  0  0  0  0  0  0
  151.8631  139.4336  155.2209 N   0  0  0  0  0  0  0  0  0  0  0  0
  152.0572  138.4097  154.3840 C   0  0  0  0  0  0  0  0  0  0  0  0
  151.7017  137.1311  154.5313 N   0  0  0  0  0  0  0  0  0  0  0  0
  151.0657  136.9272  155.7209 C   0  0  0  0  0  0  0  0  0  0  0  0
  148.8779  132.7967  154.4861 C   0  0  1  0  0  0  0  0  0  0  0  0
  148.1973  132.3903  153.1914 C   0  0  0  0  0  0  0  0  0  0  0  0
  148.1115  130.8764  153.3584 C   0  0  0  0  0  0  0  0  0  0  0  0
  149.2733  130.5043  154.0948 O   0  0  0  0  0  0  0  0  0  0  0  0
  149.8865  131.6576  154.6660 C   0  0  0  0  0  0  0  0  0  0  0  0
  146.9779  136.0956  153.5821 H   0  0  0  0  0  0  0  0  0  0  0  0
  148.6840  136.2972  154.7977 H   0  0  0  0  0  0  0  0  0  0  0  0
  147.7465  135.1006  155.6658 H   0  0  0  0  0  0  0  0  0  0  0  0
  149.8898  134.4533  153.5913 H   0  0  0  0  0  0  0  0  0  0  0  0
  150.4681  133.6885  156.4085 H   0  0  0  0  0  0  0  0  0  0  0  0
  151.5380  134.2928  155.1691 H   0  0  0  0  0  0  0  0  0  0  0  0
  149.5411  135.3575  158.0992 H   0  0  0  0  0  0  0  0  0  0  0  0
  152.5347  139.5243  158.5037 H   0  0  0  0  0  0  0  0  0  0  0  0
  153.0282  140.8252  157.4362 H   0  0  0  0  0  0  0  0  0  0  0  0
  151.2253  141.0782  159.8942 H   0  0  0  0  0  0  0  0  0  0  0  0
  152.8714  141.6562  159.7577 H   0  0  0  0  0  0  0  0  0  0  0  0
  151.2247  143.5102  159.4069 H   0  0  0  0  0  0  0  0  0  0  0  0
  152.2087  143.2552  157.9817 H   0  0  0  0  0  0  0  0  0  0  0  0
  149.3769  142.2299  158.4460 H   0  0  0  0  0  0  0  0  0  0  0  0
  149.8609  143.4896  157.3389 H   0  0  0  0  0  0  0  0  0  0  0  0
  151.1484  141.8998  155.9836 H   0  0  0  0  0  0  0  0  0  0  0  0
  148.9195  140.1001  155.9163 H   0  0  0  0  0  0  0  0  0  0  0  0
  147.3197  141.3103  157.0506 H   0  0  0  0  0  0  0  0  0  0  0  0
  148.0413  142.8668  156.7081 H   0  0  0  0  0  0  0  0  0  0  0  0
  145.9840  141.5956  155.1455 H   0  0  0  0  0  0  0  0  0  0  0  0
  146.8255  143.1017  154.8086 H   0  0  0  0  0  0  0  0  0  0  0  0
  147.4329  140.3412  153.7851 H   0  0  0  0  0  0  0  0  0  0  0  0
  147.5803  141.8681  152.9192 H   0  0  0  0  0  0  0  0  0  0  0  0
  149.5882  142.4466  154.1239 H   0  0  0  0  0  0  0  0  0  0  0  0
  149.7468  140.4885  152.7380 H   0  0  0  0  0  0  0  0  0  0  0  0
  152.5702  138.6492  153.4643 H   0  0  0  0  0  0  0  0  0  0  0  0
  148.1254  132.6846  155.2684 H   0  0  0  0  0  0  0  0  0  0  0  0
  147.2218  132.8574  153.0538 H   0  0  0  0  0  0  0  0  0  0  0  0
  148.8116  132.6165  152.3212 H   0  0  0  0  0  0  0  0  0  0  0  0
  147.2296  130.6071  153.9410 H   0  0  0  0  0  0  0  0  0  0  0  0
  148.0596  130.3527  152.4036 H   0  0  0  0  0  0  0  0  0  0  0  0
  150.8126  131.8441  154.1241 H   0  0  0  0  0  0  0  0  0  0  0  0
  150.1385  131.4889  155.7133 H   0  0  0  0  0  0  0  0  0  0  0  0
  1  2  1  0  0  0  0
  1 31  1  0  0  0  0
  2  3  1  0  0  0  0
  2 32  1  0  0  0  0
  2 33  1  0  0  0  0
  3  4  1  0  0  0  0
  3 26  1  0  0  0  0
  3 34  1  0  0  0  0
  4  5  1  0  0  0  0
  4 35  1  0  0  0  0
  4 36  1  0  0  0  0
  5 25  1  0  0  0  0
  5  6  1  0  0  0  0
  6  7  2  0  0  0  0
  6 37  1  0  0  0  0
  7  8  1  0  0  0  0
  8 25  2  0  0  0  0
  8  9  1  0  0  0  0
  9 10  1  0  0  0  0
  9 22  2  0  0  0  0
 10 15  1  0  0  0  0
 10 11  1  0  0  0  0
 11 12  1  0  0  0  0
 11 38  1  0  0  0  0
 11 39  1  0  0  0  0
 12 13  1  0  0  0  0
 12 40  1  0  0  0  0
 12 41  1  0  0  0  0
 13 14  1  0  0  0  0
 13 42  1  0  0  0  0
 13 43  1  0  0  0  0
 14 15  1  0  0  0  0
 14 44  1  0  0  0  0
 14 45  1  0  0  0  0
 15 16  1  0  0  0  0
 15 46  1  0  0  0  0
 16 20  1  0  0  0  0
 16 17  1  0  0  0  0
 16 47  1  0  0  0  0
 17 18  1  0  0  0  0
 17 48  1  0  0  0  0
 17 49  1  0  0  0  0
 18 19  1  0  0  0  0
 18 50  1  0  0  0  0
 18 51  1  0  0  0  0
 19 20  1  0  0  0  0
 19 52  1  0  0  0  0
 19 53  1  0  0  0  0
 20 21  1  0  0  0  0
 20 54  1  0  0  0  0
 21 55  1  0  0  0  0
 22 23  1  0  0  0  0
 23 24  2  0  0  0  0
 23 56  1  0  0  0  0
 24 25  1  0  0  0  0
 26 30  1  0  0  0  0
 26 27  1  0  0  0  0
 26 57  1  0  0  0  0
 27 28  1  0  0  0  0
 27 58  1  0  0  0  0
 27 59  1  0  0  0  0
 28 29  1  0  0  0  0
 28 60  1  0  0  0  0
 28 61  1  0  0  0  0
 29 30  1  0  0  0  0
 30 62  1  0  0  0  0
 30 63  1  0  0  0  0
M  END
> <s_m_source_file>
AV-unprocessed.smi

> <i_m_source_file_index>
148

> <i_lp_mmshare_version>
43012

> <i_f3d_flags>
0

> <s_epik_input>
W0NIMl0xT1tDSDJdW0NIMl1bQ0BIXTFbQ0BIXShbQ0gyXVtPSF0pW0NIMl1uKFtjSF1uMiljKGMyMyluW2NIXW5jM040W0NIMl1bQ0gyXVtDSDJdW0NIMl1bQ0BIXTRbQ0BASF01W0NIMl1bQ0gyXVtDSDJdW0NASF01W09IXQ==

> <s_epik_cmdline>
J2VwaWtfcHl0aG9uJywgJy1waCcsICc3LjAnLCAnLXRuJywgJzgnLCAnLW1hJywgJzIwMCcsICctbWV0YWxfYmluZGluZycsICctaW1hZScsICc8aW5maWxlLm1hZT4nLCAnLW9tYWUnLCAnPG91dGZpbGUubWFlPic=

> <r_lp_tautomer_probability>
1

> <r_epik_Ionization_Penalty>
0.00556303

> <r_epik_Ionization_Penalty_Charging>
0

> <r_epik_Ionization_Penalty_Neutral>
0.00556303

> <r_epik_State_Penalty>
0.00401767

> <r_epik_Charging_Adjusted_Penalty>
0.00401767

> <i_epik_Tot_Q>
0

> <i_epik_Tot_abs_Q>
0

> <r_epik_Metal_State_Penalty>
-0

> <b_epik_Metal_Only>
0

> <s_lp_Force_Field>
OPLS_2005

> <r_lp_Energy>
68.5512

> <b_lp_Chiralities_Consistent>
1

> <s_lp_Variant>
AV-unprocessed.smi:148-32

> <Gold.Version>
5.8.1

> <Gold.Id.Protein>
6NUR|6NUR_protein|mol2

> <Gold.PLP.Fitness>
49.2555

> <Gold.PLP.PLP>
-47.1761

> <Gold.PLP.part.hbond>
-4.7039

> <Gold.PLP.part.metal>
0.0000

> <Gold.PLP.part.buried>
-7.3966

> <Gold.PLP.part.nonpolar>
-36.1185

> <Gold.PLP.part.repulsive>
0.2523

> <Gold.PLP.ligand.clash>
0.0000

> <Gold.PLP.ligand.torsion>
3.0728

> <Gold.PLP.Chemscore.Hbond>
2.5920

> <Gold.PLP.Chemscore.CHOScore>
0.0000

> <Gold.PLP.Chemscore.Metal>
0.0000

> <Gold.Chemscore.Hbonds>
donor molecule, donor type, donor heavy atom, donor atom, acceptor molecule, acceptor atom, score
      L1  H    21    55       P1  7957  1.00
      P1  H  7989  7998       L1    21  0.52
      P1  H 10752 10764       L1    24  1.00

> <Gold.PLP.Chemscore.Internal.Correction>
0.4489

> <Gold.Rescore>
     Score         DG    S(hbond)    S(metal)    S(lipo)     H(rot)  DE(clash)    DE(int)     intcor
     10.84     -15.90       1.96        0.00     105.77       3.32       0.21       4.85       ----

> <Gold.Chemscore.Fitness>
10.8373

> <Gold.Chemscore.DG>
-15.8957

> <Gold.Chemscore.ZeroCoef>
-5.4800

> <Gold.Chemscore.Hbond>
1.9582

> <Gold.Chemscore.Metal>
0.0000

> <Gold.Chemscore.Lipo>
105.7707

> <Gold.Chemscore.Internal_Hbond>
0.0000

> <Gold.Chemscore.DEClash>
0.2129

> <Gold.Chemscore.DEInternal>
4.8455

> <Gold.Chemscore.Rot>
3.3203

> <Gold.Chemscore.Internal.Correction>
   9.000000E+99

> <Gold.Chemscore.Hbonds>
donor molecule, donor type, donor heavy atom, donor atom, acceptor molecule, acceptor atom, score
      L1  H    21    55       P1  7957  0.99
      P1  H  7989  7998       L1    21  0.10
      P1  H 10752 10764       L1    24  0.71

> <Gold.Chemscore.Hbond.Weighted>
-6.5405

> <Gold.Chemscore.Metal.Weighted>
-0.0000

> <Gold.Chemscore.Lipo.Weighted>
-12.3752

> <Gold.Chemscore.Internal_Hbond.Weighted>
0.0000

> <Gold.Chemscore.DEClash.Weighted>
0.2129

> <Gold.Chemscore.DEInternal.Weighted>
4.8455

> <Gold.Chemscore.Rot.Weighted>
8.5000

> <Gold.Chemscore.Internal.Correction.Weighted>
   9.000000E+99

> <Gold.Protein.RotatedTorsions>
[ 6907 6896 6895 6894 ] final -131.37 input  -60.11 | X-H torsion
[ 7974 7965 7964 7962 ] final   62.66 input  175.53 | X-H torsion
[ 8008 7997 7996 7995 ] final  -50.60 input   59.86 | X-H torsion
[ 10167 10162 10161 10158 ] final  -85.02 input  -65.29 | X-H torsion
[ 10718 10713 10712 10709 ] final -125.33 input   66.30 | X-H torsion
[ 10763 10752 10751 10750 ] final  -86.68 input  -60.55 | X-H torsion
[ 11005 11000 10999 10996 ] final   21.52 input  -57.11 | X-H torsion

> <Gold.Protein.ActiveResidues>
 VAL166  LYS551  ARG553  GLY616  TRP617  ASP618  TYR619  PRO620  LYS621  CYS622 
 ASP623  PHE694  ASN695  SER759  ASP760  ASP761  ALA762  ILE779  LEU786  VAL792 
 PHE793  MET794  SER795  GLU796  ALA797  LYS798  CYS799  TRP800  GLU811  SER814 

> <Gold.Protein.RotatedAtoms>
  150.9502  133.6558  159.2773 H   0  0  0  0  0  0  0  0  0  0  0  0  # atno 6907 bound_to 6896
  151.3916  135.0956  159.9537 H   0  0  0  0  0  0  0  0  0  0  0  0  # atno 6908 bound_to 6896
  152.5107  133.9015  159.7498 H   0  0  0  0  0  0  0  0  0  0  0  0  # atno 6909 bound_to 6896
  145.8708  139.3377  143.0763 H   0  0  0  0  0  0  0  0  0  0  0  0  # atno 7974 bound_to 7965
  154.4065  140.1268  156.4692 H   0  0  0  0  0  0  0  0  0  0  0  0  # atno 8008 bound_to 7997
  155.7196  140.3493  155.4990 H   0  0  0  0  0  0  0  0  0  0  0  0  # atno 8009 bound_to 7997
  155.9227  140.1055  157.1185 H   0  0  0  0  0  0  0  0  0  0  0  0  # atno 8010 bound_to 7997
  140.4077  143.2635  151.9058 H   0  0  0  0  0  0  0  0  0  0  0  0  # atno 10167 bound_to 10162
  156.1666  130.6638  151.0123 H   0  0  0  0  0  0  0  0  0  0  0  0  # atno 10718 bound_to 10713
  154.6251  135.5440  153.7618 H   0  0  0  0  0  0  0  0  0  0  0  0  # atno 10763 bound_to 10752
  153.0257  135.6422  154.1383 H   0  0  0  0  0  0  0  0  0  0  0  0  # atno 10764 bound_to 10752
  154.1316  135.2914  155.3164 H   0  0  0  0  0  0  0  0  0  0  0  0  # atno 10765 bound_to 10752
  140.3907  134.1822  155.7662 H   0  0  0  0  0  0  0  0  0  0  0  0  # atno 11005 bound_to 11000
  145.9139  140.9162  143.0440 LP  0  0  0  0  0  0  0  0  0  0  0  0  # atno 17320 bound_to 7965
  144.6726  140.1197  143.7450 LP  0  0  0  0  0  0  0  0  0  0  0  0  # atno 17321 bound_to 7965
  139.4783  144.5569  151.8300 LP  0  0  0  0  0  0  0  0  0  0  0  0  # atno 17342 bound_to 10162
  140.4671  144.1639  150.5913 LP  0  0  0  0  0  0  0  0  0  0  0  0  # atno 17343 bound_to 10162
  157.6772  131.0847  150.7464 LP  0  0  0  0  0  0  0  0  0  0  0  0  # atno 17370 bound_to 10713
  156.7524  130.4773  149.5454 LP  0  0  0  0  0  0  0  0  0  0  0  0  # atno 17371 bound_to 10713
  141.1892  133.8244  157.0967 LP  0  0  0  0  0  0  0  0  0  0  0  0  # atno 17394 bound_to 11000
  140.0409  134.9855  157.0959 LP  0  0  0  0  0  0  0  0  0  0  0  0  # atno 17395 bound_to 11000

$$$$
