#       Name:                AV-unprocessed.smi:798
#       Creating user name   scv26
#       Creation time:       Fri Mar 27 01:20:57 2020


#       File generated by GOLD software.
#

@<TRIPOS>MOLECULE
AV-unprocessed.smi:798
    40    42     1
SMALL
NO_CHARGES


@<TRIPOS>ATOM
      1 ****        -0.8449   2.3705  -0.0003 O.2            1 S1                 0.0000
      2 ****        -1.3087   1.2512  -0.2201 C.2            1 S1                 0.0000
      3 ****        -2.6136   0.9646  -0.3728 N.am           1 S1                 0.0000
      4 ****        -3.7200   1.8540  -0.3387 C.2            1 S1                 0.0000
      5 ****        -3.6095   3.1721  -0.1100 N.2            1 S1                 0.0000
      6 ****        -4.8437   3.8088  -0.1330 N.2            1 S1                 0.0000
      7 ****        -5.8350   2.9470  -0.3770 C.2            1 S1                 0.0000
      8 ****        -5.3581   1.2729  -0.6011 S.3            1 S1                 0.0000
      9 ****        -0.5544   0.1499  -0.3383 N.am           1 S1                 0.0000
     10 ****         0.9041   0.1242  -0.2517 C.3            1 S1                 0.0000
     11 ****         1.4437   0.2476   1.1958 C.3            1 S1                 0.0000
     12 ****         0.7774  -0.7782   2.1378 C.3            1 S1                 0.0000
     13 ****         1.3671  -2.1149   1.6511 C.3            1 S1                 0.0000
     14 ****         2.3116  -1.6773   0.5145 C.3            1 S1                 0.0000
     15 ****         2.8372  -0.3506   1.0513 C.3            1 S1                 0.0000
     16 ****         1.4739  -1.2441  -0.7112 C.3            1 S1                 0.0000
     17 ****         2.3066  -1.1586  -2.0045 C.3            1 S1                 0.0000
     18 ****         1.4703  -0.8670  -3.1043 O.3            1 S1                 0.0000
     19 ****        -2.8417  -0.0029  -0.5475 H              1 S1                 0.0000
     20 ****        -6.8545   3.2996  -0.4252 H              1 S1                 0.0000
     21 ****        -1.0151  -0.7299  -0.5192 H              1 S1                 0.0000
     22 ****         1.3170   0.9297  -0.8626 H              1 S1                 0.0000
     23 ****         1.4249   1.2672   1.5821 H              1 S1                 0.0000
     24 ****         1.0696  -0.5905   3.1718 H              1 S1                 0.0000
     25 ****        -0.3118  -0.7606   2.1015 H              1 S1                 0.0000
     26 ****         1.9236  -2.6011   2.4534 H              1 S1                 0.0000
     27 ****         0.5988  -2.8101   1.3105 H              1 S1                 0.0000
     28 ****         3.0788  -2.4180   0.2861 H              1 S1                 0.0000
     29 ****         3.4695   0.1902   0.3457 H              1 S1                 0.0000
     30 ****         3.3683  -0.4464   2.0001 H              1 S1                 0.0000
     31 ****         0.6771  -1.9731  -0.8721 H              1 S1                 0.0000
     32 ****         3.0830  -0.3969  -1.9318 H              1 S1                 0.0000
     33 ****         2.8049  -2.1091  -2.1965 H              1 S1                 0.0000
     34 ****         2.0033  -0.8202  -3.8834 H              1 S1                 0.0000
     35 ****        -1.4558   3.1583   0.0782 LP             1 S1                 0.0000
     36 ****         0.1427   2.4917   0.0997 LP             1 S1                 0.0000
     37 ****        -2.7417   3.6400   0.0571 LP             1 S1                 0.0000
     38 ****        -4.9739   4.7892   0.0145 LP             1 S1                 0.0000
     39 ****         1.0120   0.0094  -2.9563 LP             1 S1                 0.0000
     40 ****         0.7852  -1.5881  -3.2074 LP             1 S1                 0.0000
@<TRIPOS>BOND
    1    1    2 2     
    2    2    3 am    
    3    2    9 am    
    4    3    4 1     
    5    3   19 1     
    6    4    8 1     
    7    4    5 2     
    8    5    6 1     
    9    6    7 2     
   10    7    8 1     
   11    7   20 1     
   12    9   10 1     
   13    9   21 1     
   14   10   16 1     
   15   10   11 1     
   16   10   22 1     
   17   11   15 1     
   18   11   12 1     
   19   11   23 1     
   20   12   13 1     
   21   12   24 1     
   22   12   25 1     
   23   13   14 1     
   24   13   26 1     
   25   13   27 1     
   26   14   15 1     
   27   14   16 1     
   28   14   28 1     
   29   15   29 1     
   30   15   30 1     
   31   16   17 1     
   32   16   31 1     
   33   17   18 1     
   34   17   32 1     
   35   17   33 1     
   36   18   34 1     
   37    1   35 1     
   38    1   36 1     
   39    5   37 1     
   40    6   38 1     
   41   18   39 1     
   42   18   40 1     
@<TRIPOS>SUBSTRUCTURE
      1 S1             1
@<TRIPOS>SET
LONE_PAIRS      STATIC     ATOMS    <user>   **** ""
6 35 36 37 38 39 40
DONOR_HYDROGENS      STATIC     ATOMS    <user>   **** ""
3 19 21 34
ATOM$BLUE        STATIC     ATOMS    COLORGROUP SYSTEM
6 35 36 37 38 39 40
ATOM$RED        STATIC     ATOMS    COLORGROUP SYSTEM
3 19 21 34
