AV-unprocessed.smi:3|AV-procd|sdf|31|dock5
  -GOLD-   2262015143D 1   1.00000     0.00000
 Structure written by MMmdl.
 33 35  0  0  0  0  0  0  0  0  1 V2000
  150.5341  141.8067  156.4133 C   0  0  0  0  0  0  0  0  0  0  0  0
  151.4877  141.2330  157.3517 N   0  0  0  0  0  0  0  0  0  0  0  0
  151.6552  141.8612  158.6601 C   0  0  0  0  0  0  0  0  0  0  0  0
  152.2667  143.2562  158.5508 C   0  0  1  0  0  0  0  0  0  0  0  0
  151.3740  144.4589  158.2085 C   0  0  0  0  0  0  0  0  0  0  0  0
  152.2266  145.3156  159.1495 C   0  0  1  0  0  0  0  0  0  0  0  0
  151.5540  146.2690  159.9410 O   0  0  0  0  0  0  0  0  0  0  0  0
  152.6482  144.0100  159.8322 C   0  0  0  0  0  0  0  0  0  0  0  0
  151.9485  139.9088  157.1851 C   0  0  0  0  0  0  0  0  0  0  0  0
  152.8264  139.4401  158.1080 N   0  0  0  0  0  0  0  0  0  0  0  0
  153.2817  138.1703  157.9659 C   0  0  0  0  0  0  0  0  0  0  0  0
  152.9649  137.2755  156.9992 N   0  0  0  0  0  0  0  0  0  0  0  0
  152.0741  137.7186  156.0641 C   0  0  0  0  0  0  0  0  0  0  0  0
  151.5826  137.0440  155.0300 N   0  0  0  0  0  0  0  0  0  0  0  0
  150.7291  137.8749  154.4105 C   0  0  0  0  0  0  0  0  0  0  0  0
  150.6304  139.1714  155.0451 C   0  0  0  0  0  0  0  0  0  0  0  0
  151.5499  139.0340  156.1328 C   0  0  0  0  0  0  0  0  0  0  0  0
  153.1324  143.2555  157.8852 H   0  0  0  0  0  0  0  0  0  0  0  0
  153.0613  145.7860  158.6271 H   0  0  0  0  0  0  0  0  0  0  0  0
  150.6797  141.4123  155.4074 H   0  0  0  0  0  0  0  0  0  0  0  0
  150.6635  142.8881  156.3624 H   0  0  0  0  0  0  0  0  0  0  0  0
  149.5109  141.6075  156.7315 H   0  0  0  0  0  0  0  0  0  0  0  0
  150.7086  141.8980  159.1994 H   0  0  0  0  0  0  0  0  0  0  0  0
  152.3026  141.2228  159.2618 H   0  0  0  0  0  0  0  0  0  0  0  0
  151.4080  144.7584  157.1605 H   0  0  0  0  0  0  0  0  0  0  0  0
  150.3458  144.3395  158.5553 H   0  0  0  0  0  0  0  0  0  0  0  0
  150.7211  146.4352  159.5261 H   0  0  0  0  0  0  0  0  0  0  0  0
  152.0153  143.7517  160.6833 H   0  0  0  0  0  0  0  0  0  0  0  0
  153.7061  143.9519  160.0904 H   0  0  0  0  0  0  0  0  0  0  0  0
  153.9809  137.8309  158.7159 H   0  0  0  0  0  0  0  0  0  0  0  0
  150.1827  137.5631  153.5290 H   0  0  0  0  0  0  0  0  0  0  0  0
  150.0116  140.0105  154.7567 H   0  0  0  0  0  0  0  0  0  0  0  0
  153.3792  136.3547  157.0184 H   0  0  0  0  0  0  0  0  0  0  0  0
  1  2  1  0  0  0  0
  1 20  1  0  0  0  0
  1 21  1  0  0  0  0
  1 22  1  0  0  0  0
  2  3  1  0  0  0  0
  2  9  1  0  0  0  0
  3  4  1  0  0  0  0
  3 23  1  0  0  0  0
  3 24  1  0  0  0  0
  4 18  1  0  0  0  0
  4  8  1  0  0  0  0
  4  5  1  0  0  0  0
  5  6  1  0  0  0  0
  5 25  1  0  0  0  0
  5 26  1  0  0  0  0
  6 19  1  0  0  0  0
  6  7  1  0  0  0  0
  6  8  1  0  0  0  0
  7 27  1  0  0  0  0
  8 28  1  0  0  0  0
  8 29  1  0  0  0  0
  9 17  2  0  0  0  0
  9 10  1  0  0  0  0
 10 11  2  0  0  0  0
 11 12  1  0  0  0  0
 11 30  1  0  0  0  0
 12 13  1  0  0  0  0
 12 33  1  0  0  0  0
 13 17  1  0  0  0  0
 13 14  2  0  0  0  0
 14 15  1  0  0  0  0
 15 16  2  0  0  0  0
 15 31  1  0  0  0  0
 16 17  1  0  0  0  0
 16 32  1  0  0  0  0
M  END
> <s_m_source_file>
AV-unprocessed.smi

> <i_m_source_file_index>
3

> <i_lp_mmshare_version>
43012

> <i_f3d_flags>
0

> <s_epik_input>
W25IXTFbY0hdW2NIXWMoYzEyKWMobltjSF1uMilOKFtDSDNdKVtDSDJdW0NASF0zW0NIMl1bQ0BASF0oW09IXSlbQ0gyXTM=

> <s_epik_cmdline>
J2VwaWtfcHl0aG9uJywgJy1waCcsICc3LjAnLCAnLXRuJywgJzgnLCAnLW1hJywgJzIwMCcsICctbWV0YWxfYmluZGluZycsICctaW1hZScsICc8aW5maWxlLm1hZT4nLCAnLW9tYWUnLCAnPG91dGZpbGUubWFlPic=

> <r_lp_tautomer_probability>
1.75997e-05

> <r_epik_Ionization_Penalty>
5.52529

> <r_epik_Ionization_Penalty_Charging>
0

> <r_epik_Ionization_Penalty_Neutral>
5.52529

> <r_epik_State_Penalty>
8.99615

> <r_epik_Charging_Adjusted_Penalty>
8.99615

> <i_epik_Tot_Q>
0

> <i_epik_Tot_abs_Q>
0

> <r_epik_Metal_State_Penalty>
6.01519

> <b_epik_Metal_Only>
1

> <s_lp_Force_Field>
OPLS_2005

> <r_lp_Energy>
25.1021

> <b_lp_Chiralities_Consistent>
1

> <s_lp_Variant>
AV-unprocessed.smi:3-5

> <Gold.Version>
5.8.1

> <Gold.Id.Protein>
6NUR|6NUR_protein|mol2

> <Gold.PLP.Fitness>
45.1896

> <Gold.PLP.PLP>
-38.5337

> <Gold.PLP.part.hbond>
-4.0064

> <Gold.PLP.part.metal>
0.0000

> <Gold.PLP.part.buried>
-3.2447

> <Gold.PLP.part.nonpolar>
-30.8222

> <Gold.PLP.part.repulsive>
0.2859

> <Gold.PLP.ligand.clash>
0.9650

> <Gold.PLP.ligand.torsion>
0.2673

> <Gold.PLP.Chemscore.Hbond>
1.1500

> <Gold.PLP.Chemscore.CHOScore>
1.1428

> <Gold.PLP.Chemscore.Metal>
0.0000

> <Gold.Chemscore.Hbonds>
donor molecule, donor type, donor heavy atom, donor atom, acceptor molecule, acceptor atom, score
      P1  H  7997  8010       L1    10  0.14
      P1  H 10752 10763       L1    14  0.93
      L1  C    15    31       P1  7948  1.00
      L1  C    15    31       P1  7949  0.10

> <Gold.PLP.Chemscore.Internal.Correction>
1.2770

> <Gold.Rescore>
     Score         DG    S(hbond)    S(metal)    S(lipo)     H(rot)  DE(clash)    DE(int)     intcor
     11.79     -13.48       0.64        0.00      90.45       1.84       0.27       1.41       ----

> <Gold.Chemscore.Fitness>
11.7939

> <Gold.Chemscore.DG>
-13.4808

> <Gold.Chemscore.ZeroCoef>
-5.4800

> <Gold.Chemscore.Hbond>
0.6371

> <Gold.Chemscore.Metal>
0.0000

> <Gold.Chemscore.Lipo>
90.4483

> <Gold.Chemscore.Internal_Hbond>
0.0000

> <Gold.Chemscore.DEClash>
0.2727

> <Gold.Chemscore.DEInternal>
1.4142

> <Gold.Chemscore.Rot>
1.8396

> <Gold.Chemscore.Internal.Correction>
   9.000000E+99

> <Gold.Chemscore.Hbonds>
donor molecule, donor type, donor heavy atom, donor atom, acceptor molecule, acceptor atom, score
      P1  H 10752 10763       L1    14  0.66

> <Gold.Chemscore.Hbond.Weighted>
-2.1278

> <Gold.Chemscore.Metal.Weighted>
-0.0000

> <Gold.Chemscore.Lipo.Weighted>
-10.5824

> <Gold.Chemscore.Internal_Hbond.Weighted>
0.0000

> <Gold.Chemscore.DEClash.Weighted>
0.2727

> <Gold.Chemscore.DEInternal.Weighted>
1.4142

> <Gold.Chemscore.Rot.Weighted>
4.7095

> <Gold.Chemscore.Internal.Correction.Weighted>
   9.000000E+99

> <Gold.Protein.RotatedTorsions>
[ 6907 6896 6895 6894 ] final   -8.62 input  -60.11 | X-H torsion
[ 7974 7965 7964 7962 ] final -123.23 input  175.53 | X-H torsion
[ 8008 7997 7996 7995 ] final   24.71 input   59.86 | X-H torsion
[ 10167 10162 10161 10158 ] final -168.79 input  -65.29 | X-H torsion
[ 10718 10713 10712 10709 ] final  160.52 input   66.30 | X-H torsion
[ 10763 10752 10751 10750 ] final   43.44 input  -60.55 | X-H torsion
[ 11005 11000 10999 10996 ] final  -40.01 input  -57.11 | X-H torsion

> <Gold.Protein.ActiveResidues>
 VAL166  LYS551  ARG553  GLY616  TRP617  ASP618  TYR619  PRO620  LYS621  CYS622 
 ASP623  PHE694  ASN695  SER759  ASP760  ASP761  ALA762  ILE779  LEU786  VAL792 
 PHE793  MET794  SER795  GLU796  ALA797  LYS798  CYS799  TRP800  GLU811  SER814 

> <Gold.Protein.RotatedAtoms>
  151.4307  135.1009  159.9641 H   0  0  0  0  0  0  0  0  0  0  0  0  # atno 6907 bound_to 6896
  152.4957  133.8620  159.7265 H   0  0  0  0  0  0  0  0  0  0  0  0  # atno 6908 bound_to 6896
  150.9157  133.6884  159.2872 H   0  0  0  0  0  0  0  0  0  0  0  0  # atno 6909 bound_to 6896
  145.0209  140.7987  143.4381 H   0  0  0  0  0  0  0  0  0  0  0  0  # atno 7974 bound_to 7965
  155.0005  140.3124  155.4869 H   0  0  0  0  0  0  0  0  0  0  0  0  # atno 8008 bound_to 7997
  156.2926  140.2233  156.5055 H   0  0  0  0  0  0  0  0  0  0  0  0  # atno 8009 bound_to 7997
  154.7623  140.0458  157.0971 H   0  0  0  0  0  0  0  0  0  0  0  0  # atno 8010 bound_to 7997
  139.5963  144.1105  152.1693 H   0  0  0  0  0  0  0  0  0  0  0  0  # atno 10167 bound_to 10162
  157.1493  131.0560  151.2288 H   0  0  0  0  0  0  0  0  0  0  0  0  # atno 10718 bound_to 10713
  152.9860  135.6101  154.3112 H   0  0  0  0  0  0  0  0  0  0  0  0  # atno 10763 bound_to 10752
  154.2827  135.2776  155.2691 H   0  0  0  0  0  0  0  0  0  0  0  0  # atno 10764 bound_to 10752
  154.5023  135.5863  153.6597 H   0  0  0  0  0  0  0  0  0  0  0  0  # atno 10765 bound_to 10752
  141.0143  133.6893  156.2263 H   0  0  0  0  0  0  0  0  0  0  0  0  # atno 11005 bound_to 11000
  145.1897  139.2307  143.5249 LP  0  0  0  0  0  0  0  0  0  0  0  0  # atno 17320 bound_to 7965
  146.3485  140.1690  142.8590 LP  0  0  0  0  0  0  0  0  0  0  0  0  # atno 17321 bound_to 7965
  140.0691  144.5794  150.7205 LP  0  0  0  0  0  0  0  0  0  0  0  0  # atno 17342 bound_to 10162
  140.7214  143.2593  151.4265 LP  0  0  0  0  0  0  0  0  0  0  0  0  # atno 17343 bound_to 10162
  157.4235  130.7451  149.6932 LP  0  0  0  0  0  0  0  0  0  0  0  0  # atno 17370 bound_to 10713
  155.9773  130.4064  150.3718 LP  0  0  0  0  0  0  0  0  0  0  0  0  # atno 17371 bound_to 10713
  140.6680  134.4897  157.5586 LP  0  0  0  0  0  0  0  0  0  0  0  0  # atno 17394 bound_to 11000
  139.9108  134.8349  156.1536 LP  0  0  0  0  0  0  0  0  0  0  0  0  # atno 17395 bound_to 11000

$$$$
