AV-unprocessed.smi:1809|AV-procd|sdf|7323|dock1
  -GOLD-   22720 8583D 1   1.00000     0.00000
 Structure written by MMmdl.
 39 41  0  0  0  0  0  0  0  0  3 V2000
  151.5025  140.7897  156.7408 C   0  0  0  0  0  0  0  0  0  0  0  0
  151.3104  139.6017  155.8619 C   0  0  0  0  0  0  0  0  0  0  0  0
  151.0009  139.7039  154.5670 N   0  0  0  0  0  0  0  0  0  0  0  0
  150.8730  138.4623  153.9607 N   0  0  0  0  0  0  0  0  0  0  0  0
  151.0768  137.4414  154.8053 C   0  0  0  0  0  0  0  0  0  0  0  0
  151.0029  136.1576  154.4165 N   0  5  0  0  0  0  0  0  0  0  0  0
  150.2429  135.2837  155.1138 C   0  0  0  0  0  0  0  0  0  0  0  0
  150.4972  134.8154  156.2258 O   0  0  0  0  0  0  0  0  0  0  0  0
  149.1178  134.9271  154.4821 N   0  0  0  0  0  0  0  0  0  0  0  0
  148.1249  133.9958  155.0000 C   0  0  0  0  0  0  0  0  0  0  0  0
  147.2361  133.4667  153.8664 C   0  0  2  0  0  0  0  0  0  0  0  0
  148.0074  132.5115  152.9348 C   0  0  0  0  0  0  0  0  0  0  0  0
  147.2032  132.1159  151.7550 N   0  3  1  0  0  0  0  0  0  0  0  0
  146.2115  131.0384  151.9635 C   0  0  0  0  0  0  0  0  0  0  0  0
  145.0746  131.3000  150.9626 C   0  0  0  0  0  0  0  0  0  0  0  0
  145.4985  132.5445  150.1745 C   0  0  0  0  0  0  0  0  0  0  0  0
  146.5181  133.2372  151.0803 C   0  0  1  0  0  0  0  0  0  0  0  0
  145.8480  134.1826  152.1020 C   0  0  0  0  0  0  0  0  0  0  0  0
  146.7855  134.5743  153.0939 O   0  0  0  0  0  0  0  0  0  0  0  0
  151.4704  137.9540  156.4460 S   0  0  0  0  0  0  0  0  0  0  0  0
  150.5369  141.2328  156.9843 H   0  0  0  0  0  0  0  0  0  0  0  0
  152.1160  141.5365  156.2360 H   0  0  0  0  0  0  0  0  0  0  0  0
  151.9987  140.4998  157.6673 H   0  0  0  0  0  0  0  0  0  0  0  0
  148.9458  135.3293  153.5724 H   0  0  0  0  0  0  0  0  0  0  0  0
  148.6198  133.1667  155.5089 H   0  0  0  0  0  0  0  0  0  0  0  0
  147.5163  134.5137  155.7428 H   0  0  0  0  0  0  0  0  0  0  0  0
  146.3805  132.9496  154.3047 H   0  0  0  0  0  0  0  0  0  0  0  0
  148.9051  133.0119  152.5698 H   0  0  0  0  0  0  0  0  0  0  0  0
  148.3418  131.6230  153.4720 H   0  0  0  0  0  0  0  0  0  0  0  0
  146.6794  130.0665  151.8047 H   0  0  0  0  0  0  0  0  0  0  0  0
  145.8217  131.0560  152.9820 H   0  0  0  0  0  0  0  0  0  0  0  0
  144.9018  130.4477  150.3046 H   0  0  0  0  0  0  0  0  0  0  0  0
  144.1452  131.4928  151.5001 H   0  0  0  0  0  0  0  0  0  0  0  0
  145.9860  132.2370  149.2484 H   0  0  0  0  0  0  0  0  0  0  0  0
  144.6574  133.1848  149.9057 H   0  0  0  0  0  0  0  0  0  0  0  0
  147.2433  133.8023  150.4933 H   0  0  0  0  0  0  0  0  0  0  0  0
  145.4769  135.0745  151.5967 H   0  0  0  0  0  0  0  0  0  0  0  0
  144.9857  133.7132  152.5783 H   0  0  0  0  0  0  0  0  0  0  0  0
  147.8516  131.7431  151.0761 H   0  0  0  0  0  0  0  0  0  0  0  0
  1  2  1  0  0  0  0
  1 21  1  0  0  0  0
  1 22  1  0  0  0  0
  1 23  1  0  0  0  0
  2 20  1  0  0  0  0
  2  3  2  0  0  0  0
  3  4  1  0  0  0  0
  4  5  2  0  0  0  0
  5  6  1  0  0  0  0
  5 20  1  0  0  0  0
  6  7  1  0  0  0  0
  7  8  2  0  0  0  0
  7  9  1  0  0  0  0
  9 10  1  0  0  0  0
  9 24  1  0  0  0  0
 10 11  1  0  0  0  0
 10 25  1  0  0  0  0
 10 26  1  0  0  0  0
 11 19  1  0  0  0  0
 11 12  1  0  0  0  0
 11 27  1  0  0  0  0
 12 13  1  0  0  0  0
 12 28  1  0  0  0  0
 12 29  1  0  0  0  0
 13 17  1  0  0  0  0
 13 14  1  0  0  0  0
 13 39  1  0  0  0  0
 14 15  1  0  0  0  0
 14 30  1  0  0  0  0
 14 31  1  0  0  0  0
 15 16  1  0  0  0  0
 15 32  1  0  0  0  0
 15 33  1  0  0  0  0
 16 17  1  0  0  0  0
 16 34  1  0  0  0  0
 16 35  1  0  0  0  0
 17 18  1  0  0  0  0
 17 36  1  0  0  0  0
 18 19  1  0  0  0  0
 18 37  1  0  0  0  0
 18 38  1  0  0  0  0
M  CHG  1   6  -1
M  CHG  1  13   1
M  END
> <s_m_source_file>
AV-unprocessed.smi

> <i_m_source_file_index>
1809

> <i_lp_mmshare_version>
43012

> <i_f3d_flags>
0

> <s_epik_input>
W0NIM11jMW5uYyhzMSlbTkhdQyg9TylbTkhdW0NIMl1bQ0BIXShbQ0gyXTIpT1tDSDJdW0NAQEhdKE4yMylbQ0gyXVtDSDJdW0NIMl0z

> <s_epik_cmdline>
J2VwaWtfcHl0aG9uJywgJy1waCcsICc3LjAnLCAnLXRuJywgJzgnLCAnLW1hJywgJzIwMCcsICctbWV0YWxfYmluZGluZycsICctaW1hZScsICc8aW5maWxlLm1hZT4nLCAnLW9tYWUnLCAnPG91dGZpbGUubWFlPic=

> <r_lp_tautomer_probability>
1

> <r_epik_Ionization_Penalty>
3.2601

> <r_epik_Ionization_Penalty_Charging>
3.1406

> <r_epik_Ionization_Penalty_Neutral>
0.119497

> <r_epik_State_Penalty>
3.08894

> <r_epik_Charging_Adjusted_Penalty>
6.22954

> <i_epik_Tot_Q>
0

> <i_epik_Tot_abs_Q>
2

> <r_epik_Metal_State_Penalty>
0.510807

> <b_epik_Metal_Only>
1

> <s_lp_Force_Field>
OPLS_2005

> <r_lp_Energy>
30.6493

> <b_lp_Chiralities_Consistent>
1

> <s_lp_Variant>
AV-unprocessed.smi:1809-15

> <Gold.Version>
5.8.1

> <Gold.Id.Protein>
6NUR|6NUR_protein|mol2

> <Gold.PLP.Fitness>
42.4704

> <Gold.PLP.PLP>
-30.0868

> <Gold.PLP.part.hbond>
-4.0000

> <Gold.PLP.part.metal>
0.0000

> <Gold.PLP.part.buried>
-5.6797

> <Gold.PLP.part.nonpolar>
-22.6547

> <Gold.PLP.part.repulsive>
2.8684

> <Gold.PLP.ligand.clash>
0.0000

> <Gold.PLP.ligand.torsion>
1.3299

> <Gold.PLP.Chemscore.Hbond>
5.0000

> <Gold.PLP.Chemscore.CHOScore>
0.0000

> <Gold.PLP.Chemscore.Metal>
0.0000

> <Gold.Chemscore.Hbonds>
donor molecule, donor type, donor heavy atom, donor atom, acceptor molecule, acceptor atom, score
      L1  H     9    24       P1  7948  1.00
      L1  H    13    39       P1 10747  1.00
      P1  H  7989  7998       L1     3  1.00
      P1  H 10752 10764       L1     6  2.00

> <Gold.PLP.Chemscore.Internal.Correction>
0.0434

> <Gold.Rescore>
     Score         DG    S(hbond)    S(metal)    S(lipo)     H(rot)  DE(clash)    DE(int)     intcor
     18.54     -20.76       3.23        0.00      67.33       1.32       1.11       1.11       ----

> <Gold.Chemscore.Fitness>
18.5438

> <Gold.Chemscore.DG>
-20.7641

> <Gold.Chemscore.ZeroCoef>
-5.4800

> <Gold.Chemscore.Hbond>
3.2329

> <Gold.Chemscore.Metal>
0.0000

> <Gold.Chemscore.Lipo>
67.3268

> <Gold.Chemscore.Internal_Hbond>
0.0000

> <Gold.Chemscore.DEClash>
1.1109

> <Gold.Chemscore.DEInternal>
1.1094

> <Gold.Chemscore.Rot>
1.3246

> <Gold.Chemscore.Internal.Correction>
   9.000000E+99

> <Gold.Chemscore.Hbonds>
donor molecule, donor type, donor heavy atom, donor atom, acceptor molecule, acceptor atom, score
      L1  H     9    24       P1  7948  0.70
      L1  H    13    39       P1 10747  1.00
      P1  H  7989  7998       L1     3  0.78
      P1  H 10752 10764       L1     6  0.28

> <Gold.Chemscore.Hbond.Weighted>
-10.7978

> <Gold.Chemscore.Metal.Weighted>
-0.0000

> <Gold.Chemscore.Lipo.Weighted>
-7.8772

> <Gold.Chemscore.Internal_Hbond.Weighted>
0.0000

> <Gold.Chemscore.DEClash.Weighted>
1.1109

> <Gold.Chemscore.DEInternal.Weighted>
1.1094

> <Gold.Chemscore.Rot.Weighted>
3.3910

> <Gold.Chemscore.Internal.Correction.Weighted>
   9.000000E+99

> <Gold.Protein.RotatedTorsions>
[ 6907 6896 6895 6894 ] final  -24.69 input  -60.11 | X-H torsion
[ 7974 7965 7964 7962 ] final -162.44 input  175.53 | X-H torsion
[ 8008 7997 7996 7995 ] final   69.56 input   59.86 | X-H torsion
[ 10167 10162 10161 10158 ] final  -59.81 input  -65.29 | X-H torsion
[ 10718 10713 10712 10709 ] final -164.89 input   66.30 | X-H torsion
[ 10763 10752 10751 10750 ] final  -72.48 input  -60.55 | X-H torsion
[ 11005 11000 10999 10996 ] final  -38.34 input  -57.11 | X-H torsion

> <Gold.Protein.ActiveResidues>
 VAL166  LYS551  ARG553  GLY616  TRP617  ASP618  TYR619  PRO620  LYS621  CYS622 
 ASP623  PHE694  ASN695  SER759  ASP760  ASP761  ALA762  ILE779  LEU786  VAL792 
 PHE793  MET794  SER795  GLU796  ALA797  LYS798  CYS799  TRP800  GLU811  SER814 

> <Gold.Protein.RotatedAtoms>
  151.1859  135.0381  159.8811 H   0  0  0  0  0  0  0  0  0  0  0  0  # atno 6907 bound_to 6896
  152.5442  134.1010  159.8328 H   0  0  0  0  0  0  0  0  0  0  0  0  # atno 6908 bound_to 6896
  151.1133  133.5110  159.2637 H   0  0  0  0  0  0  0  0  0  0  0  0  # atno 6909 bound_to 6896
  144.7357  140.3253  143.6163 H   0  0  0  0  0  0  0  0  0  0  0  0  # atno 7974 bound_to 7965
  155.7255  140.3492  155.5035 H   0  0  0  0  0  0  0  0  0  0  0  0  # atno 8008 bound_to 7997
  155.9231  140.1070  157.1213 H   0  0  0  0  0  0  0  0  0  0  0  0  # atno 8009 bound_to 7997
  154.4073  140.1246  156.4691 H   0  0  0  0  0  0  0  0  0  0  0  0  # atno 8010 bound_to 7997
  140.6111  143.2387  151.5706 H   0  0  0  0  0  0  0  0  0  0  0  0  # atno 10167 bound_to 10162
  156.6456  130.8986  151.3004 H   0  0  0  0  0  0  0  0  0  0  0  0  # atno 10718 bound_to 10713
  154.4463  135.5928  153.6162 H   0  0  0  0  0  0  0  0  0  0  0  0  # atno 10763 bound_to 10752
  152.9809  135.6010  154.3660 H   0  0  0  0  0  0  0  0  0  0  0  0  # atno 10764 bound_to 10752
  154.3516  135.2841  155.2348 H   0  0  0  0  0  0  0  0  0  0  0  0  # atno 10765 bound_to 10752
  141.0020  133.6950  156.2040 H   0  0  0  0  0  0  0  0  0  0  0  0  # atno 11005 bound_to 11000
  145.7527  139.1799  143.2312 LP  0  0  0  0  0  0  0  0  0  0  0  0  # atno 17320 bound_to 7965
  146.1048  140.7500  142.9531 LP  0  0  0  0  0  0  0  0  0  0  0  0  # atno 17321 bound_to 7965
  139.5362  144.2774  152.1256 LP  0  0  0  0  0  0  0  0  0  0  0  0  # atno 17342 bound_to 10162
  140.1974  144.4692  150.6448 LP  0  0  0  0  0  0  0  0  0  0  0  0  # atno 17343 bound_to 10162
  157.7157  130.9494  150.1248 LP  0  0  0  0  0  0  0  0  0  0  0  0  # atno 17370 bound_to 10713
  156.2125  130.3668  149.8653 LP  0  0  0  0  0  0  0  0  0  0  0  0  # atno 17371 bound_to 10713
  140.6873  134.4703  157.5589 LP  0  0  0  0  0  0  0  0  0  0  0  0  # atno 17394 bound_to 11000
  139.9044  134.8483  156.1766 LP  0  0  0  0  0  0  0  0  0  0  0  0  # atno 17395 bound_to 11000

$$$$
