AV-unprocessed.smi:1560|AV-procd|sdf|6280|dock10
  -GOLD-   22720 6473D 1   1.00000     0.00000
 Structure written by MMmdl.
 46 47  0  0  0  0  0  0  0  0  2 V2000
  149.5170  140.9634  154.7503 C   0  0  0  0  0  0  0  0  0  0  0  0
  150.4294  141.5549  155.8400 C   0  0  0  0  0  0  0  0  0  0  0  0
  149.9050  141.4311  157.3068 C   0  0  2  0  0  0  0  0  0  0  0  0
  149.8871  139.9135  157.6350 C   0  0  0  0  0  0  0  0  0  0  0  0
  148.4333  141.9577  157.3653 C   0  0  0  0  0  0  0  0  0  0  0  0
  147.8996  142.0579  158.7229 N   0  0  0  0  0  0  0  0  0  0  0  0
  146.7657  141.4928  159.1639 C   0  0  0  0  0  0  0  0  0  0  0  0
  145.9923  140.8645  158.4405 O   0  0  0  0  0  0  0  0  0  0  0  0
  146.4574  141.6671  160.6547 C   0  0  0  0  0  0  0  0  0  0  0  0
  146.3192  143.0860  161.0165 N   0  0  0  0  0  0  0  0  0  0  0  0
  145.1022  143.7240  160.7192 C   0  0  0  0  0  0  0  0  0  0  0  0
  144.8839  145.0162  161.0292 C   0  0  0  0  0  0  0  0  0  0  0  0
  145.9507  145.7573  161.6912 C   0  0  0  0  0  0  0  0  0  0  0  0
  145.7700  146.9387  161.9796 O   0  0  0  0  0  0  0  0  0  0  0  0
  147.1123  145.0930  161.9611 N   0  5  0  0  0  0  0  0  0  0  0  0
  147.3195  143.7778  161.6424 C   0  0  0  0  0  0  0  0  0  0  0  0
  148.3743  143.1960  161.9000 O   0  0  0  0  0  0  0  0  0  0  0  0
  150.7961  142.1603  158.2534 N   0  0  0  0  0  0  0  0  0  0  0  0
  150.8999  143.6069  158.0288 C   0  0  0  0  0  0  0  0  0  0  0  0
  151.7177  144.3041  159.1296 C   0  0  0  0  0  0  0  0  0  0  0  0
  153.0100  143.7153  159.2150 O   0  0  0  0  0  0  0  0  0  0  0  0
  152.9539  142.3202  159.4882 C   0  0  0  0  0  0  0  0  0  0  0  0
  152.1506  141.6098  158.3859 C   0  0  0  0  0  0  0  0  0  0  0  0
  149.9685  141.0939  153.7667 H   0  0  0  0  0  0  0  0  0  0  0  0
  148.5450  141.4553  154.7267 H   0  0  0  0  0  0  0  0  0  0  0  0
  149.3512  139.8957  154.8917 H   0  0  0  0  0  0  0  0  0  0  0  0
  151.4190  141.1059  155.7536 H   0  0  0  0  0  0  0  0  0  0  0  0
  150.5852  142.6036  155.5870 H   0  0  0  0  0  0  0  0  0  0  0  0
  149.4424  139.3255  156.8309 H   0  0  0  0  0  0  0  0  0  0  0  0
  149.3060  139.6960  158.5313 H   0  0  0  0  0  0  0  0  0  0  0  0
  150.8925  139.5242  157.7970 H   0  0  0  0  0  0  0  0  0  0  0  0
  148.3696  142.9611  156.9468 H   0  0  0  0  0  0  0  0  0  0  0  0
  147.7727  141.3415  156.7553 H   0  0  0  0  0  0  0  0  0  0  0  0
  148.4684  142.5501  159.3965 H   0  0  0  0  0  0  0  0  0  0  0  0
  145.5535  141.1175  160.9256 H   0  0  0  0  0  0  0  0  0  0  0  0
  147.2600  141.1999  161.2270 H   0  0  0  0  0  0  0  0  0  0  0  0
  144.3625  143.1025  160.2362 H   0  0  0  0  0  0  0  0  0  0  0  0
  143.9418  145.4909  160.7975 H   0  0  0  0  0  0  0  0  0  0  0  0
  151.3704  143.8084  157.0665 H   0  0  0  0  0  0  0  0  0  0  0  0
  149.9148  144.0692  158.0031 H   0  0  0  0  0  0  0  0  0  0  0  0
  151.8252  145.3657  158.9061 H   0  0  0  0  0  0  0  0  0  0  0  0
  151.2110  144.2291  160.0930 H   0  0  0  0  0  0  0  0  0  0  0  0
  153.9688  141.9248  159.5319 H   0  0  0  0  0  0  0  0  0  0  0  0
  152.5011  142.1503  160.4665 H   0  0  0  0  0  0  0  0  0  0  0  0
  152.1207  140.5491  158.6271 H   0  0  0  0  0  0  0  0  0  0  0  0
  152.6919  141.7046  157.4449 H   0  0  0  0  0  0  0  0  0  0  0  0
  1  2  1  0  0  0  0
  1 24  1  0  0  0  0
  1 25  1  0  0  0  0
  1 26  1  0  0  0  0
  2  3  1  0  0  0  0
  2 27  1  0  0  0  0
  2 28  1  0  0  0  0
  3  4  1  0  0  0  0
  3  5  1  0  0  0  0
  3 18  1  0  0  0  0
  4 29  1  0  0  0  0
  4 30  1  0  0  0  0
  4 31  1  0  0  0  0
  5  6  1  0  0  0  0
  5 32  1  0  0  0  0
  5 33  1  0  0  0  0
  6  7  1  0  0  0  0
  6 34  1  0  0  0  0
  7  8  2  0  0  0  0
  7  9  1  0  0  0  0
  9 10  1  0  0  0  0
  9 35  1  0  0  0  0
  9 36  1  0  0  0  0
 10 16  1  0  0  0  0
 10 11  1  0  0  0  0
 11 12  2  0  0  0  0
 11 37  1  0  0  0  0
 12 13  1  0  0  0  0
 12 38  1  0  0  0  0
 13 14  2  0  0  0  0
 13 15  1  0  0  0  0
 15 16  1  0  0  0  0
 16 17  2  0  0  0  0
 18 23  1  0  0  0  0
 18 19  1  0  0  0  0
 19 20  1  0  0  0  0
 19 39  1  0  0  0  0
 19 40  1  0  0  0  0
 20 21  1  0  0  0  0
 20 41  1  0  0  0  0
 20 42  1  0  0  0  0
 21 22  1  0  0  0  0
 22 23  1  0  0  0  0
 22 43  1  0  0  0  0
 22 44  1  0  0  0  0
 23 45  1  0  0  0  0
 23 46  1  0  0  0  0
M  CHG  1  15  -1
M  END
> <s_m_source_file>
AV-unprocessed.smi

> <i_m_source_file_index>
1560

> <i_lp_mmshare_version>
43012

> <i_f3d_flags>
0

> <s_epik_input>
W0NIMl0xW0NIMl1PW0NIMl1bQ0gyXU4xW0NAQF0oW0NIM10pKFtDSDJdW0NIM10pW0NIMl1bTkhdQyg9TylbQ0gyXW4yW2NIXVtjSF1jKD1PKVtuSF1jMj1P

> <s_epik_cmdline>
J2VwaWtfcHl0aG9uJywgJy1waCcsICc3LjAnLCAnLXRuJywgJzgnLCAnLW1hJywgJzIwMCcsICctbWV0YWxfYmluZGluZycsICctaW1hZScsICc8aW5maWxlLm1hZT4nLCAnLW9tYWUnLCAnPG91dGZpbGUubWFlPic=

> <r_lp_tautomer_probability>
0.999537

> <r_epik_Ionization_Penalty>
3.35108

> <r_epik_Ionization_Penalty_Charging>
2.65778e-08

> <r_epik_Ionization_Penalty_Neutral>
3.35108

> <r_epik_State_Penalty>
3.36199

> <r_epik_Charging_Adjusted_Penalty>
3.36199

> <i_epik_Tot_Q>
-1

> <i_epik_Tot_abs_Q>
1

> <r_epik_Metal_State_Penalty>
0.748914

> <b_epik_Metal_Only>
1

> <s_lp_Force_Field>
OPLS_2005

> <r_lp_Energy>
50.983

> <b_lp_Chiralities_Consistent>
1

> <s_lp_Variant>
AV-unprocessed.smi:1560-6

> <Gold.Version>
5.8.1

> <Gold.Id.Protein>
6NUR|6NUR_protein|mol2

> <Gold.PLP.Fitness>
40.1106

> <Gold.PLP.PLP>
-37.8911

> <Gold.PLP.part.hbond>
-5.3587

> <Gold.PLP.part.metal>
0.0000

> <Gold.PLP.part.buried>
-3.5106

> <Gold.PLP.part.nonpolar>
-29.9684

> <Gold.PLP.part.repulsive>
0.7423

> <Gold.PLP.ligand.clash>
0.0000

> <Gold.PLP.ligand.torsion>
0.4414

> <Gold.PLP.Chemscore.Hbond>
0.9913

> <Gold.PLP.Chemscore.CHOScore>
0.0000

> <Gold.PLP.Chemscore.Metal>
0.0000

> <Gold.PLP.Chemscore.Internal.Correction>
0.1285

> <Gold.Rescore>
     Score         DG    S(hbond)    S(metal)    S(lipo)     H(rot)  DE(clash)    DE(int)     intcor
     10.66     -11.00       1.00        0.00      71.56       2.42       0.03       0.30       ----

> <Gold.Chemscore.Fitness>
10.6597

> <Gold.Chemscore.DG>
-10.9977

> <Gold.Chemscore.ZeroCoef>
-5.4800

> <Gold.Chemscore.Hbond>
1.0000

> <Gold.Chemscore.Metal>
0.0000

> <Gold.Chemscore.Lipo>
71.5556

> <Gold.Chemscore.Internal_Hbond>
0.0000

> <Gold.Chemscore.DEClash>
0.0343

> <Gold.Chemscore.DEInternal>
0.3037

> <Gold.Chemscore.Rot>
2.4197

> <Gold.Chemscore.Internal.Correction>
   9.000000E+99

> <Gold.Chemscore.Hbond.Weighted>
-3.3400

> <Gold.Chemscore.Metal.Weighted>
-0.0000

> <Gold.Chemscore.Lipo.Weighted>
-8.3720

> <Gold.Chemscore.Internal_Hbond.Weighted>
0.0000

> <Gold.Chemscore.DEClash.Weighted>
0.0343

> <Gold.Chemscore.DEInternal.Weighted>
0.3037

> <Gold.Chemscore.Rot.Weighted>
6.1943

> <Gold.Chemscore.Internal.Correction.Weighted>
   9.000000E+99

> <Gold.Protein.RotatedTorsions>
[ 6907 6896 6895 6894 ] final  -87.70 input  -60.11 | X-H torsion
[ 7974 7965 7964 7962 ] final -163.40 input  175.53 | X-H torsion
[ 8008 7997 7996 7995 ] final    3.72 input   59.86 | X-H torsion
[ 10167 10162 10161 10158 ] final -165.07 input  -65.29 | X-H torsion
[ 10718 10713 10712 10709 ] final    0.29 input   66.30 | X-H torsion
[ 10763 10752 10751 10750 ] final   65.71 input  -60.55 | X-H torsion
[ 11005 11000 10999 10996 ] final -115.96 input  -57.11 | X-H torsion

> <Gold.Protein.ActiveResidues>
 VAL166  LYS551  ARG553  GLY616  TRP617  ASP618  TYR619  PRO620  LYS621  CYS622 
 ASP623  PHE694  ASN695  SER759  ASP760  ASP761  ALA762  ILE779  LEU786  VAL792 
 PHE793  MET794  SER795  GLU796  ALA797  LYS798  CYS799  TRP800  GLU811  SER814 

> <Gold.Protein.RotatedAtoms>
  150.6867  134.2855  159.4644 H   0  0  0  0  0  0  0  0  0  0  0  0  # atno 6907 bound_to 6896
  152.0765  134.9497  160.0583 H   0  0  0  0  0  0  0  0  0  0  0  0  # atno 6908 bound_to 6896
  152.0866  133.4145  159.4562 H   0  0  0  0  0  0  0  0  0  0  0  0  # atno 6909 bound_to 6896
  144.7327  140.3113  143.6187 H   0  0  0  0  0  0  0  0  0  0  0  0  # atno 7974 bound_to 7965
  154.7071  140.2685  155.6664 H   0  0  0  0  0  0  0  0  0  0  0  0  # atno 8008 bound_to 7997
  156.2784  140.2760  156.1625 H   0  0  0  0  0  0  0  0  0  0  0  0  # atno 8009 bound_to 7997
  155.0685  140.0372  157.2590 H   0  0  0  0  0  0  0  0  0  0  0  0  # atno 8010 bound_to 7997
  139.6207  144.0631  152.1930 H   0  0  0  0  0  0  0  0  0  0  0  0  # atno 10167 bound_to 10162
  156.8312  130.5489  149.5686 H   0  0  0  0  0  0  0  0  0  0  0  0  # atno 10718 bound_to 10713
  153.0108  135.5347  154.6709 H   0  0  0  0  0  0  0  0  0  0  0  0  # atno 10763 bound_to 10752
  154.5894  135.2857  155.0653 H   0  0  0  0  0  0  0  0  0  0  0  0  # atno 10764 bound_to 10752
  154.1752  135.6525  153.5072 H   0  0  0  0  0  0  0  0  0  0  0  0  # atno 10765 bound_to 10752
  141.0454  133.9771  157.2926 H   0  0  0  0  0  0  0  0  0  0  0  0  # atno 11005 bound_to 11000
  145.7662  139.1841  143.2238 LP  0  0  0  0  0  0  0  0  0  0  0  0  # atno 17320 bound_to 7965
  146.0947  140.7615  142.9578 LP  0  0  0  0  0  0  0  0  0  0  0  0  # atno 17321 bound_to 7965
  140.0272  144.6109  150.7518 LP  0  0  0  0  0  0  0  0  0  0  0  0  # atno 17342 bound_to 10162
  140.7380  143.2772  151.3705 LP  0  0  0  0  0  0  0  0  0  0  0  0  # atno 17343 bound_to 10162
  156.0933  130.5913  150.9770 LP  0  0  0  0  0  0  0  0  0  0  0  0  # atno 17370 bound_to 10713
  157.6406  131.0911  150.8260 LP  0  0  0  0  0  0  0  0  0  0  0  0  # atno 17371 bound_to 10713
  139.9307  135.0200  156.8391 LP  0  0  0  0  0  0  0  0  0  0  0  0  # atno 17394 bound_to 11000
  140.6157  134.0041  155.7596 LP  0  0  0  0  0  0  0  0  0  0  0  0  # atno 17395 bound_to 11000

$$$$
