AV-unprocessed.smi:2355|AV-procd|sdf|9391|dock1
  -GOLD-   2272013 23D 1   1.00000     0.00000
 Structure written by MMmdl.
 49 50  0  0  0  0  0  0  0  0  2 V2000
  151.8975  145.9493  160.3708 C   0  0  0  0  0  0  0  0  0  0  0  0
  151.8922  144.5510  159.7898 C   0  0  0  0  0  0  0  0  0  0  0  0
  152.6534  143.5222  160.3765 C   0  0  0  0  0  0  0  0  0  0  0  0
  152.6070  142.2429  159.7887 C   0  0  0  0  0  0  0  0  0  0  0  0
  153.4045  141.0924  160.3652 C   0  0  0  0  0  0  0  0  0  0  0  0
  151.8702  141.9620  158.6926 N   0  0  0  0  0  0  0  0  0  0  0  0
  151.1331  142.9449  158.1188 C   0  0  0  0  0  0  0  0  0  0  0  0
  150.3266  142.7524  156.9654 N   0  0  0  0  0  0  0  0  0  0  0  0
  150.0949  141.6089  156.2967 C   0  0  0  0  0  0  0  0  0  0  0  0
  150.5637  140.5067  156.5826 O   0  0  0  0  0  0  0  0  0  0  0  0
  149.2700  141.8098  155.2580 N   0  0  0  0  0  0  0  0  0  0  0  0
  148.8183  140.7744  154.3291 C   0  0  2  0  0  0  0  0  0  0  0  0
  147.7431  141.3743  153.4059 C   0  0  0  0  0  0  0  0  0  0  0  0
  148.3443  139.4899  155.0791 C   0  0  1  0  0  0  0  0  0  0  0  0
  147.1885  138.7862  154.3227 C   0  0  0  0  0  0  0  0  0  0  0  0
  149.4988  138.5828  155.3920 N   0  3  0  0  0  0  0  0  0  0  0  0
  149.0652  137.2111  155.7767 C   0  0  0  0  0  0  0  0  0  0  0  0
  150.2665  136.3326  156.1614 C   0  0  0  0  0  0  0  0  0  0  0  0
  151.1830  136.2796  155.0788 O   0  0  0  0  0  0  0  0  0  0  0  0
  151.6944  137.5670  154.7693 C   0  0  0  0  0  0  0  0  0  0  0  0
  150.5464  138.4950  154.3369 C   0  0  0  0  0  0  0  0  0  0  0  0
  151.1219  144.2558  158.6467 C   0  0  0  0  0  0  0  0  0  0  0  0
  152.5852  146.0255  161.2137 H   0  0  0  0  0  0  0  0  0  0  0  0
  150.9000  146.2174  160.7193 H   0  0  0  0  0  0  0  0  0  0  0  0
  152.2044  146.6723  159.6148 H   0  0  0  0  0  0  0  0  0  0  0  0
  153.2573  143.7081  161.2528 H   0  0  0  0  0  0  0  0  0  0  0  0
  153.8035  141.3427  161.3487 H   0  0  0  0  0  0  0  0  0  0  0  0
  154.2404  140.8478  159.7091 H   0  0  0  0  0  0  0  0  0  0  0  0
  152.7778  140.2062  160.4695 H   0  0  0  0  0  0  0  0  0  0  0  0
  149.8742  143.5817  156.6104 H   0  0  0  0  0  0  0  0  0  0  0  0
  148.9326  142.7471  155.0939 H   0  0  0  0  0  0  0  0  0  0  0  0
  149.6760  140.5394  153.7000 H   0  0  0  0  0  0  0  0  0  0  0  0
  147.4143  140.6558  152.6550 H   0  0  0  0  0  0  0  0  0  0  0  0
  148.1307  142.2426  152.8720 H   0  0  0  0  0  0  0  0  0  0  0  0
  146.8651  141.7009  153.9635 H   0  0  0  0  0  0  0  0  0  0  0  0
  147.9245  139.7958  156.0388 H   0  0  0  0  0  0  0  0  0  0  0  0
  146.3859  139.4792  154.0721 H   0  0  0  0  0  0  0  0  0  0  0  0
  146.7240  138.0073  154.9275 H   0  0  0  0  0  0  0  0  0  0  0  0
  147.5297  138.3310  153.3928 H   0  0  0  0  0  0  0  0  0  0  0  0
  148.3809  137.2358  156.6220 H   0  0  0  0  0  0  0  0  0  0  0  0
  148.5258  136.7527  154.9463 H   0  0  0  0  0  0  0  0  0  0  0  0
  150.7588  136.7127  157.0579 H   0  0  0  0  0  0  0  0  0  0  0  0
  149.9322  135.3200  156.3880 H   0  0  0  0  0  0  0  0  0  0  0  0
  152.2253  137.9781  155.6296 H   0  0  0  0  0  0  0  0  0  0  0  0
  152.4226  137.4720  153.9635 H   0  0  0  0  0  0  0  0  0  0  0  0
  150.1028  138.1337  153.4077 H   0  0  0  0  0  0  0  0  0  0  0  0
  150.9793  139.4743  154.1353 H   0  0  0  0  0  0  0  0  0  0  0  0
  150.5300  145.0304  158.1806 H   0  0  0  0  0  0  0  0  0  0  0  0
  149.9569  138.9815  156.1990 H   0  0  0  0  0  0  0  0  0  0  0  0
  1  2  1  0  0  0  0
  1 23  1  0  0  0  0
  1 24  1  0  0  0  0
  1 25  1  0  0  0  0
  2 22  1  0  0  0  0
  2  3  2  0  0  0  0
  3  4  1  0  0  0  0
  3 26  1  0  0  0  0
  4  5  1  0  0  0  0
  4  6  2  0  0  0  0
  5 27  1  0  0  0  0
  5 28  1  0  0  0  0
  5 29  1  0  0  0  0
  6  7  1  0  0  0  0
  7  8  1  0  0  0  0
  7 22  2  0  0  0  0
  8  9  1  0  0  0  0
  8 30  1  0  0  0  0
  9 10  2  0  0  0  0
  9 11  1  0  0  0  0
 11 12  1  0  0  0  0
 11 31  1  0  0  0  0
 12 13  1  0  0  0  0
 12 14  1  0  0  0  0
 12 32  1  0  0  0  0
 13 33  1  0  0  0  0
 13 34  1  0  0  0  0
 13 35  1  0  0  0  0
 14 15  1  0  0  0  0
 14 16  1  0  0  0  0
 14 36  1  0  0  0  0
 15 37  1  0  0  0  0
 15 38  1  0  0  0  0
 15 39  1  0  0  0  0
 16 21  1  0  0  0  0
 16 17  1  0  0  0  0
 16 49  1  0  0  0  0
 17 18  1  0  0  0  0
 17 40  1  0  0  0  0
 17 41  1  0  0  0  0
 18 19  1  0  0  0  0
 18 42  1  0  0  0  0
 18 43  1  0  0  0  0
 19 20  1  0  0  0  0
 20 21  1  0  0  0  0
 20 44  1  0  0  0  0
 20 45  1  0  0  0  0
 21 46  1  0  0  0  0
 21 47  1  0  0  0  0
 22 48  1  0  0  0  0
M  CHG  1  16   1
M  END
> <s_m_source_file>
AV-unprocessed.smi

> <i_m_source_file_index>
2355

> <i_lp_mmshare_version>
43012

> <i_f3d_flags>
0

> <s_epik_input>
W0NIM11jMVtjSF1jKFtDSDNdKW5jKFtjSF0xKVtOSF1DKD1PKVtOSF1bQ0BIXShbQ0gzXSlbQ0BIXShbQ0gzXSlOMltDSDJdW0NIMl1PW0NIMl1bQ0gyXTI=

> <s_epik_cmdline>
J2VwaWtfcHl0aG9uJywgJy1waCcsICc3LjAnLCAnLXRuJywgJzgnLCAnLW1hJywgJzIwMCcsICctbWV0YWxfYmluZGluZycsICctaW1hZScsICc8aW5maWxlLm1hZT4nLCAnLW9tYWUnLCAnPG91dGZpbGUubWFlPic=

> <r_epik_Ionization_Penalty>
0.602711

> <r_epik_Ionization_Penalty_Charging>
0.602531

> <r_epik_Ionization_Penalty_Neutral>
0.000180055

> <r_epik_State_Penalty>
0.617039

> <r_epik_Charging_Adjusted_Penalty>
1.21957

> <i_epik_Tot_Q>
1

> <i_epik_Tot_abs_Q>
1

> <r_epik_Metal_State_Penalty>
0.617075

> <b_epik_Metal_Only>
0

> <s_lp_Force_Field>
OPLS_2005

> <r_lp_Energy>
24.3328

> <b_lp_Chiralities_Consistent>
1

> <s_lp_Variant>
AV-unprocessed.smi:2355-7

> <Gold.Version>
5.8.1

> <Gold.Id.Protein>
6NUR|6NUR_protein|mol2

> <Gold.PLP.Fitness>
51.2702

> <Gold.PLP.PLP>
-44.8742

> <Gold.PLP.part.hbond>
-3.0000

> <Gold.PLP.part.metal>
0.0000

> <Gold.PLP.part.buried>
-7.6356

> <Gold.PLP.part.nonpolar>
-36.3739

> <Gold.PLP.part.repulsive>
0.4003

> <Gold.PLP.ligand.clash>
0.0000

> <Gold.PLP.ligand.torsion>
1.3228

> <Gold.PLP.Chemscore.Hbond>
2.9760

> <Gold.PLP.Chemscore.CHOScore>
0.0000

> <Gold.PLP.Chemscore.Metal>
0.0000

> <Gold.Chemscore.Hbonds>
donor molecule, donor type, donor heavy atom, donor atom, acceptor molecule, acceptor atom, score
      L1  H     8    30       P1  8028  1.00
      L1  H    11    31       P1  8028  0.97
      P1  H 10752 10765       L1    19  0.40

> <Gold.PLP.Chemscore.Internal.Correction>
0.1136

> <Gold.Rescore>
     Score         DG    S(hbond)    S(metal)    S(lipo)     H(rot)  DE(clash)    DE(int)     intcor
     20.58     -24.52       2.83        0.00     113.61       1.45       0.06       3.88       ----

> <Gold.Chemscore.Fitness>
20.5759

> <Gold.Chemscore.DG>
-24.5154

> <Gold.Chemscore.ZeroCoef>
-5.4800

> <Gold.Chemscore.Hbond>
2.8280

> <Gold.Chemscore.Metal>
0.0000

> <Gold.Chemscore.Lipo>
113.6086

> <Gold.Chemscore.Internal_Hbond>
0.0000

> <Gold.Chemscore.DEClash>
0.0565

> <Gold.Chemscore.DEInternal>
3.8831

> <Gold.Chemscore.Rot>
1.4462

> <Gold.Chemscore.Internal.Correction>
   9.000000E+99

> <Gold.Chemscore.Hbonds>
donor molecule, donor type, donor heavy atom, donor atom, acceptor molecule, acceptor atom, score
      L1  H     8    30       P1  8028  1.00
      L1  H    11    31       P1  8028  0.86
      P1  H 10752 10765       L1    19  0.01

> <Gold.Chemscore.Hbond.Weighted>
-9.4455

> <Gold.Chemscore.Metal.Weighted>
-0.0000

> <Gold.Chemscore.Lipo.Weighted>
-13.2922

> <Gold.Chemscore.Internal_Hbond.Weighted>
0.0000

> <Gold.Chemscore.DEClash.Weighted>
0.0565

> <Gold.Chemscore.DEInternal.Weighted>
3.8831

> <Gold.Chemscore.Rot.Weighted>
3.7023

> <Gold.Chemscore.Internal.Correction.Weighted>
   9.000000E+99

> <Gold.Protein.RotatedTorsions>
[ 6907 6896 6895 6894 ] final   43.74 input  -60.11 | X-H torsion
[ 7974 7965 7964 7962 ] final  -97.55 input  175.53 | X-H torsion
[ 8008 7997 7996 7995 ] final  -88.34 input   59.86 | X-H torsion
[ 10167 10162 10161 10158 ] final -102.04 input  -65.29 | X-H torsion
[ 10718 10713 10712 10709 ] final   65.91 input   66.30 | X-H torsion
[ 10763 10752 10751 10750 ] final -174.44 input  -60.55 | X-H torsion
[ 11005 11000 10999 10996 ] final -150.85 input  -57.11 | X-H torsion

> <Gold.Protein.ActiveResidues>
 VAL166  LYS551  ARG553  GLY616  TRP617  ASP618  TYR619  PRO620  LYS621  CYS622 
 ASP623  PHE694  ASN695  SER759  ASP760  ASP761  ALA762  ILE779  LEU786  VAL792 
 PHE793  MET794  SER795  GLU796  ALA797  LYS798  CYS799  TRP800  GLU811  SER814 

> <Gold.Protein.RotatedAtoms>
  152.2240  134.8386  160.0482 H   0  0  0  0  0  0  0  0  0  0  0  0  # atno 6907 bound_to 6896
  151.9159  133.3568  159.3888 H   0  0  0  0  0  0  0  0  0  0  0  0  # atno 6908 bound_to 6896
  150.7007  134.4610  159.5424 H   0  0  0  0  0  0  0  0  0  0  0  0  # atno 6909 bound_to 6896
  145.3323  140.9444  143.2655 H   0  0  0  0  0  0  0  0  0  0  0  0  # atno 7974 bound_to 7965
  154.6737  140.0555  157.0193 H   0  0  0  0  0  0  0  0  0  0  0  0  # atno 8008 bound_to 7997
  155.1051  140.3233  155.4518 H   0  0  0  0  0  0  0  0  0  0  0  0  # atno 8009 bound_to 7997
  156.2667  140.2024  156.6177 H   0  0  0  0  0  0  0  0  0  0  0  0  # atno 8010 bound_to 7997
  140.2349  143.3580  152.0854 H   0  0  0  0  0  0  0  0  0  0  0  0  # atno 10167 bound_to 10162
  157.6136  130.9240  150.0039 H   0  0  0  0  0  0  0  0  0  0  0  0  # atno 10718 bound_to 10713
  154.5961  135.2850  155.0584 H   0  0  0  0  0  0  0  0  0  0  0  0  # atno 10763 bound_to 10752
  154.1866  135.6447  153.5052 H   0  0  0  0  0  0  0  0  0  0  0  0  # atno 10764 bound_to 10752
  153.0139  135.5436  154.6664 H   0  0  0  0  0  0  0  0  0  0  0  0  # atno 10765 bound_to 10752
  140.7359  134.3569  157.5157 H   0  0  0  0  0  0  0  0  0  0  0  0  # atno 11005 bound_to 11000
  144.8855  139.4846  143.6703 LP  0  0  0  0  0  0  0  0  0  0  0  0  # atno 17320 bound_to 7965
  146.3041  139.7521  142.9069 LP  0  0  0  0  0  0  0  0  0  0  0  0  # atno 17321 bound_to 7965
  139.5097  144.6872  151.5857 LP  0  0  0  0  0  0  0  0  0  0  0  0  # atno 17342 bound_to 10162
  140.6157  143.9353  150.6487 LP  0  0  0  0  0  0  0  0  0  0  0  0  # atno 17343 bound_to 10162
  156.1248  130.3645  149.9827 LP  0  0  0  0  0  0  0  0  0  0  0  0  # atno 17370 bound_to 10713
  156.7900  130.9252  151.3646 LP  0  0  0  0  0  0  0  0  0  0  0  0  # atno 17371 bound_to 10713
  139.8816  134.9049  156.2887 LP  0  0  0  0  0  0  0  0  0  0  0  0  # atno 17394 bound_to 11000
  140.9880  133.7226  156.0771 LP  0  0  0  0  0  0  0  0  0  0  0  0  # atno 17395 bound_to 11000

$$$$
