#       Name:                AV-unprocessed.smi:1762
#       Creating user name   scv26
#       Creation time:       Fri Mar 27 08:34:52 2020


#       File generated by GOLD software.
#

@<TRIPOS>MOLECULE
AV-unprocessed.smi:1762
    58    59     1
SMALL
NO_CHARGES


@<TRIPOS>ATOM
      1 ****        -0.9320  -1.8936   3.9593 C.3            1 S1                 0.0000
      2 ****        -1.7812  -0.6551   3.6205 C.3            1 S1                 0.0000
      3 ****        -1.3711   0.0295   2.3038 C.3            1 S1                 0.0000
      4 ****        -1.7705  -0.7778   1.1149 N.4            1 S1                 1.0000
      5 ****        -1.2769  -0.1962  -0.1811 C.3            1 S1                 0.0000
      6 ****         0.2667  -0.1900  -0.2294 C.2            1 S1                 0.0000
      7 ****         0.9034  -1.1488   0.2097 O.2            1 S1                 0.0000
      8 ****         0.8491   0.8940  -0.7635 N.am           1 S1                 0.0000
      9 ****         2.2868   1.0822  -0.9046 C.3            1 S1                 0.0000
     10 ****         2.5897   2.0864  -2.0252 C.3            1 S1                 0.0000
     11 ****         4.0773   2.3361  -2.1879 C.ar           1 S1                 0.0000
     12 ****         4.6724   3.5076  -1.6730 C.ar           1 S1                 0.0000
     13 ****         6.0583   3.6882  -1.8476 C.ar           1 S1                 0.0000
     14 ****         6.7916   2.6950  -2.5249 C.ar           1 S1                 0.0000
     15 ****         6.1036   1.5607  -3.0000 C.ar           1 S1                 0.0000
     16 ****         4.7750   1.3785  -2.8394 N.ar           1 S1                 0.0000
     17 ****        -1.8644  -0.8796  -1.4628 C.3            1 S1                 0.0000
     18 ****        -1.5551  -2.3878  -1.5670 C.3            1 S1                 0.0000
     19 ****        -1.4656  -0.1677  -2.7708 C.3            1 S1                 0.0000
     20 ****        -3.2345  -1.0390   1.1841 C.3            1 S1                 0.0000
     21 ****        -3.6107  -1.7288   2.5088 C.3            1 S1                 0.0000
     22 ****        -5.1245  -1.9287   2.6404 C.3            1 S1                 0.0000
     23 ****        -3.1784  -0.9355   3.6080 O.3            1 S1                 0.0000
     24 ****         0.1134  -1.6174   4.0994 H              1 S1                 0.0000
     25 ****        -0.9626  -2.6465   3.1722 H              1 S1                 0.0000
     26 ****        -1.2756  -2.3595   4.8831 H              1 S1                 0.0000
     27 ****        -1.6273   0.0613   4.4280 H              1 S1                 0.0000
     28 ****        -1.8468   1.0095   2.2402 H              1 S1                 0.0000
     29 ****        -0.2971   0.2116   2.3313 H              1 S1                 0.0000
     30 ****        -1.6119   0.8430  -0.1942 H              1 S1                 0.0000
     31 ****         0.2557   1.6371  -1.1037 H              1 S1                 0.0000
     32 ****         2.6890   1.4406   0.0438 H              1 S1                 0.0000
     33 ****         2.7755   0.1308  -1.1229 H              1 S1                 0.0000
     34 ****         2.1886   1.7211  -2.9719 H              1 S1                 0.0000
     35 ****         2.0870   3.0335  -1.8245 H              1 S1                 0.0000
     36 ****         4.0838   4.2510  -1.1558 H              1 S1                 0.0000
     37 ****         6.5497   4.5720  -1.4679 H              1 S1                 0.0000
     38 ****         7.8558   2.7994  -2.6767 H              1 S1                 0.0000
     39 ****         6.6343   0.7792  -3.5232 H              1 S1                 0.0000
     40 ****        -2.9472  -0.7688  -1.4330 H              1 S1                 0.0000
     41 ****        -0.4935  -2.5712  -1.7341 H              1 S1                 0.0000
     42 ****        -2.0948  -2.8369  -2.4012 H              1 S1                 0.0000
     43 ****        -1.8446  -2.9293  -0.6669 H              1 S1                 0.0000
     44 ****        -0.4072  -0.2928  -3.0017 H              1 S1                 0.0000
     45 ****        -1.6739   0.9013  -2.7177 H              1 S1                 0.0000
     46 ****        -2.0273  -0.5665  -3.6162 H              1 S1                 0.0000
     47 ****        -3.7789  -0.1000   1.0708 H              1 S1                 0.0000
     48 ****        -3.5601  -1.6998   0.3836 H              1 S1                 0.0000
     49 ****        -3.1381  -2.7100   2.5559 H              1 S1                 0.0000
     50 ****        -5.5116  -2.5467   1.8299 H              1 S1                 0.0000
     51 ****        -5.6529  -0.9753   2.6158 H              1 S1                 0.0000
     52 ****        -5.3721  -2.4223   3.5805 H              1 S1                 0.0000
     53 ****        -1.3157  -1.6755   1.2053 H              1 S1                 0.0000
     54 ****         0.4208  -1.9336   0.5986 LP             1 S1                 0.0000
     55 ****         1.9028  -1.1424   0.1773 LP             1 S1                 0.0000
     56 ****         4.3210   0.5600  -3.1917 LP             1 S1                 0.0000
     57 ****        -3.6714  -0.0660   3.5787 LP             1 S1                 0.0000
     58 ****        -3.4074  -1.4202   4.4522 LP             1 S1                 0.0000
@<TRIPOS>BOND
    1    1    2 1     
    2    1   24 1     
    3    1   25 1     
    4    1   26 1     
    5    2   23 1     
    6    2    3 1     
    7    2   27 1     
    8    3    4 1     
    9    3   28 1     
   10    3   29 1     
   11    4    5 1     
   12    4   20 1     
   13    4   53 1     
   14    5    6 1     
   15    5   17 1     
   16    5   30 1     
   17    6    7 2     
   18    6    8 am    
   19    8    9 1     
   20    8   31 1     
   21    9   10 1     
   22    9   32 1     
   23    9   33 1     
   24   10   11 1     
   25   10   34 1     
   26   10   35 1     
   27   11   16 ar    
   28   11   12 ar    
   29   12   13 ar    
   30   12   36 1     
   31   13   14 ar    
   32   13   37 1     
   33   14   15 ar    
   34   14   38 1     
   35   15   16 ar    
   36   15   39 1     
   37   17   18 1     
   38   17   19 1     
   39   17   40 1     
   40   18   41 1     
   41   18   42 1     
   42   18   43 1     
   43   19   44 1     
   44   19   45 1     
   45   19   46 1     
   46   20   21 1     
   47   20   47 1     
   48   20   48 1     
   49   21   22 1     
   50   21   23 1     
   51   21   49 1     
   52   22   50 1     
   53   22   51 1     
   54   22   52 1     
   55    7   54 1     
   56    7   55 1     
   57   16   56 1     
   58   23   57 1     
   59   23   58 1     
@<TRIPOS>SUBSTRUCTURE
      1 S1             1
@<TRIPOS>SET
LONE_PAIRS      STATIC     ATOMS    <user>   **** ""
5 54 55 56 57 58
DONOR_HYDROGENS      STATIC     ATOMS    <user>   **** ""
2 53 31
ATOM$BLUE        STATIC     ATOMS    COLORGROUP SYSTEM
5 54 55 56 57 58
ATOM$RED        STATIC     ATOMS    COLORGROUP SYSTEM
2 53 31
