AV-unprocessed.smi:1749|AV-procd|sdf|7050|dock2
  -GOLD-   22720 8263D 1   1.00000     0.00000
 Structure written by MMmdl.
 31 32  0  0  0  0  0  0  0  0  2 V2000
  153.0424  141.7035  160.7156 C   0  0  0  0  0  0  0  0  0  0  0  0
  152.8512  142.7543  159.6126 C   0  0  2  0  0  0  0  0  0  0  0  0
  152.4110  144.1107  160.1954 C   0  0  0  0  0  0  0  0  0  0  0  0
  152.2238  145.1626  159.0909 C   0  0  0  0  0  0  0  0  0  0  0  0
  151.2287  144.6791  158.0252 C   0  0  0  0  0  0  0  0  0  0  0  0
  151.6585  143.3264  157.4294 C   0  0  2  0  0  0  0  0  0  0  0  0
  150.6570  142.8847  156.4631 N   0  0  0  0  0  0  0  0  0  0  0  0
  150.5611  141.6588  155.9117 C   0  0  0  0  0  0  0  0  0  0  0  0
  151.3657  140.7903  156.2462 O   0  0  0  0  0  0  0  0  0  0  0  0
  149.5696  141.4456  155.0066 N   0  5  0  0  0  0  0  0  0  0  0  0
  148.2778  141.7192  155.2675 C   0  0  0  0  0  0  0  0  0  0  0  0
  147.7897  141.7718  156.5174 N   0  0  0  0  0  0  0  0  0  0  0  0
  146.4355  142.0738  156.5623 N   0  0  0  0  0  0  0  0  0  0  0  0
  145.9319  142.2314  155.3385 C   0  0  0  0  0  0  0  0  0  0  0  0
  147.0661  142.0255  154.0206 S   0  0  0  0  0  0  0  0  0  0  0  0
  151.8493  142.2756  158.5435 C   0  0  0  0  0  0  0  0  0  0  0  0
  152.1101  141.5121  161.2476 H   0  0  0  0  0  0  0  0  0  0  0  0
  153.7823  142.0318  161.4462 H   0  0  0  0  0  0  0  0  0  0  0  0
  153.3888  140.7572  160.2995 H   0  0  0  0  0  0  0  0  0  0  0  0
  153.8170  142.8958  159.1255 H   0  0  0  0  0  0  0  0  0  0  0  0
  151.4762  143.9908  160.7447 H   0  0  0  0  0  0  0  0  0  0  0  0
  153.1491  144.4655  160.9156 H   0  0  0  0  0  0  0  0  0  0  0  0
  151.8754  146.0999  159.5255 H   0  0  0  0  0  0  0  0  0  0  0  0
  153.1851  145.3767  158.6225 H   0  0  0  0  0  0  0  0  0  0  0  0
  150.2371  144.5882  158.4714 H   0  0  0  0  0  0  0  0  0  0  0  0
  151.1446  145.4262  157.2350 H   0  0  0  0  0  0  0  0  0  0  0  0
  152.6086  143.4711  156.9115 H   0  0  0  0  0  0  0  0  0  0  0  0
  149.9757  143.5722  156.1767 H   0  0  0  0  0  0  0  0  0  0  0  0
  144.8866  142.4692  155.2106 H   0  0  0  0  0  0  0  0  0  0  0  0
  152.1975  141.3363  158.1117 H   0  0  0  0  0  0  0  0  0  0  0  0
  150.8881  142.0597  159.0124 H   0  0  0  0  0  0  0  0  0  0  0  0
  1  2  1  0  0  0  0
  1 17  1  0  0  0  0
  1 18  1  0  0  0  0
  1 19  1  0  0  0  0
  2 16  1  0  0  0  0
  2  3  1  0  0  0  0
  2 20  1  0  0  0  0
  3  4  1  0  0  0  0
  3 21  1  0  0  0  0
  3 22  1  0  0  0  0
  4  5  1  0  0  0  0
  4 23  1  0  0  0  0
  4 24  1  0  0  0  0
  5  6  1  0  0  0  0
  5 25  1  0  0  0  0
  5 26  1  0  0  0  0
  6  7  1  0  0  0  0
  6 16  1  0  0  0  0
  6 27  1  0  0  0  0
  7  8  1  0  0  0  0
  7 28  1  0  0  0  0
  8  9  2  0  0  0  0
  8 10  1  0  0  0  0
 10 11  1  0  0  0  0
 11 15  1  0  0  0  0
 11 12  2  0  0  0  0
 12 13  1  0  0  0  0
 13 14  2  0  0  0  0
 14 15  1  0  0  0  0
 14 29  1  0  0  0  0
 16 30  1  0  0  0  0
 16 31  1  0  0  0  0
M  CHG  1  10  -1
M  END
> <s_m_source_file>
AV-unprocessed.smi

> <i_m_source_file_index>
1749

> <i_lp_mmshare_version>
43012

> <i_f3d_flags>
0

> <s_epik_input>
W0NIM11bQ0BASF0xW0NIMl1bQ0gyXVtDSDJdW0NASF0oW0NIMl0xKVtOSF1DKD1PKVtOSF1jMm5uW2NIXXMy

> <s_epik_cmdline>
J2VwaWtfcHl0aG9uJywgJy1waCcsICc3LjAnLCAnLXRuJywgJzgnLCAnLW1hJywgJzIwMCcsICctbWV0YWxfYmluZGluZycsICctaW1hZScsICc8aW5maWxlLm1hZT4nLCAnLW9tYWUnLCAnPG91dGZpbGUubWFlPic=

> <r_lp_tautomer_probability>
1

> <r_epik_Ionization_Penalty>
4.55442

> <r_epik_Ionization_Penalty_Charging>
4.5081

> <r_epik_Ionization_Penalty_Neutral>
0.0463156

> <r_epik_State_Penalty>
4.50781

> <r_epik_Charging_Adjusted_Penalty>
9.01591

> <i_epik_Tot_Q>
-1

> <i_epik_Tot_abs_Q>
1

> <r_epik_Metal_State_Penalty>
0.823335

> <b_epik_Metal_Only>
1

> <s_lp_Force_Field>
OPLS_2005

> <r_lp_Energy>
8.86182

> <b_lp_Chiralities_Consistent>
1

> <s_lp_Variant>
AV-unprocessed.smi:1749-7

> <Gold.Version>
5.8.1

> <Gold.Id.Protein>
6NUR|6NUR_protein|mol2

> <Gold.PLP.Fitness>
37.9823

> <Gold.PLP.PLP>
-36.4797

> <Gold.PLP.part.hbond>
-1.2739

> <Gold.PLP.part.metal>
0.0000

> <Gold.PLP.part.buried>
-5.1949

> <Gold.PLP.part.nonpolar>
-29.7376

> <Gold.PLP.part.repulsive>
0.4664

> <Gold.PLP.ligand.clash>
0.0000

> <Gold.PLP.ligand.torsion>
0.7547

> <Gold.PLP.Chemscore.Hbond>
1.0000

> <Gold.PLP.Chemscore.CHOScore>
0.0000

> <Gold.PLP.Chemscore.Metal>
0.0000

> <Gold.Chemscore.Hbonds>
donor molecule, donor type, donor heavy atom, donor atom, acceptor molecule, acceptor atom, score
      L1  H     7    28       P1  8028  1.00

> <Gold.PLP.Chemscore.Internal.Correction>
0.0120

> <Gold.Rescore>
     Score         DG    S(hbond)    S(metal)    S(lipo)     H(rot)  DE(clash)    DE(int)     intcor
     14.73     -17.06       1.00        0.00      92.42       1.00       0.17       2.16       ----

> <Gold.Chemscore.Fitness>
14.7329

> <Gold.Chemscore.DG>
-17.0649

> <Gold.Chemscore.ZeroCoef>
-5.4800

> <Gold.Chemscore.Hbond>
0.9975

> <Gold.Chemscore.Metal>
0.0000

> <Gold.Chemscore.Lipo>
92.4202

> <Gold.Chemscore.Internal_Hbond>
0.0000

> <Gold.Chemscore.DEClash>
0.1724

> <Gold.Chemscore.DEInternal>
2.1597

> <Gold.Chemscore.Rot>
1.0000

> <Gold.Chemscore.Internal.Correction>
   9.000000E+99

> <Gold.Chemscore.Hbonds>
donor molecule, donor type, donor heavy atom, donor atom, acceptor molecule, acceptor atom, score
      L1  H     7    28       P1  8028  1.00

> <Gold.Chemscore.Hbond.Weighted>
-3.3318

> <Gold.Chemscore.Metal.Weighted>
-0.0000

> <Gold.Chemscore.Lipo.Weighted>
-10.8132

> <Gold.Chemscore.Internal_Hbond.Weighted>
0.0000

> <Gold.Chemscore.DEClash.Weighted>
0.1724

> <Gold.Chemscore.DEInternal.Weighted>
2.1597

> <Gold.Chemscore.Rot.Weighted>
2.5600

> <Gold.Chemscore.Internal.Correction.Weighted>
   9.000000E+99

> <Gold.Protein.RotatedTorsions>
[ 6907 6896 6895 6894 ] final  114.99 input  -60.11 | X-H torsion
[ 7974 7965 7964 7962 ] final    1.46 input  175.53 | X-H torsion
[ 8008 7997 7996 7995 ] final   23.66 input   59.86 | X-H torsion
[ 10167 10162 10161 10158 ] final   58.95 input  -65.29 | X-H torsion
[ 10718 10713 10712 10709 ] final    4.15 input   66.30 | X-H torsion
[ 10763 10752 10751 10750 ] final -179.73 input  -60.55 | X-H torsion
[ 11005 11000 10999 10996 ] final  -68.03 input  -57.11 | X-H torsion

> <Gold.Protein.ActiveResidues>
 VAL166  LYS551  ARG553  GLY616  TRP617  ASP618  TYR619  PRO620  LYS621  CYS622 
 ASP623  PHE694  ASN695  SER759  ASP760  ASP761  ALA762  ILE779  LEU786  VAL792 
 PHE793  MET794  SER795  GLU796  ALA797  LYS798  CYS799  TRP800  GLU811  SER814 

> <Gold.Protein.RotatedAtoms>
  152.4769  133.8160  159.7028 H   0  0  0  0  0  0  0  0  0  0  0  0  # atno 6907 bound_to 6896
  150.8792  133.7386  159.2944 H   0  0  0  0  0  0  0  0  0  0  0  0  # atno 6908 bound_to 6896
  151.4896  135.1060  159.9852 H   0  0  0  0  0  0  0  0  0  0  0  0  # atno 6909 bound_to 6896
  146.2440  140.0983  142.8349 H   0  0  0  0  0  0  0  0  0  0  0  0  # atno 7974 bound_to 7965
  154.9843  140.3106  155.4933 H   0  0  0  0  0  0  0  0  0  0  0  0  # atno 8008 bound_to 7997
  156.2949  140.2261  156.4884 H   0  0  0  0  0  0  0  0  0  0  0  0  # atno 8009 bound_to 7997
  154.7761  140.0449  157.1078 H   0  0  0  0  0  0  0  0  0  0  0  0  # atno 8010 bound_to 7997
  140.1817  144.4175  150.6612 H   0  0  0  0  0  0  0  0  0  0  0  0  # atno 10167 bound_to 10162
  156.8884  130.5679  149.5650 H   0  0  0  0  0  0  0  0  0  0  0  0  # atno 10718 bound_to 10713
  154.5313  135.2800  155.1177 H   0  0  0  0  0  0  0  0  0  0  0  0  # atno 10763 bound_to 10752
  154.2696  135.6306  153.5309 H   0  0  0  0  0  0  0  0  0  0  0  0  # atno 10764 bound_to 10752
  152.9957  135.5625  154.5827 H   0  0  0  0  0  0  0  0  0  0  0  0  # atno 10765 bound_to 10752
  141.1522  133.6732  156.6384 H   0  0  0  0  0  0  0  0  0  0  0  0  # atno 11005 bound_to 11000
  145.0591  140.9074  143.4950 LP  0  0  0  0  0  0  0  0  0  0  0  0  # atno 17320 bound_to 7965
  145.1095  139.2767  143.5645 LP  0  0  0  0  0  0  0  0  0  0  0  0  # atno 17321 bound_to 7965
  140.6515  143.2226  151.6066 LP  0  0  0  0  0  0  0  0  0  0  0  0  # atno 17342 bound_to 10162
  139.5293  144.2963  152.1110 LP  0  0  0  0  0  0  0  0  0  0  0  0  # atno 17343 bound_to 10162
  156.0641  130.5688  150.9253 LP  0  0  0  0  0  0  0  0  0  0  0  0  # atno 17370 bound_to 10713
  157.6098  131.0937  150.8814 LP  0  0  0  0  0  0  0  0  0  0  0  0  # atno 17371 bound_to 10713
  140.3412  134.7847  157.4399 LP  0  0  0  0  0  0  0  0  0  0  0  0  # atno 17394 bound_to 11000
  140.0936  134.5567  155.8420 LP  0  0  0  0  0  0  0  0  0  0  0  0  # atno 17395 bound_to 11000

$$$$
