AV-unprocessed.smi:2413|AV-procd|sdf|9534|dock10
  -GOLD-   2272013163D 1   1.00000     0.00000
 Structure written by MMmdl.
 45 46  0  0  0  0  0  0  0  0  1 V2000
  152.2530  143.0308  159.5792 C   0  0  0  0  0  0  0  0  0  0  0  0
  151.7001  142.9745  158.1583 C   0  0  0  0  0  0  0  0  0  0  0  0
  151.7082  143.9870  157.4593 O   0  0  0  0  0  0  0  0  0  0  0  0
  151.2225  141.7903  157.7456 N   0  0  0  0  0  0  0  0  0  0  0  0
  150.6375  141.5267  156.4346 C   0  0  0  0  0  0  0  0  0  0  0  0
  150.8265  140.0597  156.0131 C   0  0  2  0  0  0  0  0  0  0  0  0
  152.2642  139.5698  156.2768 C   0  0  0  0  0  0  0  0  0  0  0  0
  152.4225  138.2021  155.7986 N   0  0  0  0  0  0  0  0  0  0  0  0
  153.6645  137.6290  156.0998 C   0  0  0  0  0  0  0  0  0  0  0  0
  153.9746  137.1296  157.3842 C   0  0  0  0  0  0  0  0  0  0  0  0
  155.2609  136.5811  157.5457 C   0  0  0  0  0  0  0  0  0  0  0  0
  156.1486  136.5401  156.5298 N   0  0  0  0  0  0  0  0  0  0  0  0
  155.7768  137.0749  155.3589 C   0  0  0  0  0  0  0  0  0  0  0  0
  156.7310  136.8907  154.1663 C   0  0  0  0  0  0  0  0  0  0  0  0
  158.0679  136.2558  154.6165 C   0  0  0  0  0  0  0  0  0  0  0  0
  157.0038  138.2581  153.5133 C   0  0  0  0  0  0  0  0  0  0  0  0
  156.1307  135.9256  153.1170 C   0  0  0  0  0  0  0  0  0  0  0  0
  154.5656  137.5840  155.0955 N   0  0  0  0  0  0  0  0  0  0  0  0
  152.0579  138.0511  154.3969 C   0  0  0  0  0  0  0  0  0  0  0  0
  150.6371  138.5896  154.1634 C   0  0  0  0  0  0  0  0  0  0  0  0
  150.5599  139.9377  154.6163 O   0  0  0  0  0  0  0  0  0  0  0  0
  152.2182  142.0543  160.0641 H   0  0  0  0  0  0  0  0  0  0  0  0
  151.6725  143.7311  160.1802 H   0  0  0  0  0  0  0  0  0  0  0  0
  153.2897  143.3679  159.5666 H   0  0  0  0  0  0  0  0  0  0  0  0
  151.2580  141.0156  158.3921 H   0  0  0  0  0  0  0  0  0  0  0  0
  149.5816  141.8015  156.4127 H   0  0  0  0  0  0  0  0  0  0  0  0
  151.1387  142.1786  155.7187 H   0  0  0  0  0  0  0  0  0  0  0  0
  150.1237  139.4378  156.5715 H   0  0  0  0  0  0  0  0  0  0  0  0
  152.9764  140.2253  155.7741 H   0  0  0  0  0  0  0  0  0  0  0  0
  152.4851  139.6103  157.3443 H   0  0  0  0  0  0  0  0  0  0  0  0
  153.2702  137.1612  158.2022 H   0  0  0  0  0  0  0  0  0  0  0  0
  155.5777  136.1692  158.4926 H   0  0  0  0  0  0  0  0  0  0  0  0
  158.7282  136.0760  153.7673 H   0  0  0  0  0  0  0  0  0  0  0  0
  157.9056  135.2987  155.1137 H   0  0  0  0  0  0  0  0  0  0  0  0
  158.6138  136.8993  155.3075 H   0  0  0  0  0  0  0  0  0  0  0  0
  157.4571  138.9517  154.2224 H   0  0  0  0  0  0  0  0  0  0  0  0
  156.0818  138.7147  153.1514 H   0  0  0  0  0  0  0  0  0  0  0  0
  157.6811  138.1662  152.6638 H   0  0  0  0  0  0  0  0  0  0  0  0
  156.8241  135.7542  152.2928 H   0  0  0  0  0  0  0  0  0  0  0  0
  155.2129  136.3182  152.6781 H   0  0  0  0  0  0  0  0  0  0  0  0
  155.8986  134.9549  153.5569 H   0  0  0  0  0  0  0  0  0  0  0  0
  152.7680  138.5943  153.7718 H   0  0  0  0  0  0  0  0  0  0  0  0
  152.1120  137.0000  154.1105 H   0  0  0  0  0  0  0  0  0  0  0  0
  150.3914  138.5562  153.1019 H   0  0  0  0  0  0  0  0  0  0  0  0
  149.8976  137.9769  154.6816 H   0  0  0  0  0  0  0  0  0  0  0  0
  1  2  1  0  0  0  0
  1 22  1  0  0  0  0
  1 23  1  0  0  0  0
  1 24  1  0  0  0  0
  2  3  2  0  0  0  0
  2  4  1  0  0  0  0
  4  5  1  0  0  0  0
  4 25  1  0  0  0  0
  5  6  1  0  0  0  0
  5 26  1  0  0  0  0
  5 27  1  0  0  0  0
  6 21  1  0  0  0  0
  6  7  1  0  0  0  0
  6 28  1  0  0  0  0
  7  8  1  0  0  0  0
  7 29  1  0  0  0  0
  7 30  1  0  0  0  0
  8  9  1  0  0  0  0
  8 19  1  0  0  0  0
  9 18  1  0  0  0  0
  9 10  2  0  0  0  0
 10 11  1  0  0  0  0
 10 31  1  0  0  0  0
 11 12  2  0  0  0  0
 11 32  1  0  0  0  0
 12 13  1  0  0  0  0
 13 14  1  0  0  0  0
 13 18  2  0  0  0  0
 14 15  1  0  0  0  0
 14 16  1  0  0  0  0
 14 17  1  0  0  0  0
 15 33  1  0  0  0  0
 15 34  1  0  0  0  0
 15 35  1  0  0  0  0
 16 36  1  0  0  0  0
 16 37  1  0  0  0  0
 16 38  1  0  0  0  0
 17 39  1  0  0  0  0
 17 40  1  0  0  0  0
 17 41  1  0  0  0  0
 19 20  1  0  0  0  0
 19 42  1  0  0  0  0
 19 43  1  0  0  0  0
 20 21  1  0  0  0  0
 20 44  1  0  0  0  0
 20 45  1  0  0  0  0
M  END
> <s_m_source_file>
AV-unprocessed.smi

> <i_m_source_file_index>
2413

> <i_lp_mmshare_version>
43012

> <i_f3d_flags>
0

> <s_epik_input>
W0NIM11DKD1PKVtOSF1bQ0gyXVtDQEBIXTFbQ0gyXU4oW0NIMl1bQ0gyXU8xKWMyW2NIXVtjSF1uYyhuMilDKFtDSDNdKShbQ0gzXSlbQ0gzXQ==

> <s_epik_cmdline>
J2VwaWtfcHl0aG9uJywgJy1waCcsICc3LjAnLCAnLXRuJywgJzgnLCAnLW1hJywgJzIwMCcsICctbWV0YWxfYmluZGluZycsICctaW1hZScsICc8aW5maWxlLm1hZT4nLCAnLW9tYWUnLCAnPG91dGZpbGUubWFlPic=

> <r_lp_tautomer_probability>
1

> <r_epik_Ionization_Penalty>
0.0132021

> <r_epik_Ionization_Penalty_Charging>
0

> <r_epik_Ionization_Penalty_Neutral>
0.0132021

> <r_epik_State_Penalty>
0.0102452

> <r_epik_Charging_Adjusted_Penalty>
0.0102452

> <i_epik_Tot_Q>
0

> <i_epik_Tot_abs_Q>
0

> <r_epik_Metal_State_Penalty>
0.0100219

> <b_epik_Metal_Only>
0

> <s_lp_Force_Field>
OPLS_2005

> <r_lp_Energy>
13.0347

> <b_lp_Chiralities_Consistent>
1

> <s_lp_Variant>
AV-unprocessed.smi:2413-1

> <Gold.Version>
5.8.1

> <Gold.Id.Protein>
6NUR|6NUR_protein|mol2

> <Gold.PLP.Fitness>
33.0257

> <Gold.PLP.PLP>
-31.8251

> <Gold.PLP.part.hbond>
-2.7427

> <Gold.PLP.part.metal>
0.0000

> <Gold.PLP.part.buried>
0.6156

> <Gold.PLP.part.nonpolar>
-29.3402

> <Gold.PLP.part.repulsive>
0.3206

> <Gold.PLP.ligand.clash>
0.0000

> <Gold.PLP.ligand.torsion>
1.0223

> <Gold.PLP.Chemscore.Hbond>
1.0000

> <Gold.PLP.Chemscore.CHOScore>
0.0000

> <Gold.PLP.Chemscore.Metal>
0.0000

> <Gold.Chemscore.Hbonds>
donor molecule, donor type, donor heavy atom, donor atom, acceptor molecule, acceptor atom, score
      P1  H  7989  7998       L1    21  1.00

> <Gold.PLP.Chemscore.Internal.Correction>
0.2451

> <Gold.Rescore>
     Score         DG    S(hbond)    S(metal)    S(lipo)     H(rot)  DE(clash)    DE(int)     intcor
     11.50     -14.46       0.41        0.00     102.94       1.73       2.08       0.88       ----

> <Gold.Chemscore.Fitness>
11.4969

> <Gold.Chemscore.DG>
-14.4579

> <Gold.Chemscore.ZeroCoef>
-5.4800

> <Gold.Chemscore.Hbond>
0.4106

> <Gold.Chemscore.Metal>
0.0000

> <Gold.Chemscore.Lipo>
102.9374

> <Gold.Chemscore.Internal_Hbond>
0.0000

> <Gold.Chemscore.DEClash>
2.0800

> <Gold.Chemscore.DEInternal>
0.8811

> <Gold.Chemscore.Rot>
1.7332

> <Gold.Chemscore.Internal.Correction>
   9.000000E+99

> <Gold.Chemscore.Hbonds>
donor molecule, donor type, donor heavy atom, donor atom, acceptor molecule, acceptor atom, score
      P1  H  7989  7998       L1    21  0.47

> <Gold.Chemscore.Hbond.Weighted>
-1.3713

> <Gold.Chemscore.Metal.Weighted>
-0.0000

> <Gold.Chemscore.Lipo.Weighted>
-12.0437

> <Gold.Chemscore.Internal_Hbond.Weighted>
0.0000

> <Gold.Chemscore.DEClash.Weighted>
2.0800

> <Gold.Chemscore.DEInternal.Weighted>
0.8811

> <Gold.Chemscore.Rot.Weighted>
4.4370

> <Gold.Chemscore.Internal.Correction.Weighted>
   9.000000E+99

> <Gold.Protein.RotatedTorsions>
[ 6907 6896 6895 6894 ] final -143.40 input  -60.11 | X-H torsion
[ 7974 7965 7964 7962 ] final   54.89 input  175.53 | X-H torsion
[ 8008 7997 7996 7995 ] final  149.94 input   59.86 | X-H torsion
[ 10167 10162 10161 10158 ] final  176.70 input  -65.29 | X-H torsion
[ 10718 10713 10712 10709 ] final  162.38 input   66.30 | X-H torsion
[ 10763 10752 10751 10750 ] final -173.39 input  -60.55 | X-H torsion
[ 11005 11000 10999 10996 ] final  -44.89 input  -57.11 | X-H torsion

> <Gold.Protein.ActiveResidues>
 VAL166  LYS551  ARG553  GLY616  TRP617  ASP618  TYR619  PRO620  LYS621  CYS622 
 ASP623  PHE694  ASN695  SER759  ASP760  ASP761  ALA762  ILE779  LEU786  VAL792 
 PHE793  MET794  SER795  GLU796  ALA797  LYS798  CYS799  TRP800  GLU811  SER814 

> <Gold.Protein.RotatedAtoms>
  151.0999  133.5251  159.2610 H   0  0  0  0  0  0  0  0  0  0  0  0  # atno 6907 bound_to 6896
  151.2086  135.0471  159.8912 H   0  0  0  0  0  0  0  0  0  0  0  0  # atno 6908 bound_to 6896
  152.5442  134.0818  159.8292 H   0  0  0  0  0  0  0  0  0  0  0  0  # atno 6909 bound_to 6896
  145.9562  139.4017  143.0276 H   0  0  0  0  0  0  0  0  0  0  0  0  # atno 7974 bound_to 7965
  156.2735  140.2088  156.5938 H   0  0  0  0  0  0  0  0  0  0  0  0  # atno 8008 bound_to 7997
  154.6961  140.0525  157.0435 H   0  0  0  0  0  0  0  0  0  0  0  0  # atno 8009 bound_to 7997
  155.0799  140.3185  155.4607 H   0  0  0  0  0  0  0  0  0  0  0  0  # atno 8010 bound_to 7997
  139.5224  144.2884  152.0485 H   0  0  0  0  0  0  0  0  0  0  0  0  # atno 10167 bound_to 10162
  157.1233  131.0498  151.2405 H   0  0  0  0  0  0  0  0  0  0  0  0  # atno 10718 bound_to 10713
  154.6084  135.2862  155.0460 H   0  0  0  0  0  0  0  0  0  0  0  0  # atno 10763 bound_to 10752
  154.1699  135.6474  153.5010 H   0  0  0  0  0  0  0  0  0  0  0  0  # atno 10764 bound_to 10752
  153.0185  135.5398  154.6828 H   0  0  0  0  0  0  0  0  0  0  0  0  # atno 10765 bound_to 10752
  141.0480  133.6754  156.2937 H   0  0  0  0  0  0  0  0  0  0  0  0  # atno 11005 bound_to 11000
  145.8104  140.9729  143.0952 LP  0  0  0  0  0  0  0  0  0  0  0  0  # atno 17320 bound_to 7965
  144.6805  139.9913  143.7484 LP  0  0  0  0  0  0  0  0  0  0  0  0  # atno 17321 bound_to 7965
  140.2336  144.4342  150.6289 LP  0  0  0  0  0  0  0  0  0  0  0  0  # atno 17342 bound_to 10162
  140.6338  143.2191  151.6438 LP  0  0  0  0  0  0  0  0  0  0  0  0  # atno 17343 bound_to 10162
  157.4457  130.7569  149.7108 LP  0  0  0  0  0  0  0  0  0  0  0  0  # atno 17370 bound_to 10713
  155.9824  130.4010  150.3420 LP  0  0  0  0  0  0  0  0  0  0  0  0  # atno 17371 bound_to 10713
  140.6109  134.5459  157.5533 LP  0  0  0  0  0  0  0  0  0  0  0  0  # atno 17394 bound_to 11000
  139.9327  134.7933  156.0886 LP  0  0  0  0  0  0  0  0  0  0  0  0  # atno 17395 bound_to 11000

$$$$
