AV-unprocessed.smi:2664|AV-procd|sdf|10329|dock7
  -GOLD-   2272014343D 1   1.00000     0.00000
 Structure written by MMmdl.
 44 45  0  0  0  0  0  0  0  0  2 V2000
  147.7209  142.7079  159.4252 O   0  0  0  0  0  0  0  0  0  0  0  0
  147.6787  143.2485  158.3208 C   0  0  0  0  0  0  0  0  0  0  0  0
  146.8209  144.2212  157.9668 N   0  0  0  0  0  0  0  0  0  0  0  0
  145.7684  144.7969  158.7297 C   0  0  0  0  0  0  0  0  0  0  0  0
  145.5962  144.3380  160.0545 C   0  0  0  0  0  0  0  0  0  0  0  0
  144.5771  144.8918  160.8561 C   0  0  0  0  0  0  0  0  0  0  0  0
  143.7805  145.8607  160.3566 N   0  3  0  0  0  0  0  0  0  0  0  0
  143.9147  146.3412  159.1018 C   0  0  0  0  0  0  0  0  0  0  0  0
  144.9168  145.8268  158.2539 C   0  0  0  0  0  0  0  0  0  0  0  0
  148.5099  142.9477  157.3111 N   0  0  0  0  0  0  0  0  0  0  0  0
  149.5667  141.9319  157.3369 C   0  0  1  0  0  0  0  0  0  0  0  0
  150.1405  141.7682  155.9063 C   0  0  0  0  0  0  0  0  0  0  0  0
  149.1442  141.2392  154.8570 C   0  0  0  0  0  0  0  0  0  0  0  0
  149.8120  140.9186  153.6551 O   0  0  0  0  0  0  0  0  0  0  0  0
  150.6416  142.3066  158.3985 C   0  0  0  0  0  0  0  0  0  0  0  0
  151.3344  143.6573  158.0894 C   0  0  0  0  0  0  0  0  0  0  0  0
  152.4042  144.0206  159.1318 C   0  0  0  0  0  0  0  0  0  0  0  0
  153.4559  142.9129  159.2659 C   0  0  0  0  0  0  0  0  0  0  0  0
  152.7884  141.5736  159.6000 C   0  0  0  0  0  0  0  0  0  0  0  0
  151.7224  141.2052  158.5558 C   0  0  0  0  0  0  0  0  0  0  0  0
  146.9678  144.6283  157.0548 H   0  0  0  0  0  0  0  0  0  0  0  0
  146.2343  143.5638  160.4554 H   0  0  0  0  0  0  0  0  0  0  0  0
  144.3784  144.5921  161.8748 H   0  0  0  0  0  0  0  0  0  0  0  0
  143.2255  147.1228  158.8168 H   0  0  0  0  0  0  0  0  0  0  0  0
  145.0181  146.2413  157.2627 H   0  0  0  0  0  0  0  0  0  0  0  0
  148.4013  143.4547  156.4450 H   0  0  0  0  0  0  0  0  0  0  0  0
  149.1437  140.9703  157.6322 H   0  0  0  0  0  0  0  0  0  0  0  0
  150.5265  142.7299  155.5662 H   0  0  0  0  0  0  0  0  0  0  0  0
  150.9928  141.0904  155.9153 H   0  0  0  0  0  0  0  0  0  0  0  0
  148.6017  140.3656  155.2181 H   0  0  0  0  0  0  0  0  0  0  0  0
  148.3976  142.0033  154.6389 H   0  0  0  0  0  0  0  0  0  0  0  0
  149.2762  140.3148  153.1636 H   0  0  0  0  0  0  0  0  0  0  0  0
  150.1360  142.4077  159.3603 H   0  0  0  0  0  0  0  0  0  0  0  0
  151.7900  143.6186  157.0990 H   0  0  0  0  0  0  0  0  0  0  0  0
  150.6097  144.4693  158.0649 H   0  0  0  0  0  0  0  0  0  0  0  0
  152.8872  144.9585  158.8558 H   0  0  0  0  0  0  0  0  0  0  0  0
  151.9283  144.1914  160.0981 H   0  0  0  0  0  0  0  0  0  0  0  0
  154.0181  142.8232  158.3354 H   0  0  0  0  0  0  0  0  0  0  0  0
  154.1764  143.1745  160.0413 H   0  0  0  0  0  0  0  0  0  0  0  0
  153.5421  140.7874  159.6545 H   0  0  0  0  0  0  0  0  0  0  0  0
  152.3286  141.6299  160.5874 H   0  0  0  0  0  0  0  0  0  0  0  0
  151.2722  140.2585  158.8535 H   0  0  0  0  0  0  0  0  0  0  0  0
  152.2040  141.0254  157.5935 H   0  0  0  0  0  0  0  0  0  0  0  0
  143.0497  146.2495  160.9534 H   0  0  0  0  0  0  0  0  0  0  0  0
  1  2  2  0  0  0  0
  2  3  1  0  0  0  0
  2 10  1  0  0  0  0
  3  4  1  0  0  0  0
  3 21  1  0  0  0  0
  4  9  1  0  0  0  0
  4  5  2  0  0  0  0
  5  6  1  0  0  0  0
  5 22  1  0  0  0  0
  6  7  2  0  0  0  0
  6 23  1  0  0  0  0
  7  8  1  0  0  0  0
  7 44  1  0  0  0  0
  8  9  2  0  0  0  0
  8 24  1  0  0  0  0
  9 25  1  0  0  0  0
 10 11  1  0  0  0  0
 10 26  1  0  0  0  0
 11 12  1  0  0  0  0
 11 15  1  0  0  0  0
 11 27  1  0  0  0  0
 12 13  1  0  0  0  0
 12 28  1  0  0  0  0
 12 29  1  0  0  0  0
 13 14  1  0  0  0  0
 13 30  1  0  0  0  0
 13 31  1  0  0  0  0
 14 32  1  0  0  0  0
 15 20  1  0  0  0  0
 15 16  1  0  0  0  0
 15 33  1  0  0  0  0
 16 17  1  0  0  0  0
 16 34  1  0  0  0  0
 16 35  1  0  0  0  0
 17 18  1  0  0  0  0
 17 36  1  0  0  0  0
 17 37  1  0  0  0  0
 18 19  1  0  0  0  0
 18 38  1  0  0  0  0
 18 39  1  0  0  0  0
 19 20  1  0  0  0  0
 19 40  1  0  0  0  0
 19 41  1  0  0  0  0
 20 42  1  0  0  0  0
 20 43  1  0  0  0  0
M  CHG  1   7   1
M  END
> <s_m_source_file>
AV-unprocessed.smi

> <i_m_source_file_index>
2664

> <i_lp_mmshare_version>
43012

> <i_f3d_flags>
0

> <s_epik_input>
W2NIXTFbY0hdbltjSF1bY0hdYzFbTkhdQyg9TylbTkhdW0NASF0oW0NIMl1bQ0gyXVtPSF0pW0NIXTJbQ0gyXVtDSDJdW0NIMl1bQ0gyXVtDSDJdMg==

> <s_epik_cmdline>
J2VwaWtfcHl0aG9uJywgJy1waCcsICc3LjAnLCAnLXRuJywgJzgnLCAnLW1hJywgJzIwMCcsICctbWV0YWxfYmluZGluZycsICctaW1hZScsICc8aW5maWxlLm1hZT4nLCAnLW9tYWUnLCAnPG91dGZpbGUubWFlPic=

> <r_epik_Ionization_Penalty>
1.0085

> <r_epik_Ionization_Penalty_Charging>
1.00848

> <r_epik_Ionization_Penalty_Neutral>
2.14516e-05

> <r_epik_State_Penalty>
1.05769

> <r_epik_Charging_Adjusted_Penalty>
2.06617

> <i_epik_Tot_Q>
1

> <i_epik_Tot_abs_Q>
1

> <r_epik_Metal_State_Penalty>
1.15842

> <b_epik_Metal_Only>
0

> <s_lp_Force_Field>
OPLS_2005

> <r_lp_Energy>
27.8621

> <b_lp_Chiralities_Consistent>
1

> <s_lp_Variant>
AV-unprocessed.smi:2664-4

> <Gold.Version>
5.8.1

> <Gold.Id.Protein>
6NUR|6NUR_protein|mol2

> <Gold.PLP.Fitness>
46.5832

> <Gold.PLP.PLP>
-36.3813

> <Gold.PLP.part.hbond>
-7.9752

> <Gold.PLP.part.metal>
0.0000

> <Gold.PLP.part.buried>
-0.3721

> <Gold.PLP.part.nonpolar>
-27.3708

> <Gold.PLP.part.repulsive>
0.1175

> <Gold.PLP.ligand.clash>
0.0000

> <Gold.PLP.ligand.torsion>
0.0865

> <Gold.PLP.Chemscore.Hbond>
3.4406

> <Gold.PLP.Chemscore.CHOScore>
0.0000

> <Gold.PLP.Chemscore.Metal>
0.0000

> <Gold.Chemscore.Hbonds>
donor molecule, donor type, donor heavy atom, donor atom, acceptor molecule, acceptor atom, score
      L1  H    10    26       P1  8028  0.88
      L1  H    14    32       P1  7957  0.38
      P1  H  6933  6944       L1     1  0.37
      P1  H  6934  6946       L1     1  0.07
      P1  H  7989  7998       L1    14  0.37
      P1  H  8011  8017       L1    14  0.89

> <Gold.PLP.Chemscore.Internal.Correction>
0.0532

> <Gold.Rescore>
     Score         DG    S(hbond)    S(metal)    S(lipo)     H(rot)  DE(clash)    DE(int)     intcor
     16.09     -18.02       2.26        0.00      92.33       2.27       0.14       1.79       ----

> <Gold.Chemscore.Fitness>
16.0860

> <Gold.Chemscore.DG>
-18.0210

> <Gold.Chemscore.ZeroCoef>
-5.4800

> <Gold.Chemscore.Hbond>
2.2627

> <Gold.Chemscore.Metal>
0.0000

> <Gold.Chemscore.Lipo>
92.3325

> <Gold.Chemscore.Internal_Hbond>
0.0000

> <Gold.Chemscore.DEClash>
0.1431

> <Gold.Chemscore.DEInternal>
1.7918

> <Gold.Chemscore.Rot>
2.2731

> <Gold.Chemscore.Internal.Correction>
   9.000000E+99

> <Gold.Chemscore.Hbonds>
donor molecule, donor type, donor heavy atom, donor atom, acceptor molecule, acceptor atom, score
      L1  H    10    26       P1  8028  0.37
      L1  H    14    32       P1  7957  0.36
      P1  H  6933  6944       L1     1  0.37
      P1  H  6934  6946       L1     1  0.08
      P1  H  7989  7998       L1    14  0.35
      P1  H  8011  8017       L1    14  0.14

> <Gold.Chemscore.Hbond.Weighted>
-7.5573

> <Gold.Chemscore.Metal.Weighted>
-0.0000

> <Gold.Chemscore.Lipo.Weighted>
-10.8029

> <Gold.Chemscore.Internal_Hbond.Weighted>
0.0000

> <Gold.Chemscore.DEClash.Weighted>
0.1431

> <Gold.Chemscore.DEInternal.Weighted>
1.7918

> <Gold.Chemscore.Rot.Weighted>
5.8192

> <Gold.Chemscore.Internal.Correction.Weighted>
   9.000000E+99

> <Gold.Protein.RotatedTorsions>
[ 6907 6896 6895 6894 ] final    8.07 input  -60.11 | X-H torsion
[ 7974 7965 7964 7962 ] final   47.25 input  175.53 | X-H torsion
[ 8008 7997 7996 7995 ] final    1.76 input   59.86 | X-H torsion
[ 10167 10162 10161 10158 ] final  -24.91 input  -65.29 | X-H torsion
[ 10718 10713 10712 10709 ] final   53.97 input   66.30 | X-H torsion
[ 10763 10752 10751 10750 ] final -151.90 input  -60.55 | X-H torsion
[ 11005 11000 10999 10996 ] final   58.51 input  -57.11 | X-H torsion

> <Gold.Protein.ActiveResidues>
 VAL166  LYS551  ARG553  GLY616  TRP617  ASP618  TYR619  PRO620  LYS621  CYS622 
 ASP623  PHE694  ASN695  SER759  ASP760  ASP761  ALA762  ILE779  LEU786  VAL792 
 PHE793  MET794  SER795  GLU796  ALA797  LYS798  CYS799  TRP800  GLU811  SER814 

> <Gold.Protein.RotatedAtoms>
  151.7001  135.0931  160.0249 H   0  0  0  0  0  0  0  0  0  0  0  0  # atno 6907 bound_to 6896
  152.3726  133.6434  159.6107 H   0  0  0  0  0  0  0  0  0  0  0  0  # atno 6908 bound_to 6896
  150.7685  133.9162  159.3425 H   0  0  0  0  0  0  0  0  0  0  0  0  # atno 6909 bound_to 6896
  146.0315  139.4769  142.9835 H   0  0  0  0  0  0  0  0  0  0  0  0  # atno 7974 bound_to 7965
  154.6835  140.2638  155.6884 H   0  0  0  0  0  0  0  0  0  0  0  0  # atno 8008 bound_to 7997
  156.2706  140.2805  156.1310 H   0  0  0  0  0  0  0  0  0  0  0  0  # atno 8009 bound_to 7997
  155.0998  140.0374  157.2683 H   0  0  0  0  0  0  0  0  0  0  0  0  # atno 8010 bound_to 7997
  140.7287  143.4311  151.0800 H   0  0  0  0  0  0  0  0  0  0  0  0  # atno 10167 bound_to 10162
  157.5215  130.8568  149.8564 H   0  0  0  0  0  0  0  0  0  0  0  0  # atno 10718 bound_to 10713
  154.8029  135.3249  154.7506 H   0  0  0  0  0  0  0  0  0  0  0  0  # atno 10763 bound_to 10752
  153.8170  135.6891  153.4837 H   0  0  0  0  0  0  0  0  0  0  0  0  # atno 10764 bound_to 10752
  153.1756  135.4606  154.9904 H   0  0  0  0  0  0  0  0  0  0  0  0  # atno 10765 bound_to 10752
  140.0372  134.5925  155.9428 H   0  0  0  0  0  0  0  0  0  0  0  0  # atno 11005 bound_to 11000
  145.7033  141.0129  143.1493 LP  0  0  0  0  0  0  0  0  0  0  0  0  # atno 17320 bound_to 7965
  144.7032  139.8670  143.7438 LP  0  0  0  0  0  0  0  0  0  0  0  0  # atno 17321 bound_to 7965
  139.7968  143.8140  152.3158 LP  0  0  0  0  0  0  0  0  0  0  0  0  # atno 17342 bound_to 10162
  139.8143  144.7323  150.9656 LP  0  0  0  0  0  0  0  0  0  0  0  0  # atno 17343 bound_to 10162
  156.0356  130.3752  150.1568 LP  0  0  0  0  0  0  0  0  0  0  0  0  # atno 17370 bound_to 10713
  156.9756  130.9848  151.3449 LP  0  0  0  0  0  0  0  0  0  0  0  0  # atno 17371 bound_to 10713
  141.1864  133.6557  156.5237 LP  0  0  0  0  0  0  0  0  0  0  0  0  # atno 17394 bound_to 11000
  140.4128  134.7257  157.4845 LP  0  0  0  0  0  0  0  0  0  0  0  0  # atno 17395 bound_to 11000

$$$$
