AV-unprocessed.smi:1005|AV-procd|sdf|4369|dock5
  -GOLD-   22720 2273D 1   1.00000     0.00000
 Structure written by MMmdl.
 57 59  0  0  0  0  0  0  0  0  3 V2000
  152.0703  143.8662  161.2675 C   0  0  0  0  0  0  0  0  0  0  0  0
  151.9496  142.9507  160.0620 C   0  0  0  0  0  0  0  0  0  0  0  0
  152.1717  141.5649  160.2269 C   0  0  0  0  0  0  0  0  0  0  0  0
  152.0702  140.6801  159.1315 C   0  0  0  0  0  0  0  0  0  0  0  0
  152.2391  139.3075  159.0658 N   0  0  0  0  0  0  0  0  0  0  0  0
  152.0124  139.0704  157.7775 C   0  0  0  0  0  0  0  0  0  0  0  0
  151.7133  140.1280  156.9991 N   0  0  0  0  0  0  0  0  0  0  0  0
  151.4274  140.1099  155.5756 C   0  0  0  0  0  0  0  0  0  0  0  0
  149.9240  140.2632  155.2765 C   0  0  1  0  0  0  0  0  0  0  0  0
  149.7515  140.6690  153.9322 O   0  0  0  0  0  0  0  0  0  0  0  0
  149.1611  138.9410  155.4900 C   0  0  0  0  0  0  0  0  0  0  0  0
  147.6904  139.1449  155.5883 N   0  3  2  0  0  0  0  0  0  0  0  0
  146.9817  138.1578  156.4419 C   0  0  0  0  0  0  0  0  0  0  0  0
  146.7665  136.8237  155.7022 C   0  0  0  0  0  0  0  0  0  0  0  0
  146.0935  137.0584  154.4710 O   0  0  0  0  0  0  0  0  0  0  0  0
  146.8325  137.9011  153.5921 C   0  0  1  0  0  0  0  0  0  0  0  0
  146.0406  138.0243  152.2762 C   0  0  0  0  0  0  0  0  0  0  0  0
  145.9993  136.7570  151.5013 N   0  3  0  0  0  0  0  0  0  0  0  0
  145.6346  136.9465  150.0779 C   0  0  0  0  0  0  0  0  0  0  0  0
  145.1407  135.7397  152.1482 C   0  0  0  0  0  0  0  0  0  0  0  0
  147.0142  139.2744  154.2739 C   0  0  0  0  0  0  0  0  0  0  0  0
  151.7404  141.2237  157.8556 C   0  0  0  0  0  0  0  0  0  0  0  0
  151.5170  142.6005  157.6789 C   0  0  0  0  0  0  0  0  0  0  0  0
  151.6202  143.4704  158.7845 C   0  0  0  0  0  0  0  0  0  0  0  0
  151.3741  144.9553  158.5842 C   0  0  0  0  0  0  0  0  0  0  0  0
  152.2910  143.3033  162.1749 H   0  0  0  0  0  0  0  0  0  0  0  0
  151.1397  144.4099  161.4309 H   0  0  0  0  0  0  0  0  0  0  0  0
  152.8728  144.5889  161.1180 H   0  0  0  0  0  0  0  0  0  0  0  0
  152.4221  141.1687  161.2001 H   0  0  0  0  0  0  0  0  0  0  0  0
  152.0640  138.0686  157.3761 H   0  0  0  0  0  0  0  0  0  0  0  0
  152.0005  140.9027  155.0929 H   0  0  0  0  0  0  0  0  0  0  0  0
  151.7974  139.1680  155.1686 H   0  0  0  0  0  0  0  0  0  0  0  0
  149.5217  141.0443  155.9211 H   0  0  0  0  0  0  0  0  0  0  0  0
  149.5080  139.9134  153.4179 H   0  0  0  0  0  0  0  0  0  0  0  0
  149.3860  138.2776  154.6531 H   0  0  0  0  0  0  0  0  0  0  0  0
  149.5274  138.4319  156.3815 H   0  0  0  0  0  0  0  0  0  0  0  0
  147.5087  137.9940  157.3811 H   0  0  0  0  0  0  0  0  0  0  0  0
  146.0108  138.5777  156.7085 H   0  0  0  0  0  0  0  0  0  0  0  0
  147.7106  136.3084  155.5224 H   0  0  0  0  0  0  0  0  0  0  0  0
  146.1576  136.1552  156.3111 H   0  0  0  0  0  0  0  0  0  0  0  0
  147.8123  137.4645  153.3985 H   0  0  0  0  0  0  0  0  0  0  0  0
  145.0223  138.3319  152.5196 H   0  0  0  0  0  0  0  0  0  0  0  0
  146.4575  138.8151  151.6507 H   0  0  0  0  0  0  0  0  0  0  0  0
  144.6405  137.3852  149.9832 H   0  0  0  0  0  0  0  0  0  0  0  0
  145.6322  135.9904  149.5532 H   0  0  0  0  0  0  0  0  0  0  0  0
  146.3444  137.5927  149.5633 H   0  0  0  0  0  0  0  0  0  0  0  0
  144.1044  136.0770  152.1988 H   0  0  0  0  0  0  0  0  0  0  0  0
  145.4829  135.5301  153.1620 H   0  0  0  0  0  0  0  0  0  0  0  0
  145.1675  134.8011  151.5934 H   0  0  0  0  0  0  0  0  0  0  0  0
  146.0372  139.7310  154.4394 H   0  0  0  0  0  0  0  0  0  0  0  0
  147.5641  139.9615  153.6293 H   0  0  0  0  0  0  0  0  0  0  0  0
  151.2656  142.9841  156.7013 H   0  0  0  0  0  0  0  0  0  0  0  0
  151.1517  145.1852  157.5418 H   0  0  0  0  0  0  0  0  0  0  0  0
  152.2531  145.5317  158.8737 H   0  0  0  0  0  0  0  0  0  0  0  0
  150.5282  145.2862  159.1873 H   0  0  0  0  0  0  0  0  0  0  0  0
  146.9356  136.3776  151.5177 H   0  0  0  0  0  0  0  0  0  0  0  0
  147.5893  140.0439  156.0391 H   0  0  0  0  0  0  0  0  0  0  0  0
  1  2  1  0  0  0  0
  1 26  1  0  0  0  0
  1 27  1  0  0  0  0
  1 28  1  0  0  0  0
  2 24  1  0  0  0  0
  2  3  2  0  0  0  0
  3  4  1  0  0  0  0
  3 29  1  0  0  0  0
  4 22  2  0  0  0  0
  4  5  1  0  0  0  0
  5  6  2  0  0  0  0
  6  7  1  0  0  0  0
  6 30  1  0  0  0  0
  7  8  1  0  0  0  0
  7 22  1  0  0  0  0
  8  9  1  0  0  0  0
  8 31  1  0  0  0  0
  8 32  1  0  0  0  0
  9 10  1  0  0  0  0
  9 11  1  0  0  0  0
  9 33  1  0  0  0  0
 10 34  1  0  0  0  0
 11 12  1  0  0  0  0
 11 35  1  0  0  0  0
 11 36  1  0  0  0  0
 12 21  1  0  0  0  0
 12 13  1  0  0  0  0
 12 57  1  0  0  0  0
 13 14  1  0  0  0  0
 13 37  1  0  0  0  0
 13 38  1  0  0  0  0
 14 15  1  0  0  0  0
 14 39  1  0  0  0  0
 14 40  1  0  0  0  0
 15 16  1  0  0  0  0
 16 17  1  0  0  0  0
 16 21  1  0  0  0  0
 16 41  1  0  0  0  0
 17 18  1  0  0  0  0
 17 42  1  0  0  0  0
 17 43  1  0  0  0  0
 18 19  1  0  0  0  0
 18 20  1  0  0  0  0
 18 56  1  0  0  0  0
 19 44  1  0  0  0  0
 19 45  1  0  0  0  0
 19 46  1  0  0  0  0
 20 47  1  0  0  0  0
 20 48  1  0  0  0  0
 20 49  1  0  0  0  0
 21 50  1  0  0  0  0
 21 51  1  0  0  0  0
 22 23  1  0  0  0  0
 23 24  2  0  0  0  0
 23 52  1  0  0  0  0
 24 25  1  0  0  0  0
 25 53  1  0  0  0  0
 25 54  1  0  0  0  0
 25 55  1  0  0  0  0
M  CHG  1  12   1
M  CHG  1  18   1
M  END
> <s_m_source_file>
AV-unprocessed.smi

> <i_m_source_file_index>
1005

> <i_lp_mmshare_version>
43012

> <i_f3d_flags>
0

> <s_epik_input>
W0NIM11jKFtjSF0xKWMoW0NIM10pW2NIXWMoYzEyKW4oW2NIXW4yKVtDSDJdW0NASF0oW09IXSlbQ0gyXU4zW0NIMl1bQ0gyXU9bQ0BIXShbQ0gyXTMpW0NIMl1OKFtDSDNdKVtDSDNd

> <s_epik_cmdline>
J2VwaWtfcHl0aG9uJywgJy1waCcsICc3LjAnLCAnLXRuJywgJzgnLCAnLW1hJywgJzIwMCcsICctbWV0YWxfYmluZGluZycsICctaW1hZScsICc8aW5maWxlLm1hZT4nLCAnLW9tYWUnLCAnPG91dGZpbGUubWFlPic=

> <r_epik_Ionization_Penalty>
1.0968

> <r_epik_Ionization_Penalty_Charging>
1.0096

> <r_epik_Ionization_Penalty_Neutral>
0.0871956

> <r_epik_State_Penalty>
1.31185

> <r_epik_Charging_Adjusted_Penalty>
2.32145

> <i_epik_Tot_Q>
2

> <i_epik_Tot_abs_Q>
2

> <r_epik_Metal_State_Penalty>
1.22442

> <b_epik_Metal_Only>
0

> <s_lp_Force_Field>
OPLS_2005

> <r_lp_Energy>
34.9346

> <b_lp_Chiralities_Consistent>
1

> <s_lp_Variant>
AV-unprocessed.smi:1005-8

> <Gold.Version>
5.8.1

> <Gold.Id.Protein>
6NUR|6NUR_protein|mol2

> <Gold.PLP.Fitness>
47.8998

> <Gold.PLP.PLP>
-39.3504

> <Gold.PLP.part.hbond>
-4.4980

> <Gold.PLP.part.metal>
0.0000

> <Gold.PLP.part.buried>
5.3377

> <Gold.PLP.part.nonpolar>
-39.6517

> <Gold.PLP.part.repulsive>
0.1741

> <Gold.PLP.ligand.clash>
0.0000

> <Gold.PLP.ligand.torsion>
0.9324

> <Gold.PLP.Chemscore.Hbond>
3.4394

> <Gold.PLP.Chemscore.CHOScore>
0.0000

> <Gold.PLP.Chemscore.Metal>
0.0000

> <Gold.Chemscore.Hbonds>
donor molecule, donor type, donor heavy atom, donor atom, acceptor molecule, acceptor atom, score
      L1  H    10    34       P1  7957  0.16
      L1  H    18    56       P1  7948  2.00
      P1  H  7989  7998       L1    10  0.55
      P1  H  8011  8017       L1    10  0.16

> <Gold.PLP.Chemscore.Internal.Correction>
0.0960

> <Gold.Rescore>
     Score         DG    S(hbond)    S(metal)    S(lipo)     H(rot)  DE(clash)    DE(int)     intcor
     14.45     -20.58       1.75        0.00     133.30       2.48       3.95       2.18       ----

> <Gold.Chemscore.Fitness>
14.4466

> <Gold.Chemscore.DG>
-20.5778

> <Gold.Chemscore.ZeroCoef>
-5.4800

> <Gold.Chemscore.Hbond>
1.7527

> <Gold.Chemscore.Metal>
0.0000

> <Gold.Chemscore.Lipo>
133.2992

> <Gold.Chemscore.Internal_Hbond>
0.0000

> <Gold.Chemscore.DEClash>
3.9520

> <Gold.Chemscore.DEInternal>
2.1793

> <Gold.Chemscore.Rot>
2.4814

> <Gold.Chemscore.Internal.Correction>
   9.000000E+99

> <Gold.Chemscore.Hbonds>
donor molecule, donor type, donor heavy atom, donor atom, acceptor molecule, acceptor atom, score
      L1  H    10    34       P1  7957  0.16
      L1  H    18    56       P1  7948  0.94
      P1  H  7989  7998       L1    10  0.04
      P1  H  8011  8017       L1    10  0.07

> <Gold.Chemscore.Hbond.Weighted>
-5.8542

> <Gold.Chemscore.Metal.Weighted>
-0.0000

> <Gold.Chemscore.Lipo.Weighted>
-15.5960

> <Gold.Chemscore.Internal_Hbond.Weighted>
0.0000

> <Gold.Chemscore.DEClash.Weighted>
3.9520

> <Gold.Chemscore.DEInternal.Weighted>
2.1793

> <Gold.Chemscore.Rot.Weighted>
6.3524

> <Gold.Chemscore.Internal.Correction.Weighted>
   9.000000E+99

> <Gold.Protein.RotatedTorsions>
[ 6907 6896 6895 6894 ] final -103.22 input  -60.11 | X-H torsion
[ 7974 7965 7964 7962 ] final -169.23 input  175.53 | X-H torsion
[ 8008 7997 7996 7995 ] final   53.85 input   59.86 | X-H torsion
[ 10167 10162 10161 10158 ] final  129.75 input  -65.29 | X-H torsion
[ 10718 10713 10712 10709 ] final  -28.65 input   66.30 | X-H torsion
[ 10763 10752 10751 10750 ] final   60.43 input  -60.55 | X-H torsion
[ 11005 11000 10999 10996 ] final -136.35 input  -57.11 | X-H torsion

> <Gold.Protein.ActiveResidues>
 VAL166  LYS551  ARG553  GLY616  TRP617  ASP618  TYR619  PRO620  LYS621  CYS622 
 ASP623  PHE694  ASN695  SER759  ASP760  ASP761  ALA762  ILE779  LEU786  VAL792 
 PHE793  MET794  SER795  GLU796  ALA797  LYS798  CYS799  TRP800  GLU811  SER814 

> <Gold.Protein.RotatedAtoms>
  150.7231  134.0462  159.3782 H   0  0  0  0  0  0  0  0  0  0  0  0  # atno 6907 bound_to 6896
  151.8437  135.0579  160.0460 H   0  0  0  0  0  0  0  0  0  0  0  0  # atno 6908 bound_to 6896
  152.2843  133.5464  159.5554 H   0  0  0  0  0  0  0  0  0  0  0  0  # atno 6909 bound_to 6896
  144.7189  140.2252  143.6311 H   0  0  0  0  0  0  0  0  0  0  0  0  # atno 7974 bound_to 7965
  155.4751  140.3466  155.4331 H   0  0  0  0  0  0  0  0  0  0  0  0  # atno 8008 bound_to 7997
  156.1075  140.1452  156.9412 H   0  0  0  0  0  0  0  0  0  0  0  0  # atno 8009 bound_to 7997
  154.4734  140.0893  156.7181 H   0  0  0  0  0  0  0  0  0  0  0  0  # atno 8010 bound_to 7997
  139.5463  144.6776  151.4463 H   0  0  0  0  0  0  0  0  0  0  0  0  # atno 10167 bound_to 10162
  156.4226  130.4429  149.7173 H   0  0  0  0  0  0  0  0  0  0  0  0  # atno 10718 bound_to 10713
  152.9921  135.5536  154.5872 H   0  0  0  0  0  0  0  0  0  0  0  0  # atno 10763 bound_to 10752
  154.5241  135.2809  155.1239 H   0  0  0  0  0  0  0  0  0  0  0  0  # atno 10764 bound_to 10752
  154.2580  135.6386  153.5317 H   0  0  0  0  0  0  0  0  0  0  0  0  # atno 10765 bound_to 10752
  140.8813  134.1928  157.4589 H   0  0  0  0  0  0  0  0  0  0  0  0  # atno 11005 bound_to 11000
  145.8463  139.2154  143.1798 LP  0  0  0  0  0  0  0  0  0  0  0  0  # atno 17320 bound_to 7965
  146.0301  140.8266  142.9880 LP  0  0  0  0  0  0  0  0  0  0  0  0  # atno 17321 bound_to 7965
  140.6712  143.8290  150.7001 LP  0  0  0  0  0  0  0  0  0  0  0  0  # atno 17342 bound_to 10162
  140.1715  143.4191  152.1998 LP  0  0  0  0  0  0  0  0  0  0  0  0  # atno 17343 bound_to 10162
  156.4108  130.7721  151.2734 LP  0  0  0  0  0  0  0  0  0  0  0  0  # atno 17370 bound_to 10713
  157.7508  131.0212  150.3740 LP  0  0  0  0  0  0  0  0  0  0  0  0  # atno 17371 bound_to 10713
  139.8720  134.9818  156.5132 LP  0  0  0  0  0  0  0  0  0  0  0  0  # atno 17394 bound_to 11000
  140.8458  133.8170  155.9120 LP  0  0  0  0  0  0  0  0  0  0  0  0  # atno 17395 bound_to 11000

$$$$
