AV-unprocessed.smi:2309|AV-procd|sdf|9253|dock3
  -GOLD-   2272012473D 1   1.00000     0.00000
 Structure written by MMmdl.
 34 35  0  0  0  0  0  0  0  0  1 V2000
  153.8684  135.4717  164.3188 C   0  0  0  0  0  0  0  0  0  0  0  0
  154.1477  136.7039  163.4764 C   0  0  0  0  0  0  0  0  0  0  0  0
  153.7247  136.6341  162.1460 N   0  0  0  0  0  0  0  0  0  0  0  0
  153.9218  137.6365  161.3540 C   0  0  0  0  0  0  0  0  0  0  0  0
  154.5548  138.8119  161.7926 N   0  0  0  0  0  0  0  0  0  0  0  0
  154.7231  139.8770  160.7886 C   0  0  0  0  0  0  0  0  0  0  0  0
  153.3972  140.2292  160.0770 C   0  0  2  0  0  0  0  0  0  0  0  0
  153.5740  140.0763  158.6815 O   0  0  0  0  0  0  0  0  0  0  0  0
  152.9475  141.6430  160.4424 C   0  0  0  0  0  0  0  0  0  0  0  0
  153.2124  142.1560  161.7339 C   0  0  0  0  0  0  0  0  0  0  0  0
  152.7974  143.4528  162.0912 C   0  0  0  0  0  0  0  0  0  0  0  0
  153.1326  144.0614  163.6703 Cl  0  0  0  0  0  0  0  0  0  0  0  0
  152.1068  144.2509  161.1614 C   0  0  0  0  0  0  0  0  0  0  0  0
  151.8262  143.7469  159.8783 C   0  0  0  0  0  0  0  0  0  0  0  0
  152.2375  142.4485  159.5157 C   0  0  0  0  0  0  0  0  0  0  0  0
  151.8398  141.8736  157.9338 Cl  0  0  0  0  0  0  0  0  0  0  0  0
  154.9986  138.9628  163.0739 C   0  0  0  0  0  0  0  0  0  0  0  0
  155.5536  139.9965  163.4509 O   0  0  0  0  0  0  0  0  0  0  0  0
  154.7679  137.8131  163.9638 C   0  0  0  0  0  0  0  0  0  0  0  0
  155.2513  137.9449  165.4029 C   0  0  0  0  0  0  0  0  0  0  0  0
  154.7969  135.0615  164.7169 H   0  0  0  0  0  0  0  0  0  0  0  0
  153.3837  134.6905  163.7317 H   0  0  0  0  0  0  0  0  0  0  0  0
  153.2100  135.7205  165.1516 H   0  0  0  0  0  0  0  0  0  0  0  0
  153.6158  137.6312  160.3063 H   0  0  0  0  0  0  0  0  0  0  0  0
  155.1025  140.7663  161.2968 H   0  0  0  0  0  0  0  0  0  0  0  0
  155.4995  139.6389  160.0593 H   0  0  0  0  0  0  0  0  0  0  0  0
  152.6165  139.5240  160.3601 H   0  0  0  0  0  0  0  0  0  0  0  0
  152.7410  139.8526  158.2954 H   0  0  0  0  0  0  0  0  0  0  0  0
  153.7337  141.5540  162.4638 H   0  0  0  0  0  0  0  0  0  0  0  0
  151.7864  145.2463  161.4322 H   0  0  0  0  0  0  0  0  0  0  0  0
  151.2876  144.3594  159.1700 H   0  0  0  0  0  0  0  0  0  0  0  0
  154.7719  138.7980  165.8843 H   0  0  0  0  0  0  0  0  0  0  0  0
  156.3296  138.1067  165.4234 H   0  0  0  0  0  0  0  0  0  0  0  0
  155.0400  137.0659  166.0096 H   0  0  0  0  0  0  0  0  0  0  0  0
  1  2  1  0  0  0  0
  1 21  1  0  0  0  0
  1 22  1  0  0  0  0
  1 23  1  0  0  0  0
  2 19  2  0  0  0  0
  2  3  1  0  0  0  0
  3  4  2  0  0  0  0
  4  5  1  0  0  0  0
  4 24  1  0  0  0  0
  5  6  1  0  0  0  0
  5 17  1  0  0  0  0
  6  7  1  0  0  0  0
  6 25  1  0  0  0  0
  6 26  1  0  0  0  0
  7  8  1  0  0  0  0
  7  9  1  0  0  0  0
  7 27  1  0  0  0  0
  8 28  1  0  0  0  0
  9 15  1  0  0  0  0
  9 10  2  0  0  0  0
 10 11  1  0  0  0  0
 10 29  1  0  0  0  0
 11 12  1  0  0  0  0
 11 13  2  0  0  0  0
 13 14  1  0  0  0  0
 13 30  1  0  0  0  0
 14 15  2  0  0  0  0
 14 31  1  0  0  0  0
 15 16  1  0  0  0  0
 17 18  2  0  0  0  0
 17 19  1  0  0  0  0
 19 20  1  0  0  0  0
 20 32  1  0  0  0  0
 20 33  1  0  0  0  0
 20 34  1  0  0  0  0
M  END
> <s_m_source_file>
AV-unprocessed.smi

> <i_m_source_file_index>
2309

> <i_lp_mmshare_version>
43012

> <i_f3d_flags>
0

> <s_epik_input>
W0NIM11jMW5bY0hdbihjKD1PKWMxW0NIM10pW0NIMl1bQ0BIXShbT0hdKWMyW2NIXWMoQ2wpW2NIXVtjSF1jMkNs

> <s_epik_cmdline>
J2VwaWtfcHl0aG9uJywgJy1waCcsICc3LjAnLCAnLXRuJywgJzgnLCAnLW1hJywgJzIwMCcsICctbWV0YWxfYmluZGluZycsICctaW1hZScsICc8aW5maWxlLm1hZT4nLCAnLW9tYWUnLCAnPG91dGZpbGUubWFlPic=

> <r_lp_tautomer_probability>
1

> <r_epik_Ionization_Penalty>
5.09224e-05

> <r_epik_Ionization_Penalty_Charging>
7.56727e-08

> <r_epik_Ionization_Penalty_Neutral>
5.08468e-05

> <r_epik_State_Penalty>
-0

> <r_epik_Charging_Adjusted_Penalty>
7.56727e-08

> <i_epik_Tot_Q>
0

> <i_epik_Tot_abs_Q>
0

> <r_epik_Metal_State_Penalty>
-0

> <b_epik_Metal_Only>
0

> <s_lp_Force_Field>
OPLS_2005

> <r_lp_Energy>
19.5674

> <b_lp_Chiralities_Consistent>
1

> <s_lp_Variant>
AV-unprocessed.smi:2309-1

> <Gold.Version>
5.8.1

> <Gold.Id.Protein>
6NUR|6NUR_protein|mol2

> <Gold.PLP.Fitness>
47.3408

> <Gold.PLP.PLP>
-47.3821

> <Gold.PLP.part.hbond>
-1.0211

> <Gold.PLP.part.metal>
0.0000

> <Gold.PLP.part.buried>
-5.1191

> <Gold.PLP.part.nonpolar>
-40.9526

> <Gold.PLP.part.repulsive>
0.0000

> <Gold.PLP.ligand.clash>
0.0000

> <Gold.PLP.ligand.torsion>
1.5134

> <Gold.PLP.Chemscore.Hbond>
0.9920

> <Gold.PLP.Chemscore.CHOScore>
0.0000

> <Gold.PLP.Chemscore.Metal>
0.0000

> <Gold.Chemscore.Hbonds>
donor molecule, donor type, donor heavy atom, donor atom, acceptor molecule, acceptor atom, score
      P1  H  7997  8008       L1     8  1.00

> <Gold.PLP.Chemscore.Internal.Correction>
0.0094

> <Gold.Rescore>
     Score         DG    S(hbond)    S(metal)    S(lipo)     H(rot)  DE(clash)    DE(int)     intcor
     14.95     -18.43       0.99        0.00     124.72       1.93       0.41       3.07       ----

> <Gold.Chemscore.Fitness>
14.9524

> <Gold.Chemscore.DG>
-18.4343

> <Gold.Chemscore.ZeroCoef>
-5.4800

> <Gold.Chemscore.Hbond>
0.9862

> <Gold.Chemscore.Metal>
0.0000

> <Gold.Chemscore.Lipo>
124.7181

> <Gold.Chemscore.Internal_Hbond>
0.0000

> <Gold.Chemscore.DEClash>
0.4136

> <Gold.Chemscore.DEInternal>
3.0684

> <Gold.Chemscore.Rot>
1.9265

> <Gold.Chemscore.Internal.Correction>
   9.000000E+99

> <Gold.Chemscore.Hbonds>
donor molecule, donor type, donor heavy atom, donor atom, acceptor molecule, acceptor atom, score
      P1  H  7997  8008       L1     8  0.33

> <Gold.Chemscore.Hbond.Weighted>
-3.2940

> <Gold.Chemscore.Metal.Weighted>
-0.0000

> <Gold.Chemscore.Lipo.Weighted>
-14.5920

> <Gold.Chemscore.Internal_Hbond.Weighted>
0.0000

> <Gold.Chemscore.DEClash.Weighted>
0.4136

> <Gold.Chemscore.DEInternal.Weighted>
3.0684

> <Gold.Chemscore.Rot.Weighted>
4.9317

> <Gold.Chemscore.Internal.Correction.Weighted>
   9.000000E+99

> <Gold.Protein.RotatedTorsions>
[ 6907 6896 6895 6894 ] final  112.94 input  -60.11 | X-H torsion
[ 7974 7965 7964 7962 ] final -158.38 input  175.53 | X-H torsion
[ 8008 7997 7996 7995 ] final  -97.69 input   59.86 | X-H torsion
[ 10167 10162 10161 10158 ] final  143.23 input  -65.29 | X-H torsion
[ 10718 10713 10712 10709 ] final  129.78 input   66.30 | X-H torsion
[ 10763 10752 10751 10750 ] final   41.64 input  -60.55 | X-H torsion
[ 11005 11000 10999 10996 ] final   58.20 input  -57.11 | X-H torsion

> <Gold.Protein.ActiveResidues>
 VAL166  LYS551  ARG553  GLY616  TRP617  ASP618  TYR619  PRO620  LYS621  CYS622 
 ASP623  PHE694  ASN695  SER759  ASP760  ASP761  ALA762  ILE779  LEU786  VAL792 
 PHE793  MET794  SER795  GLU796  ALA797  LYS798  CYS799  TRP800  GLU811  SER814 

> <Gold.Protein.RotatedAtoms>
  152.4888  133.8445  159.7169 H   0  0  0  0  0  0  0  0  0  0  0  0  # atno 6907 bound_to 6896
  150.8999  133.7123  159.2888 H   0  0  0  0  0  0  0  0  0  0  0  0  # atno 6908 bound_to 6896
  151.4567  135.1039  159.9765 H   0  0  0  0  0  0  0  0  0  0  0  0  # atno 6909 bound_to 6896
  144.7508  140.3836  143.6049 H   0  0  0  0  0  0  0  0  0  0  0  0  # atno 7974 bound_to 7965
  154.7911  140.0461  157.1201 H   0  0  0  0  0  0  0  0  0  0  0  0  # atno 8008 bound_to 7997
  154.9590  140.3075  155.5020 H   0  0  0  0  0  0  0  0  0  0  0  0  # atno 8009 bound_to 7997
  156.2950  140.2274  156.4674 H   0  0  0  0  0  0  0  0  0  0  0  0  # atno 8010 bound_to 7997
  139.4974  144.6054  151.6390 H   0  0  0  0  0  0  0  0  0  0  0  0  # atno 10167 bound_to 10162
  157.5122  131.1097  150.9276 H   0  0  0  0  0  0  0  0  0  0  0  0  # atno 10718 bound_to 10713
  152.9903  135.6155  154.2820 H   0  0  0  0  0  0  0  0  0  0  0  0  # atno 10763 bound_to 10752
  154.2549  135.2784  155.2803 H   0  0  0  0  0  0  0  0  0  0  0  0  # atno 10764 bound_to 10752
  154.5256  135.5802  153.6773 H   0  0  0  0  0  0  0  0  0  0  0  0  # atno 10765 bound_to 10752
  140.0395  134.5894  155.9400 H   0  0  0  0  0  0  0  0  0  0  0  0  # atno 11005 bound_to 11000
  145.6951  139.1648  143.2624 LP  0  0  0  0  0  0  0  0  0  0  0  0  # atno 17320 bound_to 7965
  146.1455  140.6998  142.9346 LP  0  0  0  0  0  0  0  0  0  0  0  0  # atno 17321 bound_to 7965
  140.5714  144.0102  150.6219 LP  0  0  0  0  0  0  0  0  0  0  0  0  # atno 17342 bound_to 10162
  140.3220  143.3131  152.0774 LP  0  0  0  0  0  0  0  0  0  0  0  0  # atno 17343 bound_to 10162
  156.9912  130.5564  149.5303 LP  0  0  0  0  0  0  0  0  0  0  0  0  # atno 17370 bound_to 10713
  156.0297  130.5389  150.8501 LP  0  0  0  0  0  0  0  0  0  0  0  0  # atno 17371 bound_to 10713
  141.1875  133.6560  156.5286 LP  0  0  0  0  0  0  0  0  0  0  0  0  # atno 17394 bound_to 11000
  140.4092  134.7287  157.4826 LP  0  0  0  0  0  0  0  0  0  0  0  0  # atno 17395 bound_to 11000

$$$$
