AV-unprocessed.smi:2451|AV-procd|sdf|9671|dock4
  -GOLD-   2272013313D 1   1.00000     0.00000
 Structure written by MMmdl.
 38 39  0  0  0  0  0  0  0  0  1 V2000
  151.3563  145.3011  158.9147 C   0  0  0  0  0  0  0  0  0  0  0  0
  151.4863  143.8846  159.5042 C   0  0  2  0  0  0  0  0  0  0  0  0
  152.5006  143.9005  160.6653 C   0  0  0  0  0  0  0  0  0  0  0  0
  152.6416  142.5201  161.3153 C   0  0  0  0  0  0  0  0  0  0  0  0
  153.0722  141.4816  160.2764 C   0  0  0  0  0  0  0  0  0  0  0  0
  152.0860  141.4274  159.0967 C   0  0  2  0  0  0  0  0  0  0  0  0
  152.6002  140.4751  158.1072 N   0  0  0  0  0  0  0  0  0  0  0  0
  152.4673  138.7866  158.4309 S   0  0  0  0  0  0  0  0  0  0  0  0
  153.3040  138.4921  159.6040 O   0  0  0  0  0  0  0  0  0  0  0  0
  151.0358  138.4469  158.4458 O   0  0  0  0  0  0  0  0  0  0  0  0
  153.2331  138.0360  156.9337 C   0  0  0  0  0  0  0  0  0  0  0  0
  152.2752  138.1217  155.7807 C   0  0  0  0  0  0  0  0  0  0  0  0
  151.8518  139.2783  155.0690 C   0  0  0  0  0  0  0  0  0  0  0  0
  150.9909  138.7797  154.1343 C   0  0  0  0  0  0  0  0  0  0  0  0
  150.8909  137.4316  154.2518 O   0  0  0  0  0  0  0  0  0  0  0  0
  151.7164  137.0202  155.3046 N   0  0  0  0  0  0  0  0  0  0  0  0
  151.8625  142.8151  158.4389 C   0  0  1  0  0  0  0  0  0  0  0  0
  150.7951  142.7224  157.3264 C   0  0  0  0  0  0  0  0  0  0  0  0
  152.2669  145.5991  158.3942 H   0  0  0  0  0  0  0  0  0  0  0  0
  151.1687  146.0354  159.6987 H   0  0  0  0  0  0  0  0  0  0  0  0
  150.5269  145.3759  158.2124 H   0  0  0  0  0  0  0  0  0  0  0  0
  150.5159  143.6151  159.9238 H   0  0  0  0  0  0  0  0  0  0  0  0
  153.4739  144.2339  160.3021 H   0  0  0  0  0  0  0  0  0  0  0  0
  152.1911  144.6229  161.4216 H   0  0  0  0  0  0  0  0  0  0  0  0
  153.3712  142.5618  162.1246 H   0  0  0  0  0  0  0  0  0  0  0  0
  151.6933  142.2232  161.7652 H   0  0  0  0  0  0  0  0  0  0  0  0
  154.0711  141.7289  159.9142 H   0  0  0  0  0  0  0  0  0  0  0  0
  153.1479  140.5008  160.7475 H   0  0  0  0  0  0  0  0  0  0  0  0
  151.1267  141.0676  159.4717 H   0  0  0  0  0  0  0  0  0  0  0  0
  153.5435  140.7235  157.8102 H   0  0  0  0  0  0  0  0  0  0  0  0
  154.1527  138.5776  156.7132 H   0  0  0  0  0  0  0  0  0  0  0  0
  153.5008  137.0037  157.1606 H   0  0  0  0  0  0  0  0  0  0  0  0
  152.1322  140.3096  155.2233 H   0  0  0  0  0  0  0  0  0  0  0  0
  150.4002  139.2335  153.3523 H   0  0  0  0  0  0  0  0  0  0  0  0
  152.8021  143.1217  157.9760 H   0  0  0  0  0  0  0  0  0  0  0  0
  149.8165  142.4724  157.7375 H   0  0  0  0  0  0  0  0  0  0  0  0
  151.0439  141.9595  156.5889 H   0  0  0  0  0  0  0  0  0  0  0  0
  150.6994  143.6570  156.7755 H   0  0  0  0  0  0  0  0  0  0  0  0
  1  2  1  0  0  0  0
  1 19  1  0  0  0  0
  1 20  1  0  0  0  0
  1 21  1  0  0  0  0
  2 17  1  0  0  0  0
  2  3  1  0  0  0  0
  2 22  1  0  0  0  0
  3  4  1  0  0  0  0
  3 23  1  0  0  0  0
  3 24  1  0  0  0  0
  4  5  1  0  0  0  0
  4 25  1  0  0  0  0
  4 26  1  0  0  0  0
  5  6  1  0  0  0  0
  5 27  1  0  0  0  0
  5 28  1  0  0  0  0
  6  7  1  0  0  0  0
  6 17  1  0  0  0  0
  6 29  1  0  0  0  0
  7  8  1  0  0  0  0
  7 30  1  0  0  0  0
  8  9  2  0  0  0  0
  8 10  2  0  0  0  0
  8 11  1  0  0  0  0
 11 12  1  0  0  0  0
 11 31  1  0  0  0  0
 11 32  1  0  0  0  0
 12 16  2  0  0  0  0
 12 13  1  0  0  0  0
 13 14  2  0  0  0  0
 13 33  1  0  0  0  0
 14 15  1  0  0  0  0
 14 34  1  0  0  0  0
 15 16  1  0  0  0  0
 17 18  1  0  0  0  0
 17 35  1  0  0  0  0
 18 36  1  0  0  0  0
 18 37  1  0  0  0  0
 18 38  1  0  0  0  0
M  END
> <s_m_source_file>
AV-unprocessed.smi

> <i_m_source_file_index>
2451

> <i_lp_mmshare_version>
43012

> <i_f3d_flags>
0

> <s_epik_input>
W0NIM11bQ0BASF0xW0NIMl1bQ0gyXVtDSDJdW0NASF0oW0NASF0xW0NIM10pW05IXVMoPU8pKD1PKVtDSDJdYzJbY0hdW2NIXW9uMg==

> <s_epik_cmdline>
J2VwaWtfcHl0aG9uJywgJy1waCcsICc3LjAnLCAnLXRuJywgJzgnLCAnLW1hJywgJzIwMCcsICctbWV0YWxfYmluZGluZycsICctaW1hZScsICc8aW5maWxlLm1hZT4nLCAnLW9tYWUnLCAnPG91dGZpbGUubWFlPic=

> <r_lp_tautomer_probability>
1

> <r_epik_Ionization_Penalty>
8.73668e-05

> <r_epik_Ionization_Penalty_Charging>
0

> <r_epik_Ionization_Penalty_Neutral>
8.73668e-05

> <r_epik_State_Penalty>
-0

> <r_epik_Charging_Adjusted_Penalty>
0

> <i_epik_Tot_Q>
0

> <i_epik_Tot_abs_Q>
0

> <r_epik_Metal_State_Penalty>
0.0716439

> <b_epik_Metal_Only>
0

> <s_lp_Force_Field>
OPLS_2005

> <r_lp_Energy>
6.58047

> <b_lp_Chiralities_Consistent>
1

> <s_lp_Variant>
AV-unprocessed.smi:2451-3

> <Gold.Version>
5.8.1

> <Gold.Id.Protein>
6NUR|6NUR_protein|mol2

> <Gold.PLP.Fitness>
41.0653

> <Gold.PLP.PLP>
-36.1891

> <Gold.PLP.part.hbond>
-1.6472

> <Gold.PLP.part.metal>
0.0000

> <Gold.PLP.part.buried>
-4.0778

> <Gold.PLP.part.nonpolar>
-30.1700

> <Gold.PLP.part.repulsive>
0.2904

> <Gold.PLP.ligand.clash>
0.0000

> <Gold.PLP.ligand.torsion>
0.5624

> <Gold.PLP.Chemscore.Hbond>
1.0000

> <Gold.PLP.Chemscore.CHOScore>
0.9521

> <Gold.PLP.Chemscore.Metal>
0.0000

> <Gold.Chemscore.Hbonds>
donor molecule, donor type, donor heavy atom, donor atom, acceptor molecule, acceptor atom, score
      P1  H 10752 10763       L1    16  0.98
      L1  C    14    34       P1  7957  1.00

> <Gold.PLP.Chemscore.Internal.Correction>
0.1445

> <Gold.Rescore>
     Score         DG    S(hbond)    S(metal)    S(lipo)     H(rot)  DE(clash)    DE(int)     intcor
     16.54     -17.17       0.88        0.00     111.24       1.66       0.03       0.61       ----

> <Gold.Chemscore.Fitness>
16.5405

> <Gold.Chemscore.DG>
-17.1726

> <Gold.Chemscore.ZeroCoef>
-5.4800

> <Gold.Chemscore.Hbond>
0.8756

> <Gold.Chemscore.Metal>
0.0000

> <Gold.Chemscore.Lipo>
111.2356

> <Gold.Chemscore.Internal_Hbond>
0.0000

> <Gold.Chemscore.DEClash>
0.0270

> <Gold.Chemscore.DEInternal>
0.6051

> <Gold.Chemscore.Rot>
1.6588

> <Gold.Chemscore.Internal.Correction>
   9.000000E+99

> <Gold.Chemscore.Hbonds>
donor molecule, donor type, donor heavy atom, donor atom, acceptor molecule, acceptor atom, score
      P1  H 10752 10763       L1    16  0.71

> <Gold.Chemscore.Hbond.Weighted>
-2.9246

> <Gold.Chemscore.Metal.Weighted>
-0.0000

> <Gold.Chemscore.Lipo.Weighted>
-13.0146

> <Gold.Chemscore.Internal_Hbond.Weighted>
0.0000

> <Gold.Chemscore.DEClash.Weighted>
0.0270

> <Gold.Chemscore.DEInternal.Weighted>
0.6051

> <Gold.Chemscore.Rot.Weighted>
4.2466

> <Gold.Chemscore.Internal.Correction.Weighted>
   9.000000E+99

> <Gold.Protein.RotatedTorsions>
[ 6907 6896 6895 6894 ] final  114.03 input  -60.11 | X-H torsion
[ 7974 7965 7964 7962 ] final -110.22 input  175.53 | X-H torsion
[ 8008 7997 7996 7995 ] final  -80.23 input   59.86 | X-H torsion
[ 10167 10162 10161 10158 ] final  116.11 input  -65.29 | X-H torsion
[ 10718 10713 10712 10709 ] final -102.95 input   66.30 | X-H torsion
[ 10763 10752 10751 10750 ] final   78.29 input  -60.55 | X-H torsion
[ 11005 11000 10999 10996 ] final  -55.38 input  -57.11 | X-H torsion

> <Gold.Protein.ActiveResidues>
 VAL166  LYS551  ARG553  GLY616  TRP617  ASP618  TYR619  PRO620  LYS621  CYS622 
 ASP623  PHE694  ASN695  SER759  ASP760  ASP761  ALA762  ILE779  LEU786  VAL792 
 PHE793  MET794  SER795  GLU796  ALA797  LYS798  CYS799  TRP800  GLU811  SER814 

> <Gold.Protein.RotatedAtoms>
  152.4826  133.8292  159.7094 H   0  0  0  0  0  0  0  0  0  0  0  0  # atno 6907 bound_to 6896
  150.8887  133.7262  159.2917 H   0  0  0  0  0  0  0  0  0  0  0  0  # atno 6908 bound_to 6896
  151.4742  135.1051  159.9812 H   0  0  0  0  0  0  0  0  0  0  0  0  # atno 6909 bound_to 6896
  145.1710  140.8925  143.3535 H   0  0  0  0  0  0  0  0  0  0  0  0  # atno 7974 bound_to 7965
  154.5863  140.0666  156.9175 H   0  0  0  0  0  0  0  0  0  0  0  0  # atno 8008 bound_to 7997
  155.2374  140.3342  155.4278 H   0  0  0  0  0  0  0  0  0  0  0  0  # atno 8009 bound_to 7997
  156.2225  140.1805  156.7428 H   0  0  0  0  0  0  0  0  0  0  0  0  # atno 8010 bound_to 7997
  139.6270  144.7110  151.2513 H   0  0  0  0  0  0  0  0  0  0  0  0  # atno 10167 bound_to 10162
  156.0247  130.5444  150.7182 H   0  0  0  0  0  0  0  0  0  0  0  0  # atno 10718 bound_to 10713
  153.0863  135.4882  154.8603 H   0  0  0  0  0  0  0  0  0  0  0  0  # atno 10763 bound_to 10752
  154.7214  135.3040  154.9043 H   0  0  0  0  0  0  0  0  0  0  0  0  # atno 10764 bound_to 10752
  153.9706  135.6801  153.4800 H   0  0  0  0  0  0  0  0  0  0  0  0  # atno 10765 bound_to 10752
  141.1071  133.6612  156.4460 H   0  0  0  0  0  0  0  0  0  0  0  0  # atno 11005 bound_to 11000
  145.0233  139.3405  143.6061 LP  0  0  0  0  0  0  0  0  0  0  0  0  # atno 17320 bound_to 7965
  146.3468  139.9542  142.8725 LP  0  0  0  0  0  0  0  0  0  0  0  0  # atno 17321 bound_to 7965
  140.7416  143.6550  150.8214 LP  0  0  0  0  0  0  0  0  0  0  0  0  # atno 17342 bound_to 10162
  140.0170  143.5583  152.2816 LP  0  0  0  0  0  0  0  0  0  0  0  0  # atno 17343 bound_to 10162
  157.4804  131.0902  151.0542 LP  0  0  0  0  0  0  0  0  0  0  0  0  # atno 17370 bound_to 10713
  157.0977  130.5969  149.5453 LP  0  0  0  0  0  0  0  0  0  0  0  0  # atno 17371 bound_to 10713
  140.4874  134.6608  157.5196 LP  0  0  0  0  0  0  0  0  0  0  0  0  # atno 17394 bound_to 11000
  139.9946  134.6931  155.9631 LP  0  0  0  0  0  0  0  0  0  0  0  0  # atno 17395 bound_to 11000

$$$$
