#       Name:                AV-unprocessed.smi:2704
#       Creating user name   scv26
#       Creation time:       Fri Mar 27 14:48:29 2020


#       File generated by GOLD software.
#

@<TRIPOS>MOLECULE
AV-unprocessed.smi:2704
    51    52     1
SMALL
NO_CHARGES


@<TRIPOS>ATOM
      1 ****        -2.6004  -1.2309   3.8714 C.3            1 S1                 0.0000
      2 ****        -2.5030  -0.2386   2.7031 C.3            1 S1                 0.0000
      3 ****        -2.6876  -0.9080   1.3337 C.3            1 S1                 0.0000
      4 ****        -1.2419   0.5685   2.7664 C.2            1 S1                 0.0000
      5 ****        -1.2751   1.8802   2.9718 N.2            1 S1                 0.0000
      6 ****         0.0791   2.2426   2.9845 O.3            1 S1                 0.0000
      7 ****         0.7710   1.0935   2.7982 C.2            1 S1                 0.0000
      8 ****         2.2626   1.1563   2.7225 C.3            1 S1                 0.0000
      9 ****         2.8052   1.6884   1.3830 C.3            1 S1                 0.0000
     10 ****         2.4173   0.8546   0.2485 N.am           1 S1                 0.0000
     11 ****         1.3636   1.0655  -0.5601 C.2            1 S1                 0.0000
     12 ****         0.5998   2.0203  -0.4107 O.2            1 S1                 0.0000
     13 ****         1.1097   0.0556  -1.7032 C.3            1 S1                 0.0000
     14 ****         2.1366  -0.9259  -1.7340 O.3            1 S1                 0.0000
     15 ****        -0.2413  -0.6644  -1.4691 C.3            1 S1                 0.0000
     16 ****        -0.6533  -1.5666  -2.6463 C.3            1 S1                 0.0000
     17 ****        -0.6726  -0.7860  -3.9679 C.3            1 S1                 0.0000
     18 ****         0.6862  -0.1234  -4.2358 C.3            1 S1                 0.0000
     19 ****         1.1031   0.7897  -3.0684 C.3            1 S1                 0.0000
     20 ****        -0.0004   0.0203   2.6398 N.2            1 S1                 0.0000
     21 ****        -2.5450  -0.7137   4.8299 H              1 S1                 0.0000
     22 ****        -1.7927  -1.9630   3.8403 H              1 S1                 0.0000
     23 ****        -3.5438  -1.7766   3.8451 H              1 S1                 0.0000
     24 ****        -3.3375   0.4551   2.8191 H              1 S1                 0.0000
     25 ****        -2.6858  -0.1684   0.5326 H              1 S1                 0.0000
     26 ****        -3.6350  -1.4451   1.2840 H              1 S1                 0.0000
     27 ****        -1.8907  -1.6241   1.1321 H              1 S1                 0.0000
     28 ****         2.6194   1.7878   3.5366 H              1 S1                 0.0000
     29 ****         2.6612   0.1588   2.9114 H              1 S1                 0.0000
     30 ****         2.4849   2.7204   1.2312 H              1 S1                 0.0000
     31 ****         3.8944   1.7128   1.4201 H              1 S1                 0.0000
     32 ****         2.9913   0.0455   0.0584 H              1 S1                 0.0000
     33 ****         1.9486  -1.5298  -2.4362 H              1 S1                 0.0000
     34 ****        -0.1952  -1.2569  -0.5545 H              1 S1                 0.0000
     35 ****        -1.0311   0.0720  -1.3125 H              1 S1                 0.0000
     36 ****         0.0345  -2.4091  -2.7277 H              1 S1                 0.0000
     37 ****        -1.6381  -1.9938  -2.4553 H              1 S1                 0.0000
     38 ****        -0.9301  -1.4534  -4.7909 H              1 S1                 0.0000
     39 ****        -1.4515  -0.0232  -3.9318 H              1 S1                 0.0000
     40 ****         1.4437  -0.8913  -4.3957 H              1 S1                 0.0000
     41 ****         0.6396   0.4560  -5.1583 H              1 S1                 0.0000
     42 ****         0.4116   1.6335  -3.0344 H              1 S1                 0.0000
     43 ****         2.0866   1.2160  -3.2721 H              1 S1                 0.0000
     44 ****        -2.0749   2.4687   3.0894 LP             1 S1                 0.0000
     45 ****         0.3207   2.6559   3.8625 LP             1 S1                 0.0000
     46 ****         0.2734   2.8893   2.2470 LP             1 S1                 0.0000
     47 ****         0.7531   2.6716   0.3325 LP             1 S1                 0.0000
     48 ****        -0.1734   2.1440  -1.0325 LP             1 S1                 0.0000
     49 ****         2.1614  -1.4169  -0.8632 LP             1 S1                 0.0000
     50 ****         3.0203  -0.4860  -1.8938 LP             1 S1                 0.0000
     51 ****         0.2604  -0.9306   2.4731 LP             1 S1                 0.0000
@<TRIPOS>BOND
    1    1    2 1     
    2    1   21 1     
    3    1   22 1     
    4    1   23 1     
    5    2    3 1     
    6    2    4 1     
    7    2   24 1     
    8    3   25 1     
    9    3   26 1     
   10    3   27 1     
   11    4   20 1     
   12    4    5 2     
   13    5    6 1     
   14    6    7 1     
   15    7    8 1     
   16    7   20 2     
   17    8    9 1     
   18    8   28 1     
   19    8   29 1     
   20    9   10 1     
   21    9   30 1     
   22    9   31 1     
   23   10   11 am    
   24   10   32 1     
   25   11   12 2     
   26   11   13 1     
   27   13   19 1     
   28   13   14 1     
   29   13   15 1     
   30   14   33 1     
   31   15   16 1     
   32   15   34 1     
   33   15   35 1     
   34   16   17 1     
   35   16   36 1     
   36   16   37 1     
   37   17   18 1     
   38   17   38 1     
   39   17   39 1     
   40   18   19 1     
   41   18   40 1     
   42   18   41 1     
   43   19   42 1     
   44   19   43 1     
   45    5   44 1     
   46    6   45 1     
   47    6   46 1     
   48   12   47 1     
   49   12   48 1     
   50   14   49 1     
   51   14   50 1     
   52   20   51 1     
@<TRIPOS>SUBSTRUCTURE
      1 S1             1
@<TRIPOS>SET
LONE_PAIRS      STATIC     ATOMS    <user>   **** ""
8 44 45 46 47 48 49 50 51
DONOR_HYDROGENS      STATIC     ATOMS    <user>   **** ""
2 32 33
ATOM$BLUE        STATIC     ATOMS    COLORGROUP SYSTEM
8 44 45 46 47 48 49 50 51
ATOM$RED        STATIC     ATOMS    COLORGROUP SYSTEM
2 32 33
