AV-unprocessed.smi:3250|AV-procd|sdf|12432|dock2
  -GOLD-   2272018323D 1   1.00000     0.00000
 Structure written by MMmdl.
 40 41  0  0  0  0  0  0  0  0  3 V2000
  145.2498  135.9032  151.3100 C   0  0  0  0  0  0  0  0  0  0  0  0
  144.5481  134.6816  150.7006 C   0  0  0  0  0  0  0  0  0  0  0  0
  145.5016  133.7497  150.0413 N   0  3  2  0  0  0  0  0  0  0  0  0
  144.9162  132.4473  149.6322 C   0  0  0  0  0  0  0  0  0  0  0  0
  144.7611  131.4958  150.8337 C   0  0  0  0  0  0  0  0  0  0  0  0
  146.0136  131.3441  151.4911 O   0  0  0  0  0  0  0  0  0  0  0  0
  146.5148  132.5755  152.0011 C   0  0  1  0  0  0  0  0  0  0  0  0
  147.8193  132.2847  152.7631 C   0  0  0  0  0  0  0  0  0  0  0  0
  148.5973  133.4909  153.0142 N   0  0  0  0  0  0  0  0  0  0  0  0
  149.5532  133.6098  154.0080 C   0  0  0  0  0  0  0  0  0  0  0  0
  150.1970  134.7813  154.1146 N   0  3  0  0  0  0  0  0  0  0  0  0
  151.1483  134.9431  155.0674 C   0  0  0  0  0  0  0  0  0  0  0  0
  151.4652  133.8879  155.9419 C   0  0  0  0  0  0  0  0  0  0  0  0
  150.7542  132.6885  155.7759 C   0  0  0  0  0  0  0  0  0  0  0  0
  151.0247  131.6145  156.5986 O   0  0  0  0  0  0  0  0  0  0  0  0
  150.3124  130.4008  156.3814 C   0  0  0  0  0  0  0  0  0  0  0  0
  149.8094  132.5691  154.8137 N   0  0  0  0  0  0  0  0  0  0  0  0
  146.7492  133.5342  150.8151 C   0  0  0  0  0  0  0  0  0  0  0  0
  144.5391  136.5139  151.8670 H   0  0  0  0  0  0  0  0  0  0  0  0
  145.6951  136.5425  150.5483 H   0  0  0  0  0  0  0  0  0  0  0  0
  146.0375  135.6023  152.0012 H   0  0  0  0  0  0  0  0  0  0  0  0
  144.0407  134.1560  151.5104 H   0  0  0  0  0  0  0  0  0  0  0  0
  143.7687  134.9990  150.0080 H   0  0  0  0  0  0  0  0  0  0  0  0
  143.9629  132.5821  149.1229 H   0  0  0  0  0  0  0  0  0  0  0  0
  145.5864  131.9908  148.9024 H   0  0  0  0  0  0  0  0  0  0  0  0
  144.0086  131.8569  151.5359 H   0  0  0  0  0  0  0  0  0  0  0  0
  144.4245  130.5169  150.4918 H   0  0  0  0  0  0  0  0  0  0  0  0
  145.7845  133.0141  152.6825 H   0  0  0  0  0  0  0  0  0  0  0  0
  147.5979  131.8043  153.7165 H   0  0  0  0  0  0  0  0  0  0  0  0
  148.4348  131.5820  152.2000 H   0  0  0  0  0  0  0  0  0  0  0  0
  148.4889  134.2666  152.3768 H   0  0  0  0  0  0  0  0  0  0  0  0
  151.6261  135.9115  155.0969 H   0  0  0  0  0  0  0  0  0  0  0  0
  152.2212  133.9952  156.7059 H   0  0  0  0  0  0  0  0  0  0  0  0
  150.6438  129.6541  157.1029 H   0  0  0  0  0  0  0  0  0  0  0  0
  150.4970  130.0012  155.3830 H   0  0  0  0  0  0  0  0  0  0  0  0
  149.2389  130.5390  156.5183 H   0  0  0  0  0  0  0  0  0  0  0  0
  147.4988  133.1106  150.1450 H   0  0  0  0  0  0  0  0  0  0  0  0
  147.1523  134.4876  151.1592 H   0  0  0  0  0  0  0  0  0  0  0  0
  145.7813  134.2194  149.1916 H   0  0  0  0  0  0  0  0  0  0  0  0
  149.9812  135.5570  153.4876 H   0  0  0  0  0  0  0  0  0  0  0  0
  1  2  1  0  0  0  0
  1 19  1  0  0  0  0
  1 20  1  0  0  0  0
  1 21  1  0  0  0  0
  2  3  1  0  0  0  0
  2 22  1  0  0  0  0
  2 23  1  0  0  0  0
  3 18  1  0  0  0  0
  3  4  1  0  0  0  0
  3 39  1  0  0  0  0
  4  5  1  0  0  0  0
  4 24  1  0  0  0  0
  4 25  1  0  0  0  0
  5  6  1  0  0  0  0
  5 26  1  0  0  0  0
  5 27  1  0  0  0  0
  6  7  1  0  0  0  0
  7  8  1  0  0  0  0
  7 18  1  0  0  0  0
  7 28  1  0  0  0  0
  8  9  1  0  0  0  0
  8 29  1  0  0  0  0
  8 30  1  0  0  0  0
  9 10  1  0  0  0  0
  9 31  1  0  0  0  0
 10 17  1  0  0  0  0
 10 11  2  0  0  0  0
 11 12  1  0  0  0  0
 11 40  1  0  0  0  0
 12 13  2  0  0  0  0
 12 32  1  0  0  0  0
 13 14  1  0  0  0  0
 13 33  1  0  0  0  0
 14 15  1  0  0  0  0
 14 17  2  0  0  0  0
 15 16  1  0  0  0  0
 16 34  1  0  0  0  0
 16 35  1  0  0  0  0
 16 36  1  0  0  0  0
 18 37  1  0  0  0  0
 18 38  1  0  0  0  0
M  CHG  1   3   1
M  CHG  1  11   1
M  END
> <s_m_source_file>
AV-unprocessed.smi

> <i_m_source_file_index>
3250

> <i_lp_mmshare_version>
43012

> <i_f3d_flags>
0

> <s_epik_input>
W0NIM11bQ0gyXU4xW0NIMl1bQ0gyXU9bQ0BIXShbQ0gyXTEpW0NIMl1bTkhdYzJuW2NIXVtjSF1jKG4yKU9bQ0gzXQ==

> <s_epik_cmdline>
J2VwaWtfcHl0aG9uJywgJy1waCcsICc3LjAnLCAnLXRuJywgJzgnLCAnLW1hJywgJzIwMCcsICctbWV0YWxfYmluZGluZycsICctaW1hZScsICc8aW5maWxlLm1hZT4nLCAnLW9tYWUnLCAnPG91dGZpbGUubWFlPic=

> <r_lp_tautomer_probability>
0.999985

> <r_epik_Ionization_Penalty>
2.24691

> <r_epik_Ionization_Penalty_Charging>
2.24686

> <r_epik_Ionization_Penalty_Neutral>
4.52111e-05

> <r_epik_State_Penalty>
2.24709

> <r_epik_Charging_Adjusted_Penalty>
4.49395

> <i_epik_Tot_Q>
2

> <i_epik_Tot_abs_Q>
2

> <r_epik_Metal_State_Penalty>
2.26327

> <b_epik_Metal_Only>
0

> <s_lp_Force_Field>
OPLS_2005

> <r_lp_Energy>
19.5656

> <b_lp_Chiralities_Consistent>
1

> <s_lp_Variant>
AV-unprocessed.smi:3250-8

> <Gold.Version>
5.8.1

> <Gold.Id.Protein>
6NUR|6NUR_protein|mol2

> <Gold.PLP.Fitness>
44.6338

> <Gold.PLP.PLP>
-31.5815

> <Gold.PLP.part.hbond>
-3.0102

> <Gold.PLP.part.metal>
0.0000

> <Gold.PLP.part.buried>
-5.6205

> <Gold.PLP.part.nonpolar>
-22.9216

> <Gold.PLP.part.repulsive>
0.2942

> <Gold.PLP.ligand.clash>
0.0000

> <Gold.PLP.ligand.torsion>
0.3660

> <Gold.PLP.Chemscore.Hbond>
4.5840

> <Gold.PLP.Chemscore.CHOScore>
0.0000

> <Gold.PLP.Chemscore.Metal>
0.0000

> <Gold.Chemscore.Hbonds>
donor molecule, donor type, donor heavy atom, donor atom, acceptor molecule, acceptor atom, score
      L1  H     3    39       P1  7921  1.00
      L1  H     9    31       P1  7948  0.89
      L1  H    11    40       P1  7948  0.58

> <Gold.PLP.Chemscore.Internal.Correction>
0.0322

> <Gold.Rescore>
     Score         DG    S(hbond)    S(metal)    S(lipo)     H(rot)  DE(clash)    DE(int)     intcor
     14.62     -15.06       2.00        0.00      63.13       1.75       0.01       0.44       ----

> <Gold.Chemscore.Fitness>
14.6177

> <Gold.Chemscore.DG>
-15.0641

> <Gold.Chemscore.ZeroCoef>
-5.4800

> <Gold.Chemscore.Hbond>
2.0017

> <Gold.Chemscore.Metal>
0.0000

> <Gold.Chemscore.Lipo>
63.1293

> <Gold.Chemscore.Internal_Hbond>
0.0000

> <Gold.Chemscore.DEClash>
0.0093

> <Gold.Chemscore.DEInternal>
0.4371

> <Gold.Chemscore.Rot>
1.7530

> <Gold.Chemscore.Internal.Correction>
   9.000000E+99

> <Gold.Chemscore.Hbonds>
donor molecule, donor type, donor heavy atom, donor atom, acceptor molecule, acceptor atom, score
      L1  H     3    39       P1  7921  0.60
      L1  H     9    31       P1  7948  0.01

> <Gold.Chemscore.Hbond.Weighted>
-6.6856

> <Gold.Chemscore.Metal.Weighted>
-0.0000

> <Gold.Chemscore.Lipo.Weighted>
-7.3861

> <Gold.Chemscore.Internal_Hbond.Weighted>
0.0000

> <Gold.Chemscore.DEClash.Weighted>
0.0093

> <Gold.Chemscore.DEInternal.Weighted>
0.4371

> <Gold.Chemscore.Rot.Weighted>
4.4876

> <Gold.Chemscore.Internal.Correction.Weighted>
   9.000000E+99

> <Gold.Protein.RotatedTorsions>
[ 6907 6896 6895 6894 ] final   25.05 input  -60.11 | X-H torsion
[ 7974 7965 7964 7962 ] final   21.32 input  175.53 | X-H torsion
[ 8008 7997 7996 7995 ] final -123.41 input   59.86 | X-H torsion
[ 10167 10162 10161 10158 ] final -128.78 input  -65.29 | X-H torsion
[ 10718 10713 10712 10709 ] final   57.45 input   66.30 | X-H torsion
[ 10763 10752 10751 10750 ] final   61.44 input  -60.55 | X-H torsion
[ 11005 11000 10999 10996 ] final  138.56 input  -57.11 | X-H torsion

> <Gold.Protein.ActiveResidues>
 VAL166  LYS551  ARG553  GLY616  TRP617  ASP618  TYR619  PRO620  LYS621  CYS622 
 ASP623  PHE694  ASN695  SER759  ASP760  ASP761  ALA762  ILE779  LEU786  VAL792 
 PHE793  MET794  SER795  GLU796  ALA797  LYS798  CYS799  TRP800  GLU811  SER814 

> <Gold.Protein.RotatedAtoms>
  151.9667  135.0097  160.0550 H   0  0  0  0  0  0  0  0  0  0  0  0  # atno 6907 bound_to 6896
  152.1820  133.4709  159.4971 H   0  0  0  0  0  0  0  0  0  0  0  0  # atno 6908 bound_to 6896
  150.6919  134.1739  159.4266 H   0  0  0  0  0  0  0  0  0  0  0  0  # atno 6909 bound_to 6896
  146.2076  139.8044  142.8714 H   0  0  0  0  0  0  0  0  0  0  0  0  # atno 7974 bound_to 7965
  155.1801  140.0410  157.2880 H   0  0  0  0  0  0  0  0  0  0  0  0  # atno 8008 bound_to 7997
  154.6210  140.2500  155.7522 H   0  0  0  0  0  0  0  0  0  0  0  0  # atno 8009 bound_to 7997
  156.2433  140.2895  156.0517 H   0  0  0  0  0  0  0  0  0  0  0  0  # atno 8010 bound_to 7997
  139.9467  143.6102  152.2488 H   0  0  0  0  0  0  0  0  0  0  0  0  # atno 10167 bound_to 10162
  157.5515  130.8769  149.8971 H   0  0  0  0  0  0  0  0  0  0  0  0  # atno 10718 bound_to 10713
  152.9951  135.5500  154.6035 H   0  0  0  0  0  0  0  0  0  0  0  0  # atno 10763 bound_to 10752
  154.5371  135.2817  155.1131 H   0  0  0  0  0  0  0  0  0  0  0  0  # atno 10764 bound_to 10752
  154.2423  135.6414  153.5264 H   0  0  0  0  0  0  0  0  0  0  0  0  # atno 10765 bound_to 10752
  140.0192  134.9404  157.0439 H   0  0  0  0  0  0  0  0  0  0  0  0  # atno 11005 bound_to 11000
  145.3262  141.0256  143.3472 LP  0  0  0  0  0  0  0  0  0  0  0  0  # atno 17320 bound_to 7965
  144.8831  139.4876  143.6713 LP  0  0  0  0  0  0  0  0  0  0  0  0  # atno 17321 bound_to 7965
  139.6661  144.7662  151.1871 LP  0  0  0  0  0  0  0  0  0  0  0  0  # atno 17342 bound_to 10162
  140.7595  143.5936  150.8771 LP  0  0  0  0  0  0  0  0  0  0  0  0  # atno 17343 bound_to 10162
  156.0581  130.3704  150.1044 LP  0  0  0  0  0  0  0  0  0  0  0  0  # atno 17370 bound_to 10713
  156.9216  130.9685  151.3547 LP  0  0  0  0  0  0  0  0  0  0  0  0  # atno 17371 bound_to 10713
  140.4417  134.1674  155.7174 LP  0  0  0  0  0  0  0  0  0  0  0  0  # atno 17394 bound_to 11000
  141.1763  133.8508  157.1411 LP  0  0  0  0  0  0  0  0  0  0  0  0  # atno 17395 bound_to 11000

$$$$
