#       Name:                AV-unprocessed.smi:3279
#       Creating user name   scv26
#       Creation time:       Fri Mar 27 18:46:58 2020


#       File generated by GOLD software.
#

@<TRIPOS>MOLECULE
AV-unprocessed.smi:3279
    43    43     1
SMALL
NO_CHARGES


@<TRIPOS>ATOM
      1 ****        -2.4384   1.0341   1.2390 C.3            1 S1                 0.0000
      2 ****        -2.8045   0.3907  -0.1103 C.3            1 S1                 0.0000
      3 ****        -2.2476  -1.0383  -0.2849 C.3            1 S1                 0.0000
      4 ****        -0.7884  -1.0728  -0.2502 N.am           1 S1                 0.0000
      5 ****        -0.0391  -1.4899   0.7825 C.2            1 S1                 0.0000
      6 ****        -0.5084  -1.9101   1.8397 O.2            1 S1                 0.0000
      7 ****         1.4735  -1.4241   0.5891 C.3            1 S1                 0.0000
      8 ****         1.8189  -0.0950   0.2088 O.3            1 S1                 0.0000
      9 ****         3.1892   0.1922  -0.0806 C.3            1 S1                 0.0000
     10 ****         3.2059   1.6993  -0.3820 C.3            1 S1                 0.0000
     11 ****         3.6589  -0.5863  -1.3253 C.3            1 S1                 0.0000
     12 ****         4.0927  -0.0998   1.1342 C.3            1 S1                 0.0000
     13 ****        -4.2854   0.4212  -0.3342 C.2            1 S1                 0.0000
     14 ****        -5.2047  -0.2181   0.3799 N.2            1 S1                 0.0000
     15 ****        -6.3988   0.1392  -0.2249 N.2            1 S1                 0.0000
     16 ****        -6.2001   0.9423  -1.2317 N.2            1 S1                 0.0000
     17 ****        -4.8631   1.1280  -1.3082 N.pl3          1 S1                 0.0000
     18 ****        -4.4207   1.7126  -2.0026 H              1 S1                 0.0000
     19 ****        -2.8384   2.0461   1.3093 H              1 S1                 0.0000
     20 ****        -1.3592   1.1049   1.3729 H              1 S1                 0.0000
     21 ****        -2.8403   0.4590   2.0740 H              1 S1                 0.0000
     22 ****        -2.3543   1.0088  -0.8892 H              1 S1                 0.0000
     23 ****        -2.6758  -1.7084   0.4627 H              1 S1                 0.0000
     24 ****        -2.5548  -1.4325  -1.2542 H              1 S1                 0.0000
     25 ****        -0.3062  -0.7439  -1.0743 H              1 S1                 0.0000
     26 ****         1.9638  -1.7095   1.5200 H              1 S1                 0.0000
     27 ****         1.7520  -2.1485  -0.1757 H              1 S1                 0.0000
     28 ****         4.2111   2.0461  -0.6244 H              1 S1                 0.0000
     29 ****         2.8547   2.2766   0.4741 H              1 S1                 0.0000
     30 ****         2.5604   1.9409  -1.2271 H              1 S1                 0.0000
     31 ****         2.9820  -0.4314  -2.1661 H              1 S1                 0.0000
     32 ****         3.7214  -1.6583  -1.1401 H              1 S1                 0.0000
     33 ****         4.6515  -0.2605  -1.6377 H              1 S1                 0.0000
     34 ****         5.1088   0.2550   0.9589 H              1 S1                 0.0000
     35 ****         4.1626  -1.1666   1.3465 H              1 S1                 0.0000
     36 ****         3.7214   0.3961   2.0316 H              1 S1                 0.0000
     37 ****        -1.4997  -1.9544   1.9641 LP             1 S1                 0.0000
     38 ****         0.1015  -2.2072   2.5744 LP             1 S1                 0.0000
     39 ****         1.5412   0.5086   0.9562 LP             1 S1                 0.0000
     40 ****         1.2906   0.1252  -0.6112 LP             1 S1                 0.0000
     41 ****        -5.0673  -0.8168   1.1690 LP             1 S1                 0.0000
     42 ****        -7.2988  -0.1787   0.0733 LP             1 S1                 0.0000
     43 ****        -6.8967   1.3412  -1.8280 LP             1 S1                 0.0000
@<TRIPOS>BOND
    1    1    2 1     
    2    1   19 1     
    3    1   20 1     
    4    1   21 1     
    5    2    3 1     
    6    2   13 1     
    7    2   22 1     
    8    3    4 1     
    9    3   23 1     
   10    3   24 1     
   11    4    5 am    
   12    4   25 1     
   13    5    6 2     
   14    5    7 1     
   15    7    8 1     
   16    7   26 1     
   17    7   27 1     
   18    8    9 1     
   19    9   10 1     
   20    9   11 1     
   21    9   12 1     
   22   10   28 1     
   23   10   29 1     
   24   10   30 1     
   25   11   31 1     
   26   11   32 1     
   27   11   33 1     
   28   12   34 1     
   29   12   35 1     
   30   12   36 1     
   31   13   17 1     
   32   13   14 2     
   33   14   15 1     
   34   15   16 2     
   35   16   17 1     
   36   17   18 1     
   37    6   37 1     
   38    6   38 1     
   39    8   39 1     
   40    8   40 1     
   41   14   41 1     
   42   15   42 1     
   43   16   43 1     
@<TRIPOS>SUBSTRUCTURE
      1 S1             1
@<TRIPOS>SET
LONE_PAIRS      STATIC     ATOMS    <user>   **** ""
7 37 38 39 40 41 42 43
DONOR_HYDROGENS      STATIC     ATOMS    <user>   **** ""
2 25 18
ATOM$BLUE        STATIC     ATOMS    COLORGROUP SYSTEM
7 37 38 39 40 41 42 43
ATOM$RED        STATIC     ATOMS    COLORGROUP SYSTEM
2 25 18
