#       Name:                AV-unprocessed.smi:649
#       Creating user name   scv26
#       Creation time:       Fri Mar 27 00:10:34 2020


#       File generated by GOLD software.
#

@<TRIPOS>MOLECULE
AV-unprocessed.smi:649
    41    42     1
SMALL
NO_CHARGES


@<TRIPOS>ATOM
      1 ****        -2.4252  -2.6808   0.2885 C.3            1 S1                 0.0000
      2 ****        -2.0573  -1.2192   0.4368 C.ar           1 S1                 0.0000
      3 ****        -2.9982  -0.2149   0.1467 C.ar           1 S1                 0.0000
      4 ****        -2.6396   1.1391   0.2711 C.ar           1 S1                 0.0000
      5 ****        -1.3406   1.5096   0.6820 C.ar           1 S1                 0.0000
      6 ****        -1.0214   2.9929   0.7739 C.3            1 S1                 0.0000
      7 ****        -0.3854   0.4978   0.9825 C.ar           1 S1                 0.0000
      8 ****         1.0564   0.7918   1.4109 C.3            1 S1                 0.0000
      9 ****         1.1603   1.7638   2.4308 O.3            1 S1                 0.0000
     10 ****         2.0090   1.1554   0.2465 C.3            1 S1                 0.0000
     11 ****         1.9287   0.1988  -0.8691 N.am           1 S1                 0.0000
     12 ****         2.6003  -1.0244  -0.7069 C.2            1 S1                 0.0000
     13 ****         2.5688  -1.9894  -1.6458 C.2            1 S1                 0.0000
     14 ****         3.3977  -3.4870  -1.4122 Cl             1 S1                 0.0000
     15 ****         1.8083  -1.7328  -2.8669 C.2            1 S1                 0.0000
     16 ****         1.7564  -2.5938  -3.7440 O.2            1 S1                 0.0000
     17 ****         1.1790  -0.5267  -2.9799 N.pl3          1 S1                -1.0000
     18 ****         1.2195   0.4411  -2.0128 C.2            1 S1                 0.0000
     19 ****         0.6340   1.5167  -2.1381 O.2            1 S1                 0.0000
     20 ****        -0.7624  -0.8588   0.8543 C.ar           1 S1                 0.0000
     21 ****        -3.5071  -2.8169   0.2875 H              1 S1                 0.0000
     22 ****        -2.0110  -3.2663   1.1098 H              1 S1                 0.0000
     23 ****        -2.0285  -3.0730  -0.6482 H              1 S1                 0.0000
     24 ****        -3.9944  -0.4772  -0.1779 H              1 S1                 0.0000
     25 ****        -3.3719   1.8982   0.0389 H              1 S1                 0.0000
     26 ****        -0.9276   3.3015   1.8148 H              1 S1                 0.0000
     27 ****        -1.8110   3.5939   0.3227 H              1 S1                 0.0000
     28 ****        -0.0983   3.2337   0.2507 H              1 S1                 0.0000
     29 ****         1.4440  -0.1206   1.8661 H              1 S1                 0.0000
     30 ****         0.6734   1.4598   3.1813 H              1 S1                 0.0000
     31 ****         1.8199   2.1711  -0.0988 H              1 S1                 0.0000
     32 ****         3.0357   1.1839   0.6146 H              1 S1                 0.0000
     33 ****         3.1323  -1.1294   0.2275 H              1 S1                 0.0000
     34 ****        -0.0435  -1.6378   1.0627 H              1 S1                 0.0000
     35 ****         0.7808   2.6318   2.1105 LP             1 S1                 0.0000
     36 ****         2.1204   1.8914   2.6797 LP             1 S1                 0.0000
     37 ****         2.2332  -3.4639  -3.6193 LP             1 S1                 0.0000
     38 ****         1.2374  -2.4236  -4.5817 LP             1 S1                 0.0000
     39 ****         0.6604  -0.3401  -3.8143 LP             1 S1                 0.0000
     40 ****         0.6809   2.1994  -1.4089 LP             1 S1                 0.0000
     41 ****         0.1115   1.7077  -2.9691 LP             1 S1                 0.0000
@<TRIPOS>BOND
    1    1    2 1     
    2    1   21 1     
    3    1   22 1     
    4    1   23 1     
    5    2   20 ar    
    6    2    3 ar    
    7    3    4 ar    
    8    3   24 1     
    9    4    5 ar    
   10    4   25 1     
   11    5    6 1     
   12    5    7 ar    
   13    6   26 1     
   14    6   27 1     
   15    6   28 1     
   16    7    8 1     
   17    7   20 ar    
   18    8    9 1     
   19    8   10 1     
   20    8   29 1     
   21    9   30 1     
   22   10   11 1     
   23   10   31 1     
   24   10   32 1     
   25   11   18 am    
   26   11   12 1     
   27   12   13 2     
   28   12   33 1     
   29   13   14 1     
   30   13   15 1     
   31   15   16 2     
   32   15   17 1     
   33   17   18 1     
   34   18   19 2     
   35   20   34 1     
   36    9   35 1     
   37    9   36 1     
   38   16   37 1     
   39   16   38 1     
   40   17   39 1     
   41   19   40 1     
   42   19   41 1     
@<TRIPOS>SUBSTRUCTURE
      1 S1             1
@<TRIPOS>SET
LONE_PAIRS      STATIC     ATOMS    <user>   **** ""
7 35 36 37 38 39 40 41
DONOR_HYDROGENS      STATIC     ATOMS    <user>   **** ""
1 30
ATOM$BLUE        STATIC     ATOMS    COLORGROUP SYSTEM
7 35 36 37 38 39 40 41
ATOM$RED        STATIC     ATOMS    COLORGROUP SYSTEM
1 30
