AV-unprocessed.smi:977|AV-procd|sdf|4305|dock3
  -GOLD-   22720 2213D 1   1.00000     0.00000
 Structure written by MMmdl.
 37 38  0  0  0  0  0  0  0  0  1 V2000
  149.9339  132.2207  155.7844 C   0  0  0  0  0  0  0  0  0  0  0  0
  150.3821  133.6559  155.7939 C   0  0  0  0  0  0  0  0  0  0  0  0
  151.4115  134.0054  156.5515 N   0  0  0  0  0  0  0  0  0  0  0  0
  151.6460  135.3680  156.3091 O   0  0  0  0  0  0  0  0  0  0  0  0
  150.7407  135.8153  155.4000 C   0  0  0  0  0  0  0  0  0  0  0  0
  150.8369  137.2473  154.9947 C   0  0  0  0  0  0  0  0  0  0  0  0
  149.9078  134.7880  155.0686 C   0  0  0  0  0  0  0  0  0  0  0  0
  148.8525  134.8728  154.1267 N   0  0  0  0  0  0  0  0  0  0  0  0
  147.6686  134.2458  154.1954 C   0  0  0  0  0  0  0  0  0  0  0  0
  147.3005  133.5446  155.1378 O   0  0  0  0  0  0  0  0  0  0  0  0
  146.9181  134.4950  153.1125 N   0  0  0  0  0  0  0  0  0  0  0  0
  145.5793  133.9616  152.8689 C   0  0  1  0  0  0  0  0  0  0  0  0
  144.7137  135.0773  152.2625 C   0  0  0  0  0  0  0  0  0  0  0  0
  145.6572  132.7181  151.9558 C   0  0  2  0  0  0  0  0  0  0  0  0
  146.3813  132.9548  150.6263 C   0  0  0  0  0  0  0  0  0  0  0  0
  145.7169  131.9492  149.7151 C   0  0  0  0  0  0  0  0  0  0  0  0
  144.2724  132.0282  150.1903 C   0  0  0  0  0  0  0  0  0  0  0  0
  144.3505  132.2701  151.5903 O   0  0  0  0  0  0  0  0  0  0  0  0
  149.5562  131.9317  154.8036 H   0  0  0  0  0  0  0  0  0  0  0  0
  149.1407  132.0530  156.5131 H   0  0  0  0  0  0  0  0  0  0  0  0
  150.7543  131.5446  156.0274 H   0  0  0  0  0  0  0  0  0  0  0  0
  150.1842  137.4608  154.1482 H   0  0  0  0  0  0  0  0  0  0  0  0
  151.8572  137.4998  154.7055 H   0  0  0  0  0  0  0  0  0  0  0  0
  150.5468  137.9000  155.8180 H   0  0  0  0  0  0  0  0  0  0  0  0
  148.9820  135.5275  153.3693 H   0  0  0  0  0  0  0  0  0  0  0  0
  147.3064  135.0874  152.3934 H   0  0  0  0  0  0  0  0  0  0  0  0
  145.1275  133.6723  153.8195 H   0  0  0  0  0  0  0  0  0  0  0  0
  143.6843  134.7490  152.1181 H   0  0  0  0  0  0  0  0  0  0  0  0
  145.0997  135.3978  151.2942 H   0  0  0  0  0  0  0  0  0  0  0  0
  144.6859  135.9503  152.9153 H   0  0  0  0  0  0  0  0  0  0  0  0
  146.1437  131.8957  152.4828 H   0  0  0  0  0  0  0  0  0  0  0  0
  146.1922  133.9642  150.2578 H   0  0  0  0  0  0  0  0  0  0  0  0
  147.4602  132.8157  150.6992 H   0  0  0  0  0  0  0  0  0  0  0  0
  145.8315  132.1845  148.6566 H   0  0  0  0  0  0  0  0  0  0  0  0
  146.1213  130.9519  149.8939 H   0  0  0  0  0  0  0  0  0  0  0  0
  143.7635  132.8708  149.7210 H   0  0  0  0  0  0  0  0  0  0  0  0
  143.7061  131.1231  149.9707 H   0  0  0  0  0  0  0  0  0  0  0  0
  1  2  1  0  0  0  0
  1 19  1  0  0  0  0
  1 20  1  0  0  0  0
  1 21  1  0  0  0  0
  2  7  1  0  0  0  0
  2  3  2  0  0  0  0
  3  4  1  0  0  0  0
  4  5  1  0  0  0  0
  5  6  1  0  0  0  0
  5  7  2  0  0  0  0
  6 22  1  0  0  0  0
  6 23  1  0  0  0  0
  6 24  1  0  0  0  0
  7  8  1  0  0  0  0
  8  9  1  0  0  0  0
  8 25  1  0  0  0  0
  9 10  2  0  0  0  0
  9 11  1  0  0  0  0
 11 12  1  0  0  0  0
 11 26  1  0  0  0  0
 12 13  1  0  0  0  0
 12 14  1  0  0  0  0
 12 27  1  0  0  0  0
 13 28  1  0  0  0  0
 13 29  1  0  0  0  0
 13 30  1  0  0  0  0
 14 18  1  0  0  0  0
 14 15  1  0  0  0  0
 14 31  1  0  0  0  0
 15 16  1  0  0  0  0
 15 32  1  0  0  0  0
 15 33  1  0  0  0  0
 16 17  1  0  0  0  0
 16 34  1  0  0  0  0
 16 35  1  0  0  0  0
 17 18  1  0  0  0  0
 17 36  1  0  0  0  0
 17 37  1  0  0  0  0
M  END
> <s_m_source_file>
AV-unprocessed.smi

> <i_m_source_file_index>
977

> <i_lp_mmshare_version>
43012

> <i_f3d_flags>
0

> <s_epik_input>
W0NIM11jMW5vYyhbQ0gzXSljMVtOSF1DKD1PKVtOSF1bQ0BIXShbQ0gzXSlbQ0BASF0yW0NIMl1bQ0gyXVtDSDJdTzI=

> <s_epik_cmdline>
J2VwaWtfcHl0aG9uJywgJy1waCcsICc3LjAnLCAnLXRuJywgJzgnLCAnLW1hJywgJzIwMCcsICctbWV0YWxfYmluZGluZycsICctaW1hZScsICc8aW5maWxlLm1hZT4nLCAnLW9tYWUnLCAnPG91dGZpbGUubWFlPic=

> <r_lp_tautomer_probability>
1

> <r_epik_Ionization_Penalty>
3.41601e-05

> <r_epik_Ionization_Penalty_Charging>
0

> <r_epik_Ionization_Penalty_Neutral>
3.41601e-05

> <r_epik_State_Penalty>
-0

> <r_epik_Charging_Adjusted_Penalty>
0

> <i_epik_Tot_Q>
0

> <i_epik_Tot_abs_Q>
0

> <r_epik_Metal_State_Penalty>
-0

> <b_epik_Metal_Only>
0

> <s_lp_Force_Field>
OPLS_2005

> <r_lp_Energy>
19.7508

> <b_lp_Chiralities_Consistent>
1

> <s_lp_Variant>
AV-unprocessed.smi:977-2

> <Gold.Version>
5.8.1

> <Gold.Id.Protein>
6NUR|6NUR_protein|mol2

> <Gold.PLP.Fitness>
36.1409

> <Gold.PLP.PLP>
-28.4087

> <Gold.PLP.part.hbond>
-3.0000

> <Gold.PLP.part.metal>
0.0000

> <Gold.PLP.part.buried>
-3.8701

> <Gold.PLP.part.nonpolar>
-21.9070

> <Gold.PLP.part.repulsive>
0.1840

> <Gold.PLP.ligand.clash>
0.0000

> <Gold.PLP.ligand.torsion>
0.6069

> <Gold.PLP.Chemscore.Hbond>
2.8960

> <Gold.PLP.Chemscore.CHOScore>
0.0000

> <Gold.PLP.Chemscore.Metal>
0.0000

> <Gold.Chemscore.Hbonds>
donor molecule, donor type, donor heavy atom, donor atom, acceptor molecule, acceptor atom, score
      L1  H     8    25       P1  7948  1.00
      L1  H    11    26       P1  7948  0.86
      P1  H 10752 10763       L1     4  1.00

> <Gold.PLP.Chemscore.Internal.Correction>
0.2580

> <Gold.Rescore>
     Score         DG    S(hbond)    S(metal)    S(lipo)     H(rot)  DE(clash)    DE(int)     intcor
     17.61     -18.24       2.54        0.00      63.16       1.22       0.02       0.61       ----

> <Gold.Chemscore.Fitness>
17.6147

> <Gold.Chemscore.DG>
-18.2398

> <Gold.Chemscore.ZeroCoef>
-5.4800

> <Gold.Chemscore.Hbond>
2.5428

> <Gold.Chemscore.Metal>
0.0000

> <Gold.Chemscore.Lipo>
63.1620

> <Gold.Chemscore.Internal_Hbond>
0.0000

> <Gold.Chemscore.DEClash>
0.0178

> <Gold.Chemscore.DEInternal>
0.6074

> <Gold.Chemscore.Rot>
1.2200

> <Gold.Chemscore.Internal.Correction>
   9.000000E+99

> <Gold.Chemscore.Hbonds>
donor molecule, donor type, donor heavy atom, donor atom, acceptor molecule, acceptor atom, score
      L1  H     8    25       P1  7948  0.70
      L1  H    11    26       P1  7948  0.80
      P1  H 10752 10763       L1     4  0.12

> <Gold.Chemscore.Hbond.Weighted>
-8.4930

> <Gold.Chemscore.Metal.Weighted>
-0.0000

> <Gold.Chemscore.Lipo.Weighted>
-7.3900

> <Gold.Chemscore.Internal_Hbond.Weighted>
0.0000

> <Gold.Chemscore.DEClash.Weighted>
0.0178

> <Gold.Chemscore.DEInternal.Weighted>
0.6074

> <Gold.Chemscore.Rot.Weighted>
3.1232

> <Gold.Chemscore.Internal.Correction.Weighted>
   9.000000E+99

> <Gold.Protein.RotatedTorsions>
[ 6907 6896 6895 6894 ] final  124.77 input  -60.11 | X-H torsion
[ 7974 7965 7964 7962 ] final   88.78 input  175.53 | X-H torsion
[ 8008 7997 7996 7995 ] final  -66.90 input   59.86 | X-H torsion
[ 10167 10162 10161 10158 ] final   47.34 input  -65.29 | X-H torsion
[ 10718 10713 10712 10709 ] final -104.97 input   66.30 | X-H torsion
[ 10763 10752 10751 10750 ] final  105.58 input  -60.55 | X-H torsion
[ 11005 11000 10999 10996 ] final -108.74 input  -57.11 | X-H torsion

> <Gold.Protein.ActiveResidues>
 VAL166  LYS551  ARG553  GLY616  TRP617  ASP618  TYR619  PRO620  LYS621  CYS622 
 ASP623  PHE694  ASN695  SER759  ASP760  ASP761  ALA762  ILE779  LEU786  VAL792 
 PHE793  MET794  SER795  GLU796  ALA797  LYS798  CYS799  TRP800  GLU811  SER814 

> <Gold.Protein.RotatedAtoms>
  152.4050  133.6875  159.6348 H   0  0  0  0  0  0  0  0  0  0  0  0  # atno 6907 bound_to 6896
  150.7936  133.8725  159.3271 H   0  0  0  0  0  0  0  0  0  0  0  0  # atno 6908 bound_to 6896
  151.6481  135.1006  160.0206 H   0  0  0  0  0  0  0  0  0  0  0  0  # atno 6909 bound_to 6896
  145.5411  139.2289  143.2565 H   0  0  0  0  0  0  0  0  0  0  0  0  # atno 7974 bound_to 7965
  154.4765  140.0903  156.7274 H   0  0  0  0  0  0  0  0  0  0  0  0  # atno 8008 bound_to 7997
  155.4584  140.3460  155.4291 H   0  0  0  0  0  0  0  0  0  0  0  0  # atno 8009 bound_to 7997
  156.1124  140.1451  156.9308 H   0  0  0  0  0  0  0  0  0  0  0  0  # atno 8010 bound_to 7997
  140.3046  144.2893  150.6212 H   0  0  0  0  0  0  0  0  0  0  0  0  # atno 10167 bound_to 10162
  156.0326  130.5541  150.7473 H   0  0  0  0  0  0  0  0  0  0  0  0  # atno 10718 bound_to 10713
  153.3812  135.3905  155.1858 H   0  0  0  0  0  0  0  0  0  0  0  0  # atno 10763 bound_to 10752
  154.8708  135.3726  154.4854 H   0  0  0  0  0  0  0  0  0  0  0  0  # atno 10764 bound_to 10752
  153.5331  135.7085  153.5734 H   0  0  0  0  0  0  0  0  0  0  0  0  # atno 10765 bound_to 10752
  141.0885  133.9096  157.2130 H   0  0  0  0  0  0  0  0  0  0  0  0  # atno 11005 bound_to 11000
  146.1980  140.6231  142.9115 LP  0  0  0  0  0  0  0  0  0  0  0  0  # atno 17320 bound_to 7965
  144.7576  140.5345  143.6758 LP  0  0  0  0  0  0  0  0  0  0  0  0  # atno 17321 bound_to 7965
  140.5621  143.2191  151.7746 LP  0  0  0  0  0  0  0  0  0  0  0  0  # atno 17342 bound_to 10162
  139.4907  144.4334  151.9847 LP  0  0  0  0  0  0  0  0  0  0  0  0  # atno 17343 bound_to 10162
  157.5026  131.0920  151.0295 LP  0  0  0  0  0  0  0  0  0  0  0  0  # atno 17370 bound_to 10713
  157.0672  130.5849  149.5396 LP  0  0  0  0  0  0  0  0  0  0  0  0  # atno 17371 bound_to 10713
  139.9707  135.0129  156.9504 LP  0  0  0  0  0  0  0  0  0  0  0  0  # atno 17394 bound_to 11000
  140.5307  134.0816  155.7315 LP  0  0  0  0  0  0  0  0  0  0  0  0  # atno 17395 bound_to 11000

$$$$
