AV-unprocessed.smi:1401|AV-procd|sdf|5689|dock9
  -GOLD-   22720 5313D 1   1.00000     0.00000
 Structure written by MMmdl.
 48 50  0  0  0  0  0  0  0  0  1 V2000
  152.3593  140.6672  157.2261 C   0  0  0  0  0  0  0  0  0  0  0  0
  152.5008  139.2686  157.7626 C   0  0  0  0  0  0  0  0  0  0  0  0
  151.6896  138.3814  157.2892 N   0  0  0  0  0  0  0  0  0  0  0  0
  151.7151  137.0716  157.7303 N   0  0  0  0  0  0  0  0  0  0  0  0
  150.6451  136.2360  157.1579 C   0  0  0  0  0  0  0  0  0  0  0  0
  149.5387  135.8688  158.1630 C   0  0  0  0  0  0  0  0  0  0  0  0
  149.2812  134.6843  158.3735 O   0  0  0  0  0  0  0  0  0  0  0  0
  148.8657  136.8777  158.7406 N   0  0  0  0  0  0  0  0  0  0  0  0
  147.6672  136.7653  159.5624 C   0  0  1  0  0  0  0  0  0  0  0  0
  146.6112  135.9005  158.8529 C   0  0  0  0  0  0  0  0  0  0  0  0
  148.0570  136.1857  160.9434 C   0  0  2  0  0  0  0  0  0  0  0  0
  147.6202  134.7230  161.1790 C   0  0  0  0  0  0  0  0  0  0  0  0
  146.9177  134.7890  162.5489 C   0  0  2  0  0  0  0  0  0  0  0  0
  145.5507  135.4793  162.3839 C   0  0  0  0  0  0  0  0  0  0  0  0
  145.9396  136.9519  162.1590 C   0  0  0  0  0  0  0  0  0  0  0  0
  147.4805  136.9045  162.1909 C   0  0  1  0  0  0  0  0  0  0  0  0
  147.7239  135.8599  163.2745 C   0  0  0  0  0  0  0  0  0  0  0  0
  152.5813  136.5856  158.6658 C   0  0  0  0  0  0  0  0  0  0  0  0
  152.5583  135.4142  159.0454 O   0  0  0  0  0  0  0  0  0  0  0  0
  153.5089  137.5931  159.1860 C   0  0  0  0  0  0  0  0  0  0  0  0
  154.4314  137.1271  160.1705 C   0  0  0  0  0  0  0  0  0  0  0  0
  155.1644  136.7498  160.9831 N   0  0  0  0  0  0  0  0  0  0  0  0
  153.4830  138.8842  158.7702 C   0  0  0  0  0  0  0  0  0  0  0  0
  154.4118  139.9723  159.2908 C   0  0  0  0  0  0  0  0  0  0  0  0
  153.2795  140.9902  156.7390 H   0  0  0  0  0  0  0  0  0  0  0  0
  152.1363  141.3682  158.0306 H   0  0  0  0  0  0  0  0  0  0  0  0
  151.5538  140.7425  156.4939 H   0  0  0  0  0  0  0  0  0  0  0  0
  150.1848  136.7666  156.3223 H   0  0  0  0  0  0  0  0  0  0  0  0
  151.0442  135.3160  156.7283 H   0  0  0  0  0  0  0  0  0  0  0  0
  149.1633  137.8161  158.5163 H   0  0  0  0  0  0  0  0  0  0  0  0
  147.2514  137.7641  159.7039 H   0  0  0  0  0  0  0  0  0  0  0  0
  145.7052  135.8139  159.4528 H   0  0  0  0  0  0  0  0  0  0  0  0
  146.9834  134.8927  158.6659 H   0  0  0  0  0  0  0  0  0  0  0  0
  146.3250  136.3318  157.8934 H   0  0  0  0  0  0  0  0  0  0  0  0
  149.1445  136.2329  161.0267 H   0  0  0  0  0  0  0  0  0  0  0  0
  146.9552  134.3441  160.4021 H   0  0  0  0  0  0  0  0  0  0  0  0
  148.4907  134.0669  161.2161 H   0  0  0  0  0  0  0  0  0  0  0  0
  146.8624  133.8269  163.0589 H   0  0  0  0  0  0  0  0  0  0  0  0
  144.9771  135.0686  161.5521 H   0  0  0  0  0  0  0  0  0  0  0  0
  144.9496  135.3762  163.2881 H   0  0  0  0  0  0  0  0  0  0  0  0
  145.5388  137.3582  161.2310 H   0  0  0  0  0  0  0  0  0  0  0  0
  145.5622  137.5722  162.9730 H   0  0  0  0  0  0  0  0  0  0  0  0
  147.9426  137.8716  162.3906 H   0  0  0  0  0  0  0  0  0  0  0  0
  147.3054  136.1355  164.2442 H   0  0  0  0  0  0  0  0  0  0  0  0
  148.7765  135.5998  163.4001 H   0  0  0  0  0  0  0  0  0  0  0  0
  155.1229  139.5931  160.0244 H   0  0  0  0  0  0  0  0  0  0  0  0
  153.8375  140.7657  159.7709 H   0  0  0  0  0  0  0  0  0  0  0  0
  154.9870  140.4091  158.4737 H   0  0  0  0  0  0  0  0  0  0  0  0
  1  2  1  0  0  0  0
  1 25  1  0  0  0  0
  1 26  1  0  0  0  0
  1 27  1  0  0  0  0
  2 23  1  0  0  0  0
  2  3  2  0  0  0  0
  3  4  1  0  0  0  0
  4  5  1  0  0  0  0
  4 18  1  0  0  0  0
  5  6  1  0  0  0  0
  5 28  1  0  0  0  0
  5 29  1  0  0  0  0
  6  7  2  0  0  0  0
  6  8  1  0  0  0  0
  8  9  1  0  0  0  0
  8 30  1  0  0  0  0
  9 10  1  0  0  0  0
  9 11  1  0  0  0  0
  9 31  1  0  0  0  0
 10 32  1  0  0  0  0
 10 33  1  0  0  0  0
 10 34  1  0  0  0  0
 11 16  1  0  0  0  0
 11 12  1  0  0  0  0
 11 35  1  0  0  0  0
 12 13  1  0  0  0  0
 12 36  1  0  0  0  0
 12 37  1  0  0  0  0
 13 17  1  0  0  0  0
 13 14  1  0  0  0  0
 13 38  1  0  0  0  0
 14 15  1  0  0  0  0
 14 39  1  0  0  0  0
 14 40  1  0  0  0  0
 15 16  1  0  0  0  0
 15 41  1  0  0  0  0
 15 42  1  0  0  0  0
 16 17  1  0  0  0  0
 16 43  1  0  0  0  0
 17 44  1  0  0  0  0
 17 45  1  0  0  0  0
 18 19  2  0  0  0  0
 18 20  1  0  0  0  0
 20 21  1  0  0  0  0
 20 23  2  0  0  0  0
 21 22  3  0  0  0  0
 23 24  1  0  0  0  0
 24 46  1  0  0  0  0
 24 47  1  0  0  0  0
 24 48  1  0  0  0  0
M  END
> <s_m_source_file>
AV-unprocessed.smi

> <i_m_source_file_index>
1401

> <i_lp_mmshare_version>
43012

> <i_f3d_flags>
0

> <s_epik_input>
TiNDYyhjMVtDSDNdKWMoPU8pbihuYzFbQ0gzXSlbQ0gyXUMoPU8pW05IXVtDQEhdKFtDSDNdKVtDQEhdKFtDSDJdW0NASF0yMylbQ0BIXShbQ0gyXTMpW0NIMl1bQ0gyXTI=

> <s_epik_cmdline>
J2VwaWtfcHl0aG9uJywgJy1waCcsICc3LjAnLCAnLXRuJywgJzgnLCAnLW1hJywgJzIwMCcsICctbWV0YWxfYmluZGluZycsICctaW1hZScsICc8aW5maWxlLm1hZT4nLCAnLW9tYWUnLCAnPG91dGZpbGUubWFlPic=

> <r_lp_tautomer_probability>
1

> <r_epik_Ionization_Penalty>
2.16501e-08

> <r_epik_Ionization_Penalty_Charging>
2.29436e-11

> <r_epik_Ionization_Penalty_Neutral>
2.16271e-08

> <r_epik_State_Penalty>
-0

> <r_epik_Charging_Adjusted_Penalty>
2.29436e-11

> <i_epik_Tot_Q>
0

> <i_epik_Tot_abs_Q>
0

> <r_epik_Metal_State_Penalty>
-0

> <b_epik_Metal_Only>
0

> <s_lp_Force_Field>
OPLS_2005

> <r_lp_Energy>
65.4856

> <b_lp_Chiralities_Consistent>
1

> <s_lp_Variant>
AV-unprocessed.smi:1401-2

> <Gold.Version>
5.8.1

> <Gold.Id.Protein>
6NUR|6NUR_protein|mol2

> <Gold.PLP.Fitness>
44.0307

> <Gold.PLP.PLP>
-41.0621

> <Gold.PLP.part.hbond>
-2.0000

> <Gold.PLP.part.metal>
0.0000

> <Gold.PLP.part.buried>
-6.8640

> <Gold.PLP.part.nonpolar>
-32.7479

> <Gold.PLP.part.repulsive>
0.1823

> <Gold.PLP.ligand.clash>
0.0000

> <Gold.PLP.ligand.torsion>
1.5316

> <Gold.PLP.Chemscore.Hbond>
2.0000

> <Gold.PLP.Chemscore.CHOScore>
0.0000

> <Gold.PLP.Chemscore.Metal>
0.0000

> <Gold.Chemscore.Hbonds>
donor molecule, donor type, donor heavy atom, donor atom, acceptor molecule, acceptor atom, score
      P1  H  6896  6907       L1    19  0.02
      P1  H  6896  6909       L1     7  0.95

> <Gold.PLP.Chemscore.Internal.Correction>
0.0317

> <Gold.Rescore>
     Score         DG    S(hbond)    S(metal)    S(lipo)     H(rot)  DE(clash)    DE(int)     intcor
     17.84     -19.99       1.94        0.00     104.17       1.63       0.01       2.15       ----

> <Gold.Chemscore.Fitness>
17.8372

> <Gold.Chemscore.DG>
-19.9882

> <Gold.Chemscore.ZeroCoef>
-5.4800

> <Gold.Chemscore.Hbond>
1.9425

> <Gold.Chemscore.Metal>
0.0000

> <Gold.Chemscore.Lipo>
104.1712

> <Gold.Chemscore.Internal_Hbond>
0.0000

> <Gold.Chemscore.DEClash>
0.0053

> <Gold.Chemscore.DEInternal>
2.1458

> <Gold.Chemscore.Rot>
1.6281

> <Gold.Chemscore.Internal.Correction>
   9.000000E+99

> <Gold.Chemscore.Hbonds>
donor molecule, donor type, donor heavy atom, donor atom, acceptor molecule, acceptor atom, score
      P1  H  6896  6907       L1    19  0.03
      P1  H  6896  6909       L1     7  0.22

> <Gold.Chemscore.Hbond.Weighted>
-6.4880

> <Gold.Chemscore.Metal.Weighted>
-0.0000

> <Gold.Chemscore.Lipo.Weighted>
-12.1880

> <Gold.Chemscore.Internal_Hbond.Weighted>
0.0000

> <Gold.Chemscore.DEClash.Weighted>
0.0053

> <Gold.Chemscore.DEInternal.Weighted>
2.1458

> <Gold.Chemscore.Rot.Weighted>
4.1678

> <Gold.Chemscore.Internal.Correction.Weighted>
   9.000000E+99

> <Gold.Protein.RotatedTorsions>
[ 6907 6896 6895 6894 ] final   30.70 input  -60.11 | X-H torsion
[ 7974 7965 7964 7962 ] final  -14.39 input  175.53 | X-H torsion
[ 8008 7997 7996 7995 ] final  131.32 input   59.86 | X-H torsion
[ 10167 10162 10161 10158 ] final   71.99 input  -65.29 | X-H torsion
[ 10718 10713 10712 10709 ] final    1.18 input   66.30 | X-H torsion
[ 10763 10752 10751 10750 ] final   88.97 input  -60.55 | X-H torsion
[ 11005 11000 10999 10996 ] final  -94.77 input  -57.11 | X-H torsion

> <Gold.Protein.ActiveResidues>
 VAL166  LYS551  ARG553  GLY616  TRP617  ASP618  TYR619  PRO620  LYS621  CYS622 
 ASP623  PHE694  ASN695  SER759  ASP760  ASP761  ALA762  ILE779  LEU786  VAL792 
 PHE793  MET794  SER795  GLU796  ALA797  LYS798  CYS799  TRP800  GLU811  SER814 

> <Gold.Protein.RotatedAtoms>
  152.0497  134.9661  160.0574 H   0  0  0  0  0  0  0  0  0  0  0  0  # atno 6907 bound_to 6896
  152.1067  133.4274  159.4620 H   0  0  0  0  0  0  0  0  0  0  0  0  # atno 6908 bound_to 6896
  150.6841  134.2616  159.4595 H   0  0  0  0  0  0  0  0  0  0  0  0  # atno 6909 bound_to 6896
  146.2076  140.3342  142.8402 H   0  0  0  0  0  0  0  0  0  0  0  0  # atno 7974 bound_to 7965
  156.2968  140.2574  156.2906 H   0  0  0  0  0  0  0  0  0  0  0  0  # atno 8008 bound_to 7997
  154.9513  140.0394  157.2164 H   0  0  0  0  0  0  0  0  0  0  0  0  # atno 8009 bound_to 7997
  154.8033  140.2832  155.5910 H   0  0  0  0  0  0  0  0  0  0  0  0  # atno 8010 bound_to 7997
  140.0401  144.5396  150.7440 H   0  0  0  0  0  0  0  0  0  0  0  0  # atno 10167 bound_to 10162
  156.8444  130.5532  149.5675 H   0  0  0  0  0  0  0  0  0  0  0  0  # atno 10718 bound_to 10713
  153.1822  135.4487  155.0043 H   0  0  0  0  0  0  0  0  0  0  0  0  # atno 10763 bound_to 10752
  154.8037  135.3266  154.7487 H   0  0  0  0  0  0  0  0  0  0  0  0  # atno 10764 bound_to 10752
  153.7950  135.6967  153.4920 H   0  0  0  0  0  0  0  0  0  0  0  0  # atno 10765 bound_to 10752
  141.1461  133.7979  157.0344 H   0  0  0  0  0  0  0  0  0  0  0  0  # atno 11005 bound_to 11000
  144.8831  140.7426  143.5974 LP  0  0  0  0  0  0  0  0  0  0  0  0  # atno 17320 bound_to 7965
  145.3263  139.1773  143.4561 LP  0  0  0  0  0  0  0  0  0  0  0  0  # atno 17321 bound_to 7965
  140.7264  143.2640  151.4106 LP  0  0  0  0  0  0  0  0  0  0  0  0  # atno 17342 bound_to 10162
  139.6019  144.1277  152.2207 LP  0  0  0  0  0  0  0  0  0  0  0  0  # atno 17343 bound_to 10162
  156.0862  130.5860  150.9653 LP  0  0  0  0  0  0  0  0  0  0  0  0  # atno 17370 bound_to 10713
  157.6338  131.0918  150.8389 LP  0  0  0  0  0  0  0  0  0  0  0  0  # atno 17371 bound_to 10713
  140.0733  134.9690  157.1503 LP  0  0  0  0  0  0  0  0  0  0  0  0  # atno 17394 bound_to 11000
  140.3680  134.2422  155.7180 LP  0  0  0  0  0  0  0  0  0  0  0  0  # atno 17395 bound_to 11000

$$$$
