AV-unprocessed.smi:2944|AV-procd|sdf|11275|dock9
  -GOLD-   2272016163D 1   1.00000     0.00000
 Structure written by MMmdl.
 45 47  0  0  0  0  0  0  0  0  2 V2000
  152.5810  138.6307  154.7792 C   0  0  0  0  0  0  0  0  0  0  0  0
  153.0605  139.4313  155.8447 O   0  0  0  0  0  0  0  0  0  0  0  0
  152.6263  138.9648  157.1116 C   0  0  0  0  0  0  0  0  0  0  0  0
  151.1866  139.4243  157.3826 C   0  0  0  0  0  0  0  0  0  0  0  0
  151.0127  140.8699  157.1758 N   0  0  0  0  0  0  0  0  0  0  0  0
  150.3193  141.5467  156.2187 C   0  0  0  0  0  0  0  0  0  0  0  0
  149.3875  140.8466  154.8979 S   0  0  0  0  0  0  0  0  0  0  0  0
  147.6738  140.8472  155.5054 C   0  0  1  0  0  0  0  0  0  0  0  0
  146.8719  141.9655  154.8241 C   0  0  0  0  0  0  0  0  0  0  0  0
  146.9952  139.4774  155.2864 C   0  0  0  0  0  0  0  0  0  0  0  0
  146.6900  138.8341  156.2929 O   0  0  0  0  0  0  0  0  0  0  0  0
  146.6926  139.0037  154.0467 N   0  0  0  0  0  0  0  0  0  0  0  0
  147.1978  139.6786  152.8497 C   0  0  0  0  0  0  0  0  0  0  0  0
  146.6924  138.8285  151.6911 C   0  0  0  0  0  0  0  0  0  0  0  0
  145.9222  137.8209  152.3759 N   0  0  0  0  0  0  0  0  0  0  0  0
  145.9104  137.9513  153.7046 C   0  0  0  0  0  0  0  0  0  0  0  0
  145.2631  137.2102  154.4429 O   0  0  0  0  0  0  0  0  0  0  0  0
  150.4556  142.8774  156.4677 N   0  3  0  0  0  0  0  0  0  0  0  0
  151.2497  143.0592  157.6007 C   0  0  0  0  0  0  0  0  0  0  0  0
  151.6692  144.2216  158.2404 C   0  0  0  0  0  0  0  0  0  0  0  0
  152.4747  144.0579  159.3864 C   0  0  0  0  0  0  0  0  0  0  0  0
  152.8305  142.7772  159.8569 C   0  0  0  0  0  0  0  0  0  0  0  0
  152.3996  141.6058  159.2002 C   0  0  0  0  0  0  0  0  0  0  0  0
  151.6077  141.7750  158.0642 C   0  0  0  0  0  0  0  0  0  0  0  0
  152.9265  139.0390  153.8295 H   0  0  0  0  0  0  0  0  0  0  0  0
  151.4908  138.6081  154.7605 H   0  0  0  0  0  0  0  0  0  0  0  0
  152.9518  137.6084  154.8588 H   0  0  0  0  0  0  0  0  0  0  0  0
  152.6831  137.8761  157.1492 H   0  0  0  0  0  0  0  0  0  0  0  0
  153.2842  139.3480  157.8898 H   0  0  0  0  0  0  0  0  0  0  0  0
  150.4791  138.8837  156.7540 H   0  0  0  0  0  0  0  0  0  0  0  0
  150.9115  139.2002  158.4137 H   0  0  0  0  0  0  0  0  0  0  0  0
  147.7713  141.0745  156.5634 H   0  0  0  0  0  0  0  0  0  0  0  0
  145.8513  142.0109  155.2060 H   0  0  0  0  0  0  0  0  0  0  0  0
  146.8177  141.8179  153.7447 H   0  0  0  0  0  0  0  0  0  0  0  0
  147.3306  142.9382  155.0030 H   0  0  0  0  0  0  0  0  0  0  0  0
  146.8087  140.6965  152.7862 H   0  0  0  0  0  0  0  0  0  0  0  0
  148.2882  139.7256  152.8557 H   0  0  0  0  0  0  0  0  0  0  0  0
  146.0647  139.3979  151.0048 H   0  0  0  0  0  0  0  0  0  0  0  0
  147.5088  138.3707  151.1316 H   0  0  0  0  0  0  0  0  0  0  0  0
  145.4065  137.1087  151.8790 H   0  0  0  0  0  0  0  0  0  0  0  0
  151.3954  145.2039  157.8841 H   0  0  0  0  0  0  0  0  0  0  0  0
  152.8249  144.9319  159.9165 H   0  0  0  0  0  0  0  0  0  0  0  0
  153.4464  142.6912  160.7405 H   0  0  0  0  0  0  0  0  0  0  0  0
  152.6740  140.6306  159.5741 H   0  0  0  0  0  0  0  0  0  0  0  0
  150.0348  143.6042  155.9032 H   0  0  0  0  0  0  0  0  0  0  0  0
  1  2  1  0  0  0  0
  1 25  1  0  0  0  0
  1 26  1  0  0  0  0
  1 27  1  0  0  0  0
  2  3  1  0  0  0  0
  3  4  1  0  0  0  0
  3 28  1  0  0  0  0
  3 29  1  0  0  0  0
  4  5  1  0  0  0  0
  4 30  1  0  0  0  0
  4 31  1  0  0  0  0
  5 24  1  0  0  0  0
  5  6  1  0  0  0  0
  6  7  1  0  0  0  0
  6 18  2  0  0  0  0
  7  8  1  0  0  0  0
  8  9  1  0  0  0  0
  8 10  1  0  0  0  0
  8 32  1  0  0  0  0
  9 33  1  0  0  0  0
  9 34  1  0  0  0  0
  9 35  1  0  0  0  0
 10 11  2  0  0  0  0
 10 12  1  0  0  0  0
 12 16  1  0  0  0  0
 12 13  1  0  0  0  0
 13 14  1  0  0  0  0
 13 36  1  0  0  0  0
 13 37  1  0  0  0  0
 14 15  1  0  0  0  0
 14 38  1  0  0  0  0
 14 39  1  0  0  0  0
 15 16  1  0  0  0  0
 15 40  1  0  0  0  0
 16 17  2  0  0  0  0
 18 19  1  0  0  0  0
 18 45  1  0  0  0  0
 19 24  2  0  0  0  0
 19 20  1  0  0  0  0
 20 21  2  0  0  0  0
 20 41  1  0  0  0  0
 21 22  1  0  0  0  0
 21 42  1  0  0  0  0
 22 23  2  0  0  0  0
 22 43  1  0  0  0  0
 23 24  1  0  0  0  0
 23 44  1  0  0  0  0
M  CHG  1  18   1
M  END
> <s_m_source_file>
AV-unprocessed.smi

> <i_m_source_file_index>
2944

> <i_lp_mmshare_version>
43012

> <i_f3d_flags>
0

> <s_epik_input>
W2NIXTFbY0hdW2NIXVtjSF1jKGMxMiluKFtDSDJdW0NIMl1PW0NIM10pYyhuMilTW0NASF0oW0NIM10pQyg9TylOM1tDSDJdW0NIMl1bTkhdQzM9Tw==

> <s_epik_cmdline>
J2VwaWtfcHl0aG9uJywgJy1waCcsICc3LjAnLCAnLXRuJywgJzgnLCAnLW1hJywgJzIwMCcsICctbWV0YWxfYmluZGluZycsICctaW1hZScsICc8aW5maWxlLm1hZT4nLCAnLW9tYWUnLCAnPG91dGZpbGUubWFlPic=

> <r_lp_tautomer_probability>
0.9999

> <r_epik_Ionization_Penalty>
1.88808

> <r_epik_Ionization_Penalty_Charging>
1.88806

> <r_epik_Ionization_Penalty_Neutral>
2.68145e-05

> <r_epik_State_Penalty>
2.00836

> <r_epik_Charging_Adjusted_Penalty>
3.89641

> <i_epik_Tot_Q>
1

> <i_epik_Tot_abs_Q>
1

> <r_epik_Metal_State_Penalty>
2.03272

> <b_epik_Metal_Only>
0

> <s_lp_Force_Field>
OPLS_2005

> <r_lp_Energy>
44.4651

> <b_lp_Chiralities_Consistent>
1

> <s_lp_Variant>
AV-unprocessed.smi:2944-4

> <Gold.Version>
5.8.1

> <Gold.Id.Protein>
6NUR|6NUR_protein|mol2

> <Gold.PLP.Fitness>
53.8725

> <Gold.PLP.PLP>
-47.6987

> <Gold.PLP.part.hbond>
-3.1391

> <Gold.PLP.part.metal>
0.0000

> <Gold.PLP.part.buried>
-0.9489

> <Gold.PLP.part.nonpolar>
-44.7909

> <Gold.PLP.part.repulsive>
0.2432

> <Gold.PLP.ligand.clash>
0.0000

> <Gold.PLP.ligand.torsion>
1.2874

> <Gold.PLP.Chemscore.Hbond>
2.8560

> <Gold.PLP.Chemscore.CHOScore>
0.0000

> <Gold.PLP.Chemscore.Metal>
0.0000

> <Gold.Chemscore.Hbonds>
donor molecule, donor type, donor heavy atom, donor atom, acceptor molecule, acceptor atom, score
      L1  H    18    45       P1  8028  2.00
      P1  H  7997  8010       L1     2  0.96

> <Gold.PLP.Chemscore.Internal.Correction>
0.1807

> <Gold.Rescore>
     Score         DG    S(hbond)    S(metal)    S(lipo)     H(rot)  DE(clash)    DE(int)     intcor
     16.50     -19.23       1.87        0.00     114.47       2.30       0.04       2.69       ----

> <Gold.Chemscore.Fitness>
16.5046

> <Gold.Chemscore.DG>
-19.2264

> <Gold.Chemscore.ZeroCoef>
-5.4800

> <Gold.Chemscore.Hbond>
1.8679

> <Gold.Chemscore.Metal>
0.0000

> <Gold.Chemscore.Lipo>
114.4652

> <Gold.Chemscore.Internal_Hbond>
0.0000

> <Gold.Chemscore.DEClash>
0.0355

> <Gold.Chemscore.DEInternal>
2.6863

> <Gold.Chemscore.Rot>
2.2988

> <Gold.Chemscore.Internal.Correction>
   9.000000E+99

> <Gold.Chemscore.Hbonds>
donor molecule, donor type, donor heavy atom, donor atom, acceptor molecule, acceptor atom, score
      L1  H    18    45       P1  8028  0.95
      P1  H  7997  8010       L1     2  0.27

> <Gold.Chemscore.Hbond.Weighted>
-6.2390

> <Gold.Chemscore.Metal.Weighted>
-0.0000

> <Gold.Chemscore.Lipo.Weighted>
-13.3924

> <Gold.Chemscore.Internal_Hbond.Weighted>
0.0000

> <Gold.Chemscore.DEClash.Weighted>
0.0355

> <Gold.Chemscore.DEInternal.Weighted>
2.6863

> <Gold.Chemscore.Rot.Weighted>
5.8850

> <Gold.Chemscore.Internal.Correction.Weighted>
   9.000000E+99

> <Gold.Protein.RotatedTorsions>
[ 6907 6896 6895 6894 ] final  179.97 input  -60.11 | X-H torsion
[ 7974 7965 7964 7962 ] final   48.17 input  175.53 | X-H torsion
[ 8008 7997 7996 7995 ] final   84.11 input   59.86 | X-H torsion
[ 10167 10162 10161 10158 ] final   14.62 input  -65.29 | X-H torsion
[ 10718 10713 10712 10709 ] final   49.16 input   66.30 | X-H torsion
[ 10763 10752 10751 10750 ] final   22.32 input  -60.55 | X-H torsion
[ 11005 11000 10999 10996 ] final  170.18 input  -57.11 | X-H torsion

> <Gold.Protein.ActiveResidues>
 VAL166  LYS551  ARG553  GLY616  TRP617  ASP618  TYR619  PRO620  LYS621  CYS622 
 ASP623  PHE694  ASN695  SER759  ASP760  ASP761  ALA762  ILE779  LEU786  VAL792 
 PHE793  MET794  SER795  GLU796  ALA797  LYS798  CYS799  TRP800  GLU811  SER814 

> <Gold.Protein.RotatedAtoms>
  151.6631  133.3316  159.3178 H   0  0  0  0  0  0  0  0  0  0  0  0  # atno 6907 bound_to 6896
  150.7904  134.6927  159.6515 H   0  0  0  0  0  0  0  0  0  0  0  0  # atno 6908 bound_to 6896
  152.3982  134.6334  160.0133 H   0  0  0  0  0  0  0  0  0  0  0  0  # atno 6909 bound_to 6896
  146.0230  139.4673  142.9885 H   0  0  0  0  0  0  0  0  0  0  0  0  # atno 7974 bound_to 7965
  155.9327  140.3413  155.6262 H   0  0  0  0  0  0  0  0  0  0  0  0  # atno 8008 bound_to 7997
  155.7137  140.0775  157.2379 H   0  0  0  0  0  0  0  0  0  0  0  0  # atno 8009 bound_to 7997
  154.4088  140.1618  156.2312 H   0  0  0  0  0  0  0  0  0  0  0  0  # atno 8010 bound_to 7997
  140.5923  143.8771  150.6885 H   0  0  0  0  0  0  0  0  0  0  0  0  # atno 10167 bound_to 10162
  157.4759  130.8284  149.8039 H   0  0  0  0  0  0  0  0  0  0  0  0  # atno 10718 bound_to 10713
  153.0924  135.6650  153.9827 H   0  0  0  0  0  0  0  0  0  0  0  0  # atno 10763 bound_to 10752
  153.9420  135.2993  155.3443 H   0  0  0  0  0  0  0  0  0  0  0  0  # atno 10764 bound_to 10752
  154.7340  135.5110  153.9084 H   0  0  0  0  0  0  0  0  0  0  0  0  # atno 10765 bound_to 10752
  140.3056  134.7559  157.3951 H   0  0  0  0  0  0  0  0  0  0  0  0  # atno 11005 bound_to 11000
  145.7163  141.0090  143.1426 LP  0  0  0  0  0  0  0  0  0  0  0  0  # atno 17320 bound_to 7965
  144.6997  139.8817  143.7447 LP  0  0  0  0  0  0  0  0  0  0  0  0  # atno 17321 bound_to 7965
  140.2297  143.3745  152.1576 LP  0  0  0  0  0  0  0  0  0  0  0  0  # atno 17342 bound_to 10162
  139.5235  144.7072  151.5316 LP  0  0  0  0  0  0  0  0  0  0  0  0  # atno 17343 bound_to 10162
  156.0096  130.3839  150.2309 LP  0  0  0  0  0  0  0  0  0  0  0  0  # atno 17370 bound_to 10713
  157.0493  131.0058  151.3258 LP  0  0  0  0  0  0  0  0  0  0  0  0  # atno 17371 bound_to 10713
  140.1070  134.5396  155.8300 LP  0  0  0  0  0  0  0  0  0  0  0  0  # atno 17394 bound_to 11000
  141.2119  133.6712  156.6618 LP  0  0  0  0  0  0  0  0  0  0  0  0  # atno 17395 bound_to 11000

$$$$
