AV-unprocessed.smi:204|AV-procd|sdf|1599|dock6
  -GOLD-   2262019503D 1   1.00000     0.00000
 Structure written by MMmdl.
 53 56  0  0  0  0  0  0  0  0  1 V2000
  152.0782  142.4556  158.7790 C   0  0  0  0  0  0  0  0  0  0  0  0
  151.9892  141.3148  157.7710 C   0  0  0  0  0  0  0  0  0  0  0  0
  152.8228  140.4096  157.7859 O   0  0  0  0  0  0  0  0  0  0  0  0
  150.9721  141.3698  156.9000 N   0  0  0  0  0  0  0  0  0  0  0  0
  150.7172  140.3724  155.8680 C   0  0  0  0  0  0  0  0  0  0  0  0
  149.5529  140.7881  154.9497 C   0  0  1  0  0  0  0  0  0  0  0  0
  149.0621  139.6334  154.0501 C   0  0  0  0  0  0  0  0  0  0  0  0
  147.8791  140.0889  153.1825 C   0  0  0  0  0  0  0  0  0  0  0  0
  146.7504  140.6699  154.0479 C   0  0  0  0  0  0  0  0  0  0  0  0
  147.2583  141.7313  154.9182 N   0  0  0  0  0  0  0  0  0  0  0  0
  146.3543  142.5634  155.4968 C   0  0  0  0  0  0  0  0  0  0  0  0
  146.1433  142.5065  156.8393 N   0  0  0  0  0  0  0  0  0  0  0  0
  145.2634  143.3266  157.4209 C   0  0  0  0  0  0  0  0  0  0  0  0
  144.4952  144.2602  156.8575 N   0  0  0  0  0  0  0  0  0  0  0  0
  144.6924  144.3173  155.5095 C   0  0  0  0  0  0  0  0  0  0  0  0
  145.5972  143.5159  154.7565 C   0  0  0  0  0  0  0  0  0  0  0  0
  145.5215  143.8571  153.4112 N   0  0  0  0  0  0  0  0  0  0  0  0
  144.6365  144.8151  153.3739 C   0  0  0  0  0  0  0  0  0  0  0  0
  144.0748  145.1445  154.5870 N   0  0  0  0  0  0  0  0  0  0  0  0
  143.0641  146.1635  154.8280 C   0  0  0  0  0  0  0  0  0  0  0  0
  141.7140  145.6083  155.3283 C   0  0  0  0  0  0  0  0  0  0  0  0
  141.2868  144.3813  154.5036 C   0  0  0  0  0  0  0  0  0  0  0  0
  141.3201  144.6519  153.1164 O   0  0  0  0  0  0  0  0  0  0  0  0
  141.5831  145.4219  156.8469 C   0  0  0  0  0  0  0  0  0  0  0  0
  140.3368  146.1485  156.8838 O   0  0  0  0  0  0  0  0  0  0  0  0
  140.6065  146.6466  155.5564 C   0  0  0  0  0  0  0  0  0  0  0  0
  148.3764  141.3424  155.7777 C   0  0  0  0  0  0  0  0  0  0  0  0
  151.1391  142.5584  159.3238 H   0  0  0  0  0  0  0  0  0  0  0  0
  152.2888  143.3965  158.2702 H   0  0  0  0  0  0  0  0  0  0  0  0
  152.8732  142.2728  159.5030 H   0  0  0  0  0  0  0  0  0  0  0  0
  150.3342  142.1505  156.9545 H   0  0  0  0  0  0  0  0  0  0  0  0
  151.6241  140.2203  155.2804 H   0  0  0  0  0  0  0  0  0  0  0  0
  150.4855  139.4198  156.3477 H   0  0  0  0  0  0  0  0  0  0  0  0
  149.9094  141.5925  154.3039 H   0  0  0  0  0  0  0  0  0  0  0  0
  149.8656  139.2759  153.4058 H   0  0  0  0  0  0  0  0  0  0  0  0
  148.7580  138.7871  154.6677 H   0  0  0  0  0  0  0  0  0  0  0  0
  148.2179  140.8439  152.4719 H   0  0  0  0  0  0  0  0  0  0  0  0
  147.5037  139.2532  152.5913 H   0  0  0  0  0  0  0  0  0  0  0  0
  145.9626  141.0578  153.4006 H   0  0  0  0  0  0  0  0  0  0  0  0
  146.3084  139.8824  154.6605 H   0  0  0  0  0  0  0  0  0  0  0  0
  145.1602  143.2191  158.4907 H   0  0  0  0  0  0  0  0  0  0  0  0
  144.3580  145.3042  152.4516 H   0  0  0  0  0  0  0  0  0  0  0  0
  143.4735  146.8739  155.5474 H   0  0  0  0  0  0  0  0  0  0  0  0
  142.9284  146.7321  153.9073 H   0  0  0  0  0  0  0  0  0  0  0  0
  141.9122  143.5144  154.7161 H   0  0  0  0  0  0  0  0  0  0  0  0
  140.2687  144.0855  154.7593 H   0  0  0  0  0  0  0  0  0  0  0  0
  141.7937  143.9564  152.6860 H   0  0  0  0  0  0  0  0  0  0  0  0
  141.4760  144.3831  157.1611 H   0  0  0  0  0  0  0  0  0  0  0  0
  142.3538  145.9274  157.4295 H   0  0  0  0  0  0  0  0  0  0  0  0
  140.9624  147.6781  155.5758 H   0  0  0  0  0  0  0  0  0  0  0  0
  139.7520  146.5429  154.8866 H   0  0  0  0  0  0  0  0  0  0  0  0
  148.0254  140.5841  156.4792 H   0  0  0  0  0  0  0  0  0  0  0  0
  148.7243  142.1808  156.3801 H   0  0  0  0  0  0  0  0  0  0  0  0
  1  2  1  0  0  0  0
  1 28  1  0  0  0  0
  1 29  1  0  0  0  0
  1 30  1  0  0  0  0
  2  3  2  0  0  0  0
  2  4  1  0  0  0  0
  4  5  1  0  0  0  0
  4 31  1  0  0  0  0
  5  6  1  0  0  0  0
  5 32  1  0  0  0  0
  5 33  1  0  0  0  0
  6 27  1  0  0  0  0
  6  7  1  0  0  0  0
  6 34  1  0  0  0  0
  7  8  1  0  0  0  0
  7 35  1  0  0  0  0
  7 36  1  0  0  0  0
  8  9  1  0  0  0  0
  8 37  1  0  0  0  0
  8 38  1  0  0  0  0
  9 10  1  0  0  0  0
  9 39  1  0  0  0  0
  9 40  1  0  0  0  0
 10 11  1  0  0  0  0
 10 27  1  0  0  0  0
 11 16  1  0  0  0  0
 11 12  2  0  0  0  0
 12 13  1  0  0  0  0
 13 14  2  0  0  0  0
 13 41  1  0  0  0  0
 14 15  1  0  0  0  0
 15 19  1  0  0  0  0
 15 16  2  0  0  0  0
 16 17  1  0  0  0  0
 17 18  2  0  0  0  0
 18 19  1  0  0  0  0
 18 42  1  0  0  0  0
 19 20  1  0  0  0  0
 20 21  1  0  0  0  0
 20 43  1  0  0  0  0
 20 44  1  0  0  0  0
 21 26  1  0  0  0  0
 21 22  1  0  0  0  0
 21 24  1  0  0  0  0
 22 23  1  0  0  0  0
 22 45  1  0  0  0  0
 22 46  1  0  0  0  0
 23 47  1  0  0  0  0
 24 25  1  0  0  0  0
 24 48  1  0  0  0  0
 24 49  1  0  0  0  0
 25 26  1  0  0  0  0
 26 50  1  0  0  0  0
 26 51  1  0  0  0  0
 27 52  1  0  0  0  0
 27 53  1  0  0  0  0
M  END
> <s_m_source_file>
AV-unprocessed.smi

> <i_m_source_file_index>
204

> <i_lp_mmshare_version>
43012

> <i_f3d_flags>
0

> <s_epik_input>
W0NIM11DKD1PKVtOSF1bQ0gyXVtDQEBIXTFbQ0gyXVtDSDJdW0NIMl1OKFtDSDJdMSljKG5bY0hdbjIpYyhjMjMpbltjSF1uM1tDSDJdQzQoW0NIMl1bT0hdKVtDSDJdT1tDSDJdNA==

> <s_epik_cmdline>
J2VwaWtfcHl0aG9uJywgJy1waCcsICc3LjAnLCAnLXRuJywgJzgnLCAnLW1hJywgJzIwMCcsICctbWV0YWxfYmluZGluZycsICctaW1hZScsICc8aW5maWxlLm1hZT4nLCAnLW9tYWUnLCAnPG91dGZpbGUubWFlPic=

> <r_lp_tautomer_probability>
1

> <r_epik_Ionization_Penalty>
0.00166599

> <r_epik_Ionization_Penalty_Charging>
0

> <r_epik_Ionization_Penalty_Neutral>
0.00166599

> <r_epik_State_Penalty>
0.000989951

> <r_epik_Charging_Adjusted_Penalty>
0.000989951

> <i_epik_Tot_Q>
0

> <i_epik_Tot_abs_Q>
0

> <r_epik_Metal_State_Penalty>
-0

> <b_epik_Metal_Only>
0

> <s_lp_Force_Field>
OPLS_2005

> <r_lp_Energy>
35.563

> <b_lp_Chiralities_Consistent>
1

> <s_lp_Variant>
AV-unprocessed.smi:204-2

> <Gold.Version>
5.8.1

> <Gold.Id.Protein>
6NUR|6NUR_protein|mol2

> <Gold.PLP.Fitness>
43.1709

> <Gold.PLP.PLP>
-38.4245

> <Gold.PLP.part.hbond>
-3.6298

> <Gold.PLP.part.metal>
0.0000

> <Gold.PLP.part.buried>
-2.9496

> <Gold.PLP.part.nonpolar>
-32.7375

> <Gold.PLP.part.repulsive>
0.6586

> <Gold.PLP.ligand.clash>
0.0000

> <Gold.PLP.ligand.torsion>
0.9443

> <Gold.PLP.Chemscore.Hbond>
1.9440

> <Gold.PLP.Chemscore.CHOScore>
0.0000

> <Gold.PLP.Chemscore.Metal>
0.0000

> <Gold.Chemscore.Hbonds>
donor molecule, donor type, donor heavy atom, donor atom, acceptor molecule, acceptor atom, score
      L1  H    23    47       P1 10174  1.00
      P1  H  7997  8008       L1     3  0.88

> <Gold.PLP.Chemscore.Internal.Correction>
0.8030

> <Gold.Rescore>
     Score         DG    S(hbond)    S(metal)    S(lipo)     H(rot)  DE(clash)    DE(int)     intcor
      8.91     -12.00       1.88        0.00      74.87       3.33       2.07       1.02       ----

> <Gold.Chemscore.Fitness>
8.9107

> <Gold.Chemscore.DG>
-11.9998

> <Gold.Chemscore.ZeroCoef>
-5.4800

> <Gold.Chemscore.Hbond>
1.8788

> <Gold.Chemscore.Metal>
0.0000

> <Gold.Chemscore.Lipo>
74.8668

> <Gold.Chemscore.Internal_Hbond>
0.0000

> <Gold.Chemscore.DEClash>
2.0673

> <Gold.Chemscore.DEInternal>
1.0218

> <Gold.Chemscore.Rot>
3.3261

> <Gold.Chemscore.Internal.Correction>
   9.000000E+99

> <Gold.Chemscore.Hbonds>
donor molecule, donor type, donor heavy atom, donor atom, acceptor molecule, acceptor atom, score
      L1  H    23    47       P1 10174  1.00
      P1  H  7997  8008       L1     3  0.86

> <Gold.Chemscore.Hbond.Weighted>
-6.2753

> <Gold.Chemscore.Metal.Weighted>
-0.0000

> <Gold.Chemscore.Lipo.Weighted>
-8.7594

> <Gold.Chemscore.Internal_Hbond.Weighted>
0.0000

> <Gold.Chemscore.DEClash.Weighted>
2.0673

> <Gold.Chemscore.DEInternal.Weighted>
1.0218

> <Gold.Chemscore.Rot.Weighted>
8.5149

> <Gold.Chemscore.Internal.Correction.Weighted>
   9.000000E+99

> <Gold.Protein.RotatedTorsions>
[ 6907 6896 6895 6894 ] final   69.43 input  -60.11 | X-H torsion
[ 7974 7965 7964 7962 ] final  123.72 input  175.53 | X-H torsion
[ 8008 7997 7996 7995 ] final  -73.75 input   59.86 | X-H torsion
[ 10167 10162 10161 10158 ] final  -10.64 input  -65.29 | X-H torsion
[ 10718 10713 10712 10709 ] final  166.52 input   66.30 | X-H torsion
[ 10763 10752 10751 10750 ] final   15.18 input  -60.55 | X-H torsion
[ 11005 11000 10999 10996 ] final -105.29 input  -57.11 | X-H torsion

> <Gold.Protein.ActiveResidues>
 VAL166  LYS551  ARG553  GLY616  TRP617  ASP618  TYR619  PRO620  LYS621  CYS622 
 ASP623  PHE694  ASN695  SER759  ASP760  ASP761  ALA762  ILE779  LEU786  VAL792 
 PHE793  MET794  SER795  GLU796  ALA797  LYS798  CYS799  TRP800  GLU811  SER814 

> <Gold.Protein.RotatedAtoms>
  152.4685  134.5017  159.9726 H   0  0  0  0  0  0  0  0  0  0  0  0  # atno 6907 bound_to 6896
  151.5049  133.3491  159.2883 H   0  0  0  0  0  0  0  0  0  0  0  0  # atno 6908 bound_to 6896
  150.8682  134.8079  159.7197 H   0  0  0  0  0  0  0  0  0  0  0  0  # atno 6909 bound_to 6896
  145.0927  139.3575  143.4852 H   0  0  0  0  0  0  0  0  0  0  0  0  # atno 7974 bound_to 7965
  154.5273  140.0773  156.8282 H   0  0  0  0  0  0  0  0  0  0  0  0  # atno 8008 bound_to 7997
  155.3448  140.3409  155.4221 H   0  0  0  0  0  0  0  0  0  0  0  0  # atno 8009 bound_to 7997
  156.1745  140.1631  156.8374 H   0  0  0  0  0  0  0  0  0  0  0  0  # atno 8010 bound_to 7997
  140.7119  143.5726  150.9076 H   0  0  0  0  0  0  0  0  0  0  0  0  # atno 10167 bound_to 10162
  157.0647  131.0350  151.2634 H   0  0  0  0  0  0  0  0  0  0  0  0  # atno 10718 bound_to 10713
  153.1550  135.6785  153.8826 H   0  0  0  0  0  0  0  0  0  0  0  0  # atno 10763 bound_to 10752
  153.8240  135.3126  155.3414 H   0  0  0  0  0  0  0  0  0  0  0  0  # atno 10764 bound_to 10752
  154.7890  135.4845  154.0098 H   0  0  0  0  0  0  0  0  0  0  0  0  # atno 10765 bound_to 10752
  141.1060  133.8795  157.1716 H   0  0  0  0  0  0  0  0  0  0  0  0  # atno 11005 bound_to 11000
  146.3531  140.0768  142.8620 LP  0  0  0  0  0  0  0  0  0  0  0  0  # atno 17320 bound_to 7965
  145.1047  140.9368  143.4691 LP  0  0  0  0  0  0  0  0  0  0  0  0  # atno 17321 bound_to 7965
  139.9452  143.6335  152.3043 LP  0  0  0  0  0  0  0  0  0  0  0  0  # atno 17342 bound_to 10162
  139.6834  144.7653  151.1567 LP  0  0  0  0  0  0  0  0  0  0  0  0  # atno 17343 bound_to 10162
  157.4926  130.7831  149.7523 LP  0  0  0  0  0  0  0  0  0  0  0  0  # atno 17370 bound_to 10713
  155.9968  130.3904  150.2765 LP  0  0  0  0  0  0  0  0  0  0  0  0  # atno 17371 bound_to 10713
  139.9931  135.0057  157.0021 LP  0  0  0  0  0  0  0  0  0  0  0  0  # atno 17394 bound_to 11000
  140.4900  134.1203  155.7231 LP  0  0  0  0  0  0  0  0  0  0  0  0  # atno 17395 bound_to 11000

$$$$
