AV-unprocessed.smi:3154|AV-procd|sdf|12023|dock5
  -GOLD-   2272017433D 1   1.00000     0.00000
 Structure written by MMmdl.
 34 35  0  0  0  0  0  0  0  0  1 V2000
  147.2152  145.1753  160.5943 C   0  0  0  0  0  0  0  0  0  0  0  0
  148.4757  144.4029  160.1714 C   0  0  2  0  0  0  0  0  0  0  0  0
  149.7597  145.2694  160.2409 C   0  0  0  0  0  0  0  0  0  0  0  0
  150.9323  144.6402  159.6543 N   0  0  0  0  0  0  0  0  0  0  0  0
  151.2519  144.4958  158.3201 C   0  0  0  0  0  0  0  0  0  0  0  0
  152.4517  143.8470  158.2564 C   0  0  0  0  0  0  0  0  0  0  0  0
  152.7950  143.6382  159.6215 C   0  0  0  0  0  0  0  0  0  0  0  0
  151.8870  144.1185  160.4552 N   0  0  0  0  0  0  0  0  0  0  0  0
  148.2270  143.8620  158.8372 N   0  0  0  0  0  0  0  0  0  0  0  0
  146.9845  143.0816  158.7492 C   0  0  0  0  0  0  0  0  0  0  0  0
  147.0872  141.9270  157.7490 C   0  0  0  0  0  0  0  0  0  0  0  0
  146.5867  140.8293  157.9988 O   0  0  0  0  0  0  0  0  0  0  0  0
  147.7448  142.1961  156.6115 N   0  0  0  0  0  0  0  0  0  0  0  0
  147.9628  141.2775  155.5410 C   0  0  0  0  0  0  0  0  0  0  0  0
  149.0139  141.6333  154.5120 C   0  0  0  0  0  0  0  0  0  0  0  0
  147.5566  141.7123  154.1494 C   0  0  0  0  0  0  0  0  0  0  0  0
  147.3392  145.6120  161.5857 H   0  0  0  0  0  0  0  0  0  0  0  0
  146.3463  144.5176  160.6338 H   0  0  0  0  0  0  0  0  0  0  0  0
  146.9824  145.9846  159.9013 H   0  0  0  0  0  0  0  0  0  0  0  0
  148.5880  143.5667  160.8633 H   0  0  0  0  0  0  0  0  0  0  0  0
  149.5857  146.2038  159.7057 H   0  0  0  0  0  0  0  0  0  0  0  0
  149.9924  145.5646  161.2639 H   0  0  0  0  0  0  0  0  0  0  0  0
  150.6037  144.8597  157.5364 H   0  0  0  0  0  0  0  0  0  0  0  0
  153.0004  143.5650  157.3701 H   0  0  0  0  0  0  0  0  0  0  0  0
  153.6721  143.1571  160.0286 H   0  0  0  0  0  0  0  0  0  0  0  0
  148.2150  144.6269  158.1778 H   0  0  0  0  0  0  0  0  0  0  0  0
  146.7363  142.6538  159.7197 H   0  0  0  0  0  0  0  0  0  0  0  0
  146.1618  143.7363  158.4578 H   0  0  0  0  0  0  0  0  0  0  0  0
  148.1174  143.1270  156.4930 H   0  0  0  0  0  0  0  0  0  0  0  0
  147.8448  140.2171  155.7602 H   0  0  0  0  0  0  0  0  0  0  0  0
  149.5517  142.5713  154.6367 H   0  0  0  0  0  0  0  0  0  0  0  0
  149.5943  140.8175  154.0858 H   0  0  0  0  0  0  0  0  0  0  0  0
  147.1633  140.9494  153.4807 H   0  0  0  0  0  0  0  0  0  0  0  0
  147.1224  142.7033  154.0307 H   0  0  0  0  0  0  0  0  0  0  0  0
  1  2  1  0  0  0  0
  1 17  1  0  0  0  0
  1 18  1  0  0  0  0
  1 19  1  0  0  0  0
  2  3  1  0  0  0  0
  2  9  1  0  0  0  0
  2 20  1  0  0  0  0
  3  4  1  0  0  0  0
  3 21  1  0  0  0  0
  3 22  1  0  0  0  0
  4  8  1  0  0  0  0
  4  5  1  0  0  0  0
  5  6  2  0  0  0  0
  5 23  1  0  0  0  0
  6  7  1  0  0  0  0
  6 24  1  0  0  0  0
  7  8  2  0  0  0  0
  7 25  1  0  0  0  0
  9 10  1  0  0  0  0
  9 26  1  0  0  0  0
 10 11  1  0  0  0  0
 10 27  1  0  0  0  0
 10 28  1  0  0  0  0
 11 12  2  0  0  0  0
 11 13  1  0  0  0  0
 13 14  1  0  0  0  0
 13 29  1  0  0  0  0
 14 16  1  0  0  0  0
 14 15  1  0  0  0  0
 14 30  1  0  0  0  0
 15 16  1  0  0  0  0
 15 31  1  0  0  0  0
 15 32  1  0  0  0  0
 16 33  1  0  0  0  0
 16 34  1  0  0  0  0
M  END
> <s_m_source_file>
AV-unprocessed.smi

> <i_m_source_file_index>
3154

> <i_lp_mmshare_version>
43012

> <i_f3d_flags>
0

> <s_epik_input>
bjFbY0hdW2NIXVtjSF1uMVtDSDJdW0NAQEhdKFtDSDNdKVtOSF1bQ0gyXUMoPU8pW05IXVtDSF0yW0NIMl1bQ0gyXTI=

> <s_epik_cmdline>
J2VwaWtfcHl0aG9uJywgJy1waCcsICc3LjAnLCAnLXRuJywgJzgnLCAnLW1hJywgJzIwMCcsICctbWV0YWxfYmluZGluZycsICctaW1hZScsICc8aW5maWxlLm1hZT4nLCAnLW9tYWUnLCAnPG91dGZpbGUubWFlPic=

> <r_lp_tautomer_probability>
1

> <r_epik_Ionization_Penalty>
1.00229

> <r_epik_Ionization_Penalty_Charging>
0

> <r_epik_Ionization_Penalty_Neutral>
1.00229

> <r_epik_State_Penalty>
1.0509

> <r_epik_Charging_Adjusted_Penalty>
1.0509

> <i_epik_Tot_Q>
0

> <i_epik_Tot_abs_Q>
0

> <r_epik_Metal_State_Penalty>
1.05084

> <b_epik_Metal_Only>
0

> <s_lp_Force_Field>
OPLS_2005

> <r_lp_Energy>
19.1763

> <b_lp_Chiralities_Consistent>
1

> <s_lp_Variant>
AV-unprocessed.smi:3154-3

> <Gold.Version>
5.8.1

> <Gold.Id.Protein>
6NUR|6NUR_protein|mol2

> <Gold.PLP.Fitness>
41.3746

> <Gold.PLP.PLP>
-34.0810

> <Gold.PLP.part.hbond>
-2.4788

> <Gold.PLP.part.metal>
0.0000

> <Gold.PLP.part.buried>
-3.5971

> <Gold.PLP.part.nonpolar>
-28.5224

> <Gold.PLP.part.repulsive>
0.0936

> <Gold.PLP.ligand.clash>
0.0000

> <Gold.PLP.ligand.torsion>
0.8950

> <Gold.PLP.Chemscore.Hbond>
2.0000

> <Gold.PLP.Chemscore.CHOScore>
1.0034

> <Gold.PLP.Chemscore.Metal>
0.0000

> <Gold.Chemscore.Hbonds>
donor molecule, donor type, donor heavy atom, donor atom, acceptor molecule, acceptor atom, score
      L1  H     9    26       P1  8029  1.00
      L1  H    13    29       P1  8028  1.00
      L1  C     5    23       P1  8028  1.00
      L1  C     5    23       P1  8029  0.01

> <Gold.PLP.Chemscore.Internal.Correction>
0.0734

> <Gold.Rescore>
     Score         DG    S(hbond)    S(metal)    S(lipo)     H(rot)  DE(clash)    DE(int)     intcor
     13.12     -14.17       1.43        0.00      79.92       2.12       0.05       0.99       ----

> <Gold.Chemscore.Fitness>
13.1230

> <Gold.Chemscore.DG>
-14.1691

> <Gold.Chemscore.ZeroCoef>
-5.4800

> <Gold.Chemscore.Hbond>
1.4289

> <Gold.Chemscore.Metal>
0.0000

> <Gold.Chemscore.Lipo>
79.9165

> <Gold.Chemscore.Internal_Hbond>
0.0000

> <Gold.Chemscore.DEClash>
0.0539

> <Gold.Chemscore.DEInternal>
0.9922

> <Gold.Chemscore.Rot>
2.1225

> <Gold.Chemscore.Internal.Correction>
   9.000000E+99

> <Gold.Chemscore.Hbonds>
donor molecule, donor type, donor heavy atom, donor atom, acceptor molecule, acceptor atom, score
      L1  H     9    26       P1  8029  0.60
      L1  H    13    29       P1  8028  0.34

> <Gold.Chemscore.Hbond.Weighted>
-4.7725

> <Gold.Chemscore.Metal.Weighted>
-0.0000

> <Gold.Chemscore.Lipo.Weighted>
-9.3502

> <Gold.Chemscore.Internal_Hbond.Weighted>
0.0000

> <Gold.Chemscore.DEClash.Weighted>
0.0539

> <Gold.Chemscore.DEInternal.Weighted>
0.9922

> <Gold.Chemscore.Rot.Weighted>
5.4337

> <Gold.Chemscore.Internal.Correction.Weighted>
   9.000000E+99

> <Gold.Protein.RotatedTorsions>
[ 6907 6896 6895 6894 ] final  -95.88 input  -60.11 | X-H torsion
[ 7974 7965 7964 7962 ] final  164.90 input  175.53 | X-H torsion
[ 8008 7997 7996 7995 ] final   93.99 input   59.86 | X-H torsion
[ 10167 10162 10161 10158 ] final   87.54 input  -65.29 | X-H torsion
[ 10718 10713 10712 10709 ] final   -9.91 input   66.30 | X-H torsion
[ 10763 10752 10751 10750 ] final    1.80 input  -60.55 | X-H torsion
[ 11005 11000 10999 10996 ] final  126.11 input  -57.11 | X-H torsion

> <Gold.Protein.ActiveResidues>
 VAL166  LYS551  ARG553  GLY616  TRP617  ASP618  TYR619  PRO620  LYS621  CYS622 
 ASP623  PHE694  ASN695  SER759  ASP760  ASP761  ALA762  ILE779  LEU786  VAL792 
 PHE793  MET794  SER795  GLU796  ALA797  LYS798  CYS799  TRP800  GLU811  SER814 

> <Gold.Protein.RotatedAtoms>
  150.6974  134.1589  159.4168 H   0  0  0  0  0  0  0  0  0  0  0  0  # atno 6907 bound_to 6896
  151.9570  135.0139  160.0554 H   0  0  0  0  0  0  0  0  0  0  0  0  # atno 6908 bound_to 6896
  152.1960  133.4772  159.5070 H   0  0  0  0  0  0  0  0  0  0  0  0  # atno 6909 bound_to 6896
  144.7525  139.8392  143.6361 H   0  0  0  0  0  0  0  0  0  0  0  0  # atno 7974 bound_to 7965
  156.0529  140.3306  155.7372 H   0  0  0  0  0  0  0  0  0  0  0  0  # atno 8008 bound_to 7997
  155.5573  140.0616  157.2854 H   0  0  0  0  0  0  0  0  0  0  0  0  # atno 8009 bound_to 7997
  154.4444  140.1883  156.0735 H   0  0  0  0  0  0  0  0  0  0  0  0  # atno 8010 bound_to 7997
  139.8763  144.6465  150.8893 H   0  0  0  0  0  0  0  0  0  0  0  0  # atno 10167 bound_to 10162
  156.6811  130.5037  149.5971 H   0  0  0  0  0  0  0  0  0  0  0  0  # atno 10718 bound_to 10713
  153.3035  135.6957  153.7181 H   0  0  0  0  0  0  0  0  0  0  0  0  # atno 10763 bound_to 10752
  153.6086  135.3449  155.2971 H   0  0  0  0  0  0  0  0  0  0  0  0  # atno 10764 bound_to 10752
  154.8557  135.4358  154.2153 H   0  0  0  0  0  0  0  0  0  0  0  0  # atno 10765 bound_to 10752
  139.9439  134.9632  156.8658 H   0  0  0  0  0  0  0  0  0  0  0  0  # atno 11005 bound_to 11000
  146.1494  139.4573  143.0058 LP  0  0  0  0  0  0  0  0  0  0  0  0  # atno 17320 bound_to 7965
  145.6893  141.0169  143.1564 LP  0  0  0  0  0  0  0  0  0  0  0  0  # atno 17321 bound_to 7965
  140.7752  143.3622  151.1806 LP  0  0  0  0  0  0  0  0  0  0  0  0  # atno 17342 bound_to 10162
  139.7237  143.9182  152.2995 LP  0  0  0  0  0  0  0  0  0  0  0  0  # atno 17343 bound_to 10162
  156.1867  130.6533  151.1014 LP  0  0  0  0  0  0  0  0  0  0  0  0  # atno 17370 bound_to 10713
  157.7043  131.0763  150.6718 LP  0  0  0  0  0  0  0  0  0  0  0  0  # atno 17371 bound_to 10713
  140.5882  134.0287  155.7489 LP  0  0  0  0  0  0  0  0  0  0  0  0  # atno 17394 bound_to 11000
  141.1084  133.9657  157.2956 LP  0  0  0  0  0  0  0  0  0  0  0  0  # atno 17395 bound_to 11000

$$$$
