#       Name:                AV-unprocessed.smi:3333
#       Creating user name   scv26
#       Creation time:       Fri Mar 27 19:21:21 2020


#       File generated by GOLD software.
#

@<TRIPOS>MOLECULE
AV-unprocessed.smi:3333
    44    46     1
SMALL
NO_CHARGES


@<TRIPOS>ATOM
      1 ****        -5.4432   3.6866   0.6095 C.3            1 S1                 0.0000
      2 ****        -5.1009   3.2497   2.0379 C.3            1 S1                 0.0000
      3 ****        -4.0961   2.1471   2.0732 C.2            1 S1                 0.0000
      4 ****        -2.7768   2.3530   2.0468 N.2            1 S1                 0.0000
      5 ****        -2.0439   1.1614   2.0400 C.2            1 S1                 0.0000
      6 ****        -0.5418   1.2049   2.0010 C.3            1 S1                 0.0000
      7 ****        -0.0028   1.0569   0.5723 C.2            1 S1                 0.0000
      8 ****        -0.7173   1.2854  -0.4052 O.2            1 S1                 0.0000
      9 ****         1.2791   0.6748   0.4656 N.am           1 S1                 0.0000
     10 ****         1.9891   0.4713  -0.7926 C.3            1 S1                 0.0000
     11 ****         1.6568  -0.8939  -1.4320 C.3            1 S1                 0.0000
     12 ****         2.4538  -1.2046  -2.7159 C.3            1 S1                 0.0000
     13 ****         2.9968  -2.6211  -2.4478 C.3            1 S1                 0.0000
     14 ****         4.1365  -2.5370  -1.4161 C.3            1 S1                 0.0000
     15 ****         3.3843  -2.2383  -0.1062 C.3            1 S1                 0.0000
     16 ****         1.9143  -2.1515  -0.5662 C.3            1 S1                 0.0000
     17 ****         1.8748  -3.2478  -1.6265 C.3            1 S1                 0.0000
     18 ****        -2.8364   0.0401   2.0704 C.2            1 S1                 0.0000
     19 ****        -4.5316   0.4419   2.0817 S.3            1 S1                 0.0000
     20 ****        -6.1818   4.4883   0.6146 H              1 S1                 0.0000
     21 ****        -5.8538   2.8577   0.0321 H              1 S1                 0.0000
     22 ****        -4.5578   4.0522   0.0882 H              1 S1                 0.0000
     23 ****        -4.7150   4.0981   2.6044 H              1 S1                 0.0000
     24 ****        -6.0039   2.9167   2.5504 H              1 S1                 0.0000
     25 ****        -0.1725   2.1448   2.4128 H              1 S1                 0.0000
     26 ****        -0.1278   0.4110   2.6243 H              1 S1                 0.0000
     27 ****         1.7998   0.5124   1.3154 H              1 S1                 0.0000
     28 ****         1.7444   1.2756  -1.4881 H              1 S1                 0.0000
     29 ****         3.0581   0.5633  -0.6029 H              1 S1                 0.0000
     30 ****         0.5971  -0.8871  -1.6938 H              1 S1                 0.0000
     31 ****         1.7948  -1.1963  -3.5852 H              1 S1                 0.0000
     32 ****         3.2563  -0.4899  -2.9033 H              1 S1                 0.0000
     33 ****         3.2669  -3.1646  -3.3534 H              1 S1                 0.0000
     34 ****         4.6690  -3.4862  -1.3442 H              1 S1                 0.0000
     35 ****         4.8638  -1.7632  -1.6649 H              1 S1                 0.0000
     36 ****         3.5127  -3.0624   0.5968 H              1 S1                 0.0000
     37 ****         3.7382  -1.3352   0.3891 H              1 S1                 0.0000
     38 ****         1.1951  -2.2788   0.2434 H              1 S1                 0.0000
     39 ****         0.9252  -3.3023  -2.1618 H              1 S1                 0.0000
     40 ****         2.1231  -4.2373  -1.2380 H              1 S1                 0.0000
     41 ****        -2.5266  -0.9944   2.0725 H              1 S1                 0.0000
     42 ****        -2.3580   3.2610   2.0334 LP             1 S1                 0.0000
     43 ****        -1.6662   1.5727  -0.2747 LP             1 S1                 0.0000
     44 ****        -0.3483   1.1834  -1.3290 LP             1 S1                 0.0000
@<TRIPOS>BOND
    1    1    2 1     
    2    1   20 1     
    3    1   21 1     
    4    1   22 1     
    5    2    3 1     
    6    2   23 1     
    7    2   24 1     
    8    3   19 1     
    9    3    4 2     
   10    4    5 1     
   11    5    6 1     
   12    5   18 2     
   13    6    7 1     
   14    6   25 1     
   15    6   26 1     
   16    7    8 2     
   17    7    9 am    
   18    9   10 1     
   19    9   27 1     
   20   10   11 1     
   21   10   28 1     
   22   10   29 1     
   23   11   16 1     
   24   11   12 1     
   25   11   30 1     
   26   12   13 1     
   27   12   31 1     
   28   12   32 1     
   29   13   17 1     
   30   13   14 1     
   31   13   33 1     
   32   14   15 1     
   33   14   34 1     
   34   14   35 1     
   35   15   16 1     
   36   15   36 1     
   37   15   37 1     
   38   16   17 1     
   39   16   38 1     
   40   17   39 1     
   41   17   40 1     
   42   18   19 1     
   43   18   41 1     
   44    4   42 1     
   45    8   43 1     
   46    8   44 1     
@<TRIPOS>SUBSTRUCTURE
      1 S1             1
@<TRIPOS>SET
LONE_PAIRS      STATIC     ATOMS    <user>   **** ""
3 42 43 44
DONOR_HYDROGENS      STATIC     ATOMS    <user>   **** ""
1 27
ATOM$BLUE        STATIC     ATOMS    COLORGROUP SYSTEM
3 42 43 44
ATOM$RED        STATIC     ATOMS    COLORGROUP SYSTEM
1 27
