#       Name:                AV-unprocessed.smi:438
#       Creating user name   scv26
#       Creation time:       Thu Mar 26 22:54:27 2020


#       File generated by GOLD software.
#

@<TRIPOS>MOLECULE
AV-unprocessed.smi:438
    55    56     1
SMALL
NO_CHARGES


@<TRIPOS>ATOM
      1 ****        -2.3856   0.9846  -3.6700 C.3            1 S1                 0.0000
      2 ****        -1.5706   0.0391  -2.8058 C.2            1 S1                 0.0000
      3 ****        -0.2264  -0.0163  -3.1265 N.pl3          1 S1                 0.0000
      4 ****         0.6159  -0.8031  -2.3567 C.2            1 S1                 0.0000
      5 ****         2.3327  -0.6163  -2.9308 S.3            1 S1                 0.0000
      6 ****         3.2896  -1.3964  -1.5949 C.3            1 S1                 0.0000
      7 ****         3.5084  -0.4501  -0.4150 C.2            1 S1                 0.0000
      8 ****         4.5154   0.2558  -0.3713 O.2            1 S1                 0.0000
      9 ****         2.5457  -0.4253   0.5191 N.am           1 S1                 0.0000
     10 ****         2.4926   0.4781   1.6678 C.3            1 S1                 0.0000
     11 ****         1.9490   1.8619   1.2474 C.3            1 S1                 0.0000
     12 ****         0.4542   1.8138   0.8864 C.3            1 S1                 0.0000
     13 ****        -0.3729   1.2291   2.0401 C.3            1 S1                 0.0000
     14 ****         0.1461  -0.1565   2.4556 C.3            1 S1                 0.0000
     15 ****         1.6457  -0.1241   2.8168 C.3            1 S1                 0.0000
     16 ****         2.1459  -1.5086   3.2637 C.3            1 S1                 0.0000
     17 ****         0.2040  -1.5444  -1.3707 N.2            1 S1                 0.0000
     18 ****        -1.1562  -1.5699  -1.0298 C.2            1 S1                 0.0000
     19 ****        -1.5584  -2.2955  -0.1215 O.2            1 S1                 0.0000
     20 ****        -2.0760  -0.6932  -1.7841 C.2            1 S1                 0.0000
     21 ****        -3.5474  -0.6659  -1.3811 C.3            1 S1                 0.0000
     22 ****        -3.7916   0.2196  -0.1504 C.3            1 S1                 0.0000
     23 ****        -5.1668   0.2346   0.1634 O.3            1 S1                 0.0000
     24 ****        -2.8939   1.7230  -3.0492 H              1 S1                 0.0000
     25 ****        -3.1362   0.4314  -4.2351 H              1 S1                 0.0000
     26 ****        -1.7580   1.5207  -4.3831 H              1 S1                 0.0000
     27 ****         4.2636  -1.6759  -1.9976 H              1 S1                 0.0000
     28 ****         2.8148  -2.3224  -1.2686 H              1 S1                 0.0000
     29 ****         1.7563  -1.0430   0.3948 H              1 S1                 0.0000
     30 ****         3.5098   0.6107   2.0407 H              1 S1                 0.0000
     31 ****         2.0932   2.5651   2.0686 H              1 S1                 0.0000
     32 ****         2.5214   2.2598   0.4087 H              1 S1                 0.0000
     33 ****         0.0981   2.8157   0.6461 H              1 S1                 0.0000
     34 ****         0.3075   1.2141  -0.0121 H              1 S1                 0.0000
     35 ****        -0.3332   1.9044   2.8956 H              1 S1                 0.0000
     36 ****        -1.4207   1.1620   1.7484 H              1 S1                 0.0000
     37 ****        -0.4336  -0.5210   3.3042 H              1 S1                 0.0000
     38 ****        -0.0211  -0.8658   1.6461 H              1 S1                 0.0000
     39 ****         1.7548   0.5408   3.6750 H              1 S1                 0.0000
     40 ****         2.0190  -2.2566   2.4806 H              1 S1                 0.0000
     41 ****         1.5985  -1.8563   4.1400 H              1 S1                 0.0000
     42 ****         3.2031  -1.4780   3.5275 H              1 S1                 0.0000
     43 ****         0.1044   0.5562  -3.8900 H              1 S1                 0.0000
     44 ****        -3.8896  -1.6837  -1.1871 H              1 S1                 0.0000
     45 ****        -4.1590  -0.3107  -2.2102 H              1 S1                 0.0000
     46 ****        -3.2392  -0.1536   0.7122 H              1 S1                 0.0000
     47 ****        -3.4567   1.2407  -0.3365 H              1 S1                 0.0000
     48 ****        -5.2951   0.7726   0.9298 H              1 S1                 0.0000
     49 ****         5.1903   0.2101  -1.1078 LP             1 S1                 0.0000
     50 ****         4.6588   0.8751   0.4007 LP             1 S1                 0.0000
     51 ****         0.8583  -2.0972  -0.8547 LP             1 S1                 0.0000
     52 ****        -0.9140  -2.8729   0.3798 LP             1 S1                 0.0000
     53 ****        -2.5299  -2.3080   0.1155 LP             1 S1                 0.0000
     54 ****        -5.4802  -0.6967   0.3491 LP             1 S1                 0.0000
     55 ****        -5.6836   0.6132  -0.6045 LP             1 S1                 0.0000
@<TRIPOS>BOND
    1    1   24 1     
    2    1   25 1     
    3    1   26 1     
    4    1    2 1     
    5    2   20 2     
    6    2    3 1     
    7    3    4 1     
    8    3   43 1     
    9    4    5 1     
   10    4   17 2     
   11    5    6 1     
   12    6    7 1     
   13    6   27 1     
   14    6   28 1     
   15    7    8 2     
   16    7    9 am    
   17    9   10 1     
   18    9   29 1     
   19   10   15 1     
   20   10   11 1     
   21   10   30 1     
   22   11   12 1     
   23   11   31 1     
   24   11   32 1     
   25   12   13 1     
   26   12   33 1     
   27   12   34 1     
   28   13   14 1     
   29   13   35 1     
   30   13   36 1     
   31   14   15 1     
   32   14   37 1     
   33   14   38 1     
   34   15   16 1     
   35   15   39 1     
   36   16   40 1     
   37   16   41 1     
   38   16   42 1     
   39   17   18 1     
   40   18   19 2     
   41   18   20 1     
   42   20   21 1     
   43   21   22 1     
   44   21   44 1     
   45   21   45 1     
   46   22   23 1     
   47   22   46 1     
   48   22   47 1     
   49   23   48 1     
   50    8   49 1     
   51    8   50 1     
   52   17   51 1     
   53   19   52 1     
   54   19   53 1     
   55   23   54 1     
   56   23   55 1     
@<TRIPOS>SUBSTRUCTURE
      1 S1             1
@<TRIPOS>SET
LONE_PAIRS      STATIC     ATOMS    <user>   **** ""
7 49 50 51 52 53 54 55
DONOR_HYDROGENS      STATIC     ATOMS    <user>   **** ""
3 43 29 48
ATOM$BLUE        STATIC     ATOMS    COLORGROUP SYSTEM
7 49 50 51 52 53 54 55
ATOM$RED        STATIC     ATOMS    COLORGROUP SYSTEM
3 43 29 48
