AV-unprocessed.smi:275|AV-procd|sdf|2063|dock6
  -GOLD-   2262021313D 1   1.00000     0.00000
 Structure written by MMmdl.
 65 69  0  0  0  0  0  0  0  0  1 V2000
  148.3360  136.0202  160.4249 C   0  0  0  0  0  0  0  0  0  0  0  0
  147.1716  135.5937  161.3309 C   0  0  0  0  0  0  0  0  0  0  0  0
  147.7157  135.1659  162.7123 C   0  0  0  0  0  0  0  0  0  0  0  0
  146.2435  134.5786  160.6128 C   0  0  1  0  0  0  0  0  0  0  0  0
  147.0038  133.4445  160.0828 N   0  0  0  0  0  0  0  0  0  0  0  0
  146.7794  133.0869  158.7125 C   0  0  0  0  0  0  0  0  0  0  0  0
  145.5150  132.7691  158.3212 N   0  0  0  0  0  0  0  0  0  0  0  0
  145.2370  132.4150  157.0642 C   0  0  0  0  0  0  0  0  0  0  0  0
  146.0690  132.2950  156.0317 N   0  0  0  0  0  0  0  0  0  0  0  0
  147.3478  132.5778  156.4045 C   0  0  0  0  0  0  0  0  0  0  0  0
  147.7857  132.9694  157.7043 C   0  0  0  0  0  0  0  0  0  0  0  0
  149.1643  133.1525  157.6866 N   0  0  0  0  0  0  0  0  0  0  0  0
  149.5154  132.9041  156.4557 C   0  0  0  0  0  0  0  0  0  0  0  0
  148.4847  132.5566  155.6160 N   0  0  0  0  0  0  0  0  0  0  0  0
  148.5931  132.2281  154.2049 C   0  0  0  0  0  0  0  0  0  0  0  0
  147.2469  131.7939  153.5719 C   0  0  2  0  0  0  0  0  0  0  0  0
  147.1195  130.2492  153.5379 C   0  0  0  0  0  0  0  0  0  0  0  0
  148.2659  129.6405  152.9820 O   0  0  0  0  0  0  0  0  0  0  0  0
  147.0892  132.4340  152.1653 C   0  0  2  0  0  0  0  0  0  0  0  0
  146.8369  133.9397  152.1806 C   0  0  0  0  0  0  0  0  0  0  0  0
  145.9824  134.2071  150.9381 C   0  0  0  0  0  0  0  0  0  0  0  0
  145.7719  132.9395  150.3327 O   0  0  0  0  0  0  0  0  0  0  0  0
  145.8997  131.9473  151.3358 C   0  0  0  0  0  0  0  0  0  0  0  0
  146.4638  132.5317  161.0887 C   0  0  0  0  0  0  0  0  0  0  0  0
  145.3491  133.5515  161.3583 C   0  0  0  0  0  0  0  0  0  0  0  0
  144.0074  133.2175  160.6695 C   0  0  0  0  0  0  0  0  0  0  0  0
  142.9582  134.3332  160.8083 C   0  0  0  0  0  0  0  0  0  0  0  0
  142.6736  134.6394  162.2828 C   0  0  0  0  0  0  0  0  0  0  0  0
  143.9722  134.9345  163.0416 C   0  0  0  0  0  0  0  0  0  0  0  0
  145.0066  133.8120  162.8399 C   0  0  0  0  0  0  0  0  0  0  0  0
  149.0021  135.1824  160.2166 H   0  0  0  0  0  0  0  0  0  0  0  0
  148.9296  136.8076  160.8899 H   0  0  0  0  0  0  0  0  0  0  0  0
  147.9735  136.4057  159.4716 H   0  0  0  0  0  0  0  0  0  0  0  0
  146.5928  136.5004  161.5014 H   0  0  0  0  0  0  0  0  0  0  0  0
  148.3839  134.3080  162.6335 H   0  0  0  0  0  0  0  0  0  0  0  0
  146.9278  134.9070  163.4156 H   0  0  0  0  0  0  0  0  0  0  0  0
  148.2878  135.9757  163.1658 H   0  0  0  0  0  0  0  0  0  0  0  0
  145.6313  135.0722  159.8601 H   0  0  0  0  0  0  0  0  0  0  0  0
  144.1999  132.1945  156.8587 H   0  0  0  0  0  0  0  0  0  0  0  0
  150.5416  132.9693  156.1243 H   0  0  0  0  0  0  0  0  0  0  0  0
  148.9935  133.1089  153.7034 H   0  0  0  0  0  0  0  0  0  0  0  0
  149.3384  131.4415  154.0815 H   0  0  0  0  0  0  0  0  0  0  0  0
  146.4514  132.1798  154.2120 H   0  0  0  0  0  0  0  0  0  0  0  0
  146.9390  129.8519  154.5371 H   0  0  0  0  0  0  0  0  0  0  0  0
  146.2829  129.9290  152.9193 H   0  0  0  0  0  0  0  0  0  0  0  0
  148.2492  129.7679  152.0457 H   0  0  0  0  0  0  0  0  0  0  0  0
  147.9946  132.2479  151.5855 H   0  0  0  0  0  0  0  0  0  0  0  0
  146.2845  134.2358  153.0734 H   0  0  0  0  0  0  0  0  0  0  0  0
  147.7688  134.5057  152.1643 H   0  0  0  0  0  0  0  0  0  0  0  0
  145.0228  134.6448  151.2165 H   0  0  0  0  0  0  0  0  0  0  0  0
  146.4734  134.8827  150.2373 H   0  0  0  0  0  0  0  0  0  0  0  0
  146.0660  130.9670  150.8886 H   0  0  0  0  0  0  0  0  0  0  0  0
  144.9862  131.9089  151.9318 H   0  0  0  0  0  0  0  0  0  0  0  0
  146.0992  131.5648  160.7420 H   0  0  0  0  0  0  0  0  0  0  0  0
  147.1482  132.4083  161.9279 H   0  0  0  0  0  0  0  0  0  0  0  0
  144.1584  133.0184  159.6085 H   0  0  0  0  0  0  0  0  0  0  0  0
  143.6003  132.2920  161.0791 H   0  0  0  0  0  0  0  0  0  0  0  0
  143.3090  135.2355  160.3063 H   0  0  0  0  0  0  0  0  0  0  0  0
  142.0357  134.0405  160.3064 H   0  0  0  0  0  0  0  0  0  0  0  0
  141.9877  135.4827  162.3675 H   0  0  0  0  0  0  0  0  0  0  0  0
  142.1727  133.7853  162.7399 H   0  0  0  0  0  0  0  0  0  0  0  0
  144.3808  135.8853  162.7006 H   0  0  0  0  0  0  0  0  0  0  0  0
  143.7588  135.0563  164.1039 H   0  0  0  0  0  0  0  0  0  0  0  0
  144.6228  132.8967  163.2925 H   0  0  0  0  0  0  0  0  0  0  0  0
  145.8973  134.0548  163.4143 H   0  0  0  0  0  0  0  0  0  0  0  0
  1  2  1  0  0  0  0
  1 31  1  0  0  0  0
  1 32  1  0  0  0  0
  1 33  1  0  0  0  0
  2  3  1  0  0  0  0
  2  4  1  0  0  0  0
  2 34  1  0  0  0  0
  3 35  1  0  0  0  0
  3 36  1  0  0  0  0
  3 37  1  0  0  0  0
  4 25  1  0  0  0  0
  4  5  1  0  0  0  0
  4 38  1  0  0  0  0
  5  6  1  0  0  0  0
  5 24  1  0  0  0  0
  6 11  1  0  0  0  0
  6  7  2  0  0  0  0
  7  8  1  0  0  0  0
  8  9  2  0  0  0  0
  8 39  1  0  0  0  0
  9 10  1  0  0  0  0
 10 14  1  0  0  0  0
 10 11  2  0  0  0  0
 11 12  1  0  0  0  0
 12 13  2  0  0  0  0
 13 14  1  0  0  0  0
 13 40  1  0  0  0  0
 14 15  1  0  0  0  0
 15 16  1  0  0  0  0
 15 41  1  0  0  0  0
 15 42  1  0  0  0  0
 16 17  1  0  0  0  0
 16 19  1  0  0  0  0
 16 43  1  0  0  0  0
 17 18  1  0  0  0  0
 17 44  1  0  0  0  0
 17 45  1  0  0  0  0
 18 46  1  0  0  0  0
 19 23  1  0  0  0  0
 19 20  1  0  0  0  0
 19 47  1  0  0  0  0
 20 21  1  0  0  0  0
 20 48  1  0  0  0  0
 20 49  1  0  0  0  0
 21 22  1  0  0  0  0
 21 50  1  0  0  0  0
 21 51  1  0  0  0  0
 22 23  1  0  0  0  0
 23 52  1  0  0  0  0
 23 53  1  0  0  0  0
 24 25  1  0  0  0  0
 24 54  1  0  0  0  0
 24 55  1  0  0  0  0
 25 30  1  0  0  0  0
 25 26  1  0  0  0  0
 26 27  1  0  0  0  0
 26 56  1  0  0  0  0
 26 57  1  0  0  0  0
 27 28  1  0  0  0  0
 27 58  1  0  0  0  0
 27 59  1  0  0  0  0
 28 29  1  0  0  0  0
 28 60  1  0  0  0  0
 28 61  1  0  0  0  0
 29 30  1  0  0  0  0
 29 62  1  0  0  0  0
 29 63  1  0  0  0  0
 30 64  1  0  0  0  0
 30 65  1  0  0  0  0
M  END
> <s_m_source_file>
AV-unprocessed.smi

> <i_m_source_file_index>
275

> <i_lp_mmshare_version>
43012

> <i_f3d_flags>
0

> <s_epik_input>
W0NIMl0xW0NIMl1bQ0gyXVtDSDJdW0NIMl1DMTJbQ0BIXShbQ0hdKFtDSDNdKVtDSDNdKU4oW0NIMl0yKWMobltjSF1uMyljKGMzNCluW2NIXW40W0NIMl1bQ0BIXShbQ0gyXVtPSF0pW0NAQEhdNVtDSDJdW0NIMl1PW0NIMl01

> <s_epik_cmdline>
J2VwaWtfcHl0aG9uJywgJy1waCcsICc3LjAnLCAnLXRuJywgJzgnLCAnLW1hJywgJzIwMCcsICctbWV0YWxfYmluZGluZycsICctaW1hZScsICc8aW5maWxlLm1hZT4nLCAnLW9tYWUnLCAnPG91dGZpbGUubWFlPic=

> <r_lp_tautomer_probability>
1

> <r_epik_Ionization_Penalty>
0.00375122

> <r_epik_Ionization_Penalty_Charging>
0

> <r_epik_Ionization_Penalty_Neutral>
0.00375122

> <r_epik_State_Penalty>
0.00260593

> <r_epik_Charging_Adjusted_Penalty>
0.00260593

> <i_epik_Tot_Q>
0

> <i_epik_Tot_abs_Q>
0

> <r_epik_Metal_State_Penalty>
-0

> <b_epik_Metal_Only>
0

> <s_lp_Force_Field>
OPLS_2005

> <r_lp_Energy>
70.0888

> <b_lp_Chiralities_Consistent>
1

> <s_lp_Variant>
AV-unprocessed.smi:275-2

> <Gold.Version>
5.8.1

> <Gold.Id.Protein>
6NUR|6NUR_protein|mol2

> <Gold.PLP.Fitness>
41.0600

> <Gold.PLP.PLP>
-37.0338

> <Gold.PLP.part.hbond>
-1.0000

> <Gold.PLP.part.metal>
0.0000

> <Gold.PLP.part.buried>
-3.9829

> <Gold.PLP.part.nonpolar>
-32.1394

> <Gold.PLP.part.repulsive>
0.2983

> <Gold.PLP.ligand.clash>
0.0000

> <Gold.PLP.ligand.torsion>
1.2573

> <Gold.PLP.Chemscore.Hbond>
1.0000

> <Gold.PLP.Chemscore.CHOScore>
1.0000

> <Gold.PLP.Chemscore.Metal>
0.0000

> <Gold.Chemscore.Hbonds>
donor molecule, donor type, donor heavy atom, donor atom, acceptor molecule, acceptor atom, score
      L1  H    18    46       P1 10747  0.63
      L1  C     8    39       P1 10957  0.92

> <Gold.PLP.Chemscore.Internal.Correction>
0.5409

> <Gold.Rescore>
     Score         DG    S(hbond)    S(metal)    S(lipo)     H(rot)  DE(clash)    DE(int)     intcor
     11.22     -15.00       1.00        0.00     108.18       2.54       0.04       3.73       ----

> <Gold.Chemscore.Fitness>
11.2249

> <Gold.Chemscore.DG>
-14.9962

> <Gold.Chemscore.ZeroCoef>
-5.4800

> <Gold.Chemscore.Hbond>
1.0045

> <Gold.Chemscore.Metal>
0.0000

> <Gold.Chemscore.Lipo>
108.1848

> <Gold.Chemscore.Internal_Hbond>
0.0000

> <Gold.Chemscore.DEClash>
0.0430

> <Gold.Chemscore.DEInternal>
3.7283

> <Gold.Chemscore.Rot>
2.5377

> <Gold.Chemscore.Internal.Correction>
   9.000000E+99

> <Gold.Chemscore.Hbonds>
donor molecule, donor type, donor heavy atom, donor atom, acceptor molecule, acceptor atom, score
      L1  H    18    46       P1 10747  0.39
      P1  H  6896  6907       L1    12  0.01

> <Gold.Chemscore.Hbond.Weighted>
-3.3551

> <Gold.Chemscore.Metal.Weighted>
-0.0000

> <Gold.Chemscore.Lipo.Weighted>
-12.6576

> <Gold.Chemscore.Internal_Hbond.Weighted>
0.0000

> <Gold.Chemscore.DEClash.Weighted>
0.0430

> <Gold.Chemscore.DEInternal.Weighted>
3.7283

> <Gold.Chemscore.Rot.Weighted>
6.4966

> <Gold.Chemscore.Internal.Correction.Weighted>
   9.000000E+99

> <Gold.Protein.RotatedTorsions>
[ 6907 6896 6895 6894 ] final -147.79 input  -60.11 | X-H torsion
[ 7974 7965 7964 7962 ] final  -75.83 input  175.53 | X-H torsion
[ 8008 7997 7996 7995 ] final -162.61 input   59.86 | X-H torsion
[ 10167 10162 10161 10158 ] final  124.58 input  -65.29 | X-H torsion
[ 10718 10713 10712 10709 ] final -149.60 input   66.30 | X-H torsion
[ 10763 10752 10751 10750 ] final  133.56 input  -60.55 | X-H torsion
[ 11005 11000 10999 10996 ] final   61.90 input  -57.11 | X-H torsion

> <Gold.Protein.ActiveResidues>
 VAL166  LYS551  ARG553  GLY616  TRP617  ASP618  TYR619  PRO620  LYS621  CYS622 
 ASP623  PHE694  ASN695  SER759  ASP760  ASP761  ALA762  ILE779  LEU786  VAL792 
 PHE793  MET794  SER795  GLU796  ALA797  LYS798  CYS799  TRP800  GLU811  SER814 

> <Gold.Protein.RotatedAtoms>
  151.1606  133.4847  159.2594 H   0  0  0  0  0  0  0  0  0  0  0  0  # atno 6907 bound_to 6896
  151.1458  135.0202  159.8656 H   0  0  0  0  0  0  0  0  0  0  0  0  # atno 6908 bound_to 6896
  152.5463  134.1495  159.8566 H   0  0  0  0  0  0  0  0  0  0  0  0  # atno 6909 bound_to 6896
  145.6209  140.9363  143.1139 H   0  0  0  0  0  0  0  0  0  0  0  0  # atno 7974 bound_to 7965
  155.8092  140.0903  157.1913 H   0  0  0  0  0  0  0  0  0  0  0  0  # atno 8008 bound_to 7997
  154.3980  140.1457  156.3426 H   0  0  0  0  0  0  0  0  0  0  0  0  # atno 8009 bound_to 7997
  155.8382  140.3440  155.5618 H   0  0  0  0  0  0  0  0  0  0  0  0  # atno 8010 bound_to 7997
  139.5733  144.6950  151.3719 H   0  0  0  0  0  0  0  0  0  0  0  0  # atno 10167 bound_to 10162
  156.4353  130.8095  151.2323 H   0  0  0  0  0  0  0  0  0  0  0  0  # atno 10718 bound_to 10713
  153.8091  135.3131  155.3399 H   0  0  0  0  0  0  0  0  0  0  0  0  # atno 10763 bound_to 10752
  154.8059  135.4698  154.0393 H   0  0  0  0  0  0  0  0  0  0  0  0  # atno 10764 bound_to 10752
  153.1765  135.6886  153.8624 H   0  0  0  0  0  0  0  0  0  0  0  0  # atno 10765 bound_to 10752
  140.0129  134.6269  155.9753 H   0  0  0  0  0  0  0  0  0  0  0  0  # atno 11005 bound_to 11000
  144.7231  139.7963  143.7374 LP  0  0  0  0  0  0  0  0  0  0  0  0  # atno 17320 bound_to 7965
  146.1432  139.4494  143.0096 LP  0  0  0  0  0  0  0  0  0  0  0  0  # atno 17321 bound_to 7965
  140.7017  143.7615  150.7414 LP  0  0  0  0  0  0  0  0  0  0  0  0  # atno 17342 bound_to 10162
  140.1127  143.4684  152.2360 LP  0  0  0  0  0  0  0  0  0  0  0  0  # atno 17343 bound_to 10162
  157.7507  131.0185  150.3630 LP  0  0  0  0  0  0  0  0  0  0  0  0  # atno 17370 bound_to 10713
  156.3976  130.3909  149.6983 LP  0  0  0  0  0  0  0  0  0  0  0  0  # atno 17371 bound_to 10713
  141.1723  133.6538  156.4698 LP  0  0  0  0  0  0  0  0  0  0  0  0  # atno 17394 bound_to 11000
  140.4522  134.6918  157.5045 LP  0  0  0  0  0  0  0  0  0  0  0  0  # atno 17395 bound_to 11000

$$$$
