AV-unprocessed.smi:2986|AV-procd|sdf|11383|dock5
  -GOLD-   2272016303D 1   1.00000     0.00000
 Structure written by MMmdl.
 41 43  0  0  0  0  0  0  0  0  2 V2000
  148.3922  139.2966  154.1140 C   0  0  0  0  0  0  0  0  0  0  0  0
  149.7052  139.7286  154.4228 O   0  0  0  0  0  0  0  0  0  0  0  0
  149.8437  140.1231  155.7785 C   0  0  0  0  0  0  0  0  0  0  0  0
  151.1895  140.8332  155.9775 C   0  0  0  0  0  0  0  0  0  0  0  0
  151.4493  141.1266  157.3791 N   0  0  0  0  0  0  0  0  0  0  0  0
  151.5525  140.2552  158.4132 C   0  0  0  0  0  0  0  0  0  0  0  0
  151.3309  138.5141  158.2211 S   0  0  0  0  0  0  0  0  0  0  0  0
  149.5381  138.4009  158.5378 C   0  0  0  0  0  0  0  0  0  0  0  0
  149.1021  137.0764  159.1736 C   0  0  0  0  0  0  0  0  0  0  0  0
  149.5209  136.0182  158.7027 O   0  0  0  0  0  0  0  0  0  0  0  0
  148.2869  137.2732  160.2387 N   0  5  0  0  0  0  0  0  0  0  0  0
  147.5833  136.2474  160.7382 C   0  0  0  0  0  0  0  0  0  0  0  0
  146.5222  136.3371  161.6797 C   0  0  0  0  0  0  0  0  0  0  0  0
  146.1595  135.0333  161.8653 C   0  0  0  0  0  0  0  0  0  0  0  0
  145.1177  134.3818  162.7081 C   0  0  0  0  0  0  0  0  0  0  0  0
  146.9401  134.2139  161.1107 O   0  0  0  0  0  0  0  0  0  0  0  0
  147.8528  134.9988  160.3961 N   0  0  0  0  0  0  0  0  0  0  0  0
  151.8419  140.7948  159.5974 N   0  0  0  0  0  0  0  0  0  0  0  0
  151.8915  142.1445  159.3137 C   0  0  0  0  0  0  0  0  0  0  0  0
  152.1372  143.2510  160.1578 C   0  0  0  0  0  0  0  0  0  0  0  0
  152.1453  144.5602  159.6338 C   0  0  0  0  0  0  0  0  0  0  0  0
  151.9121  144.7808  158.2608 C   0  0  0  0  0  0  0  0  0  0  0  0
  151.6665  143.6918  157.4025 C   0  0  0  0  0  0  0  0  0  0  0  0
  151.6538  142.3871  157.9317 C   0  0  0  0  0  0  0  0  0  0  0  0
  148.3391  139.0084  153.0643 H   0  0  0  0  0  0  0  0  0  0  0  0
  147.6654  140.0921  154.2817 H   0  0  0  0  0  0  0  0  0  0  0  0
  148.1098  138.4316  154.7153 H   0  0  0  0  0  0  0  0  0  0  0  0
  149.0288  140.7930  156.0564 H   0  0  0  0  0  0  0  0  0  0  0  0
  149.7833  139.2496  156.4300 H   0  0  0  0  0  0  0  0  0  0  0  0
  151.9995  140.2123  155.5944 H   0  0  0  0  0  0  0  0  0  0  0  0
  151.2179  141.7553  155.4003 H   0  0  0  0  0  0  0  0  0  0  0  0
  149.2230  139.2520  159.1422 H   0  0  0  0  0  0  0  0  0  0  0  0
  149.0226  138.5077  157.5834 H   0  0  0  0  0  0  0  0  0  0  0  0
  146.0944  137.2156  162.1389 H   0  0  0  0  0  0  0  0  0  0  0  0
  145.5268  134.1031  163.6791 H   0  0  0  0  0  0  0  0  0  0  0  0
  144.7361  133.4801  162.2287 H   0  0  0  0  0  0  0  0  0  0  0  0
  144.2774  135.0558  162.8752 H   0  0  0  0  0  0  0  0  0  0  0  0
  152.3159  143.0903  161.2105 H   0  0  0  0  0  0  0  0  0  0  0  0
  152.3316  145.3984  160.2888 H   0  0  0  0  0  0  0  0  0  0  0  0
  151.9212  145.7863  157.8669 H   0  0  0  0  0  0  0  0  0  0  0  0
  151.4886  143.8568  156.3505 H   0  0  0  0  0  0  0  0  0  0  0  0
  1  2  1  0  0  0  0
  1 25  1  0  0  0  0
  1 26  1  0  0  0  0
  1 27  1  0  0  0  0
  2  3  1  0  0  0  0
  3  4  1  0  0  0  0
  3 28  1  0  0  0  0
  3 29  1  0  0  0  0
  4  5  1  0  0  0  0
  4 30  1  0  0  0  0
  4 31  1  0  0  0  0
  5 24  1  0  0  0  0
  5  6  1  0  0  0  0
  6  7  1  0  0  0  0
  6 18  2  0  0  0  0
  7  8  1  0  0  0  0
  8  9  1  0  0  0  0
  8 32  1  0  0  0  0
  8 33  1  0  0  0  0
  9 10  2  0  0  0  0
  9 11  1  0  0  0  0
 11 12  1  0  0  0  0
 12 17  2  0  0  0  0
 12 13  1  0  0  0  0
 13 14  2  0  0  0  0
 13 34  1  0  0  0  0
 14 15  1  0  0  0  0
 14 16  1  0  0  0  0
 15 35  1  0  0  0  0
 15 36  1  0  0  0  0
 15 37  1  0  0  0  0
 16 17  1  0  0  0  0
 18 19  1  0  0  0  0
 19 24  2  0  0  0  0
 19 20  1  0  0  0  0
 20 21  2  0  0  0  0
 20 38  1  0  0  0  0
 21 22  1  0  0  0  0
 21 39  1  0  0  0  0
 22 23  2  0  0  0  0
 22 40  1  0  0  0  0
 23 24  1  0  0  0  0
 23 41  1  0  0  0  0
M  CHG  1  11  -1
M  END
> <s_m_source_file>
AV-unprocessed.smi

> <i_m_source_file_index>
2986

> <i_lp_mmshare_version>
43012

> <i_f3d_flags>
0

> <s_epik_input>
W2NIXTFbY0hdW2NIXVtjSF1jKGMxMiluKFtDSDJdW0NIMl1PW0NIM10pYyhuMilTW0NIMl1DKD1PKVtOSF1jM1tjSF1jKFtDSDNdKW9uMw==

> <s_epik_cmdline>
J2VwaWtfcHl0aG9uJywgJy1waCcsICc3LjAnLCAnLXRuJywgJzgnLCAnLW1hJywgJzIwMCcsICctbWV0YWxfYmluZGluZycsICctaW1hZScsICc8aW5maWxlLm1hZT4nLCAnLW9tYWUnLCAnPG91dGZpbGUubWFlPic=

> <r_epik_Ionization_Penalty>
4.21562

> <r_epik_Ionization_Penalty_Charging>
4.18608

> <r_epik_Ionization_Penalty_Neutral>
0.0295463

> <r_epik_State_Penalty>
4.20602

> <r_epik_Charging_Adjusted_Penalty>
8.3921

> <i_epik_Tot_Q>
-1

> <i_epik_Tot_abs_Q>
1

> <r_epik_Metal_State_Penalty>
0.721027

> <b_epik_Metal_Only>
1

> <s_lp_Force_Field>
OPLS_2005

> <r_lp_Energy>
2.9865

> <b_lp_Chiralities_Consistent>
1

> <s_lp_Variant>
AV-unprocessed.smi:2986-3

> <Gold.Version>
5.8.1

> <Gold.Id.Protein>
6NUR|6NUR_protein|mol2

> <Gold.PLP.Fitness>
54.6073

> <Gold.PLP.PLP>
-47.0488

> <Gold.PLP.part.hbond>
-3.0000

> <Gold.PLP.part.metal>
0.0000

> <Gold.PLP.part.buried>
-7.7148

> <Gold.PLP.part.nonpolar>
-37.4867

> <Gold.PLP.part.repulsive>
0.1220

> <Gold.PLP.ligand.clash>
0.0000

> <Gold.PLP.ligand.torsion>
0.8336

> <Gold.PLP.Chemscore.Hbond>
2.9726

> <Gold.PLP.Chemscore.CHOScore>
0.0000

> <Gold.PLP.Chemscore.Metal>
0.0000

> <Gold.Chemscore.Hbonds>
donor molecule, donor type, donor heavy atom, donor atom, acceptor molecule, acceptor atom, score
      P1  H  6896  6908       L1    10  0.96
      P1  H  6931  6943       L1    11  1.16
      P1  H  6934  6947       L1    11  0.79
      P1  H  7989  7998       L1     2  0.03

> <Gold.PLP.Chemscore.Internal.Correction>
0.3079

> <Gold.Rescore>
     Score         DG    S(hbond)    S(metal)    S(lipo)     H(rot)  DE(clash)    DE(int)     intcor
     19.00     -21.62       2.38        0.00     118.33       2.21       0.05       2.57       ----

> <Gold.Chemscore.Fitness>
18.9984

> <Gold.Chemscore.DG>
-21.6194

> <Gold.Chemscore.ZeroCoef>
-5.4800

> <Gold.Chemscore.Hbond>
2.3789

> <Gold.Chemscore.Metal>
0.0000

> <Gold.Chemscore.Lipo>
118.3308

> <Gold.Chemscore.Internal_Hbond>
0.0000

> <Gold.Chemscore.DEClash>
0.0528

> <Gold.Chemscore.DEInternal>
2.5682

> <Gold.Chemscore.Rot>
2.2073

> <Gold.Chemscore.Internal.Correction>
   9.000000E+99

> <Gold.Chemscore.Hbonds>
donor molecule, donor type, donor heavy atom, donor atom, acceptor molecule, acceptor atom, score
      P1  H  6896  6908       L1    10  0.89
      P1  H  6931  6943       L1    11  0.29
      P1  H  6934  6947       L1    11  0.17
      P1  H  7989  7998       L1     2  0.02

> <Gold.Chemscore.Hbond.Weighted>
-7.9456

> <Gold.Chemscore.Metal.Weighted>
-0.0000

> <Gold.Chemscore.Lipo.Weighted>
-13.8447

> <Gold.Chemscore.Internal_Hbond.Weighted>
0.0000

> <Gold.Chemscore.DEClash.Weighted>
0.0528

> <Gold.Chemscore.DEInternal.Weighted>
2.5682

> <Gold.Chemscore.Rot.Weighted>
5.6508

> <Gold.Chemscore.Internal.Correction.Weighted>
   9.000000E+99

> <Gold.Protein.RotatedTorsions>
[ 6907 6896 6895 6894 ] final  165.52 input  -60.11 | X-H torsion
[ 7974 7965 7964 7962 ] final  -74.54 input  175.53 | X-H torsion
[ 8008 7997 7996 7995 ] final  134.36 input   59.86 | X-H torsion
[ 10167 10162 10161 10158 ] final  171.04 input  -65.29 | X-H torsion
[ 10718 10713 10712 10709 ] final  -51.81 input   66.30 | X-H torsion
[ 10763 10752 10751 10750 ] final -174.78 input  -60.55 | X-H torsion
[ 11005 11000 10999 10996 ] final  -98.74 input  -57.11 | X-H torsion

> <Gold.Protein.ActiveResidues>
 VAL166  LYS551  ARG553  GLY616  TRP617  ASP618  TYR619  PRO620  LYS621  CYS622 
 ASP623  PHE694  ASN695  SER759  ASP760  ASP761  ALA762  ILE779  LEU786  VAL792 
 PHE793  MET794  SER795  GLU796  ALA797  LYS798  CYS799  TRP800  GLU811  SER814 

> <Gold.Protein.RotatedAtoms>
  151.8932  133.3521  159.3805 H   0  0  0  0  0  0  0  0  0  0  0  0  # atno 6907 bound_to 6896
  150.7098  134.4903  159.5521 H   0  0  0  0  0  0  0  0  0  0  0  0  # atno 6908 bound_to 6896
  152.2477  134.8165  160.0502 H   0  0  0  0  0  0  0  0  0  0  0  0  # atno 6909 bound_to 6896
  145.6378  140.9320  143.1052 H   0  0  0  0  0  0  0  0  0  0  0  0  # atno 7974 bound_to 7965
  156.2998  140.2498  156.3404 H   0  0  0  0  0  0  0  0  0  0  0  0  # atno 8008 bound_to 7997
  154.9060  140.0405  157.1939 H   0  0  0  0  0  0  0  0  0  0  0  0  # atno 8009 bound_to 7997
  154.8453  140.2897  155.5637 H   0  0  0  0  0  0  0  0  0  0  0  0  # atno 8010 bound_to 7997
  139.5035  144.3530  151.9903 H   0  0  0  0  0  0  0  0  0  0  0  0  # atno 10167 bound_to 10162
  156.1677  130.4149  149.9695 H   0  0  0  0  0  0  0  0  0  0  0  0  # atno 10718 bound_to 10713
  154.5922  135.2846  155.0623 H   0  0  0  0  0  0  0  0  0  0  0  0  # atno 10763 bound_to 10752
  154.1919  135.6439  153.5066 H   0  0  0  0  0  0  0  0  0  0  0  0  # atno 10764 bound_to 10752
  153.0125  135.5448  154.6612 H   0  0  0  0  0  0  0  0  0  0  0  0  # atno 10765 bound_to 10752
  141.1334  133.8268  157.0880 H   0  0  0  0  0  0  0  0  0  0  0  0  # atno 11005 bound_to 11000
  144.7169  139.8166  143.7395 LP  0  0  0  0  0  0  0  0  0  0  0  0  # atno 17320 bound_to 7965
  146.1305  139.4340  143.0171 LP  0  0  0  0  0  0  0  0  0  0  0  0  # atno 17321 bound_to 7965
  140.2966  144.3694  150.6072 LP  0  0  0  0  0  0  0  0  0  0  0  0  # atno 17342 bound_to 10162
  140.5905  143.2168  151.7261 LP  0  0  0  0  0  0  0  0  0  0  0  0  # atno 17343 bound_to 10162
  156.7504  130.9113  151.3637 LP  0  0  0  0  0  0  0  0  0  0  0  0  # atno 17370 bound_to 10713
  157.6780  130.9113  150.0197 LP  0  0  0  0  0  0  0  0  0  0  0  0  # atno 17371 bound_to 10713
  140.0410  134.9854  157.0962 LP  0  0  0  0  0  0  0  0  0  0  0  0  # atno 17394 bound_to 11000
  140.4135  134.1956  155.7163 LP  0  0  0  0  0  0  0  0  0  0  0  0  # atno 17395 bound_to 11000

$$$$
