AV-unprocessed.smi:1610|AV-procd|sdf|6470|dock1
  -GOLD-   22720 7123D 1   1.00000     0.00000
 Structure written by MMmdl.
 44 45  0  0  0  0  0  0  0  0  1 V2000
  154.7309  132.4567  165.3094 C   0  0  0  0  0  0  0  0  0  0  0  0
  156.0697  133.6465  164.8900 S   0  0  0  0  0  0  0  0  0  0  0  0
  156.9638  133.7824  166.0502 O   0  0  0  0  0  0  0  0  0  0  0  0
  156.6117  133.2859  163.5715 O   0  0  0  0  0  0  0  0  0  0  0  0
  155.2159  135.1340  164.7046 N   0  0  0  0  0  0  0  0  0  0  0  0
  154.6535  135.5279  163.4117 C   0  0  0  0  0  0  0  0  0  0  0  0
  155.7670  135.6102  162.3475 C   0  0  0  0  0  0  0  0  0  0  0  0
  155.2223  136.1871  161.0280 C   0  0  0  0  0  0  0  0  0  0  0  0
  154.6128  137.5019  161.2966 N   0  0  0  0  0  0  0  0  0  0  0  0
  155.1359  138.7116  160.9717 C   0  0  0  0  0  0  0  0  0  0  0  0
  156.3238  138.8794  160.6914 O   0  0  0  0  0  0  0  0  0  0  0  0
  154.2623  139.7323  161.0084 N   0  0  0  0  0  0  0  0  0  0  0  0
  154.5835  141.1239  160.7147 C   0  0  0  0  0  0  0  0  0  0  0  0
  153.4182  142.0597  161.0742 C   0  0  0  0  0  0  0  0  0  0  0  0
  152.7293  142.6119  159.8424 C   0  0  0  0  0  0  0  0  0  0  0  0
  152.7450  143.9943  159.5650 C   0  0  0  0  0  0  0  0  0  0  0  0
  152.0896  144.4615  158.4096 C   0  0  0  0  0  0  0  0  0  0  0  0
  151.4443  143.5235  157.5793 C   0  0  0  0  0  0  0  0  0  0  0  0
  151.4215  142.1977  157.8358 N   0  0  0  0  0  0  0  0  0  0  0  0
  152.0526  141.7579  158.9458 C   0  0  0  0  0  0  0  0  0  0  0  0
  153.4399  137.3759  162.1720 C   0  0  0  0  0  0  0  0  0  0  0  0
  153.8958  136.8630  163.5498 C   0  0  0  0  0  0  0  0  0  0  0  0
  155.1577  131.4609  165.4276 H   0  0  0  0  0  0  0  0  0  0  0  0
  153.9923  132.4405  164.5084 H   0  0  0  0  0  0  0  0  0  0  0  0
  154.2517  132.7547  166.2415 H   0  0  0  0  0  0  0  0  0  0  0  0
  155.5498  135.8959  165.2946 H   0  0  0  0  0  0  0  0  0  0  0  0
  153.9365  134.7692  163.0955 H   0  0  0  0  0  0  0  0  0  0  0  0
  156.5801  136.2429  162.7068 H   0  0  0  0  0  0  0  0  0  0  0  0
  156.1952  134.6224  162.1739 H   0  0  0  0  0  0  0  0  0  0  0  0
  156.0167  136.2098  160.2822 H   0  0  0  0  0  0  0  0  0  0  0  0
  154.4627  135.5198  160.6183 H   0  0  0  0  0  0  0  0  0  0  0  0
  153.3059  139.5275  161.2585 H   0  0  0  0  0  0  0  0  0  0  0  0
  155.4696  141.3950  161.2893 H   0  0  0  0  0  0  0  0  0  0  0  0
  154.8511  141.2310  159.6621 H   0  0  0  0  0  0  0  0  0  0  0  0
  152.6804  141.5320  161.6804 H   0  0  0  0  0  0  0  0  0  0  0  0
  153.7787  142.8900  161.6830 H   0  0  0  0  0  0  0  0  0  0  0  0
  153.2484  144.6852  160.2253 H   0  0  0  0  0  0  0  0  0  0  0  0
  152.0809  145.5135  158.1657 H   0  0  0  0  0  0  0  0  0  0  0  0
  150.9318  143.8473  156.6856 H   0  0  0  0  0  0  0  0  0  0  0  0
  152.0144  140.6934  159.1243 H   0  0  0  0  0  0  0  0  0  0  0  0
  152.8942  138.3136  162.2850 H   0  0  0  0  0  0  0  0  0  0  0  0
  152.7307  136.6758  161.7284 H   0  0  0  0  0  0  0  0  0  0  0  0
  153.0339  136.7391  164.2065 H   0  0  0  0  0  0  0  0  0  0  0  0
  154.5383  137.6107  164.0179 H   0  0  0  0  0  0  0  0  0  0  0  0
  1  2  1  0  0  0  0
  1 23  1  0  0  0  0
  1 24  1  0  0  0  0
  1 25  1  0  0  0  0
  2  3  2  0  0  0  0
  2  4  2  0  0  0  0
  2  5  1  0  0  0  0
  5  6  1  0  0  0  0
  5 26  1  0  0  0  0
  6 22  1  0  0  0  0
  6  7  1  0  0  0  0
  6 27  1  0  0  0  0
  7  8  1  0  0  0  0
  7 28  1  0  0  0  0
  7 29  1  0  0  0  0
  8  9  1  0  0  0  0
  8 30  1  0  0  0  0
  8 31  1  0  0  0  0
  9 10  1  0  0  0  0
  9 21  1  0  0  0  0
 10 11  2  0  0  0  0
 10 12  1  0  0  0  0
 12 13  1  0  0  0  0
 12 32  1  0  0  0  0
 13 14  1  0  0  0  0
 13 33  1  0  0  0  0
 13 34  1  0  0  0  0
 14 15  1  0  0  0  0
 14 35  1  0  0  0  0
 14 36  1  0  0  0  0
 15 20  1  0  0  0  0
 15 16  2  0  0  0  0
 16 17  1  0  0  0  0
 16 37  1  0  0  0  0
 17 18  2  0  0  0  0
 17 38  1  0  0  0  0
 18 19  1  0  0  0  0
 18 39  1  0  0  0  0
 19 20  2  0  0  0  0
 20 40  1  0  0  0  0
 21 22  1  0  0  0  0
 21 41  1  0  0  0  0
 21 42  1  0  0  0  0
 22 43  1  0  0  0  0
 22 44  1  0  0  0  0
M  END
> <s_m_source_file>
AV-unprocessed.smi

> <i_m_source_file_index>
1610

> <i_lp_mmshare_version>
43012

> <i_f3d_flags>
0

> <s_epik_input>
W0NIM11TKD1PKSg9TylbTkhdW0NIXTFbQ0gyXVtDSDJdTihbQ0gyXVtDSDJdMSlDKD1PKVtOSF1bQ0gyXVtDSDJdYzJbY0hdW2NIXVtjSF1uW2NIXTI=

> <s_epik_cmdline>
J2VwaWtfcHl0aG9uJywgJy1waCcsICc3LjAnLCAnLXRuJywgJzgnLCAnLW1hJywgJzIwMCcsICctbWV0YWxfYmluZGluZycsICctaW1hZScsICc8aW5maWxlLm1hZT4nLCAnLW9tYWUnLCAnPG91dGZpbGUubWFlPic=

> <r_epik_Ionization_Penalty>
0.0145188

> <r_epik_Ionization_Penalty_Charging>
0

> <r_epik_Ionization_Penalty_Neutral>
0.0145188

> <r_epik_State_Penalty>
0.0113046

> <r_epik_Charging_Adjusted_Penalty>
0.0113046

> <i_epik_Tot_Q>
0

> <i_epik_Tot_abs_Q>
0

> <r_epik_Metal_State_Penalty>
0.0179141

> <b_epik_Metal_Only>
0

> <s_lp_Force_Field>
OPLS_2005

> <r_lp_Energy>
22.3117

> <b_lp_Chiralities_Consistent>
1

> <s_lp_Variant>
AV-unprocessed.smi:1610-1

> <Gold.Version>
5.8.1

> <Gold.Id.Protein>
6NUR|6NUR_protein|mol2

> <Gold.PLP.Fitness>
44.0316

> <Gold.PLP.PLP>
-42.1513

> <Gold.PLP.part.hbond>
-1.0000

> <Gold.PLP.part.metal>
0.0000

> <Gold.PLP.part.buried>
-4.6873

> <Gold.PLP.part.nonpolar>
-36.5571

> <Gold.PLP.part.repulsive>
0.1799

> <Gold.PLP.ligand.clash>
0.0000

> <Gold.PLP.ligand.torsion>
1.1282

> <Gold.PLP.Chemscore.Hbond>
0.0000

> <Gold.PLP.Chemscore.CHOScore>
1.0000

> <Gold.PLP.Chemscore.Metal>
0.0000

> <Gold.Chemscore.Hbonds>
donor molecule, donor type, donor heavy atom, donor atom, acceptor molecule, acceptor atom, score
      L1  C    18    39       P1  8028  1.00

> <Gold.PLP.Chemscore.Internal.Correction>
1.1366

> <Gold.Rescore>
     Score         DG    S(hbond)    S(metal)    S(lipo)     H(rot)  DE(clash)    DE(int)     intcor
     13.63     -15.60       0.00        0.00     124.27       1.73       0.08       1.88       ----

> <Gold.Chemscore.Fitness>
13.6322

> <Gold.Chemscore.DG>
-15.5970

> <Gold.Chemscore.ZeroCoef>
-5.4800

> <Gold.Chemscore.Hbond>
0.0000

> <Gold.Chemscore.Metal>
0.0000

> <Gold.Chemscore.Lipo>
124.2706

> <Gold.Chemscore.Internal_Hbond>
0.0000

> <Gold.Chemscore.DEClash>
0.0818

> <Gold.Chemscore.DEInternal>
1.8830

> <Gold.Chemscore.Rot>
1.7276

> <Gold.Chemscore.Internal.Correction>
   9.000000E+99

> <Gold.Chemscore.Hbond.Weighted>
-0.0000

> <Gold.Chemscore.Metal.Weighted>
-0.0000

> <Gold.Chemscore.Lipo.Weighted>
-14.5397

> <Gold.Chemscore.Internal_Hbond.Weighted>
0.0000

> <Gold.Chemscore.DEClash.Weighted>
0.0818

> <Gold.Chemscore.DEInternal.Weighted>
1.8830

> <Gold.Chemscore.Rot.Weighted>
4.4226

> <Gold.Chemscore.Internal.Correction.Weighted>
   9.000000E+99

> <Gold.Protein.RotatedTorsions>
[ 6907 6896 6895 6894 ] final   83.65 input  -60.11 | X-H torsion
[ 7974 7965 7964 7962 ] final   87.10 input  175.53 | X-H torsion
[ 8008 7997 7996 7995 ] final  154.81 input   59.86 | X-H torsion
[ 10167 10162 10161 10158 ] final    5.03 input  -65.29 | X-H torsion
[ 10718 10713 10712 10709 ] final   94.76 input   66.30 | X-H torsion
[ 10763 10752 10751 10750 ] final   96.26 input  -60.55 | X-H torsion
[ 11005 11000 10999 10996 ] final -159.10 input  -57.11 | X-H torsion

> <Gold.Protein.ActiveResidues>
 VAL166  LYS551  ARG553  GLY616  TRP617  ASP618  TYR619  PRO620  LYS621  CYS622 
 ASP623  PHE694  ASN695  SER759  ASP760  ASP761  ALA762  ILE779  LEU786  VAL792 
 PHE793  MET794  SER795  GLU796  ALA797  LYS798  CYS799  TRP800  GLU811  SER814 

> <Gold.Protein.RotatedAtoms>
  152.5332  134.2863  159.9025 H   0  0  0  0  0  0  0  0  0  0  0  0  # atno 6907 bound_to 6896
  151.2816  133.4200  159.2635 H   0  0  0  0  0  0  0  0  0  0  0  0  # atno 6908 bound_to 6896
  151.0279  134.9533  159.8152 H   0  0  0  0  0  0  0  0  0  0  0  0  # atno 6909 bound_to 6896
  145.5634  139.2306  143.2447 H   0  0  0  0  0  0  0  0  0  0  0  0  # atno 7974 bound_to 7965
  156.2511  140.1956  156.6704 H   0  0  0  0  0  0  0  0  0  0  0  0  # atno 8008 bound_to 7997
  154.6397  140.0585  156.9856 H   0  0  0  0  0  0  0  0  0  0  0  0  # atno 8009 bound_to 7997
  155.1582  140.3257  155.4419 H   0  0  0  0  0  0  0  0  0  0  0  0  # atno 8010 bound_to 7997
  140.6503  143.7560  150.7565 H   0  0  0  0  0  0  0  0  0  0  0  0  # atno 10167 bound_to 10162
  157.6945  131.0523  150.4235 H   0  0  0  0  0  0  0  0  0  0  0  0  # atno 10718 bound_to 10713
  153.2629  135.4225  155.0911 H   0  0  0  0  0  0  0  0  0  0  0  0  # atno 10763 bound_to 10752
  154.8427  135.3453  154.6353 H   0  0  0  0  0  0  0  0  0  0  0  0  # atno 10764 bound_to 10752
  153.6773  135.7040  153.5186 H   0  0  0  0  0  0  0  0  0  0  0  0  # atno 10765 bound_to 10752
  140.6463  134.4498  157.5234 H   0  0  0  0  0  0  0  0  0  0  0  0  # atno 11005 bound_to 11000
  146.1835  140.6459  142.9178 LP  0  0  0  0  0  0  0  0  0  0  0  0  # atno 17320 bound_to 7965
  144.7472  140.5098  143.6827 LP  0  0  0  0  0  0  0  0  0  0  0  0  # atno 17321 bound_to 7965
  140.1209  143.4612  152.2313 LP  0  0  0  0  0  0  0  0  0  0  0  0  # atno 17342 bound_to 10162
  139.5718  144.7466  151.3871 LP  0  0  0  0  0  0  0  0  0  0  0  0  # atno 17343 bound_to 10162
  156.4608  130.4031  149.6577 LP  0  0  0  0  0  0  0  0  0  0  0  0  # atno 17370 bound_to 10713
  156.3693  130.7522  151.2503 LP  0  0  0  0  0  0  0  0  0  0  0  0  # atno 17371 bound_to 10713
  139.9062  134.8445  156.1699 LP  0  0  0  0  0  0  0  0  0  0  0  0  # atno 17394 bound_to 11000
  141.0569  133.6860  156.1878 LP  0  0  0  0  0  0  0  0  0  0  0  0  # atno 17395 bound_to 11000

$$$$
