AV-unprocessed.smi:2510|AV-procd|sdf|9876|dock9
  -GOLD-   2272013513D 1   1.00000     0.00000
 Structure written by MMmdl.
 48 49  0  0  0  0  0  0  0  0  1 V2000
  151.0408  142.4167  157.5763 C   0  0  0  0  0  0  0  0  0  0  0  0
  150.4396  140.9989  157.5959 C   0  0  0  0  0  0  0  0  0  0  0  0
  151.4334  139.8086  157.4692 C   0  0  0  0  0  0  0  0  0  0  0  0
  152.5001  139.9146  158.5810 C   0  0  0  0  0  0  0  0  0  0  0  0
  153.3880  138.6697  158.7427 C   0  0  0  0  0  0  0  0  0  0  0  0
  150.8441  138.3856  157.2541 C   0  0  1  0  0  0  0  0  0  0  0  0
  149.4989  138.1723  157.7737 N   0  0  0  0  0  0  0  0  0  0  0  0
  149.1938  137.3238  158.7669 C   0  0  0  0  0  0  0  0  0  0  0  0
  150.0345  136.6677  159.3811 O   0  0  0  0  0  0  0  0  0  0  0  0
  147.7125  137.1984  159.1236 C   0  0  0  0  0  0  0  0  0  0  0  0
  147.5536  136.4178  160.4013 C   0  0  0  0  0  0  0  0  0  0  0  0
  147.5666  135.0014  160.5754 C   0  0  0  0  0  0  0  0  0  0  0  0
  147.3870  134.8232  161.9182 C   0  0  0  0  0  0  0  0  0  0  0  0
  147.3106  133.5880  162.7497 C   0  0  0  0  0  0  0  0  0  0  0  0
  147.2747  136.0822  162.4608 N   0  0  0  0  0  0  0  0  0  0  0  0
  147.3718  137.0634  161.5453 N   0  0  0  0  0  0  0  0  0  0  0  0
  150.8510  138.6268  155.7416 C   0  0  2  0  0  0  0  0  0  0  0  0
  151.0540  137.4525  154.7923 C   0  0  0  0  0  0  0  0  0  0  0  0
  151.9858  139.6283  156.0254 C   0  0  2  0  0  0  0  0  0  0  0  0
  153.2703  139.0128  156.0143 O   0  0  0  0  0  0  0  0  0  0  0  0
  153.7768  138.8038  154.7074 C   0  0  0  0  0  0  0  0  0  0  0  0
  147.1338  136.2841  163.4405 H   0  0  0  0  0  0  0  0  0  0  0  0
  150.2682  143.1563  157.7865 H   0  0  0  0  0  0  0  0  0  0  0  0
  151.4598  142.6681  156.6025 H   0  0  0  0  0  0  0  0  0  0  0  0
  151.8228  142.5461  158.3214 H   0  0  0  0  0  0  0  0  0  0  0  0
  149.8643  140.9081  158.5168 H   0  0  0  0  0  0  0  0  0  0  0  0
  149.6909  140.9378  156.8060 H   0  0  0  0  0  0  0  0  0  0  0  0
  153.1263  140.7943  158.4360 H   0  0  0  0  0  0  0  0  0  0  0  0
  152.0135  140.0972  159.5395 H   0  0  0  0  0  0  0  0  0  0  0  0
  154.0647  138.7893  159.5887 H   0  0  0  0  0  0  0  0  0  0  0  0
  154.0022  138.4907  157.8609 H   0  0  0  0  0  0  0  0  0  0  0  0
  152.7915  137.7754  158.9239 H   0  0  0  0  0  0  0  0  0  0  0  0
  151.5496  137.5964  157.5260 H   0  0  0  0  0  0  0  0  0  0  0  0
  148.7475  138.6782  157.3278 H   0  0  0  0  0  0  0  0  0  0  0  0
  147.2803  138.1958  159.2169 H   0  0  0  0  0  0  0  0  0  0  0  0
  147.1795  136.7069  158.3087 H   0  0  0  0  0  0  0  0  0  0  0  0
  147.6943  134.2341  159.8264 H   0  0  0  0  0  0  0  0  0  0  0  0
  147.3891  132.6947  162.1295 H   0  0  0  0  0  0  0  0  0  0  0  0
  146.3641  133.5413  163.2889 H   0  0  0  0  0  0  0  0  0  0  0  0
  148.1190  133.5630  163.4807 H   0  0  0  0  0  0  0  0  0  0  0  0
  149.9600  139.1840  155.4472 H   0  0  0  0  0  0  0  0  0  0  0  0
  151.9333  136.8658  155.0591 H   0  0  0  0  0  0  0  0  0  0  0  0
  151.1791  137.7923  153.7644 H   0  0  0  0  0  0  0  0  0  0  0  0
  150.1956  136.7812  154.8130 H   0  0  0  0  0  0  0  0  0  0  0  0
  151.9377  140.5438  155.4328 H   0  0  0  0  0  0  0  0  0  0  0  0
  154.7391  138.2957  154.7656 H   0  0  0  0  0  0  0  0  0  0  0  0
  153.9293  139.7532  154.1928 H   0  0  0  0  0  0  0  0  0  0  0  0
  153.1057  138.1873  154.1094 H   0  0  0  0  0  0  0  0  0  0  0  0
  1  2  1  0  0  0  0
  1 23  1  0  0  0  0
  1 24  1  0  0  0  0
  1 25  1  0  0  0  0
  2  3  1  0  0  0  0
  2 26  1  0  0  0  0
  2 27  1  0  0  0  0
  3 19  1  0  0  0  0
  3  4  1  0  0  0  0
  3  6  1  0  0  0  0
  4  5  1  0  0  0  0
  4 28  1  0  0  0  0
  4 29  1  0  0  0  0
  5 30  1  0  0  0  0
  5 31  1  0  0  0  0
  5 32  1  0  0  0  0
  6  7  1  0  0  0  0
  6 17  1  0  0  0  0
  6 33  1  0  0  0  0
  7  8  1  0  0  0  0
  7 34  1  0  0  0  0
  8  9  2  0  0  0  0
  8 10  1  0  0  0  0
 10 11  1  0  0  0  0
 10 35  1  0  0  0  0
 10 36  1  0  0  0  0
 11 16  2  0  0  0  0
 11 12  1  0  0  0  0
 12 13  2  0  0  0  0
 12 37  1  0  0  0  0
 13 14  1  0  0  0  0
 13 15  1  0  0  0  0
 14 38  1  0  0  0  0
 14 39  1  0  0  0  0
 14 40  1  0  0  0  0
 15 22  1  0  0  0  0
 15 16  1  0  0  0  0
 17 18  1  0  0  0  0
 17 19  1  0  0  0  0
 17 41  1  0  0  0  0
 18 42  1  0  0  0  0
 18 43  1  0  0  0  0
 18 44  1  0  0  0  0
 19 20  1  0  0  0  0
 19 45  1  0  0  0  0
 20 21  1  0  0  0  0
 21 46  1  0  0  0  0
 21 47  1  0  0  0  0
 21 48  1  0  0  0  0
M  END
> <s_m_source_file>
AV-unprocessed.smi

> <i_m_source_file_index>
2510

> <i_lp_mmshare_version>
43012

> <i_f3d_flags>
0

> <s_epik_input>
W0NIM11PW0NAQEhdMVtDQEhdKFtDSDNdKVtDQEBIXShDMShbQ0gyXVtDSDNdKVtDSDJdW0NIM10pW05IXUMoPU8pW0NIMl1jMltjSF1jKFtDSDNdKVtuSF1uMg==

> <s_epik_cmdline>
J2VwaWtfcHl0aG9uJywgJy1waCcsICc3LjAnLCAnLXRuJywgJzgnLCAnLW1hJywgJzIwMCcsICctbWV0YWxfYmluZGluZycsICctaW1hZScsICc8aW5maWxlLm1hZT4nLCAnLW9tYWUnLCAnPG91dGZpbGUubWFlPic=

> <r_lp_tautomer_probability>
0.5

> <r_epik_Ionization_Penalty>
9.73156e-05

> <r_epik_Ionization_Penalty_Charging>
0

> <r_epik_Ionization_Penalty_Neutral>
9.73156e-05

> <r_epik_State_Penalty>
0.41068

> <r_epik_Charging_Adjusted_Penalty>
0.41068

> <i_epik_Tot_Q>
0

> <i_epik_Tot_abs_Q>
0

> <r_epik_Metal_State_Penalty>
0.410699

> <b_epik_Metal_Only>
0

> <s_lp_Force_Field>
OPLS_2005

> <r_lp_Energy>
28.6218

> <b_lp_Chiralities_Consistent>
1

> <s_lp_Variant>
AV-unprocessed.smi:2510-7

> <Gold.Version>
5.8.1

> <Gold.Id.Protein>
6NUR|6NUR_protein|mol2

> <Gold.PLP.Fitness>
44.6380

> <Gold.PLP.PLP>
-34.3882

> <Gold.PLP.part.hbond>
-3.9463

> <Gold.PLP.part.metal>
0.0000

> <Gold.PLP.part.buried>
-4.7355

> <Gold.PLP.part.nonpolar>
-26.4906

> <Gold.PLP.part.repulsive>
0.2174

> <Gold.PLP.ligand.clash>
0.0000

> <Gold.PLP.ligand.torsion>
0.9341

> <Gold.PLP.Chemscore.Hbond>
3.8070

> <Gold.PLP.Chemscore.CHOScore>
0.0000

> <Gold.PLP.Chemscore.Metal>
0.0000

> <Gold.Chemscore.Hbonds>
donor molecule, donor type, donor heavy atom, donor atom, acceptor molecule, acceptor atom, score
      P1  H  6896  6908       L1     9  1.00
      P1  H  6931  6943       L1    16  0.86
      P1  H  6934  6947       L1    16  0.84
      P1  H  7997  8009       L1    20  0.70

> <Gold.PLP.Chemscore.Internal.Correction>
0.6969

> <Gold.Rescore>
     Score         DG    S(hbond)    S(metal)    S(lipo)     H(rot)  DE(clash)    DE(int)     intcor
     16.78     -21.00       2.83        0.00      91.55       1.81       0.04       4.19       ----

> <Gold.Chemscore.Fitness>
16.7754

> <Gold.Chemscore.DG>
-20.9987

> <Gold.Chemscore.ZeroCoef>
-5.4800

> <Gold.Chemscore.Hbond>
2.8268

> <Gold.Chemscore.Metal>
0.0000

> <Gold.Chemscore.Lipo>
91.5506

> <Gold.Chemscore.Internal_Hbond>
0.0000

> <Gold.Chemscore.DEClash>
0.0362

> <Gold.Chemscore.DEInternal>
4.1871

> <Gold.Chemscore.Rot>
1.8102

> <Gold.Chemscore.Internal.Correction>
   9.000000E+99

> <Gold.Chemscore.Hbonds>
donor molecule, donor type, donor heavy atom, donor atom, acceptor molecule, acceptor atom, score
      P1  H  6896  6908       L1     9  0.99
      P1  H  6931  6943       L1    16  0.44
      P1  H  6934  6947       L1    16  0.31
      P1  H  7997  8009       L1    20  0.05

> <Gold.Chemscore.Hbond.Weighted>
-9.4414

> <Gold.Chemscore.Metal.Weighted>
-0.0000

> <Gold.Chemscore.Lipo.Weighted>
-10.7114

> <Gold.Chemscore.Internal_Hbond.Weighted>
0.0000

> <Gold.Chemscore.DEClash.Weighted>
0.0362

> <Gold.Chemscore.DEInternal.Weighted>
4.1871

> <Gold.Chemscore.Rot.Weighted>
4.6341

> <Gold.Chemscore.Internal.Correction.Weighted>
   9.000000E+99

> <Gold.Protein.RotatedTorsions>
[ 6907 6896 6895 6894 ] final -158.13 input  -60.11 | X-H torsion
[ 7974 7965 7964 7962 ] final  -29.99 input  175.53 | X-H torsion
[ 8008 7997 7996 7995 ] final -165.48 input   59.86 | X-H torsion
[ 10167 10162 10161 10158 ] final -122.65 input  -65.29 | X-H torsion
[ 10718 10713 10712 10709 ] final  -90.72 input   66.30 | X-H torsion
[ 10763 10752 10751 10750 ] final   10.19 input  -60.55 | X-H torsion
[ 11005 11000 10999 10996 ] final -142.06 input  -57.11 | X-H torsion

> <Gold.Protein.ActiveResidues>
 VAL166  LYS551  ARG553  GLY616  TRP617  ASP618  TYR619  PRO620  LYS621  CYS622 
 ASP623  PHE694  ASN695  SER759  ASP760  ASP761  ALA762  ILE779  LEU786  VAL792 
 PHE793  MET794  SER795  GLU796  ALA797  LYS798  CYS799  TRP800  GLU811  SER814 

> <Gold.Protein.RotatedAtoms>
  151.3135  133.4070  159.2648 H   0  0  0  0  0  0  0  0  0  0  0  0  # atno 6907 bound_to 6896
  151.0094  134.9386  159.8009 H   0  0  0  0  0  0  0  0  0  0  0  0  # atno 6908 bound_to 6896
  152.5297  134.3099  159.9162 H   0  0  0  0  0  0  0  0  0  0  0  0  # atno 6909 bound_to 6896
  146.1176  140.5483  142.8750 H   0  0  0  0  0  0  0  0  0  0  0  0  # atno 7974 bound_to 7965
  155.8504  140.0962  157.1678 H   0  0  0  0  0  0  0  0  0  0  0  0  # atno 8008 bound_to 7997
  154.3985  140.1384  156.3899 H   0  0  0  0  0  0  0  0  0  0  0  0  # atno 8009 bound_to 7997
  155.7967  140.3454  155.5382 H   0  0  0  0  0  0  0  0  0  0  0  0  # atno 8010 bound_to 7997
  140.0119  143.5433  152.2259 H   0  0  0  0  0  0  0  0  0  0  0  0  # atno 10167 bound_to 10162
  155.9989  130.4920  150.5365 H   0  0  0  0  0  0  0  0  0  0  0  0  # atno 10718 bound_to 10713
  153.2059  135.6862  153.8174 H   0  0  0  0  0  0  0  0  0  0  0  0  # atno 10763 bound_to 10752
  153.7423  135.3236  155.3307 H   0  0  0  0  0  0  0  0  0  0  0  0  # atno 10764 bound_to 10752
  154.8196  135.4661  154.0845 H   0  0  0  0  0  0  0  0  0  0  0  0  # atno 10765 bound_to 10752
  140.8262  134.2572  157.4878 H   0  0  0  0  0  0  0  0  0  0  0  0  # atno 11005 bound_to 11000
  144.7567  140.5324  143.6764 LP  0  0  0  0  0  0  0  0  0  0  0  0  # atno 17320 bound_to 7965
  145.5534  139.1477  143.3381 LP  0  0  0  0  0  0  0  0  0  0  0  0  # atno 17321 bound_to 7965
  139.6199  144.7627  151.2764 LP  0  0  0  0  0  0  0  0  0  0  0  0  # atno 17342 bound_to 10162
  140.7378  143.6668  150.8116 LP  0  0  0  0  0  0  0  0  0  0  0  0  # atno 17343 bound_to 10162
  157.3307  131.0699  151.1863 LP  0  0  0  0  0  0  0  0  0  0  0  0  # atno 17370 bound_to 10713
  157.2744  130.6720  149.6035 LP  0  0  0  0  0  0  0  0  0  0  0  0  # atno 17371 bound_to 10713
  139.8706  134.9562  156.4229 LP  0  0  0  0  0  0  0  0  0  0  0  0  # atno 17394 bound_to 11000
  140.9046  133.7755  155.9720 LP  0  0  0  0  0  0  0  0  0  0  0  0  # atno 17395 bound_to 11000

$$$$
