AV-unprocessed.smi:224|AV-procd|sdf|1715|dock10
  -GOLD-   2262020183D 1   1.00000     0.00000
 Structure written by MMmdl.
 56 59  0  0  0  0  0  0  0  0  2 V2000
  144.1067  132.2743  150.4959 C   0  0  0  0  0  0  0  0  0  0  0  0
  145.5569  132.4772  150.9537 C   0  0  2  0  0  0  0  0  0  0  0  0
  146.3979  132.2511  149.8400 O   0  0  0  0  0  0  0  0  0  0  0  0
  145.9337  131.5076  152.0934 C   0  0  0  0  0  0  0  0  0  0  0  0
  147.3176  131.6875  152.6134 N   0  3  2  0  0  0  0  0  0  0  0  0
  147.5696  130.8533  153.8181 C   0  0  0  0  0  0  0  0  0  0  0  0
  149.0433  130.9290  154.2552 C   0  0  0  0  0  0  0  0  0  0  0  0
  149.4737  132.3148  154.4233 N   0  0  0  0  0  0  0  0  0  0  0  0
  149.3480  132.9118  155.6397 C   0  0  0  0  0  0  0  0  0  0  0  0
  149.6549  134.2297  155.7764 N   0  0  0  0  0  0  0  0  0  0  0  0
  149.5673  134.8280  156.9673 C   0  0  0  0  0  0  0  0  0  0  0  0
  149.1951  134.3056  158.1360 N   0  0  0  0  0  0  0  0  0  0  0  0
  148.8632  132.9897  158.0064 C   0  0  0  0  0  0  0  0  0  0  0  0
  148.9100  132.2222  156.8074 C   0  0  0  0  0  0  0  0  0  0  0  0
  148.4900  130.9222  157.0668 N   0  0  0  0  0  0  0  0  0  0  0  0
  148.2253  130.9182  158.3444 C   0  0  0  0  0  0  0  0  0  0  0  0
  148.4166  132.1204  158.9862 N   0  0  0  0  0  0  0  0  0  0  0  0
  148.1983  132.3987  160.3972 C   0  0  0  0  0  0  0  0  0  0  0  0
  147.1723  133.5274  160.6513 C   0  0  1  0  0  0  0  0  0  0  0  0
  146.0477  133.3268  159.8130 O   0  0  0  0  0  0  0  0  0  0  0  0
  146.6879  133.6184  162.0957 C   0  0  0  0  0  0  0  0  0  0  0  0
  146.4297  135.1078  162.2740 C   0  0  0  0  0  0  0  0  0  0  0  0
  147.5093  135.6933  161.5671 O   0  0  0  0  0  0  0  0  0  0  0  0
  147.7373  134.9366  160.3824 C   0  0  0  0  0  0  0  0  0  0  0  0
  149.2516  133.1498  153.2447 C   0  0  0  0  0  0  0  0  0  0  0  0
  147.7814  133.1029  152.7691 C   0  0  2  0  0  0  0  0  0  0  0  0
  146.8555  133.9628  153.6559 C   0  0  0  0  0  0  0  0  0  0  0  0
  143.4092  132.4543  151.3148 H   0  0  0  0  0  0  0  0  0  0  0  0
  143.9397  131.2586  150.1347 H   0  0  0  0  0  0  0  0  0  0  0  0
  143.8494  132.9610  149.6888 H   0  0  0  0  0  0  0  0  0  0  0  0
  145.6636  133.5142  151.2695 H   0  0  0  0  0  0  0  0  0  0  0  0
  147.2685  132.0504  150.1468 H   0  0  0  0  0  0  0  0  0  0  0  0
  145.2199  131.5918  152.9132 H   0  0  0  0  0  0  0  0  0  0  0  0
  145.8322  130.4869  151.7210 H   0  0  0  0  0  0  0  0  0  0  0  0
  146.9130  131.1716  154.6281 H   0  0  0  0  0  0  0  0  0  0  0  0
  147.3168  129.8141  153.6054 H   0  0  0  0  0  0  0  0  0  0  0  0
  149.2089  130.3496  155.1643 H   0  0  0  0  0  0  0  0  0  0  0  0
  149.6734  130.4717  153.4914 H   0  0  0  0  0  0  0  0  0  0  0  0
  149.8362  135.8739  156.9872 H   0  0  0  0  0  0  0  0  0  0  0  0
  147.8766  130.0327  158.8557 H   0  0  0  0  0  0  0  0  0  0  0  0
  147.8637  131.4761  160.8735 H   0  0  0  0  0  0  0  0  0  0  0  0
  149.1570  132.6475  160.8542 H   0  0  0  0  0  0  0  0  0  0  0  0
  145.5438  134.1258  159.7900 H   0  0  0  0  0  0  0  0  0  0  0  0
  145.8149  132.9999  162.3092 H   0  0  0  0  0  0  0  0  0  0  0  0
  147.4829  133.3186  162.7797 H   0  0  0  0  0  0  0  0  0  0  0  0
  145.4840  135.4020  161.8161 H   0  0  0  0  0  0  0  0  0  0  0  0
  146.4196  135.4132  163.3204 H   0  0  0  0  0  0  0  0  0  0  0  0
  148.8072  134.9216  160.1719 H   0  0  0  0  0  0  0  0  0  0  0  0
  147.2465  135.4226  159.5375 H   0  0  0  0  0  0  0  0  0  0  0  0
  149.5532  134.1837  153.4032 H   0  0  0  0  0  0  0  0  0  0  0  0
  149.8982  132.7723  152.4518 H   0  0  0  0  0  0  0  0  0  0  0  0
  147.7839  133.5618  151.7814 H   0  0  0  0  0  0  0  0  0  0  0  0
  147.2688  134.9627  153.7894 H   0  0  0  0  0  0  0  0  0  0  0  0
  146.7171  133.5338  154.6475 H   0  0  0  0  0  0  0  0  0  0  0  0
  145.8697  134.0885  153.2087 H   0  0  0  0  0  0  0  0  0  0  0  0
  147.9173  131.2932  151.9031 H   0  0  0  0  0  0  0  0  0  0  0  0
  1  2  1  0  0  0  0
  1 28  1  0  0  0  0
  1 29  1  0  0  0  0
  1 30  1  0  0  0  0
  2  3  1  0  0  0  0
  2  4  1  0  0  0  0
  2 31  1  0  0  0  0
  3 32  1  0  0  0  0
  4  5  1  0  0  0  0
  4 33  1  0  0  0  0
  4 34  1  0  0  0  0
  5 26  1  0  0  0  0
  5  6  1  0  0  0  0
  5 56  1  0  0  0  0
  6  7  1  0  0  0  0
  6 35  1  0  0  0  0
  6 36  1  0  0  0  0
  7  8  1  0  0  0  0
  7 37  1  0  0  0  0
  7 38  1  0  0  0  0
  8  9  1  0  0  0  0
  8 25  1  0  0  0  0
  9 14  1  0  0  0  0
  9 10  2  0  0  0  0
 10 11  1  0  0  0  0
 11 12  2  0  0  0  0
 11 39  1  0  0  0  0
 12 13  1  0  0  0  0
 13 17  1  0  0  0  0
 13 14  2  0  0  0  0
 14 15  1  0  0  0  0
 15 16  2  0  0  0  0
 16 17  1  0  0  0  0
 16 40  1  0  0  0  0
 17 18  1  0  0  0  0
 18 19  1  0  0  0  0
 18 41  1  0  0  0  0
 18 42  1  0  0  0  0
 19 24  1  0  0  0  0
 19 20  1  0  0  0  0
 19 21  1  0  0  0  0
 20 43  1  0  0  0  0
 21 22  1  0  0  0  0
 21 44  1  0  0  0  0
 21 45  1  0  0  0  0
 22 23  1  0  0  0  0
 22 46  1  0  0  0  0
 22 47  1  0  0  0  0
 23 24  1  0  0  0  0
 24 48  1  0  0  0  0
 24 49  1  0  0  0  0
 25 26  1  0  0  0  0
 25 50  1  0  0  0  0
 25 51  1  0  0  0  0
 26 27  1  0  0  0  0
 26 52  1  0  0  0  0
 27 53  1  0  0  0  0
 27 54  1  0  0  0  0
 27 55  1  0  0  0  0
M  CHG  1   5   1
M  END
> <s_m_source_file>
AV-unprocessed.smi

> <i_m_source_file_index>
224

> <i_lp_mmshare_version>
43012

> <i_f3d_flags>
0

> <s_epik_input>
W0NIM11bQ0BIXShbT0hdKVtDSDJdTjFbQ0gyXVtDSDJdTihbQ0gyXVtDQEhdMVtDSDNdKWMobltjSF1uMiljKGMyMyluW2NIXW4zW0NIMl1bQ0BAXTQoW09IXSlbQ0gyXVtDSDJdT1tDSDJdNA==

> <s_epik_cmdline>
J2VwaWtfcHl0aG9uJywgJy1waCcsICc3LjAnLCAnLXRuJywgJzgnLCAnLW1hJywgJzIwMCcsICctbWV0YWxfYmluZGluZycsICctaW1hZScsICc8aW5maWxlLm1hZT4nLCAnLW9tYWUnLCAnPG91dGZpbGUubWFlPic=

> <r_lp_tautomer_probability>
1

> <r_epik_Ionization_Penalty>
0.00516958

> <r_epik_Ionization_Penalty_Charging>
0.00509693

> <r_epik_Ionization_Penalty_Neutral>
7.26542e-05

> <r_epik_State_Penalty>
-0

> <r_epik_Charging_Adjusted_Penalty>
0.00509693

> <i_epik_Tot_Q>
1

> <i_epik_Tot_abs_Q>
1

> <r_epik_Metal_State_Penalty>
-0

> <b_epik_Metal_Only>
0

> <s_lp_Force_Field>
OPLS_2005

> <r_lp_Energy>
50.3788

> <b_lp_Chiralities_Consistent>
1

> <s_lp_Variant>
AV-unprocessed.smi:224-9

> <Gold.Version>
5.8.1

> <Gold.Id.Protein>
6NUR|6NUR_protein|mol2

> <Gold.PLP.Fitness>
48.3877

> <Gold.PLP.PLP>
-39.9490

> <Gold.PLP.part.hbond>
-3.0000

> <Gold.PLP.part.metal>
0.0000

> <Gold.PLP.part.buried>
-6.9203

> <Gold.PLP.part.nonpolar>
-30.7232

> <Gold.PLP.part.repulsive>
0.0344

> <Gold.PLP.ligand.clash>
0.0000

> <Gold.PLP.ligand.torsion>
0.4650

> <Gold.PLP.Chemscore.Hbond>
3.0000

> <Gold.PLP.Chemscore.CHOScore>
0.0000

> <Gold.PLP.Chemscore.Metal>
0.0000

> <Gold.Chemscore.Hbonds>
donor molecule, donor type, donor heavy atom, donor atom, acceptor molecule, acceptor atom, score
      L1  H     3    32       P1 10747  0.88
      L1  H     5    56       P1 10747  1.00
      P1  H  6896  6908       L1    12  1.00

> <Gold.PLP.Chemscore.Internal.Correction>
0.3686

> <Gold.Rescore>
     Score         DG    S(hbond)    S(metal)    S(lipo)     H(rot)  DE(clash)    DE(int)     intcor
     13.07     -16.29       2.55        0.00      85.85       3.02       0.00       3.22       ----

> <Gold.Chemscore.Fitness>
13.0670

> <Gold.Chemscore.DG>
-16.2907

> <Gold.Chemscore.ZeroCoef>
-5.4800

> <Gold.Chemscore.Hbond>
2.5466

> <Gold.Chemscore.Metal>
0.0000

> <Gold.Chemscore.Lipo>
85.8482

> <Gold.Chemscore.Internal_Hbond>
0.0000

> <Gold.Chemscore.DEClash>
0.0029

> <Gold.Chemscore.DEInternal>
3.2208

> <Gold.Chemscore.Rot>
3.0231

> <Gold.Chemscore.Internal.Correction>
   9.000000E+99

> <Gold.Chemscore.Hbonds>
donor molecule, donor type, donor heavy atom, donor atom, acceptor molecule, acceptor atom, score
      L1  H     3    32       P1 10747  0.83
      L1  H     5    56       P1 10747  0.97
      P1  H  6896  6908       L1    12  0.22

> <Gold.Chemscore.Hbond.Weighted>
-8.5055

> <Gold.Chemscore.Metal.Weighted>
-0.0000

> <Gold.Chemscore.Lipo.Weighted>
-10.0442

> <Gold.Chemscore.Internal_Hbond.Weighted>
0.0000

> <Gold.Chemscore.DEClash.Weighted>
0.0029

> <Gold.Chemscore.DEInternal.Weighted>
3.2208

> <Gold.Chemscore.Rot.Weighted>
7.7391

> <Gold.Chemscore.Internal.Correction.Weighted>
   9.000000E+99

> <Gold.Protein.RotatedTorsions>
[ 6907 6896 6895 6894 ] final  144.03 input  -60.11 | X-H torsion
[ 7974 7965 7964 7962 ] final  150.59 input  175.53 | X-H torsion
[ 8008 7997 7996 7995 ] final  170.95 input   59.86 | X-H torsion
[ 10167 10162 10161 10158 ] final  -11.98 input  -65.29 | X-H torsion
[ 10718 10713 10712 10709 ] final  116.69 input   66.30 | X-H torsion
[ 10763 10752 10751 10750 ] final    3.49 input  -60.55 | X-H torsion
[ 11005 11000 10999 10996 ] final  130.11 input  -57.11 | X-H torsion

> <Gold.Protein.ActiveResidues>
 VAL166  LYS551  ARG553  GLY616  TRP617  ASP618  TYR619  PRO620  LYS621  CYS622 
 ASP623  PHE694  ASN695  SER759  ASP760  ASP761  ALA762  ILE779  LEU786  VAL792 
 PHE793  MET794  SER795  GLU796  ALA797  LYS798  CYS799  TRP800  GLU811  SER814 

> <Gold.Protein.RotatedAtoms>
  152.1988  133.4826  159.5046 H   0  0  0  0  0  0  0  0  0  0  0  0  # atno 6907 bound_to 6896
  150.6965  134.1617  159.4188 H   0  0  0  0  0  0  0  0  0  0  0  0  # atno 6908 bound_to 6896
  151.9534  135.0158  160.0594 H   0  0  0  0  0  0  0  0  0  0  0  0  # atno 6909 bound_to 6896
  144.8353  139.6428  143.6040 H   0  0  0  0  0  0  0  0  0  0  0  0  # atno 7974 bound_to 7965
  156.1317  140.1524  156.9055 H   0  0  0  0  0  0  0  0  0  0  0  0  # atno 8008 bound_to 7997
  154.4915  140.0850  156.7643 H   0  0  0  0  0  0  0  0  0  0  0  0  # atno 8009 bound_to 7997
  155.4243  140.3424  155.4276 H   0  0  0  0  0  0  0  0  0  0  0  0  # atno 8010 bound_to 7997
  140.7151  143.5581  150.9225 H   0  0  0  0  0  0  0  0  0  0  0  0  # atno 10167 bound_to 10162
  157.6144  131.1028  150.7509 H   0  0  0  0  0  0  0  0  0  0  0  0  # atno 10718 bound_to 10713
  153.2827  135.6942  153.7369 H   0  0  0  0  0  0  0  0  0  0  0  0  # atno 10763 bound_to 10752
  153.6350  135.3403  155.3054 H   0  0  0  0  0  0  0  0  0  0  0  0  # atno 10764 bound_to 10752
  154.8500  135.4418  154.1886 H   0  0  0  0  0  0  0  0  0  0  0  0  # atno 10765 bound_to 10752
  139.9653  134.9592  156.9246 H   0  0  0  0  0  0  0  0  0  0  0  0  # atno 11005 bound_to 11000
  146.2652  139.6504  142.9334 LP  0  0  0  0  0  0  0  0  0  0  0  0  # atno 17320 bound_to 7965
  145.4808  141.0438  143.2647 LP  0  0  0  0  0  0  0  0  0  0  0  0  # atno 17321 bound_to 7965
  139.9307  143.6497  152.3077 LP  0  0  0  0  0  0  0  0  0  0  0  0  # atno 17342 bound_to 10162
  139.6947  144.7643  151.1378 LP  0  0  0  0  0  0  0  0  0  0  0  0  # atno 17343 bound_to 10162
  156.7879  130.4880  149.5389 LP  0  0  0  0  0  0  0  0  0  0  0  0  # atno 17370 bound_to 10713
  156.1260  130.6144  151.0264 LP  0  0  0  0  0  0  0  0  0  0  0  0  # atno 17371 bound_to 10713
  140.5409  134.0721  155.7341 LP  0  0  0  0  0  0  0  0  0  0  0  0  # atno 17394 bound_to 11000
  141.1333  133.9265  157.2489 LP  0  0  0  0  0  0  0  0  0  0  0  0  # atno 17395 bound_to 11000

$$$$
