AV-unprocessed.smi:24|AV-procd|sdf|175|dock3
  -GOLD-   2262015433D 1   1.00000     0.00000
 Structure written by MMmdl.
 61 65  0  0  0  0  0  0  0  0  1 V2000
  152.2777  137.0927  157.2100 C   0  0  0  0  0  0  0  0  0  0  0  0
  152.3815  135.7771  156.6855 O   0  0  0  0  0  0  0  0  0  0  0  0
  151.2174  135.0690  156.4768 C   0  0  0  0  0  0  0  0  0  0  0  0
  151.3471  133.7070  156.1371 C   0  0  0  0  0  0  0  0  0  0  0  0
  150.2105  132.9101  155.9049 C   0  0  0  0  0  0  0  0  0  0  0  0
  148.9171  133.4678  156.0045 C   0  0  0  0  0  0  0  0  0  0  0  0
  147.6688  132.6214  155.7609 C   0  0  2  0  0  0  0  0  0  0  0  0
  147.4913  132.2737  154.2806 C   0  0  0  0  0  0  0  0  0  0  0  0
  146.1409  132.8416  153.9974 C   0  0  0  0  0  0  0  0  0  0  0  0
  145.5346  132.7708  152.6491 C   0  0  0  0  0  0  0  0  0  0  0  0
  146.1316  131.9542  151.6615 C   0  0  0  0  0  0  0  0  0  0  0  0
  145.5519  131.8807  150.3798 C   0  0  0  0  0  0  0  0  0  0  0  0
  144.3868  132.6169  150.0867 C   0  0  0  0  0  0  0  0  0  0  0  0
  143.7964  133.4308  151.0741 C   0  0  0  0  0  0  0  0  0  0  0  0
  144.3668  133.5125  152.3596 C   0  0  0  0  0  0  0  0  0  0  0  0
  145.5837  133.3848  155.0161 N   0  0  0  0  0  0  0  0  0  0  0  0
  146.4027  133.2880  156.0935 N   0  0  0  0  0  0  0  0  0  0  0  0
  146.0449  133.6801  157.3367 C   0  0  0  0  0  0  0  0  0  0  0  0
  144.9854  134.2718  157.5524 O   0  0  0  0  0  0  0  0  0  0  0  0
  147.0065  133.3794  158.5061 C   0  0  0  0  0  0  0  0  0  0  0  0
  146.5263  133.8926  159.8084 N   0  0  0  0  0  0  0  0  0  0  0  0
  147.3298  134.8320  160.5018 C   0  0  0  0  0  0  0  0  0  0  0  0
  148.3983  135.2275  160.0329 O   0  0  0  0  0  0  0  0  0  0  0  0
  146.8091  135.2777  161.7890 C   0  0  0  0  0  0  0  0  0  0  0  0
  147.5034  136.1705  162.5149 F   0  0  0  0  0  0  0  0  0  0  0  0
  145.6387  134.8067  162.2665 C   0  0  0  0  0  0  0  0  0  0  0  0
  144.8662  133.8866  161.5804 N   0  0  0  0  0  0  0  0  0  0  0  0
  143.5588  133.3623  162.1353 C   0  0  2  0  0  0  0  0  0  0  0  0
  142.4226  133.5509  161.1131 C   0  0  0  0  0  0  0  0  0  0  0  0
  141.3410  134.2197  161.9377 C   0  0  0  0  0  0  0  0  0  0  0  0
  142.1601  134.9927  162.9604 C   0  0  0  0  0  0  0  0  0  0  0  0
  143.2048  134.0833  163.2817 O   0  0  0  0  0  0  0  0  0  0  0  0
  145.3049  133.4025  160.3286 C   0  0  0  0  0  0  0  0  0  0  0  0
  144.6380  132.5706  159.7092 O   0  0  0  0  0  0  0  0  0  0  0  0
  148.7798  134.8266  156.3523 C   0  0  0  0  0  0  0  0  0  0  0  0
  149.9174  135.6236  156.5847 C   0  0  0  0  0  0  0  0  0  0  0  0
  153.2755  137.5187  157.3144 H   0  0  0  0  0  0  0  0  0  0  0  0
  151.8143  137.0931  158.1974 H   0  0  0  0  0  0  0  0  0  0  0  0
  151.7096  137.7433  156.5438 H   0  0  0  0  0  0  0  0  0  0  0  0
  152.3301  133.2671  156.0533 H   0  0  0  0  0  0  0  0  0  0  0  0
  150.3384  131.8681  155.6502 H   0  0  0  0  0  0  0  0  0  0  0  0
  147.7367  131.7023  156.3464 H   0  0  0  0  0  0  0  0  0  0  0  0
  148.2510  132.7394  153.6510 H   0  0  0  0  0  0  0  0  0  0  0  0
  147.5120  131.1956  154.1165 H   0  0  0  0  0  0  0  0  0  0  0  0
  147.0246  131.3817  151.8670 H   0  0  0  0  0  0  0  0  0  0  0  0
  146.0014  131.2577  149.6205 H   0  0  0  0  0  0  0  0  0  0  0  0
  143.9449  132.5577  149.1028 H   0  0  0  0  0  0  0  0  0  0  0  0
  142.9035  133.9936  150.8446 H   0  0  0  0  0  0  0  0  0  0  0  0
  143.8949  134.1431  153.0984 H   0  0  0  0  0  0  0  0  0  0  0  0
  147.1690  132.3020  158.5696 H   0  0  0  0  0  0  0  0  0  0  0  0
  147.9887  133.7834  158.2570 H   0  0  0  0  0  0  0  0  0  0  0  0
  145.3121  135.1743  163.2269 H   0  0  0  0  0  0  0  0  0  0  0  0
  143.7462  132.3225  162.4097 H   0  0  0  0  0  0  0  0  0  0  0  0
  142.7465  134.2098  160.3056 H   0  0  0  0  0  0  0  0  0  0  0  0
  142.1135  132.5951  160.6890 H   0  0  0  0  0  0  0  0  0  0  0  0
  140.6841  134.8576  161.3461 H   0  0  0  0  0  0  0  0  0  0  0  0
  140.7308  133.4674  162.4391 H   0  0  0  0  0  0  0  0  0  0  0  0
  142.5731  135.9010  162.5198 H   0  0  0  0  0  0  0  0  0  0  0  0
  141.5831  135.2690  163.8430 H   0  0  0  0  0  0  0  0  0  0  0  0
  147.7971  135.2665  156.4398 H   0  0  0  0  0  0  0  0  0  0  0  0
  149.7651  136.6599  156.8450 H   0  0  0  0  0  0  0  0  0  0  0  0
  1  2  1  0  0  0  0
  1 37  1  0  0  0  0
  1 38  1  0  0  0  0
  1 39  1  0  0  0  0
  2  3  1  0  0  0  0
  3 36  1  0  0  0  0
  3  4  2  0  0  0  0
  4  5  1  0  0  0  0
  4 40  1  0  0  0  0
  5  6  2  0  0  0  0
  5 41  1  0  0  0  0
  6  7  1  0  0  0  0
  6 35  1  0  0  0  0
  7 17  1  0  0  0  0
  7  8  1  0  0  0  0
  7 42  1  0  0  0  0
  8  9  1  0  0  0  0
  8 43  1  0  0  0  0
  8 44  1  0  0  0  0
  9 10  1  0  0  0  0
  9 16  2  0  0  0  0
 10 15  1  0  0  0  0
 10 11  2  0  0  0  0
 11 12  1  0  0  0  0
 11 45  1  0  0  0  0
 12 13  2  0  0  0  0
 12 46  1  0  0  0  0
 13 14  1  0  0  0  0
 13 47  1  0  0  0  0
 14 15  2  0  0  0  0
 14 48  1  0  0  0  0
 15 49  1  0  0  0  0
 16 17  1  0  0  0  0
 17 18  1  0  0  0  0
 18 19  2  0  0  0  0
 18 20  1  0  0  0  0
 20 21  1  0  0  0  0
 20 50  1  0  0  0  0
 20 51  1  0  0  0  0
 21 33  1  0  0  0  0
 21 22  1  0  0  0  0
 22 23  2  0  0  0  0
 22 24  1  0  0  0  0
 24 25  1  0  0  0  0
 24 26  2  0  0  0  0
 26 27  1  0  0  0  0
 26 52  1  0  0  0  0
 27 28  1  0  0  0  0
 27 33  1  0  0  0  0
 28 32  1  0  0  0  0
 28 29  1  0  0  0  0
 28 53  1  0  0  0  0
 29 30  1  0  0  0  0
 29 54  1  0  0  0  0
 29 55  1  0  0  0  0
 30 31  1  0  0  0  0
 30 56  1  0  0  0  0
 30 57  1  0  0  0  0
 31 32  1  0  0  0  0
 31 58  1  0  0  0  0
 31 59  1  0  0  0  0
 33 34  2  0  0  0  0
 35 36  2  0  0  0  0
 35 60  1  0  0  0  0
 36 61  1  0  0  0  0
M  END
> <s_m_source_file>
AV-unprocessed.smi

> <i_m_source_file_index>
24

> <i_lp_mmshare_version>
43012

> <i_f3d_flags>
0

> <s_epik_input>
W0NIM11PYzFbY0hdW2NIXWMoW2NIXVtjSF0xKVtDQEBIXTJbQ0gyXUMoYzNbY0hdW2NIXVtjSF1bY0hdW2NIXTMpPU5OMkMoPU8pW0NIMl1uNGMoPU8pYyhGKVtjSF1uKGM0PU8pW0NAQEhdNVtDSDJdW0NIMl1bQ0gyXU81

> <s_epik_cmdline>
J2VwaWtfcHl0aG9uJywgJy1waCcsICc3LjAnLCAnLXRuJywgJzgnLCAnLW1hJywgJzIwMCcsICctbWV0YWxfYmluZGluZycsICctaW1hZScsICc8aW5maWxlLm1hZT4nLCAnLW9tYWUnLCAnPG91dGZpbGUubWFlPic=

> <r_lp_tautomer_probability>
1

> <r_epik_Ionization_Penalty>
1.46326e-08

> <r_epik_Ionization_Penalty_Charging>
4.53232e-09

> <r_epik_Ionization_Penalty_Neutral>
1.01002e-08

> <r_epik_State_Penalty>
-0

> <r_epik_Charging_Adjusted_Penalty>
4.53232e-09

> <i_epik_Tot_Q>
0

> <i_epik_Tot_abs_Q>
0

> <r_epik_Metal_State_Penalty>
-0

> <b_epik_Metal_Only>
0

> <s_epik_Chemistry_Notes>
This compound has an imine and may undergo hydrolysis. This compound contains an acetal/aminal-like group ( X-CH(R)-Y where X, Y are N, S, or O) that may be acid/base labile, releasing an aldehyde.

> <s_lp_Force_Field>
OPLS_2005

> <r_lp_Energy>
50.6154

> <b_lp_Chiralities_Consistent>
1

> <s_lp_Variant>
AV-unprocessed.smi:24-1

> <Gold.Version>
5.8.1

> <Gold.Id.Protein>
6NUR|6NUR_protein|mol2

> <Gold.PLP.Fitness>
44.6343

> <Gold.PLP.PLP>
-42.3345

> <Gold.PLP.part.hbond>
-1.7193

> <Gold.PLP.part.metal>
0.0000

> <Gold.PLP.part.buried>
-7.3029

> <Gold.PLP.part.nonpolar>
-33.3924

> <Gold.PLP.part.repulsive>
0.2764

> <Gold.PLP.ligand.clash>
0.0000

> <Gold.PLP.ligand.torsion>
0.4260

> <Gold.PLP.Chemscore.Hbond>
1.0000

> <Gold.PLP.Chemscore.CHOScore>
0.0000

> <Gold.PLP.Chemscore.Metal>
0.0000

> <Gold.Chemscore.Hbonds>
donor molecule, donor type, donor heavy atom, donor atom, acceptor molecule, acceptor atom, score
      P1  H 10752 10765       L1     2  1.00

> <Gold.PLP.Chemscore.Internal.Correction>
0.1518

> <Gold.Rescore>
     Score         DG    S(hbond)    S(metal)    S(lipo)     H(rot)  DE(clash)    DE(int)     intcor
     14.55     -16.70       0.78        0.00     116.83       1.98       0.07       2.07       ----

> <Gold.Chemscore.Fitness>
14.5521

> <Gold.Chemscore.DG>
-16.6964

> <Gold.Chemscore.ZeroCoef>
-5.4800

> <Gold.Chemscore.Hbond>
0.7793

> <Gold.Chemscore.Metal>
0.0000

> <Gold.Chemscore.Lipo>
116.8344

> <Gold.Chemscore.Internal_Hbond>
0.0000

> <Gold.Chemscore.DEClash>
0.0704

> <Gold.Chemscore.DEInternal>
2.0739

> <Gold.Chemscore.Rot>
1.9750

> <Gold.Chemscore.Internal.Correction>
   9.000000E+99

> <Gold.Chemscore.Hbonds>
donor molecule, donor type, donor heavy atom, donor atom, acceptor molecule, acceptor atom, score
      P1  H 10752 10765       L1     2  0.30

> <Gold.Chemscore.Hbond.Weighted>
-2.6029

> <Gold.Chemscore.Metal.Weighted>
-0.0000

> <Gold.Chemscore.Lipo.Weighted>
-13.6696

> <Gold.Chemscore.Internal_Hbond.Weighted>
0.0000

> <Gold.Chemscore.DEClash.Weighted>
0.0704

> <Gold.Chemscore.DEInternal.Weighted>
2.0739

> <Gold.Chemscore.Rot.Weighted>
5.0561

> <Gold.Chemscore.Internal.Correction.Weighted>
   9.000000E+99

> <Gold.Protein.RotatedTorsions>
[ 6907 6896 6895 6894 ] final   94.97 input  -60.11 | X-H torsion
[ 7974 7965 7964 7962 ] final  105.52 input  175.53 | X-H torsion
[ 8008 7997 7996 7995 ] final -153.20 input   59.86 | X-H torsion
[ 10167 10162 10161 10158 ] final -114.90 input  -65.29 | X-H torsion
[ 10718 10713 10712 10709 ] final   36.28 input   66.30 | X-H torsion
[ 10763 10752 10751 10750 ] final -141.80 input  -60.55 | X-H torsion
[ 11005 11000 10999 10996 ] final  136.35 input  -57.11 | X-H torsion

> <Gold.Protein.ActiveResidues>
 VAL166  LYS551  ARG553  GLY616  TRP617  ASP618  TYR619  PRO620  LYS621  CYS622 
 ASP623  PHE694  ASN695  SER759  ASP760  ASP761  ALA762  ILE779  LEU786  VAL792 
 PHE793  MET794  SER795  GLU796  ALA797  LYS798  CYS799  TRP800  GLU811  SER814 

> <Gold.Protein.RotatedAtoms>
  152.5446  134.1112  159.8358 H   0  0  0  0  0  0  0  0  0  0  0  0  # atno 6907 bound_to 6896
  151.1178  133.5118  159.2610 H   0  0  0  0  0  0  0  0  0  0  0  0  # atno 6908 bound_to 6896
  151.1812  135.0371  159.8848 H   0  0  0  0  0  0  0  0  0  0  0  0  # atno 6909 bound_to 6896
  145.3186  139.2519  143.3724 H   0  0  0  0  0  0  0  0  0  0  0  0  # atno 7974 bound_to 7965
  155.6671  140.0729  157.2533 H   0  0  0  0  0  0  0  0  0  0  0  0  # atno 8008 bound_to 7997
  154.4131  140.1706  156.1890 H   0  0  0  0  0  0  0  0  0  0  0  0  # atno 8009 bound_to 7997
  155.9648  140.3367  155.6526 H   0  0  0  0  0  0  0  0  0  0  0  0  # atno 8010 bound_to 7997
  140.0959  143.4657  152.1842 H   0  0  0  0  0  0  0  0  0  0  0  0  # atno 10167 bound_to 10162
  157.3330  130.7507  149.6860 H   0  0  0  0  0  0  0  0  0  0  0  0  # atno 10718 bound_to 10713
  154.8532  135.3514  154.5926 H   0  0  0  0  0  0  0  0  0  0  0  0  # atno 10763 bound_to 10752
  153.6535  135.6993  153.5205 H   0  0  0  0  0  0  0  0  0  0  0  0  # atno 10764 bound_to 10752
  153.2874  135.4245  155.1094 H   0  0  0  0  0  0  0  0  0  0  0  0  # atno 10765 bound_to 10752
  140.0040  134.9467  157.0135 H   0  0  0  0  0  0  0  0  0  0  0  0  # atno 11005 bound_to 11000
  146.3091  140.3738  142.8677 LP  0  0  0  0  0  0  0  0  0  0  0  0  # atno 17320 bound_to 7965
  144.8958  140.7581  143.5898 LP  0  0  0  0  0  0  0  0  0  0  0  0  # atno 17321 bound_to 7965
  139.5698  144.7456  151.3921 LP  0  0  0  0  0  0  0  0  0  0  0  0  # atno 17342 bound_to 10162
  140.7004  143.7646  150.7393 LP  0  0  0  0  0  0  0  0  0  0  0  0  # atno 17343 bound_to 10162
  155.9698  130.4190  150.4353 LP  0  0  0  0  0  0  0  0  0  0  0  0  # atno 17370 bound_to 10713
  157.2388  131.0521  151.2449 LP  0  0  0  0  0  0  0  0  0  0  0  0  # atno 17371 bound_to 10713
  140.4675  134.1421  155.7199 LP  0  0  0  0  0  0  0  0  0  0  0  0  # atno 17394 bound_to 11000
  141.1663  133.8696  157.1704 LP  0  0  0  0  0  0  0  0  0  0  0  0  # atno 17395 bound_to 11000

$$$$
