AV-unprocessed.smi:2102|AV-procd|sdf|8581|dock2
  -GOLD-   2272011313D 1   1.00000     0.00000
 Structure written by MMmdl.
 29 30  0  0  0  0  0  0  0  0  1 V2000
  152.1449  138.2880  154.3873 C   0  0  0  0  0  0  0  0  0  0  0  0
  151.7214  138.5755  155.7419 N   0  0  0  0  0  0  0  0  0  0  0  0
  152.0488  137.6670  156.7777 C   0  0  0  0  0  0  0  0  0  0  0  0
  152.6875  136.6331  156.5788 O   0  0  0  0  0  0  0  0  0  0  0  0
  151.5643  138.0569  158.0966 C   0  0  0  0  0  0  0  0  0  0  0  0
  150.8645  139.1995  158.2700 C   0  0  0  0  0  0  0  0  0  0  0  0
  150.5591  140.0701  157.2398 N   0  0  0  0  0  0  0  0  0  0  0  0
  149.8122  141.3024  157.5234 C   0  0  0  0  0  0  0  0  0  0  0  0
  150.6565  142.3570  158.2522 C   0  0  0  0  0  0  0  0  0  0  0  0
  151.2298  142.0818  159.3074 O   0  0  0  0  0  0  0  0  0  0  0  0
  150.7043  143.5692  157.6812 N   0  0  0  0  0  0  0  0  0  0  0  0
  151.4222  144.6950  158.1854 C   0  0  0  0  0  0  0  0  0  0  0  0
  152.7900  144.4470  158.7837 C   0  0  0  0  0  0  0  0  0  0  0  0
  151.6314  144.7821  159.6819 C   0  0  0  0  0  0  0  0  0  0  0  0
  150.9892  139.7680  155.9300 C   0  0  0  0  0  0  0  0  0  0  0  0
  150.7306  140.5254  154.9911 O   0  0  0  0  0  0  0  0  0  0  0  0
  152.7284  137.3693  154.3391 H   0  0  0  0  0  0  0  0  0  0  0  0
  152.7562  139.1279  154.0523 H   0  0  0  0  0  0  0  0  0  0  0  0
  151.2418  138.1872  153.7828 H   0  0  0  0  0  0  0  0  0  0  0  0
  151.7704  137.4225  158.9460 H   0  0  0  0  0  0  0  0  0  0  0  0
  150.5313  139.4451  159.2680 H   0  0  0  0  0  0  0  0  0  0  0  0
  149.4128  141.7203  156.5973 H   0  0  0  0  0  0  0  0  0  0  0  0
  148.9429  141.0761  158.1425 H   0  0  0  0  0  0  0  0  0  0  0  0
  150.1984  143.7032  156.8177 H   0  0  0  0  0  0  0  0  0  0  0  0
  151.2947  145.6436  157.6652 H   0  0  0  0  0  0  0  0  0  0  0  0
  153.1602  143.4236  158.8030 H   0  0  0  0  0  0  0  0  0  0  0  0
  153.5481  145.2133  158.6349 H   0  0  0  0  0  0  0  0  0  0  0  0
  151.6142  145.7724  160.1329 H   0  0  0  0  0  0  0  0  0  0  0  0
  151.2293  143.9823  160.3010 H   0  0  0  0  0  0  0  0  0  0  0  0
  1  2  1  0  0  0  0
  1 17  1  0  0  0  0
  1 18  1  0  0  0  0
  1 19  1  0  0  0  0
  2 15  1  0  0  0  0
  2  3  1  0  0  0  0
  3  4  2  0  0  0  0
  3  5  1  0  0  0  0
  5  6  2  0  0  0  0
  5 20  1  0  0  0  0
  6  7  1  0  0  0  0
  6 21  1  0  0  0  0
  7  8  1  0  0  0  0
  7 15  1  0  0  0  0
  8  9  1  0  0  0  0
  8 22  1  0  0  0  0
  8 23  1  0  0  0  0
  9 10  2  0  0  0  0
  9 11  1  0  0  0  0
 11 12  1  0  0  0  0
 11 24  1  0  0  0  0
 12 14  1  0  0  0  0
 12 13  1  0  0  0  0
 12 25  1  0  0  0  0
 13 14  1  0  0  0  0
 13 26  1  0  0  0  0
 13 27  1  0  0  0  0
 14 28  1  0  0  0  0
 14 29  1  0  0  0  0
 15 16  2  0  0  0  0
M  END
> <s_m_source_file>
AV-unprocessed.smi

> <i_m_source_file_index>
2102

> <i_lp_mmshare_version>
43012

> <i_f3d_flags>
0

> <s_epik_input>
W0NIM11uMWMoPU8pW2NIXVtjSF1uKGMxPU8pW0NIMl1DKD1PKVtOSF1bQ0hdMltDSDJdW0NIMl0y

> <s_epik_cmdline>
J2VwaWtfcHl0aG9uJywgJy1waCcsICc3LjAnLCAnLXRuJywgJzgnLCAnLW1hJywgJzIwMCcsICctbWV0YWxfYmluZGluZycsICctaW1hZScsICc8aW5maWxlLm1hZT4nLCAnLW9tYWUnLCAnPG91dGZpbGUubWFlPic=

> <r_lp_tautomer_probability>
1

> <r_epik_Ionization_Penalty>
3.25544e-08

> <r_epik_Ionization_Penalty_Charging>
1.18841e-08

> <r_epik_Ionization_Penalty_Neutral>
2.06703e-08

> <r_epik_State_Penalty>
-0

> <r_epik_Charging_Adjusted_Penalty>
1.18841e-08

> <i_epik_Tot_Q>
0

> <i_epik_Tot_abs_Q>
0

> <r_epik_Metal_State_Penalty>
-0

> <b_epik_Metal_Only>
0

> <s_lp_Force_Field>
OPLS_2005

> <r_lp_Energy>
23.1094

> <b_lp_Chiralities_Consistent>
1

> <s_lp_Variant>
AV-unprocessed.smi:2102-1

> <Gold.Version>
5.8.1

> <Gold.Id.Protein>
6NUR|6NUR_protein|mol2

> <Gold.PLP.Fitness>
39.8699

> <Gold.PLP.PLP>
-31.8888

> <Gold.PLP.part.hbond>
-3.2777

> <Gold.PLP.part.metal>
0.0000

> <Gold.PLP.part.buried>
-5.8380

> <Gold.PLP.part.nonpolar>
-22.5138

> <Gold.PLP.part.repulsive>
0.0756

> <Gold.PLP.ligand.clash>
0.0000

> <Gold.PLP.ligand.torsion>
0.5162

> <Gold.PLP.Chemscore.Hbond>
2.9920

> <Gold.PLP.Chemscore.CHOScore>
0.0000

> <Gold.PLP.Chemscore.Metal>
0.0000

> <Gold.Chemscore.Hbonds>
donor molecule, donor type, donor heavy atom, donor atom, acceptor molecule, acceptor atom, score
      L1  H    11    24       P1  8028  1.00
      P1  H  7989  7998       L1    16  1.00
      P1  H 10752 10764       L1     4  1.00

> <Gold.PLP.Chemscore.Internal.Correction>
0.0375

> <Gold.Rescore>
     Score         DG    S(hbond)    S(metal)    S(lipo)     H(rot)  DE(clash)    DE(int)     intcor
     16.35     -18.29       2.89        0.00      62.49       1.62       0.05       1.89       ----

> <Gold.Chemscore.Fitness>
16.3546

> <Gold.Chemscore.DG>
-18.2927

> <Gold.Chemscore.ZeroCoef>
-5.4800

> <Gold.Chemscore.Hbond>
2.8881

> <Gold.Chemscore.Metal>
0.0000

> <Gold.Chemscore.Lipo>
62.4929

> <Gold.Chemscore.Internal_Hbond>
0.0000

> <Gold.Chemscore.DEClash>
0.0515

> <Gold.Chemscore.DEInternal>
1.8866

> <Gold.Chemscore.Rot>
1.6192

> <Gold.Chemscore.Internal.Correction>
   9.000000E+99

> <Gold.Chemscore.Hbonds>
donor molecule, donor type, donor heavy atom, donor atom, acceptor molecule, acceptor atom, score
      L1  H    11    24       P1  8028  0.91
      P1  H  7989  7998       L1    16  0.95
      P1  H 10752 10764       L1     4  0.95

> <Gold.Chemscore.Hbond.Weighted>
-9.6463

> <Gold.Chemscore.Metal.Weighted>
-0.0000

> <Gold.Chemscore.Lipo.Weighted>
-7.3117

> <Gold.Chemscore.Internal_Hbond.Weighted>
0.0000

> <Gold.Chemscore.DEClash.Weighted>
0.0515

> <Gold.Chemscore.DEInternal.Weighted>
1.8866

> <Gold.Chemscore.Rot.Weighted>
4.1452

> <Gold.Chemscore.Internal.Correction.Weighted>
   9.000000E+99

> <Gold.Protein.RotatedTorsions>
[ 6907 6896 6895 6894 ] final -167.94 input  -60.11 | X-H torsion
[ 7974 7965 7964 7962 ] final   28.45 input  175.53 | X-H torsion
[ 8008 7997 7996 7995 ] final   28.84 input   59.86 | X-H torsion
[ 10167 10162 10161 10158 ] final  -57.44 input  -65.29 | X-H torsion
[ 10718 10713 10712 10709 ] final   49.95 input   66.30 | X-H torsion
[ 10763 10752 10751 10750 ] final   -5.04 input  -60.55 | X-H torsion
[ 11005 11000 10999 10996 ] final  178.80 input  -57.11 | X-H torsion

> <Gold.Protein.ActiveResidues>
 VAL166  LYS551  ARG553  GLY616  TRP617  ASP618  TYR619  PRO620  LYS621  CYS622 
 ASP623  PHE694  ASN695  SER759  ASP760  ASP761  ALA762  ILE779  LEU786  VAL792 
 PHE793  MET794  SER795  GLU796  ALA797  LYS798  CYS799  TRP800  GLU811  SER814 

> <Gold.Protein.RotatedAtoms>
  151.4676  133.3577  159.2818 H   0  0  0  0  0  0  0  0  0  0  0  0  # atno 6907 bound_to 6896
  150.8983  134.8395  159.7353 H   0  0  0  0  0  0  0  0  0  0  0  0  # atno 6908 bound_to 6896
  152.4864  134.4593  159.9652 H   0  0  0  0  0  0  0  0  0  0  0  0  # atno 6909 bound_to 6896
  146.1728  139.7055  142.8955 H   0  0  0  0  0  0  0  0  0  0  0  0  # atno 7974 bound_to 7965
  155.0651  140.3194  155.4648 H   0  0  0  0  0  0  0  0  0  0  0  0  # atno 8008 bound_to 7997
  156.2804  140.2122  156.5723 H   0  0  0  0  0  0  0  0  0  0  0  0  # atno 8009 bound_to 7997
  154.7100  140.0499  157.0529 H   0  0  0  0  0  0  0  0  0  0  0  0  # atno 8010 bound_to 7997
  140.6258  143.2437  151.5368 H   0  0  0  0  0  0  0  0  0  0  0  0  # atno 10167 bound_to 10162
  157.4837  130.8331  149.8122 H   0  0  0  0  0  0  0  0  0  0  0  0  # atno 10718 bound_to 10713
  153.3931  135.7002  153.6480 H   0  0  0  0  0  0  0  0  0  0  0  0  # atno 10763 bound_to 10752
  153.5044  135.3645  155.2556 H   0  0  0  0  0  0  0  0  0  0  0  0  # atno 10764 bound_to 10752
  154.8704  135.4120  154.3252 H   0  0  0  0  0  0  0  0  0  0  0  0  # atno 10765 bound_to 10752
  140.3991  134.6794  157.4551 H   0  0  0  0  0  0  0  0  0  0  0  0  # atno 11005 bound_to 11000
  145.4293  141.0414  143.2919 LP  0  0  0  0  0  0  0  0  0  0  0  0  # atno 17320 bound_to 7965
  144.8189  139.5826  143.6995 LP  0  0  0  0  0  0  0  0  0  0  0  0  # atno 17321 bound_to 7965
  139.5478  144.2474  152.1475 LP  0  0  0  0  0  0  0  0  0  0  0  0  # atno 17342 bound_to 10162
  140.1705  144.4940  150.6582 LP  0  0  0  0  0  0  0  0  0  0  0  0  # atno 17343 bound_to 10162
  156.0135  130.3823  150.2186 LP  0  0  0  0  0  0  0  0  0  0  0  0  # atno 17370 bound_to 10713
  157.0372  131.0025  151.3294 LP  0  0  0  0  0  0  0  0  0  0  0  0  # atno 17371 bound_to 10713
  140.0350  134.6351  155.9056 LP  0  0  0  0  0  0  0  0  0  0  0  0  # atno 17394 bound_to 11000
  141.1863  133.6557  156.5235 LP  0  0  0  0  0  0  0  0  0  0  0  0  # atno 17395 bound_to 11000

$$$$
