AV-unprocessed.smi:248|AV-procd|sdf|1897|dock10
  -GOLD-   2262020563D 1   1.00000     0.00000
 Structure written by MMmdl.
 62 65  0  0  0  0  0  0  0  0  1 V2000
  150.2966  141.6002  158.3443 C   0  0  0  0  0  0  0  0  0  0  0  0
  151.1855  142.2087  157.2491 C   0  0  0  0  0  0  0  0  0  0  0  0
  151.5128  143.6753  157.5798 C   0  0  0  0  0  0  0  0  0  0  0  0
  150.5356  142.0163  155.8584 C   0  0  0  0  0  0  0  0  0  0  0  0
  149.9119  140.6941  155.6854 N   0  0  0  0  0  0  0  0  0  0  0  0
  148.5119  140.6144  156.1253 C   0  0  0  0  0  0  0  0  0  0  0  0
  147.7446  139.4642  155.4666 C   0  0  0  0  0  0  0  0  0  0  0  0
  148.5232  138.2389  155.5745 N   0  0  0  0  0  0  0  0  0  0  0  0
  147.8059  137.1291  155.2820 C   0  0  0  0  0  0  0  0  0  0  0  0
  148.0757  135.9588  155.9182 N   0  0  0  0  0  0  0  0  0  0  0  0
  147.3589  134.8667  155.6361 C   0  0  0  0  0  0  0  0  0  0  0  0
  146.3467  134.7312  154.7762 N   0  0  0  0  0  0  0  0  0  0  0  0
  146.0721  135.9081  154.1425 C   0  0  0  0  0  0  0  0  0  0  0  0
  146.7547  137.1417  154.3286 C   0  0  0  0  0  0  0  0  0  0  0  0
  146.2122  138.1183  153.5044 N   0  0  0  0  0  0  0  0  0  0  0  0
  145.2568  137.4969  152.8683 C   0  0  0  0  0  0  0  0  0  0  0  0
  145.0855  136.1722  153.2074 N   0  0  0  0  0  0  0  0  0  0  0  0
  144.1042  135.2460  152.6573 C   0  0  0  0  0  0  0  0  0  0  0  0
  144.5216  134.4753  151.3634 C   0  0  0  0  0  0  0  0  0  0  0  0
  144.3079  135.5115  150.2191 C   0  0  0  0  0  0  0  0  0  0  0  0
  144.0677  134.9759  148.9367 O   0  0  0  0  0  0  0  0  0  0  0  0
  146.0007  134.0086  151.4601 C   0  0  0  0  0  0  0  0  0  0  0  0
  146.4001  132.9662  150.3993 C   0  0  0  0  0  0  0  0  0  0  0  0
  145.5116  131.8577  150.4494 O   0  0  0  0  0  0  0  0  0  0  0  0
  144.1699  132.2119  150.1412 C   0  0  0  0  0  0  0  0  0  0  0  0
  143.6337  133.2129  151.1824 C   0  0  0  0  0  0  0  0  0  0  0  0
  149.8651  138.2813  154.9764 C   0  0  2  0  0  0  0  0  0  0  0  0
  150.7411  137.1269  155.5150 C   0  0  0  0  0  0  0  0  0  0  0  0
  150.5820  139.6432  155.1464 C   0  0  0  0  0  0  0  0  0  0  0  0
  151.7489  139.7376  154.7626 O   0  0  0  0  0  0  0  0  0  0  0  0
  149.3361  142.1133  158.4045 H   0  0  0  0  0  0  0  0  0  0  0  0
  150.7731  141.6696  159.3225 H   0  0  0  0  0  0  0  0  0  0  0  0
  150.0987  140.5454  158.1510 H   0  0  0  0  0  0  0  0  0  0  0  0
  152.1257  141.6558  157.2570 H   0  0  0  0  0  0  0  0  0  0  0  0
  150.6207  144.3004  157.5292 H   0  0  0  0  0  0  0  0  0  0  0  0
  152.2516  144.0875  156.8928 H   0  0  0  0  0  0  0  0  0  0  0  0
  151.9264  143.7677  158.5844 H   0  0  0  0  0  0  0  0  0  0  0  0
  149.7819  142.7894  155.7035 H   0  0  0  0  0  0  0  0  0  0  0  0
  151.2775  142.2017  155.0799 H   0  0  0  0  0  0  0  0  0  0  0  0
  148.5106  140.4755  157.2073 H   0  0  0  0  0  0  0  0  0  0  0  0
  147.9852  141.5494  155.9316 H   0  0  0  0  0  0  0  0  0  0  0  0
  146.7699  139.3477  155.9437 H   0  0  0  0  0  0  0  0  0  0  0  0
  147.5630  139.6961  154.4153 H   0  0  0  0  0  0  0  0  0  0  0  0
  147.6341  133.9746  156.1793 H   0  0  0  0  0  0  0  0  0  0  0  0
  144.6395  137.9951  152.1349 H   0  0  0  0  0  0  0  0  0  0  0  0
  143.8501  134.5355  153.4452 H   0  0  0  0  0  0  0  0  0  0  0  0
  143.1918  135.8145  152.4709 H   0  0  0  0  0  0  0  0  0  0  0  0
  143.4654  136.1618  150.4571 H   0  0  0  0  0  0  0  0  0  0  0  0
  145.1804  136.1609  150.1364 H   0  0  0  0  0  0  0  0  0  0  0  0
  144.8013  135.1877  148.3798 H   0  0  0  0  0  0  0  0  0  0  0  0
  146.6746  134.8650  151.4209 H   0  0  0  0  0  0  0  0  0  0  0  0
  146.1775  133.5302  152.4215 H   0  0  0  0  0  0  0  0  0  0  0  0
  146.4310  133.3864  149.3951 H   0  0  0  0  0  0  0  0  0  0  0  0
  147.4079  132.6052  150.6060 H   0  0  0  0  0  0  0  0  0  0  0  0
  144.1009  132.5943  149.1240 H   0  0  0  0  0  0  0  0  0  0  0  0
  143.5645  131.3057  150.1632 H   0  0  0  0  0  0  0  0  0  0  0  0
  143.5759  132.6633  152.1198 H   0  0  0  0  0  0  0  0  0  0  0  0
  142.6101  133.4983  150.9378 H   0  0  0  0  0  0  0  0  0  0  0  0
  149.7551  138.1433  153.8995 H   0  0  0  0  0  0  0  0  0  0  0  0
  151.7464  137.1499  155.0932 H   0  0  0  0  0  0  0  0  0  0  0  0
  150.3265  136.1507  155.2630 H   0  0  0  0  0  0  0  0  0  0  0  0
  150.8364  137.1779  156.6004 H   0  0  0  0  0  0  0  0  0  0  0  0
  1  2  1  0  0  0  0
  1 31  1  0  0  0  0
  1 32  1  0  0  0  0
  1 33  1  0  0  0  0
  2  3  1  0  0  0  0
  2  4  1  0  0  0  0
  2 34  1  0  0  0  0
  3 35  1  0  0  0  0
  3 36  1  0  0  0  0
  3 37  1  0  0  0  0
  4  5  1  0  0  0  0
  4 38  1  0  0  0  0
  4 39  1  0  0  0  0
  5 29  1  0  0  0  0
  5  6  1  0  0  0  0
  6  7  1  0  0  0  0
  6 40  1  0  0  0  0
  6 41  1  0  0  0  0
  7  8  1  0  0  0  0
  7 42  1  0  0  0  0
  7 43  1  0  0  0  0
  8  9  1  0  0  0  0
  8 27  1  0  0  0  0
  9 14  1  0  0  0  0
  9 10  2  0  0  0  0
 10 11  1  0  0  0  0
 11 12  2  0  0  0  0
 11 44  1  0  0  0  0
 12 13  1  0  0  0  0
 13 17  1  0  0  0  0
 13 14  2  0  0  0  0
 14 15  1  0  0  0  0
 15 16  2  0  0  0  0
 16 17  1  0  0  0  0
 16 45  1  0  0  0  0
 17 18  1  0  0  0  0
 18 19  1  0  0  0  0
 18 46  1  0  0  0  0
 18 47  1  0  0  0  0
 19 26  1  0  0  0  0
 19 20  1  0  0  0  0
 19 22  1  0  0  0  0
 20 21  1  0  0  0  0
 20 48  1  0  0  0  0
 20 49  1  0  0  0  0
 21 50  1  0  0  0  0
 22 23  1  0  0  0  0
 22 51  1  0  0  0  0
 22 52  1  0  0  0  0
 23 24  1  0  0  0  0
 23 53  1  0  0  0  0
 23 54  1  0  0  0  0
 24 25  1  0  0  0  0
 25 26  1  0  0  0  0
 25 55  1  0  0  0  0
 25 56  1  0  0  0  0
 26 57  1  0  0  0  0
 26 58  1  0  0  0  0
 27 28  1  0  0  0  0
 27 29  1  0  0  0  0
 27 59  1  0  0  0  0
 28 60  1  0  0  0  0
 28 61  1  0  0  0  0
 28 62  1  0  0  0  0
 29 30  2  0  0  0  0
M  END
> <s_m_source_file>
AV-unprocessed.smi

> <i_m_source_file_index>
248

> <i_lp_mmshare_version>
43012

> <i_f3d_flags>
0

> <s_epik_input>
W0NIM11bQ0hdKFtDSDNdKVtDSDJdTjFbQ0gyXVtDSDJdTihbQ0BASF0oW0NIM10pQzE9TyljKG5bY0hdbjIpYyhjMjMpbltjSF1uM1tDSDJdQzQoW0NIMl1bT0hdKVtDSDJdW0NIMl1PW0NIMl1bQ0gyXTQ=

> <s_epik_cmdline>
J2VwaWtfcHl0aG9uJywgJy1waCcsICc3LjAnLCAnLXRuJywgJzgnLCAnLW1hJywgJzIwMCcsICctbWV0YWxfYmluZGluZycsICctaW1hZScsICc8aW5maWxlLm1hZT4nLCAnLW9tYWUnLCAnPG91dGZpbGUubWFlPic=

> <r_lp_tautomer_probability>
1

> <r_epik_Ionization_Penalty>
0.000593973

> <r_epik_Ionization_Penalty_Charging>
0

> <r_epik_Ionization_Penalty_Neutral>
0.000593973

> <r_epik_State_Penalty>
0.000283267

> <r_epik_Charging_Adjusted_Penalty>
0.000283267

> <i_epik_Tot_Q>
0

> <i_epik_Tot_abs_Q>
0

> <r_epik_Metal_State_Penalty>
-0

> <b_epik_Metal_Only>
0

> <s_lp_Force_Field>
OPLS_2005

> <r_lp_Energy>
47.3368

> <b_lp_Chiralities_Consistent>
1

> <s_lp_Variant>
AV-unprocessed.smi:248-2

> <Gold.Version>
5.8.1

> <Gold.Id.Protein>
6NUR|6NUR_protein|mol2

> <Gold.PLP.Fitness>
47.4608

> <Gold.PLP.PLP>
-40.7511

> <Gold.PLP.part.hbond>
-2.1788

> <Gold.PLP.part.metal>
0.0000

> <Gold.PLP.part.buried>
-6.9528

> <Gold.PLP.part.nonpolar>
-31.5980

> <Gold.PLP.part.repulsive>
0.5056

> <Gold.PLP.ligand.clash>
0.0000

> <Gold.PLP.ligand.torsion>
2.1615

> <Gold.PLP.Chemscore.Hbond>
2.0000

> <Gold.PLP.Chemscore.CHOScore>
1.5501

> <Gold.PLP.Chemscore.Metal>
0.0000

> <Gold.Chemscore.Hbonds>
donor molecule, donor type, donor heavy atom, donor atom, acceptor molecule, acceptor atom, score
      L1  H    21    50       P1  7921  1.00
      P1  H  7989  7998       L1    30  1.00
      L1  C    16    45       P1 10171  1.00
      L1  C    16    45       P1 10175  0.62

> <Gold.PLP.Chemscore.Internal.Correction>
0.3823

> <Gold.Rescore>
     Score         DG    S(hbond)    S(metal)    S(lipo)     H(rot)  DE(clash)    DE(int)     intcor
     10.68     -16.02       1.96        0.00      94.51       2.75       0.01       5.33       ----

> <Gold.Chemscore.Fitness>
10.6844

> <Gold.Chemscore.DG>
-16.0248

> <Gold.Chemscore.ZeroCoef>
-5.4800

> <Gold.Chemscore.Hbond>
1.9559

> <Gold.Chemscore.Metal>
0.0000

> <Gold.Chemscore.Lipo>
94.5123

> <Gold.Chemscore.Internal_Hbond>
0.0000

> <Gold.Chemscore.DEClash>
0.0111

> <Gold.Chemscore.DEInternal>
5.3294

> <Gold.Chemscore.Rot>
2.7523

> <Gold.Chemscore.Internal.Correction>
   9.000000E+99

> <Gold.Chemscore.Hbonds>
donor molecule, donor type, donor heavy atom, donor atom, acceptor molecule, acceptor atom, score
      L1  H    21    50       P1  7921  0.93
      P1  H  7989  7998       L1    30  0.43

> <Gold.Chemscore.Hbond.Weighted>
-6.5328

> <Gold.Chemscore.Metal.Weighted>
-0.0000

> <Gold.Chemscore.Lipo.Weighted>
-11.0579

> <Gold.Chemscore.Internal_Hbond.Weighted>
0.0000

> <Gold.Chemscore.DEClash.Weighted>
0.0111

> <Gold.Chemscore.DEInternal.Weighted>
5.3294

> <Gold.Chemscore.Rot.Weighted>
7.0459

> <Gold.Chemscore.Internal.Correction.Weighted>
   9.000000E+99

> <Gold.Protein.RotatedTorsions>
[ 6907 6896 6895 6894 ] final -152.64 input  -60.11 | X-H torsion
[ 7974 7965 7964 7962 ] final  109.74 input  175.53 | X-H torsion
[ 8008 7997 7996 7995 ] final -144.72 input   59.86 | X-H torsion
[ 10167 10162 10161 10158 ] final -150.10 input  -65.29 | X-H torsion
[ 10718 10713 10712 10709 ] final  137.42 input   66.30 | X-H torsion
[ 10763 10752 10751 10750 ] final -137.11 input  -60.55 | X-H torsion
[ 11005 11000 10999 10996 ] final  -40.78 input  -57.11 | X-H torsion

> <Gold.Protein.ActiveResidues>
 VAL166  LYS551  ARG553  GLY616  TRP617  ASP618  TYR619  PRO620  LYS621  CYS622 
 ASP623  PHE694  ASN695  SER759  ASP760  ASP761  ALA762  ILE779  LEU786  VAL792 
 PHE793  MET794  SER795  GLU796  ALA797  LYS798  CYS799  TRP800  GLU811  SER814 

> <Gold.Protein.RotatedAtoms>
  151.2308  133.4451  159.2603 H   0  0  0  0  0  0  0  0  0  0  0  0  # atno 6907 bound_to 6896
  151.0796  134.9850  159.8359 H   0  0  0  0  0  0  0  0  0  0  0  0  # atno 6908 bound_to 6896
  152.5422  134.2249  159.8855 H   0  0  0  0  0  0  0  0  0  0  0  0  # atno 6909 bound_to 6896
  145.2639  139.2692  143.4002 H   0  0  0  0  0  0  0  0  0  0  0  0  # atno 7974 bound_to 7965
  155.5316  140.0600  157.2888 H   0  0  0  0  0  0  0  0  0  0  0  0  # atno 8008 bound_to 7997
  154.4482  140.1935  156.0545 H   0  0  0  0  0  0  0  0  0  0  0  0  # atno 8009 bound_to 7997
  156.0648  140.3268  155.7509 H   0  0  0  0  0  0  0  0  0  0  0  0  # atno 8010 bound_to 7997
  139.7384  143.8700  152.2555 H   0  0  0  0  0  0  0  0  0  0  0  0  # atno 10167 bound_to 10162
  157.4362  131.1053  151.0194 H   0  0  0  0  0  0  0  0  0  0  0  0  # atno 10718 bound_to 10713
  154.8669  135.3652  154.5169 H   0  0  0  0  0  0  0  0  0  0  0  0  # atno 10763 bound_to 10752
  153.5801  135.7018  153.5471 H   0  0  0  0  0  0  0  0  0  0  0  0  # atno 10764 bound_to 10752
  153.3464  135.4084  155.1575 H   0  0  0  0  0  0  0  0  0  0  0  0  # atno 10765 bound_to 10752
  141.0199  133.6868  156.2367 H   0  0  0  0  0  0  0  0  0  0  0  0  # atno 11005 bound_to 11000
  146.3267  140.3063  142.8624 LP  0  0  0  0  0  0  0  0  0  0  0  0  # atno 17320 bound_to 7965
  144.9394  140.8062  143.5640 LP  0  0  0  0  0  0  0  0  0  0  0  0  # atno 17321 bound_to 7965
  139.8643  144.7101  150.9062 LP  0  0  0  0  0  0  0  0  0  0  0  0  # atno 17342 bound_to 10162
  140.7782  143.3791  151.1510 LP  0  0  0  0  0  0  0  0  0  0  0  0  # atno 17343 bound_to 10162
  157.1073  130.6007  149.5474 LP  0  0  0  0  0  0  0  0  0  0  0  0  # atno 17370 bound_to 10713
  155.9931  130.4991  150.7369 LP  0  0  0  0  0  0  0  0  0  0  0  0  # atno 17371 bound_to 10713
  140.6591  134.4986  157.5582 LP  0  0  0  0  0  0  0  0  0  0  0  0  # atno 17394 bound_to 11000
  139.9139  134.8286  156.1431 LP  0  0  0  0  0  0  0  0  0  0  0  0  # atno 17395 bound_to 11000

$$$$
