AV-unprocessed.smi:1472|AV-procd|sdf|5965|dock8
  -GOLD-   22720 6 53D 1   1.00000     0.00000
 Structure written by MMmdl.
 42 43  0  0  0  0  0  0  0  0  2 V2000
  150.5636  137.8579  158.2304 C   0  0  0  0  0  0  0  0  0  0  0  0
  152.1954  137.9461  157.3861 S   0  0  0  0  0  0  0  0  0  0  0  0
  153.1166  138.7059  158.2449 O   0  0  0  0  0  0  0  0  0  0  0  0
  152.5584  136.5892  156.9492 O   0  0  0  0  0  0  0  0  0  0  0  0
  151.8861  138.8973  155.9618 N   0  0  0  0  0  0  0  0  0  0  0  0
  151.6387  138.2282  154.6697 C   0  0  0  0  0  0  0  0  0  0  0  0
  150.1392  138.1964  154.3227 C   0  0  0  0  0  0  0  0  0  0  0  0
  149.5168  139.6045  154.3644 C   0  0  0  0  0  0  0  0  0  0  0  0
  148.0086  139.6040  154.0337 C   0  0  0  0  0  0  0  0  0  0  0  0
  147.6282  138.5155  153.1379 N   0  0  0  0  0  0  0  0  0  0  0  0
  146.3914  138.0107  153.0230 C   0  0  0  0  0  0  0  0  0  0  0  0
  145.4336  138.4069  153.6864 O   0  0  0  0  0  0  0  0  0  0  0  0
  146.3496  137.0212  152.1136 N   0  0  0  0  0  0  0  0  0  0  0  0
  145.2251  136.2728  151.6693 C   0  0  0  0  0  0  0  0  0  0  0  0
  145.3876  135.4681  150.5195 C   0  0  0  0  0  0  0  0  0  0  0  0
  144.2945  134.7237  150.0305 C   0  0  0  0  0  0  0  0  0  0  0  0
  143.1005  134.7913  150.6572 N   0  3  0  0  0  0  0  0  0  0  0  0
  142.8927  135.5560  151.7505 C   0  0  0  0  0  0  0  0  0  0  0  0
  143.9481  136.3230  152.2850 C   0  0  0  0  0  0  0  0  0  0  0  0
  149.7803  140.2186  155.7486 C   0  0  0  0  0  0  0  0  0  0  0  0
  151.2816  140.2385  156.0846 C   0  0  0  0  0  0  0  0  0  0  0  0
  150.6694  137.2805  159.1484 H   0  0  0  0  0  0  0  0  0  0  0  0
  149.8389  137.3637  157.5859 H   0  0  0  0  0  0  0  0  0  0  0  0
  150.2193  138.8596  158.4802 H   0  0  0  0  0  0  0  0  0  0  0  0
  152.1808  138.7696  153.8935 H   0  0  0  0  0  0  0  0  0  0  0  0
  152.0475  137.2182  154.6814 H   0  0  0  0  0  0  0  0  0  0  0  0
  150.0175  137.7584  153.3317 H   0  0  0  0  0  0  0  0  0  0  0  0
  149.6094  137.5391  155.0109 H   0  0  0  0  0  0  0  0  0  0  0  0
  150.0278  140.2236  153.6253 H   0  0  0  0  0  0  0  0  0  0  0  0
  147.4268  139.5047  154.9505 H   0  0  0  0  0  0  0  0  0  0  0  0
  147.7180  140.5578  153.5899 H   0  0  0  0  0  0  0  0  0  0  0  0
  148.3599  138.1261  152.5616 H   0  0  0  0  0  0  0  0  0  0  0  0
  147.2371  136.7450  151.7193 H   0  0  0  0  0  0  0  0  0  0  0  0
  146.3420  135.4148  150.0155 H   0  0  0  0  0  0  0  0  0  0  0  0
  144.3389  134.0831  149.1619 H   0  0  0  0  0  0  0  0  0  0  0  0
  141.8929  135.5378  152.1592 H   0  0  0  0  0  0  0  0  0  0  0  0
  143.7528  136.9430  153.1466 H   0  0  0  0  0  0  0  0  0  0  0  0
  149.3926  141.2373  155.7812 H   0  0  0  0  0  0  0  0  0  0  0  0
  149.2343  139.6637  156.5107 H   0  0  0  0  0  0  0  0  0  0  0  0
  151.4418  140.6380  157.0857 H   0  0  0  0  0  0  0  0  0  0  0  0
  151.7990  140.9117  155.4000 H   0  0  0  0  0  0  0  0  0  0  0  0
  142.3217  134.2462  150.2864 H   0  0  0  0  0  0  0  0  0  0  0  0
  1  2  1  0  0  0  0
  1 22  1  0  0  0  0
  1 23  1  0  0  0  0
  1 24  1  0  0  0  0
  2  3  2  0  0  0  0
  2  4  2  0  0  0  0
  2  5  1  0  0  0  0
  5 21  1  0  0  0  0
  5  6  1  0  0  0  0
  6  7  1  0  0  0  0
  6 25  1  0  0  0  0
  6 26  1  0  0  0  0
  7  8  1  0  0  0  0
  7 27  1  0  0  0  0
  7 28  1  0  0  0  0
  8  9  1  0  0  0  0
  8 20  1  0  0  0  0
  8 29  1  0  0  0  0
  9 10  1  0  0  0  0
  9 30  1  0  0  0  0
  9 31  1  0  0  0  0
 10 11  1  0  0  0  0
 10 32  1  0  0  0  0
 11 12  2  0  0  0  0
 11 13  1  0  0  0  0
 13 14  1  0  0  0  0
 13 33  1  0  0  0  0
 14 19  1  0  0  0  0
 14 15  2  0  0  0  0
 15 16  1  0  0  0  0
 15 34  1  0  0  0  0
 16 17  2  0  0  0  0
 16 35  1  0  0  0  0
 17 18  1  0  0  0  0
 17 42  1  0  0  0  0
 18 19  2  0  0  0  0
 18 36  1  0  0  0  0
 19 37  1  0  0  0  0
 20 21  1  0  0  0  0
 20 38  1  0  0  0  0
 20 39  1  0  0  0  0
 21 40  1  0  0  0  0
 21 41  1  0  0  0  0
M  CHG  1  17   1
M  END
> <s_m_source_file>
AV-unprocessed.smi

> <i_m_source_file_index>
1472

> <i_lp_mmshare_version>
43012

> <i_f3d_flags>
0

> <s_epik_input>
W0NIM11TKD1PKSg9TylOMVtDSDJdW0NIMl1bQ0hdKFtDSDJdW0NIMl0xKVtDSDJdW05IXUMoPU8pW05IXWMyW2NIXVtjSF1uW2NIXVtjSF0y

> <s_epik_cmdline>
J2VwaWtfcHl0aG9uJywgJy1waCcsICc3LjAnLCAnLXRuJywgJzgnLCAnLW1hJywgJzIwMCcsICctbWV0YWxfYmluZGluZycsICctaW1hZScsICc8aW5maWxlLm1hZT4nLCAnLW9tYWUnLCAnPG91dGZpbGUubWFlPic=

> <r_epik_Ionization_Penalty>
1.02593

> <r_epik_Ionization_Penalty_Charging>
1.02591

> <r_epik_Ionization_Penalty_Neutral>
2.05222e-05

> <r_epik_State_Penalty>
1.07662

> <r_epik_Charging_Adjusted_Penalty>
2.10252

> <i_epik_Tot_Q>
1

> <i_epik_Tot_abs_Q>
1

> <r_epik_Metal_State_Penalty>
1.17465

> <b_epik_Metal_Only>
0

> <s_lp_Force_Field>
OPLS_2005

> <r_lp_Energy>
12.5629

> <b_lp_Chiralities_Consistent>
1

> <s_lp_Variant>
AV-unprocessed.smi:1472-2

> <Gold.Version>
5.8.1

> <Gold.Id.Protein>
6NUR|6NUR_protein|mol2

> <Gold.PLP.Fitness>
49.4684

> <Gold.PLP.PLP>
-35.8049

> <Gold.PLP.part.hbond>
-5.4882

> <Gold.PLP.part.metal>
0.0000

> <Gold.PLP.part.buried>
-5.2098

> <Gold.PLP.part.nonpolar>
-27.9713

> <Gold.PLP.part.repulsive>
0.2155

> <Gold.PLP.ligand.clash>
0.0000

> <Gold.PLP.ligand.torsion>
1.6093

> <Gold.PLP.Chemscore.Hbond>
4.9420

> <Gold.PLP.Chemscore.CHOScore>
0.0000

> <Gold.PLP.Chemscore.Metal>
0.0000

> <Gold.Chemscore.Hbonds>
donor molecule, donor type, donor heavy atom, donor atom, acceptor molecule, acceptor atom, score
      L1  H    10    32       P1  7948  0.69
      L1  H    13    33       P1  7948  1.00
      L1  H    17    42       P1 10186  1.53
      P1  H  7997  8010       L1     3  0.18
      P1  H 10752 10765       L1     4  0.46

> <Gold.PLP.Chemscore.Internal.Correction>
2.0561

> <Gold.Rescore>
     Score         DG    S(hbond)    S(metal)    S(lipo)     H(rot)  DE(clash)    DE(int)     intcor
     20.40     -23.46       3.95        0.00      69.51       1.30       0.19       2.86       ----

> <Gold.Chemscore.Fitness>
20.4000

> <Gold.Chemscore.DG>
-23.4572

> <Gold.Chemscore.ZeroCoef>
-5.4800

> <Gold.Chemscore.Hbond>
3.9463

> <Gold.Chemscore.Metal>
0.0000

> <Gold.Chemscore.Lipo>
69.5091

> <Gold.Chemscore.Internal_Hbond>
0.0000

> <Gold.Chemscore.DEClash>
0.1928

> <Gold.Chemscore.DEInternal>
2.8644

> <Gold.Chemscore.Rot>
1.3031

> <Gold.Chemscore.Internal.Correction>
   9.000000E+99

> <Gold.Chemscore.Hbonds>
donor molecule, donor type, donor heavy atom, donor atom, acceptor molecule, acceptor atom, score
      L1  H    10    32       P1  7948  0.66
      L1  H    13    33       P1  7948  0.98
      L1  H    17    42       P1 10186  0.53
      P1  H  7997  8010       L1     3  0.18
      P1  H 10752 10765       L1     4  0.45

> <Gold.Chemscore.Hbond.Weighted>
-13.1806

> <Gold.Chemscore.Metal.Weighted>
-0.0000

> <Gold.Chemscore.Lipo.Weighted>
-8.1326

> <Gold.Chemscore.Internal_Hbond.Weighted>
0.0000

> <Gold.Chemscore.DEClash.Weighted>
0.1928

> <Gold.Chemscore.DEInternal.Weighted>
2.8644

> <Gold.Chemscore.Rot.Weighted>
3.3359

> <Gold.Chemscore.Internal.Correction.Weighted>
   9.000000E+99

> <Gold.Protein.RotatedTorsions>
[ 6907 6896 6895 6894 ] final  -81.46 input  -60.11 | X-H torsion
[ 7974 7965 7964 7962 ] final   -7.39 input  175.53 | X-H torsion
[ 8008 7997 7996 7995 ] final   20.64 input   59.86 | X-H torsion
[ 10167 10162 10161 10158 ] final  176.51 input  -65.29 | X-H torsion
[ 10718 10713 10712 10709 ] final   28.20 input   66.30 | X-H torsion
[ 10763 10752 10751 10750 ] final -118.59 input  -60.55 | X-H torsion
[ 11005 11000 10999 10996 ] final   63.99 input  -57.11 | X-H torsion

> <Gold.Protein.ActiveResidues>
 VAL166  LYS551  ARG553  GLY616  TRP617  ASP618  TYR619  PRO620  LYS621  CYS622 
 ASP623  PHE694  ASN695  SER759  ASP760  ASP761  ALA762  ILE779  LEU786  VAL792 
 PHE793  MET794  SER795  GLU796  ALA797  LYS798  CYS799  TRP800  GLU811  SER814 

> <Gold.Protein.RotatedAtoms>
  150.6912  134.3814  159.5035 H   0  0  0  0  0  0  0  0  0  0  0  0  # atno 6907 bound_to 6896
  152.1616  134.8905  160.0550 H   0  0  0  0  0  0  0  0  0  0  0  0  # atno 6908 bound_to 6896
  151.9965  133.3775  159.4202 H   0  0  0  0  0  0  0  0  0  0  0  0  # atno 6909 bound_to 6896
  146.2308  140.2312  142.8340 H   0  0  0  0  0  0  0  0  0  0  0  0  # atno 7974 bound_to 7965
  154.9387  140.3050  155.5131 H   0  0  0  0  0  0  0  0  0  0  0  0  # atno 8008 bound_to 7997
  156.2998  140.2340  156.4391 H   0  0  0  0  0  0  0  0  0  0  0  0  # atno 8009 bound_to 7997
  154.8167  140.0425  157.1370 H   0  0  0  0  0  0  0  0  0  0  0  0  # atno 8010 bound_to 7997
  139.5217  144.2907  152.0466 H   0  0  0  0  0  0  0  0  0  0  0  0  # atno 10167 bound_to 10162
  157.2303  130.7021  149.6310 H   0  0  0  0  0  0  0  0  0  0  0  0  # atno 10718 bound_to 10713
  154.8592  135.4268  154.2163 H   0  0  0  0  0  0  0  0  0  0  0  0  # atno 10763 bound_to 10752
  153.3177  135.6980  153.7064 H   0  0  0  0  0  0  0  0  0  0  0  0  # atno 10764 bound_to 10752
  153.6131  135.3515  155.2959 H   0  0  0  0  0  0  0  0  0  0  0  0  # atno 10765 bound_to 10752
  139.9988  134.6475  155.9965 H   0  0  0  0  0  0  0  0  0  0  0  0  # atno 11005 bound_to 11000
  144.9557  140.8224  143.5545 LP  0  0  0  0  0  0  0  0  0  0  0  0  # atno 17320 bound_to 7965
  145.2277  139.2129  143.5059 LP  0  0  0  0  0  0  0  0  0  0  0  0  # atno 17321 bound_to 7965
  140.2358  144.4321  150.6281 LP  0  0  0  0  0  0  0  0  0  0  0  0  # atno 17342 bound_to 10162
  140.6324  143.2189  151.6466 LP  0  0  0  0  0  0  0  0  0  0  0  0  # atno 17343 bound_to 10162
  155.9676  130.4491  150.5644 LP  0  0  0  0  0  0  0  0  0  0  0  0  # atno 17370 bound_to 10713
  157.3485  131.0729  151.1732 LP  0  0  0  0  0  0  0  0  0  0  0  0  # atno 17371 bound_to 10713
  141.1625  133.6538  156.4368 LP  0  0  0  0  0  0  0  0  0  0  0  0  # atno 17394 bound_to 11000
  140.4767  134.6702  157.5153 LP  0  0  0  0  0  0  0  0  0  0  0  0  # atno 17395 bound_to 11000

$$$$
