AV-unprocessed.smi:875|AV-procd|sdf|4018|dock7
  -GOLD-   22720 1503D 1   1.00000     0.00000
 Structure written by MMmdl.
 37 38  0  0  0  0  0  0  0  0  1 V2000
  147.9260  139.3936  153.0205 C   0  0  0  0  0  0  0  0  0  0  0  0
  149.1651  138.6654  153.2444 N   0  0  0  0  0  0  0  0  0  0  0  0
  150.2477  139.1824  153.8449 C   0  0  0  0  0  0  0  0  0  0  0  0
  150.3020  140.3413  154.2564 O   0  0  0  0  0  0  0  0  0  0  0  0
  151.4607  138.2604  153.9956 C   0  0  0  0  0  0  0  0  0  0  0  0
  152.1221  138.4531  155.3238 C   0  0  0  0  0  0  0  0  0  0  0  0
  153.1266  137.6775  155.7162 N   0  0  0  0  0  0  0  0  0  0  0  0
  153.4529  138.1854  156.9820 O   0  0  0  0  0  0  0  0  0  0  0  0
  152.5965  139.2116  157.2025 C   0  0  0  0  0  0  0  0  0  0  0  0
  152.6906  139.9607  158.4908 C   0  0  0  0  0  0  0  0  0  0  0  0
  152.2696  141.2941  158.2371 O   0  0  0  0  0  0  0  0  0  0  0  0
  152.7623  142.2547  159.1619 C   0  0  0  0  0  0  0  0  0  0  0  0
  152.6626  141.7363  160.6128 C   0  0  0  0  0  0  0  0  0  0  0  0
  153.0661  142.8216  161.6245 C   0  0  0  0  0  0  0  0  0  0  0  0
  152.2318  144.0988  161.4389 C   0  0  0  0  0  0  0  0  0  0  0  0
  152.3260  144.6175  159.9954 C   0  0  0  0  0  0  0  0  0  0  0  0
  151.9196  143.5305  158.9871 C   0  0  0  0  0  0  0  0  0  0  0  0
  151.7379  139.4177  156.2056 N   0  0  0  0  0  0  0  0  0  0  0  0
  147.1926  138.7418  152.5460 H   0  0  0  0  0  0  0  0  0  0  0  0
  148.0931  140.2520  152.3687 H   0  0  0  0  0  0  0  0  0  0  0  0
  147.5070  139.7476  153.9635 H   0  0  0  0  0  0  0  0  0  0  0  0
  149.2001  137.7045  152.9343 H   0  0  0  0  0  0  0  0  0  0  0  0
  151.1440  137.2222  153.8875 H   0  0  0  0  0  0  0  0  0  0  0  0
  152.1785  138.4570  153.1979 H   0  0  0  0  0  0  0  0  0  0  0  0
  152.0584  139.4695  159.2300 H   0  0  0  0  0  0  0  0  0  0  0  0
  153.7212  139.9407  158.8479 H   0  0  0  0  0  0  0  0  0  0  0  0
  153.8008  142.4945  158.9257 H   0  0  0  0  0  0  0  0  0  0  0  0
  151.6413  141.4111  160.8158 H   0  0  0  0  0  0  0  0  0  0  0  0
  153.2988  140.8635  160.7564 H   0  0  0  0  0  0  0  0  0  0  0  0
  152.9468  142.4450  162.6408 H   0  0  0  0  0  0  0  0  0  0  0  0
  154.1244  143.0569  161.5044 H   0  0  0  0  0  0  0  0  0  0  0  0
  151.1895  143.8935  161.6868 H   0  0  0  0  0  0  0  0  0  0  0  0
  152.5690  144.8684  162.1338 H   0  0  0  0  0  0  0  0  0  0  0  0
  151.6891  145.4941  159.8739 H   0  0  0  0  0  0  0  0  0  0  0  0
  153.3459  144.9445  159.7895 H   0  0  0  0  0  0  0  0  0  0  0  0
  152.0277  143.9113  157.9709 H   0  0  0  0  0  0  0  0  0  0  0  0
  150.8627  143.2930  159.1165 H   0  0  0  0  0  0  0  0  0  0  0  0
  1  2  1  0  0  0  0
  1 19  1  0  0  0  0
  1 20  1  0  0  0  0
  1 21  1  0  0  0  0
  2  3  1  0  0  0  0
  2 22  1  0  0  0  0
  3  4  2  0  0  0  0
  3  5  1  0  0  0  0
  5  6  1  0  0  0  0
  5 23  1  0  0  0  0
  5 24  1  0  0  0  0
  6 18  1  0  0  0  0
  6  7  2  0  0  0  0
  7  8  1  0  0  0  0
  8  9  1  0  0  0  0
  9 10  1  0  0  0  0
  9 18  2  0  0  0  0
 10 11  1  0  0  0  0
 10 25  1  0  0  0  0
 10 26  1  0  0  0  0
 11 12  1  0  0  0  0
 12 17  1  0  0  0  0
 12 13  1  0  0  0  0
 12 27  1  0  0  0  0
 13 14  1  0  0  0  0
 13 28  1  0  0  0  0
 13 29  1  0  0  0  0
 14 15  1  0  0  0  0
 14 30  1  0  0  0  0
 14 31  1  0  0  0  0
 15 16  1  0  0  0  0
 15 32  1  0  0  0  0
 15 33  1  0  0  0  0
 16 17  1  0  0  0  0
 16 34  1  0  0  0  0
 16 35  1  0  0  0  0
 17 36  1  0  0  0  0
 17 37  1  0  0  0  0
M  END
> <s_m_source_file>
AV-unprocessed.smi

> <i_m_source_file_index>
875

> <i_lp_mmshare_version>
43012

> <i_f3d_flags>
0

> <s_epik_input>
W0NIM11bTkhdQyg9TylbQ0gyXWMxbm9jKG4xKVtDSDJdT1tDSF0yW0NIMl1bQ0gyXVtDSDJdW0NIMl1bQ0gyXTI=

> <s_epik_cmdline>
J2VwaWtfcHl0aG9uJywgJy1waCcsICc3LjAnLCAnLXRuJywgJzgnLCAnLW1hJywgJzIwMCcsICctbWV0YWxfYmluZGluZycsICctaW1hZScsICc8aW5maWxlLm1hZT4nLCAnLW9tYWUnLCAnPG91dGZpbGUubWFlPic=

> <r_lp_tautomer_probability>
1

> <r_epik_Ionization_Penalty>
1.02915e-07

> <r_epik_Ionization_Penalty_Charging>
0

> <r_epik_Ionization_Penalty_Neutral>
1.02915e-07

> <r_epik_State_Penalty>
-0

> <r_epik_Charging_Adjusted_Penalty>
0

> <i_epik_Tot_Q>
0

> <i_epik_Tot_abs_Q>
0

> <r_epik_Metal_State_Penalty>
-0

> <b_epik_Metal_Only>
0

> <s_lp_Force_Field>
OPLS_2005

> <r_lp_Energy>
10.4582

> <b_lp_Chiralities_Consistent>
1

> <s_lp_Variant>
AV-unprocessed.smi:875-1

> <Gold.Version>
5.8.1

> <Gold.Id.Protein>
6NUR|6NUR_protein|mol2

> <Gold.PLP.Fitness>
44.0793

> <Gold.PLP.PLP>
-39.3560

> <Gold.PLP.part.hbond>
-5.0000

> <Gold.PLP.part.metal>
0.0000

> <Gold.PLP.part.buried>
-3.0338

> <Gold.PLP.part.nonpolar>
-30.3018

> <Gold.PLP.part.repulsive>
0.1578

> <Gold.PLP.ligand.clash>
0.0000

> <Gold.PLP.ligand.torsion>
0.9299

> <Gold.PLP.Chemscore.Hbond>
2.1886

> <Gold.PLP.Chemscore.CHOScore>
0.0000

> <Gold.PLP.Chemscore.Metal>
0.0000

> <Gold.Chemscore.Hbonds>
donor molecule, donor type, donor heavy atom, donor atom, acceptor molecule, acceptor atom, score
      L1  H     2    22       P1  7948  1.00
      P1  H  7989  7998       L1     4  0.98
      P1  H 10752 10765       L1     7  0.16

> <Gold.PLP.Chemscore.Internal.Correction>
0.0175

> <Gold.Rescore>
     Score         DG    S(hbond)    S(metal)    S(lipo)     H(rot)  DE(clash)    DE(int)     intcor
     15.39     -18.82       2.57        0.00      88.25       2.18       0.71       2.73       ----

> <Gold.Chemscore.Fitness>
15.3869

> <Gold.Chemscore.DG>
-18.8248

> <Gold.Chemscore.ZeroCoef>
-5.4800

> <Gold.Chemscore.Hbond>
2.5720

> <Gold.Chemscore.Metal>
0.0000

> <Gold.Chemscore.Lipo>
88.2534

> <Gold.Chemscore.Internal_Hbond>
0.0000

> <Gold.Chemscore.DEClash>
0.7105

> <Gold.Chemscore.DEInternal>
2.7275

> <Gold.Chemscore.Rot>
2.1763

> <Gold.Chemscore.Internal.Correction>
   9.000000E+99

> <Gold.Chemscore.Hbonds>
donor molecule, donor type, donor heavy atom, donor atom, acceptor molecule, acceptor atom, score
      L1  H     2    22       P1  7948  0.98
      P1  H  7989  7998       L1     4  0.28
      P1  H 10752 10765       L1     7  0.16

> <Gold.Chemscore.Hbond.Weighted>
-8.5904

> <Gold.Chemscore.Metal.Weighted>
-0.0000

> <Gold.Chemscore.Lipo.Weighted>
-10.3257

> <Gold.Chemscore.Internal_Hbond.Weighted>
0.0000

> <Gold.Chemscore.DEClash.Weighted>
0.7105

> <Gold.Chemscore.DEInternal.Weighted>
2.7275

> <Gold.Chemscore.Rot.Weighted>
5.5712

> <Gold.Chemscore.Internal.Correction.Weighted>
   9.000000E+99

> <Gold.Protein.RotatedTorsions>
[ 6907 6896 6895 6894 ] final   51.94 input  -60.11 | X-H torsion
[ 7974 7965 7964 7962 ] final   26.79 input  175.53 | X-H torsion
[ 8008 7997 7996 7995 ] final  148.18 input   59.86 | X-H torsion
[ 10167 10162 10161 10158 ] final -162.32 input  -65.29 | X-H torsion
[ 10718 10713 10712 10709 ] final    6.11 input   66.30 | X-H torsion
[ 10763 10752 10751 10750 ] final -147.95 input  -60.55 | X-H torsion
[ 11005 11000 10999 10996 ] final   41.92 input  -57.11 | X-H torsion

> <Gold.Protein.ActiveResidues>
 VAL166  LYS551  ARG553  GLY616  TRP617  ASP618  TYR619  PRO620  LYS621  CYS622 
 ASP623  PHE694  ASN695  SER759  ASP760  ASP761  ALA762  ILE779  LEU786  VAL792 
 PHE793  MET794  SER795  GLU796  ALA797  LYS798  CYS799  TRP800  GLU811  SER814 

> <Gold.Protein.RotatedAtoms>
  152.3180  134.7416  160.0320 H   0  0  0  0  0  0  0  0  0  0  0  0  # atno 6907 bound_to 6896
  151.7874  133.3350  159.3497 H   0  0  0  0  0  0  0  0  0  0  0  0  # atno 6908 bound_to 6896
  150.7355  134.5805  159.5981 H   0  0  0  0  0  0  0  0  0  0  0  0  # atno 6909 bound_to 6896
  146.1819  139.7279  142.8894 H   0  0  0  0  0  0  0  0  0  0  0  0  # atno 7974 bound_to 7965
  156.2800  140.2135  156.5657 H   0  0  0  0  0  0  0  0  0  0  0  0  # atno 8008 bound_to 7997
  154.7177  140.0506  157.0633 H   0  0  0  0  0  0  0  0  0  0  0  0  # atno 8009 bound_to 7997
  155.0521  140.3157  155.4691 H   0  0  0  0  0  0  0  0  0  0  0  0  # atno 8010 bound_to 7997
  139.6401  144.0276  152.2085 H   0  0  0  0  0  0  0  0  0  0  0  0  # atno 10167 bound_to 10162
  156.9173  130.5778  149.5647 H   0  0  0  0  0  0  0  0  0  0  0  0  # atno 10718 bound_to 10713
  154.8259  135.3347  154.6897 H   0  0  0  0  0  0  0  0  0  0  0  0  # atno 10763 bound_to 10752
  153.7523  135.6938  153.4947 H   0  0  0  0  0  0  0  0  0  0  0  0  # atno 10764 bound_to 10752
  153.2168  135.4463  155.0393 H   0  0  0  0  0  0  0  0  0  0  0  0  # atno 10765 bound_to 10752
  140.1788  134.4130  155.8212 H   0  0  0  0  0  0  0  0  0  0  0  0  # atno 11005 bound_to 11000
  145.4052  141.0390  143.3048 LP  0  0  0  0  0  0  0  0  0  0  0  0  # atno 17320 bound_to 7965
  144.8329  139.5598  143.6935 LP  0  0  0  0  0  0  0  0  0  0  0  0  # atno 17321 bound_to 7965
  139.9963  144.6325  150.7769 LP  0  0  0  0  0  0  0  0  0  0  0  0  # atno 17342 bound_to 10162
  140.7486  143.2925  151.3292 LP  0  0  0  0  0  0  0  0  0  0  0  0  # atno 17343 bound_to 10162
  156.0507  130.5577  150.8983 LP  0  0  0  0  0  0  0  0  0  0  0  0  # atno 17370 bound_to 10713
  157.5930  131.0944  150.9088 LP  0  0  0  0  0  0  0  0  0  0  0  0  # atno 17371 bound_to 10713
  141.2222  133.6990  156.7894 LP  0  0  0  0  0  0  0  0  0  0  0  0  # atno 17394 bound_to 11000
  140.2291  134.8699  157.3458 LP  0  0  0  0  0  0  0  0  0  0  0  0  # atno 17395 bound_to 11000

$$$$
