AV-unprocessed.smi:1473|AV-procd|sdf|5973|dock2
  -GOLD-   22720 6 63D 1   1.00000     0.00000
 Structure written by MMmdl.
 34 35  0  0  0  0  0  0  0  0  3 V2000
  153.6849  136.2052  157.1919 N   0  5  0  0  0  0  0  0  0  0  0  0
  152.8894  137.5725  157.5150 S   0  0  0  0  0  0  0  0  0  0  0  0
  151.5204  137.3510  158.0048 O   0  0  0  0  0  0  0  0  0  0  0  0
  153.7251  138.5830  158.1811 O   0  0  0  0  0  0  0  0  0  0  0  0
  152.7349  138.0979  155.8807 N   0  0  0  0  0  0  0  0  0  0  0  0
  151.4076  138.2342  155.2805 C   0  0  0  0  0  0  0  0  0  0  0  0
  150.8145  139.6026  155.5377 C   0  0  0  0  0  0  0  0  0  0  0  0
  149.8328  140.1236  154.6680 C   0  0  0  0  0  0  0  0  0  0  0  0
  149.3095  141.4076  154.9149 C   0  0  0  0  0  0  0  0  0  0  0  0
  149.7529  142.1222  155.9726 N   0  3  0  0  0  0  0  0  0  0  0  0
  150.6924  141.6669  156.8315 C   0  0  0  0  0  0  0  0  0  0  0  0
  151.0702  142.5176  157.8785 N   0  0  0  0  0  0  0  0  0  0  0  0
  151.9940  141.9093  158.8277 C   0  0  0  0  0  0  0  0  0  0  0  0
  152.2651  142.8788  159.9909 C   0  0  0  0  0  0  0  0  0  0  0  0
  152.7544  144.1133  159.4748 O   0  0  0  0  0  0  0  0  0  0  0  0
  151.8152  144.7407  158.6062 C   0  0  0  0  0  0  0  0  0  0  0  0
  151.5265  143.8192  157.4085 C   0  0  0  0  0  0  0  0  0  0  0  0
  151.2515  140.3834  156.6294 C   0  0  0  0  0  0  0  0  0  0  0  0
  153.8067  135.6890  158.0714 H   0  0  0  0  0  0  0  0  0  0  0  0
  153.4148  137.6518  155.2662 H   0  0  0  0  0  0  0  0  0  0  0  0
  151.4631  138.0696  154.2037 H   0  0  0  0  0  0  0  0  0  0  0  0
  150.7573  137.4559  155.6803 H   0  0  0  0  0  0  0  0  0  0  0  0
  149.4911  139.5471  153.8196 H   0  0  0  0  0  0  0  0  0  0  0  0
  148.5584  141.8821  154.3003 H   0  0  0  0  0  0  0  0  0  0  0  0
  151.5734  140.9770  159.2066 H   0  0  0  0  0  0  0  0  0  0  0  0
  152.9327  141.6628  158.3299 H   0  0  0  0  0  0  0  0  0  0  0  0
  151.3600  143.0498  160.5761 H   0  0  0  0  0  0  0  0  0  0  0  0
  153.0077  142.4570  160.6683 H   0  0  0  0  0  0  0  0  0  0  0  0
  150.8980  144.9713  159.1503 H   0  0  0  0  0  0  0  0  0  0  0  0
  152.2280  145.6887  158.2609 H   0  0  0  0  0  0  0  0  0  0  0  0
  152.4294  143.6978  156.8080 H   0  0  0  0  0  0  0  0  0  0  0  0
  150.7686  144.2682  156.7652 H   0  0  0  0  0  0  0  0  0  0  0  0
  152.0127  140.0027  157.2950 H   0  0  0  0  0  0  0  0  0  0  0  0
  149.3605  143.0509  156.1290 H   0  0  0  0  0  0  0  0  0  0  0  0
  1  2  1  0  0  0  0
  1 19  1  0  0  0  0
  2  3  2  0  0  0  0
  2  4  2  0  0  0  0
  2  5  1  0  0  0  0
  5  6  1  0  0  0  0
  5 20  1  0  0  0  0
  6  7  1  0  0  0  0
  6 21  1  0  0  0  0
  6 22  1  0  0  0  0
  7 18  1  0  0  0  0
  7  8  2  0  0  0  0
  8  9  1  0  0  0  0
  8 23  1  0  0  0  0
  9 10  2  0  0  0  0
  9 24  1  0  0  0  0
 10 11  1  0  0  0  0
 10 34  1  0  0  0  0
 11 12  1  0  0  0  0
 11 18  2  0  0  0  0
 12 17  1  0  0  0  0
 12 13  1  0  0  0  0
 13 14  1  0  0  0  0
 13 25  1  0  0  0  0
 13 26  1  0  0  0  0
 14 15  1  0  0  0  0
 14 27  1  0  0  0  0
 14 28  1  0  0  0  0
 15 16  1  0  0  0  0
 16 17  1  0  0  0  0
 16 29  1  0  0  0  0
 16 30  1  0  0  0  0
 17 31  1  0  0  0  0
 17 32  1  0  0  0  0
 18 33  1  0  0  0  0
M  CHG  1   1  -1
M  CHG  1  10   1
M  END
> <s_m_source_file>
AV-unprocessed.smi

> <i_m_source_file_index>
1473

> <i_lp_mmshare_version>
43012

> <i_f3d_flags>
0

> <s_epik_input>
W05IMl1TKD1PKSg9TylbTkhdW0NIMl1jMVtjSF1bY0hdbmMoW2NIXTEpTjJbQ0gyXVtDSDJdT1tDSDJdW0NIMl0y

> <s_epik_cmdline>
J2VwaWtfcHl0aG9uJywgJy1waCcsICc3LjAnLCAnLXRuJywgJzgnLCAnLW1hJywgJzIwMCcsICctbWV0YWxfYmluZGluZycsICctaW1hZScsICc8aW5maWxlLm1hZT4nLCAnLW9tYWUnLCAnPG91dGZpbGUubWFlPic=

> <r_lp_tautomer_probability>
0.999994

> <r_epik_Ionization_Penalty>
4.01131

> <r_epik_Ionization_Penalty_Charging>
4.01082

> <r_epik_Ionization_Penalty_Neutral>
0.000490975

> <r_epik_State_Penalty>
4.3422

> <r_epik_Charging_Adjusted_Penalty>
8.35301

> <i_epik_Tot_Q>
0

> <i_epik_Tot_abs_Q>
2

> <r_epik_Metal_State_Penalty>
2.5645

> <b_epik_Metal_Only>
1

> <s_lp_Force_Field>
OPLS_2005

> <r_lp_Energy>
15.7261

> <b_lp_Chiralities_Consistent>
1

> <s_lp_Variant>
AV-unprocessed.smi:1473-8

> <Gold.Version>
5.8.1

> <Gold.Id.Protein>
6NUR|6NUR_protein|mol2

> <Gold.PLP.Fitness>
50.3439

> <Gold.PLP.PLP>
-36.3515

> <Gold.PLP.part.hbond>
-3.6797

> <Gold.PLP.part.metal>
0.0000

> <Gold.PLP.part.buried>
-1.9205

> <Gold.PLP.part.nonpolar>
-30.3988

> <Gold.PLP.part.repulsive>
0.1864

> <Gold.PLP.ligand.clash>
0.0000

> <Gold.PLP.ligand.torsion>
0.5758

> <Gold.PLP.Chemscore.Hbond>
5.0000

> <Gold.PLP.Chemscore.CHOScore>
0.0000

> <Gold.PLP.Chemscore.Metal>
0.0000

> <Gold.Chemscore.Hbonds>
donor molecule, donor type, donor heavy atom, donor atom, acceptor molecule, acceptor atom, score
      L1  H    10    34       P1  8028  2.00
      P1  H  7997  8008       L1     4  1.00
      P1  H 10752 10763       L1     1  1.98

> <Gold.PLP.Chemscore.Internal.Correction>
0.1440

> <Gold.Rescore>
     Score         DG    S(hbond)    S(metal)    S(lipo)     H(rot)  DE(clash)    DE(int)     intcor
     17.32     -18.11       2.82        0.00      81.94       2.49       0.19       0.59       ----

> <Gold.Chemscore.Fitness>
17.3220

> <Gold.Chemscore.DG>
-18.1102

> <Gold.Chemscore.ZeroCoef>
-5.4800

> <Gold.Chemscore.Hbond>
2.8211

> <Gold.Chemscore.Metal>
0.0000

> <Gold.Chemscore.Lipo>
81.9364

> <Gold.Chemscore.Internal_Hbond>
0.0000

> <Gold.Chemscore.DEClash>
0.1940

> <Gold.Chemscore.DEInternal>
0.5942

> <Gold.Chemscore.Rot>
2.4917

> <Gold.Chemscore.Internal.Correction>
   9.000000E+99

> <Gold.Chemscore.Hbonds>
donor molecule, donor type, donor heavy atom, donor atom, acceptor molecule, acceptor atom, score
      L1  H    10    34       P1  8028  0.98
      P1  H  7997  8008       L1     4  0.92
      P1  H 10752 10763       L1     1  0.89

> <Gold.Chemscore.Hbond.Weighted>
-9.4223

> <Gold.Chemscore.Metal.Weighted>
-0.0000

> <Gold.Chemscore.Lipo.Weighted>
-9.5866

> <Gold.Chemscore.Internal_Hbond.Weighted>
0.0000

> <Gold.Chemscore.DEClash.Weighted>
0.1940

> <Gold.Chemscore.DEInternal.Weighted>
0.5942

> <Gold.Chemscore.Rot.Weighted>
6.3786

> <Gold.Chemscore.Internal.Correction.Weighted>
   9.000000E+99

> <Gold.Protein.RotatedTorsions>
[ 6907 6896 6895 6894 ] final  119.54 input  -60.11 | X-H torsion
[ 7974 7965 7964 7962 ] final    4.00 input  175.53 | X-H torsion
[ 8008 7997 7996 7995 ] final  -95.94 input   59.86 | X-H torsion
[ 10167 10162 10161 10158 ] final   80.64 input  -65.29 | X-H torsion
[ 10718 10713 10712 10709 ] final   93.91 input   66.30 | X-H torsion
[ 10763 10752 10751 10750 ] final  147.63 input  -60.55 | X-H torsion
[ 11005 11000 10999 10996 ] final   43.50 input  -57.11 | X-H torsion

> <Gold.Protein.ActiveResidues>
 VAL166  LYS551  ARG553  GLY616  TRP617  ASP618  TYR619  PRO620  LYS621  CYS622 
 ASP623  PHE694  ASN695  SER759  ASP760  ASP761  ALA762  ILE779  LEU786  VAL792 
 PHE793  MET794  SER795  GLU796  ALA797  LYS798  CYS799  TRP800  GLU811  SER814 

> <Gold.Protein.RotatedAtoms>
  152.4464  133.7545  159.6712 H   0  0  0  0  0  0  0  0  0  0  0  0  # atno 6907 bound_to 6896
  150.8365  133.7994  159.3083 H   0  0  0  0  0  0  0  0  0  0  0  0  # atno 6908 bound_to 6896
  151.5632  135.1067  160.0029 H   0  0  0  0  0  0  0  0  0  0  0  0  # atno 6909 bound_to 6896
  146.2444  140.0601  142.8369 H   0  0  0  0  0  0  0  0  0  0  0  0  # atno 7974 bound_to 7965
  154.7679  140.0475  157.1027 H   0  0  0  0  0  0  0  0  0  0  0  0  # atno 8008 bound_to 7997
  154.9856  140.3107  155.4908 H   0  0  0  0  0  0  0  0  0  0  0  0  # atno 8009 bound_to 7997
  156.2916  140.2228  156.4958 H   0  0  0  0  0  0  0  0  0  0  0  0  # atno 8010 bound_to 7997
  139.9476  144.6047  150.8191 H   0  0  0  0  0  0  0  0  0  0  0  0  # atno 10167 bound_to 10162
  157.6951  131.0494  150.4106 H   0  0  0  0  0  0  0  0  0  0  0  0  # atno 10718 bound_to 10713
  154.0416  135.2889  155.3354 H   0  0  0  0  0  0  0  0  0  0  0  0  # atno 10763 bound_to 10752
  154.6926  135.5220  153.8416 H   0  0  0  0  0  0  0  0  0  0  0  0  # atno 10764 bound_to 10752
  153.0598  135.6609  154.0619 H   0  0  0  0  0  0  0  0  0  0  0  0  # atno 10765 bound_to 10752
  140.1639  134.4306  155.8300 H   0  0  0  0  0  0  0  0  0  0  0  0  # atno 11005 bound_to 11000
  145.0908  140.9283  143.4770 LP  0  0  0  0  0  0  0  0  0  0  0  0  # atno 17320 bound_to 7965
  145.0773  139.2986  143.5801 LP  0  0  0  0  0  0  0  0  0  0  0  0  # atno 17321 bound_to 7965
  140.7592  143.3124  151.2812 LP  0  0  0  0  0  0  0  0  0  0  0  0  # atno 17342 bound_to 10162
  139.6654  144.0115  152.2719 LP  0  0  0  0  0  0  0  0  0  0  0  0  # atno 17343 bound_to 10162
  156.4490  130.4007  149.6648 LP  0  0  0  0  0  0  0  0  0  0  0  0  # atno 17370 bound_to 10713
  156.3804  130.7576  151.2568 LP  0  0  0  0  0  0  0  0  0  0  0  0  # atno 17371 bound_to 10713
  141.2212  133.6925  156.7643 LP  0  0  0  0  0  0  0  0  0  0  0  0  # atno 17394 bound_to 11000
  140.2457  134.8579  157.3617 LP  0  0  0  0  0  0  0  0  0  0  0  0  # atno 17395 bound_to 11000

$$$$
