AV-unprocessed.smi:2973|AV-procd|sdf|11347|dock10
  -GOLD-   2272016263D 1   1.00000     0.00000
 Structure written by MMmdl.
 48 50  0  0  0  0  0  0  0  0  2 V2000
  150.1380  140.0317  157.8249 C   0  0  0  0  0  0  0  0  0  0  0  0
  151.2803  140.1248  158.8611 C   0  0  2  0  0  0  0  0  0  0  0  0
  151.7955  141.5752  158.9837 C   0  0  0  0  0  0  0  0  0  0  0  0
  152.8519  141.7147  160.0900 C   0  0  0  0  0  0  0  0  0  0  0  0
  154.0254  140.7543  159.8585 C   0  0  0  0  0  0  0  0  0  0  0  0
  153.5396  139.2991  159.7403 C   0  0  0  0  0  0  0  0  0  0  0  0
  152.4565  139.1163  158.6450 C   0  0  2  0  0  0  0  0  0  0  0  0
  153.0513  139.2511  157.3244 N   0  5  0  0  0  0  0  0  0  0  0  0
  152.9355  138.0746  156.6666 C   0  0  0  0  0  0  0  0  0  0  0  0
  153.3188  137.8302  155.5234 O   0  0  0  0  0  0  0  0  0  0  0  0
  152.3096  137.1555  157.4265 N   0  0  0  0  0  0  0  0  0  0  0  0
  151.9842  135.7845  157.0024 C   0  0  0  0  0  0  0  0  0  0  0  0
  150.9725  135.6848  155.8469 C   0  0  0  0  0  0  0  0  0  0  0  0
  150.5180  136.7202  155.3611 O   0  0  0  0  0  0  0  0  0  0  0  0
  150.6182  134.4634  155.4117 N   0  0  0  0  0  0  0  0  0  0  0  0
  149.6548  134.1893  154.3532 C   0  0  0  0  0  0  0  0  0  0  0  0
  149.1333  132.7444  154.4280 C   0  0  0  0  0  0  0  0  0  0  0  0
  148.1412  132.4311  153.3243 C   0  0  0  0  0  0  0  0  0  0  0  0
  147.5661  131.1466  153.2169 C   0  0  0  0  0  0  0  0  0  0  0  0
  146.6472  130.9074  152.1767 C   0  0  0  0  0  0  0  0  0  0  0  0
  146.3402  131.9563  151.2887 C   0  0  0  0  0  0  0  0  0  0  0  0
  146.9669  133.2036  151.4825 C   0  0  0  0  0  0  0  0  0  0  0  0
  147.8476  133.4438  152.4776 N   0  0  0  0  0  0  0  0  0  0  0  0
  151.9823  137.6705  158.6168 C   0  0  0  0  0  0  0  0  0  0  0  0
  151.3904  137.1095  159.5402 O   0  0  0  0  0  0  0  0  0  0  0  0
  150.4885  140.2587  156.8178 H   0  0  0  0  0  0  0  0  0  0  0  0
  149.3424  140.7386  158.0600 H   0  0  0  0  0  0  0  0  0  0  0  0
  149.6853  139.0405  157.8057 H   0  0  0  0  0  0  0  0  0  0  0  0
  150.8289  139.8814  159.8246 H   0  0  0  0  0  0  0  0  0  0  0  0
  152.2180  141.9012  158.0324 H   0  0  0  0  0  0  0  0  0  0  0  0
  150.9645  142.2489  159.1950 H   0  0  0  0  0  0  0  0  0  0  0  0
  153.2153  142.7419  160.1284 H   0  0  0  0  0  0  0  0  0  0  0  0
  152.3971  141.5106  161.0600 H   0  0  0  0  0  0  0  0  0  0  0  0
  154.5596  141.0411  158.9519 H   0  0  0  0  0  0  0  0  0  0  0  0
  154.7419  140.8403  160.6756 H   0  0  0  0  0  0  0  0  0  0  0  0
  154.3928  138.6447  159.5527 H   0  0  0  0  0  0  0  0  0  0  0  0
  153.1358  138.9922  160.7066 H   0  0  0  0  0  0  0  0  0  0  0  0
  152.8976  135.2683  156.7028 H   0  0  0  0  0  0  0  0  0  0  0  0
  151.5944  135.2155  157.8478 H   0  0  0  0  0  0  0  0  0  0  0  0
  151.0355  133.6638  155.8670 H   0  0  0  0  0  0  0  0  0  0  0  0
  148.8279  134.8995  154.4058 H   0  0  0  0  0  0  0  0  0  0  0  0
  150.1505  134.3580  153.3967 H   0  0  0  0  0  0  0  0  0  0  0  0
  149.9669  132.0432  154.3645 H   0  0  0  0  0  0  0  0  0  0  0  0
  148.6571  132.5643  155.3927 H   0  0  0  0  0  0  0  0  0  0  0  0
  147.8213  130.3628  153.9152 H   0  0  0  0  0  0  0  0  0  0  0  0
  146.1871  129.9370  152.0624 H   0  0  0  0  0  0  0  0  0  0  0  0
  145.6412  131.8086  150.4787 H   0  0  0  0  0  0  0  0  0  0  0  0
  146.7553  134.0301  150.8203 H   0  0  0  0  0  0  0  0  0  0  0  0
  1  2  1  0  0  0  0
  1 26  1  0  0  0  0
  1 27  1  0  0  0  0
  1 28  1  0  0  0  0
  2  7  1  0  0  0  0
  2  3  1  0  0  0  0
  2 29  1  0  0  0  0
  3  4  1  0  0  0  0
  3 30  1  0  0  0  0
  3 31  1  0  0  0  0
  4  5  1  0  0  0  0
  4 32  1  0  0  0  0
  4 33  1  0  0  0  0
  5  6  1  0  0  0  0
  5 34  1  0  0  0  0
  5 35  1  0  0  0  0
  6  7  1  0  0  0  0
  6 36  1  0  0  0  0
  6 37  1  0  0  0  0
  7 24  1  0  0  0  0
  7  8  1  0  0  0  0
  8  9  1  0  0  0  0
  9 10  2  0  0  0  0
  9 11  1  0  0  0  0
 11 12  1  0  0  0  0
 11 24  1  0  0  0  0
 12 13  1  0  0  0  0
 12 38  1  0  0  0  0
 12 39  1  0  0  0  0
 13 14  2  0  0  0  0
 13 15  1  0  0  0  0
 15 16  1  0  0  0  0
 15 40  1  0  0  0  0
 16 17  1  0  0  0  0
 16 41  1  0  0  0  0
 16 42  1  0  0  0  0
 17 18  1  0  0  0  0
 17 43  1  0  0  0  0
 17 44  1  0  0  0  0
 18 23  1  0  0  0  0
 18 19  2  0  0  0  0
 19 20  1  0  0  0  0
 19 45  1  0  0  0  0
 20 21  2  0  0  0  0
 20 46  1  0  0  0  0
 21 22  1  0  0  0  0
 21 47  1  0  0  0  0
 22 23  2  0  0  0  0
 22 48  1  0  0  0  0
 24 25  2  0  0  0  0
M  CHG  1   8  -1
M  END
> <s_m_source_file>
AV-unprocessed.smi

> <i_m_source_file_index>
2973

> <i_lp_mmshare_version>
43012

> <i_f3d_flags>
0

> <s_epik_input>
W0NIMl0xW0NIMl1bQ0gyXVtDSDJdW0NAQEhdKFtDSDNdKVtDQF0xMltOSF1DKD1PKU4oQzI9TylbQ0gyXUMoPU8pW05IXVtDSDJdW0NIMl1jM1tjSF1bY0hdW2NIXVtjSF1uMw==

> <s_epik_cmdline>
J2VwaWtfcHl0aG9uJywgJy1waCcsICc3LjAnLCAnLXRuJywgJzgnLCAnLW1hJywgJzIwMCcsICctbWV0YWxfYmluZGluZycsICctaW1hZScsICc8aW5maWxlLm1hZT4nLCAnLW9tYWUnLCAnPG91dGZpbGUubWFlPic=

> <r_lp_tautomer_probability>
1

> <r_epik_Ionization_Penalty>
6.04175

> <r_epik_Ionization_Penalty_Charging>
6.01728

> <r_epik_Ionization_Penalty_Neutral>
0.0244696

> <r_epik_State_Penalty>
6.03712

> <r_epik_Charging_Adjusted_Penalty>
12.0544

> <i_epik_Tot_Q>
-1

> <i_epik_Tot_abs_Q>
1

> <r_epik_Metal_State_Penalty>
2.01153

> <b_epik_Metal_Only>
1

> <s_lp_Force_Field>
OPLS_2005

> <r_lp_Energy>
17.3345

> <b_lp_Chiralities_Consistent>
1

> <s_lp_Variant>
AV-unprocessed.smi:2973-11

> <Gold.Version>
5.8.1

> <Gold.Id.Protein>
6NUR|6NUR_protein|mol2

> <Gold.PLP.Fitness>
47.6282

> <Gold.PLP.PLP>
-38.8250

> <Gold.PLP.part.hbond>
-3.0000

> <Gold.PLP.part.metal>
0.0000

> <Gold.PLP.part.buried>
-5.3782

> <Gold.PLP.part.nonpolar>
-31.2321

> <Gold.PLP.part.repulsive>
0.7320

> <Gold.PLP.ligand.clash>
0.0000

> <Gold.PLP.ligand.torsion>
0.1704

> <Gold.PLP.Chemscore.Hbond>
3.0374

> <Gold.PLP.Chemscore.CHOScore>
0.0000

> <Gold.PLP.Chemscore.Metal>
0.0000

> <Gold.Chemscore.Hbonds>
donor molecule, donor type, donor heavy atom, donor atom, acceptor molecule, acceptor atom, score
      P1  H  6896  6909       L1    25  1.00
      P1  H  7997  8009       L1     8  2.00
      P1  H 10752 10764       L1    10  0.04

> <Gold.PLP.Chemscore.Internal.Correction>
0.0317

> <Gold.Rescore>
     Score         DG    S(hbond)    S(metal)    S(lipo)     H(rot)  DE(clash)    DE(int)     intcor
     18.63     -18.96       2.20        0.00      92.09       1.81       0.01       0.32       ----

> <Gold.Chemscore.Fitness>
18.6295

> <Gold.Chemscore.DG>
-18.9631

> <Gold.Chemscore.ZeroCoef>
-5.4800

> <Gold.Chemscore.Hbond>
2.1977

> <Gold.Chemscore.Metal>
0.0000

> <Gold.Chemscore.Lipo>
92.0854

> <Gold.Chemscore.Internal_Hbond>
0.0000

> <Gold.Chemscore.DEClash>
0.0123

> <Gold.Chemscore.DEInternal>
0.3214

> <Gold.Chemscore.Rot>
1.8090

> <Gold.Chemscore.Internal.Correction>
   9.000000E+99

> <Gold.Chemscore.Hbonds>
donor molecule, donor type, donor heavy atom, donor atom, acceptor molecule, acceptor atom, score
      P1  H  6896  6909       L1    25  0.97
      P1  H  7997  8009       L1     8  0.65
      P1  H 10752 10764       L1    10  0.03

> <Gold.Chemscore.Hbond.Weighted>
-7.3402

> <Gold.Chemscore.Metal.Weighted>
-0.0000

> <Gold.Chemscore.Lipo.Weighted>
-10.7740

> <Gold.Chemscore.Internal_Hbond.Weighted>
0.0000

> <Gold.Chemscore.DEClash.Weighted>
0.0123

> <Gold.Chemscore.DEInternal.Weighted>
0.3214

> <Gold.Chemscore.Rot.Weighted>
4.6310

> <Gold.Chemscore.Internal.Correction.Weighted>
   9.000000E+99

> <Gold.Protein.RotatedTorsions>
[ 6907 6896 6895 6894 ] final  114.21 input  -60.11 | X-H torsion
[ 7974 7965 7964 7962 ] final  -98.97 input  175.53 | X-H torsion
[ 8008 7997 7996 7995 ] final  174.66 input   59.86 | X-H torsion
[ 10167 10162 10161 10158 ] final   62.25 input  -65.29 | X-H torsion
[ 10718 10713 10712 10709 ] final   49.34 input   66.30 | X-H torsion
[ 10763 10752 10751 10750 ] final  -38.05 input  -60.55 | X-H torsion
[ 11005 11000 10999 10996 ] final -125.02 input  -57.11 | X-H torsion

> <Gold.Protein.ActiveResidues>
 VAL166  LYS551  ARG553  GLY616  TRP617  ASP618  TYR619  PRO620  LYS621  CYS622 
 ASP623  PHE694  ASN695  SER759  ASP760  ASP761  ALA762  ILE779  LEU786  VAL792 
 PHE793  MET794  SER795  GLU796  ALA797  LYS798  CYS799  TRP800  GLU811  SER814 

> <Gold.Protein.RotatedAtoms>
  152.4816  133.8268  159.7082 H   0  0  0  0  0  0  0  0  0  0  0  0  # atno 6907 bound_to 6896
  150.8870  133.7285  159.2922 H   0  0  0  0  0  0  0  0  0  0  0  0  # atno 6908 bound_to 6896
  151.4770  135.1053  159.9819 H   0  0  0  0  0  0  0  0  0  0  0  0  # atno 6909 bound_to 6896
  145.3137  140.9406  143.2755 H   0  0  0  0  0  0  0  0  0  0  0  0  # atno 7974 bound_to 7965
  156.0951  140.1429  156.9541 H   0  0  0  0  0  0  0  0  0  0  0  0  # atno 8008 bound_to 7997
  154.4666  140.0924  156.7083 H   0  0  0  0  0  0  0  0  0  0  0  0  # atno 8009 bound_to 7997
  155.4854  140.3446  155.4348 H   0  0  0  0  0  0  0  0  0  0  0  0  # atno 8010 bound_to 7997
  140.1459  144.4509  150.6785 H   0  0  0  0  0  0  0  0  0  0  0  0  # atno 10167 bound_to 10162
  157.4777  130.8295  149.8057 H   0  0  0  0  0  0  0  0  0  0  0  0  # atno 10718 bound_to 10713
  153.9064  135.6797  153.4753 H   0  0  0  0  0  0  0  0  0  0  0  0  # atno 10763 bound_to 10752
  153.1102  135.4787  154.9019 H   0  0  0  0  0  0  0  0  0  0  0  0  # atno 10764 bound_to 10752
  154.7549  135.3195  154.8443 H   0  0  0  0  0  0  0  0  0  0  0  0  # atno 10765 bound_to 10752
  140.9795  134.0693  157.3780 H   0  0  0  0  0  0  0  0  0  0  0  0  # atno 11005 bound_to 11000
  144.8995  139.4668  143.6639 LP  0  0  0  0  0  0  0  0  0  0  0  0  # atno 17320 bound_to 7965
  146.3108  139.7741  142.9021 LP  0  0  0  0  0  0  0  0  0  0  0  0  # atno 17321 bound_to 7965
  140.6732  143.2294  151.5573 LP  0  0  0  0  0  0  0  0  0  0  0  0  # atno 17342 bound_to 10162
  139.5449  144.2548  152.1423 LP  0  0  0  0  0  0  0  0  0  0  0  0  # atno 17343 bound_to 10162
  156.0105  130.3835  150.2281 LP  0  0  0  0  0  0  0  0  0  0  0  0  # atno 17370 bound_to 10713
  157.0466  131.0050  151.3267 LP  0  0  0  0  0  0  0  0  0  0  0  0  # atno 17371 bound_to 10713
  139.8944  135.0136  156.6950 LP  0  0  0  0  0  0  0  0  0  0  0  0  # atno 17394 bound_to 11000
  140.7208  133.9143  155.8145 LP  0  0  0  0  0  0  0  0  0  0  0  0  # atno 17395 bound_to 11000

$$$$
