AV-unprocessed.smi:2236|AV-procd|sdf|9045|dock3
  -GOLD-   2272012253D 1   1.00000     0.00000
 Structure written by MMmdl.
 37 38  0  0  0  0  0  0  0  0  1 V2000
  152.4279  139.2362  157.5776 C   0  0  0  0  0  0  0  0  0  0  0  0
  151.7776  140.4890  157.4207 O   0  0  0  0  0  0  0  0  0  0  0  0
  151.9413  141.4391  158.4101 C   0  0  0  0  0  0  0  0  0  0  0  0
  152.8990  141.3310  159.4505 C   0  0  0  0  0  0  0  0  0  0  0  0
  152.9914  142.3507  160.4136 C   0  0  0  0  0  0  0  0  0  0  0  0
  152.1196  143.4485  160.3045 C   0  0  0  0  0  0  0  0  0  0  0  0
  152.1660  144.5846  161.3044 C   0  0  0  0  0  0  0  0  0  0  0  0
  151.2059  143.5626  159.3199 N   0  0  0  0  0  0  0  0  0  0  0  0
  151.1062  142.5860  158.3839 C   0  0  0  0  0  0  0  0  0  0  0  0
  150.1707  142.6358  157.3136 N   0  0  0  0  0  0  0  0  0  0  0  0
  149.3269  141.6767  156.8951 C   0  0  0  0  0  0  0  0  0  0  0  0
  149.2429  140.5442  157.3717 O   0  0  0  0  0  0  0  0  0  0  0  0
  148.5706  142.1103  155.8737 N   0  0  0  0  0  0  0  0  0  0  0  0
  147.5375  141.3453  155.1712 C   0  0  0  0  0  0  0  0  0  0  0  0
  146.5380  140.7667  156.1781 C   0  0  0  0  0  0  0  0  0  0  0  0
  146.9957  142.0937  153.9341 C   0  0  0  0  0  0  0  0  0  0  0  0
  147.1128  140.7817  153.1547 C   0  0  0  0  0  0  0  0  0  0  0  0
  148.1867  140.3738  154.1674 C   0  0  0  0  0  0  0  0  0  0  0  0
  152.1985  138.6026  156.7209 H   0  0  0  0  0  0  0  0  0  0  0  0
  152.0836  138.7163  158.4726 H   0  0  0  0  0  0  0  0  0  0  0  0
  153.5115  139.3523  157.6203 H   0  0  0  0  0  0  0  0  0  0  0  0
  153.5662  140.4865  159.5301 H   0  0  0  0  0  0  0  0  0  0  0  0
  153.7149  142.2888  161.2131 H   0  0  0  0  0  0  0  0  0  0  0  0
  152.7958  144.3331  162.1582 H   0  0  0  0  0  0  0  0  0  0  0  0
  151.1656  144.8086  161.6759 H   0  0  0  0  0  0  0  0  0  0  0  0
  152.5681  145.4830  160.8359 H   0  0  0  0  0  0  0  0  0  0  0  0
  150.1333  143.5148  156.8186 H   0  0  0  0  0  0  0  0  0  0  0  0
  148.7168  143.0569  155.5546 H   0  0  0  0  0  0  0  0  0  0  0  0
  145.8109  140.1162  155.6919 H   0  0  0  0  0  0  0  0  0  0  0  0
  145.9759  141.5509  156.6853 H   0  0  0  0  0  0  0  0  0  0  0  0
  147.0409  140.1738  156.9424 H   0  0  0  0  0  0  0  0  0  0  0  0
  145.9775  142.4701  154.0368 H   0  0  0  0  0  0  0  0  0  0  0  0
  147.6689  142.8642  153.5525 H   0  0  0  0  0  0  0  0  0  0  0  0
  146.2129  140.1672  153.2124 H   0  0  0  0  0  0  0  0  0  0  0  0
  147.4676  140.8896  152.1294 H   0  0  0  0  0  0  0  0  0  0  0  0
  149.1890  140.6702  153.8509 H   0  0  0  0  0  0  0  0  0  0  0  0
  148.1556  139.3238  154.4597 H   0  0  0  0  0  0  0  0  0  0  0  0
  1  2  1  0  0  0  0
  1 19  1  0  0  0  0
  1 20  1  0  0  0  0
  1 21  1  0  0  0  0
  2  3  1  0  0  0  0
  3  9  1  0  0  0  0
  3  4  2  0  0  0  0
  4  5  1  0  0  0  0
  4 22  1  0  0  0  0
  5  6  2  0  0  0  0
  5 23  1  0  0  0  0
  6  7  1  0  0  0  0
  6  8  1  0  0  0  0
  7 24  1  0  0  0  0
  7 25  1  0  0  0  0
  7 26  1  0  0  0  0
  8  9  2  0  0  0  0
  9 10  1  0  0  0  0
 10 11  1  0  0  0  0
 10 27  1  0  0  0  0
 11 12  2  0  0  0  0
 11 13  1  0  0  0  0
 13 14  1  0  0  0  0
 13 28  1  0  0  0  0
 14 18  1  0  0  0  0
 14 15  1  0  0  0  0
 14 16  1  0  0  0  0
 15 29  1  0  0  0  0
 15 30  1  0  0  0  0
 15 31  1  0  0  0  0
 16 17  1  0  0  0  0
 16 32  1  0  0  0  0
 16 33  1  0  0  0  0
 17 18  1  0  0  0  0
 17 34  1  0  0  0  0
 17 35  1  0  0  0  0
 18 36  1  0  0  0  0
 18 37  1  0  0  0  0
M  END
> <s_m_source_file>
AV-unprocessed.smi

> <i_m_source_file_index>
2236

> <i_lp_mmshare_version>
43012

> <i_f3d_flags>
0

> <s_epik_input>
W0NIM11PYzFbY0hdW2NIXWMoW0NIM10pbmMxW05IXUMoPU8pW05IXUMyKFtDSDNdKVtDSDJdW0NIMl1bQ0gyXTI=

> <s_epik_cmdline>
J2VwaWtfcHl0aG9uJywgJy1waCcsICc3LjAnLCAnLXRuJywgJzgnLCAnLW1hJywgJzIwMCcsICctbWV0YWxfYmluZGluZycsICctaW1hZScsICc8aW5maWxlLm1hZT4nLCAnLW9tYWUnLCAnPG91dGZpbGUubWFlPic=

> <r_lp_tautomer_probability>
1

> <r_epik_Ionization_Penalty>
6.75542e-05

> <r_epik_Ionization_Penalty_Charging>
0

> <r_epik_Ionization_Penalty_Neutral>
6.75542e-05

> <r_epik_State_Penalty>
-0

> <r_epik_Charging_Adjusted_Penalty>
0

> <i_epik_Tot_Q>
0

> <i_epik_Tot_abs_Q>
0

> <r_epik_Metal_State_Penalty>
-0

> <b_epik_Metal_Only>
0

> <s_lp_Force_Field>
OPLS_2005

> <r_lp_Energy>
20.3098

> <b_lp_Chiralities_Consistent>
1

> <s_lp_Variant>
AV-unprocessed.smi:2236-1

> <Gold.Version>
5.8.1

> <Gold.Id.Protein>
6NUR|6NUR_protein|mol2

> <Gold.PLP.Fitness>
37.0147

> <Gold.PLP.PLP>
-32.7176

> <Gold.PLP.part.hbond>
-2.0000

> <Gold.PLP.part.metal>
0.0000

> <Gold.PLP.part.buried>
-5.2673

> <Gold.PLP.part.nonpolar>
-25.5951

> <Gold.PLP.part.repulsive>
0.1712

> <Gold.PLP.ligand.clash>
0.0000

> <Gold.PLP.ligand.torsion>
0.7217

> <Gold.PLP.Chemscore.Hbond>
1.8143

> <Gold.PLP.Chemscore.CHOScore>
0.0000

> <Gold.PLP.Chemscore.Metal>
0.0000

> <Gold.Chemscore.Hbonds>
donor molecule, donor type, donor heavy atom, donor atom, acceptor molecule, acceptor atom, score
      L1  H    10    27       P1  8028  0.77
      L1  H    13    28       P1  8028  1.00

> <Gold.PLP.Chemscore.Internal.Correction>
0.2975

> <Gold.Rescore>
     Score         DG    S(hbond)    S(metal)    S(lipo)     H(rot)  DE(clash)    DE(int)     intcor
     13.80     -18.54       1.88        0.00      84.43       1.21       0.05       4.69       ----

> <Gold.Chemscore.Fitness>
13.8040

> <Gold.Chemscore.DG>
-18.5447

> <Gold.Chemscore.ZeroCoef>
-5.4800

> <Gold.Chemscore.Hbond>
1.8818

> <Gold.Chemscore.Metal>
0.0000

> <Gold.Chemscore.Lipo>
84.4256

> <Gold.Chemscore.Internal_Hbond>
0.0000

> <Gold.Chemscore.DEClash>
0.0474

> <Gold.Chemscore.DEInternal>
4.6934

> <Gold.Chemscore.Rot>
1.2103

> <Gold.Chemscore.Internal.Correction>
   9.000000E+99

> <Gold.Chemscore.Hbonds>
donor molecule, donor type, donor heavy atom, donor atom, acceptor molecule, acceptor atom, score
      L1  H    10    27       P1  8028  0.74
      L1  H    13    28       P1  8028  0.99

> <Gold.Chemscore.Hbond.Weighted>
-6.2854

> <Gold.Chemscore.Metal.Weighted>
-0.0000

> <Gold.Chemscore.Lipo.Weighted>
-9.8778

> <Gold.Chemscore.Internal_Hbond.Weighted>
0.0000

> <Gold.Chemscore.DEClash.Weighted>
0.0474

> <Gold.Chemscore.DEInternal.Weighted>
4.6934

> <Gold.Chemscore.Rot.Weighted>
3.0984

> <Gold.Chemscore.Internal.Correction.Weighted>
   9.000000E+99

> <Gold.Protein.RotatedTorsions>
[ 6907 6896 6895 6894 ] final -126.95 input  -60.11 | X-H torsion
[ 7974 7965 7964 7962 ] final   58.89 input  175.53 | X-H torsion
[ 8008 7997 7996 7995 ] final   -9.44 input   59.86 | X-H torsion
[ 10167 10162 10161 10158 ] final   45.38 input  -65.29 | X-H torsion
[ 10718 10713 10712 10709 ] final -166.64 input   66.30 | X-H torsion
[ 10763 10752 10751 10750 ] final  160.10 input  -60.55 | X-H torsion
[ 11005 11000 10999 10996 ] final  -12.22 input  -57.11 | X-H torsion

> <Gold.Protein.ActiveResidues>
 VAL166  LYS551  ARG553  GLY616  TRP617  ASP618  TYR619  PRO620  LYS621  CYS622 
 ASP623  PHE694  ASN695  SER759  ASP760  ASP761  ALA762  ILE779  LEU786  VAL792 
 PHE793  MET794  SER795  GLU796  ALA797  LYS798  CYS799  TRP800  GLU811  SER814 

> <Gold.Protein.RotatedAtoms>
  150.9022  133.7103  159.2875 H   0  0  0  0  0  0  0  0  0  0  0  0  # atno 6907 bound_to 6896
  151.4618  135.1037  159.9736 H   0  0  0  0  0  0  0  0  0  0  0  0  # atno 6908 bound_to 6896
  152.4883  133.8383  159.7195 H   0  0  0  0  0  0  0  0  0  0  0  0  # atno 6909 bound_to 6896
  145.9132  139.3670  143.0523 H   0  0  0  0  0  0  0  0  0  0  0  0  # atno 7974 bound_to 7965
  154.5646  140.2355  155.8283 H   0  0  0  0  0  0  0  0  0  0  0  0  # atno 8008 bound_to 7997
  156.2058  140.3040  155.9582 H   0  0  0  0  0  0  0  0  0  0  0  0  # atno 8009 bound_to 7997
  155.2825  140.0423  157.3007 H   0  0  0  0  0  0  0  0  0  0  0  0  # atno 8010 bound_to 7997
  140.3248  144.2662  150.6177 H   0  0  0  0  0  0  0  0  0  0  0  0  # atno 10167 bound_to 10162
  156.6708  130.9083  151.3043 H   0  0  0  0  0  0  0  0  0  0  0  0  # atno 10718 bound_to 10713
  154.2422  135.2774  155.2849 H   0  0  0  0  0  0  0  0  0  0  0  0  # atno 10763 bound_to 10752
  154.5536  135.5668  153.6947 H   0  0  0  0  0  0  0  0  0  0  0  0  # atno 10764 bound_to 10752
  152.9997  135.6280  154.2566 H   0  0  0  0  0  0  0  0  0  0  0  0  # atno 10765 bound_to 10752
  140.7635  133.8496  155.9145 H   0  0  0  0  0  0  0  0  0  0  0  0  # atno 11005 bound_to 11000
  145.8645  140.9456  143.0683 LP  0  0  0  0  0  0  0  0  0  0  0  0  # atno 17320 bound_to 7965
  144.6745  140.0573  143.7477 LP  0  0  0  0  0  0  0  0  0  0  0  0  # atno 17321 bound_to 7965
  140.5451  143.2216  151.8020 LP  0  0  0  0  0  0  0  0  0  0  0  0  # atno 17342 bound_to 10162
  139.4867  144.4550  151.9609 LP  0  0  0  0  0  0  0  0  0  0  0  0  # atno 17343 bound_to 10162
  157.7078  130.9404  150.0987 LP  0  0  0  0  0  0  0  0  0  0  0  0  # atno 17370 bound_to 10713
  156.1940  130.3656  149.8873 LP  0  0  0  0  0  0  0  0  0  0  0  0  # atno 17371 bound_to 10713
  140.9641  134.1617  157.4630 LP  0  0  0  0  0  0  0  0  0  0  0  0  # atno 17394 bound_to 11000
  139.8767  134.9955  156.5749 LP  0  0  0  0  0  0  0  0  0  0  0  0  # atno 17395 bound_to 11000

$$$$
