AV-unprocessed.smi:1047|AV-procd|sdf|4598|dock10
  -GOLD-   22720 3 83D 1   1.00000     0.00000
 Structure written by MMmdl.
 57 59  0  0  0  0  0  0  0  0  3 V2000
  146.5467  130.1719  152.6850 C   0  0  0  0  0  0  0  0  0  0  0  0
  146.7546  131.6550  153.0234 C   0  0  0  0  0  0  0  0  0  0  0  0
  147.1301  131.8685  154.4466 N   0  3  1  0  0  0  0  0  0  0  0  0
  148.4241  131.2444  154.8159 C   0  0  0  0  0  0  0  0  0  0  0  0
  149.6109  132.0898  154.3198 C   0  0  0  0  0  0  0  0  0  0  0  0
  149.5019  133.4092  154.8403 O   0  0  0  0  0  0  0  0  0  0  0  0
  148.3236  134.0762  154.4000 C   0  0  2  0  0  0  0  0  0  0  0  0
  148.3666  135.5086  154.9552 C   0  0  0  0  0  0  0  0  0  0  0  0
  149.6269  136.1703  154.6292 N   0  0  0  0  0  0  0  0  0  0  0  0
  149.7297  137.5217  155.1733 C   0  0  0  0  0  0  0  0  0  0  0  0
  150.9281  138.2760  154.5727 C   0  0  2  0  0  0  0  0  0  0  0  0
  151.7599  137.3355  153.9224 O   0  0  0  0  0  0  0  0  0  0  0  0
  151.7398  139.0116  155.6580 C   0  0  0  0  0  0  0  0  0  0  0  0
  151.2028  140.3435  155.9748 N   0  0  0  0  0  0  0  0  0  0  0  0
  150.3048  141.1024  155.2900 C   0  0  0  0  0  0  0  0  0  0  0  0
  150.1246  142.2571  155.9886 N   0  3  0  0  0  0  0  0  0  0  0  0
  150.9199  142.2367  157.1362 C   0  0  0  0  0  0  0  0  0  0  0  0
  151.0799  143.1752  158.1489 C   0  0  0  0  0  0  0  0  0  0  0  0
  151.9792  142.8536  159.1903 C   0  0  0  0  0  0  0  0  0  0  0  0
  152.1795  143.8587  160.3119 C   0  0  0  0  0  0  0  0  0  0  0  0
  152.6835  141.6218  159.1919 C   0  0  0  0  0  0  0  0  0  0  0  0
  153.6523  141.2884  160.3136 C   0  0  0  0  0  0  0  0  0  0  0  0
  152.5050  140.6798  158.1537 C   0  0  0  0  0  0  0  0  0  0  0  0
  151.6150  141.0116  157.1346 C   0  0  0  0  0  0  0  0  0  0  0  0
  147.0923  133.2836  154.8978 C   0  0  0  0  0  0  0  0  0  0  0  0
  146.3747  130.0455  151.6157 H   0  0  0  0  0  0  0  0  0  0  0  0
  145.6845  129.7498  153.2003 H   0  0  0  0  0  0  0  0  0  0  0  0
  147.4232  129.5793  152.9491 H   0  0  0  0  0  0  0  0  0  0  0  0
  147.5585  132.0274  152.3873 H   0  0  0  0  0  0  0  0  0  0  0  0
  145.8678  132.2313  152.7611 H   0  0  0  0  0  0  0  0  0  0  0  0
  148.4688  131.1654  155.9030 H   0  0  0  0  0  0  0  0  0  0  0  0
  148.4855  130.2251  154.4331 H   0  0  0  0  0  0  0  0  0  0  0  0
  150.5493  131.6539  154.6629 H   0  0  0  0  0  0  0  0  0  0  0  0
  149.6543  132.1144  153.2301 H   0  0  0  0  0  0  0  0  0  0  0  0
  148.3382  134.1255  153.3101 H   0  0  0  0  0  0  0  0  0  0  0  0
  147.5218  136.0829  154.5729 H   0  0  0  0  0  0  0  0  0  0  0  0
  148.2509  135.4728  156.0392 H   0  0  0  0  0  0  0  0  0  0  0  0
  149.7492  136.1993  153.6221 H   0  0  0  0  0  0  0  0  0  0  0  0
  148.8142  138.0654  154.9365 H   0  0  0  0  0  0  0  0  0  0  0  0
  149.8005  137.4983  156.2619 H   0  0  0  0  0  0  0  0  0  0  0  0
  150.5808  139.0045  153.8382 H   0  0  0  0  0  0  0  0  0  0  0  0
  151.3717  137.1209  153.0878 H   0  0  0  0  0  0  0  0  0  0  0  0
  151.7242  138.4354  156.5840 H   0  0  0  0  0  0  0  0  0  0  0  0
  152.7889  139.1040  155.3759 H   0  0  0  0  0  0  0  0  0  0  0  0
  149.8212  140.8362  154.3611 H   0  0  0  0  0  0  0  0  0  0  0  0
  150.5415  144.1118  158.1397 H   0  0  0  0  0  0  0  0  0  0  0  0
  153.2201  144.1807  160.3553 H   0  0  0  0  0  0  0  0  0  0  0  0
  151.9117  143.4196  161.2732 H   0  0  0  0  0  0  0  0  0  0  0  0
  151.5618  144.7459  160.1682 H   0  0  0  0  0  0  0  0  0  0  0  0
  154.1110  140.3099  160.1672 H   0  0  0  0  0  0  0  0  0  0  0  0
  153.1367  141.2739  161.2742 H   0  0  0  0  0  0  0  0  0  0  0  0
  154.4526  142.0272  160.3604 H   0  0  0  0  0  0  0  0  0  0  0  0
  153.0469  139.7455  158.1521 H   0  0  0  0  0  0  0  0  0  0  0  0
  146.1667  133.7663  154.5875 H   0  0  0  0  0  0  0  0  0  0  0  0
  147.0799  133.2868  155.9885 H   0  0  0  0  0  0  0  0  0  0  0  0
  146.4264  131.3770  154.9794 H   0  0  0  0  0  0  0  0  0  0  0  0
  149.5038  143.0027  155.7007 H   0  0  0  0  0  0  0  0  0  0  0  0
  1  2  1  0  0  0  0
  1 26  1  0  0  0  0
  1 27  1  0  0  0  0
  1 28  1  0  0  0  0
  2  3  1  0  0  0  0
  2 29  1  0  0  0  0
  2 30  1  0  0  0  0
  3 25  1  0  0  0  0
  3  4  1  0  0  0  0
  3 56  1  0  0  0  0
  4  5  1  0  0  0  0
  4 31  1  0  0  0  0
  4 32  1  0  0  0  0
  5  6  1  0  0  0  0
  5 33  1  0  0  0  0
  5 34  1  0  0  0  0
  6  7  1  0  0  0  0
  7  8  1  0  0  0  0
  7 25  1  0  0  0  0
  7 35  1  0  0  0  0
  8  9  1  0  0  0  0
  8 36  1  0  0  0  0
  8 37  1  0  0  0  0
  9 10  1  0  0  0  0
  9 38  1  0  0  0  0
 10 11  1  0  0  0  0
 10 39  1  0  0  0  0
 10 40  1  0  0  0  0
 11 12  1  0  0  0  0
 11 13  1  0  0  0  0
 11 41  1  0  0  0  0
 12 42  1  0  0  0  0
 13 14  1  0  0  0  0
 13 43  1  0  0  0  0
 13 44  1  0  0  0  0
 14 24  1  0  0  0  0
 14 15  1  0  0  0  0
 15 16  2  0  0  0  0
 15 45  1  0  0  0  0
 16 17  1  0  0  0  0
 16 57  1  0  0  0  0
 17 24  2  0  0  0  0
 17 18  1  0  0  0  0
 18 19  2  0  0  0  0
 18 46  1  0  0  0  0
 19 20  1  0  0  0  0
 19 21  1  0  0  0  0
 20 47  1  0  0  0  0
 20 48  1  0  0  0  0
 20 49  1  0  0  0  0
 21 22  1  0  0  0  0
 21 23  2  0  0  0  0
 22 50  1  0  0  0  0
 22 51  1  0  0  0  0
 22 52  1  0  0  0  0
 23 24  1  0  0  0  0
 23 53  1  0  0  0  0
 25 54  1  0  0  0  0
 25 55  1  0  0  0  0
M  CHG  1   3   1
M  CHG  1  16   1
M  END
> <s_m_source_file>
AV-unprocessed.smi

> <i_m_source_file_index>
1047

> <i_lp_mmshare_version>
43012

> <i_f3d_flags>
0

> <s_epik_input>
W0NIM11bQ0gyXU4xW0NIMl1bQ0gyXU9bQ0BIXShbQ0gyXTEpW0NIMl1bTkhdW0NIMl1bQ0BIXShbT0hdKVtDSDJdbihbY0hdbjIpYyhjMjMpW2NIXWMoW0NIM10pYyhbY0hdMylbQ0gzXQ==

> <s_epik_cmdline>
J2VwaWtfcHl0aG9uJywgJy1waCcsICc3LjAnLCAnLXRuJywgJzgnLCAnLW1hJywgJzIwMCcsICctbWV0YWxfYmluZGluZycsICctaW1hZScsICc8aW5maWxlLm1hZT4nLCAnLW9tYWUnLCAnPG91dGZpbGUubWFlPic=

> <r_epik_Ionization_Penalty>
2.03028

> <r_epik_Ionization_Penalty_Charging>
1.21256

> <r_epik_Ionization_Penalty_Neutral>
0.817715

> <r_epik_State_Penalty>
2.54959

> <r_epik_Charging_Adjusted_Penalty>
3.76215

> <i_epik_Tot_Q>
2

> <i_epik_Tot_abs_Q>
2

> <r_epik_Metal_State_Penalty>
6.52811

> <b_epik_Metal_Only>
0

> <s_lp_Force_Field>
OPLS_2005

> <r_lp_Energy>
38.5552

> <b_lp_Chiralities_Consistent>
1

> <s_lp_Variant>
AV-unprocessed.smi:1047-39

> <Gold.Version>
5.8.1

> <Gold.Id.Protein>
6NUR|6NUR_protein|mol2

> <Gold.PLP.Fitness>
58.9847

> <Gold.PLP.PLP>
-46.5707

> <Gold.PLP.part.hbond>
-4.0000

> <Gold.PLP.part.metal>
0.0000

> <Gold.PLP.part.buried>
-5.3090

> <Gold.PLP.part.nonpolar>
-37.4690

> <Gold.PLP.part.repulsive>
0.1917

> <Gold.PLP.ligand.clash>
0.0000

> <Gold.PLP.ligand.torsion>
1.2176

> <Gold.PLP.Chemscore.Hbond>
4.9263

> <Gold.PLP.Chemscore.CHOScore>
0.0000

> <Gold.PLP.Chemscore.Metal>
0.0000

> <Gold.Chemscore.Hbonds>
donor molecule, donor type, donor heavy atom, donor atom, acceptor molecule, acceptor atom, score
      L1  H     9    38       P1  7948  1.00
      L1  H    12    42       P1  7949  1.00
      L1  H    16    57       P1  8028  2.00
      P1  H 10752 10765       L1    12  0.94

> <Gold.PLP.Chemscore.Internal.Correction>
0.0704

> <Gold.Rescore>
     Score         DG    S(hbond)    S(metal)    S(lipo)     H(rot)  DE(clash)    DE(int)     intcor
     19.99     -21.40       2.44        0.00     125.67       2.71       0.25       1.16       ----

> <Gold.Chemscore.Fitness>
19.9885

> <Gold.Chemscore.DG>
-21.3999

> <Gold.Chemscore.ZeroCoef>
-5.4800

> <Gold.Chemscore.Hbond>
2.4406

> <Gold.Chemscore.Metal>
0.0000

> <Gold.Chemscore.Lipo>
125.6663

> <Gold.Chemscore.Internal_Hbond>
0.0000

> <Gold.Chemscore.DEClash>
0.2472

> <Gold.Chemscore.DEInternal>
1.1641

> <Gold.Chemscore.Rot>
2.7088

> <Gold.Chemscore.Internal.Correction>
   9.000000E+99

> <Gold.Chemscore.Hbonds>
donor molecule, donor type, donor heavy atom, donor atom, acceptor molecule, acceptor atom, score
      L1  H     9    38       P1  7948  0.24
      L1  H    12    42       P1  7949  0.75
      L1  H    16    57       P1  8028  0.98
      P1  H 10752 10765       L1    12  0.23

> <Gold.Chemscore.Hbond.Weighted>
-8.1515

> <Gold.Chemscore.Metal.Weighted>
-0.0000

> <Gold.Chemscore.Lipo.Weighted>
-14.7030

> <Gold.Chemscore.Internal_Hbond.Weighted>
0.0000

> <Gold.Chemscore.DEClash.Weighted>
0.2472

> <Gold.Chemscore.DEInternal.Weighted>
1.1641

> <Gold.Chemscore.Rot.Weighted>
6.9346

> <Gold.Chemscore.Internal.Correction.Weighted>
   9.000000E+99

> <Gold.Protein.RotatedTorsions>
[ 6907 6896 6895 6894 ] final   75.74 input  -60.11 | X-H torsion
[ 7974 7965 7964 7962 ] final   72.69 input  175.53 | X-H torsion
[ 8008 7997 7996 7995 ] final   26.47 input   59.86 | X-H torsion
[ 10167 10162 10161 10158 ] final   14.96 input  -65.29 | X-H torsion
[ 10718 10713 10712 10709 ] final   52.16 input   66.30 | X-H torsion
[ 10763 10752 10751 10750 ] final  154.55 input  -60.55 | X-H torsion
[ 11005 11000 10999 10996 ] final -155.44 input  -57.11 | X-H torsion

> <Gold.Protein.ActiveResidues>
 VAL166  LYS551  ARG553  GLY616  TRP617  ASP618  TYR619  PRO620  LYS621  CYS622 
 ASP623  PHE694  ASN695  SER759  ASP760  ASP761  ALA762  ILE779  LEU786  VAL792 
 PHE793  MET794  SER795  GLU796  ALA797  LYS798  CYS799  TRP800  GLU811  SER814 

> <Gold.Protein.RotatedAtoms>
  152.5040  134.4074  159.9436 H   0  0  0  0  0  0  0  0  0  0  0  0  # atno 6907 bound_to 6896
  151.4041  133.3742  159.2743 H   0  0  0  0  0  0  0  0  0  0  0  0  # atno 6908 bound_to 6896
  150.9340  134.8775  159.7628 H   0  0  0  0  0  0  0  0  0  0  0  0  # atno 6909 bound_to 6896
  145.7502  139.2756  143.1436 H   0  0  0  0  0  0  0  0  0  0  0  0  # atno 7974 bound_to 7965
  155.0278  140.3155  155.4769 H   0  0  0  0  0  0  0  0  0  0  0  0  # atno 8008 bound_to 7997
  156.2880  140.2185  156.5341 H   0  0  0  0  0  0  0  0  0  0  0  0  # atno 8009 bound_to 7997
  154.7396  140.0474  157.0787 H   0  0  0  0  0  0  0  0  0  0  0  0  # atno 8010 bound_to 7997
  140.5900  143.8814  150.6865 H   0  0  0  0  0  0  0  0  0  0  0  0  # atno 10167 bound_to 10162
  157.5049  130.8462  149.8362 H   0  0  0  0  0  0  0  0  0  0  0  0  # atno 10718 bound_to 10713
  154.1542  135.2813  155.3127 H   0  0  0  0  0  0  0  0  0  0  0  0  # atno 10763 bound_to 10752
  154.6195  135.5472  153.7563 H   0  0  0  0  0  0  0  0  0  0  0  0  # atno 10764 bound_to 10752
  153.0212  135.6435  154.1685 H   0  0  0  0  0  0  0  0  0  0  0  0  # atno 10765 bound_to 10752
  140.6864  134.4089  157.5223 H   0  0  0  0  0  0  0  0  0  0  0  0  # atno 11005 bound_to 11000
  146.0364  140.8208  142.9850 LP  0  0  0  0  0  0  0  0  0  0  0  0  # atno 17320 bound_to 7965
  144.6851  140.2845  143.7287 LP  0  0  0  0  0  0  0  0  0  0  0  0  # atno 17321 bound_to 7965
  140.2335  143.3718  152.1546 LP  0  0  0  0  0  0  0  0  0  0  0  0  # atno 17342 bound_to 10162
  139.5221  144.7055  151.5367 LP  0  0  0  0  0  0  0  0  0  0  0  0  # atno 17343 bound_to 10162
  156.0252  130.3782  150.1845 LP  0  0  0  0  0  0  0  0  0  0  0  0  # atno 17370 bound_to 10713
  157.0034  130.9929  151.3385 LP  0  0  0  0  0  0  0  0  0  0  0  0  # atno 17371 bound_to 10713
  139.8936  134.8726  156.2215 LP  0  0  0  0  0  0  0  0  0  0  0  0  # atno 17394 bound_to 11000
  141.0276  133.7006  156.1375 LP  0  0  0  0  0  0  0  0  0  0  0  0  # atno 17395 bound_to 11000

$$$$
