#       Name:                AV-unprocessed.smi:2379
#       Creating user name   scv26
#       Creation time:       Fri Mar 27 13:08:16 2020


#       File generated by GOLD software.
#

@<TRIPOS>MOLECULE
AV-unprocessed.smi:2379
    58    60     1
SMALL
NO_CHARGES


@<TRIPOS>ATOM
      1 ****        -6.8982   3.9480   1.0789 C.3            1 S1                 0.0000
      2 ****        -6.2516   2.5904   0.8997 C.ar           1 S1                 0.0000
      3 ****        -7.0288   1.4508   0.6177 C.ar           1 S1                 0.0000
      4 ****        -6.3673   0.2167   0.4626 C.ar           1 S1                 0.0000
      5 ****        -7.1410  -1.0495   0.1605 C.3            1 S1                 0.0000
      6 ****        -5.0285   0.0794   0.5728 N.ar           1 S1                 0.0000
      7 ****        -4.2703   1.1702   0.8450 C.ar           1 S1                 0.0000
      8 ****        -2.8572   1.1335   0.9811 N.am           1 S1                 0.0000
      9 ****        -2.0355   0.0790   0.8372 C.2            1 S1                 0.0000
     10 ****        -2.3861  -1.0670   0.5540 O.2            1 S1                 0.0000
     11 ****        -0.7566   0.4307   1.0356 N.am           1 S1                 0.0000
     12 ****         0.3879  -0.4708   0.9393 C.3            1 S1                 0.0000
     13 ****         1.5683   0.1006   1.7423 C.3            1 S1                 0.0000
     14 ****         2.8302  -0.7632   1.5775 C.3            1 S1                 0.0000
     15 ****         3.1930  -0.9103   0.1445 N.4            1 S1                 1.0000
     16 ****         4.4937  -1.5985  -0.0594 C.3            1 S1                 0.0000
     17 ****         5.3778  -0.8589  -1.0814 C.3            1 S1                 0.0000
     18 ****         4.9347  -0.9678  -2.5282 C.3            1 S1                 0.0000
     19 ****         6.2094  -0.6058  -3.2857 C.3            1 S1                 0.0000
     20 ****         7.2902  -1.0002  -2.4453 O.3            1 S1                 0.0000
     21 ****         6.7948  -1.4230  -1.1796 C.3            1 S1                 0.0000
     22 ****         2.0835  -1.5168  -0.6359 C.3            1 S1                 0.0000
     23 ****         0.8070  -0.6672  -0.5300 C.3            1 S1                 0.0000
     24 ****        -4.8545   2.4453   1.0162 C.ar           1 S1                 0.0000
     25 ****        -7.9538   3.9227   0.8063 H              1 S1                 0.0000
     26 ****        -6.4033   4.6904   0.4523 H              1 S1                 0.0000
     27 ****        -6.8203   4.2672   2.1183 H              1 S1                 0.0000
     28 ****        -8.1029   1.5202   0.5235 H              1 S1                 0.0000
     29 ****        -8.1916  -0.8337  -0.0353 H              1 S1                 0.0000
     30 ****        -7.0852  -1.7364   1.0053 H              1 S1                 0.0000
     31 ****        -6.7282  -1.5487  -0.7166 H              1 S1                 0.0000
     32 ****        -2.4220   2.0155   1.2071 H              1 S1                 0.0000
     33 ****        -0.5609   1.3937   1.2672 H              1 S1                 0.0000
     34 ****         0.1190  -1.4389   1.3669 H              1 S1                 0.0000
     35 ****         1.7840   1.1181   1.4119 H              1 S1                 0.0000
     36 ****         1.3046   0.1686   2.7984 H              1 S1                 0.0000
     37 ****         3.6529  -0.2951   2.1196 H              1 S1                 0.0000
     38 ****         2.6760  -1.7486   2.0201 H              1 S1                 0.0000
     39 ****         5.0400  -1.6322   0.8847 H              1 S1                 0.0000
     40 ****         4.3423  -2.6404  -0.3470 H              1 S1                 0.0000
     41 ****         5.4480   0.1960  -0.8098 H              1 S1                 0.0000
     42 ****         4.6420  -1.9927  -2.7620 H              1 S1                 0.0000
     43 ****         4.1018  -0.3086  -2.7752 H              1 S1                 0.0000
     44 ****         6.2644  -1.0927  -4.2598 H              1 S1                 0.0000
     45 ****         6.2683   0.4723  -3.4420 H              1 S1                 0.0000
     46 ****         7.4382  -1.0827  -0.3678 H              1 S1                 0.0000
     47 ****         6.7789  -2.5139  -1.1633 H              1 S1                 0.0000
     48 ****         2.3664  -1.6096  -1.6838 H              1 S1                 0.0000
     49 ****         1.8905  -2.5278  -0.2729 H              1 S1                 0.0000
     50 ****         0.0035  -1.1454  -1.0918 H              1 S1                 0.0000
     51 ****         0.9776   0.3022  -1.0010 H              1 S1                 0.0000
     52 ****        -4.2395   3.3068   1.2340 H              1 S1                 0.0000
     53 ****         3.3170   0.0288  -0.2060 H              1 S1                 0.0000
     54 ****        -4.6009  -0.8169   0.4550 LP             1 S1                 0.0000
     55 ****        -3.3542  -1.2727   0.4108 LP             1 S1                 0.0000
     56 ****        -1.7028  -1.7919   0.4672 LP             1 S1                 0.0000
     57 ****         7.9090  -0.2254  -2.3165 LP             1 S1                 0.0000
     58 ****         7.7857  -1.7547  -2.8756 LP             1 S1                 0.0000
@<TRIPOS>BOND
    1    1    2 1     
    2    1   25 1     
    3    1   26 1     
    4    1   27 1     
    5    2   24 ar    
    6    2    3 ar    
    7    3    4 ar    
    8    3   28 1     
    9    4    5 1     
   10    4    6 ar    
   11    5   29 1     
   12    5   30 1     
   13    5   31 1     
   14    6    7 ar    
   15    7    8 1     
   16    7   24 ar    
   17    8    9 am    
   18    8   32 1     
   19    9   10 2     
   20    9   11 am    
   21   11   12 1     
   22   11   33 1     
   23   12   23 1     
   24   12   13 1     
   25   12   34 1     
   26   13   14 1     
   27   13   35 1     
   28   13   36 1     
   29   14   15 1     
   30   14   37 1     
   31   14   38 1     
   32   15   16 1     
   33   15   22 1     
   34   15   53 1     
   35   16   17 1     
   36   16   39 1     
   37   16   40 1     
   38   17   21 1     
   39   17   18 1     
   40   17   41 1     
   41   18   19 1     
   42   18   42 1     
   43   18   43 1     
   44   19   20 1     
   45   19   44 1     
   46   19   45 1     
   47   20   21 1     
   48   21   46 1     
   49   21   47 1     
   50   22   23 1     
   51   22   48 1     
   52   22   49 1     
   53   23   50 1     
   54   23   51 1     
   55   24   52 1     
   56    6   54 1     
   57   10   55 1     
   58   10   56 1     
   59   20   57 1     
   60   20   58 1     
@<TRIPOS>SUBSTRUCTURE
      1 S1             1
@<TRIPOS>SET
LONE_PAIRS      STATIC     ATOMS    <user>   **** ""
5 54 55 56 57 58
DONOR_HYDROGENS      STATIC     ATOMS    <user>   **** ""
3 32 33 53
ATOM$BLUE        STATIC     ATOMS    COLORGROUP SYSTEM
5 54 55 56 57 58
ATOM$RED        STATIC     ATOMS    COLORGROUP SYSTEM
3 32 33 53
