#       Name:                AV-unprocessed.smi:2366
#       Creating user name   scv26
#       Creation time:       Fri Mar 27 13:06:00 2020


#       File generated by GOLD software.
#

@<TRIPOS>MOLECULE
AV-unprocessed.smi:2366
    36    37     1
SMALL
NO_CHARGES


@<TRIPOS>ATOM
      1 ****         0.3539   1.4284  -0.1452 O.2            1 S1                 0.0000
      2 ****        -0.8534   1.2220  -0.0151 C.2            1 S1                 0.0000
      3 ****        -1.4253   0.0115   0.1147 N.am           1 S1                 0.0000
      4 ****        -0.7927  -1.2601   0.1323 C.ar           1 S1                 0.0000
      5 ****        -1.6636  -2.3635   0.2688 C.ar           1 S1                 0.0000
      6 ****        -1.1301  -3.6661   0.2947 C.ar           1 S1                 0.0000
      7 ****         0.2618  -3.8323   0.1833 C.ar           1 S1                 0.0000
      8 ****         1.0668  -2.6852   0.0519 C.ar           1 S1                 0.0000
      9 ****         2.4333  -2.8431  -0.0568 O.3            1 S1                 0.0000
     10 ****         3.2440  -1.6769  -0.1708 C.3            1 S1                 0.0000
     11 ****         4.7113  -2.1033  -0.2794 C.3            1 S1                 0.0000
     12 ****         5.4720  -1.0519  -0.5816 F              1 S1                 0.0000
     13 ****         5.1303  -2.6296   0.8711 F              1 S1                 0.0000
     14 ****         0.5478  -1.4331   0.0277 N.ar           1 S1                 0.0000
     15 ****        -1.7733   2.1967   0.0137 N.am           1 S1                 0.0000
     16 ****        -1.5040   3.5936  -0.1042 C.3            1 S1                 0.0000
     17 ****        -2.3594   4.5460   0.7033 C.3            1 S1                 0.0000
     18 ****        -2.5456   4.4540  -0.7862 C.3            1 S1                 0.0000
     19 ****        -2.4298  -0.0023   0.2102 H              1 S1                 0.0000
     20 ****        -2.7310  -2.2184   0.3526 H              1 S1                 0.0000
     21 ****        -1.7784  -4.5235   0.3985 H              1 S1                 0.0000
     22 ****         0.7028  -4.8181   0.1993 H              1 S1                 0.0000
     23 ****         2.9626  -1.1218  -1.0673 H              1 S1                 0.0000
     24 ****         3.1076  -1.0186   0.6890 H              1 S1                 0.0000
     25 ****         4.8582  -2.8466  -1.0633 H              1 S1                 0.0000
     26 ****        -2.7408   1.9316   0.1243 H              1 S1                 0.0000
     27 ****        -0.4674   3.8922  -0.2554 H              1 S1                 0.0000
     28 ****        -3.1397   4.1227   1.3330 H              1 S1                 0.0000
     29 ****        -1.8796   5.4405   1.0956 H              1 S1                 0.0000
     30 ****        -2.1904   5.2871  -1.3895 H              1 S1                 0.0000
     31 ****        -3.4494   3.9685  -1.1498 H              1 S1                 0.0000
     32 ****         0.9938   0.6600  -0.1604 LP             1 S1                 0.0000
     33 ****         0.6943   2.3643  -0.2356 LP             1 S1                 0.0000
     34 ****         2.6026  -3.4012  -0.8691 LP             1 S1                 0.0000
     35 ****         2.7394  -3.3373   0.7569 LP             1 S1                 0.0000
     36 ****         1.1508  -0.6410  -0.0668 LP             1 S1                 0.0000
@<TRIPOS>BOND
    1    1    2 2     
    2    2    3 am    
    3    2   15 am    
    4    3    4 1     
    5    3   19 1     
    6    4   14 ar    
    7    4    5 ar    
    8    5    6 ar    
    9    5   20 1     
   10    6    7 ar    
   11    6   21 1     
   12    7    8 ar    
   13    7   22 1     
   14    8    9 1     
   15    8   14 ar    
   16    9   10 1     
   17   10   11 1     
   18   10   23 1     
   19   10   24 1     
   20   11   12 1     
   21   11   13 1     
   22   11   25 1     
   23   15   16 1     
   24   15   26 1     
   25   16   18 1     
   26   16   17 1     
   27   16   27 1     
   28   17   18 1     
   29   17   28 1     
   30   17   29 1     
   31   18   30 1     
   32   18   31 1     
   33    1   32 1     
   34    1   33 1     
   35    9   34 1     
   36    9   35 1     
   37   14   36 1     
@<TRIPOS>SUBSTRUCTURE
      1 S1             1
@<TRIPOS>SET
LONE_PAIRS      STATIC     ATOMS    <user>   **** ""
5 32 33 34 35 36
DONOR_HYDROGENS      STATIC     ATOMS    <user>   **** ""
2 19 26
ATOM$BLUE        STATIC     ATOMS    COLORGROUP SYSTEM
5 32 33 34 35 36
ATOM$RED        STATIC     ATOMS    COLORGROUP SYSTEM
2 19 26
