#       Name:                AV-unprocessed.smi:350
#       Creating user name   scv26
#       Creation time:       Thu Mar 26 22:33:02 2020


#       File generated by GOLD software.
#

@<TRIPOS>MOLECULE
AV-unprocessed.smi:350
    41    42     1
SMALL
NO_CHARGES


@<TRIPOS>ATOM
      1 ****        -2.8449   2.5823   0.5524 C.3            1 S1                 0.0000
      2 ****        -2.4920   1.1204   0.6050 C.2            1 S1                 0.0000
      3 ****        -1.2334   0.8268   0.6199 N.2            1 S1                 0.0000
      4 ****        -0.8004  -0.4845   0.6664 N.am           1 S1                 0.0000
      5 ****         0.6609  -0.6317   0.6564 C.3            1 S1                 0.0000
      6 ****         1.2395  -0.5860  -0.7749 C.3            1 S1                 0.0000
      7 ****         1.0259  -1.8358  -1.4008 O.3            1 S1                 0.0000
      8 ****         2.7188  -0.2312  -0.7546 C.ar           1 S1                 0.0000
      9 ****         3.1451   1.0424  -1.1891 C.ar           1 S1                 0.0000
     10 ****         4.5128   1.3790  -1.1683 C.ar           1 S1                 0.0000
     11 ****         5.4623   0.4448  -0.7107 C.ar           1 S1                 0.0000
     12 ****         7.1374   0.8573  -0.6856 Cl             1 S1                 0.0000
     13 ****         5.0427  -0.8260  -0.2723 C.ar           1 S1                 0.0000
     14 ****         3.6753  -1.1627  -0.2930 C.ar           1 S1                 0.0000
     15 ****        -1.6219  -1.5723   0.7039 C.2            1 S1                 0.0000
     16 ****        -1.1948  -2.7269   0.7470 O.2            1 S1                 0.0000
     17 ****        -3.0466  -1.2322   0.6858 C.2            1 S1                 0.0000
     18 ****        -3.9427  -2.3428   0.7210 C.1            1 S1                 0.0000
     19 ****        -4.6860  -3.2299   0.7491 N.1            1 S1                 0.0000
     20 ****        -3.4841   0.0509   0.6374 C.2            1 S1                 0.0000
     21 ****        -4.9516   0.4567   0.6158 C.3            1 S1                 0.0000
     22 ****        -3.4769   2.8597   1.3964 H              1 S1                 0.0000
     23 ****        -3.3839   2.8162  -0.3656 H              1 S1                 0.0000
     24 ****        -1.9577   3.2168   0.5849 H              1 S1                 0.0000
     25 ****         1.0725   0.2019   1.2293 H              1 S1                 0.0000
     26 ****         0.9951  -1.5247   1.1881 H              1 S1                 0.0000
     27 ****         0.7145   0.1698  -1.3608 H              1 S1                 0.0000
     28 ****         1.3139  -1.7746  -2.2987 H              1 S1                 0.0000
     29 ****         2.4251   1.7673  -1.5396 H              1 S1                 0.0000
     30 ****         4.8319   2.3550  -1.5034 H              1 S1                 0.0000
     31 ****         5.7681  -1.5440   0.0809 H              1 S1                 0.0000
     32 ****         3.3626  -2.1389   0.0482 H              1 S1                 0.0000
     33 ****        -5.6185  -0.4050   0.6093 H              1 S1                 0.0000
     34 ****        -5.1734   1.0470  -0.2740 H              1 S1                 0.0000
     35 ****        -5.1960   1.0537   1.4950 H              1 S1                 0.0000
     36 ****        -0.5586   1.5645   0.5973 LP             1 S1                 0.0000
     37 ****         0.0529  -2.0648  -1.3735 LP             1 S1                 0.0000
     38 ****         1.5485  -2.5442  -0.9265 LP             1 S1                 0.0000
     39 ****        -0.2091  -2.8954   0.7556 LP             1 S1                 0.0000
     40 ****        -1.8337  -3.4957   0.7733 LP             1 S1                 0.0000
     41 ****        -5.3280  -3.9961   0.7733 LP             1 S1                 0.0000
@<TRIPOS>BOND
    1    1    2 1     
    2    1   22 1     
    3    1   23 1     
    4    1   24 1     
    5    2   20 1     
    6    2    3 2     
    7    3    4 1     
    8    4    5 1     
    9    4   15 am    
   10    5    6 1     
   11    5   25 1     
   12    5   26 1     
   13    6    7 1     
   14    6    8 1     
   15    6   27 1     
   16    7   28 1     
   17    8   14 ar    
   18    8    9 ar    
   19    9   10 ar    
   20    9   29 1     
   21   10   11 ar    
   22   10   30 1     
   23   11   12 1     
   24   11   13 ar    
   25   13   14 ar    
   26   13   31 1     
   27   14   32 1     
   28   15   16 2     
   29   15   17 1     
   30   17   18 1     
   31   17   20 2     
   32   18   19 3     
   33   20   21 1     
   34   21   33 1     
   35   21   34 1     
   36   21   35 1     
   37    3   36 1     
   38    7   37 1     
   39    7   38 1     
   40   16   39 1     
   41   16   40 1     
   42   19   41 1     
@<TRIPOS>SUBSTRUCTURE
      1 S1             1
@<TRIPOS>SET
LONE_PAIRS      STATIC     ATOMS    <user>   **** ""
6 36 37 38 39 40 41
DONOR_HYDROGENS      STATIC     ATOMS    <user>   **** ""
1 28
ATOM$BLUE        STATIC     ATOMS    COLORGROUP SYSTEM
6 36 37 38 39 40 41
ATOM$RED        STATIC     ATOMS    COLORGROUP SYSTEM
1 28
