#       Name:                AV-unprocessed.smi:174
#       Creating user name   scv26
#       Creation time:       Thu Mar 26 19:20:01 2020


#       File generated by GOLD software.
#

@<TRIPOS>MOLECULE
AV-unprocessed.smi:174
    62    65     1
SMALL
NO_CHARGES


@<TRIPOS>ATOM
      1 ****        -9.0327  -0.3013   0.4095 N.am           1 S1                 0.0000
      2 ****        -7.7616   0.0013   0.1365 C.2            1 S1                 0.0000
      3 ****        -7.4588   0.9024  -0.6445 O.2            1 S1                 0.0000
      4 ****        -6.6896  -0.8494   0.8332 C.3            1 S1                 0.0000
      5 ****        -5.3468  -0.2473   0.7950 N.am           1 S1                 0.0000
      6 ****        -4.4700  -0.6621  -0.3051 C.3            1 S1                 0.0000
      7 ****        -2.9942  -0.6606   0.1048 C.3            1 S1                 0.0000
      8 ****        -2.6290   0.6342   0.6654 N.pl3          1 S1                 0.0000
      9 ****        -1.3216   1.0154   0.7029 C.ar           1 S1                 0.0000
     10 ****        -1.0563   2.3376   0.8782 N.ar           1 S1                 0.0000
     11 ****         0.2013   2.7847   0.9154 C.ar           1 S1                 0.0000
     12 ****         1.3349   2.0925   0.8040 N.ar           1 S1                 0.0000
     13 ****         1.0850   0.7627   0.6387 C.ar           1 S1                 0.0000
     14 ****        -0.1972   0.1414   0.5768 C.ar           1 S1                 0.0000
     15 ****        -0.0343  -1.2319   0.4150 N.2            1 S1                 0.0000
     16 ****         1.2576  -1.4073   0.3702 C.2            1 S1                 0.0000
     17 ****         2.0051  -0.2609   0.4961 N.pl3          1 S1                 0.0000
     18 ****         3.4544  -0.1647   0.4806 C.3            1 S1                 0.0000
     19 ****         4.0352  -0.2260  -0.9460 C.3            1 S1                 0.0000
     20 ****         3.4664   0.8052  -1.7307 O.3            1 S1                 0.0000
     21 ****         5.5668  -0.0684  -0.9551 C.3            1 S1                 0.0000
     22 ****         6.2121  -0.2027  -2.3343 C.3            1 S1                 0.0000
     23 ****         7.6454  -0.5894  -2.0116 C.3            1 S1                 0.0000
     24 ****         7.5691  -1.1301  -0.5805 C.3            1 S1                 0.0000
     25 ****         6.1867  -1.1311  -0.2477 O.3            1 S1                 0.0000
     26 ****        -3.5453   1.2863   1.6153 C.3            1 S1                 0.0000
     27 ****        -4.9664   0.6958   1.6915 C.2            1 S1                 0.0000
     28 ****        -5.7108   1.0984   2.5859 O.2            1 S1                 0.0000
     29 ****        -9.7770   0.2315  -0.0171 H              1 S1                 0.0000
     30 ****        -9.2471  -1.0559   1.0452 H              1 S1                 0.0000
     31 ****        -6.9893  -1.0302   1.8673 H              1 S1                 0.0000
     32 ****        -6.6787  -1.8328   0.3626 H              1 S1                 0.0000
     33 ****        -4.7369  -1.6550  -0.6676 H              1 S1                 0.0000
     34 ****        -4.6234   0.0237  -1.1396 H              1 S1                 0.0000
     35 ****        -2.8058  -1.4424   0.8418 H              1 S1                 0.0000
     36 ****        -2.3922  -0.8815  -0.7772 H              1 S1                 0.0000
     37 ****         0.3148   3.8498   1.0541 H              1 S1                 0.0000
     38 ****         1.7034  -2.3831   0.2428 H              1 S1                 0.0000
     39 ****         3.7502   0.7624   0.9734 H              1 S1                 0.0000
     40 ****         3.8544  -0.9783   1.0868 H              1 S1                 0.0000
     41 ****         3.7666  -1.1796  -1.4024 H              1 S1                 0.0000
     42 ****         3.6597   1.6352  -1.3220 H              1 S1                 0.0000
     43 ****         5.8583   0.8788  -0.4965 H              1 S1                 0.0000
     44 ****         5.7348  -1.0064  -2.8967 H              1 S1                 0.0000
     45 ****         6.1420   0.7103  -2.9262 H              1 S1                 0.0000
     46 ****         8.0244  -1.3331  -2.7132 H              1 S1                 0.0000
     47 ****         8.3037   0.2790  -2.0539 H              1 S1                 0.0000
     48 ****         7.9878  -2.1326  -0.4905 H              1 S1                 0.0000
     49 ****         8.1057  -0.4743   0.1064 H              1 S1                 0.0000
     50 ****        -3.1079   1.2525   2.6145 H              1 S1                 0.0000
     51 ****        -3.6520   2.3387   1.3488 H              1 S1                 0.0000
     52 ****        -8.1751   1.4337  -1.0968 LP             1 S1                 0.0000
     53 ****        -6.4964   1.1035  -0.8270 LP             1 S1                 0.0000
     54 ****        -1.8129   2.9834   0.9806 LP             1 S1                 0.0000
     55 ****         2.2492   2.4960   0.8373 LP             1 S1                 0.0000
     56 ****        -0.7486  -1.9286   0.3480 LP             1 S1                 0.0000
     57 ****         2.4759   0.6793  -1.7863 LP             1 S1                 0.0000
     58 ****         3.8573   0.7833  -2.6509 LP             1 S1                 0.0000
     59 ****         5.7739  -2.0024  -0.5133 LP             1 S1                 0.0000
     60 ****         6.0741  -0.9953   0.7366 LP             1 S1                 0.0000
     61 ****        -6.6357   0.7278   2.6713 LP             1 S1                 0.0000
     62 ****        -5.3905   1.7959   3.2269 LP             1 S1                 0.0000
@<TRIPOS>BOND
    1    1    2 am    
    2    1   29 1     
    3    1   30 1     
    4    2    3 2     
    5    2    4 1     
    6    4    5 1     
    7    4   31 1     
    8    4   32 1     
    9    5   27 am    
   10    5    6 1     
   11    6    7 1     
   12    6   33 1     
   13    6   34 1     
   14    7    8 1     
   15    7   35 1     
   16    7   36 1     
   17    8    9 1     
   18    8   26 1     
   19    9   14 ar    
   20    9   10 ar    
   21   10   11 ar    
   22   11   12 ar    
   23   11   37 1     
   24   12   13 ar    
   25   13   17 1     
   26   13   14 ar    
   27   14   15 1     
   28   15   16 2     
   29   16   17 1     
   30   16   38 1     
   31   17   18 1     
   32   18   19 1     
   33   18   39 1     
   34   18   40 1     
   35   19   20 1     
   36   19   21 1     
   37   19   41 1     
   38   20   42 1     
   39   21   25 1     
   40   21   22 1     
   41   21   43 1     
   42   22   23 1     
   43   22   44 1     
   44   22   45 1     
   45   23   24 1     
   46   23   46 1     
   47   23   47 1     
   48   24   25 1     
   49   24   48 1     
   50   24   49 1     
   51   26   27 1     
   52   26   50 1     
   53   26   51 1     
   54   27   28 2     
   55    3   52 1     
   56    3   53 1     
   57   10   54 1     
   58   12   55 1     
   59   15   56 1     
   60   20   57 1     
   61   20   58 1     
   62   25   59 1     
   63   25   60 1     
   64   28   61 1     
   65   28   62 1     
@<TRIPOS>SUBSTRUCTURE
      1 S1             1
@<TRIPOS>SET
LONE_PAIRS      STATIC     ATOMS    <user>   **** ""
11 52 53 54 55 56 57 58 59 60 61 62
DONOR_HYDROGENS      STATIC     ATOMS    <user>   **** ""
3 29 30 42
ATOM$BLUE        STATIC     ATOMS    COLORGROUP SYSTEM
11 52 53 54 55 56 57 58 59 60 61 62
ATOM$RED        STATIC     ATOMS    COLORGROUP SYSTEM
3 29 30 42
