AV-unprocessed.smi:1489|AV-procd|sdf|6028|dock2
  -GOLD-   22720 6133D 1   1.00000     0.00000
 Structure written by MMmdl.
 47 49  0  0  0  0  0  0  0  0  2 V2000
  146.5493  138.4964  154.8597 O   0  0  0  0  0  0  0  0  0  0  0  0
  147.3210  138.0047  154.0369 C   0  0  0  0  0  0  0  0  0  0  0  0
  148.6548  138.1713  154.0366 N   0  0  0  0  0  0  0  0  0  0  0  0
  149.4442  138.9514  154.9237 C   0  0  0  0  0  0  0  0  0  0  0  0
  150.8338  139.0182  154.6853 C   0  0  0  0  0  0  0  0  0  0  0  0
  151.6525  139.7940  155.5313 C   0  0  0  0  0  0  0  0  0  0  0  0
  151.0653  140.5060  156.6031 C   0  0  0  0  0  0  0  0  0  0  0  0
  151.7883  141.3108  157.4950 N   0  0  0  0  0  0  0  0  0  0  0  0
  151.3538  142.6958  157.5674 C   0  0  0  0  0  0  0  0  0  0  0  0
  151.9697  143.2499  158.8536 C   0  0  0  0  0  0  0  0  0  0  0  0
  152.2368  142.0166  159.7245 C   0  0  0  0  0  0  0  0  0  0  0  0
  151.8099  140.8234  158.8644 C   0  0  0  0  0  0  0  0  0  0  0  0
  149.7294  140.4290  156.7886 N   0  3  0  0  0  0  0  0  0  0  0  0
  148.9105  139.6945  156.0047 C   0  0  0  0  0  0  0  0  0  0  0  0
  146.9340  137.2064  153.0287 N   0  0  0  0  0  0  0  0  0  0  0  0
  145.5743  136.7615  152.7155 C   0  0  2  0  0  0  0  0  0  0  0  0
  144.8157  136.2389  153.9538 C   0  0  0  0  0  0  0  0  0  0  0  0
  143.3659  135.8647  153.5962 C   0  0  0  0  0  0  0  0  0  0  0  0
  143.2906  134.8708  152.4198 C   0  0  2  0  0  0  0  0  0  0  0  0
  143.7691  133.6032  152.8241 O   0  0  0  0  0  0  0  0  0  0  0  0
  144.0890  135.3675  151.1984 C   0  0  0  0  0  0  0  0  0  0  0  0
  145.5376  135.7376  151.5620 C   0  0  0  0  0  0  0  0  0  0  0  0
  149.1687  137.6352  153.3528 H   0  0  0  0  0  0  0  0  0  0  0  0
  151.2746  138.4748  153.8623 H   0  0  0  0  0  0  0  0  0  0  0  0
  152.7166  139.8407  155.3510 H   0  0  0  0  0  0  0  0  0  0  0  0
  151.6843  143.2566  156.6925 H   0  0  0  0  0  0  0  0  0  0  0  0
  150.2662  142.7590  157.6164 H   0  0  0  0  0  0  0  0  0  0  0  0
  152.9097  143.7573  158.6332 H   0  0  0  0  0  0  0  0  0  0  0  0
  151.3102  143.9692  159.3399 H   0  0  0  0  0  0  0  0  0  0  0  0
  153.2985  141.9535  159.9664 H   0  0  0  0  0  0  0  0  0  0  0  0
  151.6841  142.0471  160.6640 H   0  0  0  0  0  0  0  0  0  0  0  0
  150.8196  140.4789  159.1657 H   0  0  0  0  0  0  0  0  0  0  0  0
  152.5022  139.9877  158.9705 H   0  0  0  0  0  0  0  0  0  0  0  0
  147.8649  139.7448  156.2690 H   0  0  0  0  0  0  0  0  0  0  0  0
  147.6566  136.8597  152.4151 H   0  0  0  0  0  0  0  0  0  0  0  0
  145.0570  137.6583  152.3716 H   0  0  0  0  0  0  0  0  0  0  0  0
  145.3169  135.3652  154.3706 H   0  0  0  0  0  0  0  0  0  0  0  0
  144.8143  136.9963  154.7385 H   0  0  0  0  0  0  0  0  0  0  0  0
  142.8584  135.4551  154.4703 H   0  0  0  0  0  0  0  0  0  0  0  0
  142.8226  136.7719  153.3286 H   0  0  0  0  0  0  0  0  0  0  0  0
  142.2472  134.7382  152.1320 H   0  0  0  0  0  0  0  0  0  0  0  0
  143.1878  133.2585  153.4844 H   0  0  0  0  0  0  0  0  0  0  0  0
  144.0812  134.6142  150.4096 H   0  0  0  0  0  0  0  0  0  0  0  0
  143.5932  136.2457  150.7831 H   0  0  0  0  0  0  0  0  0  0  0  0
  146.0419  136.1437  150.6846 H   0  0  0  0  0  0  0  0  0  0  0  0
  146.0800  134.8321  151.8356 H   0  0  0  0  0  0  0  0  0  0  0  0
  149.3159  140.9545  157.5594 H   0  0  0  0  0  0  0  0  0  0  0  0
  1  2  2  0  0  0  0
  2  3  1  0  0  0  0
  2 15  1  0  0  0  0
  3  4  1  0  0  0  0
  3 23  1  0  0  0  0
  4 14  1  0  0  0  0
  4  5  2  0  0  0  0
  5  6  1  0  0  0  0
  5 24  1  0  0  0  0
  6  7  2  0  0  0  0
  6 25  1  0  0  0  0
  7  8  1  0  0  0  0
  7 13  1  0  0  0  0
  8 12  1  0  0  0  0
  8  9  1  0  0  0  0
  9 10  1  0  0  0  0
  9 26  1  0  0  0  0
  9 27  1  0  0  0  0
 10 11  1  0  0  0  0
 10 28  1  0  0  0  0
 10 29  1  0  0  0  0
 11 12  1  0  0  0  0
 11 30  1  0  0  0  0
 11 31  1  0  0  0  0
 12 32  1  0  0  0  0
 12 33  1  0  0  0  0
 13 14  2  0  0  0  0
 13 47  1  0  0  0  0
 14 34  1  0  0  0  0
 15 16  1  0  0  0  0
 15 35  1  0  0  0  0
 16 22  1  0  0  0  0
 16 17  1  0  0  0  0
 16 36  1  0  0  0  0
 17 18  1  0  0  0  0
 17 37  1  0  0  0  0
 17 38  1  0  0  0  0
 18 19  1  0  0  0  0
 18 39  1  0  0  0  0
 18 40  1  0  0  0  0
 19 20  1  0  0  0  0
 19 21  1  0  0  0  0
 19 41  1  0  0  0  0
 20 42  1  0  0  0  0
 21 22  1  0  0  0  0
 21 43  1  0  0  0  0
 21 44  1  0  0  0  0
 22 45  1  0  0  0  0
 22 46  1  0  0  0  0
M  CHG  1  13   1
M  END
> <s_m_source_file>
AV-unprocessed.smi

> <i_m_source_file_index>
1489

> <i_lp_mmshare_version>
43012

> <i_f3d_flags>
0

> <s_epik_input>
W0NIMl0xW0NIMl1bQ0BIXShbT0hdKVtDSDJdW0NIMl1bQ0BIXTFbTkhdQyg9TylbTkhdYzJbY0hdW2NIXWMobltjSF0yKU4zW0NIMl1bQ0gyXVtDSDJdW0NIMl0z

> <s_epik_cmdline>
J2VwaWtfcHl0aG9uJywgJy1waCcsICc3LjAnLCAnLXRuJywgJzgnLCAnLW1hJywgJzIwMCcsICctbWV0YWxfYmluZGluZycsICctaW1hZScsICc8aW5maWxlLm1hZT4nLCAnLW9tYWUnLCAnPG91dGZpbGUubWFlPic=

> <r_lp_tautomer_probability>
0.999994

> <r_epik_Ionization_Penalty>
1.08454

> <r_epik_Ionization_Penalty_Charging>
1.08452

> <r_epik_Ionization_Penalty_Neutral>
2.18252e-05

> <r_epik_State_Penalty>
1.14025

> <r_epik_Charging_Adjusted_Penalty>
2.22477

> <i_epik_Tot_Q>
1

> <i_epik_Tot_abs_Q>
1

> <r_epik_Metal_State_Penalty>
1.22975

> <b_epik_Metal_Only>
0

> <s_lp_Force_Field>
OPLS_2005

> <r_lp_Energy>
45.8336

> <b_lp_Chiralities_Consistent>
1

> <s_lp_Variant>
AV-unprocessed.smi:1489-4

> <Gold.Version>
5.8.1

> <Gold.Id.Protein>
6NUR|6NUR_protein|mol2

> <Gold.PLP.Fitness>
41.7465

> <Gold.PLP.PLP>
-33.3355

> <Gold.PLP.part.hbond>
-2.9796

> <Gold.PLP.part.metal>
0.0000

> <Gold.PLP.part.buried>
-5.0522

> <Gold.PLP.part.nonpolar>
-26.7364

> <Gold.PLP.part.repulsive>
0.1229

> <Gold.PLP.ligand.clash>
0.0000

> <Gold.PLP.ligand.torsion>
0.1327

> <Gold.PLP.Chemscore.Hbond>
2.8794

> <Gold.PLP.Chemscore.CHOScore>
0.0000

> <Gold.PLP.Chemscore.Metal>
0.0000

> <Gold.Chemscore.Hbonds>
donor molecule, donor type, donor heavy atom, donor atom, acceptor molecule, acceptor atom, score
      L1  H     3    23       P1  7948  0.89
      L1  H    15    35       P1  7948  1.00
      L1  H    20    42       P1 10957  0.97

> <Gold.PLP.Chemscore.Internal.Correction>
0.0381

> <Gold.Rescore>
     Score         DG    S(hbond)    S(metal)    S(lipo)     H(rot)  DE(clash)    DE(int)     intcor
     19.07     -20.43       2.84        0.00      83.80       1.69       0.04       1.32       ----

> <Gold.Chemscore.Fitness>
19.0693

> <Gold.Chemscore.DG>
-20.4261

> <Gold.Chemscore.ZeroCoef>
-5.4800

> <Gold.Chemscore.Hbond>
2.8369

> <Gold.Chemscore.Metal>
0.0000

> <Gold.Chemscore.Lipo>
83.8000

> <Gold.Chemscore.Internal_Hbond>
0.0000

> <Gold.Chemscore.DEClash>
0.0363

> <Gold.Chemscore.DEInternal>
1.3206

> <Gold.Chemscore.Rot>
1.6929

> <Gold.Chemscore.Internal.Correction>
   9.000000E+99

> <Gold.Chemscore.Hbonds>
donor molecule, donor type, donor heavy atom, donor atom, acceptor molecule, acceptor atom, score
      L1  H     3    23       P1  7948  0.80
      L1  H    15    35       P1  7948  0.93
      L1  H    20    42       P1 10957  0.83

> <Gold.Chemscore.Hbond.Weighted>
-9.4753

> <Gold.Chemscore.Metal.Weighted>
-0.0000

> <Gold.Chemscore.Lipo.Weighted>
-9.8046

> <Gold.Chemscore.Internal_Hbond.Weighted>
0.0000

> <Gold.Chemscore.DEClash.Weighted>
0.0363

> <Gold.Chemscore.DEInternal.Weighted>
1.3206

> <Gold.Chemscore.Rot.Weighted>
4.3338

> <Gold.Chemscore.Internal.Correction.Weighted>
   9.000000E+99

> <Gold.Protein.RotatedTorsions>
[ 6907 6896 6895 6894 ] final  -10.83 input  -60.11 | X-H torsion
[ 7974 7965 7964 7962 ] final  133.25 input  175.53 | X-H torsion
[ 8008 7997 7996 7995 ] final  -77.92 input   59.86 | X-H torsion
[ 10167 10162 10161 10158 ] final -153.86 input  -65.29 | X-H torsion
[ 10718 10713 10712 10709 ] final -126.34 input   66.30 | X-H torsion
[ 10763 10752 10751 10750 ] final  -79.26 input  -60.55 | X-H torsion
[ 11005 11000 10999 10996 ] final -148.95 input  -57.11 | X-H torsion

> <Gold.Protein.ActiveResidues>
 VAL166  LYS551  ARG553  GLY616  TRP617  ASP618  TYR619  PRO620  LYS621  CYS622 
 ASP623  PHE694  ASN695  SER759  ASP760  ASP761  ALA762  ILE779  LEU786  VAL792 
 PHE793  MET794  SER795  GLU796  ALA797  LYS798  CYS799  TRP800  GLU811  SER814 

> <Gold.Protein.RotatedAtoms>
  151.3958  135.0963  159.9540 H   0  0  0  0  0  0  0  0  0  0  0  0  # atno 6907 bound_to 6896
  152.5066  133.8936  159.7416 H   0  0  0  0  0  0  0  0  0  0  0  0  # atno 6908 bound_to 6896
  150.9399  133.6612  159.2821 H   0  0  0  0  0  0  0  0  0  0  0  0  # atno 6909 bound_to 6896
  144.9884  139.4431  143.5351 H   0  0  0  0  0  0  0  0  0  0  0  0  # atno 7974 bound_to 7965
  154.5641  140.0702  156.8864 H   0  0  0  0  0  0  0  0  0  0  0  0  # atno 8008 bound_to 7997
  155.2756  140.3368  155.4244 H   0  0  0  0  0  0  0  0  0  0  0  0  # atno 8009 bound_to 7997
  156.2066  140.1742  156.7772 H   0  0  0  0  0  0  0  0  0  0  0  0  # atno 8010 bound_to 7997
  139.7062  143.9183  152.2449 H   0  0  0  0  0  0  0  0  0  0  0  0  # atno 10167 bound_to 10162
  156.1756  130.6697  151.0238 H   0  0  0  0  0  0  0  0  0  0  0  0  # atno 10718 bound_to 10713
  154.5364  135.5701  153.6802 H   0  0  0  0  0  0  0  0  0  0  0  0  # atno 10763 bound_to 10752
  152.9952  135.6217  154.2560 H   0  0  0  0  0  0  0  0  0  0  0  0  # atno 10764 bound_to 10752
  154.2489  135.2860  155.2804 H   0  0  0  0  0  0  0  0  0  0  0  0  # atno 10765 bound_to 10752
  140.7559  134.3354  157.5114 H   0  0  0  0  0  0  0  0  0  0  0  0  # atno 11005 bound_to 11000
  146.3425  139.9201  142.8768 LP  0  0  0  0  0  0  0  0  0  0  0  0  # atno 17320 bound_to 7965
  145.2320  140.9977  143.3985 LP  0  0  0  0  0  0  0  0  0  0  0  0  # atno 17321 bound_to 7965
  139.9039  144.6896  150.8635 LP  0  0  0  0  0  0  0  0  0  0  0  0  # atno 17342 bound_to 10162
  140.7722  143.3493  151.2047 LP  0  0  0  0  0  0  0  0  0  0  0  0  # atno 17343 bound_to 10162
  157.6833  131.0832  150.7311 LP  0  0  0  0  0  0  0  0  0  0  0  0  # atno 17370 bound_to 10713
  156.7369  130.4727  149.5486 LP  0  0  0  0  0  0  0  0  0  0  0  0  # atno 17371 bound_to 10713
  139.8779  134.9171  156.3171 LP  0  0  0  0  0  0  0  0  0  0  0  0  # atno 17394 bound_to 11000
  140.9708  133.7328  156.0532 LP  0  0  0  0  0  0  0  0  0  0  0  0  # atno 17395 bound_to 11000

$$$$
