#       Name:                AV-unprocessed.smi:3269
#       Creating user name   scv26
#       Creation time:       Fri Mar 27 18:42:02 2020


#       File generated by GOLD software.
#

@<TRIPOS>MOLECULE
AV-unprocessed.smi:3269
    44    45     1
SMALL
NO_CHARGES


@<TRIPOS>ATOM
      1 ****        -2.6215   3.4932   0.4639 C.3            1 S1                 0.0000
      2 ****        -2.4301   2.0407   0.7950 C.2            1 S1                 0.0000
      3 ****        -3.4162   1.1878   0.5724 N.2            1 S1                 0.0000
      4 ****        -2.9296  -0.0088   0.9576 N.pl3          1 S1                 0.0000
      5 ****        -3.7633  -1.1889   0.8355 C.3            1 S1                 0.0000
      6 ****        -1.6354   0.0890   1.4301 C.2            1 S1                 0.0000
      7 ****        -0.8730  -1.1038   1.9106 C.3            1 S1                 0.0000
      8 ****        -1.2745   1.4077   1.3397 C.2            1 S1                 0.0000
      9 ****         0.0352   2.0585   1.7078 C.3            1 S1                 0.0000
     10 ****         1.0397   1.8374   0.5778 C.2            1 S1                 0.0000
     11 ****         1.0252   2.5684  -0.4126 O.2            1 S1                 0.0000
     12 ****         1.8821   0.8039   0.7249 N.am           1 S1                 0.0000
     13 ****         2.8072   0.3242  -0.2932 C.3            1 S1                 0.0000
     14 ****         2.0874  -0.5950  -1.2933 C.3            1 S1                 0.0000
     15 ****         2.9881  -1.1481  -2.3953 C.3            1 S1                 0.0000
     16 ****         2.3053  -2.4483  -2.7951 C.3            1 S1                 0.0000
     17 ****         1.2909  -2.7012  -1.6755 C.3            1 S1                 0.0000
     18 ****         1.6333  -1.7773  -0.6534 O.3            1 S1                 0.0000
     19 ****        -1.7996   3.8638  -0.1489 H              1 S1                 0.0000
     20 ****        -2.6580   4.0970   1.3706 H              1 S1                 0.0000
     21 ****        -3.5469   3.6652  -0.0872 H              1 S1                 0.0000
     22 ****        -3.9035  -1.6424   1.8170 H              1 S1                 0.0000
     23 ****        -3.2821  -1.9097   0.1741 H              1 S1                 0.0000
     24 ****        -4.7402  -0.9304   0.4242 H              1 S1                 0.0000
     25 ****         0.0699  -0.8123   2.3723 H              1 S1                 0.0000
     26 ****        -0.6462  -1.7749   1.0822 H              1 S1                 0.0000
     27 ****        -1.4463  -1.6606   2.6518 H              1 S1                 0.0000
     28 ****        -0.0816   3.1309   1.8671 H              1 S1                 0.0000
     29 ****         0.4325   1.6578   2.6413 H              1 S1                 0.0000
     30 ****         1.8215   0.2611   1.5740 H              1 S1                 0.0000
     31 ****         3.2664   1.1672  -0.8121 H              1 S1                 0.0000
     32 ****         3.6154  -0.2153   0.2014 H              1 S1                 0.0000
     33 ****         1.2332  -0.0830  -1.7415 H              1 S1                 0.0000
     34 ****         3.1033  -0.4547  -3.2291 H              1 S1                 0.0000
     35 ****         3.9811  -1.3652  -1.9990 H              1 S1                 0.0000
     36 ****         1.8015  -2.3591  -3.7582 H              1 S1                 0.0000
     37 ****         3.0313  -3.2585  -2.8696 H              1 S1                 0.0000
     38 ****         0.2772  -2.4919  -2.0208 H              1 S1                 0.0000
     39 ****         1.3195  -3.7263  -1.3057 H              1 S1                 0.0000
     40 ****        -4.3228   1.3868   0.2003 LP             1 S1                 0.0000
     41 ****         0.3555   3.3081  -0.4784 LP             1 S1                 0.0000
     42 ****         1.6832   2.4226  -1.1514 LP             1 S1                 0.0000
     43 ****         0.8317  -1.5761  -0.0904 LP             1 S1                 0.0000
     44 ****         2.3583  -2.1557  -0.0780 LP             1 S1                 0.0000
@<TRIPOS>BOND
    1    1    2 1     
    2    1   19 1     
    3    1   20 1     
    4    1   21 1     
    5    2    8 1     
    6    2    3 2     
    7    3    4 1     
    8    4    5 1     
    9    4    6 1     
   10    5   22 1     
   11    5   23 1     
   12    5   24 1     
   13    6    7 1     
   14    6    8 2     
   15    7   25 1     
   16    7   26 1     
   17    7   27 1     
   18    8    9 1     
   19    9   10 1     
   20    9   28 1     
   21    9   29 1     
   22   10   11 2     
   23   10   12 am    
   24   12   13 1     
   25   12   30 1     
   26   13   14 1     
   27   13   31 1     
   28   13   32 1     
   29   14   18 1     
   30   14   15 1     
   31   14   33 1     
   32   15   16 1     
   33   15   34 1     
   34   15   35 1     
   35   16   17 1     
   36   16   36 1     
   37   16   37 1     
   38   17   18 1     
   39   17   38 1     
   40   17   39 1     
   41    3   40 1     
   42   11   41 1     
   43   11   42 1     
   44   18   43 1     
   45   18   44 1     
@<TRIPOS>SUBSTRUCTURE
      1 S1             1
@<TRIPOS>SET
LONE_PAIRS      STATIC     ATOMS    <user>   **** ""
5 40 41 42 43 44
DONOR_HYDROGENS      STATIC     ATOMS    <user>   **** ""
1 30
ATOM$BLUE        STATIC     ATOMS    COLORGROUP SYSTEM
5 40 41 42 43 44
ATOM$RED        STATIC     ATOMS    COLORGROUP SYSTEM
1 30
