AV-unprocessed.smi:295|AV-procd|sdf|2257|dock3
  -GOLD-   2262022143D 1   1.00000     0.00000
 Structure written by MMmdl.
 35 36  0  0  0  0  0  0  0  0  1 V2000
  153.3884  142.0611  161.4898 C   0  0  0  0  0  0  0  0  0  0  0  0
  152.4288  142.5633  160.3950 C   0  0  1  0  0  0  0  0  0  0  0  0
  152.6292  144.0714  160.1437 C   0  0  0  0  0  0  0  0  0  0  0  0
  151.6736  144.6023  159.0640 C   0  0  0  0  0  0  0  0  0  0  0  0
  151.8313  143.8178  157.7542 C   0  0  0  0  0  0  0  0  0  0  0  0
  151.6211  142.3144  157.9855 C   0  0  0  0  0  0  0  0  0  0  0  0
  152.5694  141.7687  159.0727 C   0  0  2  0  0  0  0  0  0  0  0  0
  152.2897  140.3548  159.3048 N   0  0  0  0  0  0  0  0  0  0  0  0
  153.1851  139.3566  159.2407 C   0  0  0  0  0  0  0  0  0  0  0  0
  154.3597  139.5188  158.9125 O   0  0  0  0  0  0  0  0  0  0  0  0
  152.6782  137.9562  159.5968 C   0  0  0  0  0  0  0  0  0  0  0  0
  153.4826  137.3412  160.6388 N   0  0  0  0  0  0  0  0  0  0  0  0
  153.8118  137.7849  161.8566 C   0  0  0  0  0  0  0  0  0  0  0  0
  154.5910  136.9567  162.5405 N   0  0  0  0  0  0  0  0  0  0  0  0
  154.7009  135.9583  161.6166 C   0  0  0  0  0  0  0  0  0  0  0  0
  155.4848  134.7636  161.8797 C   0  0  0  0  0  0  0  0  0  0  0  0
  156.1091  133.8119  162.0893 N   0  0  0  0  0  0  0  0  0  0  0  0
  154.0610  136.1281  160.4615 N   0  0  0  0  0  0  0  0  0  0  0  0
  154.4280  142.1407  161.1705 H   0  0  0  0  0  0  0  0  0  0  0  0
  153.1989  141.0187  161.7473 H   0  0  0  0  0  0  0  0  0  0  0  0
  153.2770  142.6437  162.4044 H   0  0  0  0  0  0  0  0  0  0  0  0
  151.4117  142.4257  160.7663 H   0  0  0  0  0  0  0  0  0  0  0  0
  152.4751  144.6277  161.0689 H   0  0  0  0  0  0  0  0  0  0  0  0
  153.6598  144.2600  159.8395 H   0  0  0  0  0  0  0  0  0  0  0  0
  150.6440  144.5250  159.4157 H   0  0  0  0  0  0  0  0  0  0  0  0
  151.8620  145.6619  158.8888 H   0  0  0  0  0  0  0  0  0  0  0  0
  151.1205  144.1830  157.0124 H   0  0  0  0  0  0  0  0  0  0  0  0
  152.8260  143.9892  157.3408 H   0  0  0  0  0  0  0  0  0  0  0  0
  150.5849  142.1360  158.2762 H   0  0  0  0  0  0  0  0  0  0  0  0
  151.7752  141.7767  157.0492 H   0  0  0  0  0  0  0  0  0  0  0  0
  153.5977  141.8797  158.7225 H   0  0  0  0  0  0  0  0  0  0  0  0
  151.3457  140.1224  159.5766 H   0  0  0  0  0  0  0  0  0  0  0  0
  151.6440  138.0196  159.9376 H   0  0  0  0  0  0  0  0  0  0  0  0
  152.6892  137.3144  158.7146 H   0  0  0  0  0  0  0  0  0  0  0  0
  153.4806  138.7363  162.2463 H   0  0  0  0  0  0  0  0  0  0  0  0
  1  2  1  0  0  0  0
  1 19  1  0  0  0  0
  1 20  1  0  0  0  0
  1 21  1  0  0  0  0
  2  7  1  0  0  0  0
  2  3  1  0  0  0  0
  2 22  1  0  0  0  0
  3  4  1  0  0  0  0
  3 23  1  0  0  0  0
  3 24  1  0  0  0  0
  4  5  1  0  0  0  0
  4 25  1  0  0  0  0
  4 26  1  0  0  0  0
  5  6  1  0  0  0  0
  5 27  1  0  0  0  0
  5 28  1  0  0  0  0
  6  7  1  0  0  0  0
  6 29  1  0  0  0  0
  6 30  1  0  0  0  0
  7  8  1  0  0  0  0
  7 31  1  0  0  0  0
  8  9  1  0  0  0  0
  8 32  1  0  0  0  0
  9 10  2  0  0  0  0
  9 11  1  0  0  0  0
 11 12  1  0  0  0  0
 11 33  1  0  0  0  0
 11 34  1  0  0  0  0
 12 18  1  0  0  0  0
 12 13  1  0  0  0  0
 13 14  2  0  0  0  0
 13 35  1  0  0  0  0
 14 15  1  0  0  0  0
 15 16  1  0  0  0  0
 15 18  2  0  0  0  0
 16 17  3  0  0  0  0
M  END
> <s_m_source_file>
AV-unprocessed.smi

> <i_m_source_file_index>
295

> <i_lp_mmshare_version>
43012

> <i_f3d_flags>
0

> <s_epik_input>
W0NIM11bQ0BASF0xW0NIMl1bQ0gyXVtDSDJdW0NIMl1bQ0BIXTFbTkhdQyg9TylbQ0gyXW4yW2NIXW5jKG4yKUMjTg==

> <s_epik_cmdline>
J2VwaWtfcHl0aG9uJywgJy1waCcsICc3LjAnLCAnLXRuJywgJzgnLCAnLW1hJywgJzIwMCcsICctbWV0YWxfYmluZGluZycsICctaW1hZScsICc8aW5maWxlLm1hZT4nLCAnLW9tYWUnLCAnPG91dGZpbGUubWFlPic=

> <r_lp_tautomer_probability>
1

> <r_epik_Ionization_Penalty>
5.31112e-08

> <r_epik_Ionization_Penalty_Charging>
0

> <r_epik_Ionization_Penalty_Neutral>
5.31112e-08

> <r_epik_State_Penalty>
-0

> <r_epik_Charging_Adjusted_Penalty>
0

> <i_epik_Tot_Q>
0

> <i_epik_Tot_abs_Q>
0

> <r_epik_Metal_State_Penalty>
-0

> <b_epik_Metal_Only>
0

> <s_lp_Force_Field>
OPLS_2005

> <r_lp_Energy>
13.6203

> <b_lp_Chiralities_Consistent>
1

> <s_lp_Variant>
AV-unprocessed.smi:295-4

> <Gold.Version>
5.8.1

> <Gold.Id.Protein>
6NUR|6NUR_protein|mol2

> <Gold.PLP.Fitness>
42.1386

> <Gold.PLP.PLP>
-36.3481

> <Gold.PLP.part.hbond>
-2.0000

> <Gold.PLP.part.metal>
0.0000

> <Gold.PLP.part.buried>
-5.2610

> <Gold.PLP.part.nonpolar>
-29.3069

> <Gold.PLP.part.repulsive>
0.1412

> <Gold.PLP.ligand.clash>
0.0000

> <Gold.PLP.ligand.torsion>
0.1077

> <Gold.PLP.Chemscore.Hbond>
2.0000

> <Gold.PLP.Chemscore.CHOScore>
0.0000

> <Gold.PLP.Chemscore.Metal>
0.0000

> <Gold.Chemscore.Hbonds>
donor molecule, donor type, donor heavy atom, donor atom, acceptor molecule, acceptor atom, score
      P1  H  6896  6907       L1    18  0.59
      P1  H  7997  8008       L1    10  1.00

> <Gold.PLP.Chemscore.Internal.Correction>
0.0060

> <Gold.Rescore>
     Score         DG    S(hbond)    S(metal)    S(lipo)     H(rot)  DE(clash)    DE(int)     intcor
     16.69     -16.93       1.97        0.00      84.22       1.95       0.04       0.20       ----

> <Gold.Chemscore.Fitness>
16.6927

> <Gold.Chemscore.DG>
-16.9275

> <Gold.Chemscore.ZeroCoef>
-5.4800

> <Gold.Chemscore.Hbond>
1.9699

> <Gold.Chemscore.Metal>
0.0000

> <Gold.Chemscore.Lipo>
84.2162

> <Gold.Chemscore.Internal_Hbond>
0.0000

> <Gold.Chemscore.DEClash>
0.0354

> <Gold.Chemscore.DEInternal>
0.1995

> <Gold.Chemscore.Rot>
1.9474

> <Gold.Chemscore.Internal.Correction>
   9.000000E+99

> <Gold.Chemscore.Hbonds>
donor molecule, donor type, donor heavy atom, donor atom, acceptor molecule, acceptor atom, score
      P1  H  6896  6907       L1    18  0.28
      P1  H  7997  8008       L1    10  1.00

> <Gold.Chemscore.Hbond.Weighted>
-6.5795

> <Gold.Chemscore.Metal.Weighted>
-0.0000

> <Gold.Chemscore.Lipo.Weighted>
-9.8533

> <Gold.Chemscore.Internal_Hbond.Weighted>
0.0000

> <Gold.Chemscore.DEClash.Weighted>
0.0354

> <Gold.Chemscore.DEInternal.Weighted>
0.1995

> <Gold.Chemscore.Rot.Weighted>
4.9852

> <Gold.Chemscore.Internal.Correction.Weighted>
   9.000000E+99

> <Gold.Protein.RotatedTorsions>
[ 6907 6896 6895 6894 ] final   53.91 input  -60.11 | X-H torsion
[ 7974 7965 7964 7962 ] final   78.38 input  175.53 | X-H torsion
[ 8008 7997 7996 7995 ] final -112.96 input   59.86 | X-H torsion
[ 10167 10162 10161 10158 ] final  173.62 input  -65.29 | X-H torsion
[ 10718 10713 10712 10709 ] final  150.54 input   66.30 | X-H torsion
[ 10763 10752 10751 10750 ] final   72.24 input  -60.55 | X-H torsion
[ 11005 11000 10999 10996 ] final  -85.37 input  -57.11 | X-H torsion

> <Gold.Protein.ActiveResidues>
 VAL166  LYS551  ARG553  GLY616  TRP617  ASP618  TYR619  PRO620  LYS621  CYS622 
 ASP623  PHE694  ASN695  SER759  ASP760  ASP761  ALA762  ILE779  LEU786  VAL792 
 PHE793  MET794  SER795  GLU796  ALA797  LYS798  CYS799  TRP800  GLU811  SER814 

> <Gold.Protein.RotatedAtoms>
  152.3385  134.7166  160.0270 H   0  0  0  0  0  0  0  0  0  0  0  0  # atno 6907 bound_to 6896
  151.7559  133.3325  159.3412 H   0  0  0  0  0  0  0  0  0  0  0  0  # atno 6908 bound_to 6896
  150.7465  134.6082  159.6117 H   0  0  0  0  0  0  0  0  0  0  0  0  # atno 6909 bound_to 6896
  145.6779  139.2515  143.1831 H   0  0  0  0  0  0  0  0  0  0  0  0  # atno 7974 bound_to 7965
  155.0133  140.0393  157.2408 H   0  0  0  0  0  0  0  0  0  0  0  0  # atno 8008 bound_to 7997
  154.7441  140.2754  155.6325 H   0  0  0  0  0  0  0  0  0  0  0  0  # atno 8009 bound_to 7997
  156.2871  140.2660  156.2176 H   0  0  0  0  0  0  0  0  0  0  0  0  # atno 8010 bound_to 7997
  139.5114  144.3240  152.0175 H   0  0  0  0  0  0  0  0  0  0  0  0  # atno 10167 bound_to 10162
  157.2821  131.0837  151.1524 H   0  0  0  0  0  0  0  0  0  0  0  0  # atno 10718 bound_to 10713
  153.0447  135.5107  154.7714 H   0  0  0  0  0  0  0  0  0  0  0  0  # atno 10763 bound_to 10752
  154.6624  135.2940  154.9852 H   0  0  0  0  0  0  0  0  0  0  0  0  # atno 10764 bound_to 10752
  154.0698  135.6679  153.4875 H   0  0  0  0  0  0  0  0  0  0  0  0  # atno 10765 bound_to 10752
  141.1642  133.7395  156.9005 H   0  0  0  0  0  0  0  0  0  0  0  0  # atno 11005 bound_to 11000
  146.0989  140.7567  142.9559 LP  0  0  0  0  0  0  0  0  0  0  0  0  # atno 17320 bound_to 7965
  144.7035  140.3756  143.7136 LP  0  0  0  0  0  0  0  0  0  0  0  0  # atno 17321 bound_to 7965
  140.2681  144.3994  150.6161 LP  0  0  0  0  0  0  0  0  0  0  0  0  # atno 17342 bound_to 10162
  140.6108  143.2169  151.6889 LP  0  0  0  0  0  0  0  0  0  0  0  0  # atno 17343 bound_to 10162
  157.2954  130.6816  149.6136 LP  0  0  0  0  0  0  0  0  0  0  0  0  # atno 17370 bound_to 10713
  155.9664  130.4408  150.5315 LP  0  0  0  0  0  0  0  0  0  0  0  0  # atno 17371 bound_to 10713
  140.1586  134.9181  157.2686 LP  0  0  0  0  0  0  0  0  0  0  0  0  # atno 17394 bound_to 11000
  140.2638  134.3540  155.7397 LP  0  0  0  0  0  0  0  0  0  0  0  0  # atno 17395 bound_to 11000

$$$$
