AV-unprocessed.smi:1247|AV-procd|sdf|5245|dock6
  -GOLD-   22720 4353D 1   1.00000     0.00000
 Structure written by MMmdl.
 46 47  0  0  0  0  0  0  0  0  1 V2000
  143.5548  132.7464  149.0756 C   0  0  0  0  0  0  0  0  0  0  0  0
  144.4978  133.3309  150.0852 C   0  0  0  0  0  0  0  0  0  0  0  0
  144.7143  134.7057  150.3910 C   0  0  0  0  0  0  0  0  0  0  0  0
  145.6698  134.6511  151.3692 C   0  0  0  0  0  0  0  0  0  0  0  0
  146.2656  135.6751  152.0369 N   0  0  0  0  0  0  0  0  0  0  0  0
  145.6968  136.7582  152.5953 C   0  0  0  0  0  0  0  0  0  0  0  0
  144.4912  137.0080  152.6028 O   0  0  0  0  0  0  0  0  0  0  0  0
  146.6179  137.5570  153.1535 N   0  0  0  0  0  0  0  0  0  0  0  0
  146.3303  138.8172  153.8287 C   0  0  0  0  0  0  0  0  0  0  0  0
  147.4102  139.8734  153.5266 C   0  0  0  0  0  0  0  0  0  0  0  0
  148.5000  139.9374  154.4983 N   0  0  0  0  0  0  0  0  0  0  0  0
  149.5760  138.9964  154.2027 C   0  0  0  0  0  0  0  0  0  0  0  0
  150.7074  139.0712  155.2448 C   0  0  1  0  0  0  0  0  0  0  0  0
  151.8817  138.1532  154.8898 C   0  0  0  0  0  0  0  0  0  0  0  0
  151.1992  140.4081  155.3212 O   0  0  0  0  0  0  0  0  0  0  0  0
  150.2106  141.4058  155.5806 C   0  0  2  0  0  0  0  0  0  0  0  0
  149.7432  141.3806  157.0458 C   0  0  0  0  0  0  0  0  0  0  0  0
  149.0546  141.2855  154.5679 C   0  0  0  0  0  0  0  0  0  0  0  0
  145.9794  133.3303  151.6140 N   0  0  0  0  0  0  0  0  0  0  0  0
  146.9275  132.7516  152.5462 C   0  0  0  0  0  0  0  0  0  0  0  0
  145.2538  132.5187  150.8149 N   0  0  0  0  0  0  0  0  0  0  0  0
  142.9729  133.5254  148.5825 H   0  0  0  0  0  0  0  0  0  0  0  0
  142.8533  132.0565  149.5454 H   0  0  0  0  0  0  0  0  0  0  0  0
  144.0965  132.1989  148.3041 H   0  0  0  0  0  0  0  0  0  0  0  0
  144.2385  135.5695  149.9518 H   0  0  0  0  0  0  0  0  0  0  0  0
  147.2703  135.6125  152.1114 H   0  0  0  0  0  0  0  0  0  0  0  0
  147.5866  137.2771  153.1051 H   0  0  0  0  0  0  0  0  0  0  0  0
  145.3448  139.1823  153.5342 H   0  0  0  0  0  0  0  0  0  0  0  0
  146.2797  138.6093  154.8971 H   0  0  0  0  0  0  0  0  0  0  0  0
  147.8157  139.7066  152.5276 H   0  0  0  0  0  0  0  0  0  0  0  0
  146.9227  140.8487  153.4909 H   0  0  0  0  0  0  0  0  0  0  0  0
  149.1915  137.9773  154.1847 H   0  0  0  0  0  0  0  0  0  0  0  0
  149.9795  139.1969  153.2088 H   0  0  0  0  0  0  0  0  0  0  0  0
  150.3231  138.7714  156.2202 H   0  0  0  0  0  0  0  0  0  0  0  0
  151.5637  137.1117  154.8356 H   0  0  0  0  0  0  0  0  0  0  0  0
  152.6691  138.2212  155.6408 H   0  0  0  0  0  0  0  0  0  0  0  0
  152.3162  138.4223  153.9265 H   0  0  0  0  0  0  0  0  0  0  0  0
  150.6974  142.3679  155.4196 H   0  0  0  0  0  0  0  0  0  0  0  0
  149.0753  142.2170  157.2535 H   0  0  0  0  0  0  0  0  0  0  0  0
  150.5916  141.4584  157.7259 H   0  0  0  0  0  0  0  0  0  0  0  0
  149.2028  140.4659  157.2884 H   0  0  0  0  0  0  0  0  0  0  0  0
  149.4205  141.5763  153.5818 H   0  0  0  0  0  0  0  0  0  0  0  0
  148.2711  141.9993  154.8253 H   0  0  0  0  0  0  0  0  0  0  0  0
  147.1530  133.4558  153.3471 H   0  0  0  0  0  0  0  0  0  0  0  0
  147.8497  132.5026  152.0208 H   0  0  0  0  0  0  0  0  0  0  0  0
  146.5116  131.8448  152.9869 H   0  0  0  0  0  0  0  0  0  0  0  0
  1  2  1  0  0  0  0
  1 22  1  0  0  0  0
  1 23  1  0  0  0  0
  1 24  1  0  0  0  0
  2 21  2  0  0  0  0
  2  3  1  0  0  0  0
  3  4  2  0  0  0  0
  3 25  1  0  0  0  0
  4  5  1  0  0  0  0
  4 19  1  0  0  0  0
  5  6  1  0  0  0  0
  5 26  1  0  0  0  0
  6  7  2  0  0  0  0
  6  8  1  0  0  0  0
  8  9  1  0  0  0  0
  8 27  1  0  0  0  0
  9 10  1  0  0  0  0
  9 28  1  0  0  0  0
  9 29  1  0  0  0  0
 10 11  1  0  0  0  0
 10 30  1  0  0  0  0
 10 31  1  0  0  0  0
 11 18  1  0  0  0  0
 11 12  1  0  0  0  0
 12 13  1  0  0  0  0
 12 32  1  0  0  0  0
 12 33  1  0  0  0  0
 13 14  1  0  0  0  0
 13 15  1  0  0  0  0
 13 34  1  0  0  0  0
 14 35  1  0  0  0  0
 14 36  1  0  0  0  0
 14 37  1  0  0  0  0
 15 16  1  0  0  0  0
 16 17  1  0  0  0  0
 16 18  1  0  0  0  0
 16 38  1  0  0  0  0
 17 39  1  0  0  0  0
 17 40  1  0  0  0  0
 17 41  1  0  0  0  0
 18 42  1  0  0  0  0
 18 43  1  0  0  0  0
 19 20  1  0  0  0  0
 19 21  1  0  0  0  0
 20 44  1  0  0  0  0
 20 45  1  0  0  0  0
 20 46  1  0  0  0  0
M  END
> <s_m_source_file>
AV-unprocessed.smi

> <i_m_source_file_index>
1247

> <i_lp_mmshare_version>
43012

> <i_f3d_flags>
0

> <s_epik_input>
W0NIM11jMVtjSF1jKG4objEpW0NIM10pW05IXUMoPU8pW05IXVtDSDJdW0NIMl1OMltDSDJdW0NAQEhdKFtDSDNdKU9bQ0BASF0oW0NIM10pW0NIMl0y

> <s_epik_cmdline>
J2VwaWtfcHl0aG9uJywgJy1waCcsICc3LjAnLCAnLXRuJywgJzgnLCAnLW1hJywgJzIwMCcsICctbWV0YWxfYmluZGluZycsICctaW1hZScsICc8aW5maWxlLm1hZT4nLCAnLW9tYWUnLCAnPG91dGZpbGUubWFlPic=

> <r_lp_tautomer_probability>
1

> <r_epik_Ionization_Penalty>
0.233972

> <r_epik_Ionization_Penalty_Charging>
0

> <r_epik_Ionization_Penalty_Neutral>
0.233972

> <r_epik_State_Penalty>
0.224627

> <r_epik_Charging_Adjusted_Penalty>
0.224627

> <i_epik_Tot_Q>
0

> <i_epik_Tot_abs_Q>
0

> <r_epik_Metal_State_Penalty>
0.224624

> <b_epik_Metal_Only>
0

> <s_lp_Force_Field>
OPLS_2005

> <r_lp_Energy>
23.3755

> <b_lp_Chiralities_Consistent>
1

> <s_lp_Variant>
AV-unprocessed.smi:1247-3

> <Gold.Version>
5.8.1

> <Gold.Id.Protein>
6NUR|6NUR_protein|mol2

> <Gold.PLP.Fitness>
44.9079

> <Gold.PLP.PLP>
-38.4485

> <Gold.PLP.part.hbond>
-3.0000

> <Gold.PLP.part.metal>
0.0000

> <Gold.PLP.part.buried>
-2.7835

> <Gold.PLP.part.nonpolar>
-32.8171

> <Gold.PLP.part.repulsive>
0.4910

> <Gold.PLP.ligand.clash>
0.0000

> <Gold.PLP.ligand.torsion>
1.0945

> <Gold.PLP.Chemscore.Hbond>
2.8800

> <Gold.PLP.Chemscore.CHOScore>
0.0000

> <Gold.PLP.Chemscore.Metal>
0.0000

> <Gold.Chemscore.Hbonds>
donor molecule, donor type, donor heavy atom, donor atom, acceptor molecule, acceptor atom, score
      L1  H     5    26       P1  7948  1.00
      L1  H     8    27       P1  7948  0.65
      P1  H  7989  7998       L1    15  0.93

> <Gold.PLP.Chemscore.Internal.Correction>
0.0083

> <Gold.Rescore>
     Score         DG    S(hbond)    S(metal)    S(lipo)     H(rot)  DE(clash)    DE(int)     intcor
     17.56     -18.98       2.12        0.00      87.27       1.48       0.49       0.93       ----

> <Gold.Chemscore.Fitness>
17.5598

> <Gold.Chemscore.DG>
-18.9809

> <Gold.Chemscore.ZeroCoef>
-5.4800

> <Gold.Chemscore.Hbond>
2.1223

> <Gold.Chemscore.Metal>
0.0000

> <Gold.Chemscore.Lipo>
87.2736

> <Gold.Chemscore.Internal_Hbond>
0.0000

> <Gold.Chemscore.DEClash>
0.4930

> <Gold.Chemscore.DEInternal>
0.9282

> <Gold.Chemscore.Rot>
1.4838

> <Gold.Chemscore.Internal.Correction>
   9.000000E+99

> <Gold.Chemscore.Hbonds>
donor molecule, donor type, donor heavy atom, donor atom, acceptor molecule, acceptor atom, score
      L1  H     5    26       P1  7948  0.97
      L1  H     8    27       P1  7948  0.62
      P1  H  7989  7998       L1    15  0.10

> <Gold.Chemscore.Hbond.Weighted>
-7.0884

> <Gold.Chemscore.Metal.Weighted>
-0.0000

> <Gold.Chemscore.Lipo.Weighted>
-10.2110

> <Gold.Chemscore.Internal_Hbond.Weighted>
0.0000

> <Gold.Chemscore.DEClash.Weighted>
0.4930

> <Gold.Chemscore.DEInternal.Weighted>
0.9282

> <Gold.Chemscore.Rot.Weighted>
3.7985

> <Gold.Chemscore.Internal.Correction.Weighted>
   9.000000E+99

> <Gold.Protein.RotatedTorsions>
[ 6907 6896 6895 6894 ] final  104.42 input  -60.11 | X-H torsion
[ 7974 7965 7964 7962 ] final  -35.05 input  175.53 | X-H torsion
[ 8008 7997 7996 7995 ] final  -34.65 input   59.86 | X-H torsion
[ 10167 10162 10161 10158 ] final  105.62 input  -65.29 | X-H torsion
[ 10718 10713 10712 10709 ] final  150.62 input   66.30 | X-H torsion
[ 10763 10752 10751 10750 ] final  -54.18 input  -60.55 | X-H torsion
[ 11005 11000 10999 10996 ] final  136.45 input  -57.11 | X-H torsion

> <Gold.Protein.ActiveResidues>
 VAL166  LYS551  ARG553  GLY616  TRP617  ASP618  TYR619  PRO620  LYS621  CYS622 
 ASP623  PHE694  ASN695  SER759  ASP760  ASP761  ALA762  ILE779  LEU786  VAL792 
 PHE793  MET794  SER795  GLU796  ALA797  LYS798  CYS799  TRP800  GLU811  SER814 

> <Gold.Protein.RotatedAtoms>
  152.5264  133.9679  159.7747 H   0  0  0  0  0  0  0  0  0  0  0  0  # atno 6907 bound_to 6896
  150.9956  133.6098  159.2709 H   0  0  0  0  0  0  0  0  0  0  0  0  # atno 6908 bound_to 6896
  151.3225  135.0828  159.9364 H   0  0  0  0  0  0  0  0  0  0  0  0  # atno 6909 bound_to 6896
  146.0778  140.6113  142.8922 H   0  0  0  0  0  0  0  0  0  0  0  0  # atno 7974 bound_to 7965
  154.4115  140.1678  156.2084 H   0  0  0  0  0  0  0  0  0  0  0  0  # atno 8008 bound_to 7997
  155.9464  140.3404  155.6348 H   0  0  0  0  0  0  0  0  0  0  0  0  # atno 8009 bound_to 7997
  155.6924  140.0735  157.2433 H   0  0  0  0  0  0  0  0  0  0  0  0  # atno 8010 bound_to 7997
  139.7077  144.7083  151.1079 H   0  0  0  0  0  0  0  0  0  0  0  0  # atno 10167 bound_to 10162
  157.2812  131.0835  151.1530 H   0  0  0  0  0  0  0  0  0  0  0  0  # atno 10718 bound_to 10713
  154.1707  135.6459  153.5008 H   0  0  0  0  0  0  0  0  0  0  0  0  # atno 10763 bound_to 10752
  153.0085  135.5382  154.6616 H   0  0  0  0  0  0  0  0  0  0  0  0  # atno 10764 bound_to 10752
  154.5954  135.2938  155.0564 H   0  0  0  0  0  0  0  0  0  0  0  0  # atno 10765 bound_to 10752
  140.0047  134.9464  157.0149 H   0  0  0  0  0  0  0  0  0  0  0  0  # atno 11005 bound_to 11000
  144.7273  140.4565  143.6963 LP  0  0  0  0  0  0  0  0  0  0  0  0  # atno 17320 bound_to 7965
  145.6273  139.1531  143.2989 LP  0  0  0  0  0  0  0  0  0  0  0  0  # atno 17321 bound_to 7965
  140.7726  143.5336  150.9395 LP  0  0  0  0  0  0  0  0  0  0  0  0  # atno 17342 bound_to 10162
  139.9019  143.6825  152.3130 LP  0  0  0  0  0  0  0  0  0  0  0  0  # atno 17343 bound_to 10162
  157.2964  130.6821  149.6141 LP  0  0  0  0  0  0  0  0  0  0  0  0  # atno 17370 bound_to 10713
  155.9664  130.4405  150.5303 LP  0  0  0  0  0  0  0  0  0  0  0  0  # atno 17371 bound_to 10713
  140.4663  134.1432  155.7197 LP  0  0  0  0  0  0  0  0  0  0  0  0  # atno 17394 bound_to 11000
  141.1668  133.8687  157.1691 LP  0  0  0  0  0  0  0  0  0  0  0  0  # atno 17395 bound_to 11000

$$$$
