AV-unprocessed.smi:99|AV-procd|sdf|880|dock4
  -GOLD-   2262017353D 1   1.00000     0.00000
 Structure written by MMmdl.
 53 56  0  0  0  0  0  0  0  0  1 V2000
  145.1989  135.7348  153.0654 O   0  0  0  0  0  0  0  0  0  0  0  0
  145.6424  134.5919  152.9408 C   0  0  0  0  0  0  0  0  0  0  0  0
  146.5160  134.0317  153.7992 O   0  0  0  0  0  0  0  0  0  0  0  0
  146.6854  134.5602  155.1045 C   0  0  0  0  0  0  0  0  0  0  0  0
  147.7528  133.7380  155.8376 C   0  0  1  0  0  0  0  0  0  0  0  0
  148.7261  133.2684  154.9094 O   0  0  0  0  0  0  0  0  0  0  0  0
  149.9496  133.0574  155.5585 C   0  0  2  0  0  0  0  0  0  0  0  0
  150.2825  131.5784  155.5380 N   0  0  0  0  0  0  0  0  0  0  0  0
  149.4388  130.6361  154.9624 C   0  0  0  0  0  0  0  0  0  0  0  0
  149.7200  129.3117  154.9384 C   0  0  0  0  0  0  0  0  0  0  0  0
  150.9519  128.8043  155.5341 C   0  0  0  0  0  0  0  0  0  0  0  0
  151.2941  127.6242  155.5575 O   0  0  0  0  0  0  0  0  0  0  0  0
  151.7646  129.7849  156.1102 N   0  0  0  0  0  0  0  0  0  0  0  0
  151.4835  131.1515  156.1447 C   0  0  0  0  0  0  0  0  0  0  0  0
  152.2626  131.9292  156.6943 O   0  0  0  0  0  0  0  0  0  0  0  0
  149.8213  133.6293  156.9900 C   0  0  2  0  0  0  0  0  0  0  0  0
  149.5950  132.6218  157.9652 O   0  0  0  0  0  0  0  0  0  0  0  0
  148.6079  134.5308  156.8252 C   0  0  2  0  0  0  0  0  0  0  0  0
  147.9777  134.8155  158.0717 O   0  0  0  0  0  0  0  0  0  0  0  0
  148.6396  135.4479  159.0655 C   0  0  0  0  0  0  0  0  0  0  0  0
  149.6996  136.0562  158.9063 O   0  0  0  0  0  0  0  0  0  0  0  0
  147.9286  135.3695  160.3731 C   0  0  0  0  0  0  0  0  0  0  0  0
  147.1800  134.2109  160.6860 C   0  0  0  0  0  0  0  0  0  0  0  0
  146.5203  134.0965  161.9249 C   0  0  0  0  0  0  0  0  0  0  0  0
  146.5974  135.1414  162.8639 C   0  0  0  0  0  0  0  0  0  0  0  0
  147.3350  136.3011  162.5627 C   0  0  0  0  0  0  0  0  0  0  0  0
  147.9980  136.4160  161.3253 C   0  0  0  0  0  0  0  0  0  0  0  0
  145.2466  133.6680  151.8389 C   0  0  0  0  0  0  0  0  0  0  0  0
  146.2453  132.9397  151.1515 C   0  0  0  0  0  0  0  0  0  0  0  0
  145.9033  132.0810  150.0887 C   0  0  0  0  0  0  0  0  0  0  0  0
  144.5580  131.9388  149.7013 C   0  0  0  0  0  0  0  0  0  0  0  0
  143.5543  132.6531  150.3810 C   0  0  0  0  0  0  0  0  0  0  0  0
  143.8945  133.5106  151.4450 C   0  0  0  0  0  0  0  0  0  0  0  0
  152.6251  129.4776  156.5403 H   0  0  0  0  0  0  0  0  0  0  0  0
  146.9984  135.6017  155.0244 H   0  0  0  0  0  0  0  0  0  0  0  0
  145.7500  134.5391  155.6655 H   0  0  0  0  0  0  0  0  0  0  0  0
  147.2983  132.8770  156.3306 H   0  0  0  0  0  0  0  0  0  0  0  0
  150.7177  133.5535  154.9621 H   0  0  0  0  0  0  0  0  0  0  0  0
  148.5089  130.9495  154.5125 H   0  0  0  0  0  0  0  0  0  0  0  0
  149.0281  128.6221  154.4766 H   0  0  0  0  0  0  0  0  0  0  0  0
  150.7195  134.1883  157.2538 H   0  0  0  0  0  0  0  0  0  0  0  0
  148.9418  132.0258  157.6313 H   0  0  0  0  0  0  0  0  0  0  0  0
  148.9458  135.4456  156.3357 H   0  0  0  0  0  0  0  0  0  0  0  0
  147.1129  133.3923  159.9838 H   0  0  0  0  0  0  0  0  0  0  0  0
  145.9576  133.2041  162.1557 H   0  0  0  0  0  0  0  0  0  0  0  0
  146.0923  135.0532  163.8145 H   0  0  0  0  0  0  0  0  0  0  0  0
  147.3946  137.1041  163.2825 H   0  0  0  0  0  0  0  0  0  0  0  0
  148.5587  137.3178  161.1269 H   0  0  0  0  0  0  0  0  0  0  0  0
  147.2859  133.0385  151.4264 H   0  0  0  0  0  0  0  0  0  0  0  0
  146.6753  131.5333  149.5685 H   0  0  0  0  0  0  0  0  0  0  0  0
  144.2964  131.2838  148.8835 H   0  0  0  0  0  0  0  0  0  0  0  0
  142.5214  132.5487  150.0829 H   0  0  0  0  0  0  0  0  0  0  0  0
  143.0992  134.0493  151.9396 H   0  0  0  0  0  0  0  0  0  0  0  0
  1  2  2  0  0  0  0
  2  3  1  0  0  0  0
  2 28  1  0  0  0  0
  3  4  1  0  0  0  0
  4  5  1  0  0  0  0
  4 35  1  0  0  0  0
  4 36  1  0  0  0  0
  5 18  1  0  0  0  0
  5  6  1  0  0  0  0
  5 37  1  0  0  0  0
  6  7  1  0  0  0  0
  7  8  1  0  0  0  0
  7 16  1  0  0  0  0
  7 38  1  0  0  0  0
  8 14  1  0  0  0  0
  8  9  1  0  0  0  0
  9 10  2  0  0  0  0
  9 39  1  0  0  0  0
 10 11  1  0  0  0  0
 10 40  1  0  0  0  0
 11 12  2  0  0  0  0
 11 13  1  0  0  0  0
 13 34  1  0  0  0  0
 13 14  1  0  0  0  0
 14 15  2  0  0  0  0
 16 17  1  0  0  0  0
 16 18  1  0  0  0  0
 16 41  1  0  0  0  0
 17 42  1  0  0  0  0
 18 19  1  0  0  0  0
 18 43  1  0  0  0  0
 19 20  1  0  0  0  0
 20 21  2  0  0  0  0
 20 22  1  0  0  0  0
 22 27  1  0  0  0  0
 22 23  2  0  0  0  0
 23 24  1  0  0  0  0
 23 44  1  0  0  0  0
 24 25  2  0  0  0  0
 24 45  1  0  0  0  0
 25 26  1  0  0  0  0
 25 46  1  0  0  0  0
 26 27  2  0  0  0  0
 26 47  1  0  0  0  0
 27 48  1  0  0  0  0
 28 33  1  0  0  0  0
 28 29  2  0  0  0  0
 29 30  1  0  0  0  0
 29 49  1  0  0  0  0
 30 31  2  0  0  0  0
 30 50  1  0  0  0  0
 31 32  1  0  0  0  0
 31 51  1  0  0  0  0
 32 33  2  0  0  0  0
 32 52  1  0  0  0  0
 33 53  1  0  0  0  0
M  END
> <s_m_source_file>
AV-unprocessed.smi

> <i_m_source_file_index>
99

> <i_lp_mmshare_version>
43012

> <i_f3d_flags>
0

> <s_epik_input>
W2NIXTFbY0hdW2NIXVtjSF1bY0hdYzFDKD1PKU9bQ0gyXVtDQEBIXTJPW0NAQEhdKG4zW2NIXVtjSF1jKD1PKVtuSF1jMz1PKVtDQEBIXShbT0hdKVtDQEhdMk9DKD1PKWM0W2NIXVtjSF1bY0hdW2NIXVtjSF00

> <s_epik_cmdline>
J2VwaWtfcHl0aG9uJywgJy1waCcsICc3LjAnLCAnLXRuJywgJzgnLCAnLW1hJywgJzIwMCcsICctbWV0YWxfYmluZGluZycsICctaW1hZScsICc8aW5maWxlLm1hZT4nLCAnLW9tYWUnLCAnPG91dGZpbGUubWFlPic=

> <r_lp_tautomer_probability>
1

> <r_epik_Ionization_Penalty>
0.00454555

> <r_epik_Ionization_Penalty_Charging>
0.0045191

> <r_epik_Ionization_Penalty_Neutral>
2.64449e-05

> <r_epik_State_Penalty>
-0

> <r_epik_Charging_Adjusted_Penalty>
0.0045191

> <i_epik_Tot_Q>
0

> <i_epik_Tot_abs_Q>
0

> <r_epik_Metal_State_Penalty>
1.27877

> <b_epik_Metal_Only>
0

> <s_epik_Chemistry_Notes>
This compound has an ester and may undergo hydrolysis at high or low pH. This compound contains an acetal/aminal-like group ( X-CH(R)-Y where X, Y are N, S, or O) that may be acid/base labile, releasing an aldehyde.

> <s_lp_Force_Field>
OPLS_2005

> <r_lp_Energy>
44.2289

> <b_lp_Chiralities_Consistent>
1

> <s_lp_Variant>
AV-unprocessed.smi:99-16

> <Gold.Version>
5.8.1

> <Gold.Id.Protein>
6NUR|6NUR_protein|mol2

> <Gold.PLP.Fitness>
53.2553

> <Gold.PLP.PLP>
-50.8045

> <Gold.PLP.part.hbond>
-2.0000

> <Gold.PLP.part.metal>
0.0000

> <Gold.PLP.part.buried>
-4.5805

> <Gold.PLP.part.nonpolar>
-44.5721

> <Gold.PLP.part.repulsive>
0.3206

> <Gold.PLP.ligand.clash>
0.0000

> <Gold.PLP.ligand.torsion>
2.0214

> <Gold.PLP.Chemscore.Hbond>
2.0000

> <Gold.PLP.Chemscore.CHOScore>
0.0000

> <Gold.PLP.Chemscore.Metal>
0.0000

> <Gold.Chemscore.Hbonds>
donor molecule, donor type, donor heavy atom, donor atom, acceptor molecule, acceptor atom, score
      P1  H  6896  6907       L1    21  0.96
      P1  H  6896  6909       L1    17  0.37

> <Gold.PLP.Chemscore.Internal.Correction>
0.4935

> <Gold.Rescore>
     Score         DG    S(hbond)    S(metal)    S(lipo)     H(rot)  DE(clash)    DE(int)     intcor
     11.83     -13.52       0.88        0.00     113.39       3.19       0.03       1.66       ----

> <Gold.Chemscore.Fitness>
11.8335

> <Gold.Chemscore.DG>
-13.5229

> <Gold.Chemscore.ZeroCoef>
-5.4800

> <Gold.Chemscore.Hbond>
0.8812

> <Gold.Chemscore.Metal>
0.0000

> <Gold.Chemscore.Lipo>
113.3904

> <Gold.Chemscore.Internal_Hbond>
0.0000

> <Gold.Chemscore.DEClash>
0.0323

> <Gold.Chemscore.DEInternal>
1.6571

> <Gold.Chemscore.Rot>
3.1903

> <Gold.Chemscore.Internal.Correction>
   9.000000E+99

> <Gold.Chemscore.Hbonds>
donor molecule, donor type, donor heavy atom, donor atom, acceptor molecule, acceptor atom, score
      P1  H  6896  6907       L1    21  0.51
      P1  H  6896  6909       L1    17  0.02

> <Gold.Chemscore.Hbond.Weighted>
-2.9433

> <Gold.Chemscore.Metal.Weighted>
-0.0000

> <Gold.Chemscore.Lipo.Weighted>
-13.2667

> <Gold.Chemscore.Internal_Hbond.Weighted>
0.0000

> <Gold.Chemscore.DEClash.Weighted>
0.0323

> <Gold.Chemscore.DEInternal.Weighted>
1.6571

> <Gold.Chemscore.Rot.Weighted>
8.1671

> <Gold.Chemscore.Internal.Correction.Weighted>
   9.000000E+99

> <Gold.Protein.RotatedTorsions>
[ 6907 6896 6895 6894 ] final  -31.67 input  -60.11 | X-H torsion
[ 7974 7965 7964 7962 ] final  -94.22 input  175.53 | X-H torsion
[ 8008 7997 7996 7995 ] final  -29.16 input   59.86 | X-H torsion
[ 10167 10162 10161 10158 ] final  115.92 input  -65.29 | X-H torsion
[ 10718 10713 10712 10709 ] final  106.40 input   66.30 | X-H torsion
[ 10763 10752 10751 10750 ] final  111.05 input  -60.55 | X-H torsion
[ 11005 11000 10999 10996 ] final  150.63 input  -57.11 | X-H torsion

> <Gold.Protein.ActiveResidues>
 VAL166  LYS551  ARG553  GLY616  TRP617  ASP618  TYR619  PRO620  LYS621  CYS622 
 ASP623  PHE694  ASN695  SER759  ASP760  ASP761  ALA762  ILE779  LEU786  VAL792 
 PHE793  MET794  SER795  GLU796  ALA797  LYS798  CYS799  TRP800  GLU811  SER814 

> <Gold.Protein.RotatedAtoms>
  151.0890  134.9904  159.8393 H   0  0  0  0  0  0  0  0  0  0  0  0  # atno 6907 bound_to 6896
  152.5427  134.2089  159.8752 H   0  0  0  0  0  0  0  0  0  0  0  0  # atno 6908 bound_to 6896
  151.2124  133.4505  159.2632 H   0  0  0  0  0  0  0  0  0  0  0  0  # atno 6909 bound_to 6896
  145.3761  140.9512  143.2420 H   0  0  0  0  0  0  0  0  0  0  0  0  # atno 7974 bound_to 7965
  154.4301  140.1826  156.1204 H   0  0  0  0  0  0  0  0  0  0  0  0  # atno 8008 bound_to 7997
  156.0148  140.3347  155.6952 H   0  0  0  0  0  0  0  0  0  0  0  0  # atno 8009 bound_to 7997
  155.6060  140.0645  157.2710 H   0  0  0  0  0  0  0  0  0  0  0  0  # atno 8010 bound_to 7997
  139.6283  144.7111  151.2486 H   0  0  0  0  0  0  0  0  0  0  0  0  # atno 10167 bound_to 10162
  157.6669  131.0850  150.6001 H   0  0  0  0  0  0  0  0  0  0  0  0  # atno 10718 bound_to 10713
  153.4577  135.3729  155.2320 H   0  0  0  0  0  0  0  0  0  0  0  0  # atno 10763 bound_to 10752
  154.8757  135.3901  154.3962 H   0  0  0  0  0  0  0  0  0  0  0  0  # atno 10764 bound_to 10752
  153.4531  135.7086  153.6161 H   0  0  0  0  0  0  0  0  0  0  0  0  # atno 10765 bound_to 10752
  140.1148  134.8901  157.1989 H   0  0  0  0  0  0  0  0  0  0  0  0  # atno 11005 bound_to 11000
  144.8541  139.5277  143.6843 LP  0  0  0  0  0  0  0  0  0  0  0  0  # atno 17320 bound_to 7965
  146.2863  139.7014  142.9193 LP  0  0  0  0  0  0  0  0  0  0  0  0  # atno 17321 bound_to 7965
  140.7424  143.6527  150.8234 LP  0  0  0  0  0  0  0  0  0  0  0  0  # atno 17342 bound_to 10162
  140.0148  143.5604  152.2824 LP  0  0  0  0  0  0  0  0  0  0  0  0  # atno 17343 bound_to 10162
  156.6301  130.4429  149.5790 LP  0  0  0  0  0  0  0  0  0  0  0  0  # atno 17370 bound_to 10713
  156.2288  130.6782  151.1443 LP  0  0  0  0  0  0  0  0  0  0  0  0  # atno 17371 bound_to 10713
  140.3042  134.3096  155.7282 LP  0  0  0  0  0  0  0  0  0  0  0  0  # atno 17394 bound_to 11000
  141.2139  133.7611  156.9685 LP  0  0  0  0  0  0  0  0  0  0  0  0  # atno 17395 bound_to 11000

$$$$
