AV-unprocessed.smi:39|AV-procd|sdf|352|dock7
  -GOLD-   2262016193D 1   1.00000     0.00000
 Structure written by MMmdl.
 32 33  0  0  0  0  0  0  0  0  3 V2000
  152.7483  143.1324  160.1876 C   0  0  0  0  0  0  0  0  0  0  0  0
  152.1278  142.6716  158.8788 C   0  0  0  0  0  0  0  0  0  0  0  0
  152.1980  141.3838  158.4537 C   0  0  0  0  0  0  0  0  0  0  0  0
  151.6394  140.9331  157.2627 N   0  0  0  0  0  0  0  0  0  0  0  0
  151.7388  139.4919  156.8006 C   0  0  2  0  0  0  0  0  0  0  0  0
  150.8524  138.5791  157.6652 C   0  0  0  0  0  0  0  0  0  0  0  0
  151.8104  137.4740  158.0753 C   0  0  2  0  0  0  0  0  0  0  0  0
  151.4362  136.8820  159.3632 N   0  0  0  0  0  0  0  0  0  0  0  0
  150.2955  137.1253  159.7787 N   0  3  0  0  0  0  0  0  0  0  0  0
  149.2050  137.3072  160.0491 N   0  5  0  0  0  0  0  0  0  0  0  0
  153.1438  138.2249  158.1178 C   0  0  1  0  0  0  0  0  0  0  0  0
  154.3838  137.3231  158.0152 C   0  0  0  0  0  0  0  0  0  0  0  0
  154.4435  136.7364  156.7331 O   0  0  0  0  0  0  0  0  0  0  0  0
  153.0490  139.0303  156.9479 O   0  0  0  0  0  0  0  0  0  0  0  0
  150.9713  141.8516  156.4268 C   0  0  0  0  0  0  0  0  0  0  0  0
  150.4639  141.5265  155.3538 O   0  0  0  0  0  0  0  0  0  0  0  0
  150.8987  143.1730  156.8629 N   0  0  0  0  0  0  0  0  0  0  0  0
  151.4361  143.6658  158.0537 C   0  0  0  0  0  0  0  0  0  0  0  0
  151.3060  144.8569  158.3317 O   0  0  0  0  0  0  0  0  0  0  0  0
  151.4763  139.5006  155.7410 H   0  0  0  0  0  0  0  0  0  0  0  0
  151.8349  136.7274  157.2777 H   0  0  0  0  0  0  0  0  0  0  0  0
  153.1852  138.8531  159.0102 H   0  0  0  0  0  0  0  0  0  0  0  0
  150.4178  143.8308  156.2669 H   0  0  0  0  0  0  0  0  0  0  0  0
  153.2199  142.3093  160.7254 H   0  0  0  0  0  0  0  0  0  0  0  0
  151.9877  143.5637  160.8396 H   0  0  0  0  0  0  0  0  0  0  0  0
  153.5101  143.8901  160.0015 H   0  0  0  0  0  0  0  0  0  0  0  0
  152.7222  140.6870  159.0899 H   0  0  0  0  0  0  0  0  0  0  0  0
  150.4900  139.1275  158.5368 H   0  0  0  0  0  0  0  0  0  0  0  0
  149.9957  138.2150  157.0974 H   0  0  0  0  0  0  0  0  0  0  0  0
  155.2939  137.9082  158.1447 H   0  0  0  0  0  0  0  0  0  0  0  0
  154.3810  136.5534  158.7876 H   0  0  0  0  0  0  0  0  0  0  0  0
  155.1932  137.0864  156.2766 H   0  0  0  0  0  0  0  0  0  0  0  0
  1  2  1  0  0  0  0
  1 24  1  0  0  0  0
  1 25  1  0  0  0  0
  1 26  1  0  0  0  0
  2 18  1  0  0  0  0
  2  3  2  0  0  0  0
  3  4  1  0  0  0  0
  3 27  1  0  0  0  0
  4  5  1  0  0  0  0
  4 15  1  0  0  0  0
  5 20  1  0  0  0  0
  5 14  1  0  0  0  0
  5  6  1  0  0  0  0
  6  7  1  0  0  0  0
  6 28  1  0  0  0  0
  6 29  1  0  0  0  0
  7 21  1  0  0  0  0
  7  8  1  0  0  0  0
  7 11  1  0  0  0  0
  8  9  2  0  0  0  0
  9 10  2  0  0  0  0
 11 22  1  0  0  0  0
 11 12  1  0  0  0  0
 11 14  1  0  0  0  0
 12 13  1  0  0  0  0
 12 30  1  0  0  0  0
 12 31  1  0  0  0  0
 13 32  1  0  0  0  0
 15 16  2  0  0  0  0
 15 17  1  0  0  0  0
 17 23  1  0  0  0  0
 17 18  1  0  0  0  0
 18 19  2  0  0  0  0
M  CHG  1   9   1
M  CHG  1  10  -1
M  END
> <s_m_source_file>
AV-unprocessed.smi

> <i_m_source_file_index>
39

> <i_lp_mmshare_version>
43012

> <i_f3d_flags>
0

> <s_epik_input>
Tz1jMVtuSF1jKD1PKW4oW2NIXWMxW0NIM10pW0NASF0yW0NIMl1bQ0BIXShOPVtOK109W04tXSlbQ0BIXShPMilbQ0gyXVtPSF0=

> <s_epik_cmdline>
J2VwaWtfcHl0aG9uJywgJy1waCcsICc3LjAnLCAnLXRuJywgJzgnLCAnLW1hJywgJzIwMCcsICctbWV0YWxfYmluZGluZycsICctaW1hZScsICc8aW5maWxlLm1hZT4nLCAnLW9tYWUnLCAnPG91dGZpbGUubWFlPic=

> <r_lp_tautomer_probability>
0.999537

> <r_epik_Ionization_Penalty>
0.00127512

> <r_epik_Ionization_Penalty_Charging>
0.00127507

> <r_epik_Ionization_Penalty_Neutral>
5.43433e-08

> <r_epik_State_Penalty>
0.000844892

> <r_epik_Charging_Adjusted_Penalty>
0.00211996

> <i_epik_Tot_Q>
0

> <i_epik_Tot_abs_Q>
2

> <r_epik_Metal_State_Penalty>
0.680636

> <b_epik_Metal_Only>
0

> <s_epik_Chemistry_Notes>
This compound contains an acetal/aminal-like group ( X-CH(R)-Y where X, Y are N, S, or O) that may be acid/base labile, releasing an aldehyde.

> <s_lp_Force_Field>
OPLS_2005

> <r_lp_Energy>
24.5803

> <b_lp_Chiralities_Consistent>
1

> <s_lp_Variant>
AV-unprocessed.smi:39-2

> <Gold.Version>
5.8.1

> <Gold.Id.Protein>
6NUR|6NUR_protein|mol2

> <Gold.PLP.Fitness>
42.0247

> <Gold.PLP.PLP>
-29.9518

> <Gold.PLP.part.hbond>
-7.2968

> <Gold.PLP.part.metal>
0.0000

> <Gold.PLP.part.buried>
-4.3347

> <Gold.PLP.part.nonpolar>
-17.6919

> <Gold.PLP.part.repulsive>
0.2848

> <Gold.PLP.ligand.clash>
0.0000

> <Gold.PLP.ligand.torsion>
0.4590

> <Gold.PLP.Chemscore.Hbond>
4.3172

> <Gold.PLP.Chemscore.CHOScore>
0.0000

> <Gold.PLP.Chemscore.Metal>
0.0000

> <Gold.Chemscore.Hbonds>
donor molecule, donor type, donor heavy atom, donor atom, acceptor molecule, acceptor atom, score
      L1  H    17    23       P1  8028  1.00
      P1  H  6896  6907       L1     8  1.00
      P1  H  6931  6943       L1    10  0.36
      P1  H  7989  7998       L1    16  0.19
      P1  H  7997  8009       L1    14  1.00
      P1  H 10752 10765       L1    13  0.73

> <Gold.PLP.Chemscore.Internal.Correction>
0.0394

> <Gold.Rescore>
     Score         DG    S(hbond)    S(metal)    S(lipo)     H(rot)  DE(clash)    DE(int)     intcor
     14.08     -15.00       3.38        0.00      45.16       2.75       0.39       0.53       ----

> <Gold.Chemscore.Fitness>
14.0768

> <Gold.Chemscore.DG>
-15.0046

> <Gold.Chemscore.ZeroCoef>
-5.4800

> <Gold.Chemscore.Hbond>
3.3795

> <Gold.Chemscore.Metal>
0.0000

> <Gold.Chemscore.Lipo>
45.1562

> <Gold.Chemscore.Internal_Hbond>
0.0000

> <Gold.Chemscore.DEClash>
0.3937

> <Gold.Chemscore.DEInternal>
0.5341

> <Gold.Chemscore.Rot>
2.7524

> <Gold.Chemscore.Internal.Correction>
   9.000000E+99

> <Gold.Chemscore.Hbonds>
donor molecule, donor type, donor heavy atom, donor atom, acceptor molecule, acceptor atom, score
      L1  H    17    23       P1  8028  0.98
      P1  H  6896  6907       L1     8  0.25
      P1  H  6931  6943       L1    10  0.25
      P1  H  7989  7998       L1    16  0.19
      P1  H  7997  8009       L1    14  0.69
      P1  H 10752 10765       L1    13  0.16

> <Gold.Chemscore.Hbond.Weighted>
-11.2875

> <Gold.Chemscore.Metal.Weighted>
-0.0000

> <Gold.Chemscore.Lipo.Weighted>
-5.2833

> <Gold.Chemscore.Internal_Hbond.Weighted>
0.0000

> <Gold.Chemscore.DEClash.Weighted>
0.3937

> <Gold.Chemscore.DEInternal.Weighted>
0.5341

> <Gold.Chemscore.Rot.Weighted>
7.0461

> <Gold.Chemscore.Internal.Correction.Weighted>
   9.000000E+99

> <Gold.Protein.RotatedTorsions>
[ 6907 6896 6895 6894 ] final    4.27 input  -60.11 | X-H torsion
[ 7974 7965 7964 7962 ] final   26.16 input  175.53 | X-H torsion
[ 8008 7997 7996 7995 ] final  165.87 input   59.86 | X-H torsion
[ 10167 10162 10161 10158 ] final  -15.88 input  -65.29 | X-H torsion
[ 10718 10713 10712 10709 ] final  -22.95 input   66.30 | X-H torsion
[ 10763 10752 10751 10750 ] final -105.36 input  -60.55 | X-H torsion
[ 11005 11000 10999 10996 ] final  142.50 input  -57.11 | X-H torsion

> <Gold.Protein.ActiveResidues>
 VAL166  LYS551  ARG553  GLY616  TRP617  ASP618  TYR619  PRO620  LYS621  CYS622 
 ASP623  PHE694  ASN695  SER759  ASP760  ASP761  ALA762  ILE779  LEU786  VAL792 
 PHE793  MET794  SER795  GLU796  ALA797  LYS798  CYS799  TRP800  GLU811  SER814 

> <Gold.Protein.RotatedAtoms>
  151.6386  135.1015  160.0136 H   0  0  0  0  0  0  0  0  0  0  0  0  # atno 6907 bound_to 6896
  152.4066  133.6895  159.6370 H   0  0  0  0  0  0  0  0  0  0  0  0  # atno 6908 bound_to 6896
  150.7960  133.8614  159.3274 H   0  0  0  0  0  0  0  0  0  0  0  0  # atno 6909 bound_to 6896
  146.1852  139.7367  142.8872 H   0  0  0  0  0  0  0  0  0  0  0  0  # atno 7974 bound_to 7965
  156.1765  140.1658  156.8353 H   0  0  0  0  0  0  0  0  0  0  0  0  # atno 8008 bound_to 7997
  154.5312  140.0756  156.8382 H   0  0  0  0  0  0  0  0  0  0  0  0  # atno 8009 bound_to 7997
  155.3402  140.3384  155.4241 H   0  0  0  0  0  0  0  0  0  0  0  0  # atno 8010 bound_to 7997
  140.7225  143.5173  150.9676 H   0  0  0  0  0  0  0  0  0  0  0  0  # atno 10167 bound_to 10162
  156.4977  130.4581  149.6719 H   0  0  0  0  0  0  0  0  0  0  0  0  # atno 10718 bound_to 10713
  154.7941  135.4752  154.0120 H   0  0  0  0  0  0  0  0  0  0  0  0  # atno 10763 bound_to 10752
  153.1676  135.6819  153.8660 H   0  0  0  0  0  0  0  0  0  0  0  0  # atno 10764 bound_to 10752
  153.8253  135.3199  155.3392 H   0  0  0  0  0  0  0  0  0  0  0  0  # atno 10765 bound_to 10752
  140.0481  134.9270  157.0967 H   0  0  0  0  0  0  0  0  0  0  0  0  # atno 11005 bound_to 11000
  145.3960  141.0379  143.3097 LP  0  0  0  0  0  0  0  0  0  0  0  0  # atno 17320 bound_to 7965
  144.8384  139.5512  143.6911 LP  0  0  0  0  0  0  0  0  0  0  0  0  # atno 17321 bound_to 7965
  139.8889  143.6978  152.3148 LP  0  0  0  0  0  0  0  0  0  0  0  0  # atno 17342 bound_to 10162
  139.7287  144.7587  151.0837 LP  0  0  0  0  0  0  0  0  0  0  0  0  # atno 17343 bound_to 10162
  156.3364  130.7359  151.2297 LP  0  0  0  0  0  0  0  0  0  0  0  0  # atno 17370 bound_to 10713
  157.7466  131.0416  150.4652 LP  0  0  0  0  0  0  0  0  0  0  0  0  # atno 17371 bound_to 10713
  140.3961  134.2133  155.7164 LP  0  0  0  0  0  0  0  0  0  0  0  0  # atno 17394 bound_to 11000
  141.1917  133.8189  157.0869 LP  0  0  0  0  0  0  0  0  0  0  0  0  # atno 17395 bound_to 11000

$$$$
