AV-unprocessed.smi:3249|AV-procd|sdf|12422|dock1
  -GOLD-   2272018303D 1   1.00000     0.00000
 Structure written by MMmdl.
 44 45  0  0  0  0  0  0  0  0  2 V2000
  151.9751  136.7096  156.4388 C   0  0  0  0  0  0  0  0  0  0  0  0
  151.4650  137.9383  155.7427 C   0  0  0  0  0  0  0  0  0  0  0  0
  152.2022  139.0917  155.3522 C   0  0  0  0  0  0  0  0  0  0  0  0
  151.4504  140.0049  154.7608 N   0  0  0  0  0  0  0  0  0  0  0  0
  150.2099  139.4679  154.7441 N   0  0  0  0  0  0  0  0  0  0  0  0
  149.0895  140.2115  154.1771 C   0  0  1  0  0  0  0  0  0  0  0  0
  148.0184  139.2207  153.6843 C   0  0  0  0  0  0  0  0  0  0  0  0
  148.5342  141.2716  155.1685 C   0  0  2  0  0  0  0  0  0  0  0  0
  147.5696  142.2619  154.4873 C   0  0  0  0  0  0  0  0  0  0  0  0
  149.6547  142.0107  155.7976 N   0  3  0  0  0  0  0  0  0  0  0  0
  149.7587  141.8755  157.2660 C   0  0  0  0  0  0  0  0  0  0  0  0
  151.1228  142.3621  157.7780 C   0  0  1  0  0  0  0  0  0  0  0  0
  151.2903  143.8919  157.6635 C   0  0  0  0  0  0  0  0  0  0  0  0
  152.6211  144.3373  158.2802 C   0  0  0  0  0  0  0  0  0  0  0  0
  152.7346  143.7982  159.7098 C   0  0  0  0  0  0  0  0  0  0  0  0
  152.4923  142.2807  159.7284 C   0  0  0  0  0  0  0  0  0  0  0  0
  151.2247  141.9852  159.1490 O   0  0  0  0  0  0  0  0  0  0  0  0
  150.1908  138.2249  155.3423 C   0  0  0  0  0  0  0  0  0  0  0  0
  153.0586  136.6191  156.3596 H   0  0  0  0  0  0  0  0  0  0  0  0
  151.5461  135.7999  156.0182 H   0  0  0  0  0  0  0  0  0  0  0  0
  151.7304  136.7201  157.5010 H   0  0  0  0  0  0  0  0  0  0  0  0
  153.2557  139.2919  155.4825 H   0  0  0  0  0  0  0  0  0  0  0  0
  149.4752  140.7387  153.3029 H   0  0  0  0  0  0  0  0  0  0  0  0
  147.2462  139.7163  153.0970 H   0  0  0  0  0  0  0  0  0  0  0  0
  147.5317  138.7128  154.5177 H   0  0  0  0  0  0  0  0  0  0  0  0
  148.4595  138.4556  153.0443 H   0  0  0  0  0  0  0  0  0  0  0  0
  147.9886  140.7481  155.9554 H   0  0  0  0  0  0  0  0  0  0  0  0
  146.6921  141.7571  154.0850 H   0  0  0  0  0  0  0  0  0  0  0  0
  148.0570  142.7888  153.6664 H   0  0  0  0  0  0  0  0  0  0  0  0
  147.1990  143.0109  155.1864 H   0  0  0  0  0  0  0  0  0  0  0  0
  150.5108  141.6417  155.4079 H   0  0  0  0  0  0  0  0  0  0  0  0
  148.9554  142.4207  157.7613 H   0  0  0  0  0  0  0  0  0  0  0  0
  149.6343  140.8225  157.5229 H   0  0  0  0  0  0  0  0  0  0  0  0
  151.9124  141.8570  157.2182 H   0  0  0  0  0  0  0  0  0  0  0  0
  151.2454  144.2058  156.6203 H   0  0  0  0  0  0  0  0  0  0  0  0
  150.4675  144.3923  158.1760 H   0  0  0  0  0  0  0  0  0  0  0  0
  153.4496  143.9614  157.6784 H   0  0  0  0  0  0  0  0  0  0  0  0
  152.6985  145.4250  158.2764 H   0  0  0  0  0  0  0  0  0  0  0  0
  153.7159  144.0304  160.1247 H   0  0  0  0  0  0  0  0  0  0  0  0
  152.0002  144.2917  160.3479 H   0  0  0  0  0  0  0  0  0  0  0  0
  153.2822  141.7531  159.1914 H   0  0  0  0  0  0  0  0  0  0  0  0
  152.5048  141.9119  160.7544 H   0  0  0  0  0  0  0  0  0  0  0  0
  149.2805  137.6505  155.4332 H   0  0  0  0  0  0  0  0  0  0  0  0
  149.5855  142.9876  155.5513 H   0  0  0  0  0  0  0  0  0  0  0  0
  1  2  1  0  0  0  0
  1 19  1  0  0  0  0
  1 20  1  0  0  0  0
  1 21  1  0  0  0  0
  2 18  2  0  0  0  0
  2  3  1  0  0  0  0
  3  4  2  0  0  0  0
  3 22  1  0  0  0  0
  4  5  1  0  0  0  0
  5  6  1  0  0  0  0
  5 18  1  0  0  0  0
  6  7  1  0  0  0  0
  6  8  1  0  0  0  0
  6 23  1  0  0  0  0
  7 24  1  0  0  0  0
  7 25  1  0  0  0  0
  7 26  1  0  0  0  0
  8  9  1  0  0  0  0
  8 10  1  0  0  0  0
  8 27  1  0  0  0  0
  9 28  1  0  0  0  0
  9 29  1  0  0  0  0
  9 30  1  0  0  0  0
 10 11  1  0  0  0  0
 10 31  1  0  0  0  0
 10 44  1  0  0  0  0
 11 12  1  0  0  0  0
 11 32  1  0  0  0  0
 11 33  1  0  0  0  0
 12 17  1  0  0  0  0
 12 13  1  0  0  0  0
 12 34  1  0  0  0  0
 13 14  1  0  0  0  0
 13 35  1  0  0  0  0
 13 36  1  0  0  0  0
 14 15  1  0  0  0  0
 14 37  1  0  0  0  0
 14 38  1  0  0  0  0
 15 16  1  0  0  0  0
 15 39  1  0  0  0  0
 15 40  1  0  0  0  0
 16 17  1  0  0  0  0
 16 41  1  0  0  0  0
 16 42  1  0  0  0  0
 18 43  1  0  0  0  0
M  CHG  1  10   1
M  END
> <s_m_source_file>
AV-unprocessed.smi

> <i_m_source_file_index>
3249

> <i_lp_mmshare_version>
43012

> <i_f3d_flags>
0

> <s_epik_input>
W0NIM11jMVtjSF1ubihbY0hdMSlbQ0BIXShbQ0gzXSlbQ0BIXShbQ0gzXSlbTkhdW0NIMl1bQ0BASF0yW0NIMl1bQ0gyXVtDSDJdW0NIMl1PMg==

> <s_epik_cmdline>
J2VwaWtfcHl0aG9uJywgJy1waCcsICc3LjAnLCAnLXRuJywgJzgnLCAnLW1hJywgJzIwMCcsICctbWV0YWxfYmluZGluZycsICctaW1hZScsICc8aW5maWxlLm1hZT4nLCAnLW9tYWUnLCAnPG91dGZpbGUubWFlPic=

> <r_lp_tautomer_probability>
1

> <r_epik_Ionization_Penalty>
0.00659207

> <r_epik_Ionization_Penalty_Charging>
0.00656881

> <r_epik_Ionization_Penalty_Neutral>
2.32662e-05

> <r_epik_State_Penalty>
0.0048654

> <r_epik_Charging_Adjusted_Penalty>
0.0114342

> <i_epik_Tot_Q>
1

> <i_epik_Tot_abs_Q>
1

> <r_epik_Metal_State_Penalty>
-0

> <b_epik_Metal_Only>
0

> <s_lp_Force_Field>
OPLS_2005

> <r_lp_Energy>
17.782

> <b_lp_Chiralities_Consistent>
1

> <s_lp_Variant>
AV-unprocessed.smi:3249-6

> <Gold.Version>
5.8.1

> <Gold.Id.Protein>
6NUR|6NUR_protein|mol2

> <Gold.PLP.Fitness>
44.4229

> <Gold.PLP.PLP>
-38.5756

> <Gold.PLP.part.hbond>
-2.0770

> <Gold.PLP.part.metal>
0.0000

> <Gold.PLP.part.buried>
-0.6395

> <Gold.PLP.part.nonpolar>
-36.4470

> <Gold.PLP.part.repulsive>
0.1958

> <Gold.PLP.ligand.clash>
0.0000

> <Gold.PLP.ligand.torsion>
1.6501

> <Gold.PLP.Chemscore.Hbond>
3.0000

> <Gold.PLP.Chemscore.CHOScore>
0.0000

> <Gold.PLP.Chemscore.Metal>
0.0000

> <Gold.Chemscore.Hbonds>
donor molecule, donor type, donor heavy atom, donor atom, acceptor molecule, acceptor atom, score
      L1  H    10    44       P1  8028  2.00
      P1  H  7989  7998       L1     4  1.00

> <Gold.PLP.Chemscore.Internal.Correction>
0.1476

> <Gold.Rescore>
     Score         DG    S(hbond)    S(metal)    S(lipo)     H(rot)  DE(clash)    DE(int)     intcor
     19.12     -20.90       1.97        0.00     109.06       1.53       0.13       1.66       ----

> <Gold.Chemscore.Fitness>
19.1152

> <Gold.Chemscore.DG>
-20.9034

> <Gold.Chemscore.ZeroCoef>
-5.4800

> <Gold.Chemscore.Hbond>
1.9726

> <Gold.Chemscore.Metal>
0.0000

> <Gold.Chemscore.Lipo>
109.0592

> <Gold.Chemscore.Internal_Hbond>
0.0000

> <Gold.Chemscore.DEClash>
0.1300

> <Gold.Chemscore.DEInternal>
1.6581

> <Gold.Chemscore.Rot>
1.5333

> <Gold.Chemscore.Internal.Correction>
   9.000000E+99

> <Gold.Chemscore.Hbonds>
donor molecule, donor type, donor heavy atom, donor atom, acceptor molecule, acceptor atom, score
      L1  H    10    44       P1  8028  0.98
      P1  H  7989  7998       L1     4  0.69

> <Gold.Chemscore.Hbond.Weighted>
-6.5886

> <Gold.Chemscore.Metal.Weighted>
-0.0000

> <Gold.Chemscore.Lipo.Weighted>
-12.7599

> <Gold.Chemscore.Internal_Hbond.Weighted>
0.0000

> <Gold.Chemscore.DEClash.Weighted>
0.1300

> <Gold.Chemscore.DEInternal.Weighted>
1.6581

> <Gold.Chemscore.Rot.Weighted>
3.9252

> <Gold.Chemscore.Internal.Correction.Weighted>
   9.000000E+99

> <Gold.Protein.RotatedTorsions>
[ 6907 6896 6895 6894 ] final -102.11 input  -60.11 | X-H torsion
[ 7974 7965 7964 7962 ] final   41.47 input  175.53 | X-H torsion
[ 8008 7997 7996 7995 ] final  129.96 input   59.86 | X-H torsion
[ 10167 10162 10161 10158 ] final  131.34 input  -65.29 | X-H torsion
[ 10718 10713 10712 10709 ] final  167.35 input   66.30 | X-H torsion
[ 10763 10752 10751 10750 ] final  172.87 input  -60.55 | X-H torsion
[ 11005 11000 10999 10996 ] final  -65.39 input  -57.11 | X-H torsion

> <Gold.Protein.ActiveResidues>
 VAL166  LYS551  ARG553  GLY616  TRP617  ASP618  TYR619  PRO620  LYS621  CYS622 
 ASP623  PHE694  ASN695  SER759  ASP760  ASP761  ALA762  ILE779  LEU786  VAL792 
 PHE793  MET794  SER795  GLU796  ALA797  LYS798  CYS799  TRP800  GLU811  SER814 

> <Gold.Protein.RotatedAtoms>
  150.7182  134.0632  159.3838 H   0  0  0  0  0  0  0  0  0  0  0  0  # atno 6907 bound_to 6896
  151.8612  135.0521  160.0479 H   0  0  0  0  0  0  0  0  0  0  0  0  # atno 6908 bound_to 6896
  152.2716  133.5351  159.5479 H   0  0  0  0  0  0  0  0  0  0  0  0  # atno 6909 bound_to 6896
  146.0820  139.5411  142.9531 H   0  0  0  0  0  0  0  0  0  0  0  0  # atno 7974 bound_to 7965
  156.2946  140.2608  156.2684 H   0  0  0  0  0  0  0  0  0  0  0  0  # atno 8008 bound_to 7997
  154.9720  140.0391  157.2257 H   0  0  0  0  0  0  0  0  0  0  0  0  # atno 8009 bound_to 7997
  154.7850  140.2802  155.6039 H   0  0  0  0  0  0  0  0  0  0  0  0  # atno 8010 bound_to 7997
  139.5388  144.6710  151.4693 H   0  0  0  0  0  0  0  0  0  0  0  0  # atno 10167 bound_to 10162
  157.0528  131.0318  151.2674 H   0  0  0  0  0  0  0  0  0  0  0  0  # atno 10718 bound_to 10713
  154.4321  135.2760  155.1905 H   0  0  0  0  0  0  0  0  0  0  0  0  # atno 10763 bound_to 10752
  154.3807  135.6088  153.5793 H   0  0  0  0  0  0  0  0  0  0  0  0  # atno 10764 bound_to 10752
  152.9836  135.5879  154.4634 H   0  0  0  0  0  0  0  0  0  0  0  0  # atno 10765 bound_to 10752
  141.1453  133.6681  156.5979 H   0  0  0  0  0  0  0  0  0  0  0  0  # atno 11005 bound_to 11000
  145.6200  141.0324  143.1920 LP  0  0  0  0  0  0  0  0  0  0  0  0  # atno 17320 bound_to 7965
  144.7300  139.7756  143.7351 LP  0  0  0  0  0  0  0  0  0  0  0  0  # atno 17321 bound_to 7965
  140.6609  143.8501  150.6886 LP  0  0  0  0  0  0  0  0  0  0  0  0  # atno 17342 bound_to 10162
  140.1895  143.4048  152.1873 LP  0  0  0  0  0  0  0  0  0  0  0  0  # atno 17343 bound_to 10162
  157.5016  130.7883  149.7611 LP  0  0  0  0  0  0  0  0  0  0  0  0  # atno 17370 bound_to 10713
  156.0002  130.3884  150.2635 LP  0  0  0  0  0  0  0  0  0  0  0  0  # atno 17371 bound_to 10713
  140.3712  134.7604  157.4600 LP  0  0  0  0  0  0  0  0  0  0  0  0  # atno 17394 bound_to 11000
  140.0709  134.5864  155.8643 LP  0  0  0  0  0  0  0  0  0  0  0  0  # atno 17395 bound_to 11000

$$$$
