AV-unprocessed.smi:2027|AV-procd|sdf|8210|dock7
  -GOLD-   2272010473D 1   1.00000     0.00000
 Structure written by MMmdl.
 49 51  0  0  0  0  0  0  0  0  1 V2000
  153.7799  142.0695  161.4703 C   0  0  0  0  0  0  0  0  0  0  0  0
  153.1309  141.6748  160.1554 C   0  0  0  0  0  0  0  0  0  0  0  0
  152.2836  142.5992  159.5021 C   0  0  0  0  0  0  0  0  0  0  0  0
  151.6590  142.2702  158.2786 C   0  0  0  0  0  0  0  0  0  0  0  0
  150.8035  143.0050  157.4746 N   0  0  0  0  0  0  0  0  0  0  0  0
  150.5681  142.1522  156.4806 C   0  0  0  0  0  0  0  0  0  0  0  0
  151.1691  140.9493  156.5495 N   0  0  0  0  0  0  0  0  0  0  0  0
  151.0779  139.8514  155.6077 C   0  0  0  0  0  0  0  0  0  0  0  0
  149.8453  139.9851  154.6907 C   0  0  1  0  0  0  0  0  0  0  0  0
  150.0140  139.1387  153.5724 O   0  0  0  0  0  0  0  0  0  0  0  0
  148.5287  139.6105  155.4024 C   0  0  0  0  0  0  0  0  0  0  0  0
  147.3155  140.1501  154.7816 N   0  0  0  0  0  0  0  0  0  0  0  0
  147.0101  139.4289  153.5501 C   0  0  0  0  0  0  0  0  0  0  0  0
  147.3962  141.5932  154.5349 C   0  0  0  0  0  0  0  0  0  0  0  0
  146.0856  142.2981  154.7641 C   0  0  0  0  0  0  0  0  0  0  0  0
  145.0104  141.8954  155.6064 C   0  0  0  0  0  0  0  0  0  0  0  0
  143.9827  142.7280  155.5630 N   0  0  0  0  0  0  0  0  0  0  0  0
  144.3632  143.6863  154.6932 N   0  0  0  0  0  0  0  0  0  0  0  0
  143.4616  144.7770  154.3901 C   0  0  0  0  0  0  0  0  0  0  0  0
  145.6257  143.4525  154.1944 C   0  0  0  0  0  0  0  0  0  0  0  0
  151.9077  140.9814  157.7255 C   0  0  0  0  0  0  0  0  0  0  0  0
  152.7485  140.0538  158.3643 C   0  0  0  0  0  0  0  0  0  0  0  0
  153.3663  140.3983  159.5836 C   0  0  0  0  0  0  0  0  0  0  0  0
  154.2734  139.3871  160.2627 C   0  0  0  0  0  0  0  0  0  0  0  0
  153.4335  143.0469  161.8076 H   0  0  0  0  0  0  0  0  0  0  0  0
  154.8636  142.1167  161.3602 H   0  0  0  0  0  0  0  0  0  0  0  0
  153.5412  141.3447  162.2488 H   0  0  0  0  0  0  0  0  0  0  0  0
  152.1055  143.5717  159.9369 H   0  0  0  0  0  0  0  0  0  0  0  0
  149.9200  142.4152  155.6572 H   0  0  0  0  0  0  0  0  0  0  0  0
  151.9988  139.7920  155.0259 H   0  0  0  0  0  0  0  0  0  0  0  0
  151.0235  138.9321  156.1916 H   0  0  0  0  0  0  0  0  0  0  0  0
  149.7850  140.9989  154.2979 H   0  0  0  0  0  0  0  0  0  0  0  0
  149.8672  139.6464  152.7889 H   0  0  0  0  0  0  0  0  0  0  0  0
  148.4455  138.5247  155.4731 H   0  0  0  0  0  0  0  0  0  0  0  0
  148.5959  139.9720  156.4296 H   0  0  0  0  0  0  0  0  0  0  0  0
  146.0746  139.7753  153.1102 H   0  0  0  0  0  0  0  0  0  0  0  0
  146.9005  138.3612  153.7436 H   0  0  0  0  0  0  0  0  0  0  0  0
  147.8020  139.5593  152.8112 H   0  0  0  0  0  0  0  0  0  0  0  0
  148.1378  142.0475  155.1878 H   0  0  0  0  0  0  0  0  0  0  0  0
  147.7642  141.7700  153.5231 H   0  0  0  0  0  0  0  0  0  0  0  0
  144.9459  141.0245  156.2420 H   0  0  0  0  0  0  0  0  0  0  0  0
  144.0017  145.5765  153.8821 H   0  0  0  0  0  0  0  0  0  0  0  0
  143.0302  145.1721  155.3108 H   0  0  0  0  0  0  0  0  0  0  0  0
  142.6610  144.4214  153.7413 H   0  0  0  0  0  0  0  0  0  0  0  0
  146.0884  144.1162  153.4786 H   0  0  0  0  0  0  0  0  0  0  0  0
  152.9142  139.0845  157.9187 H   0  0  0  0  0  0  0  0  0  0  0  0
  154.4140  138.5006  159.6432 H   0  0  0  0  0  0  0  0  0  0  0  0
  153.8438  139.0688  161.2128 H   0  0  0  0  0  0  0  0  0  0  0  0
  155.2561  139.8189  160.4531 H   0  0  0  0  0  0  0  0  0  0  0  0
  1  2  1  0  0  0  0
  1 25  1  0  0  0  0
  1 26  1  0  0  0  0
  1 27  1  0  0  0  0
  2 23  1  0  0  0  0
  2  3  2  0  0  0  0
  3  4  1  0  0  0  0
  3 28  1  0  0  0  0
  4 21  2  0  0  0  0
  4  5  1  0  0  0  0
  5  6  2  0  0  0  0
  6  7  1  0  0  0  0
  6 29  1  0  0  0  0
  7  8  1  0  0  0  0
  7 21  1  0  0  0  0
  8  9  1  0  0  0  0
  8 30  1  0  0  0  0
  8 31  1  0  0  0  0
  9 10  1  0  0  0  0
  9 11  1  0  0  0  0
  9 32  1  0  0  0  0
 10 33  1  0  0  0  0
 11 12  1  0  0  0  0
 11 34  1  0  0  0  0
 11 35  1  0  0  0  0
 12 13  1  0  0  0  0
 12 14  1  0  0  0  0
 13 36  1  0  0  0  0
 13 37  1  0  0  0  0
 13 38  1  0  0  0  0
 14 15  1  0  0  0  0
 14 39  1  0  0  0  0
 14 40  1  0  0  0  0
 15 20  2  0  0  0  0
 15 16  1  0  0  0  0
 16 17  2  0  0  0  0
 16 41  1  0  0  0  0
 17 18  1  0  0  0  0
 18 19  1  0  0  0  0
 18 20  1  0  0  0  0
 19 42  1  0  0  0  0
 19 43  1  0  0  0  0
 19 44  1  0  0  0  0
 20 45  1  0  0  0  0
 21 22  1  0  0  0  0
 22 23  2  0  0  0  0
 22 46  1  0  0  0  0
 23 24  1  0  0  0  0
 24 47  1  0  0  0  0
 24 48  1  0  0  0  0
 24 49  1  0  0  0  0
M  END
> <s_m_source_file>
AV-unprocessed.smi

> <i_m_source_file_index>
2027

> <i_lp_mmshare_version>
43012

> <i_f3d_flags>
0

> <s_epik_input>
W0NIM11jKFtjSF0xKWMoW0NIM10pW2NIXWMoYzEyKW4oW2NIXW4yKVtDSDJdW0NASF0oW09IXSlbQ0gyXU4oW0NIM10pW0NIMl1jM1tjSF1ubihbQ0gzXSlbY0hdMw==

> <s_epik_cmdline>
J2VwaWtfcHl0aG9uJywgJy1waCcsICc3LjAnLCAnLXRuJywgJzgnLCAnLW1hJywgJzIwMCcsICctbWV0YWxfYmluZGluZycsICctaW1hZScsICc8aW5maWxlLm1hZT4nLCAnLW9tYWUnLCAnPG91dGZpbGUubWFlPic=

> <r_lp_tautomer_probability>
1

> <r_epik_Ionization_Penalty>
0.374241

> <r_epik_Ionization_Penalty_Charging>
0

> <r_epik_Ionization_Penalty_Neutral>
0.374241

> <r_epik_State_Penalty>
0.350767

> <r_epik_Charging_Adjusted_Penalty>
0.350767

> <i_epik_Tot_Q>
0

> <i_epik_Tot_abs_Q>
0

> <r_epik_Metal_State_Penalty>
0.343203

> <b_epik_Metal_Only>
0

> <s_lp_Force_Field>
OPLS_2005

> <r_lp_Energy>
13.5697

> <b_lp_Chiralities_Consistent>
1

> <s_lp_Variant>
AV-unprocessed.smi:2027-2

> <Gold.Version>
5.8.1

> <Gold.Id.Protein>
6NUR|6NUR_protein|mol2

> <Gold.PLP.Fitness>
51.9980

> <Gold.PLP.PLP>
-49.5585

> <Gold.PLP.part.hbond>
-1.6037

> <Gold.PLP.part.metal>
0.0000

> <Gold.PLP.part.buried>
-4.0576

> <Gold.PLP.part.nonpolar>
-44.7357

> <Gold.PLP.part.repulsive>
0.5410

> <Gold.PLP.ligand.clash>
0.0000

> <Gold.PLP.ligand.torsion>
1.4756

> <Gold.PLP.Chemscore.Hbond>
1.0000

> <Gold.PLP.Chemscore.CHOScore>
0.7310

> <Gold.PLP.Chemscore.Metal>
0.0000

> <Gold.Chemscore.Hbonds>
donor molecule, donor type, donor heavy atom, donor atom, acceptor molecule, acceptor atom, score
      L1  H    10    33       P1  7957  1.00
      L1  C     6    29       P1  8028  0.76

> <Gold.PLP.Chemscore.Internal.Correction>
0.1976

> <Gold.Rescore>
     Score         DG    S(hbond)    S(metal)    S(lipo)     H(rot)  DE(clash)    DE(int)     intcor
     14.87     -16.37       0.95        0.00     118.78       2.42       0.02       1.49       ----

> <Gold.Chemscore.Fitness>
14.8654

> <Gold.Chemscore.DG>
-16.3711

> <Gold.Chemscore.ZeroCoef>
-5.4800

> <Gold.Chemscore.Hbond>
0.9548

> <Gold.Chemscore.Metal>
0.0000

> <Gold.Chemscore.Lipo>
118.7768

> <Gold.Chemscore.Internal_Hbond>
0.0000

> <Gold.Chemscore.DEClash>
0.0150

> <Gold.Chemscore.DEInternal>
1.4907

> <Gold.Chemscore.Rot>
2.4198

> <Gold.Chemscore.Internal.Correction>
   9.000000E+99

> <Gold.Chemscore.Hbonds>
donor molecule, donor type, donor heavy atom, donor atom, acceptor molecule, acceptor atom, score
      L1  H    10    33       P1  7957  0.99

> <Gold.Chemscore.Hbond.Weighted>
-3.1890

> <Gold.Chemscore.Metal.Weighted>
-0.0000

> <Gold.Chemscore.Lipo.Weighted>
-13.8969

> <Gold.Chemscore.Internal_Hbond.Weighted>
0.0000

> <Gold.Chemscore.DEClash.Weighted>
0.0150

> <Gold.Chemscore.DEInternal.Weighted>
1.4907

> <Gold.Chemscore.Rot.Weighted>
6.1948

> <Gold.Chemscore.Internal.Correction.Weighted>
   9.000000E+99

> <Gold.Protein.RotatedTorsions>
[ 6907 6896 6895 6894 ] final  -96.66 input  -60.11 | X-H torsion
[ 7974 7965 7964 7962 ] final   27.01 input  175.53 | X-H torsion
[ 8008 7997 7996 7995 ] final   77.93 input   59.86 | X-H torsion
[ 10167 10162 10161 10158 ] final  162.07 input  -65.29 | X-H torsion
[ 10718 10713 10712 10709 ] final   -8.70 input   66.30 | X-H torsion
[ 10763 10752 10751 10750 ] final  -63.01 input  -60.55 | X-H torsion
[ 11005 11000 10999 10996 ] final  -59.07 input  -57.11 | X-H torsion

> <Gold.Protein.ActiveResidues>
 VAL166  LYS551  ARG553  GLY616  TRP617  ASP618  TYR619  PRO620  LYS621  CYS622 
 ASP623  PHE694  ASN695  SER759  ASP760  ASP761  ALA762  ILE779  LEU786  VAL792 
 PHE793  MET794  SER795  GLU796  ALA797  LYS798  CYS799  TRP800  GLU811  SER814 

> <Gold.Protein.RotatedAtoms>
  150.6994  134.1469  159.4125 H   0  0  0  0  0  0  0  0  0  0  0  0  # atno 6907 bound_to 6896
  151.9452  135.0192  160.0548 H   0  0  0  0  0  0  0  0  0  0  0  0  # atno 6908 bound_to 6896
  152.2059  133.4840  159.5120 H   0  0  0  0  0  0  0  0  0  0  0  0  # atno 6909 bound_to 6896
  146.1807  139.7250  142.8902 H   0  0  0  0  0  0  0  0  0  0  0  0  # atno 7974 bound_to 7965
  155.8486  140.3459  155.5678 H   0  0  0  0  0  0  0  0  0  0  0  0  # atno 8008 bound_to 7997
  155.8062  140.0892  157.1949 H   0  0  0  0  0  0  0  0  0  0  0  0  # atno 8009 bound_to 7997
  154.4007  140.1456  156.3321 H   0  0  0  0  0  0  0  0  0  0  0  0  # atno 8010 bound_to 7997
  139.4856  144.4473  151.8875 H   0  0  0  0  0  0  0  0  0  0  0  0  # atno 10167 bound_to 10162
  156.6987  130.5087  149.5923 H   0  0  0  0  0  0  0  0  0  0  0  0  # atno 10718 bound_to 10713
  154.3086  135.6220  153.5455 H   0  0  0  0  0  0  0  0  0  0  0  0  # atno 10763 bound_to 10752
  152.9832  135.5695  154.5203 H   0  0  0  0  0  0  0  0  0  0  0  0  # atno 10764 bound_to 10752
  154.4848  135.2864  155.1519 H   0  0  0  0  0  0  0  0  0  0  0  0  # atno 10765 bound_to 10752
  141.1233  133.6614  156.5015 H   0  0  0  0  0  0  0  0  0  0  0  0  # atno 11005 bound_to 11000
  145.4083  141.0393  143.3031 LP  0  0  0  0  0  0  0  0  0  0  0  0  # atno 17320 bound_to 7965
  144.8311  139.5627  143.6943 LP  0  0  0  0  0  0  0  0  0  0  0  0  # atno 17321 bound_to 7965
  140.3928  144.2593  150.5898 LP  0  0  0  0  0  0  0  0  0  0  0  0  # atno 17342 bound_to 10162
  140.5130  143.2285  151.8507 LP  0  0  0  0  0  0  0  0  0  0  0  0  # atno 17343 bound_to 10162
  156.1744  130.6458  151.0877 LP  0  0  0  0  0  0  0  0  0  0  0  0  # atno 17370 bound_to 10713
  157.6981  131.0786  150.6906 LP  0  0  0  0  0  0  0  0  0  0  0  0  # atno 17371 bound_to 10713
  140.4442  134.6988  157.5007 LP  0  0  0  0  0  0  0  0  0  0  0  0  # atno 17394 bound_to 11000
  140.0209  134.6549  155.9241 LP  0  0  0  0  0  0  0  0  0  0  0  0  # atno 17395 bound_to 11000

$$$$
