AV-unprocessed.smi:844|AV-procd|sdf|3924|dock10
  -GOLD-   22720 1383D 1   1.00000     0.00000
 Structure written by MMmdl.
 32 34  0  0  0  0  0  0  0  0  1 V2000
  152.3785  140.2637  156.6409 O   0  0  0  0  0  0  0  0  0  0  0  0
  151.1918  141.0090  156.8254 C   0  0  1  0  0  0  0  0  0  0  0  0
  151.5629  142.5054  156.8392 C   0  0  0  0  0  0  0  0  0  0  0  0
  151.4517  143.0869  158.1651 N   0  0  0  0  0  0  0  0  0  0  0  0
  150.6355  144.0890  158.5440 C   0  0  0  0  0  0  0  0  0  0  0  0
  150.7018  144.4830  159.8126 N   0  0  0  0  0  0  0  0  0  0  0  0
  151.6757  143.6382  160.3167 C   0  0  0  0  0  0  0  0  0  0  0  0
  152.2245  143.5429  161.6155 C   0  0  0  0  0  0  0  0  0  0  0  0
  153.2274  142.5925  161.8996 C   0  0  0  0  0  0  0  0  0  0  0  0
  153.6951  141.7234  160.8926 C   0  0  0  0  0  0  0  0  0  0  0  0
  153.1621  141.7982  159.5917 C   0  0  0  0  0  0  0  0  0  0  0  0
  152.1631  142.7492  159.3116 C   0  0  0  0  0  0  0  0  0  0  0  0
  150.1355  140.6830  155.7745 C   0  0  0  0  0  0  0  0  0  0  0  0
  149.5400  141.7176  155.0185 C   0  0  0  0  0  0  0  0  0  0  0  0
  148.5463  141.4227  154.0655 C   0  0  0  0  0  0  0  0  0  0  0  0
  148.1393  140.0910  153.8617 C   0  0  0  0  0  0  0  0  0  0  0  0
  147.1826  139.8076  152.9464 F   0  0  0  0  0  0  0  0  0  0  0  0
  148.7264  139.0547  154.6120 C   0  0  0  0  0  0  0  0  0  0  0  0
  149.7202  139.3473  155.5663 C   0  0  0  0  0  0  0  0  0  0  0  0
  150.2640  138.3384  156.2889 F   0  0  0  0  0  0  0  0  0  0  0  0
  152.1498  139.4220  156.2773 H   0  0  0  0  0  0  0  0  0  0  0  0
  150.8131  140.7307  157.8095 H   0  0  0  0  0  0  0  0  0  0  0  0
  152.5918  142.6398  156.5018 H   0  0  0  0  0  0  0  0  0  0  0  0
  150.9337  143.0702  156.1499 H   0  0  0  0  0  0  0  0  0  0  0  0
  149.9570  144.5593  157.8472 H   0  0  0  0  0  0  0  0  0  0  0  0
  151.8744  144.2041  162.3945 H   0  0  0  0  0  0  0  0  0  0  0  0
  153.6404  142.5305  162.8957 H   0  0  0  0  0  0  0  0  0  0  0  0
  154.4639  140.9994  161.1196 H   0  0  0  0  0  0  0  0  0  0  0  0
  153.5205  141.1363  158.8174 H   0  0  0  0  0  0  0  0  0  0  0  0
  149.8372  142.7447  155.1728 H   0  0  0  0  0  0  0  0  0  0  0  0
  148.0943  142.2192  153.4928 H   0  0  0  0  0  0  0  0  0  0  0  0
  148.4114  138.0333  154.4580 H   0  0  0  0  0  0  0  0  0  0  0  0
  1  2  1  0  0  0  0
  1 21  1  0  0  0  0
  2  3  1  0  0  0  0
  2 13  1  0  0  0  0
  2 22  1  0  0  0  0
  3  4  1  0  0  0  0
  3 23  1  0  0  0  0
  3 24  1  0  0  0  0
  4 12  1  0  0  0  0
  4  5  1  0  0  0  0
  5  6  2  0  0  0  0
  5 25  1  0  0  0  0
  6  7  1  0  0  0  0
  7 12  2  0  0  0  0
  7  8  1  0  0  0  0
  8  9  2  0  0  0  0
  8 26  1  0  0  0  0
  9 10  1  0  0  0  0
  9 27  1  0  0  0  0
 10 11  2  0  0  0  0
 10 28  1  0  0  0  0
 11 12  1  0  0  0  0
 11 29  1  0  0  0  0
 13 19  1  0  0  0  0
 13 14  2  0  0  0  0
 14 15  1  0  0  0  0
 14 30  1  0  0  0  0
 15 16  2  0  0  0  0
 15 31  1  0  0  0  0
 16 17  1  0  0  0  0
 16 18  1  0  0  0  0
 18 19  2  0  0  0  0
 18 32  1  0  0  0  0
 19 20  1  0  0  0  0
M  END
> <s_m_source_file>
AV-unprocessed.smi

> <i_m_source_file_index>
844

> <i_lp_mmshare_version>
43012

> <i_f3d_flags>
0

> <s_epik_input>
RmMxW2NIXWMoRilbY0hdW2NIXWMxW0NASF0oW09IXSlbQ0gyXW4oW2NIXW4yKWMoYzIzKVtjSF1bY0hdW2NIXVtjSF0z

> <s_epik_cmdline>
J2VwaWtfcHl0aG9uJywgJy1waCcsICc3LjAnLCAnLXRuJywgJzgnLCAnLW1hJywgJzIwMCcsICctbWV0YWxfYmluZGluZycsICctaW1hZScsICc8aW5maWxlLm1hZT4nLCAnLW9tYWUnLCAnPG91dGZpbGUubWFlPic=

> <r_epik_Ionization_Penalty>
0.0696514

> <r_epik_Ionization_Penalty_Charging>
0

> <r_epik_Ionization_Penalty_Neutral>
0.0696514

> <r_epik_State_Penalty>
0.0610247

> <r_epik_Charging_Adjusted_Penalty>
0.0610247

> <i_epik_Tot_Q>
0

> <i_epik_Tot_abs_Q>
0

> <r_epik_Metal_State_Penalty>
6.42746e-05

> <b_epik_Metal_Only>
0

> <s_lp_Force_Field>
OPLS_2005

> <r_lp_Energy>
12.0275

> <b_lp_Chiralities_Consistent>
1

> <s_lp_Variant>
AV-unprocessed.smi:844-2

> <Gold.Version>
5.8.1

> <Gold.Id.Protein>
6NUR|6NUR_protein|mol2

> <Gold.PLP.Fitness>
47.2126

> <Gold.PLP.PLP>
-42.4414

> <Gold.PLP.part.hbond>
-1.0000

> <Gold.PLP.part.metal>
0.0000

> <Gold.PLP.part.buried>
-1.6986

> <Gold.PLP.part.nonpolar>
-39.3041

> <Gold.PLP.part.repulsive>
0.1343

> <Gold.PLP.ligand.clash>
0.0000

> <Gold.PLP.ligand.torsion>
0.7628

> <Gold.PLP.Chemscore.Hbond>
0.9913

> <Gold.PLP.Chemscore.CHOScore>
1.1032

> <Gold.PLP.Chemscore.Metal>
0.0000

> <Gold.Chemscore.Hbonds>
donor molecule, donor type, donor heavy atom, donor atom, acceptor molecule, acceptor atom, score
      P1  H  7997  8008       L1     1  0.90
      L1  C     5    25       P1  8028  0.71
      L1  C     5    25       P1  8029  0.40

> <Gold.PLP.Chemscore.Internal.Correction>
0.0135

> <Gold.Rescore>
     Score         DG    S(hbond)    S(metal)    S(lipo)     H(rot)  DE(clash)    DE(int)     intcor
     13.39     -16.85       0.80        0.00     118.32       2.00       1.50       1.96       ----

> <Gold.Chemscore.Fitness>
13.3916

> <Gold.Chemscore.DG>
-16.8507

> <Gold.Chemscore.ZeroCoef>
-5.4800

> <Gold.Chemscore.Hbond>
0.7957

> <Gold.Chemscore.Metal>
0.0000

> <Gold.Chemscore.Lipo>
118.3200

> <Gold.Chemscore.Internal_Hbond>
0.0000

> <Gold.Chemscore.DEClash>
1.5030

> <Gold.Chemscore.DEInternal>
1.9561

> <Gold.Chemscore.Rot>
2.0040

> <Gold.Chemscore.Internal.Correction>
   9.000000E+99

> <Gold.Chemscore.Hbonds>
donor molecule, donor type, donor heavy atom, donor atom, acceptor molecule, acceptor atom, score
      P1  H  7997  8008       L1     1  0.17

> <Gold.Chemscore.Hbond.Weighted>
-2.6576

> <Gold.Chemscore.Metal.Weighted>
-0.0000

> <Gold.Chemscore.Lipo.Weighted>
-13.8434

> <Gold.Chemscore.Internal_Hbond.Weighted>
0.0000

> <Gold.Chemscore.DEClash.Weighted>
1.5030

> <Gold.Chemscore.DEInternal.Weighted>
1.9561

> <Gold.Chemscore.Rot.Weighted>
5.1303

> <Gold.Chemscore.Internal.Correction.Weighted>
   9.000000E+99

> <Gold.Protein.RotatedTorsions>
[ 6907 6896 6895 6894 ] final  -91.69 input  -60.11 | X-H torsion
[ 7974 7965 7964 7962 ] final -149.89 input  175.53 | X-H torsion
[ 8008 7997 7996 7995 ] final  -47.66 input   59.86 | X-H torsion
[ 10167 10162 10161 10158 ] final  -69.46 input  -65.29 | X-H torsion
[ 10718 10713 10712 10709 ] final   49.94 input   66.30 | X-H torsion
[ 10763 10752 10751 10750 ] final  -87.34 input  -60.55 | X-H torsion
[ 11005 11000 10999 10996 ] final -108.01 input  -57.11 | X-H torsion

> <Gold.Protein.ActiveResidues>
 VAL166  LYS551  ARG553  GLY616  TRP617  ASP618  TYR619  PRO620  LYS621  CYS622 
 ASP623  PHE694  ASN695  SER759  ASP760  ASP761  ALA762  ILE779  LEU786  VAL792 
 PHE793  MET794  SER795  GLU796  ALA797  LYS798  CYS799  TRP800  GLU811  SER814 

> <Gold.Protein.RotatedAtoms>
  150.6896  134.2238  159.4406 H   0  0  0  0  0  0  0  0  0  0  0  0  # atno 6907 bound_to 6896
  152.0193  134.9829  160.0579 H   0  0  0  0  0  0  0  0  0  0  0  0  # atno 6908 bound_to 6896
  152.1413  133.4431  159.4805 H   0  0  0  0  0  0  0  0  0  0  0  0  # atno 6909 bound_to 6896
  144.7940  140.5004  143.5753 H   0  0  0  0  0  0  0  0  0  0  0  0  # atno 7974 bound_to 7965
  154.4019  140.1341  156.4211 H   0  0  0  0  0  0  0  0  0  0  0  0  # atno 8008 bound_to 7997
  155.7641  140.3485  155.5193 H   0  0  0  0  0  0  0  0  0  0  0  0  # atno 8009 bound_to 7997
  155.8830  140.0990  157.1462 H   0  0  0  0  0  0  0  0  0  0  0  0  # atno 8010 bound_to 7997
  140.5429  143.2314  151.7056 H   0  0  0  0  0  0  0  0  0  0  0  0  # atno 10167 bound_to 10162
  157.4836  130.8330  149.8121 H   0  0  0  0  0  0  0  0  0  0  0  0  # atno 10718 bound_to 10713
  154.6325  135.5417  153.7697 H   0  0  0  0  0  0  0  0  0  0  0  0  # atno 10763 bound_to 10752
  153.0292  135.6439  154.1280 H   0  0  0  0  0  0  0  0  0  0  0  0  # atno 10764 bound_to 10752
  154.1209  135.2920  155.3188 H   0  0  0  0  0  0  0  0  0  0  0  0  # atno 10765 bound_to 10752
  141.0924  133.9031  157.2044 H   0  0  0  0  0  0  0  0  0  0  0  0  # atno 11005 bound_to 11000
  145.5721  139.1484  143.3282 LP  0  0  0  0  0  0  0  0  0  0  0  0  # atno 17320 bound_to 7965
  146.2202  140.5854  142.9020 LP  0  0  0  0  0  0  0  0  0  0  0  0  # atno 17321 bound_to 7965
  139.4996  144.3941  152.0250 LP  0  0  0  0  0  0  0  0  0  0  0  0  # atno 17342 bound_to 10162
  140.3051  144.3602  150.6049 LP  0  0  0  0  0  0  0  0  0  0  0  0  # atno 17343 bound_to 10162
  156.0134  130.3823  150.2188 LP  0  0  0  0  0  0  0  0  0  0  0  0  # atno 17370 bound_to 10713
  157.0375  131.0025  151.3294 LP  0  0  0  0  0  0  0  0  0  0  0  0  # atno 17371 bound_to 10713
  139.9753  135.0116  156.9615 LP  0  0  0  0  0  0  0  0  0  0  0  0  # atno 17394 bound_to 11000
  140.5220  134.0898  155.7294 LP  0  0  0  0  0  0  0  0  0  0  0  0  # atno 17395 bound_to 11000

$$$$
