#       Name:                AV-unprocessed.smi:742
#       Creating user name   scv26
#       Creation time:       Fri Mar 27 00:55:41 2020


#       File generated by GOLD software.
#

@<TRIPOS>MOLECULE
AV-unprocessed.smi:742
    28    28     1
SMALL
NO_CHARGES


@<TRIPOS>ATOM
      1 ****        -2.8134   1.6921  -0.8065 N.4            1 S1                 1.0000
      2 ****        -1.4097   1.6847  -1.2496 C.3            1 S1                 0.0000
      3 ****        -0.4697   1.2557  -0.1136 C.3            1 S1                 0.0000
      4 ****         0.9117   1.1708  -0.5883 N.pl3          1 S1                 0.0000
      5 ****         1.5224  -0.2399  -1.3774 S.o2           1 S1                 0.0000
      6 ****         0.3751  -1.0081  -1.8859 O.2            1 S1                 0.0000
      7 ****         2.5818   0.2107  -2.2920 O.2            1 S1                 0.0000
      8 ****         2.3216  -1.1634   0.0096 C.3            1 S1                 0.0000
      9 ****         1.2875  -1.7843   0.9067 C.2            1 S1                 0.0000
     10 ****         0.7987  -1.3014   2.1526 C.2            1 S1                 0.0000
     11 ****        -0.1081  -2.2499   2.5289 C.2            1 S1                 0.0000
     12 ****        -0.1759  -3.2368   1.6005 O.3            1 S1                 0.0000
     13 ****         0.7229  -2.9338   0.5716 N.2            1 S1                 0.0000
     14 ****        -3.4063   1.9782  -1.5725 H              1 S1                 0.0000
     15 ****        -2.9226   2.3375  -0.0374 H              1 S1                 0.0000
     16 ****        -1.3258   1.0091  -2.1009 H              1 S1                 0.0000
     17 ****        -1.1466   2.6814  -1.6052 H              1 S1                 0.0000
     18 ****        -0.5147   1.9721   0.7071 H              1 S1                 0.0000
     19 ****        -0.7711   0.2885   0.2896 H              1 S1                 0.0000
     20 ****         1.3742   2.0466  -0.8321 H              1 S1                 0.0000
     21 ****         2.9603  -1.9323  -0.4263 H              1 S1                 0.0000
     22 ****         2.9671  -0.4773   0.5576 H              1 S1                 0.0000
     23 ****         1.0699  -0.4018   2.6850 H              1 S1                 0.0000
     24 ****        -0.7535  -2.3607   3.3877 H              1 S1                 0.0000
     25 ****        -3.0766   0.7635  -0.5082 H              1 S1                 0.0000
     26 ****        -1.1043  -3.2925   1.2331 LP             1 S1                 0.0000
     27 ****         0.0703  -4.1115   2.0180 LP             1 S1                 0.0000
     28 ****         0.9022  -3.4755  -0.2497 LP             1 S1                 0.0000
@<TRIPOS>BOND
    1    1    2 1     
    2    1   14 1     
    3    1   15 1     
    4    1   25 1     
    5    2    3 1     
    6    2   16 1     
    7    2   17 1     
    8    3    4 1     
    9    3   18 1     
   10    3   19 1     
   11    4    5 1     
   12    4   20 1     
   13    5    6 2     
   14    5    7 2     
   15    5    8 1     
   16    8    9 1     
   17    8   21 1     
   18    8   22 1     
   19    9   13 2     
   20    9   10 1     
   21   10   11 2     
   22   10   23 1     
   23   11   12 1     
   24   11   24 1     
   25   12   13 1     
   26   12   26 1     
   27   12   27 1     
   28   13   28 1     
@<TRIPOS>SUBSTRUCTURE
      1 S1             1
@<TRIPOS>SET
LONE_PAIRS      STATIC     ATOMS    <user>   **** ""
5 6 7 26 27 28
DONOR_HYDROGENS      STATIC     ATOMS    <user>   **** ""
4 14 15 25 20
ATOM$BLUE        STATIC     ATOMS    COLORGROUP SYSTEM
5 6 7 26 27 28
ATOM$RED        STATIC     ATOMS    COLORGROUP SYSTEM
4 14 15 25 20
