AV-unprocessed.smi:781|AV-procd|sdf|3714|dock3
  -GOLD-   22720 1133D 1   1.00000     0.00000
 Structure written by MMmdl.
 38 40  0  0  0  0  0  0  0  0  1 V2000
  151.1763  130.9083  156.5224 C   0  0  0  0  0  0  0  0  0  0  0  0
  150.4547  132.0129  155.8293 C   0  0  0  0  0  0  0  0  0  0  0  0
  149.7849  132.0850  154.6403 C   0  0  0  0  0  0  0  0  0  0  0  0
  149.3417  133.4339  154.6039 C   0  0  0  0  0  0  0  0  0  0  0  0
  148.5881  133.9222  153.5065 N   0  0  0  0  0  0  0  0  0  0  0  0
  147.4518  133.4131  153.0008 C   0  0  0  0  0  0  0  0  0  0  0  0
  146.8636  132.4216  153.4329 O   0  0  0  0  0  0  0  0  0  0  0  0
  147.0288  134.1241  151.9462 N   0  0  0  0  0  0  0  0  0  0  0  0
  145.8443  133.8184  151.1479 C   0  0  1  0  0  0  0  0  0  0  0  0
  146.0983  132.5815  150.2580 C   0  0  2  0  0  0  0  0  0  0  0  0
  145.0168  132.5280  149.1641 C   0  0  0  0  0  0  0  0  0  0  0  0
  143.7648  132.1052  149.9550 C   0  0  0  0  0  0  0  0  0  0  0  0
  144.2912  131.9882  151.4019 C   0  0  1  0  0  0  0  0  0  0  0  0
  145.6838  131.4209  151.1585 C   0  0  0  0  0  0  0  0  0  0  0  0
  144.6362  133.3703  152.0111 C   0  0  2  0  0  0  0  0  0  0  0  0
  143.4859  134.3948  152.0672 C   0  0  0  0  0  0  0  0  0  0  0  0
  142.4148  133.8912  152.8372 O   0  0  0  0  0  0  0  0  0  0  0  0
  149.7084  134.1234  155.6734 N   0  0  0  0  0  0  0  0  0  0  0  0
  150.4237  133.2160  156.4641 O   0  0  0  0  0  0  0  0  0  0  0  0
  151.1350  129.9885  155.9387 H   0  0  0  0  0  0  0  0  0  0  0  0
  150.7330  130.7093  157.4984 H   0  0  0  0  0  0  0  0  0  0  0  0
  152.2246  131.1666  156.6729 H   0  0  0  0  0  0  0  0  0  0  0  0
  149.6364  131.2977  153.9166 H   0  0  0  0  0  0  0  0  0  0  0  0
  148.9608  134.7411  153.0496 H   0  0  0  0  0  0  0  0  0  0  0  0
  147.5706  134.9278  151.6640 H   0  0  0  0  0  0  0  0  0  0  0  0
  145.6013  134.6831  150.5270 H   0  0  0  0  0  0  0  0  0  0  0  0
  147.1123  132.5189  149.8607 H   0  0  0  0  0  0  0  0  0  0  0  0
  144.8871  133.4842  148.6562 H   0  0  0  0  0  0  0  0  0  0  0  0
  145.2632  131.7802  148.4092 H   0  0  0  0  0  0  0  0  0  0  0  0
  142.9395  132.8076  149.8480 H   0  0  0  0  0  0  0  0  0  0  0  0
  143.4077  131.1365  149.6030 H   0  0  0  0  0  0  0  0  0  0  0  0
  143.6605  131.3749  152.0461 H   0  0  0  0  0  0  0  0  0  0  0  0
  145.6776  130.4562  150.6476 H   0  0  0  0  0  0  0  0  0  0  0  0
  146.2846  131.3380  152.0660 H   0  0  0  0  0  0  0  0  0  0  0  0
  144.9714  133.1993  153.0365 H   0  0  0  0  0  0  0  0  0  0  0  0
  143.8334  135.3176  152.5319 H   0  0  0  0  0  0  0  0  0  0  0  0
  143.1282  134.6641  151.0743 H   0  0  0  0  0  0  0  0  0  0  0  0
  142.7579  133.2628  153.4540 H   0  0  0  0  0  0  0  0  0  0  0  0
  1  2  1  0  0  0  0
  1 20  1  0  0  0  0
  1 21  1  0  0  0  0
  1 22  1  0  0  0  0
  2 19  1  0  0  0  0
  2  3  2  0  0  0  0
  3  4  1  0  0  0  0
  3 23  1  0  0  0  0
  4  5  1  0  0  0  0
  4 18  2  0  0  0  0
  5  6  1  0  0  0  0
  5 24  1  0  0  0  0
  6  7  2  0  0  0  0
  6  8  1  0  0  0  0
  8  9  1  0  0  0  0
  8 25  1  0  0  0  0
  9 15  1  0  0  0  0
  9 10  1  0  0  0  0
  9 26  1  0  0  0  0
 10 14  1  0  0  0  0
 10 11  1  0  0  0  0
 10 27  1  0  0  0  0
 11 12  1  0  0  0  0
 11 28  1  0  0  0  0
 11 29  1  0  0  0  0
 12 13  1  0  0  0  0
 12 30  1  0  0  0  0
 12 31  1  0  0  0  0
 13 14  1  0  0  0  0
 13 15  1  0  0  0  0
 13 32  1  0  0  0  0
 14 33  1  0  0  0  0
 14 34  1  0  0  0  0
 15 16  1  0  0  0  0
 15 35  1  0  0  0  0
 16 17  1  0  0  0  0
 16 36  1  0  0  0  0
 16 37  1  0  0  0  0
 17 38  1  0  0  0  0
 18 19  1  0  0  0  0
M  END
> <s_m_source_file>
AV-unprocessed.smi

> <i_m_source_file_index>
781

> <i_lp_mmshare_version>
43012

> <i_f3d_flags>
0

> <s_epik_input>
W0NIM11jMVtjSF1jKG5vMSlbTkhdQyg9TylbTkhdW0NASF0oW0NAQEhdMjMpW0NASF0oW0NIMl1bT0hdKVtDQEBIXShbQ0gyXTMpW0NIMl1bQ0gyXTI=

> <s_epik_cmdline>
J2VwaWtfcHl0aG9uJywgJy1waCcsICc3LjAnLCAnLXRuJywgJzgnLCAnLW1hJywgJzIwMCcsICctbWV0YWxfYmluZGluZycsICctaW1hZScsICc8aW5maWxlLm1hZT4nLCAnLW9tYWUnLCAnPG91dGZpbGUubWFlPic=

> <r_lp_tautomer_probability>
1

> <r_epik_Ionization_Penalty>
2.32222e-05

> <r_epik_Ionization_Penalty_Charging>
0

> <r_epik_Ionization_Penalty_Neutral>
2.32222e-05

> <r_epik_State_Penalty>
-0

> <r_epik_Charging_Adjusted_Penalty>
0

> <i_epik_Tot_Q>
0

> <i_epik_Tot_abs_Q>
0

> <r_epik_Metal_State_Penalty>
-0

> <b_epik_Metal_Only>
0

> <s_lp_Force_Field>
OPLS_2005

> <r_lp_Energy>
47.0207

> <b_lp_Chiralities_Consistent>
1

> <s_lp_Variant>
AV-unprocessed.smi:781-8

> <Gold.Version>
5.8.1

> <Gold.Id.Protein>
6NUR|6NUR_protein|mol2

> <Gold.PLP.Fitness>
40.7807

> <Gold.PLP.PLP>
-34.0554

> <Gold.PLP.part.hbond>
-3.0000

> <Gold.PLP.part.metal>
0.0000

> <Gold.PLP.part.buried>
-3.7494

> <Gold.PLP.part.nonpolar>
-27.3079

> <Gold.PLP.part.repulsive>
0.1806

> <Gold.PLP.ligand.clash>
0.0000

> <Gold.PLP.ligand.torsion>
0.6980

> <Gold.PLP.Chemscore.Hbond>
2.7000

> <Gold.PLP.Chemscore.CHOScore>
0.0000

> <Gold.PLP.Chemscore.Metal>
0.0000

> <Gold.Chemscore.Hbonds>
donor molecule, donor type, donor heavy atom, donor atom, acceptor molecule, acceptor atom, score
      L1  H     5    24       P1  7948  0.70
      L1  H     8    25       P1  7948  1.00
      L1  H    17    38       P1 10957  1.00

> <Gold.PLP.Chemscore.Internal.Correction>
0.0213

> <Gold.Rescore>
     Score         DG    S(hbond)    S(metal)    S(lipo)     H(rot)  DE(clash)    DE(int)     intcor
     14.63     -18.33       2.61        0.00      76.02       1.86       0.26       3.44       ----

> <Gold.Chemscore.Fitness>
14.6293

> <Gold.Chemscore.DG>
-18.3261

> <Gold.Chemscore.ZeroCoef>
-5.4800

> <Gold.Chemscore.Hbond>
2.6079

> <Gold.Chemscore.Metal>
0.0000

> <Gold.Chemscore.Lipo>
76.0179

> <Gold.Chemscore.Internal_Hbond>
0.0000

> <Gold.Chemscore.DEClash>
0.2566

> <Gold.Chemscore.DEInternal>
3.4402

> <Gold.Chemscore.Rot>
1.8587

> <Gold.Chemscore.Internal.Correction>
   9.000000E+99

> <Gold.Chemscore.Hbonds>
donor molecule, donor type, donor heavy atom, donor atom, acceptor molecule, acceptor atom, score
      L1  H     5    24       P1  7948  0.07
      L1  H     8    25       P1  7948  0.59
      L1  H    17    38       P1 10957  0.92

> <Gold.Chemscore.Hbond.Weighted>
-8.7103

> <Gold.Chemscore.Metal.Weighted>
-0.0000

> <Gold.Chemscore.Lipo.Weighted>
-8.8941

> <Gold.Chemscore.Internal_Hbond.Weighted>
0.0000

> <Gold.Chemscore.DEClash.Weighted>
0.2566

> <Gold.Chemscore.DEInternal.Weighted>
3.4402

> <Gold.Chemscore.Rot.Weighted>
4.7583

> <Gold.Chemscore.Internal.Correction.Weighted>
   9.000000E+99

> <Gold.Protein.RotatedTorsions>
[ 6907 6896 6895 6894 ] final  178.80 input  -60.11 | X-H torsion
[ 7974 7965 7964 7962 ] final  -73.50 input  175.53 | X-H torsion
[ 8008 7997 7996 7995 ] final  -51.78 input   59.86 | X-H torsion
[ 10167 10162 10161 10158 ] final  -74.32 input  -65.29 | X-H torsion
[ 10718 10713 10712 10709 ] final  126.04 input   66.30 | X-H torsion
[ 10763 10752 10751 10750 ] final   36.75 input  -60.55 | X-H torsion
[ 11005 11000 10999 10996 ] final -178.00 input  -57.11 | X-H torsion

> <Gold.Protein.ActiveResidues>
 VAL166  LYS551  ARG553  GLY616  TRP617  ASP618  TYR619  PRO620  LYS621  CYS622 
 ASP623  PHE694  ASN695  SER759  ASP760  ASP761  ALA762  ILE779  LEU786  VAL792 
 PHE793  MET794  SER795  GLU796  ALA797  LYS798  CYS799  TRP800  GLU811  SER814 

> <Gold.Protein.RotatedAtoms>
  151.6820  133.3312  159.3221 H   0  0  0  0  0  0  0  0  0  0  0  0  # atno 6907 bound_to 6896
  150.7818  134.6773  159.6434 H   0  0  0  0  0  0  0  0  0  0  0  0  # atno 6908 bound_to 6896
  152.3878  134.6493  160.0171 H   0  0  0  0  0  0  0  0  0  0  0  0  # atno 6909 bound_to 6896
  145.6513  140.9281  143.0983 H   0  0  0  0  0  0  0  0  0  0  0  0  # atno 7974 bound_to 7965
  154.4091  140.1240  156.4884 H   0  0  0  0  0  0  0  0  0  0  0  0  # atno 8008 bound_to 7997
  155.7015  140.3494  155.4915 H   0  0  0  0  0  0  0  0  0  0  0  0  # atno 8009 bound_to 7997
  155.9381  140.1082  157.1068 H   0  0  0  0  0  0  0  0  0  0  0  0  # atno 8010 bound_to 7997
  140.5037  143.2356  151.7710 H   0  0  0  0  0  0  0  0  0  0  0  0  # atno 10167 bound_to 10162
  157.5453  131.1096  150.8793 H   0  0  0  0  0  0  0  0  0  0  0  0  # atno 10718 bound_to 10713
  153.0064  135.6297  154.2036 H   0  0  0  0  0  0  0  0  0  0  0  0  # atno 10763 bound_to 10752
  154.1779  135.2815  155.3063 H   0  0  0  0  0  0  0  0  0  0  0  0  # atno 10764 bound_to 10752
  154.5858  135.5633  153.7289 H   0  0  0  0  0  0  0  0  0  0  0  0  # atno 10765 bound_to 10752
  140.4347  134.6487  157.4729 H   0  0  0  0  0  0  0  0  0  0  0  0  # atno 11005 bound_to 11000
  144.7121  139.8330  143.7411 LP  0  0  0  0  0  0  0  0  0  0  0  0  # atno 17320 bound_to 7965
  146.1201  139.4218  143.0233 LP  0  0  0  0  0  0  0  0  0  0  0  0  # atno 17321 bound_to 7965
  139.4878  144.4487  151.9680 LP  0  0  0  0  0  0  0  0  0  0  0  0  # atno 17342 bound_to 10162
  140.3577  144.3012  150.5938 LP  0  0  0  0  0  0  0  0  0  0  0  0  # atno 17343 bound_to 10162
  156.9333  130.5358  149.5279 LP  0  0  0  0  0  0  0  0  0  0  0  0  # atno 17370 bound_to 10713
  156.0530  130.5596  150.9031 LP  0  0  0  0  0  0  0  0  0  0  0  0  # atno 17371 bound_to 10713
  140.0110  134.6690  155.9380 LP  0  0  0  0  0  0  0  0  0  0  0  0  # atno 17394 bound_to 11000
  141.1731  133.6538  156.4725 LP  0  0  0  0  0  0  0  0  0  0  0  0  # atno 17395 bound_to 11000

$$$$
