#       Name:                AV-unprocessed.smi:2998
#       Creating user name   scv26
#       Creation time:       Fri Mar 27 16:34:01 2020


#       File generated by GOLD software.
#

@<TRIPOS>MOLECULE
AV-unprocessed.smi:2998
    46    48     1
SMALL
NO_CHARGES


@<TRIPOS>ATOM
      1 ****        -1.1878  -1.0666   0.4235 O.2            1 S1                 0.0000
      2 ****        -0.5599  -1.5341  -0.5276 C.2            1 S1                 0.0000
      3 ****         0.9675  -1.3933  -0.6089 C.3            1 S1                 0.0000
      4 ****         1.4925  -0.2499   0.1603 N.am           1 S1                 0.0000
      5 ****         2.0468  -0.5382   1.4230 C.2            1 S1                 0.0000
      6 ****         2.5438   0.3894   2.1775 N.2            1 S1                 0.0000
      7 ****         2.5325   1.7202   1.7438 C.2            1 S1                 0.0000
      8 ****         3.1081   2.7747   2.6792 C.3            1 S1                 0.0000
      9 ****         2.9188   2.5292   4.1859 C.3            1 S1                 0.0000
     10 ****         2.6716   4.0347   4.3338 C.3            1 S1                 0.0000
     11 ****         2.2606   4.0450   2.8572 C.3            1 S1                 0.0000
     12 ****         1.9984   2.0489   0.5436 C.2            1 S1                 0.0000
     13 ****         1.4359   1.0222  -0.3335 C.2            1 S1                 0.0000
     14 ****         0.9495   1.2835  -1.4340 O.2            1 S1                 0.0000
     15 ****        -1.1419  -2.2004  -1.5356 N.am           1 S1                 0.0000
     16 ****        -2.5759  -2.4445  -1.6641 C.3            1 S1                 0.0000
     17 ****        -2.8412  -3.5609  -2.6899 C.3            1 S1                 0.0000
     18 ****        -3.3896  -2.8623  -3.9339 C.3            1 S1                 0.0000
     19 ****        -4.1581  -1.6675  -3.3787 C.3            1 S1                 0.0000
     20 ****        -3.3222  -1.1978  -2.1859 C.3            1 S1                 0.0000
     21 ****         1.4113  -2.3354  -0.2818 H              1 S1                 0.0000
     22 ****         1.2620  -1.2928  -1.6554 H              1 S1                 0.0000
     23 ****         2.0241  -1.5887   1.7179 H              1 S1                 0.0000
     24 ****         4.1452   3.0098   2.4331 H              1 S1                 0.0000
     25 ****         2.0323   1.9395   4.4273 H              1 S1                 0.0000
     26 ****         3.8041   2.1582   4.7032 H              1 S1                 0.0000
     27 ****         1.8777   4.3017   5.0318 H              1 S1                 0.0000
     28 ****         3.5865   4.5986   4.5233 H              1 S1                 0.0000
     29 ****         2.6082   4.9097   2.2912 H              1 S1                 0.0000
     30 ****         1.1906   3.8767   2.7218 H              1 S1                 0.0000
     31 ****         1.9859   3.0797   0.2205 H              1 S1                 0.0000
     32 ****        -0.5515  -2.5551  -2.2741 H              1 S1                 0.0000
     33 ****        -2.9783  -2.7506  -0.6966 H              1 S1                 0.0000
     34 ****        -1.9614  -4.1669  -2.9112 H              1 S1                 0.0000
     35 ****        -3.6023  -4.2357  -2.2961 H              1 S1                 0.0000
     36 ****        -2.5638  -2.5119  -4.5544 H              1 S1                 0.0000
     37 ****        -4.0123  -3.5171  -4.5442 H              1 S1                 0.0000
     38 ****        -4.3092  -0.8830  -4.1209 H              1 S1                 0.0000
     39 ****        -5.1404  -1.9931  -3.0339 H              1 S1                 0.0000
     40 ****        -3.9408  -0.7387  -1.4142 H              1 S1                 0.0000
     41 ****        -2.6161  -0.4373  -2.5237 H              1 S1                 0.0000
     42 ****        -0.7033  -0.5880   1.1557 LP             1 S1                 0.0000
     43 ****        -2.1821  -1.1657   0.4634 LP             1 S1                 0.0000
     44 ****         2.9347   0.1556   3.0678 LP             1 S1                 0.0000
     45 ****         0.5766   0.5503  -2.0027 LP             1 S1                 0.0000
     46 ****         0.9273   2.2289  -1.7591 LP             1 S1                 0.0000
@<TRIPOS>BOND
    1    1    2 2     
    2    2    3 1     
    3    2   15 am    
    4    3    4 1     
    5    3   21 1     
    6    3   22 1     
    7    4   13 am    
    8    4    5 1     
    9    5    6 2     
   10    5   23 1     
   11    6    7 1     
   12    7    8 1     
   13    7   12 2     
   14    8   11 1     
   15    8    9 1     
   16    8   24 1     
   17    9   10 1     
   18    9   25 1     
   19    9   26 1     
   20   10   11 1     
   21   10   27 1     
   22   10   28 1     
   23   11   29 1     
   24   11   30 1     
   25   12   13 1     
   26   12   31 1     
   27   13   14 2     
   28   15   16 1     
   29   15   32 1     
   30   16   20 1     
   31   16   17 1     
   32   16   33 1     
   33   17   18 1     
   34   17   34 1     
   35   17   35 1     
   36   18   19 1     
   37   18   36 1     
   38   18   37 1     
   39   19   20 1     
   40   19   38 1     
   41   19   39 1     
   42   20   40 1     
   43   20   41 1     
   44    1   42 1     
   45    1   43 1     
   46    6   44 1     
   47   14   45 1     
   48   14   46 1     
@<TRIPOS>SUBSTRUCTURE
      1 S1             1
@<TRIPOS>SET
LONE_PAIRS      STATIC     ATOMS    <user>   **** ""
5 42 43 44 45 46
DONOR_HYDROGENS      STATIC     ATOMS    <user>   **** ""
1 32
ATOM$BLUE        STATIC     ATOMS    COLORGROUP SYSTEM
5 42 43 44 45 46
ATOM$RED        STATIC     ATOMS    COLORGROUP SYSTEM
1 32
