#       Name:                AV-unprocessed.smi:735
#       Creating user name   scv26
#       Creation time:       Fri Mar 27 00:52:48 2020


#       File generated by GOLD software.
#

@<TRIPOS>MOLECULE
AV-unprocessed.smi:735
    25    25     1
SMALL
NO_CHARGES


@<TRIPOS>ATOM
      1 ****        -2.4976   1.4665  -2.4745 O.co2          1 S1                 0.0000
      2 ****        -1.9063   0.7078  -1.6734 C.2            1 S1                 0.0000
      3 ****        -2.3920  -0.3474  -1.2054 O.co2          1 S1                -1.0000
      4 ****        -0.4584   1.0773  -1.3030 C.3            1 S1                 0.0000
      5 ****         0.2878   0.8072  -2.3772 F              1 S1                 0.0000
      6 ****        -0.3868   2.3976  -1.1125 F              1 S1                 0.0000
      7 ****         0.0783   0.2961  -0.0943 C.2            1 S1                 0.0000
      8 ****         0.6915  -0.9009  -0.2416 C.2            1 S1                 0.0000
      9 ****         1.2242  -1.5973   0.8443 N.am           1 S1                 0.0000
     10 ****         1.1750  -1.1006   2.0976 C.2            1 S1                 0.0000
     11 ****         1.6791  -1.7721   2.9953 O.2            1 S1                 0.0000
     12 ****         0.5717   0.1109   2.2898 N.pl3          1 S1                -1.0000
     13 ****         0.0076   0.8386   1.2768 C.2            1 S1                 0.0000
     14 ****        -0.5597   1.9080   1.4971 O.2            1 S1                 0.0000
     15 ****         1.6608  -2.4906   0.6700 H              1 S1                 0.0000
     16 ****         0.8242  -1.4013  -1.1892 H              1 S1                 0.0000
     17 ****        -3.4227   1.2449  -2.7828 LP             1 S1                 0.0000
     18 ****        -2.0448   2.2942  -2.8061 LP             1 S1                 0.0000
     19 ****        -3.3133  -0.6335  -1.4686 LP             1 S1                 0.0000
     20 ****        -1.8584  -0.9039  -0.5685 LP             1 S1                 0.0000
     21 ****         2.1050  -2.6516   2.7829 LP             1 S1                 0.0000
     22 ****         1.6634  -1.4389   3.9380 LP             1 S1                 0.0000
     23 ****         0.5409   0.4843   3.2170 LP             1 S1                 0.0000
     24 ****        -0.9774   2.4168   0.7443 LP             1 S1                 0.0000
     25 ****        -0.6030   2.2684   2.4289 LP             1 S1                 0.0000
@<TRIPOS>BOND
    1    1    2 ar    
    2    2    3 ar    
    3    2    4 1     
    4    4    5 1     
    5    4    6 1     
    6    4    7 1     
    7    7   13 1     
    8    7    8 2     
    9    8    9 1     
   10    8   16 1     
   11    9   15 1     
   12    9   10 am    
   13   10   11 2     
   14   10   12 1     
   15   12   13 1     
   16   13   14 2     
   17    1   17 1     
   18    1   18 1     
   19    3   19 1     
   20    3   20 1     
   21   11   21 1     
   22   11   22 1     
   23   12   23 1     
   24   14   24 1     
   25   14   25 1     
@<TRIPOS>SUBSTRUCTURE
      1 S1             1
@<TRIPOS>SET
LONE_PAIRS      STATIC     ATOMS    <user>   **** ""
9 17 18 19 20 21 22 23 24 25
DONOR_HYDROGENS      STATIC     ATOMS    <user>   **** ""
1 15
ATOM$BLUE        STATIC     ATOMS    COLORGROUP SYSTEM
9 17 18 19 20 21 22 23 24 25
ATOM$RED        STATIC     ATOMS    COLORGROUP SYSTEM
1 15
