AV-unprocessed.smi:2282|AV-procd|sdf|9197|dock6
  -GOLD-   2272012413D 1   1.00000     0.00000
 Structure written by MMmdl.
 32 33  0  0  0  0  0  0  0  0  1 V2000
  151.5464  144.5692  159.0659 C   0  0  0  0  0  0  0  0  0  0  0  0
  152.0425  143.1459  159.2396 C   0  0  0  0  0  0  0  0  0  0  0  0
  152.7889  142.9176  160.3422 N   0  0  0  0  0  0  0  0  0  0  0  0
  153.2624  141.6706  160.5410 C   0  0  0  0  0  0  0  0  0  0  0  0
  153.0132  140.5982  159.6636 C   0  0  0  0  0  0  0  0  0  0  0  0
  152.2176  140.8295  158.5160 C   0  0  0  0  0  0  0  0  0  0  0  0
  151.9230  139.8234  157.5544 N   0  0  0  0  0  0  0  0  0  0  0  0
  152.6585  138.7535  157.2010 C   0  0  0  0  0  0  0  0  0  0  0  0
  153.7543  138.4664  157.6836 O   0  0  0  0  0  0  0  0  0  0  0  0
  152.0423  137.8556  156.1218 C   0  0  2  0  0  0  0  0  0  0  0  0
  151.9117  138.5304  154.7438 C   0  0  0  0  0  0  0  0  0  0  0  0
  150.4206  138.7574  154.5975 C   0  0  0  0  0  0  0  0  0  0  0  0
  149.8485  137.5950  155.4008 C   0  0  2  0  0  0  0  0  0  0  0  0
  148.3972  137.7967  155.8485 C   0  0  0  0  0  0  0  0  0  0  0  0
  150.7132  137.5298  156.5249 O   0  0  0  0  0  0  0  0  0  0  0  0
  151.7330  142.1400  158.2940 C   0  0  0  0  0  0  0  0  0  0  0  0
  150.7748  142.5054  156.8979 Cl  0  0  0  0  0  0  0  0  0  0  0  0
  150.4569  144.5897  159.0358 H   0  0  0  0  0  0  0  0  0  0  0  0
  151.9259  144.9918  158.1354 H   0  0  0  0  0  0  0  0  0  0  0  0
  151.8728  145.2113  159.8850 H   0  0  0  0  0  0  0  0  0  0  0  0
  153.8659  141.5237  161.4244 H   0  0  0  0  0  0  0  0  0  0  0  0
  153.4452  139.6334  159.8792 H   0  0  0  0  0  0  0  0  0  0  0  0
  151.0071  139.8859  157.1338 H   0  0  0  0  0  0  0  0  0  0  0  0
  152.6195  136.9345  156.0235 H   0  0  0  0  0  0  0  0  0  0  0  0
  152.4795  139.4565  154.6436 H   0  0  0  0  0  0  0  0  0  0  0  0
  152.2626  137.8495  153.9673 H   0  0  0  0  0  0  0  0  0  0  0  0
  150.1429  139.7094  155.0522 H   0  0  0  0  0  0  0  0  0  0  0  0
  150.0893  138.7634  153.5588 H   0  0  0  0  0  0  0  0  0  0  0  0
  149.9431  136.6681  154.8325 H   0  0  0  0  0  0  0  0  0  0  0  0
  147.7314  137.8794  154.9895 H   0  0  0  0  0  0  0  0  0  0  0  0
  148.2899  138.7031  156.4452 H   0  0  0  0  0  0  0  0  0  0  0  0
  148.0568  136.9573  156.4549 H   0  0  0  0  0  0  0  0  0  0  0  0
  1  2  1  0  0  0  0
  1 18  1  0  0  0  0
  1 19  1  0  0  0  0
  1 20  1  0  0  0  0
  2 16  1  0  0  0  0
  2  3  2  0  0  0  0
  3  4  1  0  0  0  0
  4  5  2  0  0  0  0
  4 21  1  0  0  0  0
  5  6  1  0  0  0  0
  5 22  1  0  0  0  0
  6  7  1  0  0  0  0
  6 16  2  0  0  0  0
  7  8  1  0  0  0  0
  7 23  1  0  0  0  0
  8  9  2  0  0  0  0
  8 10  1  0  0  0  0
 10 15  1  0  0  0  0
 10 11  1  0  0  0  0
 10 24  1  0  0  0  0
 11 12  1  0  0  0  0
 11 25  1  0  0  0  0
 11 26  1  0  0  0  0
 12 13  1  0  0  0  0
 12 27  1  0  0  0  0
 12 28  1  0  0  0  0
 13 14  1  0  0  0  0
 13 15  1  0  0  0  0
 13 29  1  0  0  0  0
 14 30  1  0  0  0  0
 14 31  1  0  0  0  0
 14 32  1  0  0  0  0
 16 17  1  0  0  0  0
M  END
> <s_m_source_file>
AV-unprocessed.smi

> <i_m_source_file_index>
2282

> <i_lp_mmshare_version>
43012

> <i_f3d_flags>
0

> <s_epik_input>
W0NIM11jMW5bY0hdW2NIXWMoYzFDbClbTkhdQyg9TylbQ0BASF0yW0NIMl1bQ0gyXVtDQEhdKE8yKVtDSDNd

> <s_epik_cmdline>
J2VwaWtfcHl0aG9uJywgJy1waCcsICc3LjAnLCAnLXRuJywgJzgnLCAnLW1hJywgJzIwMCcsICctbWV0YWxfYmluZGluZycsICctaW1hZScsICc8aW5maWxlLm1hZT4nLCAnLW9tYWUnLCAnPG91dGZpbGUubWFlPic=

> <r_epik_Ionization_Penalty>
0.00037231

> <r_epik_Ionization_Penalty_Charging>
0

> <r_epik_Ionization_Penalty_Neutral>
0.00037231

> <r_epik_State_Penalty>
0.000225113

> <r_epik_Charging_Adjusted_Penalty>
0.000225113

> <i_epik_Tot_Q>
0

> <i_epik_Tot_abs_Q>
0

> <r_epik_Metal_State_Penalty>
-0

> <b_epik_Metal_Only>
0

> <s_lp_Force_Field>
OPLS_2005

> <r_lp_Energy>
23.9667

> <b_lp_Chiralities_Consistent>
1

> <s_lp_Variant>
AV-unprocessed.smi:2282-3

> <Gold.Version>
5.8.1

> <Gold.Id.Protein>
6NUR|6NUR_protein|mol2

> <Gold.PLP.Fitness>
33.9853

> <Gold.PLP.PLP>
-32.0545

> <Gold.PLP.part.hbond>
-1.0000

> <Gold.PLP.part.metal>
0.0000

> <Gold.PLP.part.buried>
-3.7375

> <Gold.PLP.part.nonpolar>
-27.1247

> <Gold.PLP.part.repulsive>
0.0875

> <Gold.PLP.ligand.clash>
0.0000

> <Gold.PLP.ligand.torsion>
0.2924

> <Gold.PLP.Chemscore.Hbond>
0.8360

> <Gold.PLP.Chemscore.CHOScore>
0.0000

> <Gold.PLP.Chemscore.Metal>
0.0000

> <Gold.Chemscore.Hbonds>
donor molecule, donor type, donor heavy atom, donor atom, acceptor molecule, acceptor atom, score
      P1  H  7997  8008       L1     9  0.90

> <Gold.PLP.Chemscore.Internal.Correction>
0.0077

> <Gold.Rescore>
     Score         DG    S(hbond)    S(metal)    S(lipo)     H(rot)  DE(clash)    DE(int)     intcor
     14.05     -15.50       0.59        0.00      90.62       1.00       0.01       1.44       ----

> <Gold.Chemscore.Fitness>
14.0513

> <Gold.Chemscore.DG>
-15.5002

> <Gold.Chemscore.ZeroCoef>
-5.4800

> <Gold.Chemscore.Hbond>
0.5919

> <Gold.Chemscore.Metal>
0.0000

> <Gold.Chemscore.Lipo>
90.6246

> <Gold.Chemscore.Internal_Hbond>
0.0000

> <Gold.Chemscore.DEClash>
0.0098

> <Gold.Chemscore.DEInternal>
1.4391

> <Gold.Chemscore.Rot>
1.0000

> <Gold.Chemscore.Internal.Correction>
   9.000000E+99

> <Gold.Chemscore.Hbonds>
donor molecule, donor type, donor heavy atom, donor atom, acceptor molecule, acceptor atom, score
      P1  H  7997  8008       L1     9  0.34

> <Gold.Chemscore.Hbond.Weighted>
-1.9771

> <Gold.Chemscore.Metal.Weighted>
-0.0000

> <Gold.Chemscore.Lipo.Weighted>
-10.6031

> <Gold.Chemscore.Internal_Hbond.Weighted>
0.0000

> <Gold.Chemscore.DEClash.Weighted>
0.0098

> <Gold.Chemscore.DEInternal.Weighted>
1.4391

> <Gold.Chemscore.Rot.Weighted>
2.5600

> <Gold.Chemscore.Internal.Correction.Weighted>
   9.000000E+99

> <Gold.Protein.RotatedTorsions>
[ 6907 6896 6895 6894 ] final   91.68 input  -60.11 | X-H torsion
[ 7974 7965 7964 7962 ] final -141.18 input  175.53 | X-H torsion
[ 8008 7997 7996 7995 ] final -104.88 input   59.86 | X-H torsion
[ 10167 10162 10161 10158 ] final   53.94 input  -65.29 | X-H torsion
[ 10718 10713 10712 10709 ] final -161.83 input   66.30 | X-H torsion
[ 10763 10752 10751 10750 ] final   38.98 input  -60.55 | X-H torsion
[ 11005 11000 10999 10996 ] final   80.09 input  -57.11 | X-H torsion

> <Gold.Protein.ActiveResidues>
 VAL166  LYS551  ARG553  GLY616  TRP617  ASP618  TYR619  PRO620  LYS621  CYS622 
 ASP623  PHE694  ASN695  SER759  ASP760  ASP761  ALA762  ILE779  LEU786  VAL792 
 PHE793  MET794  SER795  GLU796  ALA797  LYS798  CYS799  TRP800  GLU811  SER814 

> <Gold.Protein.RotatedAtoms>
  152.5451  134.1620  159.8561 H   0  0  0  0  0  0  0  0  0  0  0  0  # atno 6907 bound_to 6896
  151.1637  133.4821  159.2601 H   0  0  0  0  0  0  0  0  0  0  0  0  # atno 6908 bound_to 6896
  151.1346  135.0159  159.8653 H   0  0  0  0  0  0  0  0  0  0  0  0  # atno 6909 bound_to 6896
  144.8539  140.6110  143.5372 H   0  0  0  0  0  0  0  0  0  0  0  0  # atno 7974 bound_to 7965
  154.8918  140.0415  157.1843 H   0  0  0  0  0  0  0  0  0  0  0  0  # atno 8008 bound_to 7997
  154.8533  140.2932  155.5563 H   0  0  0  0  0  0  0  0  0  0  0  0  # atno 8009 bound_to 7997
  156.2996  140.2460  156.3495 H   0  0  0  0  0  0  0  0  0  0  0  0  # atno 8010 bound_to 7997
  140.2355  144.3641  150.6399 H   0  0  0  0  0  0  0  0  0  0  0  0  # atno 10167 bound_to 10162
  156.6018  130.8814  151.2915 H   0  0  0  0  0  0  0  0  0  0  0  0  # atno 10718 bound_to 10713
  152.9982  135.6234  154.2392 H   0  0  0  0  0  0  0  0  0  0  0  0  # atno 10763 bound_to 10752
  154.2132  135.2799  155.2952 H   0  0  0  0  0  0  0  0  0  0  0  0  # atno 10764 bound_to 10752
  154.5589  135.5711  153.7048 H   0  0  0  0  0  0  0  0  0  0  0  0  # atno 10765 bound_to 10752
  139.9148  134.7893  156.1863 H   0  0  0  0  0  0  0  0  0  0  0  0  # atno 11005 bound_to 11000
  145.4445  139.1531  143.3952 LP  0  0  0  0  0  0  0  0  0  0  0  0  # atno 17320 bound_to 7965
  146.2807  140.4568  142.8777 LP  0  0  0  0  0  0  0  0  0  0  0  0  # atno 17321 bound_to 7965
  140.6153  143.2172  151.6804 LP  0  0  0  0  0  0  0  0  0  0  0  0  # atno 17342 bound_to 10162
  139.5095  144.3574  152.0595 LP  0  0  0  0  0  0  0  0  0  0  0  0  # atno 17343 bound_to 10162
  157.7277  130.9647  150.1712 LP  0  0  0  0  0  0  0  0  0  0  0  0  # atno 17370 bound_to 10713
  156.2463  130.3696  149.8282 LP  0  0  0  0  0  0  0  0  0  0  0  0  # atno 17371 bound_to 10713
  141.0611  133.6841  156.1954 LP  0  0  0  0  0  0  0  0  0  0  0  0  # atno 17394 bound_to 11000
  140.6659  134.4918  157.5585 LP  0  0  0  0  0  0  0  0  0  0  0  0  # atno 17395 bound_to 11000

$$$$
