#       Name:                AV-unprocessed.smi:648
#       Creating user name   scv26
#       Creation time:       Fri Mar 27 00:10:02 2020


#       File generated by GOLD software.
#

@<TRIPOS>MOLECULE
AV-unprocessed.smi:648
    50    51     1
SMALL
NO_CHARGES


@<TRIPOS>ATOM
      1 ****        -2.5832  -2.2553   1.4991 C.3            1 S1                 0.0000
      2 ****        -2.0950  -1.4136   0.3107 C.3            1 S1                 0.0000
      3 ****        -2.6948   0.0048   0.3553 C.3            1 S1                 0.0000
      4 ****        -2.2574   0.9035  -0.8251 C.3            1 S1                 0.0000
      5 ****        -3.0262   0.5270  -2.1130 C.3            1 S1                 0.0000
      6 ****        -2.6494   2.3613  -0.4972 C.3            1 S1                 0.0000
      7 ****        -0.7077   0.8550  -1.0001 C.3            1 S1                 0.0000
      8 ****         0.0007  -0.5354  -0.9268 C.3            1 S1                 0.0000
      9 ****        -0.1850  -1.3179  -2.2560 C.3            1 S1                 0.0000
     10 ****         0.4281  -2.5930  -2.2162 O.3            1 S1                 0.0000
     11 ****         1.4628  -0.3311  -0.8056 N.3            1 S1                 0.0000
     12 ****         2.0214   0.2369   0.4274 C.3            1 S1                 0.0000
     13 ****         3.5393   0.4177   0.2944 C.3            1 S1                 0.0000
     14 ****         4.1273   0.9277   1.5172 N.pl3          1 S1                 0.0000
     15 ****         4.8544   0.3134   2.4519 C.2            1 S1                 0.0000
     16 ****         5.2303   1.1071   3.4453 N.2            1 S1                 0.0000
     17 ****         4.6613   2.2779   3.0289 C.2            1 S1                 0.0000
     18 ****         3.9900   2.2252   1.8782 N.2            1 S1                 0.0000
     19 ****        -0.5584  -1.3284   0.2886 C.3            1 S1                 0.0000
     20 ****        -2.2779  -1.8162   2.4494 H              1 S1                 0.0000
     21 ****        -2.1797  -3.2672   1.4556 H              1 S1                 0.0000
     22 ****        -3.6706  -2.3353   1.5035 H              1 S1                 0.0000
     23 ****        -2.4359  -1.9200  -0.5912 H              1 S1                 0.0000
     24 ****        -3.7837  -0.0538   0.3895 H              1 S1                 0.0000
     25 ****        -2.3945   0.4732   1.2940 H              1 S1                 0.0000
     26 ****        -2.5905   1.0017  -2.9927 H              1 S1                 0.0000
     27 ****        -4.0660   0.8514  -2.0556 H              1 S1                 0.0000
     28 ****        -3.0708  -0.5430  -2.2939 H              1 S1                 0.0000
     29 ****        -2.3719   3.0379  -1.3063 H              1 S1                 0.0000
     30 ****        -2.1597   2.7193   0.4093 H              1 S1                 0.0000
     31 ****        -3.7240   2.4618  -0.3401 H              1 S1                 0.0000
     32 ****        -0.4239   1.3644  -1.9221 H              1 S1                 0.0000
     33 ****        -0.3032   1.4805  -0.2072 H              1 S1                 0.0000
     34 ****        -1.2267  -1.4945  -2.4940 H              1 S1                 0.0000
     35 ****         0.2313  -0.7578  -3.0944 H              1 S1                 0.0000
     36 ****         0.2879  -3.0188  -3.0482 H              1 S1                 0.0000
     37 ****         1.9395  -1.1998  -1.0272 H              1 S1                 0.0000
     38 ****         1.5697   1.1980   0.6657 H              1 S1                 0.0000
     39 ****         1.8320  -0.4248   1.2719 H              1 S1                 0.0000
     40 ****         4.0165  -0.5334   0.0535 H              1 S1                 0.0000
     41 ****         3.7741   1.1070  -0.5180 H              1 S1                 0.0000
     42 ****         5.1131  -0.7344   2.4052 H              1 S1                 0.0000
     43 ****         4.7454   3.1967   3.5904 H              1 S1                 0.0000
     44 ****        -0.2627  -0.8481   1.2207 H              1 S1                 0.0000
     45 ****        -0.1269  -2.3293   0.3241 H              1 S1                 0.0000
     46 ****         0.0217  -3.1401  -1.4844 LP             1 S1                 0.0000
     47 ****         1.4090  -2.4907  -2.0505 LP             1 S1                 0.0000
     48 ****         1.6292   0.4055  -1.4612 LP             1 S1                 0.0000
     49 ****         5.7723   0.9073   4.2616 LP             1 S1                 0.0000
     50 ****         3.5066   2.9595   1.4016 LP             1 S1                 0.0000
@<TRIPOS>BOND
    1    1    2 1     
    2    1   20 1     
    3    1   21 1     
    4    1   22 1     
    5    2   19 1     
    6    2    3 1     
    7    2   23 1     
    8    3    4 1     
    9    3   24 1     
   10    3   25 1     
   11    4    5 1     
   12    4    6 1     
   13    4    7 1     
   14    5   26 1     
   15    5   27 1     
   16    5   28 1     
   17    6   29 1     
   18    6   30 1     
   19    6   31 1     
   20    7    8 1     
   21    7   32 1     
   22    7   33 1     
   23    8    9 1     
   24    8   11 1     
   25    8   19 1     
   26    9   10 1     
   27    9   34 1     
   28    9   35 1     
   29   10   36 1     
   30   11   12 1     
   31   11   37 1     
   32   12   13 1     
   33   12   38 1     
   34   12   39 1     
   35   13   14 1     
   36   13   40 1     
   37   13   41 1     
   38   14   18 1     
   39   14   15 1     
   40   15   16 2     
   41   15   42 1     
   42   16   17 1     
   43   17   18 2     
   44   17   43 1     
   45   19   44 1     
   46   19   45 1     
   47   10   46 1     
   48   10   47 1     
   49   11   48 1     
   50   16   49 1     
   51   18   50 1     
@<TRIPOS>SUBSTRUCTURE
      1 S1             1
@<TRIPOS>SET
LONE_PAIRS      STATIC     ATOMS    <user>   **** ""
5 46 47 48 49 50
DONOR_HYDROGENS      STATIC     ATOMS    <user>   **** ""
2 36 37
ATOM$BLUE        STATIC     ATOMS    COLORGROUP SYSTEM
5 46 47 48 49 50
ATOM$RED        STATIC     ATOMS    COLORGROUP SYSTEM
2 36 37
