AV-unprocessed.smi:3303|AV-procd|sdf|12660|dock1
  -GOLD-   2272018593D 1   1.00000     0.00000
 Structure written by MMmdl.
 45 46  0  0  0  0  0  0  0  0  3 V2000
  152.4856  138.5349  154.5346 C   0  0  0  0  0  0  0  0  0  0  0  0
  151.0555  138.0187  154.3026 C   0  0  1  0  0  0  0  0  0  0  0  0
  150.8191  136.6426  154.9574 C   0  0  0  0  0  0  0  0  0  0  0  0
  149.4692  136.1185  154.6282 N   0  3  1  0  0  0  0  0  0  0  0  0
  149.2825  134.7089  155.0417 C   0  0  0  0  0  0  0  0  0  0  0  0
  148.3611  137.0290  155.0373 C   0  0  1  0  0  0  0  0  0  0  0  0
  148.1018  137.0443  156.5599 C   0  0  0  0  0  0  0  0  0  0  0  0
  148.5715  138.4396  154.4390 C   0  0  0  0  0  0  0  0  0  0  0  0
  149.9705  139.0399  154.7138 C   0  0  1  0  0  0  0  0  0  0  0  0
  150.1401  139.4839  156.1193 N   0  3  0  0  0  0  0  0  0  0  0  0
  151.0169  140.6569  156.3158 C   0  0  0  0  0  0  0  0  0  0  0  0
  151.4782  140.7562  157.7757 C   0  0  0  0  0  0  0  0  0  0  0  0
  151.8110  142.1815  158.1725 C   0  0  0  0  0  0  0  0  0  0  0  0
  152.5218  142.4539  159.3607 C   0  0  0  0  0  0  0  0  0  0  0  0
  152.8098  143.7962  159.6762 C   0  0  0  0  0  0  0  0  0  0  0  0
  152.3793  144.8073  158.7955 C   0  0  0  0  0  0  0  0  0  0  0  0
  151.6768  144.4306  157.6335 C   0  0  0  0  0  0  0  0  0  0  0  0
  151.3963  143.1465  157.3211 N   0  0  0  0  0  0  0  0  0  0  0  0
  152.7070  138.6562  155.5953 H   0  0  0  0  0  0  0  0  0  0  0  0
  152.6396  139.4987  154.0480 H   0  0  0  0  0  0  0  0  0  0  0  0
  153.2210  137.8416  154.1250 H   0  0  0  0  0  0  0  0  0  0  0  0
  150.9576  137.8740  153.2251 H   0  0  0  0  0  0  0  0  0  0  0  0
  151.5676  135.9387  154.5903 H   0  0  0  0  0  0  0  0  0  0  0  0
  150.9514  136.6969  156.0385 H   0  0  0  0  0  0  0  0  0  0  0  0
  149.3995  134.5879  156.1191 H   0  0  0  0  0  0  0  0  0  0  0  0
  150.0182  134.0703  154.5520 H   0  0  0  0  0  0  0  0  0  0  0  0
  148.2927  134.3494  154.7581 H   0  0  0  0  0  0  0  0  0  0  0  0
  147.4528  136.6353  154.5784 H   0  0  0  0  0  0  0  0  0  0  0  0
  147.3325  137.7743  156.8137 H   0  0  0  0  0  0  0  0  0  0  0  0
  148.9910  137.2921  157.1374 H   0  0  0  0  0  0  0  0  0  0  0  0
  147.7440  136.0772  156.9133 H   0  0  0  0  0  0  0  0  0  0  0  0
  148.4522  138.3626  153.3574 H   0  0  0  0  0  0  0  0  0  0  0  0
  147.7763  139.1121  154.7597 H   0  0  0  0  0  0  0  0  0  0  0  0
  150.0940  139.9236  154.0858 H   0  0  0  0  0  0  0  0  0  0  0  0
  149.2324  139.6826  156.5149 H   0  0  0  0  0  0  0  0  0  0  0  0
  151.8835  140.5755  155.6584 H   0  0  0  0  0  0  0  0  0  0  0  0
  150.4852  141.5672  156.0399 H   0  0  0  0  0  0  0  0  0  0  0  0
  150.6999  140.3789  158.4412 H   0  0  0  0  0  0  0  0  0  0  0  0
  152.3528  140.1243  157.9366 H   0  0  0  0  0  0  0  0  0  0  0  0
  152.8402  141.6571  160.0171 H   0  0  0  0  0  0  0  0  0  0  0  0
  153.3515  144.0450  160.5770 H   0  0  0  0  0  0  0  0  0  0  0  0
  152.5822  145.8473  159.0056 H   0  0  0  0  0  0  0  0  0  0  0  0
  151.3318  145.1793  156.9361 H   0  0  0  0  0  0  0  0  0  0  0  0
  150.5516  138.7178  156.6338 H   0  0  0  0  0  0  0  0  0  0  0  0
  149.4323  136.0996  153.6186 H   0  0  0  0  0  0  0  0  0  0  0  0
  1  2  1  0  0  0  0
  1 19  1  0  0  0  0
  1 20  1  0  0  0  0
  1 21  1  0  0  0  0
  2  9  1  0  0  0  0
  2  3  1  0  0  0  0
  2 22  1  0  0  0  0
  3  4  1  0  0  0  0
  3 23  1  0  0  0  0
  3 24  1  0  0  0  0
  4  5  1  0  0  0  0
  4  6  1  0  0  0  0
  4 45  1  0  0  0  0
  5 25  1  0  0  0  0
  5 26  1  0  0  0  0
  5 27  1  0  0  0  0
  6  7  1  0  0  0  0
  6  8  1  0  0  0  0
  6 28  1  0  0  0  0
  7 29  1  0  0  0  0
  7 30  1  0  0  0  0
  7 31  1  0  0  0  0
  8  9  1  0  0  0  0
  8 32  1  0  0  0  0
  8 33  1  0  0  0  0
  9 10  1  0  0  0  0
  9 34  1  0  0  0  0
 10 11  1  0  0  0  0
 10 35  1  0  0  0  0
 10 44  1  0  0  0  0
 11 12  1  0  0  0  0
 11 36  1  0  0  0  0
 11 37  1  0  0  0  0
 12 13  1  0  0  0  0
 12 38  1  0  0  0  0
 12 39  1  0  0  0  0
 13 18  1  0  0  0  0
 13 14  2  0  0  0  0
 14 15  1  0  0  0  0
 14 40  1  0  0  0  0
 15 16  2  0  0  0  0
 15 41  1  0  0  0  0
 16 17  1  0  0  0  0
 16 42  1  0  0  0  0
 17 18  2  0  0  0  0
 17 43  1  0  0  0  0
M  CHG  1   4   1
M  CHG  1  10   1
M  END
> <s_m_source_file>
AV-unprocessed.smi

> <i_m_source_file_index>
3303

> <i_lp_mmshare_version>
43012

> <i_f3d_flags>
0

> <s_epik_input>
W0NIM11bQ0BASF0xW0NIMl1OKFtDSDNdKVtDQEBIXShbQ0gzXSlbQ0gyXVtDQEhdMVtOSF1bQ0gyXVtDSDJdYzJbY0hdW2NIXVtjSF1bY0hdbjI=

> <s_epik_cmdline>
J2VwaWtfcHl0aG9uJywgJy1waCcsICc3LjAnLCAnLXRuJywgJzgnLCAnLW1hJywgJzIwMCcsICctbWV0YWxfYmluZGluZycsICctaW1hZScsICc8aW5maWxlLm1hZT4nLCAnLW9tYWUnLCAnPG91dGZpbGUubWFlPic=

> <r_epik_Ionization_Penalty>
0.0769462

> <r_epik_Ionization_Penalty_Charging>
0.0759813

> <r_epik_Ionization_Penalty_Neutral>
0.000964829

> <r_epik_State_Penalty>
0.0654373

> <r_epik_Charging_Adjusted_Penalty>
0.141419

> <i_epik_Tot_Q>
2

> <i_epik_Tot_abs_Q>
2

> <r_epik_Metal_State_Penalty>
0.0656439

> <b_epik_Metal_Only>
0

> <s_lp_Force_Field>
OPLS_2005

> <r_lp_Energy>
33.2065

> <b_lp_Chiralities_Consistent>
1

> <s_lp_Variant>
AV-unprocessed.smi:3303-4

> <Gold.Version>
5.8.1

> <Gold.Id.Protein>
6NUR|6NUR_protein|mol2

> <Gold.PLP.Fitness>
44.6092

> <Gold.PLP.PLP>
-37.4678

> <Gold.PLP.part.hbond>
-1.0000

> <Gold.PLP.part.metal>
0.0000

> <Gold.PLP.part.buried>
-4.3049

> <Gold.PLP.part.nonpolar>
-32.7371

> <Gold.PLP.part.repulsive>
0.1908

> <Gold.PLP.ligand.clash>
0.0000

> <Gold.PLP.ligand.torsion>
0.7756

> <Gold.PLP.Chemscore.Hbond>
2.0000

> <Gold.PLP.Chemscore.CHOScore>
0.8932

> <Gold.PLP.Chemscore.Metal>
0.0000

> <Gold.Chemscore.Hbonds>
donor molecule, donor type, donor heavy atom, donor atom, acceptor molecule, acceptor atom, score
      L1  H     4    45       P1  7948  2.00
      L1  C    17    43       P1  8028  0.36

> <Gold.PLP.Chemscore.Internal.Correction>
0.0129

> <Gold.Rescore>
     Score         DG    S(hbond)    S(metal)    S(lipo)     H(rot)  DE(clash)    DE(int)     intcor
     17.34     -18.26       0.96        0.00     111.99       1.37       0.26       0.66       ----

> <Gold.Chemscore.Fitness>
17.3445

> <Gold.Chemscore.DG>
-18.2624

> <Gold.Chemscore.ZeroCoef>
-5.4800

> <Gold.Chemscore.Hbond>
0.9576

> <Gold.Chemscore.Metal>
0.0000

> <Gold.Chemscore.Lipo>
111.9862

> <Gold.Chemscore.Internal_Hbond>
0.0000

> <Gold.Chemscore.DEClash>
0.2613

> <Gold.Chemscore.DEInternal>
0.6567

> <Gold.Chemscore.Rot>
1.3744

> <Gold.Chemscore.Internal.Correction>
   9.000000E+99

> <Gold.Chemscore.Hbonds>
donor molecule, donor type, donor heavy atom, donor atom, acceptor molecule, acceptor atom, score
      L1  H     4    45       P1  7948  0.60

> <Gold.Chemscore.Hbond.Weighted>
-3.1985

> <Gold.Chemscore.Metal.Weighted>
-0.0000

> <Gold.Chemscore.Lipo.Weighted>
-13.1024

> <Gold.Chemscore.Internal_Hbond.Weighted>
0.0000

> <Gold.Chemscore.DEClash.Weighted>
0.2613

> <Gold.Chemscore.DEInternal.Weighted>
0.6567

> <Gold.Chemscore.Rot.Weighted>
3.5185

> <Gold.Chemscore.Internal.Correction.Weighted>
   9.000000E+99

> <Gold.Protein.RotatedTorsions>
[ 6907 6896 6895 6894 ] final   34.71 input  -60.11 | X-H torsion
[ 7974 7965 7964 7962 ] final  -58.51 input  175.53 | X-H torsion
[ 8008 7997 7996 7995 ] final  120.63 input   59.86 | X-H torsion
[ 10167 10162 10161 10158 ] final -159.41 input  -65.29 | X-H torsion
[ 10718 10713 10712 10709 ] final  117.03 input   66.30 | X-H torsion
[ 10763 10752 10751 10750 ] final   85.34 input  -60.55 | X-H torsion
[ 11005 11000 10999 10996 ] final  122.71 input  -57.11 | X-H torsion

> <Gold.Protein.ActiveResidues>
 VAL166  LYS551  ARG553  GLY616  TRP617  ASP618  TYR619  PRO620  LYS621  CYS622 
 ASP623  PHE694  ASN695  SER759  ASP760  ASP761  ALA762  ILE779  LEU786  VAL792 
 PHE793  MET794  SER795  GLU796  ALA797  LYS798  CYS799  TRP800  GLU811  SER814 

> <Gold.Protein.RotatedAtoms>
  152.1061  134.9307  160.0567 H   0  0  0  0  0  0  0  0  0  0  0  0  # atno 6907 bound_to 6896
  152.0503  133.4011  159.4382 H   0  0  0  0  0  0  0  0  0  0  0  0  # atno 6908 bound_to 6896
  150.6841  134.3236  159.4841 H   0  0  0  0  0  0  0  0  0  0  0  0  # atno 6909 bound_to 6896
  145.8384  140.8433  143.0047 H   0  0  0  0  0  0  0  0  0  0  0  0  # atno 7974 bound_to 7965
  156.2651  140.2826  156.1180 H   0  0  0  0  0  0  0  0  0  0  0  0  # atno 8008 bound_to 7997
  155.1186  140.0392  157.2761 H   0  0  0  0  0  0  0  0  0  0  0  0  # atno 8009 bound_to 7997
  154.6688  140.2583  155.7036 H   0  0  0  0  0  0  0  0  0  0  0  0  # atno 8010 bound_to 7997
  139.6617  143.9901  152.2229 H   0  0  0  0  0  0  0  0  0  0  0  0  # atno 10167 bound_to 10162
  157.6123  131.1032  150.7557 H   0  0  0  0  0  0  0  0  0  0  0  0  # atno 10718 bound_to 10713
  153.1466  135.4621  154.9575 H   0  0  0  0  0  0  0  0  0  0  0  0  # atno 10763 bound_to 10752
  154.7791  135.3182  154.8031 H   0  0  0  0  0  0  0  0  0  0  0  0  # atno 10764 bound_to 10752
  153.8544  135.6918  153.4843 H   0  0  0  0  0  0  0  0  0  0  0  0  # atno 10765 bound_to 10752
  139.9280  134.9641  156.8150 H   0  0  0  0  0  0  0  0  0  0  0  0  # atno 11005 bound_to 11000
  144.6735  140.0776  143.7470 LP  0  0  0  0  0  0  0  0  0  0  0  0  # atno 17320 bound_to 7965
  145.9493  139.2722  143.1222 LP  0  0  0  0  0  0  0  0  0  0  0  0  # atno 17321 bound_to 7965
  139.9642  144.6537  150.8051 LP  0  0  0  0  0  0  0  0  0  0  0  0  # atno 17342 bound_to 10162
  140.7583  143.3103  151.2860 LP  0  0  0  0  0  0  0  0  0  0  0  0  # atno 17343 bound_to 10162
  156.7932  130.4897  149.5381 LP  0  0  0  0  0  0  0  0  0  0  0  0  # atno 17370 bound_to 10713
  156.1230  130.6124  151.0222 LP  0  0  0  0  0  0  0  0  0  0  0  0  # atno 17371 bound_to 10713
  140.6281  133.9931  155.7649 LP  0  0  0  0  0  0  0  0  0  0  0  0  # atno 17394 bound_to 11000
  141.0851  134.0003  157.3326 LP  0  0  0  0  0  0  0  0  0  0  0  0  # atno 17395 bound_to 11000

$$$$
