AV-unprocessed.smi:1512|AV-procd|sdf|6101|dock3
  -GOLD-   22720 6233D 1   1.00000     0.00000
 Structure written by MMmdl.
 44 46  0  0  0  0  0  0  0  0  3 V2000
  151.8769  140.3665  155.5680 C   0  0  0  0  0  0  0  0  0  0  0  0
  150.8450  140.9261  156.5616 C   0  0  1  0  0  0  0  0  0  0  0  0
  151.4902  141.9694  157.3569 N   0  0  0  0  0  0  0  0  0  0  0  0
  150.9522  142.6061  158.4084 C   0  0  0  0  0  0  0  0  0  0  0  0
  149.8462  142.3347  158.8771 O   0  0  0  0  0  0  0  0  0  0  0  0
  151.8043  143.7214  159.0281 C   0  0  0  0  0  0  0  0  0  0  0  0
  152.5091  143.2829  160.2447 N   0  0  0  0  0  0  0  0  0  0  0  0
  152.2578  144.0069  161.4250 C   0  0  0  0  0  0  0  0  0  0  0  0
  152.8549  143.6997  162.5854 C   0  0  0  0  0  0  0  0  0  0  0  0
  153.7765  142.5902  162.6062 C   0  0  0  0  0  0  0  0  0  0  0  0
  154.0343  141.8790  161.4844 C   0  0  0  0  0  0  0  0  0  0  0  0
  154.9657  140.7779  161.5760 N   0  3  0  0  0  0  0  0  0  0  0  0
  154.9346  139.9017  160.7174 O   0  0  0  0  0  0  0  0  0  0  0  0
  155.7489  140.7504  162.5208 O   0  5  0  0  0  0  0  0  0  0  0  0
  153.3795  142.2257  160.2058 C   0  0  0  0  0  0  0  0  0  0  0  0
  153.5985  141.6179  159.1558 O   0  0  0  0  0  0  0  0  0  0  0  0
  149.5905  141.5113  155.8660 C   0  0  2  0  0  0  0  0  0  0  0  0
  148.3160  141.4935  156.7498 C   0  0  0  0  0  0  0  0  0  0  0  0
  147.2785  140.7827  155.8643 C   0  0  1  0  0  0  0  0  0  0  0  0
  146.9057  141.6866  154.6753 C   0  0  0  0  0  0  0  0  0  0  0  0
  148.1678  141.6246  153.7953 C   0  0  0  0  0  0  0  0  0  0  0  0
  149.1125  140.7268  154.6176 C   0  0  2  0  0  0  0  0  0  0  0  0
  148.1322  139.7125  155.1989 C   0  0  0  0  0  0  0  0  0  0  0  0
  151.4784  139.5286  154.9973 H   0  0  0  0  0  0  0  0  0  0  0  0
  152.7629  140.0031  156.0898 H   0  0  0  0  0  0  0  0  0  0  0  0
  152.1998  141.1295  154.8588 H   0  0  0  0  0  0  0  0  0  0  0  0
  150.5280  140.1072  157.2092 H   0  0  0  0  0  0  0  0  0  0  0  0
  152.4082  142.2608  157.0539 H   0  0  0  0  0  0  0  0  0  0  0  0
  152.5091  144.0681  158.2712 H   0  0  0  0  0  0  0  0  0  0  0  0
  151.1794  144.5878  159.2545 H   0  0  0  0  0  0  0  0  0  0  0  0
  151.5617  144.8271  161.3250 H   0  0  0  0  0  0  0  0  0  0  0  0
  152.6538  144.2700  163.4803 H   0  0  0  0  0  0  0  0  0  0  0  0
  154.2547  142.3298  163.5394 H   0  0  0  0  0  0  0  0  0  0  0  0
  149.8164  142.5407  155.5826 H   0  0  0  0  0  0  0  0  0  0  0  0
  148.4669  140.9188  157.6645 H   0  0  0  0  0  0  0  0  0  0  0  0
  147.9985  142.4951  157.0415 H   0  0  0  0  0  0  0  0  0  0  0  0
  146.4165  140.4081  156.4171 H   0  0  0  0  0  0  0  0  0  0  0  0
  146.0434  141.2894  154.1379 H   0  0  0  0  0  0  0  0  0  0  0  0
  146.6669  142.7031  154.9897 H   0  0  0  0  0  0  0  0  0  0  0  0
  147.9395  141.1648  152.8328 H   0  0  0  0  0  0  0  0  0  0  0  0
  148.5907  142.6106  153.5997 H   0  0  0  0  0  0  0  0  0  0  0  0
  149.9102  140.2935  154.0160 H   0  0  0  0  0  0  0  0  0  0  0  0
  148.5880  139.0189  155.9075 H   0  0  0  0  0  0  0  0  0  0  0  0
  147.5952  139.1432  154.4378 H   0  0  0  0  0  0  0  0  0  0  0  0
  1  2  1  0  0  0  0
  1 24  1  0  0  0  0
  1 25  1  0  0  0  0
  1 26  1  0  0  0  0
  2  3  1  0  0  0  0
  2 17  1  0  0  0  0
  2 27  1  0  0  0  0
  3  4  1  0  0  0  0
  3 28  1  0  0  0  0
  4  5  2  0  0  0  0
  4  6  1  0  0  0  0
  6  7  1  0  0  0  0
  6 29  1  0  0  0  0
  6 30  1  0  0  0  0
  7 15  1  0  0  0  0
  7  8  1  0  0  0  0
  8  9  2  0  0  0  0
  8 31  1  0  0  0  0
  9 10  1  0  0  0  0
  9 32  1  0  0  0  0
 10 11  2  0  0  0  0
 10 33  1  0  0  0  0
 11 12  1  0  0  0  0
 11 15  1  0  0  0  0
 12 13  2  0  0  0  0
 12 14  1  0  0  0  0
 15 16  2  0  0  0  0
 17 22  1  0  0  0  0
 17 18  1  0  0  0  0
 17 34  1  0  0  0  0
 18 19  1  0  0  0  0
 18 35  1  0  0  0  0
 18 36  1  0  0  0  0
 19 23  1  0  0  0  0
 19 20  1  0  0  0  0
 19 37  1  0  0  0  0
 20 21  1  0  0  0  0
 20 38  1  0  0  0  0
 20 39  1  0  0  0  0
 21 22  1  0  0  0  0
 21 40  1  0  0  0  0
 21 41  1  0  0  0  0
 22 23  1  0  0  0  0
 22 42  1  0  0  0  0
 23 43  1  0  0  0  0
 23 44  1  0  0  0  0
M  CHG  1  12   1
M  CHG  1  14  -1
M  END
> <s_m_source_file>
AV-unprocessed.smi

> <i_m_source_file_index>
1512

> <i_lp_mmshare_version>
43012

> <i_f3d_flags>
0

> <s_epik_input>
W0NIMl0xW0NIMl1bQ0BIXShbQ0gyXTIpW0NAQEhdKFtDSDJdW0NAQEhdMTIpW0NASF0oW0NIM10pW05IXUMoPU8pW0NIMl1uM1tjSF1bY0hdW2NIXWMoW04rXSg9TylbTy1dKWMzPU8=

> <s_epik_cmdline>
J2VwaWtfcHl0aG9uJywgJy1waCcsICc3LjAnLCAnLXRuJywgJzgnLCAnLW1hJywgJzIwMCcsICctbWV0YWxfYmluZGluZycsICctaW1hZScsICc8aW5maWxlLm1hZT4nLCAnLW9tYWUnLCAnPG91dGZpbGUubWFlPic=

> <r_lp_tautomer_probability>
1

> <r_epik_Ionization_Penalty>
2.17697e-08

> <r_epik_Ionization_Penalty_Charging>
1.42735e-10

> <r_epik_Ionization_Penalty_Neutral>
2.16269e-08

> <r_epik_State_Penalty>
-0

> <r_epik_Charging_Adjusted_Penalty>
1.42735e-10

> <i_epik_Tot_Q>
0

> <i_epik_Tot_abs_Q>
2

> <r_epik_Metal_State_Penalty>
-0

> <b_epik_Metal_Only>
0

> <s_lp_Force_Field>
OPLS_2005

> <r_lp_Energy>
64.6124

> <b_lp_Chiralities_Consistent>
1

> <s_lp_Variant>
AV-unprocessed.smi:1512-2

> <Gold.Version>
5.8.1

> <Gold.Id.Protein>
6NUR|6NUR_protein|mol2

> <Gold.PLP.Fitness>
47.8534

> <Gold.PLP.PLP>
-49.7936

> <Gold.PLP.part.hbond>
-1.9633

> <Gold.PLP.part.metal>
0.0000

> <Gold.PLP.part.buried>
-3.5122

> <Gold.PLP.part.nonpolar>
-43.0605

> <Gold.PLP.part.repulsive>
0.1510

> <Gold.PLP.ligand.clash>
0.0000

> <Gold.PLP.ligand.torsion>
0.9983

> <Gold.PLP.Chemscore.Hbond>
0.0000

> <Gold.PLP.Chemscore.CHOScore>
0.0000

> <Gold.PLP.Chemscore.Metal>
0.0000

> <Gold.PLP.Chemscore.Internal.Correction>
0.0565

> <Gold.Rescore>
     Score         DG    S(hbond)    S(metal)    S(lipo)     H(rot)  DE(clash)    DE(int)     intcor
      7.08     -13.53       0.00        0.00     107.00       1.75       0.15       6.29       ----

> <Gold.Chemscore.Fitness>
7.0847

> <Gold.Chemscore.DG>
-13.5253

> <Gold.Chemscore.ZeroCoef>
-5.4800

> <Gold.Chemscore.Hbond>
0.0000

> <Gold.Chemscore.Metal>
0.0000

> <Gold.Chemscore.Lipo>
106.9972

> <Gold.Chemscore.Internal_Hbond>
0.0000

> <Gold.Chemscore.DEClash>
0.1467

> <Gold.Chemscore.DEInternal>
6.2939

> <Gold.Chemscore.Rot>
1.7474

> <Gold.Chemscore.Internal.Correction>
   9.000000E+99

> <Gold.Chemscore.Hbond.Weighted>
-0.0000

> <Gold.Chemscore.Metal.Weighted>
-0.0000

> <Gold.Chemscore.Lipo.Weighted>
-12.5187

> <Gold.Chemscore.Internal_Hbond.Weighted>
0.0000

> <Gold.Chemscore.DEClash.Weighted>
0.1467

> <Gold.Chemscore.DEInternal.Weighted>
6.2939

> <Gold.Chemscore.Rot.Weighted>
4.4733

> <Gold.Chemscore.Internal.Correction.Weighted>
   9.000000E+99

> <Gold.Protein.RotatedTorsions>
[ 6907 6896 6895 6894 ] final  -91.53 input  -60.11 | X-H torsion
[ 7974 7965 7964 7962 ] final   39.13 input  175.53 | X-H torsion
[ 8008 7997 7996 7995 ] final  -18.38 input   59.86 | X-H torsion
[ 10167 10162 10161 10158 ] final   14.18 input  -65.29 | X-H torsion
[ 10718 10713 10712 10709 ] final  -97.27 input   66.30 | X-H torsion
[ 10763 10752 10751 10750 ] final -169.30 input  -60.55 | X-H torsion
[ 11005 11000 10999 10996 ] final   82.78 input  -57.11 | X-H torsion

> <Gold.Protein.ActiveResidues>
 VAL166  LYS551  ARG553  GLY616  TRP617  ASP618  TYR619  PRO620  LYS621  CYS622 
 ASP623  PHE694  ASN695  SER759  ASP760  ASP761  ALA762  ILE779  LEU786  VAL792 
 PHE793  MET794  SER795  GLU796  ALA797  LYS798  CYS799  TRP800  GLU811  SER814 

> <Gold.Protein.RotatedAtoms>
  150.6894  134.2263  159.4416 H   0  0  0  0  0  0  0  0  0  0  0  0  # atno 6907 bound_to 6896
  152.0216  134.9817  160.0580 H   0  0  0  0  0  0  0  0  0  0  0  0  # atno 6908 bound_to 6896
  152.1391  133.4418  159.4795 H   0  0  0  0  0  0  0  0  0  0  0  0  # atno 6909 bound_to 6896
  146.1008  139.5689  142.9415 H   0  0  0  0  0  0  0  0  0  0  0  0  # atno 7974 bound_to 7965
  154.4910  140.2117  155.9548 H   0  0  0  0  0  0  0  0  0  0  0  0  # atno 8008 bound_to 7997
  156.1306  140.3197  155.8311 H   0  0  0  0  0  0  0  0  0  0  0  0  # atno 8009 bound_to 7997
  155.4304  140.0503  157.3009 H   0  0  0  0  0  0  0  0  0  0  0  0  # atno 8010 bound_to 7997
  140.5953  143.8714  150.6912 H   0  0  0  0  0  0  0  0  0  0  0  0  # atno 10167 bound_to 10162
  156.0080  130.5187  150.6349 H   0  0  0  0  0  0  0  0  0  0  0  0  # atno 10718 bound_to 10713
  154.6538  135.2915  154.9953 H   0  0  0  0  0  0  0  0  0  0  0  0  # atno 10763 bound_to 10752
  154.1037  135.6573  153.4876 H   0  0  0  0  0  0  0  0  0  0  0  0  # atno 10764 bound_to 10752
  153.0391  135.5248  154.7458 H   0  0  0  0  0  0  0  0  0  0  0  0  # atno 10765 bound_to 10752
  139.9052  134.8097  156.2221 H   0  0  0  0  0  0  0  0  0  0  0  0  # atno 11005 bound_to 11000
  145.5858  141.0376  143.2097 LP  0  0  0  0  0  0  0  0  0  0  0  0  # atno 17320 bound_to 7965
  144.7431  139.7393  143.7303 LP  0  0  0  0  0  0  0  0  0  0  0  0  # atno 17321 bound_to 7965
  140.2247  143.3782  152.1615 LP  0  0  0  0  0  0  0  0  0  0  0  0  # atno 17342 bound_to 10162
  139.5254  144.7095  151.5249 LP  0  0  0  0  0  0  0  0  0  0  0  0  # atno 17343 bound_to 10162
  157.4140  131.0827  151.1194 LP  0  0  0  0  0  0  0  0  0  0  0  0  # atno 17370 bound_to 10713
  157.1816  130.6312  149.5674 LP  0  0  0  0  0  0  0  0  0  0  0  0  # atno 17371 bound_to 10713
  141.0399  133.6943  156.1579 LP  0  0  0  0  0  0  0  0  0  0  0  0  # atno 17394 bound_to 11000
  140.6971  134.4604  157.5587 LP  0  0  0  0  0  0  0  0  0  0  0  0  # atno 17395 bound_to 11000

$$$$
