AV-unprocessed.smi:72|AV-procd|sdf|674|dock4
  -GOLD-   2262016583D 1   1.00000     0.00000
 Structure written by MMmdl.
 29 30  0  0  0  0  0  0  0  0  1 V2000
  151.3507  136.9636  160.0211 N   0  0  0  0  0  0  0  0  0  0  0  0
  151.1980  137.8340  159.0880 C   0  0  0  0  0  0  0  0  0  0  0  0
  150.1213  138.7256  158.9791 N   0  0  0  0  0  0  0  0  0  0  0  0
  150.1163  139.5792  158.0025 C   0  0  0  0  0  0  0  0  0  0  0  0
  151.2107  139.6768  157.0425 N   0  0  0  0  0  0  0  0  0  0  0  0
  151.1686  140.6572  155.8769 C   0  0  1  0  0  0  0  0  0  0  0  0
  150.8319  139.9762  154.6982 O   0  0  0  0  0  0  0  0  0  0  0  0
  149.4876  140.2380  154.2980 C   0  0  1  0  0  0  0  0  0  0  0  0
  148.5114  139.2318  154.9499 C   0  0  0  0  0  0  0  0  0  0  0  0
  148.7116  137.9458  154.4031 O   0  0  0  0  0  0  0  0  0  0  0  0
  149.3186  141.6928  154.7473 C   0  0  1  0  0  0  0  0  0  0  0  0
  147.9666  142.0695  154.9218 O   0  0  0  0  0  0  0  0  0  0  0  0
  150.0955  141.7591  156.0560 C   0  0  2  0  0  0  0  0  0  0  0  0
  150.6739  143.0420  156.1889 O   0  0  0  0  0  0  0  0  0  0  0  0
  152.2462  138.7067  157.0799 C   0  0  0  0  0  0  0  0  0  0  0  0
  153.1269  138.6411  156.2230 O   0  0  0  0  0  0  0  0  0  0  0  0
  152.2106  137.8476  158.1212 N   0  0  0  0  0  0  0  0  0  0  0  0
  152.1898  141.0350  155.8037 H   0  0  0  0  0  0  0  0  0  0  0  0
  149.4019  140.1720  153.2125 H   0  0  0  0  0  0  0  0  0  0  0  0
  149.7785  142.3417  153.9997 H   0  0  0  0  0  0  0  0  0  0  0  0
  149.4464  141.5264  156.9016 H   0  0  0  0  0  0  0  0  0  0  0  0
  150.5869  137.0106  160.6795 H   0  0  0  0  0  0  0  0  0  0  0  0
  149.2904  140.2736  157.8479 H   0  0  0  0  0  0  0  0  0  0  0  0
  148.5980  139.2062  156.0350 H   0  0  0  0  0  0  0  0  0  0  0  0
  147.4795  139.5015  154.7260 H   0  0  0  0  0  0  0  0  0  0  0  0
  148.8522  138.0332  153.4727 H   0  0  0  0  0  0  0  0  0  0  0  0
  147.9360  143.0002  155.0841 H   0  0  0  0  0  0  0  0  0  0  0  0
  149.9865  143.6869  156.1133 H   0  0  0  0  0  0  0  0  0  0  0  0
  152.9506  137.1640  158.1854 H   0  0  0  0  0  0  0  0  0  0  0  0
  1  2  2  0  0  0  0
  1 22  1  0  0  0  0
  2 17  1  0  0  0  0
  2  3  1  0  0  0  0
  3  4  2  0  0  0  0
  4  5  1  0  0  0  0
  4 23  1  0  0  0  0
  5  6  1  0  0  0  0
  5 15  1  0  0  0  0
  6 18  1  0  0  0  0
  6 13  1  0  0  0  0
  6  7  1  0  0  0  0
  7  8  1  0  0  0  0
  8 19  1  0  0  0  0
  8  9  1  0  0  0  0
  8 11  1  0  0  0  0
  9 10  1  0  0  0  0
  9 24  1  0  0  0  0
  9 25  1  0  0  0  0
 10 26  1  0  0  0  0
 11 20  1  0  0  0  0
 11 12  1  0  0  0  0
 11 13  1  0  0  0  0
 12 27  1  0  0  0  0
 13 21  1  0  0  0  0
 13 14  1  0  0  0  0
 14 28  1  0  0  0  0
 15 16  2  0  0  0  0
 15 17  1  0  0  0  0
 17 29  1  0  0  0  0
M  END
> <s_m_source_file>
AV-unprocessed.smi

> <i_m_source_file_index>
72

> <i_lp_mmshare_version>
43012

> <i_f3d_flags>
0

> <s_epik_input>
W05IMl1jMW5bY0hdbihjKD1PKW4xKVtDQEBIXTJPW0NASF0oW0NIMl1bT0hdKVtDQEBIXShbT0hdKVtDQEhdMltPSF0=

> <s_epik_cmdline>
J2VwaWtfcHl0aG9uJywgJy1waCcsICc3LjAnLCAnLXRuJywgJzgnLCAnLW1hJywgJzIwMCcsICctbWV0YWxfYmluZGluZycsICctaW1hZScsICc8aW5maWxlLm1hZT4nLCAnLW9tYWUnLCAnPG91dGZpbGUubWFlPic=

> <r_lp_tautomer_probability>
7.17554e-07

> <r_epik_Ionization_Penalty>
0.0066451

> <r_epik_Ionization_Penalty_Charging>
0.00663793

> <r_epik_Ionization_Penalty_Neutral>
7.17052e-06

> <r_epik_State_Penalty>
0.419231

> <r_epik_Charging_Adjusted_Penalty>
0.425868

> <i_epik_Tot_Q>
0

> <i_epik_Tot_abs_Q>
0

> <r_epik_Metal_State_Penalty>
1.44144

> <b_epik_Metal_Only>
0

> <s_epik_Chemistry_Notes>
This compound contains an acetal/aminal-like group ( X-CH(R)-Y where X, Y are N, S, or O) that may be acid/base labile, releasing an aldehyde.

> <s_lp_Force_Field>
OPLS_2005

> <r_lp_Energy>
41.469

> <b_lp_Chiralities_Consistent>
1

> <s_lp_Variant>
AV-unprocessed.smi:72-12

> <Gold.Version>
5.8.1

> <Gold.Id.Protein>
6NUR|6NUR_protein|mol2

> <Gold.PLP.Fitness>
37.9883

> <Gold.PLP.PLP>
-23.6403

> <Gold.PLP.part.hbond>
-6.5178

> <Gold.PLP.part.metal>
0.0000

> <Gold.PLP.part.buried>
-0.8996

> <Gold.PLP.part.nonpolar>
-16.2031

> <Gold.PLP.part.repulsive>
0.1587

> <Gold.PLP.ligand.clash>
0.0000

> <Gold.PLP.ligand.torsion>
0.3176

> <Gold.PLP.Chemscore.Hbond>
4.9615

> <Gold.PLP.Chemscore.CHOScore>
0.0000

> <Gold.PLP.Chemscore.Metal>
0.0000

> <Gold.Chemscore.Hbonds>
donor molecule, donor type, donor heavy atom, donor atom, acceptor molecule, acceptor atom, score
      L1  H    10    26       P1  7948  0.04
      L1  H    12    27       P1  8028  1.00
      L1  H    14    28       P1  8028  1.00
      P1  H  6896  6907       L1     1  0.91
      P1  H  7989  7998       L1     7  0.95
      P1  H  7997  8008       L1    16  1.00

> <Gold.PLP.Chemscore.Internal.Correction>
0.0987

> <Gold.Rescore>
     Score         DG    S(hbond)    S(metal)    S(lipo)     H(rot)  DE(clash)    DE(int)     intcor
      9.25      -9.97       3.51        0.00      27.07       4.06       0.32       0.40       ----

> <Gold.Chemscore.Fitness>
9.2515

> <Gold.Chemscore.DG>
-9.9727

> <Gold.Chemscore.ZeroCoef>
-5.4800

> <Gold.Chemscore.Hbond>
3.5087

> <Gold.Chemscore.Metal>
0.0000

> <Gold.Chemscore.Lipo>
27.0705

> <Gold.Chemscore.Internal_Hbond>
0.0000

> <Gold.Chemscore.DEClash>
0.3169

> <Gold.Chemscore.DEInternal>
0.4043

> <Gold.Chemscore.Rot>
4.0600

> <Gold.Chemscore.Internal.Correction>
   9.000000E+99

> <Gold.Chemscore.Hbonds>
donor molecule, donor type, donor heavy atom, donor atom, acceptor molecule, acceptor atom, score
      L1  H    10    26       P1  7948  0.06
      L1  H    12    27       P1  8028  0.77
      L1  H    14    28       P1  8028  0.97
      P1  H  6896  6907       L1     1  0.39
      P1  H  7989  7998       L1     7  0.09
      P1  H  7997  8008       L1    16  0.84

> <Gold.Chemscore.Hbond.Weighted>
-11.7191

> <Gold.Chemscore.Metal.Weighted>
-0.0000

> <Gold.Chemscore.Lipo.Weighted>
-3.1672

> <Gold.Chemscore.Internal_Hbond.Weighted>
0.0000

> <Gold.Chemscore.DEClash.Weighted>
0.3169

> <Gold.Chemscore.DEInternal.Weighted>
0.4043

> <Gold.Chemscore.Rot.Weighted>
10.3936

> <Gold.Chemscore.Internal.Correction.Weighted>
   9.000000E+99

> <Gold.Protein.RotatedTorsions>
[ 6907 6896 6895 6894 ] final   18.76 input  -60.11 | X-H torsion
[ 7974 7965 7964 7962 ] final -155.34 input  175.53 | X-H torsion
[ 8008 7997 7996 7995 ] final  -38.91 input   59.86 | X-H torsion
[ 10167 10162 10161 10158 ] final  116.47 input  -65.29 | X-H torsion
[ 10718 10713 10712 10709 ] final   -7.60 input   66.30 | X-H torsion
[ 10763 10752 10751 10750 ] final -138.34 input  -60.55 | X-H torsion
[ 11005 11000 10999 10996 ] final  132.78 input  -57.11 | X-H torsion

> <Gold.Protein.ActiveResidues>
 VAL166  LYS551  ARG553  GLY616  TRP617  ASP618  TYR619  PRO620  LYS621  CYS622 
 ASP623  PHE694  ASN695  SER759  ASP760  ASP761  ALA762  ILE779  LEU786  VAL792 
 PHE793  MET794  SER795  GLU796  ALA797  LYS798  CYS799  TRP800  GLU811  SER814 

> <Gold.Protein.RotatedAtoms>
  151.8704  135.0491  160.0478 H   0  0  0  0  0  0  0  0  0  0  0  0  # atno 6907 bound_to 6896
  152.2593  133.5279  159.5380 H   0  0  0  0  0  0  0  0  0  0  0  0  # atno 6908 bound_to 6896
  150.7111  134.0768  159.3926 H   0  0  0  0  0  0  0  0  0  0  0  0  # atno 6909 bound_to 6896
  144.7645  140.4263  143.5952 H   0  0  0  0  0  0  0  0  0  0  0  0  # atno 7974 bound_to 7965
  154.4030  140.1565  156.2776 H   0  0  0  0  0  0  0  0  0  0  0  0  # atno 8008 bound_to 7997
  155.8898  140.3439  155.5926 H   0  0  0  0  0  0  0  0  0  0  0  0  # atno 8009 bound_to 7997
  155.7572  140.0812  157.2163 H   0  0  0  0  0  0  0  0  0  0  0  0  # atno 8010 bound_to 7997
  139.6245  144.7106  151.2564 H   0  0  0  0  0  0  0  0  0  0  0  0  # atno 10167 bound_to 10162
  156.7149  130.5133  149.5882 H   0  0  0  0  0  0  0  0  0  0  0  0  # atno 10718 bound_to 10713
  154.8639  135.3615  154.5369 H   0  0  0  0  0  0  0  0  0  0  0  0  # atno 10763 bound_to 10752
  153.5993  135.7013  153.5396 H   0  0  0  0  0  0  0  0  0  0  0  0  # atno 10764 bound_to 10752
  153.3305  135.4126  155.1453 H   0  0  0  0  0  0  0  0  0  0  0  0  # atno 10765 bound_to 10752
  139.9811  134.9548  156.9630 H   0  0  0  0  0  0  0  0  0  0  0  0  # atno 11005 bound_to 11000
  145.6514  139.1565  143.2860 LP  0  0  0  0  0  0  0  0  0  0  0  0  # atno 17320 bound_to 7965
  146.1740  140.6602  142.9220 LP  0  0  0  0  0  0  0  0  0  0  0  0  # atno 17321 bound_to 7965
  140.7402  143.6594  150.8177 LP  0  0  0  0  0  0  0  0  0  0  0  0  # atno 17342 bound_to 10162
  140.0210  143.5542  152.2800 LP  0  0  0  0  0  0  0  0  0  0  0  0  # atno 17343 bound_to 10162
  156.1635  130.6390  151.0748 LP  0  0  0  0  0  0  0  0  0  0  0  0  # atno 17370 bound_to 10713
  157.6921  131.0806  150.7076 LP  0  0  0  0  0  0  0  0  0  0  0  0  # atno 17371 bound_to 10713
  140.5095  134.1016  155.7267 LP  0  0  0  0  0  0  0  0  0  0  0  0  # atno 17394 bound_to 11000
  141.1483  133.9016  157.2162 LP  0  0  0  0  0  0  0  0  0  0  0  0  # atno 17395 bound_to 11000

$$$$
