AV-unprocessed.smi:2133|AV-procd|sdf|8692|dock3
  -GOLD-   2272011443D 1   1.00000     0.00000
 Structure written by MMmdl.
 45 47  0  0  0  0  0  0  0  0  1 V2000
  145.2700  143.9346  158.6428 C   0  0  0  0  0  0  0  0  0  0  0  0
  145.6251  143.6169  157.2467 N   0  0  0  0  0  0  0  0  0  0  0  0
  146.5669  142.6471  157.0220 C   0  0  0  0  0  0  0  0  0  0  0  0
  147.1400  142.0057  157.9030 O   0  0  0  0  0  0  0  0  0  0  0  0
  146.8539  142.4161  155.6024 C   0  0  0  0  0  0  0  0  0  0  0  0
  146.2322  143.0931  154.6065 C   0  0  0  0  0  0  0  0  0  0  0  0
  146.6797  142.6820  153.3563 N   0  0  0  0  0  0  0  0  0  0  0  0
  147.5786  141.7509  153.6763 C   0  0  0  0  0  0  0  0  0  0  0  0
  147.7442  141.5297  154.9964 N   0  0  0  0  0  0  0  0  0  0  0  0
  148.6624  140.5693  155.5897 C   0  0  0  0  0  0  0  0  0  0  0  0
  150.1268  140.8200  155.1790 C   0  0  2  0  0  0  0  0  0  0  0  0
  150.4809  139.9839  154.0952 O   0  0  0  0  0  0  0  0  0  0  0  0
  151.1080  140.5674  156.3326 C   0  0  0  0  0  0  0  0  0  0  0  0
  151.0117  141.6369  157.2586 O   0  0  0  0  0  0  0  0  0  0  0  0
  152.1198  141.7088  158.1409 C   0  0  0  0  0  0  0  0  0  0  0  0
  152.0748  142.9491  159.0142 C   0  0  0  0  0  0  0  0  0  0  0  0
  151.9485  144.2297  158.4337 C   0  0  0  0  0  0  0  0  0  0  0  0
  151.9233  145.3782  159.2490 C   0  0  0  0  0  0  0  0  0  0  0  0
  152.0314  145.2524  160.6475 C   0  0  0  0  0  0  0  0  0  0  0  0
  152.1670  143.9778  161.2303 C   0  0  0  0  0  0  0  0  0  0  0  0
  152.1917  142.8290  160.4153 C   0  0  0  0  0  0  0  0  0  0  0  0
  145.2663  144.0715  154.9478 N   0  0  0  0  0  0  0  0  0  0  0  0
  144.6143  144.7811  153.8431 C   0  0  0  0  0  0  0  0  0  0  0  0
  144.9666  144.3353  156.2626 C   0  0  0  0  0  0  0  0  0  0  0  0
  144.1297  145.1928  156.5577 O   0  0  0  0  0  0  0  0  0  0  0  0
  145.8016  143.3530  159.3965 H   0  0  0  0  0  0  0  0  0  0  0  0
  144.2062  143.7617  158.8133 H   0  0  0  0  0  0  0  0  0  0  0  0
  145.4779  144.9839  158.8589 H   0  0  0  0  0  0  0  0  0  0  0  0
  148.1346  141.2087  152.9254 H   0  0  0  0  0  0  0  0  0  0  0  0
  148.5661  140.6469  156.6734 H   0  0  0  0  0  0  0  0  0  0  0  0
  148.3522  139.5562  155.3387 H   0  0  0  0  0  0  0  0  0  0  0  0
  150.2374  141.8519  154.8431 H   0  0  0  0  0  0  0  0  0  0  0  0
  149.9152  140.1834  153.3651 H   0  0  0  0  0  0  0  0  0  0  0  0
  150.8878  139.6171  156.8219 H   0  0  0  0  0  0  0  0  0  0  0  0
  152.1284  140.5120  155.9493 H   0  0  0  0  0  0  0  0  0  0  0  0
  152.1399  140.8217  158.7764 H   0  0  0  0  0  0  0  0  0  0  0  0
  153.0491  141.7227  157.5698 H   0  0  0  0  0  0  0  0  0  0  0  0
  151.8703  144.3375  157.3617 H   0  0  0  0  0  0  0  0  0  0  0  0
  151.8230  146.3558  158.8009 H   0  0  0  0  0  0  0  0  0  0  0  0
  152.0135  146.1334  161.2721 H   0  0  0  0  0  0  0  0  0  0  0  0
  152.2538  143.8810  162.3025 H   0  0  0  0  0  0  0  0  0  0  0  0
  152.2994  141.8551  160.8700 H   0  0  0  0  0  0  0  0  0  0  0  0
  143.8811  145.5256  154.1546 H   0  0  0  0  0  0  0  0  0  0  0  0
  144.0984  144.0688  153.1985 H   0  0  0  0  0  0  0  0  0  0  0  0
  145.3624  145.2965  153.2396 H   0  0  0  0  0  0  0  0  0  0  0  0
  1  2  1  0  0  0  0
  1 26  1  0  0  0  0
  1 27  1  0  0  0  0
  1 28  1  0  0  0  0
  2 24  1  0  0  0  0
  2  3  1  0  0  0  0
  3  4  2  0  0  0  0
  3  5  1  0  0  0  0
  5  9  1  0  0  0  0
  5  6  2  0  0  0  0
  6  7  1  0  0  0  0
  6 22  1  0  0  0  0
  7  8  2  0  0  0  0
  8  9  1  0  0  0  0
  8 29  1  0  0  0  0
  9 10  1  0  0  0  0
 10 11  1  0  0  0  0
 10 30  1  0  0  0  0
 10 31  1  0  0  0  0
 11 12  1  0  0  0  0
 11 13  1  0  0  0  0
 11 32  1  0  0  0  0
 12 33  1  0  0  0  0
 13 14  1  0  0  0  0
 13 34  1  0  0  0  0
 13 35  1  0  0  0  0
 14 15  1  0  0  0  0
 15 16  1  0  0  0  0
 15 36  1  0  0  0  0
 15 37  1  0  0  0  0
 16 21  1  0  0  0  0
 16 17  2  0  0  0  0
 17 18  1  0  0  0  0
 17 38  1  0  0  0  0
 18 19  2  0  0  0  0
 18 39  1  0  0  0  0
 19 20  1  0  0  0  0
 19 40  1  0  0  0  0
 20 21  2  0  0  0  0
 20 41  1  0  0  0  0
 21 42  1  0  0  0  0
 22 23  1  0  0  0  0
 22 24  1  0  0  0  0
 23 43  1  0  0  0  0
 23 44  1  0  0  0  0
 23 45  1  0  0  0  0
 24 25  2  0  0  0  0
M  END
> <s_m_source_file>
AV-unprocessed.smi

> <i_m_source_file_index>
2133

> <i_lp_mmshare_version>
43012

> <i_f3d_flags>
0

> <s_epik_input>
Tz1jMW4oW0NIM10pYyg9TyluKFtDSDNdKWMoYzEyKW5bY0hdbjJbQ0gyXVtDQEhdKFtPSF0pW0NIMl1PW0NIMl1jM1tjSF1bY0hdW2NIXVtjSF1bY0hdMw==

> <s_epik_cmdline>
J2VwaWtfcHl0aG9uJywgJy1waCcsICc3LjAnLCAnLXRuJywgJzgnLCAnLW1hJywgJzIwMCcsICctbWV0YWxfYmluZGluZycsICctaW1hZScsICc8aW5maWxlLm1hZT4nLCAnLW9tYWUnLCAnPG91dGZpbGUubWFlPic=

> <r_lp_tautomer_probability>
1

> <r_epik_Ionization_Penalty>
1.52174e-06

> <r_epik_Ionization_Penalty_Charging>
3.83535e-09

> <r_epik_Ionization_Penalty_Neutral>
1.5179e-06

> <r_epik_State_Penalty>
-0

> <r_epik_Charging_Adjusted_Penalty>
3.83535e-09

> <i_epik_Tot_Q>
0

> <i_epik_Tot_abs_Q>
0

> <r_epik_Metal_State_Penalty>
-0

> <b_epik_Metal_Only>
0

> <s_lp_Force_Field>
OPLS_2005

> <r_lp_Energy>
38.2919

> <b_lp_Chiralities_Consistent>
1

> <s_lp_Variant>
AV-unprocessed.smi:2133-1

> <Gold.Version>
5.8.1

> <Gold.Id.Protein>
6NUR|6NUR_protein|mol2

> <Gold.PLP.Fitness>
53.9970

> <Gold.PLP.PLP>
-48.1274

> <Gold.PLP.part.hbond>
-2.0000

> <Gold.PLP.part.metal>
0.0000

> <Gold.PLP.part.buried>
-3.0824

> <Gold.PLP.part.nonpolar>
-41.7825

> <Gold.PLP.part.repulsive>
0.4122

> <Gold.PLP.ligand.clash>
0.0000

> <Gold.PLP.ligand.torsion>
0.7644

> <Gold.PLP.Chemscore.Hbond>
1.4106

> <Gold.PLP.Chemscore.CHOScore>
1.0000

> <Gold.PLP.Chemscore.Metal>
0.0000

> <Gold.Chemscore.Hbonds>
donor molecule, donor type, donor heavy atom, donor atom, acceptor molecule, acceptor atom, score
      L1  H    12    33       P1  7957  0.46
      P1  H  7989  7998       L1    12  0.48
      L1  C     8    29       P1  7957  0.91

> <Gold.PLP.Chemscore.Internal.Correction>
0.1667

> <Gold.Rescore>
     Score         DG    S(hbond)    S(metal)    S(lipo)     H(rot)  DE(clash)    DE(int)     intcor
     12.11     -13.39       0.84        0.00     107.47       2.91       0.57       0.71       ----

> <Gold.Chemscore.Fitness>
12.1059

> <Gold.Chemscore.DG>
-13.3920

> <Gold.Chemscore.ZeroCoef>
-5.4800

> <Gold.Chemscore.Hbond>
0.8370

> <Gold.Chemscore.Metal>
0.0000

> <Gold.Chemscore.Lipo>
107.4724

> <Gold.Chemscore.Internal_Hbond>
0.0000

> <Gold.Chemscore.DEClash>
0.5738

> <Gold.Chemscore.DEInternal>
0.7123

> <Gold.Chemscore.Rot>
2.9132

> <Gold.Chemscore.Internal.Correction>
   9.000000E+99

> <Gold.Chemscore.Hbonds>
donor molecule, donor type, donor heavy atom, donor atom, acceptor molecule, acceptor atom, score
      L1  H    12    33       P1  7957  0.47

> <Gold.Chemscore.Hbond.Weighted>
-2.7955

> <Gold.Chemscore.Metal.Weighted>
-0.0000

> <Gold.Chemscore.Lipo.Weighted>
-12.5743

> <Gold.Chemscore.Internal_Hbond.Weighted>
0.0000

> <Gold.Chemscore.DEClash.Weighted>
0.5738

> <Gold.Chemscore.DEInternal.Weighted>
0.7123

> <Gold.Chemscore.Rot.Weighted>
7.4578

> <Gold.Chemscore.Internal.Correction.Weighted>
   9.000000E+99

> <Gold.Protein.RotatedTorsions>
[ 6907 6896 6895 6894 ] final  -78.17 input  -60.11 | X-H torsion
[ 7974 7965 7964 7962 ] final  124.23 input  175.53 | X-H torsion
[ 8008 7997 7996 7995 ] final -128.19 input   59.86 | X-H torsion
[ 10167 10162 10161 10158 ] final -121.25 input  -65.29 | X-H torsion
[ 10718 10713 10712 10709 ] final -178.63 input   66.30 | X-H torsion
[ 10763 10752 10751 10750 ] final   18.45 input  -60.55 | X-H torsion
[ 11005 11000 10999 10996 ] final -149.27 input  -57.11 | X-H torsion

> <Gold.Protein.ActiveResidues>
 VAL166  LYS551  ARG553  GLY616  TRP617  ASP618  TYR619  PRO620  LYS621  CYS622 
 ASP623  PHE694  ASN695  SER759  ASP760  ASP761  ALA762  ILE779  LEU786  VAL792 
 PHE793  MET794  SER795  GLU796  ALA797  LYS798  CYS799  TRP800  GLU811  SER814 

> <Gold.Protein.RotatedAtoms>
  150.6980  134.4313  159.5249 H   0  0  0  0  0  0  0  0  0  0  0  0  # atno 6907 bound_to 6896
  152.2039  134.8560  160.0514 H   0  0  0  0  0  0  0  0  0  0  0  0  # atno 6908 bound_to 6896
  151.9470  133.3620  159.4023 H   0  0  0  0  0  0  0  0  0  0  0  0  # atno 6909 bound_to 6896
  145.0867  139.3616  143.4881 H   0  0  0  0  0  0  0  0  0  0  0  0  # atno 7974 bound_to 7965
  155.2585  140.0435  157.2995 H   0  0  0  0  0  0  0  0  0  0  0  0  # atno 8008 bound_to 7997
  154.5725  140.2378  155.8140 H   0  0  0  0  0  0  0  0  0  0  0  0  # atno 8009 bound_to 7997
  156.2133  140.2992  155.9790 H   0  0  0  0  0  0  0  0  0  0  0  0  # atno 8010 bound_to 7997
  140.0270  143.5286  152.2194 H   0  0  0  0  0  0  0  0  0  0  0  0  # atno 10167 bound_to 10162
  156.8472  130.9706  151.3095 H   0  0  0  0  0  0  0  0  0  0  0  0  # atno 10718 bound_to 10713
  153.1248  135.6727  153.9275 H   0  0  0  0  0  0  0  0  0  0  0  0  # atno 10763 bound_to 10752
  153.8780  135.3061  155.3445 H   0  0  0  0  0  0  0  0  0  0  0  0  # atno 10764 bound_to 10752
  154.7655  135.4966  153.9625 H   0  0  0  0  0  0  0  0  0  0  0  0  # atno 10765 bound_to 10752
  140.7525  134.3390  157.5122 H   0  0  0  0  0  0  0  0  0  0  0  0  # atno 11005 bound_to 11000
  146.3531  140.0683  142.8625 LP  0  0  0  0  0  0  0  0  0  0  0  0  # atno 17320 bound_to 7965
  145.1113  140.9407  143.4654 LP  0  0  0  0  0  0  0  0  0  0  0  0  # atno 17321 bound_to 7965
  139.6101  144.7606  151.2971 LP  0  0  0  0  0  0  0  0  0  0  0  0  # atno 17342 bound_to 10162
  140.7318  143.6841  150.7977 LP  0  0  0  0  0  0  0  0  0  0  0  0  # atno 17343 bound_to 10162
  157.6323  130.8739  149.9297 LP  0  0  0  0  0  0  0  0  0  0  0  0  # atno 17370 bound_to 10713
  156.0848  130.3669  150.0509 LP  0  0  0  0  0  0  0  0  0  0  0  0  # atno 17371 bound_to 10713
  139.8785  134.9151  156.3123 LP  0  0  0  0  0  0  0  0  0  0  0  0  # atno 17394 bound_to 11000
  140.9738  133.7311  156.0572 LP  0  0  0  0  0  0  0  0  0  0  0  0  # atno 17395 bound_to 11000

$$$$
