AV-unprocessed.smi:3135|AV-procd|sdf|11946|dock10
  -GOLD-   2272017343D 1   1.00000     0.00000
 Structure written by MMmdl.
 38 39  0  0  0  0  0  0  0  0  2 V2000
  145.0271  132.0657  150.2944 C   0  0  0  0  0  0  0  0  0  0  0  0
  144.8497  133.3627  151.0298 C   0  0  0  0  0  0  0  0  0  0  0  0
  143.9924  133.6306  152.1348 C   0  0  0  0  0  0  0  0  0  0  0  0
  144.0712  134.8826  152.5554 N   0  0  0  0  0  0  0  0  0  0  0  0
  144.9791  135.4573  151.7375 N   0  0  0  0  0  0  0  0  0  0  0  0
  145.3317  136.8565  151.9139 C   0  0  0  0  0  0  0  0  0  0  0  0
  145.8052  137.1623  153.3391 C   0  0  0  0  0  0  0  0  0  0  0  0
  145.0400  137.7065  154.1346 O   0  0  0  0  0  0  0  0  0  0  0  0
  147.0688  136.8298  153.6503 N   0  0  0  0  0  0  0  0  0  0  0  0
  147.6875  137.0284  154.9549 C   0  0  0  0  0  0  0  0  0  0  0  0
  148.9338  137.9281  154.8573 C   0  0  0  0  0  0  0  0  0  0  0  0
  150.1096  137.2327  154.2744 N   0  3  2  0  0  0  0  0  0  0  0  0
  150.4612  136.0270  155.0591 C   0  0  0  0  0  0  0  0  0  0  0  0
  151.2810  138.1233  154.0902 C   0  0  0  0  0  0  0  0  0  0  0  0
  152.2343  138.1463  155.2651 C   0  0  0  0  0  0  0  0  0  0  0  0
  151.3039  139.3112  155.0286 C   0  0  0  0  0  0  0  0  0  0  0  0
  145.4614  134.5633  150.8044 C   0  0  0  0  0  0  0  0  0  0  0  0
  144.9769  131.2098  150.9679 H   0  0  0  0  0  0  0  0  0  0  0  0
  145.9901  132.0164  149.7854 H   0  0  0  0  0  0  0  0  0  0  0  0
  144.2553  131.9257  149.5376 H   0  0  0  0  0  0  0  0  0  0  0  0
  143.3189  132.9550  152.6415 H   0  0  0  0  0  0  0  0  0  0  0  0
  146.1217  137.1146  151.2077 H   0  0  0  0  0  0  0  0  0  0  0  0
  144.4660  137.4727  151.6657 H   0  0  0  0  0  0  0  0  0  0  0  0
  147.6308  136.3857  152.9381 H   0  0  0  0  0  0  0  0  0  0  0  0
  146.9621  137.4489  155.6537 H   0  0  0  0  0  0  0  0  0  0  0  0
  147.9549  136.0431  155.3357 H   0  0  0  0  0  0  0  0  0  0  0  0
  148.7113  138.8227  154.2733 H   0  0  0  0  0  0  0  0  0  0  0  0
  149.1964  138.2697  155.8597 H   0  0  0  0  0  0  0  0  0  0  0  0
  150.7592  136.2964  156.0733 H   0  0  0  0  0  0  0  0  0  0  0  0
  151.2842  135.4815  154.5970 H   0  0  0  0  0  0  0  0  0  0  0  0
  149.6130  135.3445  155.1220 H   0  0  0  0  0  0  0  0  0  0  0  0
  151.6459  138.2340  153.0703 H   0  0  0  0  0  0  0  0  0  0  0  0
  152.0215  137.5042  156.1178 H   0  0  0  0  0  0  0  0  0  0  0  0
  153.2902  138.3004  155.0519 H   0  0  0  0  0  0  0  0  0  0  0  0
  151.7470  140.2342  154.6599 H   0  0  0  0  0  0  0  0  0  0  0  0
  150.4829  139.4393  155.7319 H   0  0  0  0  0  0  0  0  0  0  0  0
  146.1957  134.8515  150.0666 H   0  0  0  0  0  0  0  0  0  0  0  0
  149.8351  136.9088  153.3578 H   0  0  0  0  0  0  0  0  0  0  0  0
  1  2  1  0  0  0  0
  1 18  1  0  0  0  0
  1 19  1  0  0  0  0
  1 20  1  0  0  0  0
  2 17  2  0  0  0  0
  2  3  1  0  0  0  0
  3  4  2  0  0  0  0
  3 21  1  0  0  0  0
  4  5  1  0  0  0  0
  5  6  1  0  0  0  0
  5 17  1  0  0  0  0
  6  7  1  0  0  0  0
  6 22  1  0  0  0  0
  6 23  1  0  0  0  0
  7  8  2  0  0  0  0
  7  9  1  0  0  0  0
  9 10  1  0  0  0  0
  9 24  1  0  0  0  0
 10 11  1  0  0  0  0
 10 25  1  0  0  0  0
 10 26  1  0  0  0  0
 11 12  1  0  0  0  0
 11 27  1  0  0  0  0
 11 28  1  0  0  0  0
 12 13  1  0  0  0  0
 12 14  1  0  0  0  0
 12 38  1  0  0  0  0
 13 29  1  0  0  0  0
 13 30  1  0  0  0  0
 13 31  1  0  0  0  0
 14 16  1  0  0  0  0
 14 15  1  0  0  0  0
 14 32  1  0  0  0  0
 15 16  1  0  0  0  0
 15 33  1  0  0  0  0
 15 34  1  0  0  0  0
 16 35  1  0  0  0  0
 16 36  1  0  0  0  0
 17 37  1  0  0  0  0
M  CHG  1  12   1
M  END
> <s_m_source_file>
AV-unprocessed.smi

> <i_m_source_file_index>
3135

> <i_lp_mmshare_version>
43012

> <i_f3d_flags>
0

> <s_epik_input>
W0NIM11jMVtjSF1ubihbY0hdMSlbQ0gyXUMoPU8pW05IXVtDSDJdW0NIMl1OKFtDSDNdKVtDSF0yW0NIMl1bQ0gyXTI=

> <s_epik_cmdline>
J2VwaWtfcHl0aG9uJywgJy1waCcsICc3LjAnLCAnLXRuJywgJzgnLCAnLW1hJywgJzIwMCcsICctbWV0YWxfYmluZGluZycsICctaW1hZScsICc8aW5maWxlLm1hZT4nLCAnLW9tYWUnLCAnPG91dGZpbGUubWFlPic=

> <r_lp_tautomer_probability>
1

> <r_epik_Ionization_Penalty>
0.174318

> <r_epik_Ionization_Penalty_Charging>
0.174302

> <r_epik_Ionization_Penalty_Neutral>
1.62778e-05

> <r_epik_State_Penalty>
0.163722

> <r_epik_Charging_Adjusted_Penalty>
0.338024

> <i_epik_Tot_Q>
1

> <i_epik_Tot_abs_Q>
1

> <r_epik_Metal_State_Penalty>
0.163727

> <b_epik_Metal_Only>
0

> <s_lp_Force_Field>
OPLS_2005

> <r_lp_Energy>
17.5594

> <b_lp_Chiralities_Consistent>
1

> <s_lp_Variant>
AV-unprocessed.smi:3135-2

> <Gold.Version>
5.8.1

> <Gold.Id.Protein>
6NUR|6NUR_protein|mol2

> <Gold.PLP.Fitness>
41.8533

> <Gold.PLP.PLP>
-28.0097

> <Gold.PLP.part.hbond>
-2.3574

> <Gold.PLP.part.metal>
0.0000

> <Gold.PLP.part.buried>
-3.5885

> <Gold.PLP.part.nonpolar>
-22.4566

> <Gold.PLP.part.repulsive>
0.2496

> <Gold.PLP.ligand.clash>
0.0190

> <Gold.PLP.ligand.torsion>
1.2104

> <Gold.PLP.Chemscore.Hbond>
3.0000

> <Gold.PLP.Chemscore.CHOScore>
1.9961

> <Gold.PLP.Chemscore.Metal>
0.0000

> <Gold.Chemscore.Hbonds>
donor molecule, donor type, donor heavy atom, donor atom, acceptor molecule, acceptor atom, score
      L1  H     9    24       P1  7948  1.00
      L1  H    12    38       P1  7948  2.00
      L1  C     3    21       P1 10957  1.00
      L1  C    17    37       P1  7921  1.00

> <Gold.PLP.Chemscore.Internal.Correction>
1.2952

> <Gold.Rescore>
     Score         DG    S(hbond)    S(metal)    S(lipo)     H(rot)  DE(clash)    DE(int)     intcor
     13.45     -14.54       1.86        0.00      67.22       1.96       0.02       1.07       ----

> <Gold.Chemscore.Fitness>
13.4466

> <Gold.Chemscore.DG>
-14.5374

> <Gold.Chemscore.ZeroCoef>
-5.4800

> <Gold.Chemscore.Hbond>
1.8558

> <Gold.Chemscore.Metal>
0.0000

> <Gold.Chemscore.Lipo>
67.2236

> <Gold.Chemscore.Internal_Hbond>
0.0000

> <Gold.Chemscore.DEClash>
0.0195

> <Gold.Chemscore.DEInternal>
1.0713

> <Gold.Chemscore.Rot>
1.9555

> <Gold.Chemscore.Internal.Correction>
   9.000000E+99

> <Gold.Chemscore.Hbonds>
donor molecule, donor type, donor heavy atom, donor atom, acceptor molecule, acceptor atom, score
      L1  H     9    24       P1  7948  0.98
      L1  H    12    38       P1  7948  0.35

> <Gold.Chemscore.Hbond.Weighted>
-6.1982

> <Gold.Chemscore.Metal.Weighted>
-0.0000

> <Gold.Chemscore.Lipo.Weighted>
-7.8652

> <Gold.Chemscore.Internal_Hbond.Weighted>
0.0000

> <Gold.Chemscore.DEClash.Weighted>
0.0195

> <Gold.Chemscore.DEInternal.Weighted>
1.0713

> <Gold.Chemscore.Rot.Weighted>
5.0060

> <Gold.Chemscore.Internal.Correction.Weighted>
   9.000000E+99

> <Gold.Protein.RotatedTorsions>
[ 6907 6896 6895 6894 ] final   61.90 input  -60.11 | X-H torsion
[ 7974 7965 7964 7962 ] final  -74.77 input  175.53 | X-H torsion
[ 8008 7997 7996 7995 ] final -161.51 input   59.86 | X-H torsion
[ 10167 10162 10161 10158 ] final  127.99 input  -65.29 | X-H torsion
[ 10718 10713 10712 10709 ] final  -90.25 input   66.30 | X-H torsion
[ 10763 10752 10751 10750 ] final  -95.92 input  -60.55 | X-H torsion
[ 11005 11000 10999 10996 ] final   33.48 input  -57.11 | X-H torsion

> <Gold.Protein.ActiveResidues>
 VAL166  LYS551  ARG553  GLY616  TRP617  ASP618  TYR619  PRO620  LYS621  CYS622 
 ASP623  PHE694  ASN695  SER759  ASP760  ASP761  ALA762  ILE779  LEU786  VAL792 
 PHE793  MET794  SER795  GLU796  ALA797  LYS798  CYS799  TRP800  GLU811  SER814 

> <Gold.Protein.RotatedAtoms>
  152.4127  134.6096  160.0021 H   0  0  0  0  0  0  0  0  0  0  0  0  # atno 6907 bound_to 6896
  151.6268  133.3329  159.3108 H   0  0  0  0  0  0  0  0  0  0  0  0  # atno 6908 bound_to 6896
  150.8017  134.7155  159.6673 H   0  0  0  0  0  0  0  0  0  0  0  0  # atno 6909 bound_to 6896
  145.6348  140.9327  143.1067 H   0  0  0  0  0  0  0  0  0  0  0  0  # atno 7974 bound_to 7965
  155.7932  140.0881  157.1998 H   0  0  0  0  0  0  0  0  0  0  0  0  # atno 8008 bound_to 7997
  154.3984  140.1486  156.3245 H   0  0  0  0  0  0  0  0  0  0  0  0  # atno 8009 bound_to 7997
  155.8538  140.3433  155.5713 H   0  0  0  0  0  0  0  0  0  0  0  0  # atno 8010 bound_to 7997
  139.5550  144.6842  151.4210 H   0  0  0  0  0  0  0  0  0  0  0  0  # atno 10167 bound_to 10162
  155.9987  130.4903  150.5295 H   0  0  0  0  0  0  0  0  0  0  0  0  # atno 10718 bound_to 10713
  154.7192  135.5103  153.8785 H   0  0  0  0  0  0  0  0  0  0  0  0  # atno 10763 bound_to 10752
  153.0847  135.6642  153.9981 H   0  0  0  0  0  0  0  0  0  0  0  0  # atno 10764 bound_to 10752
  153.9808  135.3029  155.3400 H   0  0  0  0  0  0  0  0  0  0  0  0  # atno 10765 bound_to 10752
  140.2627  134.3173  155.7852 H   0  0  0  0  0  0  0  0  0  0  0  0  # atno 11005 bound_to 11000
  144.7180  139.8130  143.7392 LP  0  0  0  0  0  0  0  0  0  0  0  0  # atno 17320 bound_to 7965
  146.1328  139.4367  143.0158 LP  0  0  0  0  0  0  0  0  0  0  0  0  # atno 17321 bound_to 7965
  140.6821  143.8059  150.7135 LP  0  0  0  0  0  0  0  0  0  0  0  0  # atno 17342 bound_to 10162
  140.1515  143.4353  152.2128 LP  0  0  0  0  0  0  0  0  0  0  0  0  # atno 17343 bound_to 10162
  157.3246  131.0688  151.1906 LP  0  0  0  0  0  0  0  0  0  0  0  0  # atno 17370 bound_to 10713
  157.2808  130.6749  149.6065 LP  0  0  0  0  0  0  0  0  0  0  0  0  # atno 17371 bound_to 10713
  141.2188  133.7419  156.9212 LP  0  0  0  0  0  0  0  0  0  0  0  0  # atno 17394 bound_to 11000
  140.1449  134.9269  157.2516 LP  0  0  0  0  0  0  0  0  0  0  0  0  # atno 17395 bound_to 11000

$$$$
