AV-unprocessed.smi:2331|AV-procd|sdf|9314|dock2
  -GOLD-   2272012533D 1   1.00000     0.00000
 Structure written by MMmdl.
 49 50  0  0  0  0  0  0  0  0  1 V2000
  152.3045  139.1717  155.1021 C   0  0  0  0  0  0  0  0  0  0  0  0
  150.9345  138.5929  155.5318 C   0  0  0  0  0  0  0  0  0  0  0  0
  150.8794  137.1415  155.0098 C   0  0  0  0  0  0  0  0  0  0  0  0
  150.8618  138.5692  157.0836 C   0  0  0  0  0  0  0  0  0  0  0  0
  151.5546  139.7000  157.6972 N   0  0  0  0  0  0  0  0  0  0  0  0
  150.9777  140.7307  158.3368 C   0  0  0  0  0  0  0  0  0  0  0  0
  149.7584  140.8954  158.3698 O   0  0  0  0  0  0  0  0  0  0  0  0
  151.8702  141.6005  158.8643 N   0  0  0  0  0  0  0  0  0  0  0  0
  153.2197  141.1905  159.2730 C   0  0  0  0  0  0  0  0  0  0  0  0
  153.5333  142.0021  160.5218 C   0  0  0  0  0  0  0  0  0  0  0  0
  152.7634  143.2894  160.2978 C   0  0  0  0  0  0  0  0  0  0  0  0
  151.5007  142.8738  159.5171 C   0  0  1  0  0  0  0  0  0  0  0  0
  150.9959  143.9862  158.5374 C   0  0  0  0  0  0  0  0  0  0  0  0
  150.6419  145.2903  159.2819 C   0  0  0  0  0  0  0  0  0  0  0  0
  151.9603  144.2733  157.3687 C   0  0  0  0  0  0  0  0  0  0  0  0
  149.7599  143.5776  157.9857 O   0  0  0  0  0  0  0  0  0  0  0  0
  149.7496  139.3937  154.9557 C   0  0  0  0  0  0  0  0  0  0  0  0
  148.6822  138.7856  154.2497 C   0  0  0  0  0  0  0  0  0  0  0  0
  147.6539  139.5974  153.7313 C   0  0  0  0  0  0  0  0  0  0  0  0
  147.6233  140.9385  153.8698 N   0  0  0  0  0  0  0  0  0  0  0  0
  148.6369  141.5208  154.5421 C   0  0  0  0  0  0  0  0  0  0  0  0
  149.7127  140.8008  155.0973 C   0  0  0  0  0  0  0  0  0  0  0  0
  153.1266  138.5928  155.5243 H   0  0  0  0  0  0  0  0  0  0  0  0
  152.4416  140.2012  155.4329 H   0  0  0  0  0  0  0  0  0  0  0  0
  152.4248  139.1542  154.0183 H   0  0  0  0  0  0  0  0  0  0  0  0
  151.7174  136.5536  155.3858 H   0  0  0  0  0  0  0  0  0  0  0  0
  150.9216  137.1118  153.9204 H   0  0  0  0  0  0  0  0  0  0  0  0
  149.9679  136.6281  155.3156 H   0  0  0  0  0  0  0  0  0  0  0  0
  149.8226  138.6335  157.4072 H   0  0  0  0  0  0  0  0  0  0  0  0
  151.2296  137.6195  157.4761 H   0  0  0  0  0  0  0  0  0  0  0  0
  152.5638  139.6683  157.6843 H   0  0  0  0  0  0  0  0  0  0  0  0
  153.3055  140.1229  159.4846 H   0  0  0  0  0  0  0  0  0  0  0  0
  153.9171  141.4325  158.4701 H   0  0  0  0  0  0  0  0  0  0  0  0
  153.1463  141.4891  161.4031 H   0  0  0  0  0  0  0  0  0  0  0  0
  154.6017  142.1638  160.6668 H   0  0  0  0  0  0  0  0  0  0  0  0
  152.5307  143.8032  161.2308 H   0  0  0  0  0  0  0  0  0  0  0  0
  153.3855  143.9562  159.7006 H   0  0  0  0  0  0  0  0  0  0  0  0
  150.7241  142.6598  160.2546 H   0  0  0  0  0  0  0  0  0  0  0  0
  151.5246  145.7791  159.6936 H   0  0  0  0  0  0  0  0  0  0  0  0
  149.9542  145.1017  160.1073 H   0  0  0  0  0  0  0  0  0  0  0  0
  150.1652  146.0122  158.6171 H   0  0  0  0  0  0  0  0  0  0  0  0
  152.9407  144.5843  157.7292 H   0  0  0  0  0  0  0  0  0  0  0  0
  151.5804  145.0711  156.7297 H   0  0  0  0  0  0  0  0  0  0  0  0
  152.1047  143.3983  156.7348 H   0  0  0  0  0  0  0  0  0  0  0  0
  149.5814  144.1044  157.2219 H   0  0  0  0  0  0  0  0  0  0  0  0
  148.6296  137.7206  154.0866 H   0  0  0  0  0  0  0  0  0  0  0  0
  146.8330  139.1550  153.1867 H   0  0  0  0  0  0  0  0  0  0  0  0
  148.5923  142.5956  154.6383 H   0  0  0  0  0  0  0  0  0  0  0  0
  150.4976  141.3309  155.6159 H   0  0  0  0  0  0  0  0  0  0  0  0
  1  2  1  0  0  0  0
  1 23  1  0  0  0  0
  1 24  1  0  0  0  0
  1 25  1  0  0  0  0
  2  3  1  0  0  0  0
  2  4  1  0  0  0  0
  2 17  1  0  0  0  0
  3 26  1  0  0  0  0
  3 27  1  0  0  0  0
  3 28  1  0  0  0  0
  4  5  1  0  0  0  0
  4 29  1  0  0  0  0
  4 30  1  0  0  0  0
  5  6  1  0  0  0  0
  5 31  1  0  0  0  0
  6  7  2  0  0  0  0
  6  8  1  0  0  0  0
  8 12  1  0  0  0  0
  8  9  1  0  0  0  0
  9 10  1  0  0  0  0
  9 32  1  0  0  0  0
  9 33  1  0  0  0  0
 10 11  1  0  0  0  0
 10 34  1  0  0  0  0
 10 35  1  0  0  0  0
 11 12  1  0  0  0  0
 11 36  1  0  0  0  0
 11 37  1  0  0  0  0
 12 13  1  0  0  0  0
 12 38  1  0  0  0  0
 13 14  1  0  0  0  0
 13 15  1  0  0  0  0
 13 16  1  0  0  0  0
 14 39  1  0  0  0  0
 14 40  1  0  0  0  0
 14 41  1  0  0  0  0
 15 42  1  0  0  0  0
 15 43  1  0  0  0  0
 15 44  1  0  0  0  0
 16 45  1  0  0  0  0
 17 22  1  0  0  0  0
 17 18  2  0  0  0  0
 18 19  1  0  0  0  0
 18 46  1  0  0  0  0
 19 20  2  0  0  0  0
 19 47  1  0  0  0  0
 20 21  1  0  0  0  0
 21 22  2  0  0  0  0
 21 48  1  0  0  0  0
 22 49  1  0  0  0  0
M  END
> <s_m_source_file>
AV-unprocessed.smi

> <i_m_source_file_index>
2331

> <i_lp_mmshare_version>
43012

> <i_f3d_flags>
0

> <s_epik_input>
W2NIXTFbY0hdbltjSF1bY0hdYzFDKFtDSDNdKShbQ0gzXSlbQ0gyXVtOSF1DKD1PKU4yW0NIMl1bQ0gyXVtDSDJdW0NASF0yQyhbQ0gzXSkoW0NIM10pW09IXQ==

> <s_epik_cmdline>
J2VwaWtfcHl0aG9uJywgJy1waCcsICc3LjAnLCAnLXRuJywgJzgnLCAnLW1hJywgJzIwMCcsICctbWV0YWxfYmluZGluZycsICctaW1hZScsICc8aW5maWxlLm1hZT4nLCAnLW9tYWUnLCAnPG91dGZpbGUubWFlPic=

> <r_epik_Ionization_Penalty>
0.0581496

> <r_epik_Ionization_Penalty_Charging>
0

> <r_epik_Ionization_Penalty_Neutral>
0.0581496

> <r_epik_State_Penalty>
0.0501956

> <r_epik_Charging_Adjusted_Penalty>
0.0501956

> <i_epik_Tot_Q>
0

> <i_epik_Tot_abs_Q>
0

> <r_epik_Metal_State_Penalty>
0.0456895

> <b_epik_Metal_Only>
0

> <s_lp_Force_Field>
OPLS_2005

> <r_lp_Energy>
47.1334

> <b_lp_Chiralities_Consistent>
1

> <s_lp_Variant>
AV-unprocessed.smi:2331-1

> <Gold.Version>
5.8.1

> <Gold.Id.Protein>
6NUR|6NUR_protein|mol2

> <Gold.PLP.Fitness>
50.7265

> <Gold.PLP.PLP>
-46.8142

> <Gold.PLP.part.hbond>
-1.7962

> <Gold.PLP.part.metal>
0.0000

> <Gold.PLP.part.buried>
-1.8306

> <Gold.PLP.part.nonpolar>
-42.0820

> <Gold.PLP.part.repulsive>
0.2345

> <Gold.PLP.ligand.clash>
0.5651

> <Gold.PLP.ligand.torsion>
1.0161

> <Gold.PLP.Chemscore.Hbond>
1.0000

> <Gold.PLP.Chemscore.CHOScore>
1.0000

> <Gold.PLP.Chemscore.Metal>
0.0000

> <Gold.Chemscore.Hbonds>
donor molecule, donor type, donor heavy atom, donor atom, acceptor molecule, acceptor atom, score
      L1  H    16    45       P1  8028  1.00
      L1  C    21    48       P1  8028  1.00

> <Gold.PLP.Chemscore.Internal.Correction>
0.5097

> <Gold.Rescore>
     Score         DG    S(hbond)    S(metal)    S(lipo)     H(rot)  DE(clash)    DE(int)     intcor
     17.17     -18.60       0.73        0.00     133.55       1.94       0.33       1.09       ----

> <Gold.Chemscore.Fitness>
17.1717

> <Gold.Chemscore.DG>
-18.5997

> <Gold.Chemscore.ZeroCoef>
-5.4800

> <Gold.Chemscore.Hbond>
0.7328

> <Gold.Chemscore.Metal>
0.0000

> <Gold.Chemscore.Lipo>
133.5541

> <Gold.Chemscore.Internal_Hbond>
0.0000

> <Gold.Chemscore.DEClash>
0.3342

> <Gold.Chemscore.DEInternal>
1.0938

> <Gold.Chemscore.Rot>
1.9350

> <Gold.Chemscore.Internal.Correction>
   9.000000E+99

> <Gold.Chemscore.Hbonds>
donor molecule, donor type, donor heavy atom, donor atom, acceptor molecule, acceptor atom, score
      L1  H    16    45       P1  8028  0.45

> <Gold.Chemscore.Hbond.Weighted>
-2.4475

> <Gold.Chemscore.Metal.Weighted>
-0.0000

> <Gold.Chemscore.Lipo.Weighted>
-15.6258

> <Gold.Chemscore.Internal_Hbond.Weighted>
0.0000

> <Gold.Chemscore.DEClash.Weighted>
0.3342

> <Gold.Chemscore.DEInternal.Weighted>
1.0938

> <Gold.Chemscore.Rot.Weighted>
4.9536

> <Gold.Chemscore.Internal.Correction.Weighted>
   9.000000E+99

> <Gold.Protein.RotatedTorsions>
[ 6907 6896 6895 6894 ] final  110.90 input  -60.11 | X-H torsion
[ 7974 7965 7964 7962 ] final -101.43 input  175.53 | X-H torsion
[ 8008 7997 7996 7995 ] final   57.28 input   59.86 | X-H torsion
[ 10167 10162 10161 10158 ] final  176.20 input  -65.29 | X-H torsion
[ 10718 10713 10712 10709 ] final   13.19 input   66.30 | X-H torsion
[ 10763 10752 10751 10750 ] final  -56.27 input  -60.55 | X-H torsion
[ 11005 11000 10999 10996 ] final  -80.80 input  -57.11 | X-H torsion

> <Gold.Protein.ActiveResidues>
 VAL166  LYS551  ARG553  GLY616  TRP617  ASP618  TYR619  PRO620  LYS621  CYS622 
 ASP623  PHE694  ASN695  SER759  ASP760  ASP761  ALA762  ILE779  LEU786  VAL792 
 PHE793  MET794  SER795  GLU796  ALA797  LYS798  CYS799  TRP800  GLU811  SER814 

> <Gold.Protein.RotatedAtoms>
  152.4997  133.8734  159.7309 H   0  0  0  0  0  0  0  0  0  0  0  0  # atno 6907 bound_to 6896
  150.9215  133.6866  159.2838 H   0  0  0  0  0  0  0  0  0  0  0  0  # atno 6908 bound_to 6896
  151.4241  135.1006  159.9675 H   0  0  0  0  0  0  0  0  0  0  0  0  # atno 6909 bound_to 6896
  145.2817  140.9328  143.2928 H   0  0  0  0  0  0  0  0  0  0  0  0  # atno 7974 bound_to 7965
  155.5312  140.3482  155.4426 H   0  0  0  0  0  0  0  0  0  0  0  0  # atno 8008 bound_to 7997
  156.0717  140.1364  156.9847 H   0  0  0  0  0  0  0  0  0  0  0  0  # atno 8009 bound_to 7997
  154.4532  140.0964  156.6654 H   0  0  0  0  0  0  0  0  0  0  0  0  # atno 8010 bound_to 7997
  139.5205  144.2943  152.0435 H   0  0  0  0  0  0  0  0  0  0  0  0  # atno 10167 bound_to 10162
  157.0210  130.6155  149.5721 H   0  0  0  0  0  0  0  0  0  0  0  0  # atno 10718 bound_to 10713
  154.2040  135.6406  153.5095 H   0  0  0  0  0  0  0  0  0  0  0  0  # atno 10763 bound_to 10752
  153.0005  135.5458  154.6285 H   0  0  0  0  0  0  0  0  0  0  0  0  # atno 10764 bound_to 10752
  154.5705  135.2916  155.0805 H   0  0  0  0  0  0  0  0  0  0  0  0  # atno 10765 bound_to 10752
  141.1667  133.7167  156.8327 H   0  0  0  0  0  0  0  0  0  0  0  0  # atno 11005 bound_to 11000
  144.9247  139.4369  143.6524 LP  0  0  0  0  0  0  0  0  0  0  0  0  # atno 17320 bound_to 7965
  146.3214  139.8126  142.8942 LP  0  0  0  0  0  0  0  0  0  0  0  0  # atno 17321 bound_to 7965
  140.2393  144.4286  150.6266 LP  0  0  0  0  0  0  0  0  0  0  0  0  # atno 17342 bound_to 10162
  140.6301  143.2186  151.6513 LP  0  0  0  0  0  0  0  0  0  0  0  0  # atno 17343 bound_to 10162
  156.0102  130.5193  150.7963 LP  0  0  0  0  0  0  0  0  0  0  0  0  # atno 17370 bound_to 10713
  157.5249  131.0933  151.0030 LP  0  0  0  0  0  0  0  0  0  0  0  0  # atno 17371 bound_to 10713
  140.2040  134.8876  157.3200 LP  0  0  0  0  0  0  0  0  0  0  0  0  # atno 17394 bound_to 11000
  140.2157  134.4084  155.7590 LP  0  0  0  0  0  0  0  0  0  0  0  0  # atno 17395 bound_to 11000

$$$$
