AV-unprocessed.smi:2318|AV-procd|sdf|9276|dock10
  -GOLD-   2272012503D 1   1.00000     0.00000
 Structure written by MMmdl.
 37 38  0  0  0  0  0  0  0  0  1 V2000
  152.8805  142.5075  161.2499 C   0  0  0  0  0  0  0  0  0  0  0  0
  152.3058  142.7910  159.9524 N   0  0  0  0  0  0  0  0  0  0  0  0
  152.6870  143.7460  159.0312 C   0  0  0  0  0  0  0  0  0  0  0  0
  151.8485  143.6372  157.9581 C   0  0  0  0  0  0  0  0  0  0  0  0
  150.9811  142.5724  158.3273 C   0  0  0  0  0  0  0  0  0  0  0  0
  149.9478  142.1464  157.4543 N   0  0  0  0  0  0  0  0  0  0  0  0
  150.0795  141.5613  156.2516 C   0  0  0  0  0  0  0  0  0  0  0  0
  151.1508  141.3048  155.7013 O   0  0  0  0  0  0  0  0  0  0  0  0
  148.8821  141.2829  155.7160 N   0  0  0  0  0  0  0  0  0  0  0  0
  148.6455  140.6626  154.4106 C   0  0  1  0  0  0  0  0  0  0  0  0
  149.0467  139.1652  154.4634 C   0  0  0  0  0  0  0  0  0  0  0  0
  148.5571  138.4213  155.7127 C   0  0  0  0  0  0  0  0  0  0  0  0
  149.4020  137.1485  155.7630 C   0  0  0  0  0  0  0  0  0  0  0  0
  150.7439  137.5137  155.1165 C   0  0  0  0  0  0  0  0  0  0  0  0
  150.5588  138.8997  154.4834 C   0  0  0  0  0  0  0  0  0  0  0  0
  147.1713  140.9020  154.0118 C   0  0  0  0  0  0  0  0  0  0  0  0
  146.3638  140.3009  154.8867 F   0  0  0  0  0  0  0  0  0  0  0  0
  146.8778  142.2016  154.0163 F   0  0  0  0  0  0  0  0  0  0  0  0
  146.9277  140.4077  152.7974 F   0  0  0  0  0  0  0  0  0  0  0  0
  151.2521  142.0655  159.5223 N   0  0  0  0  0  0  0  0  0  0  0  0
  153.8010  143.0765  161.3841 H   0  0  0  0  0  0  0  0  0  0  0  0
  153.1068  141.4438  161.3313 H   0  0  0  0  0  0  0  0  0  0  0  0
  152.1740  142.7847  162.0327 H   0  0  0  0  0  0  0  0  0  0  0  0
  153.5142  144.4160  159.2141 H   0  0  0  0  0  0  0  0  0  0  0  0
  151.8563  144.2263  157.0529 H   0  0  0  0  0  0  0  0  0  0  0  0
  149.0064  142.3027  157.7825 H   0  0  0  0  0  0  0  0  0  0  0  0
  148.0602  141.5325  156.2464 H   0  0  0  0  0  0  0  0  0  0  0  0
  149.2661  141.1524  153.6579 H   0  0  0  0  0  0  0  0  0  0  0  0
  148.6283  138.6567  153.5931 H   0  0  0  0  0  0  0  0  0  0  0  0
  148.7486  139.0223  156.6030 H   0  0  0  0  0  0  0  0  0  0  0  0
  147.4892  138.2029  155.6841 H   0  0  0  0  0  0  0  0  0  0  0  0
  149.5183  136.7736  156.7803 H   0  0  0  0  0  0  0  0  0  0  0  0
  148.9170  136.3657  155.1784 H   0  0  0  0  0  0  0  0  0  0  0  0
  151.5463  137.5348  155.8547 H   0  0  0  0  0  0  0  0  0  0  0  0
  151.0142  136.7725  154.3634 H   0  0  0  0  0  0  0  0  0  0  0  0
  150.9998  138.9501  153.4875 H   0  0  0  0  0  0  0  0  0  0  0  0
  151.0593  139.6459  155.1021 H   0  0  0  0  0  0  0  0  0  0  0  0
  1  2  1  0  0  0  0
  1 21  1  0  0  0  0
  1 22  1  0  0  0  0
  1 23  1  0  0  0  0
  2 20  1  0  0  0  0
  2  3  1  0  0  0  0
  3  4  2  0  0  0  0
  3 24  1  0  0  0  0
  4  5  1  0  0  0  0
  4 25  1  0  0  0  0
  5  6  1  0  0  0  0
  5 20  2  0  0  0  0
  6  7  1  0  0  0  0
  6 26  1  0  0  0  0
  7  8  2  0  0  0  0
  7  9  1  0  0  0  0
  9 10  1  0  0  0  0
  9 27  1  0  0  0  0
 10 11  1  0  0  0  0
 10 16  1  0  0  0  0
 10 28  1  0  0  0  0
 11 15  1  0  0  0  0
 11 12  1  0  0  0  0
 11 29  1  0  0  0  0
 12 13  1  0  0  0  0
 12 30  1  0  0  0  0
 12 31  1  0  0  0  0
 13 14  1  0  0  0  0
 13 32  1  0  0  0  0
 13 33  1  0  0  0  0
 14 15  1  0  0  0  0
 14 34  1  0  0  0  0
 14 35  1  0  0  0  0
 15 36  1  0  0  0  0
 15 37  1  0  0  0  0
 16 17  1  0  0  0  0
 16 18  1  0  0  0  0
 16 19  1  0  0  0  0
M  END
> <s_m_source_file>
AV-unprocessed.smi

> <i_m_source_file_index>
2318

> <i_lp_mmshare_version>
43012

> <i_f3d_flags>
0

> <s_epik_input>
W0NIM11uMVtjSF1bY0hdYyhuMSlbTkhdQyg9TylbTkhdW0NAQEhdKEMoRikoRilGKVtDSF0yW0NIMl1bQ0gyXVtDSDJdW0NIMl0y

> <s_epik_cmdline>
J2VwaWtfcHl0aG9uJywgJy1waCcsICc3LjAnLCAnLXRuJywgJzgnLCAnLW1hJywgJzIwMCcsICctbWV0YWxfYmluZGluZycsICctaW1hZScsICc8aW5maWxlLm1hZT4nLCAnLW9tYWUnLCAnPG91dGZpbGUubWFlPic=

> <r_lp_tautomer_probability>
1

> <r_epik_Ionization_Penalty>
2.39546e-05

> <r_epik_Ionization_Penalty_Charging>
0

> <r_epik_Ionization_Penalty_Neutral>
2.39546e-05

> <r_epik_State_Penalty>
-0

> <r_epik_Charging_Adjusted_Penalty>
0

> <i_epik_Tot_Q>
0

> <i_epik_Tot_abs_Q>
0

> <r_epik_Metal_State_Penalty>
-0

> <b_epik_Metal_Only>
0

> <s_lp_Force_Field>
OPLS_2005

> <r_lp_Energy>
23.5829

> <b_lp_Chiralities_Consistent>
1

> <s_lp_Variant>
AV-unprocessed.smi:2318-2

> <Gold.Version>
5.8.1

> <Gold.Id.Protein>
6NUR|6NUR_protein|mol2

> <Gold.PLP.Fitness>
38.9765

> <Gold.PLP.PLP>
-40.1112

> <Gold.PLP.part.hbond>
-1.7808

> <Gold.PLP.part.metal>
0.0000

> <Gold.PLP.part.buried>
-1.3212

> <Gold.PLP.part.nonpolar>
-36.6369

> <Gold.PLP.part.repulsive>
0.1620

> <Gold.PLP.ligand.clash>
0.0000

> <Gold.PLP.ligand.torsion>
1.0369

> <Gold.PLP.Chemscore.Hbond>
0.2262

> <Gold.PLP.Chemscore.CHOScore>
0.0000

> <Gold.PLP.Chemscore.Metal>
0.0000

> <Gold.Chemscore.Hbonds>
donor molecule, donor type, donor heavy atom, donor atom, acceptor molecule, acceptor atom, score
      P1  H  7989  7998       L1     8  0.20

> <Gold.PLP.Chemscore.Internal.Correction>
0.2605

> <Gold.Rescore>
     Score         DG    S(hbond)    S(metal)    S(lipo)     H(rot)  DE(clash)    DE(int)     intcor
      9.45     -12.29       0.45        0.00      73.72       1.30       0.36       2.49       ----

> <Gold.Chemscore.Fitness>
9.4464

> <Gold.Chemscore.DG>
-12.2901

> <Gold.Chemscore.ZeroCoef>
-5.4800

> <Gold.Chemscore.Hbond>
0.4532

> <Gold.Chemscore.Metal>
0.0000

> <Gold.Chemscore.Lipo>
73.7192

> <Gold.Chemscore.Internal_Hbond>
0.0000

> <Gold.Chemscore.DEClash>
0.3552

> <Gold.Chemscore.DEInternal>
2.4885

> <Gold.Chemscore.Rot>
1.3003

> <Gold.Chemscore.Internal.Correction>
   9.000000E+99

> <Gold.Chemscore.Hbonds>
donor molecule, donor type, donor heavy atom, donor atom, acceptor molecule, acceptor atom, score
      P1  H  7989  7998       L1     8  0.20

> <Gold.Chemscore.Hbond.Weighted>
-1.5137

> <Gold.Chemscore.Metal.Weighted>
-0.0000

> <Gold.Chemscore.Lipo.Weighted>
-8.6252

> <Gold.Chemscore.Internal_Hbond.Weighted>
0.0000

> <Gold.Chemscore.DEClash.Weighted>
0.3552

> <Gold.Chemscore.DEInternal.Weighted>
2.4885

> <Gold.Chemscore.Rot.Weighted>
3.3287

> <Gold.Chemscore.Internal.Correction.Weighted>
   9.000000E+99

> <Gold.Protein.RotatedTorsions>
[ 6907 6896 6895 6894 ] final  170.78 input  -60.11 | X-H torsion
[ 7974 7965 7964 7962 ] final -146.29 input  175.53 | X-H torsion
[ 8008 7997 7996 7995 ] final   10.70 input   59.86 | X-H torsion
[ 10167 10162 10161 10158 ] final  -56.40 input  -65.29 | X-H torsion
[ 10718 10713 10712 10709 ] final  -51.02 input   66.30 | X-H torsion
[ 10763 10752 10751 10750 ] final   19.65 input  -60.55 | X-H torsion
[ 11005 11000 10999 10996 ] final  123.84 input  -57.11 | X-H torsion

> <Gold.Protein.ActiveResidues>
 VAL166  LYS551  ARG553  GLY616  TRP617  ASP618  TYR619  PRO620  LYS621  CYS622 
 ASP623  PHE694  ASN695  SER759  ASP760  ASP761  ALA762  ILE779  LEU786  VAL792 
 PHE793  MET794  SER795  GLU796  ALA797  LYS798  CYS799  TRP800  GLU811  SER814 

> <Gold.Protein.RotatedAtoms>
  151.8107  133.3381  159.3554 H   0  0  0  0  0  0  0  0  0  0  0  0  # atno 6907 bound_to 6896
  150.7327  134.5667  159.5879 H   0  0  0  0  0  0  0  0  0  0  0  0  # atno 6908 bound_to 6896
  152.3077  134.7536  160.0395 H   0  0  0  0  0  0  0  0  0  0  0  0  # atno 6909 bound_to 6896
  144.8170  140.5475  143.5604 H   0  0  0  0  0  0  0  0  0  0  0  0  # atno 7974 bound_to 7965
  154.7969  140.2845  155.5950 H   0  0  0  0  0  0  0  0  0  0  0  0  # atno 8008 bound_to 7997
  156.2972  140.2594  156.2757 H   0  0  0  0  0  0  0  0  0  0  0  0  # atno 8009 bound_to 7997
  154.9604  140.0377  157.2177 H   0  0  0  0  0  0  0  0  0  0  0  0  # atno 8010 bound_to 7997
  140.6319  143.2463  151.5218 H   0  0  0  0  0  0  0  0  0  0  0  0  # atno 10167 bound_to 10162
  156.1747  130.4149  149.9594 H   0  0  0  0  0  0  0  0  0  0  0  0  # atno 10718 bound_to 10713
  153.1144  135.6704  153.9444 H   0  0  0  0  0  0  0  0  0  0  0  0  # atno 10763 bound_to 10752
  153.8978  135.3039  155.3449 H   0  0  0  0  0  0  0  0  0  0  0  0  # atno 10764 bound_to 10752
  154.7561  135.5011  153.9455 H   0  0  0  0  0  0  0  0  0  0  0  0  # atno 10765 bound_to 10752
  139.9331  134.9641  156.8319 H   0  0  0  0  0  0  0  0  0  0  0  0  # atno 11005 bound_to 11000
  145.5192  139.1477  143.3561 LP  0  0  0  0  0  0  0  0  0  0  0  0  # atno 17320 bound_to 7965
  146.2473  140.5333  142.8908 LP  0  0  0  0  0  0  0  0  0  0  0  0  # atno 17321 bound_to 7965
  139.5533  144.2340  152.1568 LP  0  0  0  0  0  0  0  0  0  0  0  0  # atno 17342 bound_to 10162
  140.1586  144.5047  150.6645 LP  0  0  0  0  0  0  0  0  0  0  0  0  # atno 17343 bound_to 10162
  156.7384  130.9070  151.3630 LP  0  0  0  0  0  0  0  0  0  0  0  0  # atno 17370 bound_to 10713
  157.6827  130.9156  150.0308 LP  0  0  0  0  0  0  0  0  0  0  0  0  # atno 17371 bound_to 10713
  140.6149  134.0048  155.7593 LP  0  0  0  0  0  0  0  0  0  0  0  0  # atno 17394 bound_to 11000
  141.0930  133.9887  157.3206 LP  0  0  0  0  0  0  0  0  0  0  0  0  # atno 17395 bound_to 11000

$$$$
