AV-unprocessed.smi:1225|AV-procd|sdf|5142|dock5
  -GOLD-   22720 4213D 1   1.00000     0.00000
 Structure written by MMmdl.
 49 51  0  0  0  0  0  0  0  0  2 V2000
  144.7639  133.2070  151.6565 C   0  0  0  0  0  0  0  0  0  0  0  0
  145.0445  134.6012  152.1026 C   0  0  0  0  0  0  0  0  0  0  0  0
  144.2607  135.6420  151.8127 N   0  0  0  0  0  0  0  0  0  0  0  0
  144.7444  136.8391  152.3437 C   0  0  0  0  0  0  0  0  0  0  0  0
  145.9094  136.6993  153.0572 C   0  0  0  0  0  0  0  0  0  0  0  0
  146.6821  137.7741  153.7506 C   0  0  0  0  0  0  0  0  0  0  0  0
  147.5342  138.5468  152.8106 N   0  3  1  0  0  0  0  0  0  0  0  0
  146.8668  138.7942  151.5110 C   0  0  0  0  0  0  0  0  0  0  0  0
  148.0764  139.7951  153.4047 C   0  0  0  0  0  0  0  0  0  0  0  0
  149.3073  139.5294  154.3009 C   0  0  1  0  0  0  0  0  0  0  0  0
  150.4399  139.3378  153.4774 O   0  0  0  0  0  0  0  0  0  0  0  0
  149.6242  140.6809  155.2748 C   0  0  0  0  0  0  0  0  0  0  0  0
  150.5865  140.3005  156.2925 N   0  0  0  0  0  0  0  0  0  0  0  0
  151.1743  139.0978  156.4410 C   0  0  0  0  0  0  0  0  0  0  0  0
  152.0265  138.9578  157.4520 N   0  0  0  0  0  0  0  0  0  0  0  0
  151.9947  140.2192  158.0215 C   0  0  0  0  0  0  0  0  0  0  0  0
  152.6810  140.7372  159.1414 C   0  0  0  0  0  0  0  0  0  0  0  0
  152.4919  142.0760  159.5518 C   0  0  0  0  0  0  0  0  0  0  0  0
  153.2520  142.5919  160.7611 C   0  0  0  0  0  0  0  0  0  0  0  0
  151.6036  142.9195  158.8374 C   0  0  0  0  0  0  0  0  0  0  0  0
  151.3875  144.3625  159.2582 C   0  0  0  0  0  0  0  0  0  0  0  0
  150.9080  142.4175  157.7178 C   0  0  0  0  0  0  0  0  0  0  0  0
  151.1055  141.0836  157.3184 C   0  0  0  0  0  0  0  0  0  0  0  0
  146.4501  135.0398  153.0656 S   0  0  0  0  0  0  0  0  0  0  0  0
  143.7711  133.1374  151.2106 H   0  0  0  0  0  0  0  0  0  0  0  0
  144.8124  132.5262  152.5064 H   0  0  0  0  0  0  0  0  0  0  0  0
  145.5023  132.8976  150.9169 H   0  0  0  0  0  0  0  0  0  0  0  0
  144.1907  137.7498  152.1687 H   0  0  0  0  0  0  0  0  0  0  0  0
  146.0086  138.4521  154.2771 H   0  0  0  0  0  0  0  0  0  0  0  0
  147.2941  137.3074  154.5215 H   0  0  0  0  0  0  0  0  0  0  0  0
  145.9867  139.4257  151.6386 H   0  0  0  0  0  0  0  0  0  0  0  0
  146.5532  137.8613  151.0430 H   0  0  0  0  0  0  0  0  0  0  0  0
  147.5452  139.2899  150.8160 H   0  0  0  0  0  0  0  0  0  0  0  0
  148.3699  140.4897  152.6158 H   0  0  0  0  0  0  0  0  0  0  0  0
  147.2785  140.2895  153.9603 H   0  0  0  0  0  0  0  0  0  0  0  0
  149.1642  138.6191  154.8822 H   0  0  0  0  0  0  0  0  0  0  0  0
  150.8456  138.5146  153.7047 H   0  0  0  0  0  0  0  0  0  0  0  0
  150.0255  141.5373  154.7308 H   0  0  0  0  0  0  0  0  0  0  0  0
  148.7144  141.0252  155.7680 H   0  0  0  0  0  0  0  0  0  0  0  0
  150.9606  138.2770  155.7717 H   0  0  0  0  0  0  0  0  0  0  0  0
  153.3585  140.0949  159.6847 H   0  0  0  0  0  0  0  0  0  0  0  0
  153.9007  143.4216  160.4793 H   0  0  0  0  0  0  0  0  0  0  0  0
  153.8764  141.8139  161.2011 H   0  0  0  0  0  0  0  0  0  0  0  0
  152.5598  142.9381  161.5291 H   0  0  0  0  0  0  0  0  0  0  0  0
  150.6912  144.8721  158.5919 H   0  0  0  0  0  0  0  0  0  0  0  0
  152.3292  144.9114  159.2398 H   0  0  0  0  0  0  0  0  0  0  0  0
  150.9796  144.4087  160.2681 H   0  0  0  0  0  0  0  0  0  0  0  0
  150.2287  143.0506  157.1666 H   0  0  0  0  0  0  0  0  0  0  0  0
  148.3394  137.9710  152.6083 H   0  0  0  0  0  0  0  0  0  0  0  0
  1  2  1  0  0  0  0
  1 25  1  0  0  0  0
  1 26  1  0  0  0  0
  1 27  1  0  0  0  0
  2 24  1  0  0  0  0
  2  3  2  0  0  0  0
  3  4  1  0  0  0  0
  4  5  2  0  0  0  0
  4 28  1  0  0  0  0
  5  6  1  0  0  0  0
  5 24  1  0  0  0  0
  6  7  1  0  0  0  0
  6 29  1  0  0  0  0
  6 30  1  0  0  0  0
  7  8  1  0  0  0  0
  7  9  1  0  0  0  0
  7 49  1  0  0  0  0
  8 31  1  0  0  0  0
  8 32  1  0  0  0  0
  8 33  1  0  0  0  0
  9 10  1  0  0  0  0
  9 34  1  0  0  0  0
  9 35  1  0  0  0  0
 10 11  1  0  0  0  0
 10 12  1  0  0  0  0
 10 36  1  0  0  0  0
 11 37  1  0  0  0  0
 12 13  1  0  0  0  0
 12 38  1  0  0  0  0
 12 39  1  0  0  0  0
 13 23  1  0  0  0  0
 13 14  1  0  0  0  0
 14 15  2  0  0  0  0
 14 40  1  0  0  0  0
 15 16  1  0  0  0  0
 16 23  2  0  0  0  0
 16 17  1  0  0  0  0
 17 18  2  0  0  0  0
 17 41  1  0  0  0  0
 18 19  1  0  0  0  0
 18 20  1  0  0  0  0
 19 42  1  0  0  0  0
 19 43  1  0  0  0  0
 19 44  1  0  0  0  0
 20 21  1  0  0  0  0
 20 22  2  0  0  0  0
 21 45  1  0  0  0  0
 21 46  1  0  0  0  0
 21 47  1  0  0  0  0
 22 23  1  0  0  0  0
 22 48  1  0  0  0  0
M  CHG  1   7   1
M  END
> <s_m_source_file>
AV-unprocessed.smi

> <i_m_source_file_index>
1225

> <i_lp_mmshare_version>
43012

> <i_f3d_flags>
0

> <s_epik_input>
W0NIM11jMW5bY0hdYyhzMSlbQ0gyXU4oW0NIM10pW0NIMl1bQ0BIXShbT0hdKVtDSDJdbihbY0hdbjIpYyhjMjMpW2NIXWMoW0NIM10pYyhbY0hdMylbQ0gzXQ==

> <s_epik_cmdline>
J2VwaWtfcHl0aG9uJywgJy1waCcsICc3LjAnLCAnLXRuJywgJzgnLCAnLW1hJywgJzIwMCcsICctbWV0YWxfYmluZGluZycsICctaW1hZScsICc8aW5maWxlLm1hZT4nLCAnLW9tYWUnLCAnPG91dGZpbGUubWFlPic=

> <r_epik_Ionization_Penalty>
1.62543

> <r_epik_Ionization_Penalty_Charging>
1.53932

> <r_epik_Ionization_Penalty_Neutral>
0.0861152

> <r_epik_State_Penalty>
1.73127

> <r_epik_Charging_Adjusted_Penalty>
3.27059

> <i_epik_Tot_Q>
1

> <i_epik_Tot_abs_Q>
1

> <r_epik_Metal_State_Penalty>
1.71387

> <b_epik_Metal_Only>
0

> <s_lp_Force_Field>
OPLS_2005

> <r_lp_Energy>
12.5973

> <b_lp_Chiralities_Consistent>
1

> <s_lp_Variant>
AV-unprocessed.smi:1225-7

> <Gold.Version>
5.8.1

> <Gold.Id.Protein>
6NUR|6NUR_protein|mol2

> <Gold.PLP.Fitness>
53.3046

> <Gold.PLP.PLP>
-41.0955

> <Gold.PLP.part.hbond>
-3.8250

> <Gold.PLP.part.metal>
0.0000

> <Gold.PLP.part.buried>
2.7772

> <Gold.PLP.part.nonpolar>
-40.1746

> <Gold.PLP.part.repulsive>
0.1911

> <Gold.PLP.ligand.clash>
0.0000

> <Gold.PLP.ligand.torsion>
0.9358

> <Gold.PLP.Chemscore.Hbond>
2.8480

> <Gold.PLP.Chemscore.CHOScore>
1.7447

> <Gold.PLP.Chemscore.Metal>
0.0000

> <Gold.Chemscore.Hbonds>
donor molecule, donor type, donor heavy atom, donor atom, acceptor molecule, acceptor atom, score
      L1  H     7    49       P1  7948  1.82
      P1  H  7989  7998       L1    11  0.83
      L1  C     4    28       P1 10171  0.81
      L1  C     4    28       P1 10175  0.44

> <Gold.PLP.Chemscore.Internal.Correction>
0.3027

> <Gold.Rescore>
     Score         DG    S(hbond)    S(metal)    S(lipo)     H(rot)  DE(clash)    DE(int)     intcor
     16.03     -18.47       1.59        0.00     117.66       2.37       0.63       1.82       ----

> <Gold.Chemscore.Fitness>
16.0254

> <Gold.Chemscore.DG>
-18.4743

> <Gold.Chemscore.ZeroCoef>
-5.4800

> <Gold.Chemscore.Hbond>
1.5893

> <Gold.Chemscore.Metal>
0.0000

> <Gold.Chemscore.Lipo>
117.6589

> <Gold.Chemscore.Internal_Hbond>
0.0000

> <Gold.Chemscore.DEClash>
0.6322

> <Gold.Chemscore.DEInternal>
1.8167

> <Gold.Chemscore.Rot>
2.3750

> <Gold.Chemscore.Internal.Correction>
   9.000000E+99

> <Gold.Chemscore.Hbonds>
donor molecule, donor type, donor heavy atom, donor atom, acceptor molecule, acceptor atom, score
      L1  H     7    49       P1  7948  0.88
      P1  H  7989  7998       L1    11  0.63

> <Gold.Chemscore.Hbond.Weighted>
-5.3082

> <Gold.Chemscore.Metal.Weighted>
-0.0000

> <Gold.Chemscore.Lipo.Weighted>
-13.7661

> <Gold.Chemscore.Internal_Hbond.Weighted>
0.0000

> <Gold.Chemscore.DEClash.Weighted>
0.6322

> <Gold.Chemscore.DEInternal.Weighted>
1.8167

> <Gold.Chemscore.Rot.Weighted>
6.0800

> <Gold.Chemscore.Internal.Correction.Weighted>
   9.000000E+99

> <Gold.Protein.RotatedTorsions>
[ 6907 6896 6895 6894 ] final  -51.21 input  -60.11 | X-H torsion
[ 7974 7965 7964 7962 ] final  -90.27 input  175.53 | X-H torsion
[ 8008 7997 7996 7995 ] final   36.44 input   59.86 | X-H torsion
[ 10167 10162 10161 10158 ] final  155.16 input  -65.29 | X-H torsion
[ 10718 10713 10712 10709 ] final -176.95 input   66.30 | X-H torsion
[ 10763 10752 10751 10750 ] final  -53.70 input  -60.55 | X-H torsion
[ 11005 11000 10999 10996 ] final   56.67 input  -57.11 | X-H torsion

> <Gold.Protein.ActiveResidues>
 VAL166  LYS551  ARG553  GLY616  TRP617  ASP618  TYR619  PRO620  LYS621  CYS622 
 ASP623  PHE694  ASN695  SER759  ASP760  ASP761  ALA762  ILE779  LEU786  VAL792 
 PHE793  MET794  SER795  GLU796  ALA797  LYS798  CYS799  TRP800  GLU811  SER814 

> <Gold.Protein.RotatedAtoms>
  150.8633  134.7990  159.7098 H   0  0  0  0  0  0  0  0  0  0  0  0  # atno 6907 bound_to 6896
  152.4662  134.5065  159.9750 H   0  0  0  0  0  0  0  0  0  0  0  0  # atno 6908 bound_to 6896
  151.5166  133.3436  159.2929 H   0  0  0  0  0  0  0  0  0  0  0  0  # atno 6909 bound_to 6896
  145.4287  140.9555  143.2140 H   0  0  0  0  0  0  0  0  0  0  0  0  # atno 7974 bound_to 7965
  155.1874  140.3305  155.4364 H   0  0  0  0  0  0  0  0  0  0  0  0  # atno 8008 bound_to 7997
  156.2454  140.1916  156.6919 H   0  0  0  0  0  0  0  0  0  0  0  0  # atno 8009 bound_to 7997
  154.6229  140.0593  156.9623 H   0  0  0  0  0  0  0  0  0  0  0  0  # atno 8010 bound_to 7997
  139.4822  144.5123  151.8005 H   0  0  0  0  0  0  0  0  0  0  0  0  # atno 10167 bound_to 10162
  156.8223  130.9624  151.3111 H   0  0  0  0  0  0  0  0  0  0  0  0  # atno 10718 bound_to 10713
  154.1631  135.6471  153.4990 H   0  0  0  0  0  0  0  0  0  0  0  0  # atno 10763 bound_to 10752
  153.0105  135.5365  154.6691 H   0  0  0  0  0  0  0  0  0  0  0  0  # atno 10764 bound_to 10752
  154.6009  135.2943  155.0508 H   0  0  0  0  0  0  0  0  0  0  0  0  # atno 10765 bound_to 10752
  140.0511  134.5735  155.9262 H   0  0  0  0  0  0  0  0  0  0  0  0  # atno 11005 bound_to 11000
  144.8197  139.5814  143.6992 LP  0  0  0  0  0  0  0  0  0  0  0  0  # atno 17320 bound_to 7965
  146.2618  139.6428  142.9356 LP  0  0  0  0  0  0  0  0  0  0  0  0  # atno 17321 bound_to 7965
  140.4628  144.1698  150.5908 LP  0  0  0  0  0  0  0  0  0  0  0  0  # atno 17342 bound_to 10162
  140.4466  143.2504  151.9403 LP  0  0  0  0  0  0  0  0  0  0  0  0  # atno 17343 bound_to 10162
  157.6450  130.8837  149.9521 LP  0  0  0  0  0  0  0  0  0  0  0  0  # atno 17370 bound_to 10713
  156.0982  130.3658  150.0268 LP  0  0  0  0  0  0  0  0  0  0  0  0  # atno 17371 bound_to 10713
  141.1931  133.6577  156.5531 LP  0  0  0  0  0  0  0  0  0  0  0  0  # atno 17394 bound_to 11000
  140.3916  134.7435  157.4725 LP  0  0  0  0  0  0  0  0  0  0  0  0  # atno 17395 bound_to 11000

$$$$
