AV-unprocessed.smi:53|AV-procd|sdf|524|dock3
  -GOLD-   2262016393D 1   1.00000     0.00000
 Structure written by MMmdl.
 30 31  0  0  0  0  0  0  0  0  1 V2000
  147.6783  142.5206  154.3244 N   0  0  0  0  0  0  0  0  0  0  0  0
  148.3922  141.4572  154.7191 C   0  0  0  0  0  0  0  0  0  0  0  0
  147.8744  140.1203  154.5342 C   0  0  0  0  0  0  0  0  0  0  0  0
  148.6526  139.1014  154.9600 C   0  0  0  0  0  0  0  0  0  0  0  0
  149.8898  139.3118  155.5520 N   0  0  0  0  0  0  0  0  0  0  0  0
  150.7364  138.1431  156.0133 C   0  0  1  0  0  0  0  0  0  0  0  0
  150.0102  137.4155  156.9585 O   0  0  0  0  0  0  0  0  0  0  0  0
  150.1865  136.0242  156.7220 C   0  0  1  0  0  0  0  0  0  0  0  0
  149.0607  135.2072  157.3806 C   0  0  0  0  0  0  0  0  0  0  0  0
  149.1035  135.3557  158.7840 O   0  0  0  0  0  0  0  0  0  0  0  0
  150.3262  135.9205  155.1961 C   0  0  1  0  0  0  0  0  0  0  0  0
  149.0559  135.8887  154.5665 O   0  0  0  0  0  0  0  0  0  0  0  0
  151.1172  137.1827  154.8640 C   0  0  1  0  0  0  0  0  0  0  0  0
  150.8800  137.6623  153.5514 O   0  0  0  0  0  0  0  0  0  0  0  0
  150.3755  140.6328  155.7096 C   0  0  0  0  0  0  0  0  0  0  0  0
  151.4769  140.8687  156.2051 O   0  0  0  0  0  0  0  0  0  0  0  0
  149.5721  141.6530  155.2752 N   0  0  0  0  0  0  0  0  0  0  0  0
  151.6093  138.5583  156.5192 H   0  0  0  0  0  0  0  0  0  0  0  0
  151.1395  135.7469  157.1767 H   0  0  0  0  0  0  0  0  0  0  0  0
  150.8687  135.0211  154.9028 H   0  0  0  0  0  0  0  0  0  0  0  0
  152.1824  136.9700  154.9640 H   0  0  0  0  0  0  0  0  0  0  0  0
  148.0428  143.4535  154.4532 H   0  0  0  0  0  0  0  0  0  0  0  0
  146.7729  142.3850  153.8981 H   0  0  0  0  0  0  0  0  0  0  0  0
  146.9159  139.9103  154.0817 H   0  0  0  0  0  0  0  0  0  0  0  0
  148.2831  138.0953  154.8276 H   0  0  0  0  0  0  0  0  0  0  0  0
  148.0920  135.5620  157.0281 H   0  0  0  0  0  0  0  0  0  0  0  0
  149.1240  134.1508  157.1191 H   0  0  0  0  0  0  0  0  0  0  0  0
  148.4651  134.7738  159.1676 H   0  0  0  0  0  0  0  0  0  0  0  0
  149.1762  136.0639  153.6455 H   0  0  0  0  0  0  0  0  0  0  0  0
  150.0734  137.2800  153.2400 H   0  0  0  0  0  0  0  0  0  0  0  0
  1  2  1  0  0  0  0
  1 22  1  0  0  0  0
  1 23  1  0  0  0  0
  2 17  2  0  0  0  0
  2  3  1  0  0  0  0
  3  4  2  0  0  0  0
  3 24  1  0  0  0  0
  4  5  1  0  0  0  0
  4 25  1  0  0  0  0
  5  6  1  0  0  0  0
  5 15  1  0  0  0  0
  6 18  1  0  0  0  0
  6 13  1  0  0  0  0
  6  7  1  0  0  0  0
  7  8  1  0  0  0  0
  8 19  1  0  0  0  0
  8  9  1  0  0  0  0
  8 11  1  0  0  0  0
  9 10  1  0  0  0  0
  9 26  1  0  0  0  0
  9 27  1  0  0  0  0
 10 28  1  0  0  0  0
 11 20  1  0  0  0  0
 11 12  1  0  0  0  0
 11 13  1  0  0  0  0
 12 29  1  0  0  0  0
 13 21  1  0  0  0  0
 13 14  1  0  0  0  0
 14 30  1  0  0  0  0
 15 16  2  0  0  0  0
 15 17  1  0  0  0  0
M  END
> <s_m_source_file>
AV-unprocessed.smi

> <i_m_source_file_index>
53

> <i_lp_mmshare_version>
43012

> <i_f3d_flags>
0

> <s_epik_input>
W05IMl1jMVtjSF1bY0hdbihjKD1PKW4xKVtDQEBIXTJPW0NASF0oW0NIMl1bT0hdKVtDQEBIXShbT0hdKVtDQEBIXTJbT0hd

> <s_epik_cmdline>
J2VwaWtfcHl0aG9uJywgJy1waCcsICc3LjAnLCAnLXRuJywgJzgnLCAnLW1hJywgJzIwMCcsICctbWV0YWxfYmluZGluZycsICctaW1hZScsICc8aW5maWxlLm1hZT4nLCAnLW9tYWUnLCAnPG91dGZpbGUubWFlPic=

> <r_lp_tautomer_probability>
0.99996

> <r_epik_Ionization_Penalty>
0.00069087

> <r_epik_Ionization_Penalty_Charging>
2.61959e-08

> <r_epik_Ionization_Penalty_Neutral>
0.000690844

> <r_epik_State_Penalty>
1.15523e-05

> <r_epik_Charging_Adjusted_Penalty>
1.15785e-05

> <i_epik_Tot_Q>
0

> <i_epik_Tot_abs_Q>
0

> <r_epik_Metal_State_Penalty>
-0

> <b_epik_Metal_Only>
0

> <s_epik_Chemistry_Notes>
This compound contains an acetal/aminal-like group ( X-CH(R)-Y where X, Y are N, S, or O) that may be acid/base labile, releasing an aldehyde.

> <s_lp_Force_Field>
OPLS_2005

> <r_lp_Energy>
39.3068

> <b_lp_Chiralities_Consistent>
1

> <s_lp_Variant>
AV-unprocessed.smi:53-12

> <Gold.Version>
5.8.1

> <Gold.Id.Protein>
6NUR|6NUR_protein|mol2

> <Gold.PLP.Fitness>
30.3449

> <Gold.PLP.PLP>
-18.4493

> <Gold.PLP.part.hbond>
-5.0000

> <Gold.PLP.part.metal>
0.0000

> <Gold.PLP.part.buried>
-3.5639

> <Gold.PLP.part.nonpolar>
-11.1156

> <Gold.PLP.part.repulsive>
0.3306

> <Gold.PLP.ligand.clash>
0.0000

> <Gold.PLP.ligand.torsion>
0.0083

> <Gold.PLP.Chemscore.Hbond>
3.9680

> <Gold.PLP.Chemscore.CHOScore>
0.0000

> <Gold.PLP.Chemscore.Metal>
0.0000

> <Gold.Chemscore.Hbonds>
donor molecule, donor type, donor heavy atom, donor atom, acceptor molecule, acceptor atom, score
      L1  H     1    22       P1  8028  0.98
      L1  H    12    29       P1  7948  1.00
      L1  H    14    30       P1  7948  0.90
      P1  H  6896  6909       L1    10  1.00

> <Gold.PLP.Chemscore.Internal.Correction>
0.0081

> <Gold.Rescore>
     Score         DG    S(hbond)    S(metal)    S(lipo)     H(rot)  DE(clash)    DE(int)     intcor
      9.11      -9.26       3.26        0.00      20.52       3.71       0.00       0.14       ----

> <Gold.Chemscore.Fitness>
9.1126

> <Gold.Chemscore.DG>
-9.2572

> <Gold.Chemscore.ZeroCoef>
-5.4800

> <Gold.Chemscore.Hbond>
3.2554

> <Gold.Chemscore.Metal>
0.0000

> <Gold.Chemscore.Lipo>
20.5174

> <Gold.Chemscore.Internal_Hbond>
0.0000

> <Gold.Chemscore.DEClash>
0.0029

> <Gold.Chemscore.DEInternal>
0.1417

> <Gold.Chemscore.Rot>
3.7095

> <Gold.Chemscore.Internal.Correction>
   9.000000E+99

> <Gold.Chemscore.Hbonds>
donor molecule, donor type, donor heavy atom, donor atom, acceptor molecule, acceptor atom, score
      L1  H     1    22       P1  8028  0.80
      L1  H    12    29       P1  7948  0.88
      L1  H    14    30       P1  7948  0.16
      P1  H  6896  6909       L1    10  0.23

> <Gold.Chemscore.Hbond.Weighted>
-10.8731

> <Gold.Chemscore.Metal.Weighted>
-0.0000

> <Gold.Chemscore.Lipo.Weighted>
-2.4005

> <Gold.Chemscore.Internal_Hbond.Weighted>
0.0000

> <Gold.Chemscore.DEClash.Weighted>
0.0029

> <Gold.Chemscore.DEInternal.Weighted>
0.1417

> <Gold.Chemscore.Rot.Weighted>
9.4964

> <Gold.Chemscore.Internal.Correction.Weighted>
   9.000000E+99

> <Gold.Protein.RotatedTorsions>
[ 6907 6896 6895 6894 ] final   58.71 input  -60.11 | X-H torsion
[ 7974 7965 7964 7962 ] final  -51.73 input  175.53 | X-H torsion
[ 8008 7997 7996 7995 ] final  129.93 input   59.86 | X-H torsion
[ 10167 10162 10161 10158 ] final  168.00 input  -65.29 | X-H torsion
[ 10718 10713 10712 10709 ] final   50.72 input   66.30 | X-H torsion
[ 10763 10752 10751 10750 ] final   -5.20 input  -60.55 | X-H torsion
[ 11005 11000 10999 10996 ] final   30.86 input  -57.11 | X-H torsion

> <Gold.Protein.ActiveResidues>
 VAL166  LYS551  ARG553  GLY616  TRP617  ASP618  TYR619  PRO620  LYS621  CYS622 
 ASP623  PHE694  ASN695  SER759  ASP760  ASP761  ALA762  ILE779  LEU786  VAL792 
 PHE793  MET794  SER795  GLU796  ALA797  LYS798  CYS799  TRP800  GLU811  SER814 

> <Gold.Protein.RotatedAtoms>
  152.3849  134.6533  160.0129 H   0  0  0  0  0  0  0  0  0  0  0  0  # atno 6907 bound_to 6896
  151.6785  133.3307  159.3221 H   0  0  0  0  0  0  0  0  0  0  0  0  # atno 6908 bound_to 6896
  150.7777  134.6738  159.6451 H   0  0  0  0  0  0  0  0  0  0  0  0  # atno 6909 bound_to 6896
  145.9158  140.7876  142.9672 H   0  0  0  0  0  0  0  0  0  0  0  0  # atno 7974 bound_to 7965
  156.2945  140.2608  156.2678 H   0  0  0  0  0  0  0  0  0  0  0  0  # atno 8008 bound_to 7997
  154.9725  140.0391  157.2259 H   0  0  0  0  0  0  0  0  0  0  0  0  # atno 8009 bound_to 7997
  154.7846  140.2801  155.6042 H   0  0  0  0  0  0  0  0  0  0  0  0  # atno 8010 bound_to 7997
  139.4958  144.3861  151.9569 H   0  0  0  0  0  0  0  0  0  0  0  0  # atno 10167 bound_to 10162
  157.4912  130.8377  149.8205 H   0  0  0  0  0  0  0  0  0  0  0  0  # atno 10718 bound_to 10713
  153.3953  135.7003  153.6465 H   0  0  0  0  0  0  0  0  0  0  0  0  # atno 10763 bound_to 10752
  153.5021  135.3650  155.2545 H   0  0  0  0  0  0  0  0  0  0  0  0  # atno 10764 bound_to 10752
  154.8706  135.4114  154.3278 H   0  0  0  0  0  0  0  0  0  0  0  0  # atno 10765 bound_to 10752
  140.2899  134.2876  155.7778 H   0  0  0  0  0  0  0  0  0  0  0  0  # atno 11005 bound_to 11000
  144.6747  140.1897  143.7398 LP  0  0  0  0  0  0  0  0  0  0  0  0  # atno 17320 bound_to 7965
  145.8614  139.2224  143.1714 LP  0  0  0  0  0  0  0  0  0  0  0  0  # atno 17321 bound_to 7965
  140.3298  144.3330  150.5990 LP  0  0  0  0  0  0  0  0  0  0  0  0  # atno 17342 bound_to 10162
  140.5654  143.2187  151.7692 LP  0  0  0  0  0  0  0  0  0  0  0  0  # atno 17343 bound_to 10162
  156.0174  130.3808  150.2066 LP  0  0  0  0  0  0  0  0  0  0  0  0  # atno 17370 bound_to 10713
  157.0255  130.9992  151.3327 LP  0  0  0  0  0  0  0  0  0  0  0  0  # atno 17371 bound_to 10713
  141.2148  133.7579  156.9609 LP  0  0  0  0  0  0  0  0  0  0  0  0  # atno 17394 bound_to 11000
  140.1205  134.9420  157.2196 LP  0  0  0  0  0  0  0  0  0  0  0  0  # atno 17395 bound_to 11000

$$$$
