#       Name:                AV-unprocessed.smi:226
#       Creating user name   scv26
#       Creation time:       Thu Mar 26 20:20:55 2020


#       File generated by GOLD software.
#

@<TRIPOS>MOLECULE
AV-unprocessed.smi:226
    63    67     1
SMALL
NO_CHARGES


@<TRIPOS>ATOM
      1 ****        -3.6598  -1.2968  -0.0946 O.2            1 S1                 0.0000
      2 ****        -3.3420  -0.8485   1.0081 C.2            1 S1                 0.0000
      3 ****        -2.9838  -1.6222   2.0429 N.am           1 S1                 0.0000
      4 ****        -2.8994  -3.0461   2.0243 C.3            1 S1                 0.0000
      5 ****        -3.2573  -3.7901   3.2926 C.3            1 S1                 0.0000
      6 ****        -1.8192  -3.6929   2.8636 C.3            1 S1                 0.0000
      7 ****        -3.3427   0.6683   1.2730 C.3            1 S1                 0.0000
      8 ****        -4.7252   1.1632   1.7329 C.3            1 S1                 0.0000
      9 ****        -5.4413   1.5526   0.4409 C.3            1 S1                 0.0000
     10 ****        -4.3098   2.0941  -0.4321 C.3            1 S1                 0.0000
     11 ****        -3.0978   1.4438   0.0568 N.pl3          1 S1                 0.0000
     12 ****        -1.8820   1.6270  -0.5302 C.ar           1 S1                 0.0000
     13 ****        -1.8335   2.3805  -1.6610 N.ar           1 S1                 0.0000
     14 ****        -0.6763   2.6002  -2.2891 C.ar           1 S1                 0.0000
     15 ****         0.5410   2.1651  -1.9666 N.ar           1 S1                 0.0000
     16 ****         0.5098   1.4064  -0.8347 C.ar           1 S1                 0.0000
     17 ****        -0.6433   1.0951  -0.0548 C.ar           1 S1                 0.0000
     18 ****        -0.2616   0.3177   1.0345 N.2            1 S1                 0.0000
     19 ****         1.0287   0.1798   0.9062 C.2            1 S1                 0.0000
     20 ****         1.5711   0.7778  -0.2067 N.pl3          1 S1                 0.0000
     21 ****         2.9576   0.8199  -0.5709 C.3            1 S1                 0.0000
     22 ****         3.3977   0.6100  -2.0225 C.3            1 S1                 0.0000
     23 ****         4.6560  -0.1487  -1.5460 C.3            1 S1                 0.0000
     24 ****         4.9430  -1.4645  -2.2857 C.3            1 S1                 0.0000
     25 ****         5.2269  -1.2369  -3.6513 O.3            1 S1                 0.0000
     26 ****         5.9817   0.6436  -1.4984 C.3            1 S1                 0.0000
     27 ****         5.8795   1.8638  -0.7924 O.3            1 S1                 0.0000
     28 ****         3.9124  -0.3205  -0.2021 C.3            1 S1                 0.0000
     29 ****        -2.7400  -1.1646   2.9094 H              1 S1                 0.0000
     30 ****        -3.1430  -3.5500   1.0899 H              1 S1                 0.0000
     31 ****        -3.5646  -3.2050   4.1573 H              1 S1                 0.0000
     32 ****        -3.7493  -4.7548   3.1855 H              1 S1                 0.0000
     33 ****        -1.3500  -4.5918   2.4691 H              1 S1                 0.0000
     34 ****        -1.1654  -3.0420   3.4413 H              1 S1                 0.0000
     35 ****        -2.6085   0.9130   2.0413 H              1 S1                 0.0000
     36 ****        -5.2831   0.4260   2.3124 H              1 S1                 0.0000
     37 ****        -4.6052   2.0463   2.3621 H              1 S1                 0.0000
     38 ****        -5.8753   0.6650  -0.0216 H              1 S1                 0.0000
     39 ****        -6.2415   2.2767   0.5965 H              1 S1                 0.0000
     40 ****        -4.4921   1.8825  -1.4866 H              1 S1                 0.0000
     41 ****        -4.2127   3.1736  -0.3083 H              1 S1                 0.0000
     42 ****        -0.7349   3.2108  -3.1781 H              1 S1                 0.0000
     43 ****         1.6205  -0.3709   1.6229 H              1 S1                 0.0000
     44 ****         3.3317   1.7719  -0.1926 H              1 S1                 0.0000
     45 ****         2.7041  -0.0255  -2.5758 H              1 S1                 0.0000
     46 ****         3.5984   1.5328  -2.5679 H              1 S1                 0.0000
     47 ****         5.7802  -1.9979  -1.8343 H              1 S1                 0.0000
     48 ****         4.0858  -2.1366  -2.2333 H              1 S1                 0.0000
     49 ****         4.4766  -0.8203  -4.0476 H              1 S1                 0.0000
     50 ****         6.7666   0.0535  -1.0241 H              1 S1                 0.0000
     51 ****         6.3329   0.8789  -2.5036 H              1 S1                 0.0000
     52 ****         6.7198   2.2959  -0.8159 H              1 S1                 0.0000
     53 ****         4.5170  -0.1289   0.6848 H              1 S1                 0.0000
     54 ****         3.4002  -1.2807  -0.1206 H              1 S1                 0.0000
     55 ****        -3.6588  -2.2843  -0.2520 LP             1 S1                 0.0000
     56 ****        -3.9187  -0.6731  -0.8321 LP             1 S1                 0.0000
     57 ****        -2.6761   2.7754  -2.0270 LP             1 S1                 0.0000
     58 ****         1.3700   2.3688  -2.4874 LP             1 S1                 0.0000
     59 ****        -0.8469  -0.0529   1.7556 LP             1 S1                 0.0000
     60 ****         5.4097  -2.1077  -4.1077 LP             1 S1                 0.0000
     61 ****         6.0266  -0.6423  -3.7352 LP             1 S1                 0.0000
     62 ****         5.6194   1.6837   0.1563 LP             1 S1                 0.0000
     63 ****         5.1892   2.4455  -1.2226 LP             1 S1                 0.0000
@<TRIPOS>BOND
    1    1    2 2     
    2    2    3 am    
    3    2    7 1     
    4    3    4 1     
    5    3   29 1     
    6    4    6 1     
    7    4    5 1     
    8    4   30 1     
    9    5    6 1     
   10    5   31 1     
   11    5   32 1     
   12    6   33 1     
   13    6   34 1     
   14    7   11 1     
   15    7    8 1     
   16    7   35 1     
   17    8    9 1     
   18    8   36 1     
   19    8   37 1     
   20    9   10 1     
   21    9   38 1     
   22    9   39 1     
   23   10   11 1     
   24   10   40 1     
   25   10   41 1     
   26   11   12 1     
   27   12   17 ar    
   28   12   13 ar    
   29   13   14 ar    
   30   14   15 ar    
   31   14   42 1     
   32   15   16 ar    
   33   16   20 1     
   34   16   17 ar    
   35   17   18 1     
   36   18   19 2     
   37   19   20 1     
   38   19   43 1     
   39   20   21 1     
   40   21   28 1     
   41   21   22 1     
   42   21   44 1     
   43   22   23 1     
   44   22   45 1     
   45   22   46 1     
   46   23   24 1     
   47   23   26 1     
   48   23   28 1     
   49   24   25 1     
   50   24   47 1     
   51   24   48 1     
   52   25   49 1     
   53   26   27 1     
   54   26   50 1     
   55   26   51 1     
   56   27   52 1     
   57   28   53 1     
   58   28   54 1     
   59    1   55 1     
   60    1   56 1     
   61   13   57 1     
   62   15   58 1     
   63   18   59 1     
   64   25   60 1     
   65   25   61 1     
   66   27   62 1     
   67   27   63 1     
@<TRIPOS>SUBSTRUCTURE
      1 S1             1
@<TRIPOS>SET
LONE_PAIRS      STATIC     ATOMS    <user>   **** ""
9 55 56 57 58 59 60 61 62 63
DONOR_HYDROGENS      STATIC     ATOMS    <user>   **** ""
3 29 49 52
ATOM$BLUE        STATIC     ATOMS    COLORGROUP SYSTEM
9 55 56 57 58 59 60 61 62 63
ATOM$RED        STATIC     ATOMS    COLORGROUP SYSTEM
3 29 49 52
