AV-unprocessed.smi:270|AV-procd|sdf|2045|dock2
  -GOLD-   2262021273D 1   1.00000     0.00000
 Structure written by MMmdl.
 54 57  0  0  0  0  0  0  0  0  1 V2000
  152.3976  144.5297  157.6966 C   0  0  0  0  0  0  0  0  0  0  0  0
  152.0289  143.5492  158.8209 C   0  0  2  0  0  0  0  0  0  0  0  0
  153.2172  143.2742  159.5588 O   0  0  0  0  0  0  0  0  0  0  0  0
  153.1449  141.9555  160.0715 C   0  0  0  0  0  0  0  0  0  0  0  0
  152.5191  141.1897  158.9162 C   0  0  0  0  0  0  0  0  0  0  0  0
  151.4701  142.1639  158.3874 C   0  0  1  0  0  0  0  0  0  0  0  0
  150.2696  141.9413  159.1093 O   0  0  0  0  0  0  0  0  0  0  0  0
  151.1597  141.9850  156.8776 C   0  0  0  0  0  0  0  0  0  0  0  0
  150.6796  140.6532  156.5396 N   0  0  0  0  0  0  0  0  0  0  0  0
  149.4543  140.1131  156.8576 C   0  0  0  0  0  0  0  0  0  0  0  0
  149.2590  138.8928  156.4393 N   0  0  0  0  0  0  0  0  0  0  0  0
  150.4371  138.5631  155.7788 C   0  0  0  0  0  0  0  0  0  0  0  0
  150.8913  137.3966  155.0959 C   0  0  0  0  0  0  0  0  0  0  0  0
  150.1207  136.2091  154.9328 N   0  0  0  0  0  0  0  0  0  0  0  0
  148.8728  136.1399  155.6790 C   0  0  0  0  0  0  0  0  0  0  0  0
  149.2337  134.6843  155.9930 C   0  0  0  0  0  0  0  0  0  0  0  0
  148.5775  133.7363  155.1657 O   0  0  0  0  0  0  0  0  0  0  0  0
  147.1672  133.7553  155.3163 C   0  0  0  0  0  0  0  0  0  0  0  0
  146.5215  133.6239  153.9320 C   0  0  0  0  0  0  0  0  0  0  0  0
  145.8728  134.5774  153.4993 O   0  0  0  0  0  0  0  0  0  0  0  0
  146.6882  132.4781  153.2305 N   0  0  0  0  0  0  0  0  0  0  0  0
  147.4247  131.3207  153.7470 C   0  0  0  0  0  0  0  0  0  0  0  0
  146.1040  132.3245  151.8955 C   0  0  0  0  0  0  0  0  0  0  0  0
  150.6539  134.9799  155.5083 C   0  0  0  0  0  0  0  0  0  0  0  0
  152.1276  137.4733  154.5336 N   0  0  0  0  0  0  0  0  0  0  0  0
  152.8733  138.5757  154.6488 C   0  0  0  0  0  0  0  0  0  0  0  0
  152.5801  139.7180  155.2695 N   0  0  0  0  0  0  0  0  0  0  0  0
  151.3366  139.6671  155.8240 C   0  0  0  0  0  0  0  0  0  0  0  0
  151.5278  144.7917  157.0941 H   0  0  0  0  0  0  0  0  0  0  0  0
  153.1591  144.1140  157.0364 H   0  0  0  0  0  0  0  0  0  0  0  0
  152.7969  145.4554  158.1113 H   0  0  0  0  0  0  0  0  0  0  0  0
  151.3295  144.0477  159.4949 H   0  0  0  0  0  0  0  0  0  0  0  0
  154.1285  141.5755  160.3478 H   0  0  0  0  0  0  0  0  0  0  0  0
  152.5030  141.9351  160.9535 H   0  0  0  0  0  0  0  0  0  0  0  0
  153.2848  141.0156  158.1595 H   0  0  0  0  0  0  0  0  0  0  0  0
  152.1150  140.2199  159.2100 H   0  0  0  0  0  0  0  0  0  0  0  0
  149.5861  142.4668  158.7225 H   0  0  0  0  0  0  0  0  0  0  0  0
  150.4103  142.7082  156.5532 H   0  0  0  0  0  0  0  0  0  0  0  0
  152.0506  142.1758  156.2790 H   0  0  0  0  0  0  0  0  0  0  0  0
  148.7062  140.6553  157.4173 H   0  0  0  0  0  0  0  0  0  0  0  0
  148.8608  136.7752  156.5660 H   0  0  0  0  0  0  0  0  0  0  0  0
  147.9880  136.2714  155.0558 H   0  0  0  0  0  0  0  0  0  0  0  0
  149.1960  134.4378  157.0555 H   0  0  0  0  0  0  0  0  0  0  0  0
  146.8537  132.9197  155.9445 H   0  0  0  0  0  0  0  0  0  0  0  0
  146.8272  134.6674  155.8077 H   0  0  0  0  0  0  0  0  0  0  0  0
  148.4831  131.5579  153.8602 H   0  0  0  0  0  0  0  0  0  0  0  0
  147.3547  130.4550  153.0877 H   0  0  0  0  0  0  0  0  0  0  0  0
  147.0369  131.0056  154.7161 H   0  0  0  0  0  0  0  0  0  0  0  0
  145.0367  132.1142  151.9748 H   0  0  0  0  0  0  0  0  0  0  0  0
  146.5647  131.5126  151.3322 H   0  0  0  0  0  0  0  0  0  0  0  0
  146.2284  133.2287  151.2975 H   0  0  0  0  0  0  0  0  0  0  0  0
  151.0350  134.2787  154.7655 H   0  0  0  0  0  0  0  0  0  0  0  0
  151.3513  135.1392  156.3320 H   0  0  0  0  0  0  0  0  0  0  0  0
  153.8424  138.5366  154.1736 H   0  0  0  0  0  0  0  0  0  0  0  0
  1  2  1  0  0  0  0
  1 29  1  0  0  0  0
  1 30  1  0  0  0  0
  1 31  1  0  0  0  0
  2  6  1  0  0  0  0
  2  3  1  0  0  0  0
  2 32  1  0  0  0  0
  3  4  1  0  0  0  0
  4  5  1  0  0  0  0
  4 33  1  0  0  0  0
  4 34  1  0  0  0  0
  5  6  1  0  0  0  0
  5 35  1  0  0  0  0
  5 36  1  0  0  0  0
  6  7  1  0  0  0  0
  6  8  1  0  0  0  0
  7 37  1  0  0  0  0
  8  9  1  0  0  0  0
  8 38  1  0  0  0  0
  8 39  1  0  0  0  0
  9 28  1  0  0  0  0
  9 10  1  0  0  0  0
 10 11  2  0  0  0  0
 10 40  1  0  0  0  0
 11 12  1  0  0  0  0
 12 28  2  0  0  0  0
 12 13  1  0  0  0  0
 13 14  1  0  0  0  0
 13 25  2  0  0  0  0
 14 24  1  0  0  0  0
 14 15  1  0  0  0  0
 15 16  1  0  0  0  0
 15 41  1  0  0  0  0
 15 42  1  0  0  0  0
 16 17  1  0  0  0  0
 16 24  1  0  0  0  0
 16 43  1  0  0  0  0
 17 18  1  0  0  0  0
 18 19  1  0  0  0  0
 18 44  1  0  0  0  0
 18 45  1  0  0  0  0
 19 20  2  0  0  0  0
 19 21  1  0  0  0  0
 21 22  1  0  0  0  0
 21 23  1  0  0  0  0
 22 46  1  0  0  0  0
 22 47  1  0  0  0  0
 22 48  1  0  0  0  0
 23 49  1  0  0  0  0
 23 50  1  0  0  0  0
 23 51  1  0  0  0  0
 24 52  1  0  0  0  0
 24 53  1  0  0  0  0
 25 26  1  0  0  0  0
 26 27  2  0  0  0  0
 26 54  1  0  0  0  0
 27 28  1  0  0  0  0
M  END
> <s_m_source_file>
AV-unprocessed.smi

> <i_m_source_file_index>
270

> <i_lp_mmshare_version>
43012

> <i_f3d_flags>
0

> <s_epik_input>
W0NIMl0xW0NIMl1PW0NAQEhdKFtDSDNdKVtDQEBdMShbT0hdKVtDSDJdbihbY0hdbjIpYyhjMjMpbltjSF1uYzNONFtDSDJdW0NIXShbQ0gyXTQpT1tDSDJdQyg9TylOKFtDSDNdKVtDSDNd

> <s_epik_cmdline>
J2VwaWtfcHl0aG9uJywgJy1waCcsICc3LjAnLCAnLXRuJywgJzgnLCAnLW1hJywgJzIwMCcsICctbWV0YWxfYmluZGluZycsICctaW1hZScsICc8aW5maWxlLm1hZT4nLCAnLW9tYWUnLCAnPG91dGZpbGUubWFlPic=

> <r_lp_tautomer_probability>
1

> <r_epik_Ionization_Penalty>
0.00375854

> <r_epik_Ionization_Penalty_Charging>
0

> <r_epik_Ionization_Penalty_Neutral>
0.00375854

> <r_epik_State_Penalty>
-0

> <r_epik_Charging_Adjusted_Penalty>
0

> <i_epik_Tot_Q>
0

> <i_epik_Tot_abs_Q>
0

> <r_epik_Metal_State_Penalty>
-0

> <b_epik_Metal_Only>
0

> <s_lp_Force_Field>
OPLS_2005

> <r_lp_Energy>
54.2687

> <b_lp_Chiralities_Consistent>
1

> <s_lp_Variant>
AV-unprocessed.smi:270-1

> <Gold.Version>
5.8.1

> <Gold.Id.Protein>
6NUR|6NUR_protein|mol2

> <Gold.PLP.Fitness>
50.7056

> <Gold.PLP.PLP>
-46.3443

> <Gold.PLP.part.hbond>
-3.9583

> <Gold.PLP.part.metal>
0.0000

> <Gold.PLP.part.buried>
-6.6184

> <Gold.PLP.part.nonpolar>
-37.2237

> <Gold.PLP.part.repulsive>
1.0611

> <Gold.PLP.ligand.clash>
0.0000

> <Gold.PLP.ligand.torsion>
0.5799

> <Gold.PLP.Chemscore.Hbond>
1.6708

> <Gold.PLP.Chemscore.CHOScore>
0.0000

> <Gold.PLP.Chemscore.Metal>
0.0000

> <Gold.Chemscore.Hbonds>
donor molecule, donor type, donor heavy atom, donor atom, acceptor molecule, acceptor atom, score
      P1  H  7989  7998       L1    27  0.10
      P1  H  7997  8008       L1    27  0.98
      P1  H 10752 10765       L1    25  0.80

> <Gold.PLP.Chemscore.Internal.Correction>
0.5086

> <Gold.Rescore>
     Score         DG    S(hbond)    S(metal)    S(lipo)     H(rot)  DE(clash)    DE(int)     intcor
      8.88     -11.87       0.99        0.00      94.69       3.12       0.94       2.05       ----

> <Gold.Chemscore.Fitness>
8.8785

> <Gold.Chemscore.DG>
-11.8687

> <Gold.Chemscore.ZeroCoef>
-5.4800

> <Gold.Chemscore.Hbond>
0.9897

> <Gold.Chemscore.Metal>
0.0000

> <Gold.Chemscore.Lipo>
94.6929

> <Gold.Chemscore.Internal_Hbond>
0.0000

> <Gold.Chemscore.DEClash>
0.9370

> <Gold.Chemscore.DEInternal>
2.0531

> <Gold.Chemscore.Rot>
3.1234

> <Gold.Chemscore.Internal.Correction>
   9.000000E+99

> <Gold.Chemscore.Hbonds>
donor molecule, donor type, donor heavy atom, donor atom, acceptor molecule, acceptor atom, score
      P1  H  7997  8008       L1    27  0.32
      P1  H 10752 10765       L1    25  0.66

> <Gold.Chemscore.Hbond.Weighted>
-3.3054

> <Gold.Chemscore.Metal.Weighted>
-0.0000

> <Gold.Chemscore.Lipo.Weighted>
-11.0791

> <Gold.Chemscore.Internal_Hbond.Weighted>
0.0000

> <Gold.Chemscore.DEClash.Weighted>
0.9370

> <Gold.Chemscore.DEInternal.Weighted>
2.0531

> <Gold.Chemscore.Rot.Weighted>
7.9959

> <Gold.Chemscore.Internal.Correction.Weighted>
   9.000000E+99

> <Gold.Protein.RotatedTorsions>
[ 6907 6896 6895 6894 ] final  -45.95 input  -60.11 | X-H torsion
[ 7974 7965 7964 7962 ] final   55.35 input  175.53 | X-H torsion
[ 8008 7997 7996 7995 ] final  -35.86 input   59.86 | X-H torsion
[ 10167 10162 10161 10158 ] final -110.79 input  -65.29 | X-H torsion
[ 10718 10713 10712 10709 ] final  147.24 input   66.30 | X-H torsion
[ 10763 10752 10751 10750 ] final  154.99 input  -60.55 | X-H torsion
[ 11005 11000 10999 10996 ] final   22.69 input  -57.11 | X-H torsion

> <Gold.Protein.ActiveResidues>
 VAL166  LYS551  ARG553  GLY616  TRP617  ASP618  TYR619  PRO620  LYS621  CYS622 
 ASP623  PHE694  ASN695  SER759  ASP760  ASP761  ALA762  ILE779  LEU786  VAL792 
 PHE793  MET794  SER795  GLU796  ALA797  LYS798  CYS799  TRP800  GLU811  SER814 

> <Gold.Protein.RotatedAtoms>
  150.9164  134.8582  159.7459 H   0  0  0  0  0  0  0  0  0  0  0  0  # atno 6907 bound_to 6896
  152.4971  134.4282  159.9513 H   0  0  0  0  0  0  0  0  0  0  0  0  # atno 6908 bound_to 6896
  151.4320  133.3628  159.2805 H   0  0  0  0  0  0  0  0  0  0  0  0  # atno 6909 bound_to 6896
  145.9513  139.3974  143.0304 H   0  0  0  0  0  0  0  0  0  0  0  0  # atno 7974 bound_to 7965
  154.4086  140.1646  156.2280 H   0  0  0  0  0  0  0  0  0  0  0  0  # atno 8008 bound_to 7997
  155.9307  140.3415  155.6224 H   0  0  0  0  0  0  0  0  0  0  0  0  # atno 8009 bound_to 7997
  155.7109  140.0756  157.2362 H   0  0  0  0  0  0  0  0  0  0  0  0  # atno 8010 bound_to 7997
  140.1406  143.4282  152.1564 H   0  0  0  0  0  0  0  0  0  0  0  0  # atno 10167 bound_to 10162
  157.3234  131.0908  151.1221 H   0  0  0  0  0  0  0  0  0  0  0  0  # atno 10718 bound_to 10713
  154.1612  135.2809  155.3108 H   0  0  0  0  0  0  0  0  0  0  0  0  # atno 10763 bound_to 10752
  154.6145  135.5488  153.7512 H   0  0  0  0  0  0  0  0  0  0  0  0  # atno 10764 bound_to 10752
  153.0192  135.6423  154.1754 H   0  0  0  0  0  0  0  0  0  0  0  0  # atno 10765 bound_to 10752
  140.3778  134.1953  155.7664 H   0  0  0  0  0  0  0  0  0  0  0  0  # atno 11005 bound_to 11000
  145.8167  140.9699  143.0920 LP  0  0  0  0  0  0  0  0  0  0  0  0  # atno 17320 bound_to 7965
  144.6796  139.9990  143.7484 LP  0  0  0  0  0  0  0  0  0  0  0  0  # atno 17321 bound_to 7965
  139.5474  144.7309  151.4541 LP  0  0  0  0  0  0  0  0  0  0  0  0  # atno 17342 bound_to 10162
  140.6762  143.8183  150.7062 LP  0  0  0  0  0  0  0  0  0  0  0  0  # atno 17343 bound_to 10162
  157.2497  130.6608  149.5926 LP  0  0  0  0  0  0  0  0  0  0  0  0  # atno 17370 bound_to 10713
  155.9688  130.4542  150.5841 LP  0  0  0  0  0  0  0  0  0  0  0  0  # atno 17371 bound_to 10713
  141.1933  133.8153  157.0802 LP  0  0  0  0  0  0  0  0  0  0  0  0  # atno 17394 bound_to 11000
  140.0502  134.9809  157.1122 LP  0  0  0  0  0  0  0  0  0  0  0  0  # atno 17395 bound_to 11000

$$$$
