AV-unprocessed.smi:1718|AV-procd|sdf|6922|dock8
  -GOLD-   22720 8123D 1   1.00000     0.00000
 Structure written by MMmdl.
 40 41  0  0  0  0  0  0  0  0  1 V2000
  154.6336  136.2728  159.0632 C   0  0  0  0  0  0  0  0  0  0  0  0
  154.1151  137.4884  159.8461 C   0  0  2  0  0  0  0  0  0  0  0  0
  153.1060  137.0236  160.7377 O   0  0  0  0  0  0  0  0  0  0  0  0
  153.5760  136.4735  161.9644 C   0  0  0  0  0  0  0  0  0  0  0  0
  153.5781  137.5639  163.0446 C   0  0  2  0  0  0  0  0  0  0  0  0
  154.5437  138.7286  162.7767 C   0  0  0  0  0  0  0  0  0  0  0  0
  155.5788  138.5906  163.8761 C   0  0  0  0  0  0  0  0  0  0  0  0
  154.7795  137.9245  164.9877 C   0  0  0  0  0  0  0  0  0  0  0  0
  153.9667  136.9932  164.2914 O   0  0  0  0  0  0  0  0  0  0  0  0
  153.5411  138.5620  158.9072 C   0  0  0  0  0  0  0  0  0  0  0  0
  153.7359  138.4733  157.6952 O   0  0  0  0  0  0  0  0  0  0  0  0
  152.8478  139.5469  159.5125 N   0  0  0  0  0  0  0  0  0  0  0  0
  152.1573  140.6328  158.9484 C   0  0  0  0  0  0  0  0  0  0  0  0
  152.1455  141.8946  159.4525 C   0  0  0  0  0  0  0  0  0  0  0  0
  151.4227  142.9770  158.8067 C   0  0  0  0  0  0  0  0  0  0  0  0
  151.3588  144.3644  159.4261 C   0  0  0  0  0  0  0  0  0  0  0  0
  150.0985  144.7733  159.5794 F   0  0  0  0  0  0  0  0  0  0  0  0
  151.9515  144.3775  160.6201 F   0  0  0  0  0  0  0  0  0  0  0  0
  151.9880  145.2390  158.6426 F   0  0  0  0  0  0  0  0  0  0  0  0
  150.7553  142.6655  157.6802 C   0  0  0  0  0  0  0  0  0  0  0  0
  150.7795  141.3761  157.1437 N   0  0  0  0  0  0  0  0  0  0  0  0
  151.4381  140.3340  157.6988 C   0  0  0  0  0  0  0  0  0  0  0  0
  151.4120  139.2266  157.1629 O   0  0  0  0  0  0  0  0  0  0  0  0
  150.2668  141.2261  156.2867 H   0  0  0  0  0  0  0  0  0  0  0  0
  155.4017  136.5613  158.3447 H   0  0  0  0  0  0  0  0  0  0  0  0
  153.8319  135.7744  158.5164 H   0  0  0  0  0  0  0  0  0  0  0  0
  155.0739  135.5391  159.7386 H   0  0  0  0  0  0  0  0  0  0  0  0
  154.9458  137.9019  160.4218 H   0  0  0  0  0  0  0  0  0  0  0  0
  152.9226  135.6554  162.2709 H   0  0  0  0  0  0  0  0  0  0  0  0
  154.5817  136.0652  161.8594 H   0  0  0  0  0  0  0  0  0  0  0  0
  152.5669  137.9573  163.1572 H   0  0  0  0  0  0  0  0  0  0  0  0
  154.9894  138.7052  161.7815 H   0  0  0  0  0  0  0  0  0  0  0  0
  154.0158  139.6773  162.8807 H   0  0  0  0  0  0  0  0  0  0  0  0
  156.3833  137.9301  163.5502 H   0  0  0  0  0  0  0  0  0  0  0  0
  156.0164  139.5432  164.1754 H   0  0  0  0  0  0  0  0  0  0  0  0
  155.4114  137.4327  165.7273 H   0  0  0  0  0  0  0  0  0  0  0  0
  154.1459  138.6499  165.5003 H   0  0  0  0  0  0  0  0  0  0  0  0
  152.8320  139.5212  160.5222 H   0  0  0  0  0  0  0  0  0  0  0  0
  152.6954  142.1443  160.3448 H   0  0  0  0  0  0  0  0  0  0  0  0
  150.1571  143.3634  157.1131 H   0  0  0  0  0  0  0  0  0  0  0  0
  1  2  1  0  0  0  0
  1 25  1  0  0  0  0
  1 26  1  0  0  0  0
  1 27  1  0  0  0  0
  2  3  1  0  0  0  0
  2 10  1  0  0  0  0
  2 28  1  0  0  0  0
  3  4  1  0  0  0  0
  4  5  1  0  0  0  0
  4 29  1  0  0  0  0
  4 30  1  0  0  0  0
  5  9  1  0  0  0  0
  5  6  1  0  0  0  0
  5 31  1  0  0  0  0
  6  7  1  0  0  0  0
  6 32  1  0  0  0  0
  6 33  1  0  0  0  0
  7  8  1  0  0  0  0
  7 34  1  0  0  0  0
  7 35  1  0  0  0  0
  8  9  1  0  0  0  0
  8 36  1  0  0  0  0
  8 37  1  0  0  0  0
 10 11  2  0  0  0  0
 10 12  1  0  0  0  0
 12 13  1  0  0  0  0
 12 38  1  0  0  0  0
 13 22  1  0  0  0  0
 13 14  2  0  0  0  0
 14 15  1  0  0  0  0
 14 39  1  0  0  0  0
 15 16  1  0  0  0  0
 15 20  2  0  0  0  0
 16 17  1  0  0  0  0
 16 18  1  0  0  0  0
 16 19  1  0  0  0  0
 20 21  1  0  0  0  0
 20 40  1  0  0  0  0
 21 24  1  0  0  0  0
 21 22  1  0  0  0  0
 22 23  2  0  0  0  0
M  END
> <s_m_source_file>
AV-unprocessed.smi

> <i_m_source_file_index>
1718

> <i_lp_mmshare_version>
43012

> <i_f3d_flags>
0

> <s_epik_input>
TzFbQ0gyXVtDSDJdW0NIMl1bQ0BIXTFbQ0gyXU9bQ0BASF0oW0NIM10pQyg9TylbTkhdYzJbY0hdYyhDKEYpKEYpRilbY0hdW25IXWMyPU8=

> <s_epik_cmdline>
J2VwaWtfcHl0aG9uJywgJy1waCcsICc3LjAnLCAnLXRuJywgJzgnLCAnLW1hJywgJzIwMCcsICctbWV0YWxfYmluZGluZycsICctaW1hZScsICc8aW5maWxlLm1hZT4nLCAnLW9tYWUnLCAnPG91dGZpbGUubWFlPic=

> <r_lp_tautomer_probability>
0.999

> <r_epik_Ionization_Penalty>
0.00894336

> <r_epik_Ionization_Penalty_Charging>
0.00894326

> <r_epik_Ionization_Penalty_Neutral>
1.00145e-07

> <r_epik_State_Penalty>
0.00676626

> <r_epik_Charging_Adjusted_Penalty>
0.0157095

> <i_epik_Tot_Q>
0

> <i_epik_Tot_abs_Q>
0

> <r_epik_Metal_State_Penalty>
0.321145

> <b_epik_Metal_Only>
0

> <s_lp_Force_Field>
OPLS_2005

> <r_lp_Energy>
34.6519

> <b_lp_Chiralities_Consistent>
1

> <s_lp_Variant>
AV-unprocessed.smi:1718-1

> <Gold.Version>
5.8.1

> <Gold.Id.Protein>
6NUR|6NUR_protein|mol2

> <Gold.PLP.Fitness>
45.1749

> <Gold.PLP.PLP>
-41.3838

> <Gold.PLP.part.hbond>
-1.0000

> <Gold.PLP.part.metal>
0.0000

> <Gold.PLP.part.buried>
-8.0881

> <Gold.PLP.part.nonpolar>
-32.7396

> <Gold.PLP.part.repulsive>
0.2138

> <Gold.PLP.ligand.clash>
0.0000

> <Gold.PLP.ligand.torsion>
1.1657

> <Gold.PLP.Chemscore.Hbond>
0.9920

> <Gold.PLP.Chemscore.CHOScore>
1.0000

> <Gold.PLP.Chemscore.Metal>
0.0000

> <Gold.Chemscore.Hbonds>
donor molecule, donor type, donor heavy atom, donor atom, acceptor molecule, acceptor atom, score
      P1  H  6896  6909       L1     3  0.16
      P1  H  7997  8008       L1    11  1.00
      L1  C    20    40       P1  8028  1.00

> <Gold.PLP.Chemscore.Internal.Correction>
0.1464

> <Gold.Rescore>
     Score         DG    S(hbond)    S(metal)    S(lipo)     H(rot)  DE(clash)    DE(int)     intcor
     10.22     -14.18       0.98        0.00      87.52       1.88       0.12       3.84       ----

> <Gold.Chemscore.Fitness>
10.2201

> <Gold.Chemscore.DG>
-14.1774

> <Gold.Chemscore.ZeroCoef>
-5.4800

> <Gold.Chemscore.Hbond>
0.9783

> <Gold.Chemscore.Metal>
0.0000

> <Gold.Chemscore.Lipo>
87.5231

> <Gold.Chemscore.Internal_Hbond>
0.0000

> <Gold.Chemscore.DEClash>
0.1180

> <Gold.Chemscore.DEInternal>
3.8392

> <Gold.Chemscore.Rot>
1.8790

> <Gold.Chemscore.Internal.Correction>
   9.000000E+99

> <Gold.Chemscore.Hbonds>
donor molecule, donor type, donor heavy atom, donor atom, acceptor molecule, acceptor atom, score
      P1  H  6896  6909       L1     3  0.02
      P1  H  7997  8008       L1    11  0.67

> <Gold.Chemscore.Hbond.Weighted>
-3.2674

> <Gold.Chemscore.Metal.Weighted>
-0.0000

> <Gold.Chemscore.Lipo.Weighted>
-10.2402

> <Gold.Chemscore.Internal_Hbond.Weighted>
0.0000

> <Gold.Chemscore.DEClash.Weighted>
0.1180

> <Gold.Chemscore.DEInternal.Weighted>
3.8392

> <Gold.Chemscore.Rot.Weighted>
4.8102

> <Gold.Chemscore.Internal.Correction.Weighted>
   9.000000E+99

> <Gold.Protein.RotatedTorsions>
[ 6907 6896 6895 6894 ] final  143.77 input  -60.11 | X-H torsion
[ 7974 7965 7964 7962 ] final  125.12 input  175.53 | X-H torsion
[ 8008 7997 7996 7995 ] final  -93.14 input   59.86 | X-H torsion
[ 10167 10162 10161 10158 ] final   99.10 input  -65.29 | X-H torsion
[ 10718 10713 10712 10709 ] final  -48.65 input   66.30 | X-H torsion
[ 10763 10752 10751 10750 ] final -152.27 input  -60.55 | X-H torsion
[ 11005 11000 10999 10996 ] final  -53.09 input  -57.11 | X-H torsion

> <Gold.Protein.ActiveResidues>
 VAL166  LYS551  ARG553  GLY616  TRP617  ASP618  TYR619  PRO620  LYS621  CYS622 
 ASP623  PHE694  ASN695  SER759  ASP760  ASP761  ALA762  ILE779  LEU786  VAL792 
 PHE793  MET794  SER795  GLU796  ALA797  LYS798  CYS799  TRP800  GLU811  SER814 

> <Gold.Protein.RotatedAtoms>
  152.2021  133.4849  159.5063 H   0  0  0  0  0  0  0  0  0  0  0  0  # atno 6907 bound_to 6896
  150.6972  134.1577  159.4173 H   0  0  0  0  0  0  0  0  0  0  0  0  # atno 6908 bound_to 6896
  151.9494  135.0176  160.0591 H   0  0  0  0  0  0  0  0  0  0  0  0  # atno 6909 bound_to 6896
  145.0766  139.3689  143.4930 H   0  0  0  0  0  0  0  0  0  0  0  0  # atno 7974 bound_to 7965
  154.7319  140.0502  157.0734 H   0  0  0  0  0  0  0  0  0  0  0  0  # atno 8008 bound_to 7997
  155.0291  140.3156  155.4746 H   0  0  0  0  0  0  0  0  0  0  0  0  # atno 8009 bound_to 7997
  156.2843  140.2153  156.5411 H   0  0  0  0  0  0  0  0  0  0  0  0  # atno 8010 bound_to 7997
  139.7648  144.6942  151.0240 H   0  0  0  0  0  0  0  0  0  0  0  0  # atno 10167 bound_to 10162
  156.1968  130.4154  149.9295 H   0  0  0  0  0  0  0  0  0  0  0  0  # atno 10718 bound_to 10713
  154.8005  135.3240  154.7562 H   0  0  0  0  0  0  0  0  0  0  0  0  # atno 10763 bound_to 10752
  153.8231  135.6886  153.4829 H   0  0  0  0  0  0  0  0  0  0  0  0  # atno 10764 bound_to 10752
  153.1719  135.4620  154.9857 H   0  0  0  0  0  0  0  0  0  0  0  0  # atno 10765 bound_to 10752
  141.0958  133.6625  156.4121 H   0  0  0  0  0  0  0  0  0  0  0  0  # atno 11005 bound_to 11000
  146.3530  140.0537  142.8634 LP  0  0  0  0  0  0  0  0  0  0  0  0  # atno 17320 bound_to 7965
  145.1228  140.9472  143.4590 LP  0  0  0  0  0  0  0  0  0  0  0  0  # atno 17321 bound_to 7965
  140.7810  143.4655  151.0218 LP  0  0  0  0  0  0  0  0  0  0  0  0  # atno 17342 bound_to 10162
  139.8340  143.7652  152.3180 LP  0  0  0  0  0  0  0  0  0  0  0  0  # atno 17343 bound_to 10162
  156.7018  130.8936  151.3600 LP  0  0  0  0  0  0  0  0  0  0  0  0  # atno 17370 bound_to 10713
  157.6962  130.9284  150.0652 LP  0  0  0  0  0  0  0  0  0  0  0  0  # atno 17371 bound_to 10713
  140.5143  134.6365  157.5295 LP  0  0  0  0  0  0  0  0  0  0  0  0  # atno 17394 bound_to 11000
  139.9795  134.7161  155.9887 LP  0  0  0  0  0  0  0  0  0  0  0  0  # atno 17395 bound_to 11000

$$$$
