AV-unprocessed.smi:1196|AV-procd|sdf|5000|dock7
  -GOLD-   22720 4 13D 1   1.00000     0.00000
 Structure written by MMmdl.
 36 37  0  0  0  0  0  0  0  0  2 V2000
  145.4247  133.9784  153.7086 C   0  0  0  0  0  0  0  0  0  0  0  0
  145.9423  135.3740  153.3272 C   0  0  2  0  0  0  0  0  0  0  0  0
  145.9431  135.5759  151.7993 C   0  0  0  0  0  0  0  0  0  0  0  0
  145.9553  134.3181  151.0736 N   0  0  0  0  0  0  0  0  0  0  0  0
  145.0313  133.8418  150.1674 C   0  0  0  0  0  0  0  0  0  0  0  0
  145.4630  132.6142  149.7543 C   0  0  0  0  0  0  0  0  0  0  0  0
  146.6764  132.4239  150.4725 C   0  0  0  0  0  0  0  0  0  0  0  0
  146.9699  133.4463  151.2595 N   0  0  0  0  0  0  0  0  0  0  0  0
  147.2903  135.5667  153.8586 N   0  0  0  0  0  0  0  0  0  0  0  0
  147.6384  135.4872  155.1521 C   0  0  0  0  0  0  0  0  0  0  0  0
  146.8401  135.2302  156.0536 O   0  0  0  0  0  0  0  0  0  0  0  0
  149.1118  135.7452  155.4750 C   0  0  0  0  0  0  0  0  0  0  0  0
  149.4109  137.2382  155.7090 C   0  0  0  0  0  0  0  0  0  0  0  0
  150.8498  137.6323  155.3143 C   0  0  2  0  0  0  0  0  0  0  0  0
  151.8351  136.9254  156.1150 N   0  5  0  0  0  0  0  0  0  0  0  0
  152.5995  137.8385  156.7595 C   0  0  0  0  0  0  0  0  0  0  0  0
  153.5419  137.6278  157.5197 O   0  0  0  0  0  0  0  0  0  0  0  0
  152.1978  139.0806  156.4703 N   0  0  0  0  0  0  0  0  0  0  0  0
  151.1616  139.0810  155.6382 C   0  0  0  0  0  0  0  0  0  0  0  0
  150.5558  140.0576  155.1990 O   0  0  0  0  0  0  0  0  0  0  0  0
  144.4133  133.8202  153.3332 H   0  0  0  0  0  0  0  0  0  0  0  0
  145.3952  133.8498  154.7911 H   0  0  0  0  0  0  0  0  0  0  0  0
  146.0596  133.1934  153.2967 H   0  0  0  0  0  0  0  0  0  0  0  0
  145.2715  136.1148  153.7666 H   0  0  0  0  0  0  0  0  0  0  0  0
  145.0710  136.1524  151.4870 H   0  0  0  0  0  0  0  0  0  0  0  0
  146.8196  136.1504  151.4956 H   0  0  0  0  0  0  0  0  0  0  0  0
  144.1522  134.4082  149.8979 H   0  0  0  0  0  0  0  0  0  0  0  0
  144.9841  131.9524  149.0481 H   0  0  0  0  0  0  0  0  0  0  0  0
  147.3486  131.5792  150.4451 H   0  0  0  0  0  0  0  0  0  0  0  0
  148.0172  135.7794  153.1907 H   0  0  0  0  0  0  0  0  0  0  0  0
  149.3981  135.1667  156.3546 H   0  0  0  0  0  0  0  0  0  0  0  0
  149.7153  135.3705  154.6479 H   0  0  0  0  0  0  0  0  0  0  0  0
  148.7071  137.8345  155.1256 H   0  0  0  0  0  0  0  0  0  0  0  0
  149.2265  137.4938  156.7545 H   0  0  0  0  0  0  0  0  0  0  0  0
  150.9970  137.4829  154.2438 H   0  0  0  0  0  0  0  0  0  0  0  0
  152.6230  139.9143  156.8474 H   0  0  0  0  0  0  0  0  0  0  0  0
  1  2  1  0  0  0  0
  1 21  1  0  0  0  0
  1 22  1  0  0  0  0
  1 23  1  0  0  0  0
  2  3  1  0  0  0  0
  2  9  1  0  0  0  0
  2 24  1  0  0  0  0
  3  4  1  0  0  0  0
  3 25  1  0  0  0  0
  3 26  1  0  0  0  0
  4  8  1  0  0  0  0
  4  5  1  0  0  0  0
  5  6  2  0  0  0  0
  5 27  1  0  0  0  0
  6  7  1  0  0  0  0
  6 28  1  0  0  0  0
  7  8  2  0  0  0  0
  7 29  1  0  0  0  0
  9 10  1  0  0  0  0
  9 30  1  0  0  0  0
 10 11  2  0  0  0  0
 10 12  1  0  0  0  0
 12 13  1  0  0  0  0
 12 31  1  0  0  0  0
 12 32  1  0  0  0  0
 13 14  1  0  0  0  0
 13 33  1  0  0  0  0
 13 34  1  0  0  0  0
 14 19  1  0  0  0  0
 14 15  1  0  0  0  0
 14 35  1  0  0  0  0
 15 16  1  0  0  0  0
 16 17  2  0  0  0  0
 16 18  1  0  0  0  0
 18 19  1  0  0  0  0
 18 36  1  0  0  0  0
 19 20  2  0  0  0  0
M  CHG  1  15  -1
M  END
> <s_m_source_file>
AV-unprocessed.smi

> <i_m_source_file_index>
1196

> <i_lp_mmshare_version>
43012

> <i_f3d_flags>
0

> <s_epik_input>
bjFbY0hdW2NIXVtjSF1uMVtDSDJdW0NAQEhdKFtDSDNdKVtOSF1DKD1PKVtDSDJdW0NIMl1bQ0BASF0yW05IXUMoPU8pW05IXUMyPU8=

> <s_epik_cmdline>
J2VwaWtfcHl0aG9uJywgJy1waCcsICc3LjAnLCAnLXRuJywgJzgnLCAnLW1hJywgJzIwMCcsICctbWV0YWxfYmluZGluZycsICctaW1hZScsICc8aW5maWxlLm1hZT4nLCAnLW9tYWUnLCAnPG91dGZpbGUubWFlPic=

> <r_lp_tautomer_probability>
1

> <r_epik_Ionization_Penalty>
5.79547

> <r_epik_Ionization_Penalty_Charging>
5.79516

> <r_epik_Ionization_Penalty_Neutral>
0.000313087

> <r_epik_State_Penalty>
5.80096

> <r_epik_Charging_Adjusted_Penalty>
11.5961

> <i_epik_Tot_Q>
-1

> <i_epik_Tot_abs_Q>
1

> <r_epik_Metal_State_Penalty>
2.14443

> <b_epik_Metal_Only>
1

> <s_lp_Force_Field>
OPLS_2005

> <r_lp_Energy>
13.4847

> <b_lp_Chiralities_Consistent>
1

> <s_lp_Variant>
AV-unprocessed.smi:1196-5

> <Gold.Version>
5.8.1

> <Gold.Id.Protein>
6NUR|6NUR_protein|mol2

> <Gold.PLP.Fitness>
44.3300

> <Gold.PLP.PLP>
-28.4517

> <Gold.PLP.part.hbond>
-3.8621

> <Gold.PLP.part.metal>
0.0000

> <Gold.PLP.part.buried>
-4.0504

> <Gold.PLP.part.nonpolar>
-21.7238

> <Gold.PLP.part.repulsive>
0.5983

> <Gold.PLP.ligand.clash>
0.0000

> <Gold.PLP.ligand.torsion>
1.1164

> <Gold.PLP.Chemscore.Hbond>
4.0000

> <Gold.PLP.Chemscore.CHOScore>
1.9962

> <Gold.PLP.Chemscore.Metal>
0.0000

> <Gold.Chemscore.Hbonds>
donor molecule, donor type, donor heavy atom, donor atom, acceptor molecule, acceptor atom, score
      L1  H     9    30       P1  7948  1.00
      P1  H  7989  7998       L1    20  0.65
      P1  H 10752 10764       L1    15  0.98
      L1  C     7    29       P1 10747  0.38

> <Gold.PLP.Chemscore.Internal.Correction>
0.1223

> <Gold.Rescore>
     Score         DG    S(hbond)    S(metal)    S(lipo)     H(rot)  DE(clash)    DE(int)     intcor
     11.75     -12.38       2.63        0.00      47.36       2.89       0.07       0.56       ----

> <Gold.Chemscore.Fitness>
11.7518

> <Gold.Chemscore.DG>
-12.3814

> <Gold.Chemscore.ZeroCoef>
-5.4800

> <Gold.Chemscore.Hbond>
2.6259

> <Gold.Chemscore.Metal>
0.0000

> <Gold.Chemscore.Lipo>
47.3591

> <Gold.Chemscore.Internal_Hbond>
0.0000

> <Gold.Chemscore.DEClash>
0.0724

> <Gold.Chemscore.DEInternal>
0.5572

> <Gold.Chemscore.Rot>
2.8946

> <Gold.Chemscore.Internal.Correction>
   9.000000E+99

> <Gold.Chemscore.Hbonds>
donor molecule, donor type, donor heavy atom, donor atom, acceptor molecule, acceptor atom, score
      L1  H     9    30       P1  7948  1.00
      P1  H  7989  7998       L1    20  0.48
      P1  H 10752 10764       L1    15  0.26

> <Gold.Chemscore.Hbond.Weighted>
-8.7706

> <Gold.Chemscore.Metal.Weighted>
-0.0000

> <Gold.Chemscore.Lipo.Weighted>
-5.5410

> <Gold.Chemscore.Internal_Hbond.Weighted>
0.0000

> <Gold.Chemscore.DEClash.Weighted>
0.0724

> <Gold.Chemscore.DEInternal.Weighted>
0.5572

> <Gold.Chemscore.Rot.Weighted>
7.4101

> <Gold.Chemscore.Internal.Correction.Weighted>
   9.000000E+99

> <Gold.Protein.RotatedTorsions>
[ 6907 6896 6895 6894 ] final  -21.90 input  -60.11 | X-H torsion
[ 7974 7965 7964 7962 ] final -157.15 input  175.53 | X-H torsion
[ 8008 7997 7996 7995 ] final  149.11 input   59.86 | X-H torsion
[ 10167 10162 10161 10158 ] final -130.44 input  -65.29 | X-H torsion
[ 10718 10713 10712 10709 ] final  126.03 input   66.30 | X-H torsion
[ 10763 10752 10751 10750 ] final  -49.94 input  -60.55 | X-H torsion
[ 11005 11000 10999 10996 ] final  -28.54 input  -57.11 | X-H torsion

> <Gold.Protein.ActiveResidues>
 VAL166  LYS551  ARG553  GLY616  TRP617  ASP618  TYR619  PRO620  LYS621  CYS622 
 ASP623  PHE694  ASN695  SER759  ASP760  ASP761  ALA762  ILE779  LEU786  VAL792 
 PHE793  MET794  SER795  GLU796  ALA797  LYS798  CYS799  TRP800  GLU811  SER814 

> <Gold.Protein.RotatedAtoms>
  151.2265  135.0538  159.8970 H   0  0  0  0  0  0  0  0  0  0  0  0  # atno 6907 bound_to 6896
  152.5409  134.0583  159.8151 H   0  0  0  0  0  0  0  0  0  0  0  0  # atno 6908 bound_to 6896
  151.0757  133.5382  159.2655 H   0  0  0  0  0  0  0  0  0  0  0  0  # atno 6909 bound_to 6896
  144.7561  140.4010  143.6011 H   0  0  0  0  0  0  0  0  0  0  0  0  # atno 7974 bound_to 7965
  156.2767  140.2110  156.5806 H   0  0  0  0  0  0  0  0  0  0  0  0  # atno 8008 bound_to 7997
  154.7062  140.0516  157.0529 H   0  0  0  0  0  0  0  0  0  0  0  0  # atno 8009 bound_to 7997
  155.0667  140.3172  155.4646 H   0  0  0  0  0  0  0  0  0  0  0  0  # atno 8010 bound_to 7997
  139.9293  143.6291  152.2534 H   0  0  0  0  0  0  0  0  0  0  0  0  # atno 10167 bound_to 10162
  157.5453  131.1096  150.8792 H   0  0  0  0  0  0  0  0  0  0  0  0  # atno 10718 bound_to 10713
  154.1023  135.6561  153.4870 H   0  0  0  0  0  0  0  0  0  0  0  0  # atno 10763 bound_to 10752
  153.0284  135.5228  154.7274 H   0  0  0  0  0  0  0  0  0  0  0  0  # atno 10764 bound_to 10752
  154.6430  135.2991  155.0050 H   0  0  0  0  0  0  0  0  0  0  0  0  # atno 10765 bound_to 10752
  140.9217  133.7394  156.0811 H   0  0  0  0  0  0  0  0  0  0  0  0  # atno 11005 bound_to 11000
  145.6775  139.1611  143.2719 LP  0  0  0  0  0  0  0  0  0  0  0  0  # atno 17320 bound_to 7965
  146.1572  140.6840  142.9294 LP  0  0  0  0  0  0  0  0  0  0  0  0  # atno 17321 bound_to 7965
  139.6796  144.7656  151.1633 LP  0  0  0  0  0  0  0  0  0  0  0  0  # atno 17342 bound_to 10162
  140.7642  143.5744  150.8961 LP  0  0  0  0  0  0  0  0  0  0  0  0  # atno 17343 bound_to 10162
  156.9332  130.5357  149.5279 LP  0  0  0  0  0  0  0  0  0  0  0  0  # atno 17370 bound_to 10713
  156.0530  130.5597  150.9032 LP  0  0  0  0  0  0  0  0  0  0  0  0  # atno 17371 bound_to 10713
  140.7979  134.3543  157.5447 LP  0  0  0  0  0  0  0  0  0  0  0  0  # atno 17394 bound_to 11000
  139.8777  134.9180  156.3191 LP  0  0  0  0  0  0  0  0  0  0  0  0  # atno 17395 bound_to 11000

$$$$
