#       Name:                AV-unprocessed.smi:33
#       Creating user name   scv26
#       Creation time:       Thu Mar 26 15:48:41 2020


#       File generated by GOLD software.
#

@<TRIPOS>MOLECULE
AV-unprocessed.smi:33
    80    85     1
SMALL
NO_CHARGES


@<TRIPOS>ATOM
      1 ****        -3.2048   3.2681   1.7959 O.2            1 S1                 0.0000
      2 ****        -3.1000   2.0448   1.6853 C.2            1 S1                 0.0000
      3 ****        -3.9977   1.2756   1.0295 O.3            1 S1                 0.0000
      4 ****        -5.1060   1.8865   0.3828 C.3            1 S1                 0.0000
      5 ****        -5.8058   0.9658  -0.6368 C.3            1 S1                 0.0000
      6 ****        -4.9977   0.7077  -1.7823 O.3            1 S1                 0.0000
      7 ****        -4.4095  -0.5615  -1.7093 C.3            1 S1                 0.0000
      8 ****        -2.9347  -0.3771  -1.5223 N.pl3          1 S1                 0.0000
      9 ****        -2.1989   0.7885  -1.4590 C.2            1 S1                 0.0000
     10 ****        -0.9154   0.6321  -1.2767 N.2            1 S1                 0.0000
     11 ****        -0.7453  -0.7455  -1.2682 C.ar           1 S1                 0.0000
     12 ****         0.3808  -1.6016  -1.1399 C.ar           1 S1                 0.0000
     13 ****         1.6350  -1.1303  -0.9538 N.am           1 S1                 0.0000
     14 ****         2.1568  -1.1499   0.4179 C.2            1 S1                 0.0000
     15 ****         1.8262  -2.0544   1.1866 O.2            1 S1                 0.0000
     16 ****         3.1352  -0.1017   0.8655 C.ar           1 S1                 0.0000
     17 ****         4.2728  -0.4677   1.6177 C.ar           1 S1                 0.0000
     18 ****         5.1775   0.5170   2.0599 C.ar           1 S1                 0.0000
     19 ****         4.9405   1.8741   1.7691 C.ar           1 S1                 0.0000
     20 ****         3.7937   2.2479   1.0431 C.ar           1 S1                 0.0000
     21 ****         2.8895   1.2642   0.5992 C.ar           1 S1                 0.0000
     22 ****         2.3498  -0.6093  -2.1293 C.2            1 S1                 0.0000
     23 ****         1.7214  -0.3029  -3.1445 O.2            1 S1                 0.0000
     24 ****         3.8392  -0.4150  -2.0902 C.ar           1 S1                 0.0000
     25 ****         4.4015   0.8055  -2.5237 C.ar           1 S1                 0.0000
     26 ****         5.7974   0.9914  -2.5030 C.ar           1 S1                 0.0000
     27 ****         6.6406  -0.0479  -2.0663 C.ar           1 S1                 0.0000
     28 ****         6.0883  -1.2770  -1.6585 C.ar           1 S1                 0.0000
     29 ****         4.6925  -1.4635  -1.6780 C.ar           1 S1                 0.0000
     30 ****         0.1745  -2.9421  -1.2061 N.ar           1 S1                 0.0000
     31 ****        -1.0651  -3.4141  -1.3706 C.ar           1 S1                 0.0000
     32 ****        -2.2089  -2.7354  -1.4914 N.ar           1 S1                 0.0000
     33 ****        -2.0015  -1.3879  -1.4358 C.ar           1 S1                 0.0000
     34 ****        -5.0176  -1.2862  -0.4921 C.3            1 S1                 0.0000
     35 ****        -5.4266  -2.6116  -0.7661 O.3            1 S1                 0.0000
     36 ****        -6.2145  -0.4161  -0.1344 C.3            1 S1                 0.0000
     37 ****        -7.2937  -0.7866  -0.8300 F              1 S1                 0.0000
     38 ****        -1.9540   1.2702   2.2426 C.ar           1 S1                 0.0000
     39 ****        -0.8716   1.9659   2.8308 C.ar           1 S1                 0.0000
     40 ****         0.2277   1.2655   3.3636 C.ar           1 S1                 0.0000
     41 ****         0.2554  -0.1399   3.3190 C.ar           1 S1                 0.0000
     42 ****        -0.8127  -0.8437   2.7331 C.ar           1 S1                 0.0000
     43 ****        -1.9110  -0.1443   2.1979 C.ar           1 S1                 0.0000
     44 ****        -5.8210   2.1890   1.1487 H              1 S1                 0.0000
     45 ****        -4.7889   2.7959  -0.1299 H              1 S1                 0.0000
     46 ****        -6.6900   1.5047  -0.9794 H              1 S1                 0.0000
     47 ****        -4.5091  -1.0950  -2.6555 H              1 S1                 0.0000
     48 ****        -2.6441   1.7702  -1.5276 H              1 S1                 0.0000
     49 ****         4.4633  -1.5060   1.8486 H              1 S1                 0.0000
     50 ****         6.0527   0.2308   2.6243 H              1 S1                 0.0000
     51 ****         5.6342   2.6290   2.1092 H              1 S1                 0.0000
     52 ****         3.6056   3.2895   0.8282 H              1 S1                 0.0000
     53 ****         2.0075   1.5637   0.0511 H              1 S1                 0.0000
     54 ****         3.7636   1.6101  -2.8605 H              1 S1                 0.0000
     55 ****         6.2210   1.9317  -2.8233 H              1 S1                 0.0000
     56 ****         7.7109   0.0952  -2.0505 H              1 S1                 0.0000
     57 ****         6.7350  -2.0777  -1.3315 H              1 S1                 0.0000
     58 ****         4.2805  -2.4128  -1.3671 H              1 S1                 0.0000
     59 ****        -1.1538  -4.4898  -1.4092 H              1 S1                 0.0000
     60 ****        -4.3052  -1.2923   0.3311 H              1 S1                 0.0000
     61 ****        -6.0692  -2.5893  -1.4587 H              1 S1                 0.0000
     62 ****        -6.4779  -0.4428   0.9234 H              1 S1                 0.0000
     63 ****        -0.8705   3.0455   2.8772 H              1 S1                 0.0000
     64 ****         1.0504   1.8074   3.8067 H              1 S1                 0.0000
     65 ****         1.0993  -0.6778   3.7252 H              1 S1                 0.0000
     66 ****        -0.7879  -1.9228   2.6903 H              1 S1                 0.0000
     67 ****        -2.7126  -0.7156   1.7579 H              1 S1                 0.0000
     68 ****        -3.9855   3.7419   1.3885 LP             1 S1                 0.0000
     69 ****        -2.5091   3.7866   2.2931 LP             1 S1                 0.0000
     70 ****        -4.2771   1.3990  -1.8360 LP             1 S1                 0.0000
     71 ****        -5.5682   0.7566  -2.6021 LP             1 S1                 0.0000
     72 ****        -0.2174   1.3400  -1.1684 LP             1 S1                 0.0000
     73 ****         1.2039  -2.7726   0.8753 LP             1 S1                 0.0000
     74 ****         2.1802  -2.0702   2.1217 LP             1 S1                 0.0000
     75 ****         0.7273  -0.4086  -3.1682 LP             1 S1                 0.0000
     76 ****         2.2058   0.0514  -3.9444 LP             1 S1                 0.0000
     77 ****         0.9466  -3.5733  -1.1321 LP             1 S1                 0.0000
     78 ****        -3.1059  -3.1617  -1.6081 LP             1 S1                 0.0000
     79 ****        -5.8289  -3.0171   0.0547 LP             1 S1                 0.0000
     80 ****        -4.6383  -3.1552  -1.0544 LP             1 S1                 0.0000
@<TRIPOS>BOND
    1    1    2 2     
    2    2    3 1     
    3    2   38 1     
    4    3    4 1     
    5    4    5 1     
    6    4   44 1     
    7    4   45 1     
    8    5   36 1     
    9    5    6 1     
   10    5   46 1     
   11    6    7 1     
   12    7    8 1     
   13    7   34 1     
   14    7   47 1     
   15    8   33 1     
   16    8    9 1     
   17    9   10 2     
   18    9   48 1     
   19   10   11 1     
   20   11   33 ar    
   21   11   12 ar    
   22   12   13 1     
   23   12   30 ar    
   24   13   14 am    
   25   13   22 am    
   26   14   15 2     
   27   14   16 1     
   28   16   21 ar    
   29   16   17 ar    
   30   17   18 ar    
   31   17   49 1     
   32   18   19 ar    
   33   18   50 1     
   34   19   20 ar    
   35   19   51 1     
   36   20   21 ar    
   37   20   52 1     
   38   21   53 1     
   39   22   23 2     
   40   22   24 1     
   41   24   29 ar    
   42   24   25 ar    
   43   25   26 ar    
   44   25   54 1     
   45   26   27 ar    
   46   26   55 1     
   47   27   28 ar    
   48   27   56 1     
   49   28   29 ar    
   50   28   57 1     
   51   29   58 1     
   52   30   31 ar    
   53   31   32 ar    
   54   31   59 1     
   55   32   33 ar    
   56   34   35 1     
   57   34   36 1     
   58   34   60 1     
   59   35   61 1     
   60   36   37 1     
   61   36   62 1     
   62   38   43 ar    
   63   38   39 ar    
   64   39   40 ar    
   65   39   63 1     
   66   40   41 ar    
   67   40   64 1     
   68   41   42 ar    
   69   41   65 1     
   70   42   43 ar    
   71   42   66 1     
   72   43   67 1     
   73    1   68 1     
   74    1   69 1     
   75    6   70 1     
   76    6   71 1     
   77   10   72 1     
   78   15   73 1     
   79   15   74 1     
   80   23   75 1     
   81   23   76 1     
   82   30   77 1     
   83   32   78 1     
   84   35   79 1     
   85   35   80 1     
@<TRIPOS>SUBSTRUCTURE
      1 S1             1
@<TRIPOS>SET
LONE_PAIRS      STATIC     ATOMS    <user>   **** ""
13 68 69 70 71 72 73 74 75 76 77 78 79 80
DONOR_HYDROGENS      STATIC     ATOMS    <user>   **** ""
1 61
ATOM$BLUE        STATIC     ATOMS    COLORGROUP SYSTEM
13 68 69 70 71 72 73 74 75 76 77 78 79 80
ATOM$RED        STATIC     ATOMS    COLORGROUP SYSTEM
1 61
