AV-unprocessed.smi:1040|AV-procd|sdf|4526|dock8
  -GOLD-   22720 2543D 1   1.00000     0.00000
 Structure written by MMmdl.
 55 56  0  0  0  0  0  0  0  0  2 V2000
  152.0567  138.1392  154.3085 C   0  0  0  0  0  0  0  0  0  0  0  0
  150.6434  138.0097  154.8997 C   0  0  2  0  0  0  0  0  0  0  0  0
  149.9758  136.8187  154.3786 N   0  0  0  0  0  0  0  0  0  0  0  0
  150.2528  135.5530  154.7201 C   0  0  0  0  0  0  0  0  0  0  0  0
  151.1493  135.2358  155.5017 O   0  0  0  0  0  0  0  0  0  0  0  0
  149.4139  134.6955  154.1163 N   0  0  0  0  0  0  0  0  0  0  0  0
  149.3258  133.2874  154.2986 C   0  0  0  0  0  0  0  0  0  0  0  0
  150.3598  132.5303  154.9050 C   0  0  0  0  0  0  0  0  0  0  0  0
  150.2153  131.1347  155.0382 C   0  0  0  0  0  0  0  0  0  0  0  0
  149.0457  130.5173  154.5566 C   0  0  0  0  0  0  0  0  0  0  0  0
  148.0868  131.2643  153.9701 N   0  3  0  0  0  0  0  0  0  0  0  0
  148.1785  132.6079  153.8174 C   0  0  0  0  0  0  0  0  0  0  0  0
  147.1220  133.2879  153.1904 N   0  0  0  0  0  0  0  0  0  0  0  0
  147.0061  132.9926  151.7648 C   0  0  0  0  0  0  0  0  0  0  0  0
  145.9952  133.9390  151.0943 C   0  0  0  0  0  0  0  0  0  0  0  0
  144.6390  133.8959  151.8174 C   0  0  0  0  0  0  0  0  0  0  0  0
  144.8251  134.1810  153.3168 C   0  0  0  0  0  0  0  0  0  0  0  0
  145.8655  133.2294  153.9326 C   0  0  0  0  0  0  0  0  0  0  0  0
  149.7770  139.2563  154.6875 C   0  0  0  0  0  0  0  0  0  0  0  0
  150.2531  140.2565  154.1487 O   0  0  0  0  0  0  0  0  0  0  0  0
  148.5107  139.1774  155.1343 N   0  0  0  0  0  0  0  0  0  0  0  0
  147.4573  140.1982  155.0801 C   0  0  0  0  0  0  0  0  0  0  0  0
  147.9813  141.4222  155.8517 C   0  0  0  0  0  0  0  0  0  0  0  0
  146.1688  139.6904  155.7615 C   0  0  0  0  0  0  0  0  0  0  0  0
  147.1741  140.6105  153.6206 C   0  0  0  0  0  0  0  0  0  0  0  0
  152.5666  139.0225  154.6948 H   0  0  0  0  0  0  0  0  0  0  0  0
  152.0256  138.2231  153.2214 H   0  0  0  0  0  0  0  0  0  0  0  0
  152.6709  137.2735  154.5584 H   0  0  0  0  0  0  0  0  0  0  0  0
  150.7481  137.8886  155.9800 H   0  0  0  0  0  0  0  0  0  0  0  0
  149.2196  136.9822  153.7296 H   0  0  0  0  0  0  0  0  0  0  0  0
  148.6773  135.1108  153.5644 H   0  0  0  0  0  0  0  0  0  0  0  0
  151.2673  132.9961  155.2580 H   0  0  0  0  0  0  0  0  0  0  0  0
  150.9945  130.5455  155.4995 H   0  0  0  0  0  0  0  0  0  0  0  0
  148.8523  129.4559  154.6162 H   0  0  0  0  0  0  0  0  0  0  0  0
  147.9816  133.0927  151.2866 H   0  0  0  0  0  0  0  0  0  0  0  0
  146.6891  131.9572  151.6325 H   0  0  0  0  0  0  0  0  0  0  0  0
  146.3840  134.9582  151.1092 H   0  0  0  0  0  0  0  0  0  0  0  0
  145.8702  133.6708  150.0448 H   0  0  0  0  0  0  0  0  0  0  0  0
  143.9533  134.6207  151.3776 H   0  0  0  0  0  0  0  0  0  0  0  0
  144.1832  132.9140  151.6844 H   0  0  0  0  0  0  0  0  0  0  0  0
  145.1492  135.2137  153.4546 H   0  0  0  0  0  0  0  0  0  0  0  0
  143.8728  134.0829  153.8389 H   0  0  0  0  0  0  0  0  0  0  0  0
  145.4836  132.2076  153.9225 H   0  0  0  0  0  0  0  0  0  0  0  0
  146.0407  133.4965  154.9757 H   0  0  0  0  0  0  0  0  0  0  0  0
  148.2423  138.3041  155.5647 H   0  0  0  0  0  0  0  0  0  0  0  0
  147.2500  142.2313  155.8562 H   0  0  0  0  0  0  0  0  0  0  0  0
  148.8975  141.8121  155.4057 H   0  0  0  0  0  0  0  0  0  0  0  0
  148.2009  141.1741  156.8910 H   0  0  0  0  0  0  0  0  0  0  0  0
  146.3625  139.3621  156.7833 H   0  0  0  0  0  0  0  0  0  0  0  0
  145.7225  138.8533  155.2248 H   0  0  0  0  0  0  0  0  0  0  0  0
  145.4136  140.4757  155.8080 H   0  0  0  0  0  0  0  0  0  0  0  0
  146.4587  141.4322  153.5780 H   0  0  0  0  0  0  0  0  0  0  0  0
  146.7541  139.7919  153.0363 H   0  0  0  0  0  0  0  0  0  0  0  0
  148.0836  140.9419  153.1180 H   0  0  0  0  0  0  0  0  0  0  0  0
  147.2507  130.7927  153.6247 H   0  0  0  0  0  0  0  0  0  0  0  0
  1  2  1  0  0  0  0
  1 26  1  0  0  0  0
  1 27  1  0  0  0  0
  1 28  1  0  0  0  0
  2  3  1  0  0  0  0
  2 19  1  0  0  0  0
  2 29  1  0  0  0  0
  3  4  1  0  0  0  0
  3 30  1  0  0  0  0
  4  5  2  0  0  0  0
  4  6  1  0  0  0  0
  6  7  1  0  0  0  0
  6 31  1  0  0  0  0
  7 12  1  0  0  0  0
  7  8  2  0  0  0  0
  8  9  1  0  0  0  0
  8 32  1  0  0  0  0
  9 10  2  0  0  0  0
  9 33  1  0  0  0  0
 10 11  1  0  0  0  0
 10 34  1  0  0  0  0
 11 12  2  0  0  0  0
 11 55  1  0  0  0  0
 12 13  1  0  0  0  0
 13 18  1  0  0  0  0
 13 14  1  0  0  0  0
 14 15  1  0  0  0  0
 14 35  1  0  0  0  0
 14 36  1  0  0  0  0
 15 16  1  0  0  0  0
 15 37  1  0  0  0  0
 15 38  1  0  0  0  0
 16 17  1  0  0  0  0
 16 39  1  0  0  0  0
 16 40  1  0  0  0  0
 17 18  1  0  0  0  0
 17 41  1  0  0  0  0
 17 42  1  0  0  0  0
 18 43  1  0  0  0  0
 18 44  1  0  0  0  0
 19 20  2  0  0  0  0
 19 21  1  0  0  0  0
 21 22  1  0  0  0  0
 21 45  1  0  0  0  0
 22 23  1  0  0  0  0
 22 24  1  0  0  0  0
 22 25  1  0  0  0  0
 23 46  1  0  0  0  0
 23 47  1  0  0  0  0
 23 48  1  0  0  0  0
 24 49  1  0  0  0  0
 24 50  1  0  0  0  0
 24 51  1  0  0  0  0
 25 52  1  0  0  0  0
 25 53  1  0  0  0  0
 25 54  1  0  0  0  0
M  CHG  1  11   1
M  END
> <s_m_source_file>
AV-unprocessed.smi

> <i_m_source_file_index>
1040

> <i_lp_mmshare_version>
43012

> <i_f3d_flags>
0

> <s_epik_input>
W0NIM11DKFtDSDNdKShbQ0gzXSlbTkhdQyg9TylbQ0BIXShbQ0gzXSlbTkhdQyg9TylbTkhdYzFbY0hdW2NIXVtjSF1uYzFOMltDSDJdW0NIMl1bQ0gyXVtDSDJdW0NIMl0y

> <s_epik_cmdline>
J2VwaWtfcHl0aG9uJywgJy1waCcsICc3LjAnLCAnLXRuJywgJzgnLCAnLW1hJywgJzIwMCcsICctbWV0YWxfYmluZGluZycsICctaW1hZScsICc8aW5maWxlLm1hZT4nLCAnLW9tYWUnLCAnPG91dGZpbGUubWFlPic=

> <r_lp_tautomer_probability>
0.999994

> <r_epik_Ionization_Penalty>
1.20468

> <r_epik_Ionization_Penalty_Charging>
1.20466

> <r_epik_Ionization_Penalty_Neutral>
1.88859e-05

> <r_epik_State_Penalty>
1.27057

> <r_epik_Charging_Adjusted_Penalty>
2.47523

> <i_epik_Tot_Q>
1

> <i_epik_Tot_abs_Q>
1

> <r_epik_Metal_State_Penalty>
1.34448

> <b_epik_Metal_Only>
0

> <s_lp_Force_Field>
OPLS_2005

> <r_lp_Energy>
28.5731

> <b_lp_Chiralities_Consistent>
1

> <s_lp_Variant>
AV-unprocessed.smi:1040-3

> <Gold.Version>
5.8.1

> <Gold.Id.Protein>
6NUR|6NUR_protein|mol2

> <Gold.PLP.Fitness>
46.3715

> <Gold.PLP.PLP>
-37.2683

> <Gold.PLP.part.hbond>
-4.1220

> <Gold.PLP.part.metal>
0.0000

> <Gold.PLP.part.buried>
-4.6716

> <Gold.PLP.part.nonpolar>
-29.4941

> <Gold.PLP.part.repulsive>
0.6826

> <Gold.PLP.ligand.clash>
0.0000

> <Gold.PLP.ligand.torsion>
0.4523

> <Gold.PLP.Chemscore.Hbond>
3.2393

> <Gold.PLP.Chemscore.CHOScore>
0.0000

> <Gold.PLP.Chemscore.Metal>
0.0000

> <Gold.Chemscore.Hbonds>
donor molecule, donor type, donor heavy atom, donor atom, acceptor molecule, acceptor atom, score
      L1  H     3    30       P1  7948  0.56
      L1  H     6    31       P1  7948  0.48
      P1  H  7989  7998       L1    20  0.96
      P1  H 10752 10763       L1     5  1.00

> <Gold.PLP.Chemscore.Internal.Correction>
0.2901

> <Gold.Rescore>
     Score         DG    S(hbond)    S(metal)    S(lipo)     H(rot)  DE(clash)    DE(int)     intcor
     17.16     -18.93       2.70        0.00      73.91       1.64       0.06       1.70       ----

> <Gold.Chemscore.Fitness>
17.1571

> <Gold.Chemscore.DG>
-18.9258

> <Gold.Chemscore.ZeroCoef>
-5.4800

> <Gold.Chemscore.Hbond>
2.6956

> <Gold.Chemscore.Metal>
0.0000

> <Gold.Chemscore.Lipo>
73.9149

> <Gold.Chemscore.Internal_Hbond>
0.0000

> <Gold.Chemscore.DEClash>
0.0640

> <Gold.Chemscore.DEInternal>
1.7047

> <Gold.Chemscore.Rot>
1.6428

> <Gold.Chemscore.Internal.Correction>
   9.000000E+99

> <Gold.Chemscore.Hbonds>
donor molecule, donor type, donor heavy atom, donor atom, acceptor molecule, acceptor atom, score
      L1  H     3    30       P1  7948  0.53
      L1  H     6    31       P1  7948  0.35
      P1  H  7989  7998       L1    20  0.92
      P1  H 10752 10763       L1     5  0.88

> <Gold.Chemscore.Hbond.Weighted>
-9.0032

> <Gold.Chemscore.Metal.Weighted>
-0.0000

> <Gold.Chemscore.Lipo.Weighted>
-8.6480

> <Gold.Chemscore.Internal_Hbond.Weighted>
0.0000

> <Gold.Chemscore.DEClash.Weighted>
0.0640

> <Gold.Chemscore.DEInternal.Weighted>
1.7047

> <Gold.Chemscore.Rot.Weighted>
4.2055

> <Gold.Chemscore.Internal.Correction.Weighted>
   9.000000E+99

> <Gold.Protein.RotatedTorsions>
[ 6907 6896 6895 6894 ] final -166.17 input  -60.11 | X-H torsion
[ 7974 7965 7964 7962 ] final  117.05 input  175.53 | X-H torsion
[ 8008 7997 7996 7995 ] final  -37.94 input   59.86 | X-H torsion
[ 10167 10162 10161 10158 ] final  -30.47 input  -65.29 | X-H torsion
[ 10718 10713 10712 10709 ] final  -18.61 input   66.30 | X-H torsion
[ 10763 10752 10751 10750 ] final   78.25 input  -60.55 | X-H torsion
[ 11005 11000 10999 10996 ] final -146.13 input  -57.11 | X-H torsion

> <Gold.Protein.ActiveResidues>
 VAL166  LYS551  ARG553  GLY616  TRP617  ASP618  TYR619  PRO620  LYS621  CYS622 
 ASP623  PHE694  ASN695  SER759  ASP760  ASP761  ALA762  ILE779  LEU786  VAL792 
 PHE793  MET794  SER795  GLU796  ALA797  LYS798  CYS799  TRP800  GLU811  SER814 

> <Gold.Protein.RotatedAtoms>
  151.4394  133.3647  159.2779 H   0  0  0  0  0  0  0  0  0  0  0  0  # atno 6907 bound_to 6896
  150.9168  134.8588  159.7473 H   0  0  0  0  0  0  0  0  0  0  0  0  # atno 6908 bound_to 6896
  152.4961  134.4328  159.9570 H   0  0  0  0  0  0  0  0  0  0  0  0  # atno 6909 bound_to 6896
  145.1722  139.3095  143.4462 H   0  0  0  0  0  0  0  0  0  0  0  0  # atno 7974 bound_to 7965
  154.4045  140.1591  156.2619 H   0  0  0  0  0  0  0  0  0  0  0  0  # atno 8008 bound_to 7997
  155.9029  140.3432  155.6018 H   0  0  0  0  0  0  0  0  0  0  0  0  # atno 8009 bound_to 7997
  155.7427  140.0794  157.2229 H   0  0  0  0  0  0  0  0  0  0  0  0  # atno 8010 bound_to 7997
  140.7249  143.3846  151.1538 H   0  0  0  0  0  0  0  0  0  0  0  0  # atno 10167 bound_to 10162
  156.5572  130.4716  149.6424 H   0  0  0  0  0  0  0  0  0  0  0  0  # atno 10718 bound_to 10713
  153.0860  135.4884  154.8597 H   0  0  0  0  0  0  0  0  0  0  0  0  # atno 10763 bound_to 10752
  154.7210  135.3039  154.9049 H   0  0  0  0  0  0  0  0  0  0  0  0  # atno 10764 bound_to 10752
  153.9713  135.6801  153.4800 H   0  0  0  0  0  0  0  0  0  0  0  0  # atno 10765 bound_to 10752
  140.7852  134.3033  157.5032 H   0  0  0  0  0  0  0  0  0  0  0  0  # atno 11005 bound_to 11000
  146.3467  140.1871  142.8589 LP  0  0  0  0  0  0  0  0  0  0  0  0  # atno 17320 bound_to 7965
  145.0222  140.8802  143.5160 LP  0  0  0  0  0  0  0  0  0  0  0  0  # atno 17321 bound_to 7965
  139.7441  143.8879  152.3058 LP  0  0  0  0  0  0  0  0  0  0  0  0  # atno 17342 bound_to 10162
  139.8710  144.7068  150.8987 LP  0  0  0  0  0  0  0  0  0  0  0  0  # atno 17343 bound_to 10162
  156.2831  130.7082  151.1912 LP  0  0  0  0  0  0  0  0  0  0  0  0  # atno 17370 bound_to 10713
  157.7376  131.0550  150.5347 LP  0  0  0  0  0  0  0  0  0  0  0  0  # atno 17371 bound_to 10713
  139.8737  134.9342  156.3600 LP  0  0  0  0  0  0  0  0  0  0  0  0  # atno 17394 bound_to 11000
  140.9444  133.7493  156.0188 LP  0  0  0  0  0  0  0  0  0  0  0  0  # atno 17395 bound_to 11000

$$$$
