AV-unprocessed.smi:2678|AV-procd|sdf|10367|dock6
  -GOLD-   2272014393D 1   1.00000     0.00000
 Structure written by MMmdl.
 46 47  0  0  0  0  0  0  0  0  1 V2000
  150.1762  134.2224  155.5845 C   0  0  0  0  0  0  0  0  0  0  0  0
  148.8648  134.5730  154.8634 C   0  0  0  0  0  0  0  0  0  0  0  0
  148.5996  133.6305  153.6820 C   0  0  0  0  0  0  0  0  0  0  0  0
  148.8968  135.9519  154.3846 N   0  0  0  0  0  0  0  0  0  0  0  0
  149.0345  137.0426  155.1552 C   0  0  0  0  0  0  0  0  0  0  0  0
  149.1543  136.9949  156.3800 O   0  0  0  0  0  0  0  0  0  0  0  0
  149.0409  138.3943  154.4289 C   0  0  1  0  0  0  0  0  0  0  0  0
  147.7093  138.6338  153.6866 C   0  0  0  0  0  0  0  0  0  0  0  0
  147.7064  139.9943  152.9713 C   0  0  0  0  0  0  0  0  0  0  0  0
  148.0043  141.1408  153.9504 C   0  0  0  0  0  0  0  0  0  0  0  0
  149.3335  140.9127  154.6935 C   0  0  1  0  0  0  0  0  0  0  0  0
  149.5560  142.0053  155.6431 N   0  0  0  0  0  0  0  0  0  0  0  0
  150.3159  142.0082  156.7540 C   0  0  0  0  0  0  0  0  0  0  0  0
  150.9265  141.0019  157.1074 O   0  0  0  0  0  0  0  0  0  0  0  0
  150.3146  143.1789  157.4217 N   0  0  0  0  0  0  0  0  0  0  0  0
  151.0379  143.5401  158.5899 C   0  0  0  0  0  0  0  0  0  0  0  0
  150.9358  144.7961  159.2356 C   0  0  0  0  0  0  0  0  0  0  0  0
  151.6916  145.0238  160.4017 C   0  0  0  0  0  0  0  0  0  0  0  0
  152.5151  143.9877  160.8833 C   0  0  0  0  0  0  0  0  0  0  0  0
  152.6118  142.7814  160.2858 N   0  0  0  0  0  0  0  0  0  0  0  0
  151.8833  142.5699  159.1688 C   0  0  0  0  0  0  0  0  0  0  0  0
  149.3189  139.5482  155.4151 C   0  0  0  0  0  0  0  0  0  0  0  0
  150.1597  133.1943  155.9473 H   0  0  0  0  0  0  0  0  0  0  0  0
  150.3410  134.8700  156.4462 H   0  0  0  0  0  0  0  0  0  0  0  0
  151.0350  134.3267  154.9203 H   0  0  0  0  0  0  0  0  0  0  0  0
  148.0390  134.4611  155.5684 H   0  0  0  0  0  0  0  0  0  0  0  0
  148.5358  132.5942  154.0149 H   0  0  0  0  0  0  0  0  0  0  0  0
  149.3935  133.6922  152.9369 H   0  0  0  0  0  0  0  0  0  0  0  0
  147.6587  133.8751  153.1878 H   0  0  0  0  0  0  0  0  0  0  0  0
  148.8059  136.0875  153.3882 H   0  0  0  0  0  0  0  0  0  0  0  0
  149.8436  138.3810  153.6892 H   0  0  0  0  0  0  0  0  0  0  0  0
  147.5367  137.8395  152.9589 H   0  0  0  0  0  0  0  0  0  0  0  0
  146.8738  138.5964  154.3876 H   0  0  0  0  0  0  0  0  0  0  0  0
  148.4518  139.9904  152.1751 H   0  0  0  0  0  0  0  0  0  0  0  0
  146.7417  140.1586  152.4905 H   0  0  0  0  0  0  0  0  0  0  0  0
  148.0353  142.0864  153.4080 H   0  0  0  0  0  0  0  0  0  0  0  0
  147.1872  141.2230  154.6688 H   0  0  0  0  0  0  0  0  0  0  0  0
  150.1312  140.9159  153.9485 H   0  0  0  0  0  0  0  0  0  0  0  0
  149.0668  142.8647  155.4378 H   0  0  0  0  0  0  0  0  0  0  0  0
  149.6923  143.8882  157.0631 H   0  0  0  0  0  0  0  0  0  0  0  0
  150.2875  145.5787  158.8734 H   0  0  0  0  0  0  0  0  0  0  0  0
  151.6372  145.9711  160.9178 H   0  0  0  0  0  0  0  0  0  0  0  0
  153.1068  144.1291  161.7756 H   0  0  0  0  0  0  0  0  0  0  0  0
  151.9824  141.5921  158.7202 H   0  0  0  0  0  0  0  0  0  0  0  0
  148.5593  139.5610  156.1989 H   0  0  0  0  0  0  0  0  0  0  0  0
  150.2724  139.3781  155.9167 H   0  0  0  0  0  0  0  0  0  0  0  0
  1  2  1  0  0  0  0
  1 23  1  0  0  0  0
  1 24  1  0  0  0  0
  1 25  1  0  0  0  0
  2  3  1  0  0  0  0
  2  4  1  0  0  0  0
  2 26  1  0  0  0  0
  3 27  1  0  0  0  0
  3 28  1  0  0  0  0
  3 29  1  0  0  0  0
  4  5  1  0  0  0  0
  4 30  1  0  0  0  0
  5  6  2  0  0  0  0
  5  7  1  0  0  0  0
  7 22  1  0  0  0  0
  7  8  1  0  0  0  0
  7 31  1  0  0  0  0
  8  9  1  0  0  0  0
  8 32  1  0  0  0  0
  8 33  1  0  0  0  0
  9 10  1  0  0  0  0
  9 34  1  0  0  0  0
  9 35  1  0  0  0  0
 10 11  1  0  0  0  0
 10 36  1  0  0  0  0
 10 37  1  0  0  0  0
 11 12  1  0  0  0  0
 11 22  1  0  0  0  0
 11 38  1  0  0  0  0
 12 13  1  0  0  0  0
 12 39  1  0  0  0  0
 13 14  2  0  0  0  0
 13 15  1  0  0  0  0
 15 16  1  0  0  0  0
 15 40  1  0  0  0  0
 16 21  1  0  0  0  0
 16 17  2  0  0  0  0
 17 18  1  0  0  0  0
 17 41  1  0  0  0  0
 18 19  2  0  0  0  0
 18 42  1  0  0  0  0
 19 20  1  0  0  0  0
 19 43  1  0  0  0  0
 20 21  2  0  0  0  0
 21 44  1  0  0  0  0
 22 45  1  0  0  0  0
 22 46  1  0  0  0  0
M  END
> <s_m_source_file>
AV-unprocessed.smi

> <i_m_source_file_index>
2678

> <i_lp_mmshare_version>
43012

> <i_f3d_flags>
0

> <s_epik_input>
W0NIM11bQ0hdKFtDSDNdKVtOSF1DKD1PKVtDQEBIXTFbQ0gyXVtDSDJdW0NIMl1bQ0BIXShbQ0gyXTEpW05IXUMoPU8pW05IXWMyW2NIXVtjSF1bY0hdbltjSF0y

> <s_epik_cmdline>
J2VwaWtfcHl0aG9uJywgJy1waCcsICc3LjAnLCAnLXRuJywgJzgnLCAnLW1hJywgJzIwMCcsICctbWV0YWxfYmluZGluZycsICctaW1hZScsICc8aW5maWxlLm1hZT4nLCAnLW9tYWUnLCAnPG91dGZpbGUubWFlPic=

> <r_epik_Ionization_Penalty>
0.00482944

> <r_epik_Ionization_Penalty_Charging>
0

> <r_epik_Ionization_Penalty_Neutral>
0.00482944

> <r_epik_State_Penalty>
0.00347168

> <r_epik_Charging_Adjusted_Penalty>
0.00347168

> <i_epik_Tot_Q>
0

> <i_epik_Tot_abs_Q>
0

> <r_epik_Metal_State_Penalty>
-0

> <b_epik_Metal_Only>
0

> <s_lp_Force_Field>
OPLS_2005

> <r_lp_Energy>
23.8457

> <b_lp_Chiralities_Consistent>
1

> <s_lp_Variant>
AV-unprocessed.smi:2678-2

> <Gold.Version>
5.8.1

> <Gold.Id.Protein>
6NUR|6NUR_protein|mol2

> <Gold.PLP.Fitness>
46.0032

> <Gold.PLP.PLP>
-37.7350

> <Gold.PLP.part.hbond>
-2.9940

> <Gold.PLP.part.metal>
0.0000

> <Gold.PLP.part.buried>
-2.6653

> <Gold.PLP.part.nonpolar>
-33.1604

> <Gold.PLP.part.repulsive>
0.2073

> <Gold.PLP.ligand.clash>
0.0061

> <Gold.PLP.ligand.torsion>
0.3730

> <Gold.PLP.Chemscore.Hbond>
3.0000

> <Gold.PLP.Chemscore.CHOScore>
0.0000

> <Gold.PLP.Chemscore.Metal>
0.0000

> <Gold.Chemscore.Hbonds>
donor molecule, donor type, donor heavy atom, donor atom, acceptor molecule, acceptor atom, score
      L1  H     4    30       P1  7948  0.99
      L1  H    12    39       P1  8028  1.00
      L1  H    15    40       P1  8028  1.00

> <Gold.PLP.Chemscore.Internal.Correction>
0.0202

> <Gold.Rescore>
     Score         DG    S(hbond)    S(metal)    S(lipo)     H(rot)  DE(clash)    DE(int)     intcor
     19.35     -24.13       2.88        0.00     109.27       1.46       1.44       3.34       ----

> <Gold.Chemscore.Fitness>
19.3455

> <Gold.Chemscore.DG>
-24.1291

> <Gold.Chemscore.ZeroCoef>
-5.4800

> <Gold.Chemscore.Hbond>
2.8752

> <Gold.Chemscore.Metal>
0.0000

> <Gold.Chemscore.Lipo>
109.2676

> <Gold.Chemscore.Internal_Hbond>
0.0000

> <Gold.Chemscore.DEClash>
1.4433

> <Gold.Chemscore.DEInternal>
3.3403

> <Gold.Chemscore.Rot>
1.4603

> <Gold.Chemscore.Internal.Correction>
   9.000000E+99

> <Gold.Chemscore.Hbonds>
donor molecule, donor type, donor heavy atom, donor atom, acceptor molecule, acceptor atom, score
      L1  H     4    30       P1  7948  0.92
      L1  H    12    39       P1  8028  0.95
      L1  H    15    40       P1  8028  0.81

> <Gold.Chemscore.Hbond.Weighted>
-9.6031

> <Gold.Chemscore.Metal.Weighted>
-0.0000

> <Gold.Chemscore.Lipo.Weighted>
-12.7843

> <Gold.Chemscore.Internal_Hbond.Weighted>
0.0000

> <Gold.Chemscore.DEClash.Weighted>
1.4433

> <Gold.Chemscore.DEInternal.Weighted>
3.3403

> <Gold.Chemscore.Rot.Weighted>
3.7383

> <Gold.Chemscore.Internal.Correction.Weighted>
   9.000000E+99

> <Gold.Protein.RotatedTorsions>
[ 6907 6896 6895 6894 ] final  -43.35 input  -60.11 | X-H torsion
[ 7974 7965 7964 7962 ] final   -4.95 input  175.53 | X-H torsion
[ 8008 7997 7996 7995 ] final -171.25 input   59.86 | X-H torsion
[ 10167 10162 10161 10158 ] final   88.30 input  -65.29 | X-H torsion
[ 10718 10713 10712 10709 ] final   33.78 input   66.30 | X-H torsion
[ 10763 10752 10751 10750 ] final  -34.69 input  -60.55 | X-H torsion
[ 11005 11000 10999 10996 ] final   40.72 input  -57.11 | X-H torsion

> <Gold.Protein.ActiveResidues>
 VAL166  LYS551  ARG553  GLY616  TRP617  ASP618  TYR619  PRO620  LYS621  CYS622 
 ASP623  PHE694  ASN695  SER759  ASP760  ASP761  ALA762  ILE779  LEU786  VAL792 
 PHE793  MET794  SER795  GLU796  ALA797  LYS798  CYS799  TRP800  GLU811  SER814 

> <Gold.Protein.RotatedAtoms>
  150.9449  134.8855  159.7635 H   0  0  0  0  0  0  0  0  0  0  0  0  # atno 6907 bound_to 6896
  152.5095  134.3889  159.9387 H   0  0  0  0  0  0  0  0  0  0  0  0  # atno 6908 bound_to 6896
  151.3908  133.3749  159.2755 H   0  0  0  0  0  0  0  0  0  0  0  0  # atno 6909 bound_to 6896
  146.2362  140.1948  142.8333 H   0  0  0  0  0  0  0  0  0  0  0  0  # atno 7974 bound_to 7965
  155.9291  140.1088  157.1147 H   0  0  0  0  0  0  0  0  0  0  0  0  # atno 8008 bound_to 7997
  154.4067  140.1241  156.4844 H   0  0  0  0  0  0  0  0  0  0  0  0  # atno 8009 bound_to 7997
  155.7102  140.3471  155.4973 H   0  0  0  0  0  0  0  0  0  0  0  0  # atno 8010 bound_to 7997
  139.8686  144.6505  150.8975 H   0  0  0  0  0  0  0  0  0  0  0  0  # atno 10167 bound_to 10162
  157.3022  130.7356  149.6673 H   0  0  0  0  0  0  0  0  0  0  0  0  # atno 10718 bound_to 10713
  153.8509  135.6849  153.4792 H   0  0  0  0  0  0  0  0  0  0  0  0  # atno 10763 bound_to 10752
  153.1398  135.4662  154.9476 H   0  0  0  0  0  0  0  0  0  0  0  0  # atno 10764 bound_to 10752
  154.7803  135.3266  154.7953 H   0  0  0  0  0  0  0  0  0  0  0  0  # atno 10765 bound_to 10752
  140.1904  134.3994  155.8150 H   0  0  0  0  0  0  0  0  0  0  0  0  # atno 11005 bound_to 11000
  144.9829  140.8476  143.5386 LP  0  0  0  0  0  0  0  0  0  0  0  0  # atno 17320 bound_to 7965
  145.1943  139.2284  143.5226 LP  0  0  0  0  0  0  0  0  0  0  0  0  # atno 17321 bound_to 7965
  140.7764  143.3682  151.1698 LP  0  0  0  0  0  0  0  0  0  0  0  0  # atno 17342 bound_to 10162
  139.7305  143.9080  152.3017 LP  0  0  0  0  0  0  0  0  0  0  0  0  # atno 17343 bound_to 10162
  155.9672  130.4276  150.4753 LP  0  0  0  0  0  0  0  0  0  0  0  0  # atno 17370 bound_to 10713
  157.2736  131.0592  151.2244 LP  0  0  0  0  0  0  0  0  0  0  0  0  # atno 17371 bound_to 10713
  141.2226  133.7043  156.8085 LP  0  0  0  0  0  0  0  0  0  0  0  0  # atno 17394 bound_to 11000
  140.2166  134.8788  157.3332 LP  0  0  0  0  0  0  0  0  0  0  0  0  # atno 17395 bound_to 11000

$$$$
