AV-unprocessed.smi:1762|AV-procd|sdf|7099|dock9
  -GOLD-   22720 8313D 1   1.00000     0.00000
 Structure written by MMmdl.
 52 53  0  0  0  0  0  0  0  0  1 V2000
  152.5881  139.2800  155.6977 C   0  0  0  0  0  0  0  0  0  0  0  0
  151.0648  139.4225  155.6031 C   0  0  2  0  0  0  0  0  0  0  0  0
  150.3621  138.0613  155.4483 C   0  0  0  0  0  0  0  0  0  0  0  0
  148.9113  138.1896  155.2743 N   0  0  0  0  0  0  0  0  0  0  0  0
  148.2152  136.8740  155.2034 C   0  0  2  0  0  0  0  0  0  0  0  0
  146.7850  136.9716  154.6214 C   0  0  0  0  0  0  0  0  0  0  0  0
  145.9014  137.5704  155.2358 O   0  0  0  0  0  0  0  0  0  0  0  0
  146.5837  136.4050  153.4209 N   0  0  0  0  0  0  0  0  0  0  0  0
  145.3243  136.4264  152.6873 C   0  0  0  0  0  0  0  0  0  0  0  0
  145.4882  135.8434  151.2736 C   0  0  0  0  0  0  0  0  0  0  0  0
  145.5021  134.3268  151.2747 C   0  0  0  0  0  0  0  0  0  0  0  0
  144.5106  133.5983  150.5834 C   0  0  0  0  0  0  0  0  0  0  0  0
  144.5644  132.1916  150.6190 C   0  0  0  0  0  0  0  0  0  0  0  0
  145.6013  131.5708  151.3420 C   0  0  0  0  0  0  0  0  0  0  0  0
  146.5417  132.3880  152.0006 C   0  0  0  0  0  0  0  0  0  0  0  0
  146.4993  133.7377  151.9728 N   0  0  0  0  0  0  0  0  0  0  0  0
  148.2179  136.0530  156.5371 C   0  0  0  0  0  0  0  0  0  0  0  0
  147.4927  136.7615  157.6995 C   0  0  0  0  0  0  0  0  0  0  0  0
  149.6193  135.5905  156.9821 C   0  0  0  0  0  0  0  0  0  0  0  0
  148.6569  139.0782  154.1260 C   0  0  0  0  0  0  0  0  0  0  0  0
  149.3784  140.4367  154.2296 C   0  0  1  0  0  0  0  0  0  0  0  0
  148.7374  141.3904  155.2532 C   0  0  0  0  0  0  0  0  0  0  0  0
  150.7686  140.2438  154.4788 O   0  0  0  0  0  0  0  0  0  0  0  0
  152.8725  138.6723  156.5570 H   0  0  0  0  0  0  0  0  0  0  0  0
  153.0640  140.2546  155.8085 H   0  0  0  0  0  0  0  0  0  0  0  0
  152.9973  138.8088  154.8037 H   0  0  0  0  0  0  0  0  0  0  0  0
  150.7136  139.9108  156.5125 H   0  0  0  0  0  0  0  0  0  0  0  0
  150.7906  137.5187  154.6036 H   0  0  0  0  0  0  0  0  0  0  0  0
  150.5964  137.4858  156.3413 H   0  0  0  0  0  0  0  0  0  0  0  0
  148.7760  136.2671  154.4889 H   0  0  0  0  0  0  0  0  0  0  0  0
  147.3624  135.9373  152.9798 H   0  0  0  0  0  0  0  0  0  0  0  0
  144.5945  135.8436  153.2500 H   0  0  0  0  0  0  0  0  0  0  0  0
  144.9368  137.4456  152.6391 H   0  0  0  0  0  0  0  0  0  0  0  0
  144.6805  136.1892  150.6269 H   0  0  0  0  0  0  0  0  0  0  0  0
  146.4141  136.2058  150.8245 H   0  0  0  0  0  0  0  0  0  0  0  0
  143.7261  134.1039  150.0394 H   0  0  0  0  0  0  0  0  0  0  0  0
  143.8235  131.5997  150.1020 H   0  0  0  0  0  0  0  0  0  0  0  0
  145.6738  130.4944  151.3914 H   0  0  0  0  0  0  0  0  0  0  0  0
  147.3489  131.9455  152.5655 H   0  0  0  0  0  0  0  0  0  0  0  0
  147.6269  135.1538  156.3718 H   0  0  0  0  0  0  0  0  0  0  0  0
  148.0437  137.6315  158.0586 H   0  0  0  0  0  0  0  0  0  0  0  0
  147.3688  136.0877  158.5479 H   0  0  0  0  0  0  0  0  0  0  0  0
  146.4983  137.0936  157.3999 H   0  0  0  0  0  0  0  0  0  0  0  0
  150.2598  136.4298  157.2510 H   0  0  0  0  0  0  0  0  0  0  0  0
  150.1235  135.0247  156.1986 H   0  0  0  0  0  0  0  0  0  0  0  0
  149.5527  134.9408  157.8552 H   0  0  0  0  0  0  0  0  0  0  0  0
  148.9744  138.5796  153.2084 H   0  0  0  0  0  0  0  0  0  0  0  0
  147.5955  139.2916  154.0048 H   0  0  0  0  0  0  0  0  0  0  0  0
  149.3096  140.9262  153.2577 H   0  0  0  0  0  0  0  0  0  0  0  0
  147.7102  141.6252  154.9734 H   0  0  0  0  0  0  0  0  0  0  0  0
  149.2877  142.3299  155.3076 H   0  0  0  0  0  0  0  0  0  0  0  0
  148.7093  140.9601  156.2541 H   0  0  0  0  0  0  0  0  0  0  0  0
  1  2  1  0  0  0  0
  1 24  1  0  0  0  0
  1 25  1  0  0  0  0
  1 26  1  0  0  0  0
  2 23  1  0  0  0  0
  2  3  1  0  0  0  0
  2 27  1  0  0  0  0
  3  4  1  0  0  0  0
  3 28  1  0  0  0  0
  3 29  1  0  0  0  0
  4  5  1  0  0  0  0
  4 20  1  0  0  0  0
  5  6  1  0  0  0  0
  5 17  1  0  0  0  0
  5 30  1  0  0  0  0
  6  7  2  0  0  0  0
  6  8  1  0  0  0  0
  8  9  1  0  0  0  0
  8 31  1  0  0  0  0
  9 10  1  0  0  0  0
  9 32  1  0  0  0  0
  9 33  1  0  0  0  0
 10 11  1  0  0  0  0
 10 34  1  0  0  0  0
 10 35  1  0  0  0  0
 11 16  1  0  0  0  0
 11 12  2  0  0  0  0
 12 13  1  0  0  0  0
 12 36  1  0  0  0  0
 13 14  2  0  0  0  0
 13 37  1  0  0  0  0
 14 15  1  0  0  0  0
 14 38  1  0  0  0  0
 15 16  2  0  0  0  0
 15 39  1  0  0  0  0
 17 18  1  0  0  0  0
 17 19  1  0  0  0  0
 17 40  1  0  0  0  0
 18 41  1  0  0  0  0
 18 42  1  0  0  0  0
 18 43  1  0  0  0  0
 19 44  1  0  0  0  0
 19 45  1  0  0  0  0
 19 46  1  0  0  0  0
 20 21  1  0  0  0  0
 20 47  1  0  0  0  0
 20 48  1  0  0  0  0
 21 22  1  0  0  0  0
 21 23  1  0  0  0  0
 21 49  1  0  0  0  0
 22 50  1  0  0  0  0
 22 51  1  0  0  0  0
 22 52  1  0  0  0  0
M  END
> <s_m_source_file>
AV-unprocessed.smi

> <i_m_source_file_index>
1762

> <i_lp_mmshare_version>
43012

> <i_f3d_flags>
0

> <s_epik_input>
W0NIM11bQ0BASF0xW0NIMl1OKFtDSDJdW0NASF0oTzEpW0NIM10pW0NAQEhdKFtDSF0oW0NIM10pW0NIM10pQyg9TylbTkhdW0NIMl1bQ0gyXWMyW2NIXVtjSF1bY0hdW2NIXW4y

> <s_epik_cmdline>
J2VwaWtfcHl0aG9uJywgJy1waCcsICc3LjAnLCAnLXRuJywgJzgnLCAnLW1hJywgJzIwMCcsICctbWV0YWxfYmluZGluZycsICctaW1hZScsICc8aW5maWxlLm1hZT4nLCAnLW9tYWUnLCAnPG91dGZpbGUubWFlPic=

> <r_epik_Ionization_Penalty>
0.0399736

> <r_epik_Ionization_Penalty_Charging>
0

> <r_epik_Ionization_Penalty_Neutral>
0.0399736

> <r_epik_State_Penalty>
0.0317634

> <r_epik_Charging_Adjusted_Penalty>
0.0317634

> <i_epik_Tot_Q>
0

> <i_epik_Tot_abs_Q>
0

> <r_epik_Metal_State_Penalty>
0.0307795

> <b_epik_Metal_Only>
0

> <s_lp_Force_Field>
OPLS_2005

> <r_lp_Energy>
28.4472

> <b_lp_Chiralities_Consistent>
1

> <s_lp_Variant>
AV-unprocessed.smi:1762-1

> <Gold.Version>
5.8.1

> <Gold.Id.Protein>
6NUR|6NUR_protein|mol2

> <Gold.PLP.Fitness>
42.2319

> <Gold.PLP.PLP>
-33.8969

> <Gold.PLP.part.hbond>
-1.9227

> <Gold.PLP.part.metal>
0.0000

> <Gold.PLP.part.buried>
-2.2913

> <Gold.PLP.part.nonpolar>
-30.6991

> <Gold.PLP.part.repulsive>
0.4428

> <Gold.PLP.ligand.clash>
0.0000

> <Gold.PLP.ligand.torsion>
0.4943

> <Gold.PLP.Chemscore.Hbond>
1.9920

> <Gold.PLP.Chemscore.CHOScore>
0.9973

> <Gold.PLP.Chemscore.Metal>
0.0000

> <Gold.Chemscore.Hbonds>
donor molecule, donor type, donor heavy atom, donor atom, acceptor molecule, acceptor atom, score
      L1  H     8    31       P1  7948  0.88
      P1  H  7989  7998       L1    23  0.80

> <Gold.PLP.Chemscore.Internal.Correction>
0.3557

> <Gold.Rescore>
     Score         DG    S(hbond)    S(metal)    S(lipo)     H(rot)  DE(clash)    DE(int)     intcor
     17.95     -19.35       1.85        0.00     100.65       1.60       0.55       0.85       ----

> <Gold.Chemscore.Fitness>
17.9490

> <Gold.Chemscore.DG>
-19.3454

> <Gold.Chemscore.ZeroCoef>
-5.4800

> <Gold.Chemscore.Hbond>
1.8512

> <Gold.Chemscore.Metal>
0.0000

> <Gold.Chemscore.Lipo>
100.6546

> <Gold.Chemscore.Internal_Hbond>
0.0000

> <Gold.Chemscore.DEClash>
0.5476

> <Gold.Chemscore.DEInternal>
0.8487

> <Gold.Chemscore.Rot>
1.5993

> <Gold.Chemscore.Internal.Correction>
   9.000000E+99

> <Gold.Chemscore.Hbonds>
donor molecule, donor type, donor heavy atom, donor atom, acceptor molecule, acceptor atom, score
      L1  H     8    31       P1  7948  0.85
      P1  H  7989  7998       L1    23  0.67

> <Gold.Chemscore.Hbond.Weighted>
-6.1829

> <Gold.Chemscore.Metal.Weighted>
-0.0000

> <Gold.Chemscore.Lipo.Weighted>
-11.7766

> <Gold.Chemscore.Internal_Hbond.Weighted>
0.0000

> <Gold.Chemscore.DEClash.Weighted>
0.5476

> <Gold.Chemscore.DEInternal.Weighted>
0.8487

> <Gold.Chemscore.Rot.Weighted>
4.0941

> <Gold.Chemscore.Internal.Correction.Weighted>
   9.000000E+99

> <Gold.Protein.RotatedTorsions>
[ 6907 6896 6895 6894 ] final  109.57 input  -60.11 | X-H torsion
[ 7974 7965 7964 7962 ] final   94.43 input  175.53 | X-H torsion
[ 8008 7997 7996 7995 ] final  103.56 input   59.86 | X-H torsion
[ 10167 10162 10161 10158 ] final   10.78 input  -65.29 | X-H torsion
[ 10718 10713 10712 10709 ] final -179.17 input   66.30 | X-H torsion
[ 10763 10752 10751 10750 ] final  -57.40 input  -60.55 | X-H torsion
[ 11005 11000 10999 10996 ] final -121.06 input  -57.11 | X-H torsion

> <Gold.Protein.ActiveResidues>
 VAL166  LYS551  ARG553  GLY616  TRP617  ASP618  TYR619  PRO620  LYS621  CYS622 
 ASP623  PHE694  ASN695  SER759  ASP760  ASP761  ALA762  ILE779  LEU786  VAL792 
 PHE793  MET794  SER795  GLU796  ALA797  LYS798  CYS799  TRP800  GLU811  SER814 

> <Gold.Protein.RotatedAtoms>
  152.5061  133.8925  159.7400 H   0  0  0  0  0  0  0  0  0  0  0  0  # atno 6907 bound_to 6896
  150.9360  133.6702  159.2807 H   0  0  0  0  0  0  0  0  0  0  0  0  # atno 6908 bound_to 6896
  151.4030  135.0978  159.9614 H   0  0  0  0  0  0  0  0  0  0  0  0  # atno 6909 bound_to 6896
  145.4656  139.2284  143.2963 H   0  0  0  0  0  0  0  0  0  0  0  0  # atno 7974 bound_to 7965
  156.1495  140.3162  155.8624 H   0  0  0  0  0  0  0  0  0  0  0  0  # atno 8008 bound_to 7997
  155.3999  140.0499  157.3054 H   0  0  0  0  0  0  0  0  0  0  0  0  # atno 8009 bound_to 7997
  154.5046  140.2142  155.9290 H   0  0  0  0  0  0  0  0  0  0  0  0  # atno 8010 bound_to 7997
  140.6173  143.8280  150.7133 H   0  0  0  0  0  0  0  0  0  0  0  0  # atno 10167 bound_to 10162
  156.8551  130.9732  151.3089 H   0  0  0  0  0  0  0  0  0  0  0  0  # atno 10718 bound_to 10713
  154.2218  135.6376  153.5147 H   0  0  0  0  0  0  0  0  0  0  0  0  # atno 10763 bound_to 10752
  152.9967  135.5498  154.6106 H   0  0  0  0  0  0  0  0  0  0  0  0  # atno 10764 bound_to 10752
  154.5568  135.2906  155.0931 H   0  0  0  0  0  0  0  0  0  0  0  0  # atno 10765 bound_to 10752
  141.0098  134.0281  157.3428 H   0  0  0  0  0  0  0  0  0  0  0  0  # atno 11005 bound_to 11000
  146.2426  140.5430  142.8927 LP  0  0  0  0  0  0  0  0  0  0  0  0  # atno 17320 bound_to 7965
  144.7976  140.6152  143.6500 LP  0  0  0  0  0  0  0  0  0  0  0  0  # atno 17321 bound_to 7965
  140.1862  143.4074  152.1897 LP  0  0  0  0  0  0  0  0  0  0  0  0  # atno 17342 bound_to 10162
  139.5409  144.7255  151.4737 LP  0  0  0  0  0  0  0  0  0  0  0  0  # atno 17343 bound_to 10162
  157.6282  130.8708  149.9226 LP  0  0  0  0  0  0  0  0  0  0  0  0  # atno 17370 bound_to 10713
  156.0807  130.3673  150.0586 LP  0  0  0  0  0  0  0  0  0  0  0  0  # atno 17371 bound_to 10713
  139.9083  135.0185  156.7584 LP  0  0  0  0  0  0  0  0  0  0  0  0  # atno 17394 bound_to 11000
  140.6752  133.9524  155.7879 LP  0  0  0  0  0  0  0  0  0  0  0  0  # atno 17395 bound_to 11000

$$$$
