AV-unprocessed.smi:1538|AV-procd|sdf|6192|dock5
  -GOLD-   22720 6353D 1   1.00000     0.00000
 Structure written by MMmdl.
 37 38  0  0  0  0  0  0  0  0  2 V2000
  145.1699  143.1362  155.7865 C   0  0  0  0  0  0  0  0  0  0  0  0
  146.0298  142.0946  155.2217 N   0  0  0  0  0  0  0  0  0  0  0  0
  146.8464  142.5188  154.0779 C   0  0  0  0  0  0  0  0  0  0  0  0
  147.3392  141.3460  153.2196 C   0  0  0  0  0  0  0  0  0  0  0  0
  147.9519  140.2255  154.0722 C   0  0  1  0  0  0  0  0  0  0  0  0
  149.3423  140.5842  154.6264 C   0  0  0  0  0  0  0  0  0  0  0  0
  150.3309  139.9204  154.3132 O   0  0  0  0  0  0  0  0  0  0  0  0
  149.4085  141.6472  155.4417 N   0  0  0  0  0  0  0  0  0  0  0  0
  150.6360  142.1350  156.0541 C   0  0  0  0  0  0  0  0  0  0  0  0
  150.5225  142.1174  157.5843 C   0  0  0  0  0  0  0  0  0  0  0  0
  151.4309  143.0834  158.2050 N   0  0  0  0  0  0  0  0  0  0  0  0
  151.4770  144.4369  157.9909 C   0  0  0  0  0  0  0  0  0  0  0  0
  152.4777  144.9250  158.7914 C   0  0  0  0  0  0  0  0  0  0  0  0
  152.9982  143.8498  159.4606 N   0  3  0  0  0  0  0  0  0  0  0  0
  152.3601  142.7305  159.1029 C   0  0  0  0  0  0  0  0  0  0  0  0
  146.9808  139.7704  155.1857 C   0  0  0  0  0  0  0  0  0  0  0  0
  146.0740  140.8628  155.7845 C   0  0  0  0  0  0  0  0  0  0  0  0
  145.3939  140.5654  156.7670 O   0  0  0  0  0  0  0  0  0  0  0  0
  145.3478  143.2520  156.8566 H   0  0  0  0  0  0  0  0  0  0  0  0
  144.1191  142.8823  155.6407 H   0  0  0  0  0  0  0  0  0  0  0  0
  145.3438  144.1095  155.3258 H   0  0  0  0  0  0  0  0  0  0  0  0
  146.2754  143.1985  153.4438 H   0  0  0  0  0  0  0  0  0  0  0  0
  147.6931  143.0927  154.4558 H   0  0  0  0  0  0  0  0  0  0  0  0
  146.4985  140.9401  152.6551 H   0  0  0  0  0  0  0  0  0  0  0  0
  148.0551  141.7030  152.4781 H   0  0  0  0  0  0  0  0  0  0  0  0
  148.0949  139.3691  153.4107 H   0  0  0  0  0  0  0  0  0  0  0  0
  148.5551  142.1460  155.6495 H   0  0  0  0  0  0  0  0  0  0  0  0
  151.4716  141.5109  155.7326 H   0  0  0  0  0  0  0  0  0  0  0  0
  150.8368  143.1491  155.7043 H   0  0  0  0  0  0  0  0  0  0  0  0
  149.5052  142.3510  157.9026 H   0  0  0  0  0  0  0  0  0  0  0  0
  150.7652  141.1294  157.9782 H   0  0  0  0  0  0  0  0  0  0  0  0
  150.8115  144.9395  157.3037 H   0  0  0  0  0  0  0  0  0  0  0  0
  152.8477  145.9303  158.9315 H   0  0  0  0  0  0  0  0  0  0  0  0
  152.5565  141.7384  159.4689 H   0  0  0  0  0  0  0  0  0  0  0  0
  146.3183  139.0073  154.7756 H   0  0  0  0  0  0  0  0  0  0  0  0
  147.5216  139.2805  155.9975 H   0  0  0  0  0  0  0  0  0  0  0  0
  153.7559  143.8928  160.1308 H   0  0  0  0  0  0  0  0  0  0  0  0
  1  2  1  0  0  0  0
  1 19  1  0  0  0  0
  1 20  1  0  0  0  0
  1 21  1  0  0  0  0
  2 17  1  0  0  0  0
  2  3  1  0  0  0  0
  3  4  1  0  0  0  0
  3 22  1  0  0  0  0
  3 23  1  0  0  0  0
  4  5  1  0  0  0  0
  4 24  1  0  0  0  0
  4 25  1  0  0  0  0
  5  6  1  0  0  0  0
  5 16  1  0  0  0  0
  5 26  1  0  0  0  0
  6  7  2  0  0  0  0
  6  8  1  0  0  0  0
  8  9  1  0  0  0  0
  8 27  1  0  0  0  0
  9 10  1  0  0  0  0
  9 28  1  0  0  0  0
  9 29  1  0  0  0  0
 10 11  1  0  0  0  0
 10 30  1  0  0  0  0
 10 31  1  0  0  0  0
 11 15  1  0  0  0  0
 11 12  1  0  0  0  0
 12 13  2  0  0  0  0
 12 32  1  0  0  0  0
 13 14  1  0  0  0  0
 13 33  1  0  0  0  0
 14 15  2  0  0  0  0
 14 37  1  0  0  0  0
 15 34  1  0  0  0  0
 16 17  1  0  0  0  0
 16 35  1  0  0  0  0
 16 36  1  0  0  0  0
 17 18  2  0  0  0  0
M  CHG  1  14   1
M  END
> <s_m_source_file>
AV-unprocessed.smi

> <i_m_source_file_index>
1538

> <i_lp_mmshare_version>
43012

> <i_f3d_flags>
0

> <s_epik_input>
W0NIM11OMVtDSDJdW0NIMl1bQ0BIXShbQ0gyXUMxPU8pQyg9TylbTkhdW0NIMl1bQ0gyXW4yW2NIXVtjSF1uW2NIXTI=

> <s_epik_cmdline>
J2VwaWtfcHl0aG9uJywgJy1waCcsICc3LjAnLCAnLXRuJywgJzgnLCAnLW1hJywgJzIwMCcsICctbWV0YWxfYmluZGluZycsICctaW1hZScsICc8aW5maWxlLm1hZT4nLCAnLW9tYWUnLCAnPG91dGZpbGUubWFlPic=

> <r_lp_tautomer_probability>
1

> <r_epik_Ionization_Penalty>
0.272873

> <r_epik_Ionization_Penalty_Charging>
0

> <r_epik_Ionization_Penalty_Neutral>
0.272873

> <r_epik_State_Penalty>
0.265096

> <r_epik_Charging_Adjusted_Penalty>
0.265096

> <i_epik_Tot_Q>
1

> <i_epik_Tot_abs_Q>
1

> <r_epik_Metal_State_Penalty>
0.549113

> <b_epik_Metal_Only>
0

> <s_lp_Force_Field>
OPLS_2005

> <r_lp_Energy>
17.3063

> <b_lp_Chiralities_Consistent>
1

> <s_lp_Variant>
AV-unprocessed.smi:1538-1

> <Gold.Version>
5.8.1

> <Gold.Id.Protein>
6NUR|6NUR_protein|mol2

> <Gold.PLP.Fitness>
41.6791

> <Gold.PLP.PLP>
-35.9687

> <Gold.PLP.part.hbond>
-1.6540

> <Gold.PLP.part.metal>
0.0000

> <Gold.PLP.part.buried>
-6.5031

> <Gold.PLP.part.nonpolar>
-28.6917

> <Gold.PLP.part.repulsive>
0.2851

> <Gold.PLP.ligand.clash>
0.0000

> <Gold.PLP.ligand.torsion>
0.1692

> <Gold.PLP.Chemscore.Hbond>
1.0000

> <Gold.PLP.Chemscore.CHOScore>
1.0000

> <Gold.PLP.Chemscore.Metal>
0.0000

> <Gold.Chemscore.Hbonds>
donor molecule, donor type, donor heavy atom, donor atom, acceptor molecule, acceptor atom, score
      P1  H  7989  7998       L1     7  1.00
      L1  C    12    32       P1  8028  1.00

> <Gold.PLP.Chemscore.Internal.Correction>
0.0488

> <Gold.Rescore>
     Score         DG    S(hbond)    S(metal)    S(lipo)     H(rot)  DE(clash)    DE(int)     intcor
     10.49     -11.69       0.97        0.00      70.27       2.05       0.51       0.68       ----

> <Gold.Chemscore.Fitness>
10.4913

> <Gold.Chemscore.DG>
-11.6852

> <Gold.Chemscore.ZeroCoef>
-5.4800

> <Gold.Chemscore.Hbond>
0.9658

> <Gold.Chemscore.Metal>
0.0000

> <Gold.Chemscore.Lipo>
70.2707

> <Gold.Chemscore.Internal_Hbond>
0.0000

> <Gold.Chemscore.DEClash>
0.5108

> <Gold.Chemscore.DEInternal>
0.6831

> <Gold.Chemscore.Rot>
2.0478

> <Gold.Chemscore.Internal.Correction>
   9.000000E+99

> <Gold.Chemscore.Hbonds>
donor molecule, donor type, donor heavy atom, donor atom, acceptor molecule, acceptor atom, score
      P1  H  7989  7998       L1     7  0.87

> <Gold.Chemscore.Hbond.Weighted>
-3.2258

> <Gold.Chemscore.Metal.Weighted>
-0.0000

> <Gold.Chemscore.Lipo.Weighted>
-8.2217

> <Gold.Chemscore.Internal_Hbond.Weighted>
0.0000

> <Gold.Chemscore.DEClash.Weighted>
0.5108

> <Gold.Chemscore.DEInternal.Weighted>
0.6831

> <Gold.Chemscore.Rot.Weighted>
5.2423

> <Gold.Chemscore.Internal.Correction.Weighted>
   9.000000E+99

> <Gold.Protein.RotatedTorsions>
[ 6907 6896 6895 6894 ] final  137.95 input  -60.11 | X-H torsion
[ 7974 7965 7964 7962 ] final  140.33 input  175.53 | X-H torsion
[ 8008 7997 7996 7995 ] final  117.05 input   59.86 | X-H torsion
[ 10167 10162 10161 10158 ] final   91.36 input  -65.29 | X-H torsion
[ 10718 10713 10712 10709 ] final  161.92 input   66.30 | X-H torsion
[ 10763 10752 10751 10750 ] final -120.81 input  -60.55 | X-H torsion
[ 11005 11000 10999 10996 ] final   45.14 input  -57.11 | X-H torsion

> <Gold.Protein.ActiveResidues>
 VAL166  LYS551  ARG553  GLY616  TRP617  ASP618  TYR619  PRO620  LYS621  CYS622 
 ASP623  PHE694  ASN695  SER759  ASP760  ASP761  ALA762  ILE779  LEU786  VAL792 
 PHE793  MET794  SER795  GLU796  ALA797  LYS798  CYS799  TRP800  GLU811  SER814 

> <Gold.Protein.RotatedAtoms>
  152.2722  133.5393  159.5445 H   0  0  0  0  0  0  0  0  0  0  0  0  # atno 6907 bound_to 6896
  150.7163  134.0682  159.3864 H   0  0  0  0  0  0  0  0  0  0  0  0  # atno 6908 bound_to 6896
  151.8596  135.0529  160.0518 H   0  0  0  0  0  0  0  0  0  0  0  0  # atno 6909 bound_to 6896
  144.9197  139.5184  143.5669 H   0  0  0  0  0  0  0  0  0  0  0  0  # atno 7974 bound_to 7965
  156.2473  140.2904  156.0619 H   0  0  0  0  0  0  0  0  0  0  0  0  # atno 8008 bound_to 7997
  155.1766  140.0403  157.2891 H   0  0  0  0  0  0  0  0  0  0  0  0  # atno 8009 bound_to 7997
  154.6288  140.2494  155.7465 H   0  0  0  0  0  0  0  0  0  0  0  0  # atno 8010 bound_to 7997
  139.8382  144.6654  150.9316 H   0  0  0  0  0  0  0  0  0  0  0  0  # atno 10167 bound_to 10162
  157.1297  131.0513  151.2377 H   0  0  0  0  0  0  0  0  0  0  0  0  # atno 10718 bound_to 10713
  154.8653  135.4190  154.2519 H   0  0  0  0  0  0  0  0  0  0  0  0  # atno 10763 bound_to 10752
  153.3463  135.6996  153.6831 H   0  0  0  0  0  0  0  0  0  0  0  0  # atno 10764 bound_to 10752
  153.5788  135.3577  155.2840 H   0  0  0  0  0  0  0  0  0  0  0  0  # atno 10765 bound_to 10752
  140.1487  134.4490  155.8397 H   0  0  0  0  0  0  0  0  0  0  0  0  # atno 11005 bound_to 11000
  146.3198  139.8066  142.8954 LP  0  0  0  0  0  0  0  0  0  0  0  0  # atno 17320 bound_to 7965
  145.3317  141.0268  143.3442 LP  0  0  0  0  0  0  0  0  0  0  0  0  # atno 17321 bound_to 7965
  140.7800  143.3937  151.1265 LP  0  0  0  0  0  0  0  0  0  0  0  0  # atno 17342 bound_to 10162
  139.7586  143.8670  152.3095 LP  0  0  0  0  0  0  0  0  0  0  0  0  # atno 17343 bound_to 10162
  157.4403  130.7540  149.7064 LP  0  0  0  0  0  0  0  0  0  0  0  0  # atno 17370 bound_to 10713
  155.9810  130.4023  150.3494 LP  0  0  0  0  0  0  0  0  0  0  0  0  # atno 17371 bound_to 10713
  141.2196  133.6863  156.7381 LP  0  0  0  0  0  0  0  0  0  0  0  0  # atno 17394 bound_to 11000
  140.2632  134.8450  157.3778 LP  0  0  0  0  0  0  0  0  0  0  0  0  # atno 17395 bound_to 11000

$$$$
