AV-unprocessed.smi:994|AV-procd|sdf|4341|dock9
  -GOLD-   22720 2243D 1   1.00000     0.00000
 Structure written by MMmdl.
 37 38  0  0  0  0  0  0  0  0  2 V2000
  151.2418  139.4860  157.8101 O   0  0  0  0  0  0  0  0  0  0  0  0
  151.6425  140.4931  157.2252 C   0  0  0  0  0  0  0  0  0  0  0  0
  151.7138  140.5945  155.8892 N   0  0  0  0  0  0  0  0  0  0  0  0
  151.3142  139.5663  154.9293 C   0  0  2  0  0  0  0  0  0  0  0  0
  149.8652  139.1327  155.2395 C   0  0  0  0  0  0  0  0  0  0  0  0
  148.8099  140.0754  154.7121 C   0  0  0  0  0  0  0  0  0  0  0  0
  148.7612  141.4508  154.6456 C   0  0  0  0  0  0  0  0  0  0  0  0
  147.5654  141.8553  154.0466 N   0  0  0  0  0  0  0  0  0  0  0  0
  146.9393  140.7162  153.7738 C   0  0  0  0  0  0  0  0  0  0  0  0
  147.6257  139.6332  154.1475 N   0  0  0  0  0  0  0  0  0  0  0  0
  152.2454  138.3520  155.0632 C   0  0  0  0  0  0  0  0  0  0  0  0
  153.4501  138.5855  155.3034 O   0  0  0  0  0  0  0  0  0  0  0  0
  151.7443  137.2134  154.9207 O   0  5  0  0  0  0  0  0  0  0  0  0
  152.1071  141.7179  158.0235 C   0  0  0  0  0  0  0  0  0  0  0  0
  152.0040  141.4554  159.5411 C   0  0  0  0  0  0  0  0  0  0  0  0
  152.4566  142.6807  160.3525 C   0  0  0  0  0  0  0  0  0  0  0  0
  151.6586  143.9344  159.9602 C   0  0  0  0  0  0  0  0  0  0  0  0
  151.7480  144.2002  158.4491 C   0  0  0  0  0  0  0  0  0  0  0  0
  151.2955  142.9737  157.6400 C   0  0  0  0  0  0  0  0  0  0  0  0
  147.3424  138.6709  154.0286 H   0  0  0  0  0  0  0  0  0  0  0  0
  152.0392  141.4663  155.4984 H   0  0  0  0  0  0  0  0  0  0  0  0
  151.3643  139.9475  153.9073 H   0  0  0  0  0  0  0  0  0  0  0  0
  149.6756  138.1467  154.8128 H   0  0  0  0  0  0  0  0  0  0  0  0
  149.7170  139.0344  156.3162 H   0  0  0  0  0  0  0  0  0  0  0  0
  149.4921  142.1747  154.9746 H   0  0  0  0  0  0  0  0  0  0  0  0
  145.9718  140.6699  153.2960 H   0  0  0  0  0  0  0  0  0  0  0  0
  153.1549  141.9064  157.7819 H   0  0  0  0  0  0  0  0  0  0  0  0
  150.9766  141.2061  159.8111 H   0  0  0  0  0  0  0  0  0  0  0  0
  152.6125  140.5921  159.8148 H   0  0  0  0  0  0  0  0  0  0  0  0
  152.3397  142.4844  161.4187 H   0  0  0  0  0  0  0  0  0  0  0  0
  153.5199  142.8564  160.1852 H   0  0  0  0  0  0  0  0  0  0  0  0
  150.6138  143.8068  160.2469 H   0  0  0  0  0  0  0  0  0  0  0  0
  152.0278  144.7989  160.5124 H   0  0  0  0  0  0  0  0  0  0  0  0
  151.1367  145.0640  158.1869 H   0  0  0  0  0  0  0  0  0  0  0  0
  152.7743  144.4551  158.1824 H   0  0  0  0  0  0  0  0  0  0  0  0
  151.4041  143.1798  156.5741 H   0  0  0  0  0  0  0  0  0  0  0  0
  150.2318  142.8032  157.8138 H   0  0  0  0  0  0  0  0  0  0  0  0
  1  2  2  0  0  0  0
  2  3  1  0  0  0  0
  2 14  1  0  0  0  0
  3  4  1  0  0  0  0
  3 21  1  0  0  0  0
  4  5  1  0  0  0  0
  4 11  1  0  0  0  0
  4 22  1  0  0  0  0
  5 23  1  0  0  0  0
  5 24  1  0  0  0  0
  5  6  1  0  0  0  0
  6  7  2  0  0  0  0
  6 10  1  0  0  0  0
  7 25  1  0  0  0  0
  7  8  1  0  0  0  0
  8  9  2  0  0  0  0
  9 10  1  0  0  0  0
  9 26  1  0  0  0  0
 10 20  1  0  0  0  0
 11 12  2  0  0  0  0
 11 13  1  0  0  0  0
 14 19  1  0  0  0  0
 14 15  1  0  0  0  0
 14 27  1  0  0  0  0
 15 16  1  0  0  0  0
 15 28  1  0  0  0  0
 15 29  1  0  0  0  0
 16 17  1  0  0  0  0
 16 30  1  0  0  0  0
 16 31  1  0  0  0  0
 17 18  1  0  0  0  0
 17 32  1  0  0  0  0
 17 33  1  0  0  0  0
 18 19  1  0  0  0  0
 18 34  1  0  0  0  0
 18 35  1  0  0  0  0
 19 36  1  0  0  0  0
 19 37  1  0  0  0  0
M  CHG  1  13  -1
M  END
> <s_m_source_file>
AV-unprocessed.smi

> <i_m_source_file_index>
994

> <i_lp_mmshare_version>
43012

> <i_f3d_flags>
0

> <s_epik_input>
W0NIMl0xW0NIMl1bQ0gyXVtDSDJdW0NIMl1bQ0hdMUMoPU8pW05IXVtDQEBIXShDKD1PKVtPSF0pW0NIMl1jMltjSF1bbkhdW2NIXW4y

> <s_epik_cmdline>
J2VwaWtfcHl0aG9uJywgJy1waCcsICc3LjAnLCAnLXRuJywgJzgnLCAnLW1hJywgJzIwMCcsICctbWV0YWxfYmluZGluZycsICctaW1hZScsICc8aW5maWxlLm1hZT4nLCAnLW9tYWUnLCAnPG91dGZpbGUubWFlPic=

> <r_lp_tautomer_probability>
0.5

> <r_epik_Ionization_Penalty>
0.540742

> <r_epik_Ionization_Penalty_Charging>
0.540742

> <r_epik_Ionization_Penalty_Neutral>
4.77468e-08

> <r_epik_State_Penalty>
0.78427

> <r_epik_Charging_Adjusted_Penalty>
1.32501

> <i_epik_Tot_Q>
-1

> <i_epik_Tot_abs_Q>
1

> <r_epik_Metal_State_Penalty>
0.663709

> <b_epik_Metal_Only>
0

> <s_lp_Force_Field>
OPLS_2005

> <r_lp_Energy>
10.7007

> <b_lp_Chiralities_Consistent>
1

> <s_lp_Variant>
AV-unprocessed.smi:994-3

> <Gold.Version>
5.8.1

> <Gold.Id.Protein>
6NUR|6NUR_protein|mol2

> <Gold.PLP.Fitness>
49.2958

> <Gold.PLP.PLP>
-35.7397

> <Gold.PLP.part.hbond>
-2.0000

> <Gold.PLP.part.metal>
0.0000

> <Gold.PLP.part.buried>
-3.6553

> <Gold.PLP.part.nonpolar>
-31.3629

> <Gold.PLP.part.repulsive>
0.6477

> <Gold.PLP.ligand.clash>
0.0000

> <Gold.PLP.ligand.torsion>
1.1850

> <Gold.PLP.Chemscore.Hbond>
3.6960

> <Gold.PLP.Chemscore.CHOScore>
1.5986

> <Gold.PLP.Chemscore.Metal>
0.0000

> <Gold.Chemscore.Hbonds>
donor molecule, donor type, donor heavy atom, donor atom, acceptor molecule, acceptor atom, score
      P1  H  7997  8009       L1    12  1.79
      P1  H 10752 10765       L1    13  1.75
      L1  C     7    25       P1  8028  0.51
      L1  C     9    26       P1 10175  1.00

> <Gold.PLP.Chemscore.Internal.Correction>
0.0423

> <Gold.Rescore>
     Score         DG    S(hbond)    S(metal)    S(lipo)     H(rot)  DE(clash)    DE(int)     intcor
     11.96     -14.53       1.72        0.00      86.31       2.66       0.08       2.50       ----

> <Gold.Chemscore.Fitness>
11.9578

> <Gold.Chemscore.DG>
-14.5349

> <Gold.Chemscore.ZeroCoef>
-5.4800

> <Gold.Chemscore.Hbond>
1.7249

> <Gold.Chemscore.Metal>
0.0000

> <Gold.Chemscore.Lipo>
86.3116

> <Gold.Chemscore.Internal_Hbond>
0.0000

> <Gold.Chemscore.DEClash>
0.0777

> <Gold.Chemscore.DEInternal>
2.4994

> <Gold.Chemscore.Rot>
2.6581

> <Gold.Chemscore.Internal.Correction>
   9.000000E+99

> <Gold.Chemscore.Hbonds>
donor molecule, donor type, donor heavy atom, donor atom, acceptor molecule, acceptor atom, score
      P1  H  7997  8009       L1    12  0.87
      P1  H 10752 10765       L1    13  0.77

> <Gold.Chemscore.Hbond.Weighted>
-5.7613

> <Gold.Chemscore.Metal.Weighted>
-0.0000

> <Gold.Chemscore.Lipo.Weighted>
-10.0985

> <Gold.Chemscore.Internal_Hbond.Weighted>
0.0000

> <Gold.Chemscore.DEClash.Weighted>
0.0777

> <Gold.Chemscore.DEInternal.Weighted>
2.4994

> <Gold.Chemscore.Rot.Weighted>
6.8048

> <Gold.Chemscore.Internal.Correction.Weighted>
   9.000000E+99

> <Gold.Protein.RotatedTorsions>
[ 6907 6896 6895 6894 ] final   61.23 input  -60.11 | X-H torsion
[ 7974 7965 7964 7962 ] final   30.13 input  175.53 | X-H torsion
[ 8008 7997 7996 7995 ] final -145.63 input   59.86 | X-H torsion
[ 10167 10162 10161 10158 ] final  -62.50 input  -65.29 | X-H torsion
[ 10718 10713 10712 10709 ] final   96.51 input   66.30 | X-H torsion
[ 10763 10752 10751 10750 ] final  160.20 input  -60.55 | X-H torsion
[ 11005 11000 10999 10996 ] final  163.15 input  -57.11 | X-H torsion

> <Gold.Protein.ActiveResidues>
 VAL166  LYS551  ARG553  GLY616  TRP617  ASP618  TYR619  PRO620  LYS621  CYS622 
 ASP623  PHE694  ASN695  SER759  ASP760  ASP761  ALA762  ILE779  LEU786  VAL792 
 PHE793  MET794  SER795  GLU796  ALA797  LYS798  CYS799  TRP800  GLU811  SER814 

> <Gold.Protein.RotatedAtoms>
  152.4071  134.6188  160.0044 H   0  0  0  0  0  0  0  0  0  0  0  0  # atno 6907 bound_to 6896
  151.6376  133.3322  159.3131 H   0  0  0  0  0  0  0  0  0  0  0  0  # atno 6908 bound_to 6896
  150.7965  134.7070  159.6627 H   0  0  0  0  0  0  0  0  0  0  0  0  # atno 6909 bound_to 6896
  146.1630  139.6829  142.9020 H   0  0  0  0  0  0  0  0  0  0  0  0  # atno 7974 bound_to 7965
  155.5462  140.0612  157.2859 H   0  0  0  0  0  0  0  0  0  0  0  0  # atno 8008 bound_to 7997
  154.4435  140.1910  156.0685 H   0  0  0  0  0  0  0  0  0  0  0  0  # atno 8009 bound_to 7997
  156.0549  140.3280  155.7397 H   0  0  0  0  0  0  0  0  0  0  0  0  # atno 8010 bound_to 7997
  140.5935  143.2346  151.6088 H   0  0  0  0  0  0  0  0  0  0  0  0  # atno 10167 bound_to 10162
  157.6926  131.0580  150.4503 H   0  0  0  0  0  0  0  0  0  0  0  0  # atno 10718 bound_to 10713
  154.2437  135.2774  155.2844 H   0  0  0  0  0  0  0  0  0  0  0  0  # atno 10763 bound_to 10752
  154.5523  135.5671  153.6937 H   0  0  0  0  0  0  0  0  0  0  0  0  # atno 10764 bound_to 10752
  152.9994  135.6277  154.2582 H   0  0  0  0  0  0  0  0  0  0  0  0  # atno 10765 bound_to 10752
  140.2329  134.8110  157.3335 H   0  0  0  0  0  0  0  0  0  0  0  0  # atno 11005 bound_to 11000
  145.4539  141.0429  143.2789 LP  0  0  0  0  0  0  0  0  0  0  0  0  # atno 17320 bound_to 7965
  144.8053  139.6062  143.7053 LP  0  0  0  0  0  0  0  0  0  0  0  0  # atno 17321 bound_to 7965
  139.5242  144.3109  152.0993 LP  0  0  0  0  0  0  0  0  0  0  0  0  # atno 17342 bound_to 10162
  140.2277  144.4400  150.6313 LP  0  0  0  0  0  0  0  0  0  0  0  0  # atno 17343 bound_to 10162
  156.4854  130.4083  149.6437 LP  0  0  0  0  0  0  0  0  0  0  0  0  # atno 17370 bound_to 10713
  156.3467  130.7410  151.2364 LP  0  0  0  0  0  0  0  0  0  0  0  0  # atno 17371 bound_to 10713
  140.1732  134.4582  155.7818 LP  0  0  0  0  0  0  0  0  0  0  0  0  # atno 17394 bound_to 11000
  141.2216  133.6951  156.7743 LP  0  0  0  0  0  0  0  0  0  0  0  0  # atno 17395 bound_to 11000

$$$$
