#       Name:                AV-unprocessed.smi:1570
#       Creating user name   scv26
#       Creation time:       Fri Mar 27 06:53:22 2020


#       File generated by GOLD software.
#

@<TRIPOS>MOLECULE
AV-unprocessed.smi:1570
    58    60     1
SMALL
NO_CHARGES


@<TRIPOS>ATOM
      1 ****        -4.3020   3.9338   1.4828 C.3            1 S1                 0.0000
      2 ****        -2.8110   4.0100   1.1301 C.3            1 S1                 0.0000
      3 ****        -2.4413   2.9711   0.1722 N.am           1 S1                 0.0000
      4 ****        -1.9738   1.7344   0.4631 C.2            1 S1                 0.0000
      5 ****        -1.7551   1.2872   1.5891 O.2            1 S1                 0.0000
      6 ****        -1.7844   1.0714  -0.7019 N.am           1 S1                 0.0000
      7 ****        -1.2915  -0.2965  -0.8503 C.3            1 S1                 0.0000
      8 ****         0.2487  -0.3559  -0.7951 C.3            1 S1                 0.0000
      9 ****         0.7431  -0.1388  -2.1025 O.3            1 S1                 0.0000
     10 ****         0.7460  -1.7392  -0.3273 C.3            1 S1                 0.0000
     11 ****         2.2284  -1.8133  -0.2140 N.4            1 S1                 1.0000
     12 ****         2.8082  -1.1073   0.9578 C.3            1 S1                 0.0000
     13 ****         2.6442  -1.9235   2.2583 C.3            1 S1                 0.0000
     14 ****         3.3631  -1.2664   3.4418 C.3            1 S1                 0.0000
     15 ****         3.1973  -3.2226   2.0734 O.3            1 S1                 0.0000
     16 ****         2.5595  -3.9525   1.0307 C.3            1 S1                 0.0000
     17 ****         3.1667  -5.3591   0.9916 C.3            1 S1                 0.0000
     18 ****         2.7593  -3.1957  -0.2982 C.3            1 S1                 0.0000
     19 ****        -2.1325   1.9103  -1.7699 C.ar           1 S1                 0.0000
     20 ****        -2.1069   1.6995  -3.1596 C.ar           1 S1                 0.0000
     21 ****        -2.5327   2.7674  -3.9835 C.ar           1 S1                 0.0000
     22 ****        -2.9654   3.9946  -3.4174 C.ar           1 S1                 0.0000
     23 ****        -2.9795   4.1808  -2.0153 C.ar           1 S1                 0.0000
     24 ****        -2.5491   3.1047  -1.2196 C.ar           1 S1                 0.0000
     25 ****        -4.5717   4.7127   2.1961 H              1 S1                 0.0000
     26 ****        -4.5530   2.9719   1.9308 H              1 S1                 0.0000
     27 ****        -4.9248   4.0641   0.5971 H              1 S1                 0.0000
     28 ****        -2.5739   4.9904   0.7167 H              1 S1                 0.0000
     29 ****        -2.2110   3.9117   2.0360 H              1 S1                 0.0000
     30 ****        -1.7112  -0.8834  -0.0315 H              1 S1                 0.0000
     31 ****        -1.6778  -0.7568  -1.7608 H              1 S1                 0.0000
     32 ****         0.6259   0.4243  -0.1348 H              1 S1                 0.0000
     33 ****         0.3448  -0.7670  -2.6860 H              1 S1                 0.0000
     34 ****         0.2900  -1.9996   0.6276 H              1 S1                 0.0000
     35 ****         0.3968  -2.4884  -1.0398 H              1 S1                 0.0000
     36 ****         3.8703  -0.9548   0.7610 H              1 S1                 0.0000
     37 ****         2.3802  -0.1126   1.0733 H              1 S1                 0.0000
     38 ****         1.5881  -2.0176   2.5138 H              1 S1                 0.0000
     39 ****         2.9722  -0.2666   3.6330 H              1 S1                 0.0000
     40 ****         4.4336  -1.1772   3.2543 H              1 S1                 0.0000
     41 ****         3.2325  -1.8532   4.3515 H              1 S1                 0.0000
     42 ****         1.4954  -4.0461   1.2537 H              1 S1                 0.0000
     43 ****         2.7042  -5.9648   0.2119 H              1 S1                 0.0000
     44 ****         3.0187  -5.8733   1.9416 H              1 S1                 0.0000
     45 ****         4.2388  -5.3225   0.7962 H              1 S1                 0.0000
     46 ****         2.2974  -3.7329  -1.1276 H              1 S1                 0.0000
     47 ****         3.8243  -3.1388  -0.5282 H              1 S1                 0.0000
     48 ****        -1.7762   0.7643  -3.5860 H              1 S1                 0.0000
     49 ****        -2.5289   2.6470  -5.0567 H              1 S1                 0.0000
     50 ****        -3.2876   4.7966  -4.0649 H              1 S1                 0.0000
     51 ****        -3.3080   5.1127  -1.5794 H              1 S1                 0.0000
     52 ****         2.5714  -1.3353  -1.0357 H              1 S1                 0.0000
     53 ****        -1.9243   1.8555   2.3944 LP             1 S1                 0.0000
     54 ****        -1.4083   0.3557   1.6985 LP             1 S1                 0.0000
     55 ****         1.7363  -0.2552  -2.1102 LP             1 S1                 0.0000
     56 ****         0.5139   0.7883  -2.3991 LP             1 S1                 0.0000
     57 ****         3.1009  -3.7349   2.9268 LP             1 S1                 0.0000
     58 ****         4.1672  -3.1276   1.8494 LP             1 S1                 0.0000
@<TRIPOS>BOND
    1    1    2 1     
    2    1   25 1     
    3    1   26 1     
    4    1   27 1     
    5    2    3 1     
    6    2   28 1     
    7    2   29 1     
    8    3   24 1     
    9    3    4 am    
   10    4    5 2     
   11    4    6 am    
   12    6    7 1     
   13    6   19 1     
   14    7    8 1     
   15    7   30 1     
   16    7   31 1     
   17    8    9 1     
   18    8   10 1     
   19    8   32 1     
   20    9   33 1     
   21   10   11 1     
   22   10   34 1     
   23   10   35 1     
   24   11   18 1     
   25   11   12 1     
   26   11   52 1     
   27   12   13 1     
   28   12   36 1     
   29   12   37 1     
   30   13   14 1     
   31   13   15 1     
   32   13   38 1     
   33   14   39 1     
   34   14   40 1     
   35   14   41 1     
   36   15   16 1     
   37   16   17 1     
   38   16   18 1     
   39   16   42 1     
   40   17   43 1     
   41   17   44 1     
   42   17   45 1     
   43   18   46 1     
   44   18   47 1     
   45   19   24 ar    
   46   19   20 ar    
   47   20   21 ar    
   48   20   48 1     
   49   21   22 ar    
   50   21   49 1     
   51   22   23 ar    
   52   22   50 1     
   53   23   24 ar    
   54   23   51 1     
   55    5   53 1     
   56    5   54 1     
   57    9   55 1     
   58    9   56 1     
   59   15   57 1     
   60   15   58 1     
@<TRIPOS>SUBSTRUCTURE
      1 S1             1
@<TRIPOS>SET
LONE_PAIRS      STATIC     ATOMS    <user>   **** ""
6 53 54 55 56 57 58
DONOR_HYDROGENS      STATIC     ATOMS    <user>   **** ""
2 33 52
ATOM$BLUE        STATIC     ATOMS    COLORGROUP SYSTEM
6 53 54 55 56 57 58
ATOM$RED        STATIC     ATOMS    COLORGROUP SYSTEM
2 33 52
