AV-unprocessed.smi:1288|AV-procd|sdf|5384|dock4
  -GOLD-   22720 4533D 1   1.00000     0.00000
 Structure written by MMmdl.
 43 45  0  0  0  0  0  0  0  0  2 V2000
  149.6308  141.0215  155.2986 C   0  0  0  0  0  0  0  0  0  0  0  0
  150.3551  141.6384  156.4476 C   0  0  0  0  0  0  0  0  0  0  0  0
  150.5622  142.9711  156.6426 N   0  3  0  0  0  0  0  0  0  0  0  0
  151.2779  143.1696  157.8240 C   0  0  0  0  0  0  0  0  0  0  0  0
  151.7215  144.3392  158.4338 C   0  0  0  0  0  0  0  0  0  0  0  0
  152.4334  144.1921  159.6421 C   0  0  0  0  0  0  0  0  0  0  0  0
  152.6806  142.9202  160.1982 C   0  0  0  0  0  0  0  0  0  0  0  0
  152.2253  141.7418  159.5710 C   0  0  0  0  0  0  0  0  0  0  0  0
  151.5199  141.8952  158.3775 C   0  0  0  0  0  0  0  0  0  0  0  0
  150.9306  140.9814  157.4946 N   0  0  0  0  0  0  0  0  0  0  0  0
  150.9987  139.5387  157.7797 C   0  0  0  0  0  0  0  0  0  0  0  0
  149.6181  138.9201  158.0772 C   0  0  1  0  0  0  0  0  0  0  0  0
  149.0135  138.5196  156.8636 O   0  0  0  0  0  0  0  0  0  0  0  0
  149.7265  137.6908  158.9925 C   0  0  0  0  0  0  0  0  0  0  0  0
  148.4532  137.4256  159.5575 O   0  0  0  0  0  0  0  0  0  0  0  0
  148.4206  136.2191  160.3010 C   0  0  0  0  0  0  0  0  0  0  0  0
  147.0562  135.9940  160.9222 C   0  0  0  0  0  0  0  0  0  0  0  0
  146.1439  137.0654  161.0245 C   0  0  0  0  0  0  0  0  0  0  0  0
  144.8723  136.8615  161.5951 C   0  0  0  0  0  0  0  0  0  0  0  0
  144.5081  135.5855  162.0660 C   0  0  0  0  0  0  0  0  0  0  0  0
  145.4148  134.5130  161.9635 C   0  0  0  0  0  0  0  0  0  0  0  0
  146.6863  134.7145  161.3913 C   0  0  0  0  0  0  0  0  0  0  0  0
  147.5483  133.6739  161.2928 F   0  0  0  0  0  0  0  0  0  0  0  0
  149.3141  141.7863  154.5890 H   0  0  0  0  0  0  0  0  0  0  0  0
  148.7477  140.4900  155.6532 H   0  0  0  0  0  0  0  0  0  0  0  0
  150.2789  140.3151  154.7799 H   0  0  0  0  0  0  0  0  0  0  0  0
  151.5351  145.3145  158.0086 H   0  0  0  0  0  0  0  0  0  0  0  0
  152.7987  145.0723  160.1515 H   0  0  0  0  0  0  0  0  0  0  0  0
  153.2323  142.8461  161.1240 H   0  0  0  0  0  0  0  0  0  0  0  0
  152.4273  140.7728  160.0028 H   0  0  0  0  0  0  0  0  0  0  0  0
  151.4931  139.0281  156.9531 H   0  0  0  0  0  0  0  0  0  0  0  0
  151.6535  139.4152  158.6430 H   0  0  0  0  0  0  0  0  0  0  0  0
  148.9880  139.6730  158.5525 H   0  0  0  0  0  0  0  0  0  0  0  0
  149.6225  138.6854  156.1596 H   0  0  0  0  0  0  0  0  0  0  0  0
  150.1118  136.8259  158.4494 H   0  0  0  0  0  0  0  0  0  0  0  0
  150.4242  137.8990  159.8053 H   0  0  0  0  0  0  0  0  0  0  0  0
  148.6672  135.3743  159.6559 H   0  0  0  0  0  0  0  0  0  0  0  0
  149.1750  136.2463  161.0889 H   0  0  0  0  0  0  0  0  0  0  0  0
  146.4160  138.0466  160.6640 H   0  0  0  0  0  0  0  0  0  0  0  0
  144.1762  137.6839  161.6707 H   0  0  0  0  0  0  0  0  0  0  0  0
  143.5334  135.4291  162.5040 H   0  0  0  0  0  0  0  0  0  0  0  0
  145.1345  133.5338  162.3227 H   0  0  0  0  0  0  0  0  0  0  0  0
  150.2370  143.6915  156.0109 H   0  0  0  0  0  0  0  0  0  0  0  0
  1  2  1  0  0  0  0
  1 24  1  0  0  0  0
  1 25  1  0  0  0  0
  1 26  1  0  0  0  0
  2 10  1  0  0  0  0
  2  3  2  0  0  0  0
  3  4  1  0  0  0  0
  3 43  1  0  0  0  0
  4  9  2  0  0  0  0
  4  5  1  0  0  0  0
  5  6  2  0  0  0  0
  5 27  1  0  0  0  0
  6  7  1  0  0  0  0
  6 28  1  0  0  0  0
  7  8  2  0  0  0  0
  7 29  1  0  0  0  0
  8  9  1  0  0  0  0
  8 30  1  0  0  0  0
  9 10  1  0  0  0  0
 10 11  1  0  0  0  0
 11 12  1  0  0  0  0
 11 31  1  0  0  0  0
 11 32  1  0  0  0  0
 12 13  1  0  0  0  0
 12 14  1  0  0  0  0
 12 33  1  0  0  0  0
 13 34  1  0  0  0  0
 14 15  1  0  0  0  0
 14 35  1  0  0  0  0
 14 36  1  0  0  0  0
 15 16  1  0  0  0  0
 16 17  1  0  0  0  0
 16 37  1  0  0  0  0
 16 38  1  0  0  0  0
 17 22  1  0  0  0  0
 17 18  2  0  0  0  0
 18 19  1  0  0  0  0
 18 39  1  0  0  0  0
 19 20  2  0  0  0  0
 19 40  1  0  0  0  0
 20 21  1  0  0  0  0
 20 41  1  0  0  0  0
 21 22  2  0  0  0  0
 21 42  1  0  0  0  0
 22 23  1  0  0  0  0
M  CHG  1   3   1
M  END
> <s_m_source_file>
AV-unprocessed.smi

> <i_m_source_file_index>
1288

> <i_lp_mmshare_version>
43012

> <i_f3d_flags>
0

> <s_epik_input>
W2NIXTFbY0hdW2NIXVtjSF1jKGMxMiluKGMobjIpW0NIM10pW0NIMl1bQ0BIXShbT0hdKVtDSDJdT1tDSDJdYzNbY0hdW2NIXVtjSF1bY0hdYzNG

> <s_epik_cmdline>
J2VwaWtfcHl0aG9uJywgJy1waCcsICc3LjAnLCAnLXRuJywgJzgnLCAnLW1hJywgJzIwMCcsICctbWV0YWxfYmluZGluZycsICctaW1hZScsICc8aW5maWxlLm1hZT4nLCAnLW9tYWUnLCAnPG91dGZpbGUubWFlPic=

> <r_epik_Ionization_Penalty>
0.952

> <r_epik_Ionization_Penalty_Charging>
0.951999

> <r_epik_Ionization_Penalty_Neutral>
1.07667e-06

> <r_epik_State_Penalty>
0.996343

> <r_epik_Charging_Adjusted_Penalty>
1.94834

> <i_epik_Tot_Q>
1

> <i_epik_Tot_abs_Q>
1

> <r_epik_Metal_State_Penalty>
4.96724

> <b_epik_Metal_Only>
0

> <s_lp_Force_Field>
OPLS_2005

> <r_lp_Energy>
19.2213

> <b_lp_Chiralities_Consistent>
1

> <s_lp_Variant>
AV-unprocessed.smi:1288-4

> <Gold.Version>
5.8.1

> <Gold.Id.Protein>
6NUR|6NUR_protein|mol2

> <Gold.PLP.Fitness>
54.8110

> <Gold.PLP.PLP>
-50.2585

> <Gold.PLP.part.hbond>
-3.0000

> <Gold.PLP.part.metal>
0.0000

> <Gold.PLP.part.buried>
-4.7150

> <Gold.PLP.part.nonpolar>
-43.1778

> <Gold.PLP.part.repulsive>
0.0594

> <Gold.PLP.ligand.clash>
0.0000

> <Gold.PLP.ligand.torsion>
0.7518

> <Gold.PLP.Chemscore.Hbond>
1.9855

> <Gold.PLP.Chemscore.CHOScore>
0.0000

> <Gold.PLP.Chemscore.Metal>
0.0000

> <Gold.Chemscore.Hbonds>
donor molecule, donor type, donor heavy atom, donor atom, acceptor molecule, acceptor atom, score
      L1  H     3    43       P1  8028  1.76

> <Gold.PLP.Chemscore.Internal.Correction>
0.0996

> <Gold.Rescore>
     Score         DG    S(hbond)    S(metal)    S(lipo)     H(rot)  DE(clash)    DE(int)     intcor
     17.29     -18.42       0.98        0.00     134.70       2.38       0.10       1.02       ----

> <Gold.Chemscore.Fitness>
17.2941

> <Gold.Chemscore.DG>
-18.4189

> <Gold.Chemscore.ZeroCoef>
-5.4800

> <Gold.Chemscore.Hbond>
0.9802

> <Gold.Chemscore.Metal>
0.0000

> <Gold.Chemscore.Lipo>
134.7007

> <Gold.Chemscore.Internal_Hbond>
0.0000

> <Gold.Chemscore.DEClash>
0.1007

> <Gold.Chemscore.DEInternal>
1.0241

> <Gold.Chemscore.Rot>
2.3809

> <Gold.Chemscore.Internal.Correction>
   9.000000E+99

> <Gold.Chemscore.Hbonds>
donor molecule, donor type, donor heavy atom, donor atom, acceptor molecule, acceptor atom, score
      L1  H     3    43       P1  8028  0.87
      P1  H  6934  6947       L1    15  0.01

> <Gold.Chemscore.Hbond.Weighted>
-3.2740

> <Gold.Chemscore.Metal.Weighted>
-0.0000

> <Gold.Chemscore.Lipo.Weighted>
-15.7600

> <Gold.Chemscore.Internal_Hbond.Weighted>
0.0000

> <Gold.Chemscore.DEClash.Weighted>
0.1007

> <Gold.Chemscore.DEInternal.Weighted>
1.0241

> <Gold.Chemscore.Rot.Weighted>
6.0951

> <Gold.Chemscore.Internal.Correction.Weighted>
   9.000000E+99

> <Gold.Protein.RotatedTorsions>
[ 6907 6896 6895 6894 ] final  127.79 input  -60.11 | X-H torsion
[ 7974 7965 7964 7962 ] final  -64.03 input  175.53 | X-H torsion
[ 8008 7997 7996 7995 ] final  170.04 input   59.86 | X-H torsion
[ 10167 10162 10161 10158 ] final -169.16 input  -65.29 | X-H torsion
[ 10718 10713 10712 10709 ] final    0.61 input   66.30 | X-H torsion
[ 10763 10752 10751 10750 ] final  -69.02 input  -60.55 | X-H torsion
[ 11005 11000 10999 10996 ] final -126.40 input  -57.11 | X-H torsion

> <Gold.Protein.ActiveResidues>
 VAL166  LYS551  ARG553  GLY616  TRP617  ASP618  TYR619  PRO620  LYS621  CYS622 
 ASP623  PHE694  ASN695  SER759  ASP760  ASP761  ALA762  ILE779  LEU786  VAL792 
 PHE793  MET794  SER795  GLU796  ALA797  LYS798  CYS799  TRP800  GLU811  SER814 

> <Gold.Protein.RotatedAtoms>
  152.3780  133.6507  159.6138 H   0  0  0  0  0  0  0  0  0  0  0  0  # atno 6907 bound_to 6896
  150.7719  133.9161  159.3393 H   0  0  0  0  0  0  0  0  0  0  0  0  # atno 6908 bound_to 6896
  151.6972  135.0937  160.0295 H   0  0  0  0  0  0  0  0  0  0  0  0  # atno 6909 bound_to 6896
  145.7718  140.8809  143.0376 H   0  0  0  0  0  0  0  0  0  0  0  0  # atno 7974 bound_to 7965
  156.1402  140.1548  156.8932 H   0  0  0  0  0  0  0  0  0  0  0  0  # atno 8008 bound_to 7997
  154.4981  140.0832  156.7779 H   0  0  0  0  0  0  0  0  0  0  0  0  # atno 8009 bound_to 7997
  155.4092  140.3418  155.4264 H   0  0  0  0  0  0  0  0  0  0  0  0  # atno 8010 bound_to 7997
  139.5940  144.1153  152.1667 H   0  0  0  0  0  0  0  0  0  0  0  0  # atno 10167 bound_to 10162
  156.8359  130.5504  149.5682 H   0  0  0  0  0  0  0  0  0  0  0  0  # atno 10718 bound_to 10713
  154.3974  135.6039  153.5877 H   0  0  0  0  0  0  0  0  0  0  0  0  # atno 10763 bound_to 10752
  152.9788  135.5898  154.4225 H   0  0  0  0  0  0  0  0  0  0  0  0  # atno 10764 bound_to 10752
  154.4018  135.2843  155.2070 H   0  0  0  0  0  0  0  0  0  0  0  0  # atno 10765 bound_to 10752
  140.9684  134.0839  157.3895 H   0  0  0  0  0  0  0  0  0  0  0  0  # atno 11005 bound_to 11000
  144.6811  139.9866  143.7484 LP  0  0  0  0  0  0  0  0  0  0  0  0  # atno 17320 bound_to 7965
  146.0162  139.3212  143.0840 LP  0  0  0  0  0  0  0  0  0  0  0  0  # atno 17321 bound_to 7965
  140.0733  144.5761  150.7175 LP  0  0  0  0  0  0  0  0  0  0  0  0  # atno 17342 bound_to 10162
  140.7196  143.2576  151.4321 LP  0  0  0  0  0  0  0  0  0  0  0  0  # atno 17343 bound_to 10162
  156.0907  130.5894  150.9728 LP  0  0  0  0  0  0  0  0  0  0  0  0  # atno 17370 bound_to 10713
  157.6381  131.0913  150.8306 LP  0  0  0  0  0  0  0  0  0  0  0  0  # atno 17371 bound_to 10713
  139.8903  135.0111  156.6729 LP  0  0  0  0  0  0  0  0  0  0  0  0  # atno 17394 bound_to 11000
  140.7364  133.9015  155.8247 LP  0  0  0  0  0  0  0  0  0  0  0  0  # atno 17395 bound_to 11000

$$$$
