AV-unprocessed.smi:1717|AV-procd|sdf|6920|dock4
  -GOLD-   22720 8123D 1   1.00000     0.00000
 Structure written by MMmdl.
 40 41  0  0  0  0  0  0  0  0  3 V2000
  149.8115  140.6592  156.7497 C   0  0  0  0  0  0  0  0  0  0  0  0
  148.5615  140.9641  156.0637 N   0  5  0  0  0  0  0  0  0  0  0  0
  148.4752  141.1832  154.7243 C   0  0  0  0  0  0  0  0  0  0  0  0
  149.3356  141.1195  153.8397 O   0  0  0  0  0  0  0  0  0  0  0  0
  147.0421  141.5398  154.3134 C   0  0  0  0  0  0  0  0  0  0  0  0
  146.4944  140.4924  153.4160 N   0  3  2  0  0  0  0  0  0  0  0  0
  146.2638  139.2074  154.1231 C   0  0  0  0  0  0  0  0  0  0  0  0
  145.5577  138.1901  153.2109 C   0  0  0  0  0  0  0  0  0  0  0  0
  146.3523  137.9574  151.9158 C   0  0  1  0  0  0  0  0  0  0  0  0
  145.6111  137.0618  151.0323 N   0  0  0  0  0  0  0  0  0  0  0  0
  145.3385  135.7746  151.2907 C   0  0  0  0  0  0  0  0  0  0  0  0
  145.6830  135.2004  152.3234 O   0  0  0  0  0  0  0  0  0  0  0  0
  144.6539  135.2087  150.2835 N   0  0  0  0  0  0  0  0  0  0  0  0
  144.1838  133.8736  150.2098 C   0  0  0  0  0  0  0  0  0  0  0  0
  144.1287  132.9962  149.0870 C   0  0  0  0  0  0  0  0  0  0  0  0
  143.6223  131.8182  149.4234 N   0  0  0  0  0  0  0  0  0  0  0  0
  143.3554  131.9338  150.7438 N   0  0  0  0  0  0  0  0  0  0  0  0
  143.6817  133.1676  151.2620 C   0  0  0  0  0  0  0  0  0  0  0  0
  146.6171  139.3068  151.2239 C   0  0  0  0  0  0  0  0  0  0  0  0
  147.2989  140.2990  152.1795 C   0  0  0  0  0  0  0  0  0  0  0  0
  142.9557  131.1702  151.2705 H   0  0  0  0  0  0  0  0  0  0  0  0
  149.6749  140.5887  157.8287 H   0  0  0  0  0  0  0  0  0  0  0  0
  150.5750  141.4197  156.5845 H   0  0  0  0  0  0  0  0  0  0  0  0
  150.2380  139.7082  156.4294 H   0  0  0  0  0  0  0  0  0  0  0  0
  146.3804  141.6985  155.1680 H   0  0  0  0  0  0  0  0  0  0  0  0
  147.0944  142.4934  153.7862 H   0  0  0  0  0  0  0  0  0  0  0  0
  147.2171  138.8061  154.4708 H   0  0  0  0  0  0  0  0  0  0  0  0
  145.6493  139.3787  155.0079 H   0  0  0  0  0  0  0  0  0  0  0  0
  145.4263  137.2477  153.7442 H   0  0  0  0  0  0  0  0  0  0  0  0
  144.5565  138.5534  152.9736 H   0  0  0  0  0  0  0  0  0  0  0  0
  147.3071  137.4970  152.1780 H   0  0  0  0  0  0  0  0  0  0  0  0
  145.2875  137.4491  150.1580 H   0  0  0  0  0  0  0  0  0  0  0  0
  144.4442  135.7930  149.4874 H   0  0  0  0  0  0  0  0  0  0  0  0
  144.4296  133.1601  148.0629 H   0  0  0  0  0  0  0  0  0  0  0  0
  143.5324  133.4248  152.3005 H   0  0  0  0  0  0  0  0  0  0  0  0
  147.2420  139.1623  150.3414 H   0  0  0  0  0  0  0  0  0  0  0  0
  145.6777  139.7345  150.8705 H   0  0  0  0  0  0  0  0  0  0  0  0
  147.4345  141.2492  151.6627 H   0  0  0  0  0  0  0  0  0  0  0  0
  148.2948  139.9403  152.4443 H   0  0  0  0  0  0  0  0  0  0  0  0
  145.5862  140.8279  153.1270 H   0  0  0  0  0  0  0  0  0  0  0  0
  1  2  1  0  0  0  0
  1 22  1  0  0  0  0
  1 23  1  0  0  0  0
  1 24  1  0  0  0  0
  2  3  1  0  0  0  0
  3  4  2  0  0  0  0
  3  5  1  0  0  0  0
  5  6  1  0  0  0  0
  5 25  1  0  0  0  0
  5 26  1  0  0  0  0
  6 20  1  0  0  0  0
  6  7  1  0  0  0  0
  6 40  1  0  0  0  0
  7  8  1  0  0  0  0
  7 27  1  0  0  0  0
  7 28  1  0  0  0  0
  8  9  1  0  0  0  0
  8 29  1  0  0  0  0
  8 30  1  0  0  0  0
  9 10  1  0  0  0  0
  9 19  1  0  0  0  0
  9 31  1  0  0  0  0
 10 11  1  0  0  0  0
 10 32  1  0  0  0  0
 11 12  2  0  0  0  0
 11 13  1  0  0  0  0
 13 14  1  0  0  0  0
 13 33  1  0  0  0  0
 14 18  2  0  0  0  0
 14 15  1  0  0  0  0
 15 16  2  0  0  0  0
 15 34  1  0  0  0  0
 16 17  1  0  0  0  0
 17 21  1  0  0  0  0
 17 18  1  0  0  0  0
 18 35  1  0  0  0  0
 19 20  1  0  0  0  0
 19 36  1  0  0  0  0
 19 37  1  0  0  0  0
 20 38  1  0  0  0  0
 20 39  1  0  0  0  0
M  CHG  1   2  -1
M  CHG  1   6   1
M  END
> <s_m_source_file>
AV-unprocessed.smi

> <i_m_source_file_index>
1717

> <i_lp_mmshare_version>
43012

> <i_f3d_flags>
0

> <s_epik_input>
W0NIM11bTkhdQyg9TylbQ0gyXU4xW0NIMl1bQ0gyXVtDSF0oW0NIMl1bQ0gyXTEpW05IXUMoPU8pW05IXWMyW2NIXW5bbkhdW2NIXTI=

> <s_epik_cmdline>
J2VwaWtfcHl0aG9uJywgJy1waCcsICc3LjAnLCAnLXRuJywgJzgnLCAnLW1hJywgJzIwMCcsICctbWV0YWxfYmluZGluZycsICctaW1hZScsICc8aW5maWxlLm1hZT4nLCAnLW9tYWUnLCAnPG91dGZpbGUubWFlPic=

> <r_lp_tautomer_probability>
0.5

> <r_epik_Ionization_Penalty>
6.1395

> <r_epik_Ionization_Penalty_Charging>
6.13946

> <r_epik_Ionization_Penalty_Neutral>
4.21226e-05

> <r_epik_State_Penalty>
6.9595

> <r_epik_Charging_Adjusted_Penalty>
13.099

> <i_epik_Tot_Q>
0

> <i_epik_Tot_abs_Q>
2

> <r_epik_Metal_State_Penalty>
2.89141

> <b_epik_Metal_Only>
1

> <s_lp_Force_Field>
OPLS_2005

> <r_lp_Energy>
12.4493

> <b_lp_Chiralities_Consistent>
1

> <s_lp_Variant>
AV-unprocessed.smi:1717-4

> <Gold.Version>
5.8.1

> <Gold.Id.Protein>
6NUR|6NUR_protein|mol2

> <Gold.PLP.Fitness>
45.0547

> <Gold.PLP.PLP>
-29.9160

> <Gold.PLP.part.hbond>
-6.0051

> <Gold.PLP.part.metal>
0.0000

> <Gold.PLP.part.buried>
1.7664

> <Gold.PLP.part.nonpolar>
-28.4725

> <Gold.PLP.part.repulsive>
2.3086

> <Gold.PLP.ligand.clash>
0.0000

> <Gold.PLP.ligand.torsion>
0.3563

> <Gold.PLP.Chemscore.Hbond>
4.5408

> <Gold.PLP.Chemscore.CHOScore>
0.7279

> <Gold.PLP.Chemscore.Metal>
0.0000

> <Gold.Chemscore.Hbonds>
donor molecule, donor type, donor heavy atom, donor atom, acceptor molecule, acceptor atom, score
      L1  H     6    40       P1 10175  1.98
      L1  H    10    32       P1 10171  0.62
      P1  H  7989  7998       L1     4  0.11
      P1  H  8011  8017       L1     4  0.89
      P1  H 10785 10796       L1    16  0.93
      L1  C    15    34       P1  7921  0.78

> <Gold.PLP.Chemscore.Internal.Correction>
0.0451

> <Gold.Rescore>
     Score         DG    S(hbond)    S(metal)    S(lipo)     H(rot)  DE(clash)    DE(int)     intcor
     14.97     -21.00       3.32        0.00      76.27       1.75       3.47       2.56       ----

> <Gold.Chemscore.Fitness>
14.9684

> <Gold.Chemscore.DG>
-20.9990

> <Gold.Chemscore.ZeroCoef>
-5.4800

> <Gold.Chemscore.Hbond>
3.3196

> <Gold.Chemscore.Metal>
0.0000

> <Gold.Chemscore.Lipo>
76.2681

> <Gold.Chemscore.Internal_Hbond>
0.0000

> <Gold.Chemscore.DEClash>
3.4700

> <Gold.Chemscore.DEInternal>
2.5605

> <Gold.Chemscore.Rot>
1.7546

> <Gold.Chemscore.Internal.Correction>
   9.000000E+99

> <Gold.Chemscore.Hbonds>
donor molecule, donor type, donor heavy atom, donor atom, acceptor molecule, acceptor atom, score
      L1  H     6    40       P1 10175  0.54
      L1  H    10    32       P1 10171  0.62
      P1  H  7989  7998       L1     4  0.11
      P1  H  8011  8017       L1     4  0.81
      P1  H 10785 10796       L1    16  0.76

> <Gold.Chemscore.Hbond.Weighted>
-11.0873

> <Gold.Chemscore.Metal.Weighted>
-0.0000

> <Gold.Chemscore.Lipo.Weighted>
-8.9234

> <Gold.Chemscore.Internal_Hbond.Weighted>
0.0000

> <Gold.Chemscore.DEClash.Weighted>
3.4700

> <Gold.Chemscore.DEInternal.Weighted>
2.5605

> <Gold.Chemscore.Rot.Weighted>
4.4917

> <Gold.Chemscore.Internal.Correction.Weighted>
   9.000000E+99

> <Gold.Protein.RotatedTorsions>
[ 6907 6896 6895 6894 ] final  108.61 input  -60.11 | X-H torsion
[ 7974 7965 7964 7962 ] final   -0.71 input  175.53 | X-H torsion
[ 8008 7997 7996 7995 ] final   65.27 input   59.86 | X-H torsion
[ 10167 10162 10161 10158 ] final  -84.80 input  -65.29 | X-H torsion
[ 10718 10713 10712 10709 ] final  -56.96 input   66.30 | X-H torsion
[ 10763 10752 10751 10750 ] final  -52.50 input  -60.55 | X-H torsion
[ 11005 11000 10999 10996 ] final  137.57 input  -57.11 | X-H torsion

> <Gold.Protein.ActiveResidues>
 VAL166  LYS551  ARG553  GLY616  TRP617  ASP618  TYR619  PRO620  LYS621  CYS622 
 ASP623  PHE694  ASN695  SER759  ASP760  ASP761  ALA762  ILE779  LEU786  VAL792 
 PHE793  MET794  SER795  GLU796  ALA797  LYS798  CYS799  TRP800  GLU811  SER814 

> <Gold.Protein.RotatedAtoms>
  152.5104  133.9064  159.7465 H   0  0  0  0  0  0  0  0  0  0  0  0  # atno 6907 bound_to 6896
  150.9467  133.6586  159.2786 H   0  0  0  0  0  0  0  0  0  0  0  0  # atno 6908 bound_to 6896
  151.3879  135.0956  159.9569 H   0  0  0  0  0  0  0  0  0  0  0  0  # atno 6909 bound_to 6896
  146.2424  140.1311  142.8338 H   0  0  0  0  0  0  0  0  0  0  0  0  # atno 7974 bound_to 7965
  155.6592  140.3497  155.4776 H   0  0  0  0  0  0  0  0  0  0  0  0  # atno 8008 bound_to 7997
  155.9783  140.1169  157.0773 H   0  0  0  0  0  0  0  0  0  0  0  0  # atno 8009 bound_to 7997
  154.4184  140.1143  156.5386 H   0  0  0  0  0  0  0  0  0  0  0  0  # atno 8010 bound_to 7997
  140.4098  143.2627  151.9032 H   0  0  0  0  0  0  0  0  0  0  0  0  # atno 10167 bound_to 10162
  156.1248  130.4163  150.0375 H   0  0  0  0  0  0  0  0  0  0  0  0  # atno 10718 bound_to 10713
  154.1437  135.6501  153.4948 H   0  0  0  0  0  0  0  0  0  0  0  0  # atno 10763 bound_to 10752
  153.0158  135.5321  154.6879 H   0  0  0  0  0  0  0  0  0  0  0  0  # atno 10764 bound_to 10752
  154.6147  135.2958  155.0364 H   0  0  0  0  0  0  0  0  0  0  0  0  # atno 10765 bound_to 10752
  140.0123  134.9433  157.0304 H   0  0  0  0  0  0  0  0  0  0  0  0  # atno 11005 bound_to 11000
  145.0325  140.8882  143.5101 LP  0  0  0  0  0  0  0  0  0  0  0  0  # atno 17320 bound_to 7965
  145.1378  139.2591  143.5506 LP  0  0  0  0  0  0  0  0  0  0  0  0  # atno 17321 bound_to 7965
  139.4783  144.5548  151.8330 LP  0  0  0  0  0  0  0  0  0  0  0  0  # atno 17342 bound_to 10162
  140.4650  144.1668  150.5910 LP  0  0  0  0  0  0  0  0  0  0  0  0  # atno 17343 bound_to 10162
  156.8304  130.9390  151.3637 LP  0  0  0  0  0  0  0  0  0  0  0  0  # atno 17370 bound_to 10713
  157.6430  130.8821  149.9484 LP  0  0  0  0  0  0  0  0  0  0  0  0  # atno 17371 bound_to 10713
  140.4532  134.1561  155.7183 LP  0  0  0  0  0  0  0  0  0  0  0  0  # atno 17394 bound_to 11000
  141.1719  133.8591  157.1542 LP  0  0  0  0  0  0  0  0  0  0  0  0  # atno 17395 bound_to 11000

$$$$
