AV-unprocessed.smi:1056|AV-procd|sdf|4634|dock7
  -GOLD-   22720 3143D 1   1.00000     0.00000
 Structure written by MMmdl.
 46 48  0  0  0  0  0  0  0  0  3 V2000
  152.4382  144.3347  161.1244 C   0  0  0  0  0  0  0  0  0  0  0  0
  152.3022  143.2649  160.0542 C   0  0  0  0  0  0  0  0  0  0  0  0
  153.0076  142.0520  160.2200 C   0  0  0  0  0  0  0  0  0  0  0  0
  152.8579  141.0900  159.2281 C   0  0  0  0  0  0  0  0  0  0  0  0
  153.4091  139.8134  159.1041 N   0  3  0  0  0  0  0  0  0  0  0  0
  152.9649  139.2357  157.9540 C   0  0  0  0  0  0  0  0  0  0  0  0
  152.1390  140.1257  157.3388 N   0  0  0  0  0  0  0  0  0  0  0  0
  151.3899  139.9955  156.0798 C   0  0  0  0  0  0  0  0  0  0  0  0
  152.1115  139.1173  155.0356 C   0  0  2  0  0  0  0  0  0  0  0  0
  153.1869  139.8384  154.4693 O   0  0  0  0  0  0  0  0  0  0  0  0
  151.1850  138.6818  153.8817 C   0  0  0  0  0  0  0  0  0  0  0  0
  150.3319  137.5181  154.2318 N   0  3  2  0  0  0  0  0  0  0  0  0
  149.2448  137.8411  155.1863 C   0  0  0  0  0  0  0  0  0  0  0  0
  148.2898  136.6424  155.3303 C   0  0  0  0  0  0  0  0  0  0  0  0
  148.9878  135.3631  155.4348 N   0  0  0  0  0  0  0  0  0  0  0  0
  150.2831  135.1571  155.1462 C   0  0  0  0  0  0  0  0  0  0  0  0
  150.7999  134.0477  155.2469 O   0  0  0  0  0  0  0  0  0  0  0  0
  151.1318  136.3504  154.6816 C   0  0  0  0  0  0  0  0  0  0  0  0
  152.0426  141.2994  158.0984 C   0  0  0  0  0  0  0  0  0  0  0  0
  151.3460  142.4926  157.9170 C   0  0  0  0  0  0  0  0  0  0  0  0
  151.4831  143.4828  158.9162 C   0  0  0  0  0  0  0  0  0  0  0  0
  150.7306  144.7918  158.7472 C   0  0  0  0  0  0  0  0  0  0  0  0
  153.0941  144.0096  161.9326 H   0  0  0  0  0  0  0  0  0  0  0  0
  151.4659  144.5672  161.5595 H   0  0  0  0  0  0  0  0  0  0  0  0
  152.8576  145.2483  160.7028 H   0  0  0  0  0  0  0  0  0  0  0  0
  153.6343  141.8798  161.0830 H   0  0  0  0  0  0  0  0  0  0  0  0
  153.2202  138.2479  157.5981 H   0  0  0  0  0  0  0  0  0  0  0  0
  150.4232  139.5580  156.3317 H   0  0  0  0  0  0  0  0  0  0  0  0
  151.1769  140.9879  155.6820 H   0  0  0  0  0  0  0  0  0  0  0  0
  152.5402  138.2450  155.5286 H   0  0  0  0  0  0  0  0  0  0  0  0
  152.9645  140.0637  153.5785 H   0  0  0  0  0  0  0  0  0  0  0  0
  150.5500  139.5283  153.6149 H   0  0  0  0  0  0  0  0  0  0  0  0
  151.7646  138.4444  152.9879 H   0  0  0  0  0  0  0  0  0  0  0  0
  149.6822  138.0901  156.1545 H   0  0  0  0  0  0  0  0  0  0  0  0
  148.6799  138.7142  154.8618 H   0  0  0  0  0  0  0  0  0  0  0  0
  147.6438  136.7737  156.1987 H   0  0  0  0  0  0  0  0  0  0  0  0
  147.6363  136.5890  154.4590 H   0  0  0  0  0  0  0  0  0  0  0  0
  148.4436  134.5701  155.7452 H   0  0  0  0  0  0  0  0  0  0  0  0
  151.7828  136.0243  153.8694 H   0  0  0  0  0  0  0  0  0  0  0  0
  151.7762  136.6494  155.5098 H   0  0  0  0  0  0  0  0  0  0  0  0
  150.7244  142.6650  157.0509 H   0  0  0  0  0  0  0  0  0  0  0  0
  150.1622  144.8094  157.8168 H   0  0  0  0  0  0  0  0  0  0  0  0
  151.4235  145.6334  158.7294 H   0  0  0  0  0  0  0  0  0  0  0  0
  150.0289  144.9379  159.5686 H   0  0  0  0  0  0  0  0  0  0  0  0
  149.8830  137.2254  153.3758 H   0  0  0  0  0  0  0  0  0  0  0  0
  154.0390  139.3658  159.7579 H   0  0  0  0  0  0  0  0  0  0  0  0
  1  2  1  0  0  0  0
  1 23  1  0  0  0  0
  1 24  1  0  0  0  0
  1 25  1  0  0  0  0
  2 21  1  0  0  0  0
  2  3  2  0  0  0  0
  3  4  1  0  0  0  0
  3 26  1  0  0  0  0
  4 19  2  0  0  0  0
  4  5  1  0  0  0  0
  5  6  2  0  0  0  0
  5 46  1  0  0  0  0
  6  7  1  0  0  0  0
  6 27  1  0  0  0  0
  7  8  1  0  0  0  0
  7 19  1  0  0  0  0
  8  9  1  0  0  0  0
  8 28  1  0  0  0  0
  8 29  1  0  0  0  0
  9 10  1  0  0  0  0
  9 11  1  0  0  0  0
  9 30  1  0  0  0  0
 10 31  1  0  0  0  0
 11 12  1  0  0  0  0
 11 32  1  0  0  0  0
 11 33  1  0  0  0  0
 12 18  1  0  0  0  0
 12 13  1  0  0  0  0
 12 45  1  0  0  0  0
 13 14  1  0  0  0  0
 13 34  1  0  0  0  0
 13 35  1  0  0  0  0
 14 15  1  0  0  0  0
 14 36  1  0  0  0  0
 14 37  1  0  0  0  0
 15 16  1  0  0  0  0
 15 38  1  0  0  0  0
 16 17  2  0  0  0  0
 16 18  1  0  0  0  0
 18 39  1  0  0  0  0
 18 40  1  0  0  0  0
 19 20  1  0  0  0  0
 20 21  2  0  0  0  0
 20 41  1  0  0  0  0
 21 22  1  0  0  0  0
 22 42  1  0  0  0  0
 22 43  1  0  0  0  0
 22 44  1  0  0  0  0
M  CHG  1   5   1
M  CHG  1  12   1
M  END
> <s_m_source_file>
AV-unprocessed.smi

> <i_m_source_file_index>
1056

> <i_lp_mmshare_version>
43012

> <i_f3d_flags>
0

> <s_epik_input>
W0NIM11jKFtjSF0xKWMoW0NIM10pW2NIXWMoYzEyKW4oW2NIXW4yKVtDSDJdW0NASF0oW09IXSlbQ0gyXU4zW0NIMl1bQ0gyXVtOSF1DKD1PKVtDSDJdMw==

> <s_epik_cmdline>
J2VwaWtfcHl0aG9uJywgJy1waCcsICc3LjAnLCAnLXRuJywgJzgnLCAnLW1hJywgJzIwMCcsICctbWV0YWxfYmluZGluZycsICctaW1hZScsICc8aW5maWxlLm1hZT4nLCAnLW9tYWUnLCAnPG91dGZpbGUubWFlPic=

> <r_epik_Ionization_Penalty>
1.262

> <r_epik_Ionization_Penalty_Charging>
1.26188

> <r_epik_Ionization_Penalty_Neutral>
0.000125436

> <r_epik_State_Penalty>
1.3387

> <r_epik_Charging_Adjusted_Penalty>
2.60058

> <i_epik_Tot_Q>
2

> <i_epik_Tot_abs_Q>
2

> <r_epik_Metal_State_Penalty>
1.58938

> <b_epik_Metal_Only>
0

> <s_lp_Force_Field>
OPLS_2005

> <r_lp_Energy>
36.1571

> <b_lp_Chiralities_Consistent>
1

> <s_lp_Variant>
AV-unprocessed.smi:1056-5

> <Gold.Version>
5.8.1

> <Gold.Id.Protein>
6NUR|6NUR_protein|mol2

> <Gold.PLP.Fitness>
49.1771

> <Gold.PLP.PLP>
-41.6290

> <Gold.PLP.part.hbond>
-3.0000

> <Gold.PLP.part.metal>
0.0000

> <Gold.PLP.part.buried>
-6.5818

> <Gold.PLP.part.nonpolar>
-31.5021

> <Gold.PLP.part.repulsive>
0.2068

> <Gold.PLP.ligand.clash>
0.0000

> <Gold.PLP.ligand.torsion>
0.7365

> <Gold.PLP.Chemscore.Hbond>
3.0000

> <Gold.PLP.Chemscore.CHOScore>
0.0000

> <Gold.PLP.Chemscore.Metal>
0.0000

> <Gold.Chemscore.Hbonds>
donor molecule, donor type, donor heavy atom, donor atom, acceptor molecule, acceptor atom, score
      L1  H    12    45       P1  7948  2.00
      P1  H  7997  8008       L1    10  1.00

> <Gold.PLP.Chemscore.Internal.Correction>
0.0210

> <Gold.Rescore>
     Score         DG    S(hbond)    S(metal)    S(lipo)     H(rot)  DE(clash)    DE(int)     intcor
     17.68     -18.56       1.87        0.00     111.60       2.44       0.24       0.63       ----

> <Gold.Chemscore.Fitness>
17.6824

> <Gold.Chemscore.DG>
-18.5569

> <Gold.Chemscore.ZeroCoef>
-5.4800

> <Gold.Chemscore.Hbond>
1.8728

> <Gold.Chemscore.Metal>
0.0000

> <Gold.Chemscore.Lipo>
111.5980

> <Gold.Chemscore.Internal_Hbond>
0.0000

> <Gold.Chemscore.DEClash>
0.2447

> <Gold.Chemscore.DEInternal>
0.6297

> <Gold.Chemscore.Rot>
2.4357

> <Gold.Chemscore.Internal.Correction>
   9.000000E+99

> <Gold.Chemscore.Hbonds>
donor molecule, donor type, donor heavy atom, donor atom, acceptor molecule, acceptor atom, score
      L1  H    12    45       P1  7948  0.43
      P1  H  7997  8008       L1    10  0.78

> <Gold.Chemscore.Hbond.Weighted>
-6.2552

> <Gold.Chemscore.Metal.Weighted>
-0.0000

> <Gold.Chemscore.Lipo.Weighted>
-13.0570

> <Gold.Chemscore.Internal_Hbond.Weighted>
0.0000

> <Gold.Chemscore.DEClash.Weighted>
0.2447

> <Gold.Chemscore.DEInternal.Weighted>
0.6297

> <Gold.Chemscore.Rot.Weighted>
6.2353

> <Gold.Chemscore.Internal.Correction.Weighted>
   9.000000E+99

> <Gold.Protein.RotatedTorsions>
[ 6907 6896 6895 6894 ] final  -55.07 input  -60.11 | X-H torsion
[ 7974 7965 7964 7962 ] final  135.34 input  175.53 | X-H torsion
[ 8008 7997 7996 7995 ] final   -8.82 input   59.86 | X-H torsion
[ 10167 10162 10161 10158 ] final   40.46 input  -65.29 | X-H torsion
[ 10718 10713 10712 10709 ] final   15.64 input   66.30 | X-H torsion
[ 10763 10752 10751 10750 ] final -131.06 input  -60.55 | X-H torsion
[ 11005 11000 10999 10996 ] final  -67.31 input  -57.11 | X-H torsion

> <Gold.Protein.ActiveResidues>
 VAL166  LYS551  ARG553  GLY616  TRP617  ASP618  TYR619  PRO620  LYS621  CYS622 
 ASP623  PHE694  ASN695  SER759  ASP760  ASP761  ALA762  ILE779  LEU786  VAL792 
 PHE793  MET794  SER795  GLU796  ALA797  LYS798  CYS799  TRP800  GLU811  SER814 

> <Gold.Protein.RotatedAtoms>
  150.8283  134.7524  159.6831 H   0  0  0  0  0  0  0  0  0  0  0  0  # atno 6907 bound_to 6896
  152.4391  134.5624  159.9908 H   0  0  0  0  0  0  0  0  0  0  0  0  # atno 6908 bound_to 6896
  151.5791  133.3342  159.3041 H   0  0  0  0  0  0  0  0  0  0  0  0  # atno 6909 bound_to 6896
  144.9673  139.4644  143.5450 H   0  0  0  0  0  0  0  0  0  0  0  0  # atno 7974 bound_to 7965
  154.5705  140.2371  155.8199 H   0  0  0  0  0  0  0  0  0  0  0  0  # atno 8008 bound_to 7997
  156.2103  140.3028  155.9675 H   0  0  0  0  0  0  0  0  0  0  0  0  # atno 8009 bound_to 7997
  155.2721  140.0419  157.2998 H   0  0  0  0  0  0  0  0  0  0  0  0  # atno 8010 bound_to 7997
  140.3740  144.2068  150.6132 H   0  0  0  0  0  0  0  0  0  0  0  0  # atno 10167 bound_to 10162
  157.0564  130.6291  149.5777 H   0  0  0  0  0  0  0  0  0  0  0  0  # atno 10718 bound_to 10713
  154.8753  135.3842  154.4185 H   0  0  0  0  0  0  0  0  0  0  0  0  # atno 10763 bound_to 10752
  153.4891  135.7030  153.5899 H   0  0  0  0  0  0  0  0  0  0  0  0  # atno 10764 bound_to 10752
  153.4281  135.3885  155.2120 H   0  0  0  0  0  0  0  0  0  0  0  0  # atno 10765 bound_to 10752
  141.1505  133.6716  156.6273 H   0  0  0  0  0  0  0  0  0  0  0  0  # atno 11005 bound_to 11000
  146.3371  139.8862  142.8816 LP  0  0  0  0  0  0  0  0  0  0  0  0  # atno 17320 bound_to 7965
  145.2611  141.0077  143.3826 LP  0  0  0  0  0  0  0  0  0  0  0  0  # atno 17321 bound_to 7965
  140.5005  143.2319  151.8686 LP  0  0  0  0  0  0  0  0  0  0  0  0  # atno 17342 bound_to 10162
  139.4801  144.5065  151.8991 LP  0  0  0  0  0  0  0  0  0  0  0  0  # atno 17343 bound_to 10162
  155.9992  130.5067  150.7597 LP  0  0  0  0  0  0  0  0  0  0  0  0  # atno 17370 bound_to 10713
  157.4989  131.0917  151.0337 LP  0  0  0  0  0  0  0  0  0  0  0  0  # atno 17371 bound_to 10713
  140.3494  134.7781  157.4456 LP  0  0  0  0  0  0  0  0  0  0  0  0  # atno 17394 bound_to 11000
  140.0873  134.5649  155.8479 LP  0  0  0  0  0  0  0  0  0  0  0  0  # atno 17395 bound_to 11000

$$$$
