AV-unprocessed.smi:672|AV-procd|sdf|3292|dock7
  -GOLD-   22720 0253D 1   1.00000     0.00000
 Structure written by MMmdl.
 36 37  0  0  0  0  0  0  0  0  1 V2000
  146.7915  139.5785  151.7147 C   0  0  0  0  0  0  0  0  0  0  0  0
  147.1374  138.7690  152.9690 C   0  0  0  0  0  0  0  0  0  0  0  0
  148.0012  139.5260  153.9220 C   0  0  0  0  0  0  0  0  0  0  0  0
  148.8890  138.9273  154.7257 N   0  0  0  0  0  0  0  0  0  0  0  0
  149.5905  139.8364  155.5049 N   0  0  0  0  0  0  0  0  0  0  0  0
  149.2207  141.1000  155.2540 C   0  0  0  0  0  0  0  0  0  0  0  0
  149.7785  142.2301  155.9086 N   0  0  0  0  0  0  0  0  0  0  0  0
  150.8456  142.2773  156.7253 C   0  0  0  0  0  0  0  0  0  0  0  0
  151.5398  141.3127  157.0474 O   0  0  0  0  0  0  0  0  0  0  0  0
  151.0677  143.5255  157.1619 N   0  0  0  0  0  0  0  0  0  0  0  0
  152.1460  143.9183  158.0665 C   0  0  1  0  0  0  0  0  0  0  0  0
  151.7959  145.2254  158.8034 C   0  0  0  0  0  0  0  0  0  0  0  0
  152.0661  144.9626  160.2862 C   0  0  0  0  0  0  0  0  0  0  0  0
  151.8242  143.4638  160.4547 C   0  0  2  0  0  0  0  0  0  0  0  0
  152.6082  142.7725  161.9398 S   0  0  0  0  0  0  0  0  0  0  0  0
  153.5387  141.4015  161.2061 C   0  0  0  0  0  0  0  0  0  0  0  0
  152.3799  142.8599  159.1630 C   0  0  0  0  0  0  0  0  0  0  0  0
  147.9759  141.2825  154.0301 S   0  0  0  0  0  0  0  0  0  0  0  0
  146.1616  138.9980  151.0406 H   0  0  0  0  0  0  0  0  0  0  0  0
  147.6918  139.8620  151.1687 H   0  0  0  0  0  0  0  0  0  0  0  0
  146.2530  140.4912  151.9715 H   0  0  0  0  0  0  0  0  0  0  0  0
  146.2232  138.4750  153.4850 H   0  0  0  0  0  0  0  0  0  0  0  0
  147.6466  137.8467  152.6874 H   0  0  0  0  0  0  0  0  0  0  0  0
  149.3045  143.1049  155.7400 H   0  0  0  0  0  0  0  0  0  0  0  0
  150.4485  144.2579  156.8474 H   0  0  0  0  0  0  0  0  0  0  0  0
  153.0658  144.0601  157.4956 H   0  0  0  0  0  0  0  0  0  0  0  0
  152.3715  146.0734  158.4315 H   0  0  0  0  0  0  0  0  0  0  0  0
  150.7409  145.4718  158.6733 H   0  0  0  0  0  0  0  0  0  0  0  0
  153.1057  145.2007  160.5153 H   0  0  0  0  0  0  0  0  0  0  0  0
  151.4345  145.5686  160.9363 H   0  0  0  0  0  0  0  0  0  0  0  0
  150.7509  143.2731  160.4988 H   0  0  0  0  0  0  0  0  0  0  0  0
  154.1167  140.8886  161.9749 H   0  0  0  0  0  0  0  0  0  0  0  0
  154.2266  141.7709  160.4455 H   0  0  0  0  0  0  0  0  0  0  0  0
  152.8630  140.6806  160.7462 H   0  0  0  0  0  0  0  0  0  0  0  0
  151.9294  141.8919  158.9383 H   0  0  0  0  0  0  0  0  0  0  0  0
  153.4531  142.6932  159.2670 H   0  0  0  0  0  0  0  0  0  0  0  0
  1  2  1  0  0  0  0
  1 19  1  0  0  0  0
  1 20  1  0  0  0  0
  1 21  1  0  0  0  0
  2  3  1  0  0  0  0
  2 22  1  0  0  0  0
  2 23  1  0  0  0  0
  3 18  1  0  0  0  0
  3  4  2  0  0  0  0
  4  5  1  0  0  0  0
  5  6  2  0  0  0  0
  6  7  1  0  0  0  0
  6 18  1  0  0  0  0
  7  8  1  0  0  0  0
  7 24  1  0  0  0  0
  8  9  2  0  0  0  0
  8 10  1  0  0  0  0
 10 11  1  0  0  0  0
 10 25  1  0  0  0  0
 11 17  1  0  0  0  0
 11 12  1  0  0  0  0
 11 26  1  0  0  0  0
 12 13  1  0  0  0  0
 12 27  1  0  0  0  0
 12 28  1  0  0  0  0
 13 14  1  0  0  0  0
 13 29  1  0  0  0  0
 13 30  1  0  0  0  0
 14 15  1  0  0  0  0
 14 17  1  0  0  0  0
 14 31  1  0  0  0  0
 15 16  1  0  0  0  0
 16 32  1  0  0  0  0
 16 33  1  0  0  0  0
 16 34  1  0  0  0  0
 17 35  1  0  0  0  0
 17 36  1  0  0  0  0
M  END
> <s_m_source_file>
AV-unprocessed.smi

> <i_m_source_file_index>
672

> <i_lp_mmshare_version>
43012

> <i_f3d_flags>
0

> <s_epik_input>
W0NIM11bQ0gyXWMxbm5jKHMxKVtOSF1DKD1PKVtOSF1bQ0BASF0yW0NIMl1bQ0gyXVtDQEhdKFtDSDJdMilTW0NIM10=

> <s_epik_cmdline>
J2VwaWtfcHl0aG9uJywgJy1waCcsICc3LjAnLCAnLXRuJywgJzgnLCAnLW1hJywgJzIwMCcsICctbWV0YWxfYmluZGluZycsICctaW1hZScsICc8aW5maWxlLm1hZT4nLCAnLW9tYWUnLCAnPG91dGZpbGUubWFlPic=

> <r_lp_tautomer_probability>
1

> <r_epik_Ionization_Penalty>
0.000422169

> <r_epik_Ionization_Penalty_Charging>
0

> <r_epik_Ionization_Penalty_Neutral>
0.000422169

> <r_epik_State_Penalty>
-0

> <r_epik_Charging_Adjusted_Penalty>
0

> <i_epik_Tot_Q>
0

> <i_epik_Tot_abs_Q>
0

> <r_epik_Metal_State_Penalty>
0.200061

> <b_epik_Metal_Only>
0

> <s_lp_Force_Field>
OPLS_2005

> <r_lp_Energy>
11.6788

> <b_lp_Chiralities_Consistent>
1

> <s_lp_Variant>
AV-unprocessed.smi:672-4

> <Gold.Version>
5.8.1

> <Gold.Id.Protein>
6NUR|6NUR_protein|mol2

> <Gold.PLP.Fitness>
47.2188

> <Gold.PLP.PLP>
-44.2105

> <Gold.PLP.part.hbond>
-2.0000

> <Gold.PLP.part.metal>
0.0000

> <Gold.PLP.part.buried>
-1.8423

> <Gold.PLP.part.nonpolar>
-40.7995

> <Gold.PLP.part.repulsive>
0.3179

> <Gold.PLP.ligand.clash>
0.0000

> <Gold.PLP.ligand.torsion>
1.4194

> <Gold.PLP.Chemscore.Hbond>
1.9440

> <Gold.PLP.Chemscore.CHOScore>
0.0000

> <Gold.PLP.Chemscore.Metal>
0.0000

> <Gold.Chemscore.Hbonds>
donor molecule, donor type, donor heavy atom, donor atom, acceptor molecule, acceptor atom, score
      L1  H     7    24       P1  8028  1.00
      L1  H    10    25       P1  8028  0.94

> <Gold.PLP.Chemscore.Internal.Correction>
0.0151

> <Gold.Rescore>
     Score         DG    S(hbond)    S(metal)    S(lipo)     H(rot)  DE(clash)    DE(int)     intcor
     17.84     -21.90       1.94        0.00     114.97       1.37       0.29       3.76       ----

> <Gold.Chemscore.Fitness>
17.8408

> <Gold.Chemscore.DG>
-21.8973

> <Gold.Chemscore.ZeroCoef>
-5.4800

> <Gold.Chemscore.Hbond>
1.9358

> <Gold.Chemscore.Metal>
0.0000

> <Gold.Chemscore.Lipo>
114.9661

> <Gold.Chemscore.Internal_Hbond>
0.0000

> <Gold.Chemscore.DEClash>
0.2923

> <Gold.Chemscore.DEInternal>
3.7642

> <Gold.Chemscore.Rot>
1.3669

> <Gold.Chemscore.Internal.Correction>
   9.000000E+99

> <Gold.Chemscore.Hbonds>
donor molecule, donor type, donor heavy atom, donor atom, acceptor molecule, acceptor atom, score
      L1  H     7    24       P1  8028  1.00
      L1  H    10    25       P1  8028  0.85

> <Gold.Chemscore.Hbond.Weighted>
-6.4655

> <Gold.Chemscore.Metal.Weighted>
-0.0000

> <Gold.Chemscore.Lipo.Weighted>
-13.4510

> <Gold.Chemscore.Internal_Hbond.Weighted>
0.0000

> <Gold.Chemscore.DEClash.Weighted>
0.2923

> <Gold.Chemscore.DEInternal.Weighted>
3.7642

> <Gold.Chemscore.Rot.Weighted>
3.4992

> <Gold.Chemscore.Internal.Correction.Weighted>
   9.000000E+99

> <Gold.Protein.RotatedTorsions>
[ 6907 6896 6895 6894 ] final  -75.11 input  -60.11 | X-H torsion
[ 7974 7965 7964 7962 ] final  121.39 input  175.53 | X-H torsion
[ 8008 7997 7996 7995 ] final  -48.21 input   59.86 | X-H torsion
[ 10167 10162 10161 10158 ] final   79.69 input  -65.29 | X-H torsion
[ 10718 10713 10712 10709 ] final  -22.91 input   66.30 | X-H torsion
[ 10763 10752 10751 10750 ] final  175.43 input  -60.55 | X-H torsion
[ 11005 11000 10999 10996 ] final -157.60 input  -57.11 | X-H torsion

> <Gold.Protein.ActiveResidues>
 VAL166  LYS551  ARG553  GLY616  TRP617  ASP618  TYR619  PRO620  LYS621  CYS622 
 ASP623  PHE694  ASN695  SER759  ASP760  ASP761  ALA762  ILE779  LEU786  VAL792 
 PHE793  MET794  SER795  GLU796  ALA797  LYS798  CYS799  TRP800  GLU811  SER814 

> <Gold.Protein.RotatedAtoms>
  150.7070  134.4770  159.5452 H   0  0  0  0  0  0  0  0  0  0  0  0  # atno 6907 bound_to 6896
  152.2415  134.8221  160.0468 H   0  0  0  0  0  0  0  0  0  0  0  0  # atno 6908 bound_to 6896
  151.9001  133.3501  159.3864 H   0  0  0  0  0  0  0  0  0  0  0  0  # atno 6909 bound_to 6896
  145.1198  139.3396  143.4720 H   0  0  0  0  0  0  0  0  0  0  0  0  # atno 7974 bound_to 7965
  154.4026  140.1327  156.4302 H   0  0  0  0  0  0  0  0  0  0  0  0  # atno 8008 bound_to 7997
  155.7559  140.3487  155.5153 H   0  0  0  0  0  0  0  0  0  0  0  0  # atno 8009 bound_to 7997
  155.8906  140.1002  157.1412 H   0  0  0  0  0  0  0  0  0  0  0  0  # atno 8010 bound_to 7997
  139.9577  144.5983  150.8102 H   0  0  0  0  0  0  0  0  0  0  0  0  # atno 10167 bound_to 10162
  156.4982  130.4582  149.6716 H   0  0  0  0  0  0  0  0  0  0  0  0  # atno 10718 bound_to 10713
  154.4675  135.2770  155.1667 H   0  0  0  0  0  0  0  0  0  0  0  0  # atno 10763 bound_to 10752
  154.3430  135.6166  153.5609 H   0  0  0  0  0  0  0  0  0  0  0  0  # atno 10764 bound_to 10752
  152.9861  135.5793  154.5050 H   0  0  0  0  0  0  0  0  0  0  0  0  # atno 10765 bound_to 10752
  140.6629  134.4330  157.5234 H   0  0  0  0  0  0  0  0  0  0  0  0  # atno 11005 bound_to 11000
  146.3521  140.1153  142.8602 LP  0  0  0  0  0  0  0  0  0  0  0  0  # atno 17320 bound_to 7965
  145.0753  140.9183  143.4858 LP  0  0  0  0  0  0  0  0  0  0  0  0  # atno 17321 bound_to 7965
  140.7563  143.3063  151.2953 LP  0  0  0  0  0  0  0  0  0  0  0  0  # atno 17342 bound_to 10162
  139.6579  144.0243  152.2672 LP  0  0  0  0  0  0  0  0  0  0  0  0  # atno 17343 bound_to 10162
  156.3359  130.7356  151.2293 LP  0  0  0  0  0  0  0  0  0  0  0  0  # atno 17370 bound_to 10713
  157.7466  131.0417  150.4659 LP  0  0  0  0  0  0  0  0  0  0  0  0  # atno 17371 bound_to 10713
  139.9007  134.8563  156.1909 LP  0  0  0  0  0  0  0  0  0  0  0  0  # atno 17394 bound_to 11000
  141.0452  133.6917  156.1669 LP  0  0  0  0  0  0  0  0  0  0  0  0  # atno 17395 bound_to 11000

$$$$
