AV-unprocessed.smi:1936|AV-procd|sdf|7829|dock8
  -GOLD-   22720 9573D 1   1.00000     0.00000
 Structure written by MMmdl.
 38 39  0  0  0  0  0  0  0  0  1 V2000
  151.9259  138.8970  158.8480 C   0  0  0  0  0  0  0  0  0  0  0  0
  152.4507  140.1898  158.2099 C   0  0  2  0  0  0  0  0  0  0  0  0
  153.0622  141.1411  159.2609 C   0  0  0  0  0  0  0  0  0  0  0  0
  152.2452  142.3085  159.6009 N   0  0  0  0  0  0  0  0  0  0  0  0
  152.4306  143.4229  158.6747 C   0  0  0  0  0  0  0  0  0  0  0  0
  151.5588  144.6318  159.0555 C   0  0  0  0  0  0  0  0  0  0  0  0
  151.8407  145.0247  160.3951 O   0  0  0  0  0  0  0  0  0  0  0  0
  151.6311  143.9739  161.3329 C   0  0  0  0  0  0  0  0  0  0  0  0
  152.5092  142.7675  160.9590 C   0  0  0  0  0  0  0  0  0  0  0  0
  151.3647  140.8714  157.5099 N   0  0  0  0  0  0  0  0  0  0  0  0
  151.1864  140.9027  156.1801 C   0  0  0  0  0  0  0  0  0  0  0  0
  151.8329  140.2206  155.3857 O   0  0  0  0  0  0  0  0  0  0  0  0
  150.1426  141.8934  155.6662 C   0  0  0  0  0  0  0  0  0  0  0  0
  149.2152  141.2315  154.7640 N   0  0  0  0  0  0  0  0  0  0  0  0
  148.0980  141.7547  154.1447 C   0  0  0  0  0  0  0  0  0  0  0  0
  147.5547  140.7639  153.3787 C   0  0  0  0  0  0  0  0  0  0  0  0
  148.4214  139.6563  153.5955 C   0  0  0  0  0  0  0  0  0  0  0  0
  149.4132  139.9387  154.4247 N   0  0  0  0  0  0  0  0  0  0  0  0
  152.7231  138.3675  159.3704 H   0  0  0  0  0  0  0  0  0  0  0  0
  151.5227  138.2222  158.0923 H   0  0  0  0  0  0  0  0  0  0  0  0
  151.1336  139.1015  159.5692 H   0  0  0  0  0  0  0  0  0  0  0  0
  153.2350  139.9069  157.5064 H   0  0  0  0  0  0  0  0  0  0  0  0
  153.2332  140.5633  160.1704 H   0  0  0  0  0  0  0  0  0  0  0  0
  154.0486  141.4663  158.9268 H   0  0  0  0  0  0  0  0  0  0  0  0
  153.4797  143.7221  158.6601 H   0  0  0  0  0  0  0  0  0  0  0  0
  152.1768  143.1195  157.6594 H   0  0  0  0  0  0  0  0  0  0  0  0
  151.7601  145.4696  158.3878 H   0  0  0  0  0  0  0  0  0  0  0  0
  150.4998  144.3898  158.9545 H   0  0  0  0  0  0  0  0  0  0  0  0
  151.8816  144.3314  162.3317 H   0  0  0  0  0  0  0  0  0  0  0  0
  150.5765  143.6945  161.3469 H   0  0  0  0  0  0  0  0  0  0  0  0
  152.3267  141.9577  161.6664 H   0  0  0  0  0  0  0  0  0  0  0  0
  153.5610  143.0398  161.0603 H   0  0  0  0  0  0  0  0  0  0  0  0
  150.7719  141.4631  158.0735 H   0  0  0  0  0  0  0  0  0  0  0  0
  149.5932  142.3289  156.5025 H   0  0  0  0  0  0  0  0  0  0  0  0
  150.6280  142.7139  155.1358 H   0  0  0  0  0  0  0  0  0  0  0  0
  147.7901  142.7794  154.2940 H   0  0  0  0  0  0  0  0  0  0  0  0
  146.6755  140.8226  152.7547 H   0  0  0  0  0  0  0  0  0  0  0  0
  148.3608  138.6627  153.1762 H   0  0  0  0  0  0  0  0  0  0  0  0
  1  2  1  0  0  0  0
  1 19  1  0  0  0  0
  1 20  1  0  0  0  0
  1 21  1  0  0  0  0
  2  3  1  0  0  0  0
  2 10  1  0  0  0  0
  2 22  1  0  0  0  0
  3  4  1  0  0  0  0
  3 23  1  0  0  0  0
  3 24  1  0  0  0  0
  4  9  1  0  0  0  0
  4  5  1  0  0  0  0
  5  6  1  0  0  0  0
  5 25  1  0  0  0  0
  5 26  1  0  0  0  0
  6  7  1  0  0  0  0
  6 27  1  0  0  0  0
  6 28  1  0  0  0  0
  7  8  1  0  0  0  0
  8  9  1  0  0  0  0
  8 29  1  0  0  0  0
  8 30  1  0  0  0  0
  9 31  1  0  0  0  0
  9 32  1  0  0  0  0
 10 11  1  0  0  0  0
 10 33  1  0  0  0  0
 11 12  2  0  0  0  0
 11 13  1  0  0  0  0
 13 14  1  0  0  0  0
 13 34  1  0  0  0  0
 13 35  1  0  0  0  0
 14 18  1  0  0  0  0
 14 15  1  0  0  0  0
 15 16  2  0  0  0  0
 15 36  1  0  0  0  0
 16 17  1  0  0  0  0
 16 37  1  0  0  0  0
 17 18  2  0  0  0  0
 17 38  1  0  0  0  0
M  END
> <s_m_source_file>
AV-unprocessed.smi

> <i_m_source_file_index>
1936

> <i_lp_mmshare_version>
43012

> <i_f3d_flags>
0

> <s_epik_input>
W0NIMl0xW0NIMl1PW0NIMl1bQ0gyXU4xW0NIMl1bQ0BASF0oW0NIM10pW05IXUMoPU8pW0NIMl1uMltjSF1bY0hdW2NIXW4y

> <s_epik_cmdline>
J2VwaWtfcHl0aG9uJywgJy1waCcsICc3LjAnLCAnLXRuJywgJzgnLCAnLW1hJywgJzIwMCcsICctbWV0YWxfYmluZGluZycsICctaW1hZScsICc8aW5maWxlLm1hZT4nLCAnLW9tYWUnLCAnPG91dGZpbGUubWFlPic=

> <r_lp_tautomer_probability>
1

> <r_epik_Ionization_Penalty>
0.196927

> <r_epik_Ionization_Penalty_Charging>
0

> <r_epik_Ionization_Penalty_Neutral>
0.196927

> <r_epik_State_Penalty>
0.186684

> <r_epik_Charging_Adjusted_Penalty>
0.186684

> <i_epik_Tot_Q>
0

> <i_epik_Tot_abs_Q>
0

> <r_epik_Metal_State_Penalty>
0.186682

> <b_epik_Metal_Only>
0

> <s_lp_Force_Field>
OPLS_2005

> <r_lp_Energy>
24.3888

> <b_lp_Chiralities_Consistent>
1

> <s_lp_Variant>
AV-unprocessed.smi:1936-1

> <Gold.Version>
5.8.1

> <Gold.Id.Protein>
6NUR|6NUR_protein|mol2

> <Gold.PLP.Fitness>
42.3211

> <Gold.PLP.PLP>
-38.9193

> <Gold.PLP.part.hbond>
-1.0000

> <Gold.PLP.part.metal>
0.0000

> <Gold.PLP.part.buried>
-2.8904

> <Gold.PLP.part.nonpolar>
-35.2938

> <Gold.PLP.part.repulsive>
0.3223

> <Gold.PLP.ligand.clash>
0.0000

> <Gold.PLP.ligand.torsion>
1.1967

> <Gold.PLP.Chemscore.Hbond>
0.8800

> <Gold.PLP.Chemscore.CHOScore>
1.0394

> <Gold.PLP.Chemscore.Metal>
0.0000

> <Gold.Chemscore.Hbonds>
donor molecule, donor type, donor heavy atom, donor atom, acceptor molecule, acceptor atom, score
      P1  H  7989  7998       L1    12  0.83
      L1  C    15    36       P1  8028  0.89
      L1  C    17    38       P1  7948  0.32

> <Gold.PLP.Chemscore.Internal.Correction>
0.0368

> <Gold.Rescore>
     Score         DG    S(hbond)    S(metal)    S(lipo)     H(rot)  DE(clash)    DE(int)     intcor
     11.88     -15.07       0.92        0.00      96.28       1.85       0.16       3.03       ----

> <Gold.Chemscore.Fitness>
11.8767

> <Gold.Chemscore.DG>
-15.0660

> <Gold.Chemscore.ZeroCoef>
-5.4800

> <Gold.Chemscore.Hbond>
0.9190

> <Gold.Chemscore.Metal>
0.0000

> <Gold.Chemscore.Lipo>
96.2815

> <Gold.Chemscore.Internal_Hbond>
0.0000

> <Gold.Chemscore.DEClash>
0.1581

> <Gold.Chemscore.DEInternal>
3.0312

> <Gold.Chemscore.Rot>
1.8549

> <Gold.Chemscore.Internal.Correction>
   9.000000E+99

> <Gold.Chemscore.Hbonds>
donor molecule, donor type, donor heavy atom, donor atom, acceptor molecule, acceptor atom, score
      P1  H  7989  7998       L1    12  0.65

> <Gold.Chemscore.Hbond.Weighted>
-3.0696

> <Gold.Chemscore.Metal.Weighted>
-0.0000

> <Gold.Chemscore.Lipo.Weighted>
-11.2649

> <Gold.Chemscore.Internal_Hbond.Weighted>
0.0000

> <Gold.Chemscore.DEClash.Weighted>
0.1581

> <Gold.Chemscore.DEInternal.Weighted>
3.0312

> <Gold.Chemscore.Rot.Weighted>
4.7485

> <Gold.Chemscore.Internal.Correction.Weighted>
   9.000000E+99

> <Gold.Protein.RotatedTorsions>
[ 6907 6896 6895 6894 ] final  177.43 input  -60.11 | X-H torsion
[ 7974 7965 7964 7962 ] final  -16.86 input  175.53 | X-H torsion
[ 8008 7997 7996 7995 ] final  -87.55 input   59.86 | X-H torsion
[ 10167 10162 10161 10158 ] final   47.65 input  -65.29 | X-H torsion
[ 10718 10713 10712 10709 ] final  105.63 input   66.30 | X-H torsion
[ 10763 10752 10751 10750 ] final  141.71 input  -60.55 | X-H torsion
[ 11005 11000 10999 10996 ] final  170.78 input  -57.11 | X-H torsion

> <Gold.Protein.ActiveResidues>
 VAL166  LYS551  ARG553  GLY616  TRP617  ASP618  TYR619  PRO620  LYS621  CYS622 
 ASP623  PHE694  ASN695  SER759  ASP760  ASP761  ALA762  ILE779  LEU786  VAL792 
 PHE793  MET794  SER795  GLU796  ALA797  LYS798  CYS799  TRP800  GLU811  SER814 

> <Gold.Protein.RotatedAtoms>
  151.7041  133.3311  159.3273 H   0  0  0  0  0  0  0  0  0  0  0  0  # atno 6907 bound_to 6896
  150.7723  134.6589  159.6338 H   0  0  0  0  0  0  0  0  0  0  0  0  # atno 6908 bound_to 6896
  152.3751  134.6678  160.0214 H   0  0  0  0  0  0  0  0  0  0  0  0  # atno 6909 bound_to 6896
  146.1968  140.3697  142.8438 H   0  0  0  0  0  0  0  0  0  0  0  0  # atno 7974 bound_to 7965
  154.6645  140.0564  157.0098 H   0  0  0  0  0  0  0  0  0  0  0  0  # atno 8008 bound_to 7997
  155.1179  140.3244  155.4486 H   0  0  0  0  0  0  0  0  0  0  0  0  # atno 8009 bound_to 7997
  156.2632  140.2002  156.6302 H   0  0  0  0  0  0  0  0  0  0  0  0  # atno 8010 bound_to 7997
  140.3014  144.2929  150.6218 H   0  0  0  0  0  0  0  0  0  0  0  0  # atno 10167 bound_to 10162
  157.6698  131.0832  150.5885 H   0  0  0  0  0  0  0  0  0  0  0  0  # atno 10718 bound_to 10713
  153.9438  135.2977  155.3441 H   0  0  0  0  0  0  0  0  0  0  0  0  # atno 10763 bound_to 10752
  154.7463  135.5001  153.9213 H   0  0  0  0  0  0  0  0  0  0  0  0  # atno 10764 bound_to 10752
  153.1029  135.6739  153.9747 H   0  0  0  0  0  0  0  0  0  0  0  0  # atno 10765 bound_to 10752
  140.3120  134.7509  157.3998 H   0  0  0  0  0  0  0  0  0  0  0  0  # atno 11005 bound_to 11000
  144.8597  140.7122  143.6115 LP  0  0  0  0  0  0  0  0  0  0  0  0  # atno 17320 bound_to 7965
  145.3617  139.1680  143.4380 LP  0  0  0  0  0  0  0  0  0  0  0  0  # atno 17321 bound_to 7965
  140.5648  143.2187  151.7703 LP  0  0  0  0  0  0  0  0  0  0  0  0  # atno 17342 bound_to 10162
  139.4914  144.4299  151.9883 LP  0  0  0  0  0  0  0  0  0  0  0  0  # atno 17343 bound_to 10162
  156.6185  130.4399  149.5831 LP  0  0  0  0  0  0  0  0  0  0  0  0  # atno 17370 bound_to 10713
  156.2374  130.6831  151.1523 LP  0  0  0  0  0  0  0  0  0  0  0  0  # atno 17371 bound_to 10713
  140.1017  134.5464  155.8347 LP  0  0  0  0  0  0  0  0  0  0  0  0  # atno 17394 bound_to 11000
  141.2106  133.6697  156.6521 LP  0  0  0  0  0  0  0  0  0  0  0  0  # atno 17395 bound_to 11000

$$$$
