AV-unprocessed.smi:2148|AV-procd|sdf|8748|dock2
  -GOLD-   2272011523D 1   1.00000     0.00000
 Structure written by MMmdl.
 44 45  0  0  0  0  0  0  0  0  1 V2000
  155.5473  138.5718  165.7855 C   0  0  0  0  0  0  0  0  0  0  0  0
  157.0559  139.5756  165.8641 S   0  0  0  0  0  0  0  0  0  0  0  0
  156.4268  141.0887  166.6522 C   0  0  2  0  0  0  0  0  0  0  0  0
  155.7219  140.7445  167.9739 C   0  0  0  0  0  0  0  0  0  0  0  0
  155.5054  141.8815  165.7157 C   0  0  0  0  0  0  0  0  0  0  0  0
  154.9907  142.9295  166.1059 O   0  0  0  0  0  0  0  0  0  0  0  0
  155.2984  141.3375  164.5017 N   0  0  0  0  0  0  0  0  0  0  0  0
  154.4774  141.8176  163.4470 C   0  0  0  0  0  0  0  0  0  0  0  0
  154.5262  141.1452  162.2107 C   0  0  0  0  0  0  0  0  0  0  0  0
  153.7269  141.6028  161.1466 C   0  0  0  0  0  0  0  0  0  0  0  0
  152.9002  142.7335  161.3423 C   0  0  0  0  0  0  0  0  0  0  0  0
  152.0782  143.1959  160.2929 N   0  0  0  0  0  0  0  0  0  0  0  0
  152.0929  144.6413  160.0853 C   0  0  0  0  0  0  0  0  0  0  0  0
  150.9504  145.0784  159.1477 C   0  0  2  0  0  0  0  0  0  0  0  0
  149.5682  145.0742  159.8252 C   0  0  0  0  0  0  0  0  0  0  0  0
  150.9683  144.2999  157.9493 O   0  0  0  0  0  0  0  0  0  0  0  0
  150.8994  142.8891  158.1522 C   0  0  1  0  0  0  0  0  0  0  0  0
  150.9341  142.2119  156.7786 C   0  0  0  0  0  0  0  0  0  0  0  0
  152.0695  142.4382  159.0447 C   0  0  0  0  0  0  0  0  0  0  0  0
  152.8751  143.3982  162.5236 N   0  0  0  0  0  0  0  0  0  0  0  0
  153.6406  142.9544  163.5430 C   0  0  0  0  0  0  0  0  0  0  0  0
  155.7513  137.6323  165.2724 H   0  0  0  0  0  0  0  0  0  0  0  0
  154.7651  139.1000  165.2402 H   0  0  0  0  0  0  0  0  0  0  0  0
  155.1820  138.3415  166.7862 H   0  0  0  0  0  0  0  0  0  0  0  0
  157.2912  141.7080  166.8967 H   0  0  0  0  0  0  0  0  0  0  0  0
  155.3183  141.6368  168.4538 H   0  0  0  0  0  0  0  0  0  0  0  0
  156.4185  140.2837  168.6748 H   0  0  0  0  0  0  0  0  0  0  0  0
  154.8990  140.0449  167.8214 H   0  0  0  0  0  0  0  0  0  0  0  0
  155.7175  140.4320  164.3475 H   0  0  0  0  0  0  0  0  0  0  0  0
  155.1638  140.2835  162.0766 H   0  0  0  0  0  0  0  0  0  0  0  0
  153.7625  141.0926  160.1952 H   0  0  0  0  0  0  0  0  0  0  0  0
  152.0214  145.1894  161.0240 H   0  0  0  0  0  0  0  0  0  0  0  0
  153.0520  144.9096  159.6402 H   0  0  0  0  0  0  0  0  0  0  0  0
  151.1475  146.1067  158.8433 H   0  0  0  0  0  0  0  0  0  0  0  0
  149.5453  145.7804  160.6554 H   0  0  0  0  0  0  0  0  0  0  0  0
  149.3068  144.0959  160.2273 H   0  0  0  0  0  0  0  0  0  0  0  0
  148.7887  145.3671  159.1216 H   0  0  0  0  0  0  0  0  0  0  0  0
  149.9543  142.6324  158.6309 H   0  0  0  0  0  0  0  0  0  0  0  0
  150.8730  141.1274  156.8736 H   0  0  0  0  0  0  0  0  0  0  0  0
  151.8538  142.4508  156.2438 H   0  0  0  0  0  0  0  0  0  0  0  0
  150.0964  142.5396  156.1625 H   0  0  0  0  0  0  0  0  0  0  0  0
  153.0185  142.5883  158.5275 H   0  0  0  0  0  0  0  0  0  0  0  0
  151.9758  141.3714  159.2528 H   0  0  0  0  0  0  0  0  0  0  0  0
  153.5822  143.5465  164.4430 H   0  0  0  0  0  0  0  0  0  0  0  0
  1  2  1  0  0  0  0
  1 22  1  0  0  0  0
  1 23  1  0  0  0  0
  1 24  1  0  0  0  0
  2  3  1  0  0  0  0
  3  4  1  0  0  0  0
  3  5  1  0  0  0  0
  3 25  1  0  0  0  0
  4 26  1  0  0  0  0
  4 27  1  0  0  0  0
  4 28  1  0  0  0  0
  5  6  2  0  0  0  0
  5  7  1  0  0  0  0
  7  8  1  0  0  0  0
  7 29  1  0  0  0  0
  8 21  1  0  0  0  0
  8  9  2  0  0  0  0
  9 10  1  0  0  0  0
  9 30  1  0  0  0  0
 10 11  2  0  0  0  0
 10 31  1  0  0  0  0
 11 12  1  0  0  0  0
 11 20  1  0  0  0  0
 12 19  1  0  0  0  0
 12 13  1  0  0  0  0
 13 14  1  0  0  0  0
 13 32  1  0  0  0  0
 13 33  1  0  0  0  0
 14 15  1  0  0  0  0
 14 16  1  0  0  0  0
 14 34  1  0  0  0  0
 15 35  1  0  0  0  0
 15 36  1  0  0  0  0
 15 37  1  0  0  0  0
 16 17  1  0  0  0  0
 17 18  1  0  0  0  0
 17 19  1  0  0  0  0
 17 38  1  0  0  0  0
 18 39  1  0  0  0  0
 18 40  1  0  0  0  0
 18 41  1  0  0  0  0
 19 42  1  0  0  0  0
 19 43  1  0  0  0  0
 20 21  2  0  0  0  0
 21 44  1  0  0  0  0
M  END
> <s_m_source_file>
AV-unprocessed.smi

> <i_m_source_file_index>
2148

> <i_lp_mmshare_version>
43012

> <i_f3d_flags>
0

> <s_epik_input>
W0NIM11TW0NASF0oW0NIM10pQyg9TylbTkhdYzFbY0hdW2NIXWMobltjSF0xKU4yW0NIMl1bQ0BASF0oW0NIM10pT1tDQEBIXShbQ0gzXSlbQ0gyXTI=

> <s_epik_cmdline>
J2VwaWtfcHl0aG9uJywgJy1waCcsICc3LjAnLCAnLXRuJywgJzgnLCAnLW1hJywgJzIwMCcsICctbWV0YWxfYmluZGluZycsICctaW1hZScsICc8aW5maWxlLm1hZT4nLCAnLW9tYWUnLCAnPG91dGZpbGUubWFlPic=

> <r_lp_tautomer_probability>
1

> <r_epik_Ionization_Penalty>
0.000646494

> <r_epik_Ionization_Penalty_Charging>
0

> <r_epik_Ionization_Penalty_Neutral>
0.000646494

> <r_epik_State_Penalty>
0.000408447

> <r_epik_Charging_Adjusted_Penalty>
0.000408447

> <i_epik_Tot_Q>
0

> <i_epik_Tot_abs_Q>
0

> <r_epik_Metal_State_Penalty>
-0

> <b_epik_Metal_Only>
0

> <s_lp_Force_Field>
OPLS_2005

> <r_lp_Energy>
25.6211

> <b_lp_Chiralities_Consistent>
1

> <s_lp_Variant>
AV-unprocessed.smi:2148-3

> <Gold.Version>
5.8.1

> <Gold.Id.Protein>
6NUR|6NUR_protein|mol2

> <Gold.PLP.Fitness>
43.0210

> <Gold.PLP.PLP>
-43.1694

> <Gold.PLP.part.hbond>
-0.3443

> <Gold.PLP.part.metal>
0.0000

> <Gold.PLP.part.buried>
-3.8650

> <Gold.PLP.part.nonpolar>
-39.2272

> <Gold.PLP.part.repulsive>
0.6099

> <Gold.PLP.ligand.clash>
0.0000

> <Gold.PLP.ligand.torsion>
0.2484

> <Gold.PLP.Chemscore.Hbond>
0.0000

> <Gold.PLP.Chemscore.CHOScore>
0.0000

> <Gold.PLP.Chemscore.Metal>
0.0000

> <Gold.PLP.Chemscore.Internal.Correction>
0.3484

> <Gold.Rescore>
     Score         DG    S(hbond)    S(metal)    S(lipo)     H(rot)  DE(clash)    DE(int)     intcor
     14.08     -16.13       0.00        0.00     118.68       1.27       0.50       1.54       ----

> <Gold.Chemscore.Fitness>
14.0818

> <Gold.Chemscore.DG>
-16.1252

> <Gold.Chemscore.ZeroCoef>
-5.4800

> <Gold.Chemscore.Hbond>
0.0000

> <Gold.Chemscore.Metal>
0.0000

> <Gold.Chemscore.Lipo>
118.6816

> <Gold.Chemscore.Internal_Hbond>
0.0000

> <Gold.Chemscore.DEClash>
0.5006

> <Gold.Chemscore.DEInternal>
1.5427

> <Gold.Chemscore.Rot>
1.2659

> <Gold.Chemscore.Internal.Correction>
   9.000000E+99

> <Gold.Chemscore.Hbond.Weighted>
-0.0000

> <Gold.Chemscore.Metal.Weighted>
-0.0000

> <Gold.Chemscore.Lipo.Weighted>
-13.8857

> <Gold.Chemscore.Internal_Hbond.Weighted>
0.0000

> <Gold.Chemscore.DEClash.Weighted>
0.5006

> <Gold.Chemscore.DEInternal.Weighted>
1.5427

> <Gold.Chemscore.Rot.Weighted>
3.2406

> <Gold.Chemscore.Internal.Correction.Weighted>
   9.000000E+99

> <Gold.Protein.RotatedTorsions>
[ 6907 6896 6895 6894 ] final -174.57 input  -60.11 | X-H torsion
[ 7974 7965 7964 7962 ] final  115.25 input  175.53 | X-H torsion
[ 8008 7997 7996 7995 ] final  -63.58 input   59.86 | X-H torsion
[ 10167 10162 10161 10158 ] final  116.54 input  -65.29 | X-H torsion
[ 10718 10713 10712 10709 ] final  -44.67 input   66.30 | X-H torsion
[ 10763 10752 10751 10750 ] final   35.23 input  -60.55 | X-H torsion
[ 11005 11000 10999 10996 ] final  154.11 input  -57.11 | X-H torsion

> <Gold.Protein.ActiveResidues>
 VAL166  LYS551  ARG553  GLY616  TRP617  ASP618  TYR619  PRO620  LYS621  CYS622 
 ASP623  PHE694  ASN695  SER759  ASP760  ASP761  ALA762  ILE779  LEU786  VAL792 
 PHE793  MET794  SER795  GLU796  ALA797  LYS798  CYS799  TRP800  GLU811  SER814 

> <Gold.Protein.RotatedAtoms>
  151.5744  133.3385  159.2995 H   0  0  0  0  0  0  0  0  0  0  0  0  # atno 6907 bound_to 6896
  150.8349  134.7620  159.6895 H   0  0  0  0  0  0  0  0  0  0  0  0  # atno 6908 bound_to 6896
  152.4427  134.5565  159.9933 H   0  0  0  0  0  0  0  0  0  0  0  0  # atno 6909 bound_to 6896
  145.1943  139.2984  143.4351 H   0  0  0  0  0  0  0  0  0  0  0  0  # atno 7974 bound_to 7965
  154.4563  140.0972  156.6765 H   0  0  0  0  0  0  0  0  0  0  0  0  # atno 8008 bound_to 7997
  155.5130  140.3477  155.4373 H   0  0  0  0  0  0  0  0  0  0  0  0  # atno 8009 bound_to 7997
  156.0783  140.1366  156.9733 H   0  0  0  0  0  0  0  0  0  0  0  0  # atno 8010 bound_to 7997
  139.6240  144.7105  151.2573 H   0  0  0  0  0  0  0  0  0  0  0  0  # atno 10167 bound_to 10162
  156.2362  130.4176  149.8815 H   0  0  0  0  0  0  0  0  0  0  0  0  # atno 10718 bound_to 10713
  153.0128  135.6339  154.1794 H   0  0  0  0  0  0  0  0  0  0  0  0  # atno 10763 bound_to 10752
  154.1535  135.2827  155.3130 H   0  0  0  0  0  0  0  0  0  0  0  0  # atno 10764 bound_to 10752
  154.6036  135.5579  153.7460 H   0  0  0  0  0  0  0  0  0  0  0  0  # atno 10765 bound_to 10752
  140.1459  134.8707  157.2392 H   0  0  0  0  0  0  0  0  0  0  0  0  # atno 11005 bound_to 11000
  146.3430  140.2166  142.8591 LP  0  0  0  0  0  0  0  0  0  0  0  0  # atno 17320 bound_to 7965
  145.0010  140.8632  143.5282 LP  0  0  0  0  0  0  0  0  0  0  0  0  # atno 17321 bound_to 7965
  140.7399  143.6602  150.8171 LP  0  0  0  0  0  0  0  0  0  0  0  0  # atno 17342 bound_to 10162
  140.0217  143.5535  152.2797 LP  0  0  0  0  0  0  0  0  0  0  0  0  # atno 17343 bound_to 10162
  156.6412  130.8705  151.3514 LP  0  0  0  0  0  0  0  0  0  0  0  0  # atno 17370 bound_to 10713
  157.7155  130.9492  150.1241 LP  0  0  0  0  0  0  0  0  0  0  0  0  # atno 17371 bound_to 10713
  140.2664  134.3511  155.7388 LP  0  0  0  0  0  0  0  0  0  0  0  0  # atno 17394 bound_to 11000
  141.2192  133.7398  156.9157 LP  0  0  0  0  0  0  0  0  0  0  0  0  # atno 17395 bound_to 11000

$$$$
