AV-unprocessed.smi:1166|AV-procd|sdf|4934|dock7
  -GOLD-   22720 3523D 1   1.00000     0.00000
 Structure written by MMmdl.
 47 48  0  0  0  0  0  0  0  0  2 V2000
  150.8038  144.2328  159.1124 C   0  0  0  0  0  0  0  0  0  0  0  0
  151.5255  142.9671  159.1830 N   0  0  0  0  0  0  0  0  0  0  0  0
  151.4565  142.0184  158.0795 C   0  0  0  0  0  0  0  0  0  0  0  0
  152.3217  142.6747  160.3116 C   0  0  0  0  0  0  0  0  0  0  0  0
  152.2253  143.3843  161.5338 C   0  0  0  0  0  0  0  0  0  0  0  0
  153.0568  143.0323  162.6168 C   0  0  0  0  0  0  0  0  0  0  0  0
  153.9862  141.9808  162.4770 C   0  0  0  0  0  0  0  0  0  0  0  0
  154.7916  141.6553  163.6022 N   0  0  0  0  0  0  0  0  0  0  0  0
  154.8185  142.2397  164.8125 C   0  0  0  0  0  0  0  0  0  0  0  0
  154.1039  143.1770  165.1665 O   0  0  0  0  0  0  0  0  0  0  0  0
  155.7238  141.6571  165.6114 N   0  0  0  0  0  0  0  0  0  0  0  0
  155.9899  142.0310  166.9969 C   0  0  2  0  0  0  0  0  0  0  0  0
  154.9424  141.4167  167.9401 C   0  0  0  0  0  0  0  0  0  0  0  0
  155.2115  141.8706  169.3790 C   0  0  0  0  0  0  0  0  0  0  0  0
  155.2419  143.4054  169.4846 C   0  0  0  0  0  0  0  0  0  0  0  0
  156.1899  144.0000  168.5201 N   0  0  0  0  0  0  0  0  0  0  0  0
  157.7560  144.5379  169.0556 S   0  0  0  0  0  0  0  0  0  0  0  0
  158.3704  143.1621  170.1110 C   0  0  0  0  0  0  0  0  0  0  0  0
  158.6269  144.6322  167.8740 O   0  0  0  0  0  0  0  0  0  0  0  0
  157.5571  145.7180  169.9106 O   0  0  0  0  0  0  0  0  0  0  0  0
  155.9985  143.5673  167.1215 C   0  0  0  0  0  0  0  0  0  0  0  0
  154.0376  141.2951  161.2400 C   0  0  0  0  0  0  0  0  0  0  0  0
  153.2219  141.6647  160.2291 N   0  3  0  0  0  0  0  0  0  0  0  0
  150.1353  144.3428  159.9670 H   0  0  0  0  0  0  0  0  0  0  0  0
  150.1988  144.2946  158.2076 H   0  0  0  0  0  0  0  0  0  0  0  0
  151.5018  145.0709  159.1066 H   0  0  0  0  0  0  0  0  0  0  0  0
  152.4513  141.8238  157.6775 H   0  0  0  0  0  0  0  0  0  0  0  0
  150.8391  142.3998  157.2659 H   0  0  0  0  0  0  0  0  0  0  0  0
  151.0238  141.0745  158.4125 H   0  0  0  0  0  0  0  0  0  0  0  0
  151.5251  144.1963  161.6607 H   0  0  0  0  0  0  0  0  0  0  0  0
  152.9807  143.5741  163.5484 H   0  0  0  0  0  0  0  0  0  0  0  0
  155.3904  140.8507  163.4872 H   0  0  0  0  0  0  0  0  0  0  0  0
  156.2659  140.8913  165.2383 H   0  0  0  0  0  0  0  0  0  0  0  0
  156.9747  141.6548  167.2745 H   0  0  0  0  0  0  0  0  0  0  0  0
  153.9396  141.7230  167.6389 H   0  0  0  0  0  0  0  0  0  0  0  0
  154.9682  140.3278  167.8858 H   0  0  0  0  0  0  0  0  0  0  0  0
  154.4432  141.4717  170.0416 H   0  0  0  0  0  0  0  0  0  0  0  0
  156.1559  141.4516  169.7240 H   0  0  0  0  0  0  0  0  0  0  0  0
  154.2481  143.8040  169.2781 H   0  0  0  0  0  0  0  0  0  0  0  0
  155.4895  143.7119  170.5004 H   0  0  0  0  0  0  0  0  0  0  0  0
  159.3472  143.4317  170.5120 H   0  0  0  0  0  0  0  0  0  0  0  0
  158.4727  142.2551  169.5178 H   0  0  0  0  0  0  0  0  0  0  0  0
  157.6840  142.9929  170.9387 H   0  0  0  0  0  0  0  0  0  0  0  0
  156.7728  143.9971  166.4861 H   0  0  0  0  0  0  0  0  0  0  0  0
  155.0504  143.9732  166.7663 H   0  0  0  0  0  0  0  0  0  0  0  0
  154.6846  140.4610  161.0147 H   0  0  0  0  0  0  0  0  0  0  0  0
  153.2863  141.1493  159.3512 H   0  0  0  0  0  0  0  0  0  0  0  0
  1  2  1  0  0  0  0
  1 24  1  0  0  0  0
  1 25  1  0  0  0  0
  1 26  1  0  0  0  0
  2  3  1  0  0  0  0
  2  4  1  0  0  0  0
  3 27  1  0  0  0  0
  3 28  1  0  0  0  0
  3 29  1  0  0  0  0
  4 23  1  0  0  0  0
  4  5  2  0  0  0  0
  5  6  1  0  0  0  0
  5 30  1  0  0  0  0
  6  7  2  0  0  0  0
  6 31  1  0  0  0  0
  7  8  1  0  0  0  0
  7 22  1  0  0  0  0
  8  9  1  0  0  0  0
  8 32  1  0  0  0  0
  9 10  2  0  0  0  0
  9 11  1  0  0  0  0
 11 12  1  0  0  0  0
 11 33  1  0  0  0  0
 12 21  1  0  0  0  0
 12 13  1  0  0  0  0
 12 34  1  0  0  0  0
 13 14  1  0  0  0  0
 13 35  1  0  0  0  0
 13 36  1  0  0  0  0
 14 15  1  0  0  0  0
 14 37  1  0  0  0  0
 14 38  1  0  0  0  0
 15 16  1  0  0  0  0
 15 39  1  0  0  0  0
 15 40  1  0  0  0  0
 16 17  1  0  0  0  0
 16 21  1  0  0  0  0
 17 18  1  0  0  0  0
 17 19  2  0  0  0  0
 17 20  2  0  0  0  0
 18 41  1  0  0  0  0
 18 42  1  0  0  0  0
 18 43  1  0  0  0  0
 21 44  1  0  0  0  0
 21 45  1  0  0  0  0
 22 23  2  0  0  0  0
 22 46  1  0  0  0  0
 23 47  1  0  0  0  0
M  CHG  1  23   1
M  END
> <s_m_source_file>
AV-unprocessed.smi

> <i_m_source_file_index>
1166

> <i_lp_mmshare_version>
43012

> <i_f3d_flags>
0

> <s_epik_input>
W0NIM11OKFtDSDNdKWMxW2NIXVtjSF1jKFtjSF1uMSlbTkhdQyg9TylbTkhdW0NAQEhdMltDSDJdW0NIMl1bQ0gyXU4oW0NIMl0yKVMoPU8pKD1PKVtDSDNd

> <s_epik_cmdline>
J2VwaWtfcHl0aG9uJywgJy1waCcsICc3LjAnLCAnLXRuJywgJzgnLCAnLW1hJywgJzIwMCcsICctbWV0YWxfYmluZGluZycsICctaW1hZScsICc8aW5maWxlLm1hZT4nLCAnLW9tYWUnLCAnPG91dGZpbGUubWFlPic=

> <r_lp_tautomer_probability>
0.999994

> <r_epik_Ionization_Penalty>
0.276583

> <r_epik_Ionization_Penalty_Charging>
0.276565

> <r_epik_Ionization_Penalty_Neutral>
1.87575e-05

> <r_epik_State_Penalty>
0.268949

> <r_epik_Charging_Adjusted_Penalty>
0.545513

> <i_epik_Tot_Q>
1

> <i_epik_Tot_abs_Q>
1

> <r_epik_Metal_State_Penalty>
0.551815

> <b_epik_Metal_Only>
0

> <s_lp_Force_Field>
OPLS_2005

> <r_lp_Energy>
7.52153

> <b_lp_Chiralities_Consistent>
1

> <s_lp_Variant>
AV-unprocessed.smi:1166-1

> <Gold.Version>
5.8.1

> <Gold.Id.Protein>
6NUR|6NUR_protein|mol2

> <Gold.PLP.Fitness>
45.9567

> <Gold.PLP.PLP>
-46.7856

> <Gold.PLP.part.hbond>
-4.0000

> <Gold.PLP.part.metal>
0.0000

> <Gold.PLP.part.buried>
-7.2106

> <Gold.PLP.part.nonpolar>
-35.6358

> <Gold.PLP.part.repulsive>
0.4410

> <Gold.PLP.ligand.clash>
0.0000

> <Gold.PLP.ligand.torsion>
1.4438

> <Gold.PLP.Chemscore.Hbond>
0.0000

> <Gold.PLP.Chemscore.CHOScore>
0.0000

> <Gold.PLP.Chemscore.Metal>
0.0000

> <Gold.PLP.Chemscore.Internal.Correction>
2.0587

> <Gold.Rescore>
     Score         DG    S(hbond)    S(metal)    S(lipo)     H(rot)  DE(clash)    DE(int)     intcor
     10.31     -14.42       0.00        0.00      98.32       1.00       0.49       3.62       ----

> <Gold.Chemscore.Fitness>
10.3090

> <Gold.Chemscore.DG>
-14.4239

> <Gold.Chemscore.ZeroCoef>
-5.4800

> <Gold.Chemscore.Hbond>
0.0000

> <Gold.Chemscore.Metal>
0.0000

> <Gold.Chemscore.Lipo>
98.3243

> <Gold.Chemscore.Internal_Hbond>
0.0000

> <Gold.Chemscore.DEClash>
0.4923

> <Gold.Chemscore.DEInternal>
3.6226

> <Gold.Chemscore.Rot>
1.0000

> <Gold.Chemscore.Internal.Correction>
   9.000000E+99

> <Gold.Chemscore.Hbond.Weighted>
-0.0000

> <Gold.Chemscore.Metal.Weighted>
-0.0000

> <Gold.Chemscore.Lipo.Weighted>
-11.5039

> <Gold.Chemscore.Internal_Hbond.Weighted>
0.0000

> <Gold.Chemscore.DEClash.Weighted>
0.4923

> <Gold.Chemscore.DEInternal.Weighted>
3.6226

> <Gold.Chemscore.Rot.Weighted>
2.5600

> <Gold.Chemscore.Internal.Correction.Weighted>
   9.000000E+99

> <Gold.Protein.RotatedTorsions>
[ 6907 6896 6895 6894 ] final  -52.79 input  -60.11 | X-H torsion
[ 7974 7965 7964 7962 ] final -121.10 input  175.53 | X-H torsion
[ 8008 7997 7996 7995 ] final  -60.77 input   59.86 | X-H torsion
[ 10167 10162 10161 10158 ] final -141.59 input  -65.29 | X-H torsion
[ 10718 10713 10712 10709 ] final -114.95 input   66.30 | X-H torsion
[ 10763 10752 10751 10750 ] final  165.36 input  -60.55 | X-H torsion
[ 11005 11000 10999 10996 ] final  -64.61 input  -57.11 | X-H torsion

> <Gold.Protein.ActiveResidues>
 VAL166  LYS551  ARG553  GLY616  TRP617  ASP618  TYR619  PRO620  LYS621  CYS622 
 ASP623  PHE694  ASN695  SER759  ASP760  ASP761  ALA762  ILE779  LEU786  VAL792 
 PHE793  MET794  SER795  GLU796  ALA797  LYS798  CYS799  TRP800  GLU811  SER814 

> <Gold.Protein.RotatedAtoms>
  150.8486  134.7803  159.6989 H   0  0  0  0  0  0  0  0  0  0  0  0  # atno 6907 bound_to 6896
  152.4556  134.5295  159.9816 H   0  0  0  0  0  0  0  0  0  0  0  0  # atno 6908 bound_to 6896
  151.5421  133.3393  159.2973 H   0  0  0  0  0  0  0  0  0  0  0  0  # atno 6909 bound_to 6896
  145.0440  140.8167  143.4249 H   0  0  0  0  0  0  0  0  0  0  0  0  # atno 7974 bound_to 7965
  154.4415  140.1032  156.6327 H   0  0  0  0  0  0  0  0  0  0  0  0  # atno 8008 bound_to 7997
  155.5588  140.3487  155.4467 H   0  0  0  0  0  0  0  0  0  0  0  0  # atno 8009 bound_to 7997
  156.0475  140.1296  157.0076 H   0  0  0  0  0  0  0  0  0  0  0  0  # atno 8010 bound_to 7997
  139.8170  143.7625  152.2665 H   0  0  0  0  0  0  0  0  0  0  0  0  # atno 10167 bound_to 10162
  156.0863  130.6054  150.8842 H   0  0  0  0  0  0  0  0  0  0  0  0  # atno 10718 bound_to 10713
  154.3229  135.2755  155.2511 H   0  0  0  0  0  0  0  0  0  0  0  0  # atno 10763 bound_to 10752
  154.4856  135.5847  153.6425 H   0  0  0  0  0  0  0  0  0  0  0  0  # atno 10764 bound_to 10752
  152.9874  135.6122  154.3415 H   0  0  0  0  0  0  0  0  0  0  0  0  # atno 10765 bound_to 10752
  141.1430  133.6668  156.5860 H   0  0  0  0  0  0  0  0  0  0  0  0  # atno 11005 bound_to 11000
  145.1611  139.2458  143.5391 LP  0  0  0  0  0  0  0  0  0  0  0  0  # atno 17320 bound_to 7965
  146.3512  140.1339  142.8596 LP  0  0  0  0  0  0  0  0  0  0  0  0  # atno 17321 bound_to 7965
  139.7792  144.7450  151.0113 LP  0  0  0  0  0  0  0  0  0  0  0  0  # atno 17342 bound_to 10162
  140.7815  143.4561  151.0344 LP  0  0  0  0  0  0  0  0  0  0  0  0  # atno 17343 bound_to 10162
  157.5999  131.0941  150.8978 LP  0  0  0  0  0  0  0  0  0  0  0  0  # atno 17370 bound_to 10713
  156.9138  130.5290  149.5280 LP  0  0  0  0  0  0  0  0  0  0  0  0  # atno 17371 bound_to 10713
  140.3801  134.7531  157.4655 LP  0  0  0  0  0  0  0  0  0  0  0  0  # atno 17394 bound_to 11000
  140.0644  134.5950  155.8711 LP  0  0  0  0  0  0  0  0  0  0  0  0  # atno 17395 bound_to 11000

$$$$
