#       Name:                AV-unprocessed.smi:2750
#       Creating user name   scv26
#       Creation time:       Fri Mar 27 15:04:36 2020


#       File generated by GOLD software.
#

@<TRIPOS>MOLECULE
AV-unprocessed.smi:2750
    35    36     1
SMALL
NO_CHARGES


@<TRIPOS>ATOM
      1 ****        -3.9246  -0.0014  -2.3899 O.co2          1 S1                 0.0000
      2 ****        -4.1289  -0.3500  -1.2060 C.2            1 S1                 0.0000
      3 ****        -4.9194   0.2055  -0.4116 O.co2          1 S1                -1.0000
      4 ****        -3.3746  -1.5783  -0.6924 C.3            1 S1                 0.0000
      5 ****        -1.9334  -1.3967  -0.6905 N.pl3          1 S1                 0.0000
      6 ****        -1.1300  -0.9112   0.3212 C.2            1 S1                 0.0000
      7 ****         0.1272  -0.9839  -0.2079 C.2            1 S1                 0.0000
      8 ****         1.4434  -0.6182   0.4129 C.3            1 S1                 0.0000
      9 ****         1.9588   0.7689  -0.0285 C.3            1 S1                 0.0000
     10 ****         1.2208   1.8464   0.6102 N.pl3          1 S1                -1.0000
     11 ****         2.0936   2.6117   1.3066 C.2            1 S1                 0.0000
     12 ****         1.8501   3.6182   1.9685 O.2            1 S1                 0.0000
     13 ****         3.3356   2.1285   1.2005 N.am           1 S1                 0.0000
     14 ****         3.3739   1.0334   0.4483 C.2            1 S1                 0.0000
     15 ****         4.3591   0.3487   0.1758 O.2            1 S1                 0.0000
     16 ****         0.0384  -1.4947  -1.5029 N.2            1 S1                 0.0000
     17 ****        -1.2043  -1.7371  -1.7811 N.2            1 S1                 0.0000
     18 ****        -3.6943  -1.8154   0.3233 H              1 S1                 0.0000
     19 ****        -3.6267  -2.4399  -1.3123 H              1 S1                 0.0000
     20 ****        -1.5026  -0.5762   1.2776 H              1 S1                 0.0000
     21 ****         1.3656  -0.6600   1.5006 H              1 S1                 0.0000
     22 ****         2.1791  -1.3787   0.1476 H              1 S1                 0.0000
     23 ****         1.9507   0.8416  -1.1170 H              1 S1                 0.0000
     24 ****         4.1422   2.5392   1.6460 H              1 S1                 0.0000
     25 ****        -4.4143   0.7823  -2.7719 LP             1 S1                 0.0000
     26 ****        -3.2716  -0.5065  -2.9542 LP             1 S1                 0.0000
     27 ****        -5.4519   0.9981  -0.7085 LP             1 S1                 0.0000
     28 ****        -5.0189  -0.1431   0.5204 LP             1 S1                 0.0000
     29 ****         0.2343   1.9969   0.5459 LP             1 S1                 0.0000
     30 ****         0.9119   3.9577   2.0355 LP             1 S1                 0.0000
     31 ****         2.5902   4.0976   2.4401 LP             1 S1                 0.0000
     32 ****         4.2614  -0.4587  -0.4061 LP             1 S1                 0.0000
     33 ****         5.2575   0.5995   0.5362 LP             1 S1                 0.0000
     34 ****         0.8108  -1.6494  -2.1189 LP             1 S1                 0.0000
     35 ****        -1.5588  -2.1064  -2.6401 LP             1 S1                 0.0000
@<TRIPOS>BOND
    1    1    2 ar    
    2    2    3 ar    
    3    2    4 1     
    4    4    5 1     
    5    4   18 1     
    6    4   19 1     
    7    5   17 1     
    8    5    6 1     
    9    6    7 2     
   10    6   20 1     
   11    7    8 1     
   12    7   16 1     
   13    8    9 1     
   14    8   21 1     
   15    8   22 1     
   16    9   14 1     
   17    9   10 1     
   18    9   23 1     
   19   10   11 1     
   20   11   12 2     
   21   11   13 am    
   22   13   14 am    
   23   13   24 1     
   24   14   15 2     
   25   16   17 2     
   26    1   25 1     
   27    1   26 1     
   28    3   27 1     
   29    3   28 1     
   30   10   29 1     
   31   12   30 1     
   32   12   31 1     
   33   15   32 1     
   34   15   33 1     
   35   16   34 1     
   36   17   35 1     
@<TRIPOS>SUBSTRUCTURE
      1 S1             1
@<TRIPOS>SET
LONE_PAIRS      STATIC     ATOMS    <user>   **** ""
11 25 26 27 28 29 30 31 32 33 34 35
DONOR_HYDROGENS      STATIC     ATOMS    <user>   **** ""
1 24
ATOM$BLUE        STATIC     ATOMS    COLORGROUP SYSTEM
11 25 26 27 28 29 30 31 32 33 34 35
ATOM$RED        STATIC     ATOMS    COLORGROUP SYSTEM
1 24
