AV-unprocessed.smi:1831|AV-procd|sdf|7462|dock6
  -GOLD-   22720 9153D 1   1.00000     0.00000
 Structure written by MMmdl.
 40 41  0  0  0  0  0  0  0  0  3 V2000
  153.2978  142.2488  160.6126 C   0  0  0  0  0  0  0  0  0  0  0  0
  152.9268  141.2550  159.5659 C   0  0  0  0  0  0  0  0  0  0  0  0
  153.7875  140.3503  159.0937 N   0  0  0  0  0  0  0  0  0  0  0  0
  153.2120  139.5342  158.1308 N   0  0  0  0  0  0  0  0  0  0  0  0
  151.9302  139.8374  157.8820 C   0  0  0  0  0  0  0  0  0  0  0  0
  151.1922  139.1649  156.9834 N   0  5  0  0  0  0  0  0  0  0  0  0
  150.5805  139.8307  155.9788 C   0  0  0  0  0  0  0  0  0  0  0  0
  151.1175  140.6039  155.1822 O   0  0  0  0  0  0  0  0  0  0  0  0
  149.2624  139.5968  155.9011 N   0  0  0  0  0  0  0  0  0  0  0  0
  148.3350  140.1902  154.9422 C   0  0  0  0  0  0  0  0  0  0  0  0
  148.0676  139.2523  153.7497 C   0  0  2  0  0  0  0  0  0  0  0  0
  147.1036  139.8264  152.7140 C   0  0  0  0  0  0  0  0  0  0  0  0
  146.4988  138.6000  152.0170 C   0  0  0  0  0  0  0  0  0  0  0  0
  146.8570  137.4113  152.8313 N   0  3  2  0  0  0  0  0  0  0  0  0
  145.7884  136.3804  152.9573 C   0  0  0  0  0  0  0  0  0  0  0  0
  146.2997  135.1129  153.6694 C   0  0  0  0  0  0  0  0  0  0  0  0
  145.2187  136.0017  151.5774 C   0  0  0  0  0  0  0  0  0  0  0  0
  147.4025  137.9227  154.1059 C   0  0  0  0  0  0  0  0  0  0  0  0
  151.3221  141.1743  158.8580 S   0  0  0  0  0  0  0  0  0  0  0  0
  153.3963  141.7535  161.5786 H   0  0  0  0  0  0  0  0  0  0  0  0
  152.5325  143.0211  160.6909 H   0  0  0  0  0  0  0  0  0  0  0  0
  154.2469  142.7230  160.3618 H   0  0  0  0  0  0  0  0  0  0  0  0
  148.8711  138.9508  156.5713 H   0  0  0  0  0  0  0  0  0  0  0  0
  147.4010  140.4737  155.4302 H   0  0  0  0  0  0  0  0  0  0  0  0
  148.7819  141.1170  154.5823 H   0  0  0  0  0  0  0  0  0  0  0  0
  149.0137  139.0371  153.2497 H   0  0  0  0  0  0  0  0  0  0  0  0
  146.3107  140.3877  153.2108 H   0  0  0  0  0  0  0  0  0  0  0  0
  147.5980  140.5026  152.0160 H   0  0  0  0  0  0  0  0  0  0  0  0
  145.4180  138.7234  151.9304 H   0  0  0  0  0  0  0  0  0  0  0  0
  146.9009  138.4768  151.0109 H   0  0  0  0  0  0  0  0  0  0  0  0
  144.9806  136.8015  153.5582 H   0  0  0  0  0  0  0  0  0  0  0  0
  145.5242  134.3473  153.7087 H   0  0  0  0  0  0  0  0  0  0  0  0
  146.5946  135.3129  154.6996 H   0  0  0  0  0  0  0  0  0  0  0  0
  147.1588  134.6854  153.1512 H   0  0  0  0  0  0  0  0  0  0  0  0
  144.4495  135.2345  151.6702 H   0  0  0  0  0  0  0  0  0  0  0  0
  145.9978  135.6098  150.9224 H   0  0  0  0  0  0  0  0  0  0  0  0
  144.7579  136.8521  151.0748 H   0  0  0  0  0  0  0  0  0  0  0  0
  148.1057  137.2195  154.5530 H   0  0  0  0  0  0  0  0  0  0  0  0
  146.5869  138.0887  154.8121 H   0  0  0  0  0  0  0  0  0  0  0  0
  147.6362  136.9750  152.3595 H   0  0  0  0  0  0  0  0  0  0  0  0
  1  2  1  0  0  0  0
  1 20  1  0  0  0  0
  1 21  1  0  0  0  0
  1 22  1  0  0  0  0
  2 19  1  0  0  0  0
  2  3  2  0  0  0  0
  3  4  1  0  0  0  0
  4  5  2  0  0  0  0
  5  6  1  0  0  0  0
  5 19  1  0  0  0  0
  6  7  1  0  0  0  0
  7  8  2  0  0  0  0
  7  9  1  0  0  0  0
  9 10  1  0  0  0  0
  9 23  1  0  0  0  0
 10 11  1  0  0  0  0
 10 24  1  0  0  0  0
 10 25  1  0  0  0  0
 11 18  1  0  0  0  0
 11 12  1  0  0  0  0
 11 26  1  0  0  0  0
 12 13  1  0  0  0  0
 12 27  1  0  0  0  0
 12 28  1  0  0  0  0
 13 14  1  0  0  0  0
 13 29  1  0  0  0  0
 13 30  1  0  0  0  0
 14 15  1  0  0  0  0
 14 18  1  0  0  0  0
 14 40  1  0  0  0  0
 15 16  1  0  0  0  0
 15 17  1  0  0  0  0
 15 31  1  0  0  0  0
 16 32  1  0  0  0  0
 16 33  1  0  0  0  0
 16 34  1  0  0  0  0
 17 35  1  0  0  0  0
 17 36  1  0  0  0  0
 17 37  1  0  0  0  0
 18 38  1  0  0  0  0
 18 39  1  0  0  0  0
M  CHG  1   6  -1
M  CHG  1  14   1
M  END
> <s_m_source_file>
AV-unprocessed.smi

> <i_m_source_file_index>
1831

> <i_lp_mmshare_version>
43012

> <i_f3d_flags>
0

> <s_epik_input>
W0NIM11jMW5uYyhzMSlbTkhdQyg9TylbTkhdW0NIMl1bQ0BASF0yW0NIMl1bQ0gyXU4oW0NIMl0yKVtDSF0oW0NIM10pW0NIM10=

> <s_epik_cmdline>
J2VwaWtfcHl0aG9uJywgJy1waCcsICc3LjAnLCAnLXRuJywgJzgnLCAnLW1hJywgJzIwMCcsICctbWV0YWxfYmluZGluZycsICctaW1hZScsICc8aW5maWxlLm1hZT4nLCAnLW9tYWUnLCAnPG91dGZpbGUubWFlPic=

> <r_lp_tautomer_probability>
1

> <r_epik_Ionization_Penalty>
4.24531

> <r_epik_Ionization_Penalty_Charging>
4.11954

> <r_epik_Ionization_Penalty_Neutral>
0.125766

> <r_epik_State_Penalty>
4.11879

> <r_epik_Charging_Adjusted_Penalty>
8.23833

> <i_epik_Tot_Q>
0

> <i_epik_Tot_abs_Q>
2

> <r_epik_Metal_State_Penalty>
0.659341

> <b_epik_Metal_Only>
1

> <s_lp_Force_Field>
OPLS_2005

> <r_lp_Energy>
22.0207

> <b_lp_Chiralities_Consistent>
1

> <s_lp_Variant>
AV-unprocessed.smi:1831-7

> <Gold.Version>
5.8.1

> <Gold.Id.Protein>
6NUR|6NUR_protein|mol2

> <Gold.PLP.Fitness>
36.9389

> <Gold.PLP.PLP>
-28.4087

> <Gold.PLP.part.hbond>
-4.0000

> <Gold.PLP.part.metal>
0.0000

> <Gold.PLP.part.buried>
0.1069

> <Gold.PLP.part.nonpolar>
-24.7363

> <Gold.PLP.part.repulsive>
0.1082

> <Gold.PLP.ligand.clash>
0.0000

> <Gold.PLP.ligand.torsion>
1.2033

> <Gold.PLP.Chemscore.Hbond>
3.6288

> <Gold.PLP.Chemscore.CHOScore>
0.0000

> <Gold.PLP.Chemscore.Metal>
0.0000

> <Gold.Chemscore.Hbonds>
donor molecule, donor type, donor heavy atom, donor atom, acceptor molecule, acceptor atom, score
      L1  H    14    40       P1  7948  2.00
      P1  H  7989  7998       L1     8  0.91
      P1  H  7997  8008       L1     4  0.72

> <Gold.PLP.Chemscore.Internal.Correction>
0.0505

> <Gold.Rescore>
     Score         DG    S(hbond)    S(metal)    S(lipo)     H(rot)  DE(clash)    DE(int)     intcor
     15.25     -16.78       2.31        0.00      63.77       1.51       0.21       1.32       ----

> <Gold.Chemscore.Fitness>
15.2516

> <Gold.Chemscore.DG>
-16.7821

> <Gold.Chemscore.ZeroCoef>
-5.4800

> <Gold.Chemscore.Hbond>
2.3096

> <Gold.Chemscore.Metal>
0.0000

> <Gold.Chemscore.Lipo>
63.7736

> <Gold.Chemscore.Internal_Hbond>
0.0000

> <Gold.Chemscore.DEClash>
0.2097

> <Gold.Chemscore.DEInternal>
1.3209

> <Gold.Chemscore.Rot>
1.5131

> <Gold.Chemscore.Internal.Correction>
   9.000000E+99

> <Gold.Chemscore.Hbonds>
donor molecule, donor type, donor heavy atom, donor atom, acceptor molecule, acceptor atom, score
      L1  H    14    40       P1  7948  0.98
      P1  H  7989  7998       L1     8  0.88
      P1  H  7997  8008       L1     4  0.08

> <Gold.Chemscore.Hbond.Weighted>
-7.7141

> <Gold.Chemscore.Metal.Weighted>
-0.0000

> <Gold.Chemscore.Lipo.Weighted>
-7.4615

> <Gold.Chemscore.Internal_Hbond.Weighted>
0.0000

> <Gold.Chemscore.DEClash.Weighted>
0.2097

> <Gold.Chemscore.DEInternal.Weighted>
1.3209

> <Gold.Chemscore.Rot.Weighted>
3.8735

> <Gold.Chemscore.Internal.Correction.Weighted>
   9.000000E+99

> <Gold.Protein.RotatedTorsions>
[ 6907 6896 6895 6894 ] final -119.80 input  -60.11 | X-H torsion
[ 7974 7965 7964 7962 ] final  107.24 input  175.53 | X-H torsion
[ 8008 7997 7996 7995 ] final  -60.88 input   59.86 | X-H torsion
[ 10167 10162 10161 10158 ] final  -56.80 input  -65.29 | X-H torsion
[ 10718 10713 10712 10709 ] final  -33.13 input   66.30 | X-H torsion
[ 10763 10752 10751 10750 ] final   21.16 input  -60.55 | X-H torsion
[ 11005 11000 10999 10996 ] final   68.43 input  -57.11 | X-H torsion

> <Gold.Protein.ActiveResidues>
 VAL166  LYS551  ARG553  GLY616  TRP617  ASP618  TYR619  PRO620  LYS621  CYS622 
 ASP623  PHE694  ASN695  SER759  ASP760  ASP761  ALA762  ILE779  LEU786  VAL792 
 PHE793  MET794  SER795  GLU796  ALA797  LYS798  CYS799  TRP800  GLU811  SER814 

> <Gold.Protein.RotatedAtoms>
  150.8337  133.8049  159.3087 H   0  0  0  0  0  0  0  0  0  0  0  0  # atno 6907 bound_to 6896
  151.5771  135.1058  160.0018 H   0  0  0  0  0  0  0  0  0  0  0  0  # atno 6908 bound_to 6896
  152.4413  133.7411  159.6698 H   0  0  0  0  0  0  0  0  0  0  0  0  # atno 6909 bound_to 6896
  145.2962  139.2584  143.3838 H   0  0  0  0  0  0  0  0  0  0  0  0  # atno 7974 bound_to 7965
  154.4420  140.1030  156.6342 H   0  0  0  0  0  0  0  0  0  0  0  0  # atno 8008 bound_to 7997
  155.5571  140.3487  155.4464 H   0  0  0  0  0  0  0  0  0  0  0  0  # atno 8009 bound_to 7997
  156.0487  140.1299  157.0064 H   0  0  0  0  0  0  0  0  0  0  0  0  # atno 8010 bound_to 7997
  140.6296  143.2453  151.5276 H   0  0  0  0  0  0  0  0  0  0  0  0  # atno 10167 bound_to 10162
  156.3664  130.4332  149.7581 H   0  0  0  0  0  0  0  0  0  0  0  0  # atno 10718 bound_to 10713
  153.1017  135.6674  153.9660 H   0  0  0  0  0  0  0  0  0  0  0  0  # atno 10763 bound_to 10752
  153.9228  135.3012  155.3448 H   0  0  0  0  0  0  0  0  0  0  0  0  # atno 10764 bound_to 10752
  154.7438  135.5067  153.9244 H   0  0  0  0  0  0  0  0  0  0  0  0  # atno 10765 bound_to 10752
  139.9712  134.6897  156.0444 H   0  0  0  0  0  0  0  0  0  0  0  0  # atno 11005 bound_to 11000
  146.3168  140.3466  142.8652 LP  0  0  0  0  0  0  0  0  0  0  0  0  # atno 17320 bound_to 7965
  144.9131  140.7781  143.5795 LP  0  0  0  0  0  0  0  0  0  0  0  0  # atno 17321 bound_to 7965
  139.5511  144.2392  152.1532 LP  0  0  0  0  0  0  0  0  0  0  0  0  # atno 17342 bound_to 10162
  140.1632  144.5006  150.6621 LP  0  0  0  0  0  0  0  0  0  0  0  0  # atno 17343 bound_to 10162
  156.4725  130.8003  151.3021 LP  0  0  0  0  0  0  0  0  0  0  0  0  # atno 17370 bound_to 10713
  157.7479  131.0031  150.3026 LP  0  0  0  0  0  0  0  0  0  0  0  0  # atno 17371 bound_to 10713
  141.1391  133.6568  156.3679 LP  0  0  0  0  0  0  0  0  0  0  0  0  # atno 17394 bound_to 11000
  140.5290  134.6231  157.5343 LP  0  0  0  0  0  0  0  0  0  0  0  0  # atno 17395 bound_to 11000

$$$$
