#       Name:                AV-unprocessed.smi:2382
#       Creating user name   scv26
#       Creation time:       Fri Mar 27 13:08:52 2020


#       File generated by GOLD software.
#

@<TRIPOS>MOLECULE
AV-unprocessed.smi:2382
    40    41     1
SMALL
NO_CHARGES


@<TRIPOS>ATOM
      1 ****        -2.4292   2.3508   1.0871 C.3            1 S1                 0.0000
      2 ****        -2.7509   0.8871   0.9873 C.2            1 S1                 0.0000
      3 ****        -4.0114   0.4943   1.0701 N.2            1 S1                 0.0000
      4 ****        -3.9629  -0.8475   0.9450 N.pl3          1 S1                 0.0000
      5 ****        -5.1949  -1.6108   0.9895 C.3            1 S1                 0.0000
      6 ****        -2.6688  -1.3028   0.7806 C.2            1 S1                 0.0000
      7 ****        -2.3452  -2.7525   0.6134 C.3            1 S1                 0.0000
      8 ****        -1.8519  -0.2050   0.8094 C.2            1 S1                 0.0000
      9 ****        -0.3541  -0.1450   0.6776 C.3            1 S1                 0.0000
     10 ****         0.0708   0.0186  -0.7901 C.3            1 S1                 0.0000
     11 ****         1.5211   0.0570  -0.9276 N.am           1 S1                 0.0000
     12 ****         2.2865   1.1392  -0.7166 C.2            1 S1                 0.0000
     13 ****         1.8446   2.2326  -0.3647 O.2            1 S1                 0.0000
     14 ****         3.5966   0.8982  -0.8822 N.am           1 S1                 0.0000
     15 ****         4.3276  -0.1765  -1.5446 C.3            1 S1                 0.0000
     16 ****         5.5991   0.5738  -1.1513 C.3            1 S1                 0.0000
     17 ****         4.7421   1.7949  -0.8202 C.3            1 S1                 0.0000
     18 ****        -1.5210   2.5942   0.5355 H              1 S1                 0.0000
     19 ****        -2.2759   2.6455   2.1251 H              1 S1                 0.0000
     20 ****        -3.2333   2.9654   0.6814 H              1 S1                 0.0000
     21 ****        -5.0972  -2.4259   1.7067 H              1 S1                 0.0000
     22 ****        -5.4023  -2.0261   0.0033 H              1 S1                 0.0000
     23 ****        -6.0304  -0.9772   1.2898 H              1 S1                 0.0000
     24 ****        -1.3358  -2.8877   0.2250 H              1 S1                 0.0000
     25 ****        -3.0337  -3.2304  -0.0836 H              1 S1                 0.0000
     26 ****        -2.4113  -3.2747   1.5678 H              1 S1                 0.0000
     27 ****         0.0452   0.6805   1.2681 H              1 S1                 0.0000
     28 ****         0.1053  -1.0447   1.0887 H              1 S1                 0.0000
     29 ****        -0.3022  -0.8188  -1.3806 H              1 S1                 0.0000
     30 ****        -0.3689   0.9210  -1.2185 H              1 S1                 0.0000
     31 ****         1.9780  -0.8010  -1.2001 H              1 S1                 0.0000
     32 ****         4.2317  -1.1545  -1.0716 H              1 S1                 0.0000
     33 ****         4.1601  -0.2228  -2.6215 H              1 S1                 0.0000
     34 ****         6.0877   0.1488  -0.2730 H              1 S1                 0.0000
     35 ****         6.3027   0.7267  -1.9703 H              1 S1                 0.0000
     36 ****         4.7443   2.5583  -1.5996 H              1 S1                 0.0000
     37 ****         4.9387   2.2162   0.1663 H              1 S1                 0.0000
     38 ****        -4.8217   1.0664   1.1974 LP             1 S1                 0.0000
     39 ****         0.8623   2.3518  -0.2198 LP             1 S1                 0.0000
     40 ****         2.4677   3.0019  -0.2238 LP             1 S1                 0.0000
@<TRIPOS>BOND
    1    1    2 1     
    2    1   18 1     
    3    1   19 1     
    4    1   20 1     
    5    2    8 1     
    6    2    3 2     
    7    3    4 1     
    8    4    5 1     
    9    4    6 1     
   10    5   21 1     
   11    5   22 1     
   12    5   23 1     
   13    6    7 1     
   14    6    8 2     
   15    7   24 1     
   16    7   25 1     
   17    7   26 1     
   18    8    9 1     
   19    9   10 1     
   20    9   27 1     
   21    9   28 1     
   22   10   11 1     
   23   10   29 1     
   24   10   30 1     
   25   11   12 am    
   26   11   31 1     
   27   12   13 2     
   28   12   14 am    
   29   14   17 1     
   30   14   15 1     
   31   15   16 1     
   32   15   32 1     
   33   15   33 1     
   34   16   17 1     
   35   16   34 1     
   36   16   35 1     
   37   17   36 1     
   38   17   37 1     
   39    3   38 1     
   40   13   39 1     
   41   13   40 1     
@<TRIPOS>SUBSTRUCTURE
      1 S1             1
@<TRIPOS>SET
LONE_PAIRS      STATIC     ATOMS    <user>   **** ""
3 38 39 40
DONOR_HYDROGENS      STATIC     ATOMS    <user>   **** ""
1 31
ATOM$BLUE        STATIC     ATOMS    COLORGROUP SYSTEM
3 38 39 40
ATOM$RED        STATIC     ATOMS    COLORGROUP SYSTEM
1 31
