AV-unprocessed.smi:2866|AV-procd|sdf|11022|dock2
  -GOLD-   2272015483D 1   1.00000     0.00000
 Structure written by MMmdl.
 42 44  0  0  0  0  0  0  0  0  2 V2000
  151.8399  144.9225  160.7259 C   0  0  0  0  0  0  0  0  0  0  0  0
  151.6023  143.7107  159.8409 C   0  0  0  0  0  0  0  0  0  0  0  0
  150.8817  143.8850  158.6378 C   0  0  0  0  0  0  0  0  0  0  0  0
  150.6821  142.7584  157.8490 C   0  0  0  0  0  0  0  0  0  0  0  0
  150.0276  142.6040  156.6252 N   0  3  0  0  0  0  0  0  0  0  0  0
  150.0920  141.3006  156.2366 C   0  0  0  0  0  0  0  0  0  0  0  0
  150.7783  140.6202  157.1944 N   0  0  0  0  0  0  0  0  0  0  0  0
  151.1208  139.1926  157.2621 C   0  0  0  0  0  0  0  0  0  0  0  0
  149.9125  138.3059  157.6320 C   0  0  1  0  0  0  0  0  0  0  0  0
  149.4999  137.5522  156.5097 O   0  0  0  0  0  0  0  0  0  0  0  0
  150.2000  137.3274  158.7883 C   0  0  0  0  0  0  0  0  0  0  0  0
  149.0237  136.5920  159.2179 N   0  0  0  0  0  0  0  0  0  0  0  0
  148.2817  135.6723  158.5092 C   0  0  0  0  0  0  0  0  0  0  0  0
  147.2614  135.2640  159.3192 C   0  0  0  0  0  0  0  0  0  0  0  0
  147.4544  136.0051  160.5213 C   0  0  0  0  0  0  0  0  0  0  0  0
  146.6325  135.9726  161.7827 C   0  0  0  0  0  0  0  0  0  0  0  0
  146.6000  134.7374  162.2826 F   0  0  0  0  0  0  0  0  0  0  0  0
  147.1667  136.7893  162.6908 F   0  0  0  0  0  0  0  0  0  0  0  0
  145.3846  136.3647  161.5256 F   0  0  0  0  0  0  0  0  0  0  0  0
  148.5129  136.8013  160.4499 N   0  0  0  0  0  0  0  0  0  0  0  0
  151.1677  141.4893  158.2205 C   0  0  0  0  0  0  0  0  0  0  0  0
  151.8804  141.3006  159.4025 C   0  0  0  0  0  0  0  0  0  0  0  0
  152.0957  142.4347  160.2179 C   0  0  0  0  0  0  0  0  0  0  0  0
  152.8707  142.2595  161.5128 C   0  0  0  0  0  0  0  0  0  0  0  0
  151.4142  145.8260  160.2880 H   0  0  0  0  0  0  0  0  0  0  0  0
  152.9077  145.0930  160.8652 H   0  0  0  0  0  0  0  0  0  0  0  0
  151.3808  144.7776  161.7041 H   0  0  0  0  0  0  0  0  0  0  0  0
  150.5037  144.8534  158.3440 H   0  0  0  0  0  0  0  0  0  0  0  0
  149.6738  140.8815  155.3324 H   0  0  0  0  0  0  0  0  0  0  0  0
  151.5666  138.8809  156.3173 H   0  0  0  0  0  0  0  0  0  0  0  0
  151.9049  139.0959  158.0137 H   0  0  0  0  0  0  0  0  0  0  0  0
  149.0769  138.9486  157.9125 H   0  0  0  0  0  0  0  0  0  0  0  0
  148.5556  137.5596  156.4757 H   0  0  0  0  0  0  0  0  0  0  0  0
  150.9631  136.6055  158.4938 H   0  0  0  0  0  0  0  0  0  0  0  0
  150.5975  137.8692  159.6479 H   0  0  0  0  0  0  0  0  0  0  0  0
  148.5386  135.3863  157.4996 H   0  0  0  0  0  0  0  0  0  0  0  0
  146.4896  134.5452  159.0874 H   0  0  0  0  0  0  0  0  0  0  0  0
  152.2616  140.3315  159.6885 H   0  0  0  0  0  0  0  0  0  0  0  0
  153.1828  141.2244  161.6544 H   0  0  0  0  0  0  0  0  0  0  0  0
  152.2562  142.5422  162.3679 H   0  0  0  0  0  0  0  0  0  0  0  0
  153.7676  142.8793  161.5095 H   0  0  0  0  0  0  0  0  0  0  0  0
  149.5700  143.3326  156.0922 H   0  0  0  0  0  0  0  0  0  0  0  0
  1  2  1  0  0  0  0
  1 25  1  0  0  0  0
  1 26  1  0  0  0  0
  1 27  1  0  0  0  0
  2 23  1  0  0  0  0
  2  3  2  0  0  0  0
  3  4  1  0  0  0  0
  3 28  1  0  0  0  0
  4 21  2  0  0  0  0
  4  5  1  0  0  0  0
  5  6  2  0  0  0  0
  5 42  1  0  0  0  0
  6  7  1  0  0  0  0
  6 29  1  0  0  0  0
  7  8  1  0  0  0  0
  7 21  1  0  0  0  0
  8  9  1  0  0  0  0
  8 30  1  0  0  0  0
  8 31  1  0  0  0  0
  9 10  1  0  0  0  0
  9 11  1  0  0  0  0
  9 32  1  0  0  0  0
 10 33  1  0  0  0  0
 11 12  1  0  0  0  0
 11 34  1  0  0  0  0
 11 35  1  0  0  0  0
 12 20  1  0  0  0  0
 12 13  1  0  0  0  0
 13 14  2  0  0  0  0
 13 36  1  0  0  0  0
 14 15  1  0  0  0  0
 14 37  1  0  0  0  0
 15 16  1  0  0  0  0
 15 20  2  0  0  0  0
 16 17  1  0  0  0  0
 16 18  1  0  0  0  0
 16 19  1  0  0  0  0
 21 22  1  0  0  0  0
 22 23  2  0  0  0  0
 22 38  1  0  0  0  0
 23 24  1  0  0  0  0
 24 39  1  0  0  0  0
 24 40  1  0  0  0  0
 24 41  1  0  0  0  0
M  CHG  1   5   1
M  END
> <s_m_source_file>
AV-unprocessed.smi

> <i_m_source_file_index>
2866

> <i_lp_mmshare_version>
43012

> <i_f3d_flags>
0

> <s_epik_input>
W0NIM11jKFtjSF0xKWMoW0NIM10pW2NIXWMoYzEyKW4oW2NIXW4yKVtDSDJdW0NASF0oW09IXSlbQ0gyXW4zW2NIXVtjSF1jKG4zKUMoRikoRilG

> <s_epik_cmdline>
J2VwaWtfcHl0aG9uJywgJy1waCcsICc3LjAnLCAnLXRuJywgJzgnLCAnLW1hJywgJzIwMCcsICctbWV0YWxfYmluZGluZycsICctaW1hZScsICc8aW5maWxlLm1hZT4nLCAnLW9tYWUnLCAnPG91dGZpbGUubWFlPic=

> <r_lp_tautomer_probability>
1

> <r_epik_Ionization_Penalty>
1.09214

> <r_epik_Ionization_Penalty_Charging>
1.09214

> <r_epik_Ionization_Penalty_Neutral>
2.80082e-06

> <r_epik_State_Penalty>
1.14852

> <r_epik_Charging_Adjusted_Penalty>
2.24066

> <i_epik_Tot_Q>
1

> <i_epik_Tot_abs_Q>
1

> <r_epik_Metal_State_Penalty>
1.23687

> <b_epik_Metal_Only>
0

> <s_lp_Force_Field>
OPLS_2005

> <r_lp_Energy>
17.0764

> <b_lp_Chiralities_Consistent>
1

> <s_lp_Variant>
AV-unprocessed.smi:2866-4

> <Gold.Version>
5.8.1

> <Gold.Id.Protein>
6NUR|6NUR_protein|mol2

> <Gold.PLP.Fitness>
60.7253

> <Gold.PLP.PLP>
-53.8433

> <Gold.PLP.part.hbond>
-2.0000

> <Gold.PLP.part.metal>
0.0000

> <Gold.PLP.part.buried>
-6.7775

> <Gold.PLP.part.nonpolar>
-45.2976

> <Gold.PLP.part.repulsive>
0.0461

> <Gold.PLP.ligand.clash>
0.0000

> <Gold.PLP.ligand.torsion>
0.9336

> <Gold.PLP.Chemscore.Hbond>
2.8960

> <Gold.PLP.Chemscore.CHOScore>
0.0000

> <Gold.PLP.Chemscore.Metal>
0.0000

> <Gold.Chemscore.Hbonds>
donor molecule, donor type, donor heavy atom, donor atom, acceptor molecule, acceptor atom, score
      L1  H     5    42       P1  8028  2.00
      P1  H  6931  6943       L1    20  0.68

> <Gold.PLP.Chemscore.Internal.Correction>
0.0612

> <Gold.Rescore>
     Score         DG    S(hbond)    S(metal)    S(lipo)     H(rot)  DE(clash)    DE(int)     intcor
     17.20     -18.44       1.81        0.00     113.34       2.48       0.11       1.13       ----

> <Gold.Chemscore.Fitness>
17.2047

> <Gold.Chemscore.DG>
-18.4412

> <Gold.Chemscore.ZeroCoef>
-5.4800

> <Gold.Chemscore.Hbond>
1.8129

> <Gold.Chemscore.Metal>
0.0000

> <Gold.Chemscore.Lipo>
113.3429

> <Gold.Chemscore.Internal_Hbond>
0.0000

> <Gold.Chemscore.DEClash>
0.1075

> <Gold.Chemscore.DEInternal>
1.1290

> <Gold.Chemscore.Rot>
2.4825

> <Gold.Chemscore.Internal.Correction>
   9.000000E+99

> <Gold.Chemscore.Hbonds>
donor molecule, donor type, donor heavy atom, donor atom, acceptor molecule, acceptor atom, score
      L1  H     5    42       P1  8028  0.98
      P1  H  6931  6943       L1    20  0.67

> <Gold.Chemscore.Hbond.Weighted>
-6.0552

> <Gold.Chemscore.Metal.Weighted>
-0.0000

> <Gold.Chemscore.Lipo.Weighted>
-13.2611

> <Gold.Chemscore.Internal_Hbond.Weighted>
0.0000

> <Gold.Chemscore.DEClash.Weighted>
0.1075

> <Gold.Chemscore.DEInternal.Weighted>
1.1290

> <Gold.Chemscore.Rot.Weighted>
6.3551

> <Gold.Chemscore.Internal.Correction.Weighted>
   9.000000E+99

> <Gold.Protein.RotatedTorsions>
[ 6907 6896 6895 6894 ] final  -81.63 input  -60.11 | X-H torsion
[ 7974 7965 7964 7962 ] final -161.53 input  175.53 | X-H torsion
[ 8008 7997 7996 7995 ] final -105.95 input   59.86 | X-H torsion
[ 10167 10162 10161 10158 ] final  167.52 input  -65.29 | X-H torsion
[ 10718 10713 10712 10709 ] final  178.87 input   66.30 | X-H torsion
[ 10763 10752 10751 10750 ] final   50.08 input  -60.55 | X-H torsion
[ 11005 11000 10999 10996 ] final -116.22 input  -57.11 | X-H torsion

> <Gold.Protein.ActiveResidues>
 VAL166  LYS551  ARG553  GLY616  TRP617  ASP618  TYR619  PRO620  LYS621  CYS622 
 ASP623  PHE694  ASN695  SER759  ASP760  ASP761  ALA762  ILE779  LEU786  VAL792 
 PHE793  MET794  SER795  GLU796  ALA797  LYS798  CYS799  TRP800  GLU811  SER814 

> <Gold.Protein.RotatedAtoms>
  150.6909  134.3788  159.5024 H   0  0  0  0  0  0  0  0  0  0  0  0  # atno 6907 bound_to 6896
  152.1593  134.8922  160.0552 H   0  0  0  0  0  0  0  0  0  0  0  0  # atno 6908 bound_to 6896
  151.9990  133.3784  159.4211 H   0  0  0  0  0  0  0  0  0  0  0  0  # atno 6909 bound_to 6896
  144.7388  140.3383  143.6139 H   0  0  0  0  0  0  0  0  0  0  0  0  # atno 7974 bound_to 7965
  154.9074  140.0411  157.1927 H   0  0  0  0  0  0  0  0  0  0  0  0  # atno 8008 bound_to 7997
  154.8383  140.2910  155.5655 H   0  0  0  0  0  0  0  0  0  0  0  0  # atno 8009 bound_to 7997
  156.2991  140.2487  156.3321 H   0  0  0  0  0  0  0  0  0  0  0  0  # atno 8010 bound_to 7997
  139.4947  144.3912  151.9515 H   0  0  0  0  0  0  0  0  0  0  0  0  # atno 10167 bound_to 10162
  156.8842  130.9826  151.3058 H   0  0  0  0  0  0  0  0  0  0  0  0  # atno 10718 bound_to 10713
  152.9785  135.5890  154.4194 H   0  0  0  0  0  0  0  0  0  0  0  0  # atno 10763 bound_to 10752
  154.3820  135.2767  155.2207 H   0  0  0  0  0  0  0  0  0  0  0  0  # atno 10764 bound_to 10752
  154.4117  135.6080  153.6011 H   0  0  0  0  0  0  0  0  0  0  0  0  # atno 10765 bound_to 10752
  141.0436  133.9797  157.2954 H   0  0  0  0  0  0  0  0  0  0  0  0  # atno 11005 bound_to 11000
  145.7400  139.1761  143.2381 LP  0  0  0  0  0  0  0  0  0  0  0  0  # atno 17320 bound_to 7965
  146.1141  140.7391  142.9489 LP  0  0  0  0  0  0  0  0  0  0  0  0  # atno 17321 bound_to 7965
  140.3350  144.3271  150.5979 LP  0  0  0  0  0  0  0  0  0  0  0  0  # atno 17342 bound_to 10162
  140.5614  143.2192  151.7759 LP  0  0  0  0  0  0  0  0  0  0  0  0  # atno 17343 bound_to 10162
  157.6122  130.8591  149.8970 LP  0  0  0  0  0  0  0  0  0  0  0  0  # atno 17370 bound_to 10713
  156.0662  130.3692  150.0874 LP  0  0  0  0  0  0  0  0  0  0  0  0  # atno 17371 bound_to 10713
  139.9294  135.0200  156.8349 LP  0  0  0  0  0  0  0  0  0  0  0  0  # atno 17394 bound_to 11000
  140.6188  134.0013  155.7609 LP  0  0  0  0  0  0  0  0  0  0  0  0  # atno 17395 bound_to 11000

$$$$
