#       Name:                AV-unprocessed.smi:110
#       Creating user name   scv26
#       Creation time:       Thu Mar 26 18:14:32 2020


#       File generated by GOLD software.
#

@<TRIPOS>MOLECULE
AV-unprocessed.smi:110
    57    61     1
SMALL
NO_CHARGES


@<TRIPOS>ATOM
      1 ****        -5.8540  -0.3775  -0.8639 O.3            1 S1                 0.0000
      2 ****        -5.4018  -1.7113  -0.9589 C.3            1 S1                 0.0000
      3 ****        -3.8791  -1.7402  -1.1609 C.3            1 S1                 0.0000
      4 ****        -3.2219  -1.6091   0.1000 O.3            1 S1                 0.0000
      5 ****        -2.0129  -2.3108   0.1003 C.3            1 S1                 0.0000
      6 ****        -0.8798  -1.3635   0.3635 N.pl3          1 S1                 0.0000
      7 ****         0.2489  -1.6113   1.1109 C.2            1 S1                 0.0000
      8 ****         1.0930  -0.6202   1.1965 N.2            1 S1                 0.0000
      9 ****         0.5113   0.3924   0.4431 C.ar           1 S1                 0.0000
     10 ****         0.8782   1.7295   0.1146 C.ar           1 S1                 0.0000
     11 ****         2.0128   2.3419   0.5279 N.pl3          1 S1                 0.0000
     12 ****         1.9175   3.6561   1.1796 C.3            1 S1                 0.0000
     13 ****         3.2202   3.8794   1.9711 C.3            1 S1                 0.0000
     14 ****         4.0024   2.6674   1.5802 C.ar           1 S1                 0.0000
     15 ****         5.3229   2.3521   1.9441 C.ar           1 S1                 0.0000
     16 ****         5.8841   1.1586   1.4420 C.ar           1 S1                 0.0000
     17 ****         5.1310   0.3182   0.5894 C.ar           1 S1                 0.0000
     18 ****         3.8062   0.6564   0.2357 C.ar           1 S1                 0.0000
     19 ****         3.2441   1.8392   0.7587 C.ar           1 S1                 0.0000
     20 ****         0.0030   2.4586  -0.6231 N.ar           1 S1                 0.0000
     21 ****        -1.1372   1.9087  -1.0483 C.ar           1 S1                 0.0000
     22 ****        -1.5951   0.6741  -0.8387 N.ar           1 S1                 0.0000
     23 ****        -0.7377  -0.0596  -0.0723 C.ar           1 S1                 0.0000
     24 ****        -1.8956  -3.0467  -1.2482 C.3            1 S1                 0.0000
     25 ****        -1.0612  -2.3868  -2.1879 O.3            1 S1                 0.0000
     26 ****        -3.3553  -3.0814  -1.6783 C.3            1 S1                 0.0000
     27 ****        -3.5237  -3.2502  -3.0737 O.3            1 S1                 0.0000
     28 ****        -3.5566  -0.9420  -1.8315 H              1 S1                 0.0000
     29 ****        -2.0057  -2.9912   0.9528 H              1 S1                 0.0000
     30 ****        -1.4979  -4.0484  -1.0829 H              1 S1                 0.0000
     31 ****        -3.8614  -3.8971  -1.1596 H              1 S1                 0.0000
     32 ****        -6.7935  -0.3848  -0.7625 H              1 S1                 0.0000
     33 ****        -5.6964  -2.2770  -0.0747 H              1 S1                 0.0000
     34 ****        -5.9021  -2.1643  -1.8153 H              1 S1                 0.0000
     35 ****         0.4281  -2.5593   1.5970 H              1 S1                 0.0000
     36 ****         1.7986   4.4261   0.4163 H              1 S1                 0.0000
     37 ****         1.0486   3.7023   1.8376 H              1 S1                 0.0000
     38 ****         3.7330   4.7955   1.6765 H              1 S1                 0.0000
     39 ****         3.0479   3.8893   3.0476 H              1 S1                 0.0000
     40 ****         5.8935   3.0068   2.5861 H              1 S1                 0.0000
     41 ****         6.8969   0.8898   1.7036 H              1 S1                 0.0000
     42 ****         5.5736  -0.5874   0.2017 H              1 S1                 0.0000
     43 ****         3.2426   0.0176  -0.4277 H              1 S1                 0.0000
     44 ****        -1.7745   2.5492  -1.6397 H              1 S1                 0.0000
     45 ****        -0.2155  -2.2456  -1.7905 H              1 S1                 0.0000
     46 ****        -3.0807  -4.0423  -3.3366 H              1 S1                 0.0000
     47 ****        -5.6085   0.1216  -1.6950 LP             1 S1                 0.0000
     48 ****        -5.4330   0.0655  -0.0724 LP             1 S1                 0.0000
     49 ****        -3.8138  -1.9741   0.8186 LP             1 S1                 0.0000
     50 ****        -3.0404  -0.6418   0.2769 LP             1 S1                 0.0000
     51 ****         1.9614  -0.5949   1.6917 LP             1 S1                 0.0000
     52 ****         0.2125   3.4100  -0.8489 LP             1 S1                 0.0000
     53 ****        -2.4613   0.3282  -1.1993 LP             1 S1                 0.0000
     54 ****        -1.4663  -1.5081  -2.4402 LP             1 S1                 0.0000
     55 ****        -0.9594  -2.9538  -3.0053 LP             1 S1                 0.0000
     56 ****        -3.1312  -2.4681  -3.5576 LP             1 S1                 0.0000
     57 ****        -4.4975  -3.3212  -3.2895 LP             1 S1                 0.0000
@<TRIPOS>BOND
    1    1    2 1     
    2    1   32 1     
    3    2    3 1     
    4    2   33 1     
    5    2   34 1     
    6    3   28 1     
    7    3   26 1     
    8    3    4 1     
    9    4    5 1     
   10    5   29 1     
   11    5    6 1     
   12    5   24 1     
   13    6   23 1     
   14    6    7 1     
   15    7    8 2     
   16    7   35 1     
   17    8    9 1     
   18    9   23 ar    
   19    9   10 ar    
   20   10   11 1     
   21   10   20 ar    
   22   11   19 1     
   23   11   12 1     
   24   12   13 1     
   25   12   36 1     
   26   12   37 1     
   27   13   14 1     
   28   13   38 1     
   29   13   39 1     
   30   14   19 ar    
   31   14   15 ar    
   32   15   16 ar    
   33   15   40 1     
   34   16   17 ar    
   35   16   41 1     
   36   17   18 ar    
   37   17   42 1     
   38   18   19 ar    
   39   18   43 1     
   40   20   21 ar    
   41   21   22 ar    
   42   21   44 1     
   43   22   23 ar    
   44   24   30 1     
   45   24   25 1     
   46   24   26 1     
   47   25   45 1     
   48   26   31 1     
   49   26   27 1     
   50   27   46 1     
   51    1   47 1     
   52    1   48 1     
   53    4   49 1     
   54    4   50 1     
   55    8   51 1     
   56   20   52 1     
   57   22   53 1     
   58   25   54 1     
   59   25   55 1     
   60   27   56 1     
   61   27   57 1     
@<TRIPOS>SUBSTRUCTURE
      1 S1             1
@<TRIPOS>SET
LONE_PAIRS      STATIC     ATOMS    <user>   **** ""
11 47 48 49 50 51 52 53 54 55 56 57
DONOR_HYDROGENS      STATIC     ATOMS    <user>   **** ""
3 32 45 46
ATOM$BLUE        STATIC     ATOMS    COLORGROUP SYSTEM
11 47 48 49 50 51 52 53 54 55 56 57
ATOM$RED        STATIC     ATOMS    COLORGROUP SYSTEM
3 32 45 46
