AV-unprocessed.smi:1127|AV-procd|sdf|4841|dock6
  -GOLD-   22720 3403D 1   1.00000     0.00000
 Structure written by MMmdl.
 42 43  0  0  0  0  0  0  0  0  1 V2000
  150.4478  139.2195  155.5315 C   0  0  0  0  0  0  0  0  0  0  0  0
  150.5200  137.6711  154.5135 S   0  0  1  0  0  0  0  0  0  0  0  0
  151.9954  137.3927  154.2203 O   0  0  0  0  0  0  0  0  0  0  0  0
  150.1170  136.5603  155.9067 C   0  0  0  0  0  0  0  0  0  0  0  0
  150.0221  136.9639  157.1772 N   0  0  0  0  0  0  0  0  0  0  0  0
  149.6943  135.8252  157.8886 N   0  0  0  0  0  0  0  0  0  0  0  0
  149.6274  134.8588  156.9705 C   0  0  0  0  0  0  0  0  0  0  0  0
  149.8808  135.2492  155.7113 N   0  0  0  0  0  0  0  0  0  0  0  0
  149.8886  134.4537  154.4948 C   0  0  0  0  0  0  0  0  0  0  0  0
  148.5921  133.6558  154.3302 C   0  0  0  0  0  0  0  0  0  0  0  0
  148.3217  132.7408  155.1083 O   0  0  0  0  0  0  0  0  0  0  0  0
  147.7915  134.0303  153.3206 N   0  0  0  0  0  0  0  0  0  0  0  0
  146.4840  133.4566  153.0109 C   0  0  0  0  0  0  0  0  0  0  0  0
  146.5721  132.6809  151.6789 C   0  0  0  0  0  0  0  0  0  0  0  0
  145.2247  132.2146  151.0916 C   0  0  0  0  0  0  0  0  0  0  0  0
  144.7098  133.0666  149.9132 C   0  0  0  0  0  0  0  0  0  0  0  0
  144.2421  134.5000  150.2400 C   0  0  0  0  0  0  0  0  0  0  0  0
  145.3695  135.4706  150.6467 C   0  0  0  0  0  0  0  0  0  0  0  0
  145.4924  135.7477  152.1573 C   0  0  0  0  0  0  0  0  0  0  0  0
  145.3791  134.5345  153.1021 C   0  0  0  0  0  0  0  0  0  0  0  0
  149.6393  139.1679  156.2613 H   0  0  0  0  0  0  0  0  0  0  0  0
  150.2761  140.0826  154.8894 H   0  0  0  0  0  0  0  0  0  0  0  0
  151.3878  139.3662  156.0633 H   0  0  0  0  0  0  0  0  0  0  0  0
  149.3851  133.8374  157.2252 H   0  0  0  0  0  0  0  0  0  0  0  0
  150.0482  135.1182  153.6443 H   0  0  0  0  0  0  0  0  0  0  0  0
  150.7317  133.7628  154.5277 H   0  0  0  0  0  0  0  0  0  0  0  0
  148.0995  134.7922  152.7336 H   0  0  0  0  0  0  0  0  0  0  0  0
  146.2464  132.7122  153.7732 H   0  0  0  0  0  0  0  0  0  0  0  0
  147.1363  133.2387  150.9327 H   0  0  0  0  0  0  0  0  0  0  0  0
  147.1811  131.7952  151.8655 H   0  0  0  0  0  0  0  0  0  0  0  0
  145.3677  131.2031  150.7093 H   0  0  0  0  0  0  0  0  0  0  0  0
  144.4642  132.1143  151.8657 H   0  0  0  0  0  0  0  0  0  0  0  0
  145.4693  133.1021  149.1314 H   0  0  0  0  0  0  0  0  0  0  0  0
  143.8656  132.5383  149.4688 H   0  0  0  0  0  0  0  0  0  0  0  0
  143.7833  134.8952  149.3329 H   0  0  0  0  0  0  0  0  0  0  0  0
  143.4392  134.4921  150.9772 H   0  0  0  0  0  0  0  0  0  0  0  0
  146.3231  135.1435  150.2358 H   0  0  0  0  0  0  0  0  0  0  0  0
  145.1856  136.4297  150.1612 H   0  0  0  0  0  0  0  0  0  0  0  0
  146.4247  136.2798  152.3460 H   0  0  0  0  0  0  0  0  0  0  0  0
  144.7012  136.4460  152.4323 H   0  0  0  0  0  0  0  0  0  0  0  0
  144.3981  134.0739  152.9992 H   0  0  0  0  0  0  0  0  0  0  0  0
  145.3787  134.9196  154.1225 H   0  0  0  0  0  0  0  0  0  0  0  0
  1  2  1  0  0  0  0
  1 21  1  0  0  0  0
  1 22  1  0  0  0  0
  1 23  1  0  0  0  0
  2  3  2  0  0  0  0
  2  4  1  0  0  0  0
  4  8  1  0  0  0  0
  4  5  2  0  0  0  0
  5  6  1  0  0  0  0
  6  7  2  0  0  0  0
  7  8  1  0  0  0  0
  7 24  1  0  0  0  0
  8  9  1  0  0  0  0
  9 10  1  0  0  0  0
  9 25  1  0  0  0  0
  9 26  1  0  0  0  0
 10 11  2  0  0  0  0
 10 12  1  0  0  0  0
 12 13  1  0  0  0  0
 12 27  1  0  0  0  0
 13 20  1  0  0  0  0
 13 14  1  0  0  0  0
 13 28  1  0  0  0  0
 14 15  1  0  0  0  0
 14 29  1  0  0  0  0
 14 30  1  0  0  0  0
 15 16  1  0  0  0  0
 15 31  1  0  0  0  0
 15 32  1  0  0  0  0
 16 17  1  0  0  0  0
 16 33  1  0  0  0  0
 16 34  1  0  0  0  0
 17 18  1  0  0  0  0
 17 35  1  0  0  0  0
 17 36  1  0  0  0  0
 18 19  1  0  0  0  0
 18 37  1  0  0  0  0
 18 38  1  0  0  0  0
 19 20  1  0  0  0  0
 19 39  1  0  0  0  0
 19 40  1  0  0  0  0
 20 41  1  0  0  0  0
 20 42  1  0  0  0  0
M  END
> <s_m_source_file>
AV-unprocessed.smi

> <i_m_source_file_index>
1127

> <i_lp_mmshare_version>
43012

> <i_f3d_flags>
0

> <s_epik_input>
W0NIM11bU0BdKD1PKWMxbm5bY0hdbjFbQ0gyXUMoPU8pW05IXVtDSF0yW0NIMl1bQ0gyXVtDSDJdW0NIMl1bQ0gyXVtDSDJdW0NIMl0y

> <s_epik_cmdline>
J2VwaWtfcHl0aG9uJywgJy1waCcsICc3LjAnLCAnLXRuJywgJzgnLCAnLW1hJywgJzIwMCcsICctbWV0YWxfYmluZGluZycsICctaW1hZScsICc8aW5maWxlLm1hZT4nLCAnLW9tYWUnLCAnPG91dGZpbGUubWFlPic=

> <r_lp_tautomer_probability>
1

> <r_epik_Ionization_Penalty>
7.34999e-08

> <r_epik_Ionization_Penalty_Charging>
0

> <r_epik_Ionization_Penalty_Neutral>
7.34999e-08

> <r_epik_State_Penalty>
-0

> <r_epik_Charging_Adjusted_Penalty>
0

> <i_epik_Tot_Q>
0

> <i_epik_Tot_abs_Q>
0

> <r_epik_Metal_State_Penalty>
-0

> <b_epik_Metal_Only>
0

> <s_lp_Force_Field>
OPLS_2005

> <r_lp_Energy>
17.4242

> <b_lp_Chiralities_Consistent>
1

> <s_lp_Variant>
AV-unprocessed.smi:1127-2

> <Gold.Version>
5.8.1

> <Gold.Id.Protein>
6NUR|6NUR_protein|mol2

> <Gold.PLP.Fitness>
38.5159

> <Gold.PLP.PLP>
-31.0743

> <Gold.PLP.part.hbond>
-3.0000

> <Gold.PLP.part.metal>
0.0000

> <Gold.PLP.part.buried>
-5.3396

> <Gold.PLP.part.nonpolar>
-24.4551

> <Gold.PLP.part.repulsive>
0.5963

> <Gold.PLP.ligand.clash>
0.0000

> <Gold.PLP.ligand.torsion>
0.8772

> <Gold.PLP.Chemscore.Hbond>
2.7120

> <Gold.PLP.Chemscore.CHOScore>
0.0000

> <Gold.PLP.Chemscore.Metal>
0.0000

> <Gold.Chemscore.Hbonds>
donor molecule, donor type, donor heavy atom, donor atom, acceptor molecule, acceptor atom, score
      L1  H    12    27       P1  7948  1.00
      P1  H  6896  6907       L1     6  0.16
      P1  H 10752 10763       L1     3  0.93

> <Gold.PLP.Chemscore.Internal.Correction>
1.0601

> <Gold.Rescore>
     Score         DG    S(hbond)    S(metal)    S(lipo)     H(rot)  DE(clash)    DE(int)     intcor
     14.78     -16.18       2.39        0.00      60.37       1.70       0.43       0.97       ----

> <Gold.Chemscore.Fitness>
14.7759

> <Gold.Chemscore.DG>
-16.1780

> <Gold.Chemscore.ZeroCoef>
-5.4800

> <Gold.Chemscore.Hbond>
2.3945

> <Gold.Chemscore.Metal>
0.0000

> <Gold.Chemscore.Lipo>
60.3721

> <Gold.Chemscore.Internal_Hbond>
0.0000

> <Gold.Chemscore.DEClash>
0.4279

> <Gold.Chemscore.DEInternal>
0.9742

> <Gold.Chemscore.Rot>
1.7044

> <Gold.Chemscore.Internal.Correction>
   9.000000E+99

> <Gold.Chemscore.Hbonds>
donor molecule, donor type, donor heavy atom, donor atom, acceptor molecule, acceptor atom, score
      L1  H    12    27       P1  7948  0.74
      P1  H  6896  6907       L1     6  0.01
      P1  H 10752 10763       L1     3  0.88

> <Gold.Chemscore.Hbond.Weighted>
-7.9976

> <Gold.Chemscore.Metal.Weighted>
-0.0000

> <Gold.Chemscore.Lipo.Weighted>
-7.0635

> <Gold.Chemscore.Internal_Hbond.Weighted>
0.0000

> <Gold.Chemscore.DEClash.Weighted>
0.4279

> <Gold.Chemscore.DEInternal.Weighted>
0.9742

> <Gold.Chemscore.Rot.Weighted>
4.3631

> <Gold.Chemscore.Internal.Correction.Weighted>
   9.000000E+99

> <Gold.Protein.RotatedTorsions>
[ 6907 6896 6895 6894 ] final  -82.17 input  -60.11 | X-H torsion
[ 7974 7965 7964 7962 ] final   60.06 input  175.53 | X-H torsion
[ 8008 7997 7996 7995 ] final   -0.48 input   59.86 | X-H torsion
[ 10167 10162 10161 10158 ] final   69.91 input  -65.29 | X-H torsion
[ 10718 10713 10712 10709 ] final -177.92 input   66.30 | X-H torsion
[ 10763 10752 10751 10750 ] final   33.49 input  -60.55 | X-H torsion
[ 11005 11000 10999 10996 ] final   32.77 input  -57.11 | X-H torsion

> <Gold.Protein.ActiveResidues>
 VAL166  LYS551  ARG553  GLY616  TRP617  ASP618  TYR619  PRO620  LYS621  CYS622 
 ASP623  PHE694  ASN695  SER759  ASP760  ASP761  ALA762  ILE779  LEU786  VAL792 
 PHE793  MET794  SER795  GLU796  ALA797  LYS798  CYS799  TRP800  GLU811  SER814 

> <Gold.Protein.RotatedAtoms>
  150.6901  134.3705  159.4989 H   0  0  0  0  0  0  0  0  0  0  0  0  # atno 6907 bound_to 6896
  152.1522  134.8977  160.0556 H   0  0  0  0  0  0  0  0  0  0  0  0  # atno 6908 bound_to 6896
  152.0070  133.3812  159.4241 H   0  0  0  0  0  0  0  0  0  0  0  0  # atno 6909 bound_to 6896
  145.9003  139.3576  143.0597 H   0  0  0  0  0  0  0  0  0  0  0  0  # atno 7974 bound_to 7965
  154.6576  140.2583  155.7144 H   0  0  0  0  0  0  0  0  0  0  0  0  # atno 8008 bound_to 7997
  156.2604  140.2855  156.0956 H   0  0  0  0  0  0  0  0  0  0  0  0  # atno 8009 bound_to 7997
  155.1357  140.0379  157.2776 H   0  0  0  0  0  0  0  0  0  0  0  0  # atno 8010 bound_to 7997
  140.0627  144.5219  150.7283 H   0  0  0  0  0  0  0  0  0  0  0  0  # atno 10167 bound_to 10162
  156.8366  130.9672  151.3103 H   0  0  0  0  0  0  0  0  0  0  0  0  # atno 10718 bound_to 10713
  153.0209  135.6385  154.1519 H   0  0  0  0  0  0  0  0  0  0  0  0  # atno 10763 bound_to 10752
  154.1254  135.2844  155.3200 H   0  0  0  0  0  0  0  0  0  0  0  0  # atno 10764 bound_to 10752
  154.6233  135.5517  153.7661 H   0  0  0  0  0  0  0  0  0  0  0  0  # atno 10765 bound_to 10752
  140.2700  134.3093  155.7831 H   0  0  0  0  0  0  0  0  0  0  0  0  # atno 11005 bound_to 11000
  145.8800  140.9369  143.0606 LP  0  0  0  0  0  0  0  0  0  0  0  0  # atno 17320 bound_to 7965
  144.6735  140.0767  143.7471 LP  0  0  0  0  0  0  0  0  0  0  0  0  # atno 17321 bound_to 7965
  140.7164  143.2548  151.4421 LP  0  0  0  0  0  0  0  0  0  0  0  0  # atno 17342 bound_to 10162
  139.5884  144.1554  152.2057 LP  0  0  0  0  0  0  0  0  0  0  0  0  # atno 17343 bound_to 10162
  157.6378  130.8781  149.9391 LP  0  0  0  0  0  0  0  0  0  0  0  0  # atno 17370 bound_to 10713
  156.0904  130.3664  150.0406 LP  0  0  0  0  0  0  0  0  0  0  0  0  # atno 17371 bound_to 10713
  141.2179  133.7461  156.9320 LP  0  0  0  0  0  0  0  0  0  0  0  0  # atno 17394 bound_to 11000
  140.1382  134.9311  157.2431 LP  0  0  0  0  0  0  0  0  0  0  0  0  # atno 17395 bound_to 11000

$$$$
