AV-unprocessed.smi:2525|AV-procd|sdf|9927|dock7
  -GOLD-   2272013563D 1   1.00000     0.00000
 Structure written by MMmdl.
 44 45  0  0  0  0  0  0  0  0  1 V2000
  151.6000  138.6829  158.7953 C   0  0  0  0  0  0  0  0  0  0  0  0
  150.4478  139.6051  158.3720 C   0  0  0  0  0  0  0  0  0  0  0  0
  150.8514  140.8382  157.5332 C   0  0  0  0  0  0  0  0  0  0  0  0
  151.1237  140.3570  156.0731 C   0  0  0  0  0  0  0  0  0  0  0  0
  152.2069  139.2776  155.9042 C   0  0  0  0  0  0  0  0  0  0  0  0
  149.8871  142.0499  157.6973 C   0  0  2  0  0  0  0  0  0  0  0  0
  148.9267  142.2300  156.6158 N   0  0  0  0  0  0  0  0  0  0  0  0
  147.9058  141.3988  156.3603 C   0  0  0  0  0  0  0  0  0  0  0  0
  147.6043  140.4501  157.0838 O   0  0  0  0  0  0  0  0  0  0  0  0
  147.1232  141.6623  155.0740 C   0  0  0  0  0  0  0  0  0  0  0  0
  146.9498  140.4335  154.3189 N   0  0  0  0  0  0  0  0  0  0  0  0
  147.6377  140.0069  153.2012 C   0  0  0  0  0  0  0  0  0  0  0  0
  147.0455  138.8139  152.8998 C   0  0  0  0  0  0  0  0  0  0  0  0
  146.0384  138.5672  153.8310 N   0  0  0  0  0  0  0  0  0  0  0  0
  145.9918  139.5457  154.6793 N   0  0  0  0  0  0  0  0  0  0  0  0
  151.0985  142.9822  157.5873 C   0  0  1  0  0  0  0  0  0  0  0  0
  151.0795  144.3343  158.2887 C   0  0  0  0  0  0  0  0  0  0  0  0
  151.9038  141.8001  158.1619 C   0  0  1  0  0  0  0  0  0  0  0  0
  151.8752  141.7582  159.5858 O   0  0  0  0  0  0  0  0  0  0  0  0
  152.7592  142.6866  160.1907 C   0  0  0  0  0  0  0  0  0  0  0  0
  151.2503  137.9443  159.5166 H   0  0  0  0  0  0  0  0  0  0  0  0
  152.4109  139.2413  159.2631 H   0  0  0  0  0  0  0  0  0  0  0  0
  152.0037  138.1310  157.9477 H   0  0  0  0  0  0  0  0  0  0  0  0
  149.6978  139.0150  157.8441 H   0  0  0  0  0  0  0  0  0  0  0  0
  149.9431  139.9329  159.2813 H   0  0  0  0  0  0  0  0  0  0  0  0
  150.2024  139.9941  155.6161 H   0  0  0  0  0  0  0  0  0  0  0  0
  151.4288  141.1849  155.4342 H   0  0  0  0  0  0  0  0  0  0  0  0
  152.1988  138.8890  154.8856 H   0  0  0  0  0  0  0  0  0  0  0  0
  152.0713  138.4339  156.5778 H   0  0  0  0  0  0  0  0  0  0  0  0
  153.2027  139.6850  156.0778 H   0  0  0  0  0  0  0  0  0  0  0  0
  149.4330  142.1027  158.6901 H   0  0  0  0  0  0  0  0  0  0  0  0
  149.0975  142.9889  155.9719 H   0  0  0  0  0  0  0  0  0  0  0  0
  146.1396  142.0713  155.3090 H   0  0  0  0  0  0  0  0  0  0  0  0
  147.6447  142.4012  154.4635 H   0  0  0  0  0  0  0  0  0  0  0  0
  148.4399  140.5647  152.7411 H   0  0  0  0  0  0  0  0  0  0  0  0
  147.2556  138.1211  152.0983 H   0  0  0  0  0  0  0  0  0  0  0  0
  151.3748  143.1137  156.5387 H   0  0  0  0  0  0  0  0  0  0  0  0
  150.7957  144.2392  159.3369 H   0  0  0  0  0  0  0  0  0  0  0  0
  150.3657  145.0097  157.8171 H   0  0  0  0  0  0  0  0  0  0  0  0
  152.0584  144.8123  158.2513 H   0  0  0  0  0  0  0  0  0  0  0  0
  152.9112  141.7023  157.7583 H   0  0  0  0  0  0  0  0  0  0  0  0
  152.6546  142.6374  161.2744 H   0  0  0  0  0  0  0  0  0  0  0  0
  152.5461  143.7087  159.8775 H   0  0  0  0  0  0  0  0  0  0  0  0
  153.7959  142.4551  159.9430 H   0  0  0  0  0  0  0  0  0  0  0  0
  1  2  1  0  0  0  0
  1 21  1  0  0  0  0
  1 22  1  0  0  0  0
  1 23  1  0  0  0  0
  2  3  1  0  0  0  0
  2 24  1  0  0  0  0
  2 25  1  0  0  0  0
  3 18  1  0  0  0  0
  3  4  1  0  0  0  0
  3  6  1  0  0  0  0
  4  5  1  0  0  0  0
  4 26  1  0  0  0  0
  4 27  1  0  0  0  0
  5 28  1  0  0  0  0
  5 29  1  0  0  0  0
  5 30  1  0  0  0  0
  6  7  1  0  0  0  0
  6 16  1  0  0  0  0
  6 31  1  0  0  0  0
  7  8  1  0  0  0  0
  7 32  1  0  0  0  0
  8  9  2  0  0  0  0
  8 10  1  0  0  0  0
 10 11  1  0  0  0  0
 10 33  1  0  0  0  0
 10 34  1  0  0  0  0
 11 15  1  0  0  0  0
 11 12  1  0  0  0  0
 12 13  2  0  0  0  0
 12 35  1  0  0  0  0
 13 14  1  0  0  0  0
 13 36  1  0  0  0  0
 14 15  2  0  0  0  0
 16 17  1  0  0  0  0
 16 18  1  0  0  0  0
 16 37  1  0  0  0  0
 17 38  1  0  0  0  0
 17 39  1  0  0  0  0
 17 40  1  0  0  0  0
 18 19  1  0  0  0  0
 18 41  1  0  0  0  0
 19 20  1  0  0  0  0
 20 42  1  0  0  0  0
 20 43  1  0  0  0  0
 20 44  1  0  0  0  0
M  END
> <s_m_source_file>
AV-unprocessed.smi

> <i_m_source_file_index>
2525

> <i_lp_mmshare_version>
43012

> <i_f3d_flags>
0

> <s_epik_input>
W0NIM11PW0NAQEhdMVtDQEhdKFtDSDNdKVtDQEBIXShDMShbQ0gyXVtDSDNdKVtDSDJdW0NIM10pW05IXUMoPU8pW0NIMl1uMltjSF1bY0hdbm4y

> <s_epik_cmdline>
J2VwaWtfcHl0aG9uJywgJy1waCcsICc3LjAnLCAnLXRuJywgJzgnLCAnLW1hJywgJzIwMCcsICctbWV0YWxfYmluZGluZycsICctaW1hZScsICc8aW5maWxlLm1hZT4nLCAnLW9tYWUnLCAnPG91dGZpbGUubWFlPic=

> <r_lp_tautomer_probability>
1

> <r_epik_Ionization_Penalty>
1.18045e-06

> <r_epik_Ionization_Penalty_Charging>
0

> <r_epik_Ionization_Penalty_Neutral>
1.18045e-06

> <r_epik_State_Penalty>
-0

> <r_epik_Charging_Adjusted_Penalty>
0

> <i_epik_Tot_Q>
0

> <i_epik_Tot_abs_Q>
0

> <r_epik_Metal_State_Penalty>
-0

> <b_epik_Metal_Only>
0

> <s_lp_Force_Field>
OPLS_2005

> <r_lp_Energy>
28.7766

> <b_lp_Chiralities_Consistent>
1

> <s_lp_Variant>
AV-unprocessed.smi:2525-2

> <Gold.Version>
5.8.1

> <Gold.Id.Protein>
6NUR|6NUR_protein|mol2

> <Gold.PLP.Fitness>
38.9936

> <Gold.PLP.PLP>
-31.4803

> <Gold.PLP.part.hbond>
-1.0000

> <Gold.PLP.part.metal>
0.0000

> <Gold.PLP.part.buried>
-3.4530

> <Gold.PLP.part.nonpolar>
-29.1409

> <Gold.PLP.part.repulsive>
0.2764

> <Gold.PLP.ligand.clash>
0.0000

> <Gold.PLP.ligand.torsion>
0.8871

> <Gold.PLP.Chemscore.Hbond>
0.9280

> <Gold.PLP.Chemscore.CHOScore>
1.9375

> <Gold.PLP.Chemscore.Metal>
0.0000

> <Gold.Chemscore.Hbonds>
donor molecule, donor type, donor heavy atom, donor atom, acceptor molecule, acceptor atom, score
      L1  H     7    32       P1  8028  0.91
      L1  C    12    35       P1  7957  0.96
      L1  C    13    36       P1  7948  1.00

> <Gold.PLP.Chemscore.Internal.Correction>
0.6908

> <Gold.Rescore>
     Score         DG    S(hbond)    S(metal)    S(lipo)     H(rot)  DE(clash)    DE(int)     intcor
     10.76     -14.74       0.98        0.00      94.45       1.98       0.07       3.91       ----

> <Gold.Chemscore.Fitness>
10.7623

> <Gold.Chemscore.DG>
-14.7420

> <Gold.Chemscore.ZeroCoef>
-5.4800

> <Gold.Chemscore.Hbond>
0.9833

> <Gold.Chemscore.Metal>
0.0000

> <Gold.Chemscore.Lipo>
94.4517

> <Gold.Chemscore.Internal_Hbond>
0.0000

> <Gold.Chemscore.DEClash>
0.0654

> <Gold.Chemscore.DEInternal>
3.9143

> <Gold.Chemscore.Rot>
1.9817

> <Gold.Chemscore.Internal.Correction>
   9.000000E+99

> <Gold.Chemscore.Hbonds>
donor molecule, donor type, donor heavy atom, donor atom, acceptor molecule, acceptor atom, score
      L1  H     7    32       P1  8028  0.90

> <Gold.Chemscore.Hbond.Weighted>
-3.2842

> <Gold.Chemscore.Metal.Weighted>
-0.0000

> <Gold.Chemscore.Lipo.Weighted>
-11.0508

> <Gold.Chemscore.Internal_Hbond.Weighted>
0.0000

> <Gold.Chemscore.DEClash.Weighted>
0.0654

> <Gold.Chemscore.DEInternal.Weighted>
3.9143

> <Gold.Chemscore.Rot.Weighted>
5.0731

> <Gold.Chemscore.Internal.Correction.Weighted>
   9.000000E+99

> <Gold.Protein.RotatedTorsions>
[ 6907 6896 6895 6894 ] final  -56.28 input  -60.11 | X-H torsion
[ 7974 7965 7964 7962 ] final  112.46 input  175.53 | X-H torsion
[ 8008 7997 7996 7995 ] final  137.73 input   59.86 | X-H torsion
[ 10167 10162 10161 10158 ] final  115.36 input  -65.29 | X-H torsion
[ 10718 10713 10712 10709 ] final   16.42 input   66.30 | X-H torsion
[ 10763 10752 10751 10750 ] final  -23.99 input  -60.55 | X-H torsion
[ 11005 11000 10999 10996 ] final -114.64 input  -57.11 | X-H torsion

> <Gold.Protein.ActiveResidues>
 VAL166  LYS551  ARG553  GLY616  TRP617  ASP618  TYR619  PRO620  LYS621  CYS622 
 ASP623  PHE694  ASN695  SER759  ASP760  ASP761  ALA762  ILE779  LEU786  VAL792 
 PHE793  MET794  SER795  GLU796  ALA797  LYS798  CYS799  TRP800  GLU811  SER814 

> <Gold.Protein.RotatedAtoms>
  150.8180  134.7373  159.6747 H   0  0  0  0  0  0  0  0  0  0  0  0  # atno 6907 bound_to 6896
  152.4298  134.5796  159.9954 H   0  0  0  0  0  0  0  0  0  0  0  0  # atno 6908 bound_to 6896
  151.5988  133.3321  159.3079 H   0  0  0  0  0  0  0  0  0  0  0  0  # atno 6909 bound_to 6896
  145.2293  139.2826  143.4176 H   0  0  0  0  0  0  0  0  0  0  0  0  # atno 7974 bound_to 7965
  156.3001  140.2412  156.3958 H   0  0  0  0  0  0  0  0  0  0  0  0  # atno 8008 bound_to 7997
  154.8572  140.0421  157.1662 H   0  0  0  0  0  0  0  0  0  0  0  0  # atno 8009 bound_to 7997
  154.8935  140.2966  155.5361 H   0  0  0  0  0  0  0  0  0  0  0  0  # atno 8010 bound_to 7997
  139.6322  144.7116  151.2408 H   0  0  0  0  0  0  0  0  0  0  0  0  # atno 10167 bound_to 10162
  157.0676  130.6335  149.5799 H   0  0  0  0  0  0  0  0  0  0  0  0  # atno 10718 bound_to 10713
  153.6767  135.6969  153.5130 H   0  0  0  0  0  0  0  0  0  0  0  0  # atno 10763 bound_to 10752
  153.2516  135.4273  155.0802 H   0  0  0  0  0  0  0  0  0  0  0  0  # atno 10764 bound_to 10752
  154.8411  135.3533  154.6311 H   0  0  0  0  0  0  0  0  0  0  0  0  # atno 10765 bound_to 10752
  141.0539  133.9643  157.2788 H   0  0  0  0  0  0  0  0  0  0  0  0  # atno 11005 bound_to 11000
  146.3357  140.2623  142.8602 LP  0  0  0  0  0  0  0  0  0  0  0  0  # atno 17320 bound_to 7965
  144.9691  140.8351  143.5466 LP  0  0  0  0  0  0  0  0  0  0  0  0  # atno 17321 bound_to 7965
  140.7446  143.6459  150.8292 LP  0  0  0  0  0  0  0  0  0  0  0  0  # atno 17342 bound_to 10162
  140.0085  143.5667  152.2848 LP  0  0  0  0  0  0  0  0  0  0  0  0  # atno 17343 bound_to 10162
  155.9960  130.5028  150.7479 LP  0  0  0  0  0  0  0  0  0  0  0  0  # atno 17370 bound_to 10713
  157.4904  131.0910  151.0433 LP  0  0  0  0  0  0  0  0  0  0  0  0  # atno 17371 bound_to 10713
  139.9373  135.0195  156.8598 LP  0  0  0  0  0  0  0  0  0  0  0  0  # atno 17394 bound_to 11000
  140.6002  134.0179  155.7534 LP  0  0  0  0  0  0  0  0  0  0  0  0  # atno 17395 bound_to 11000

$$$$
