AV-unprocessed.smi:2452|AV-procd|sdf|9686|dock2
  -GOLD-   2272013323D 1   1.00000     0.00000
 Structure written by MMmdl.
 34 35  0  0  0  0  0  0  0  0  1 V2000
  147.0473  141.0974  153.4372 C   0  0  0  0  0  0  0  0  0  0  0  0
  148.4388  140.6542  153.7866 C   0  0  0  0  0  0  0  0  0  0  0  0
  149.3406  141.5440  154.1677 N   0  0  0  0  0  0  0  0  0  0  0  0
  150.5236  140.8278  154.4062 O   0  0  0  0  0  0  0  0  0  0  0  0
  150.3057  139.5067  154.1631 C   0  0  0  0  0  0  0  0  0  0  0  0
  151.4877  138.6070  154.3156 C   0  0  0  0  0  0  0  0  0  0  0  0
  148.9959  139.3485  153.7951 C   0  0  0  0  0  0  0  0  0  0  0  0
  148.2974  138.1739  153.4147 N   0  0  0  0  0  0  0  0  0  0  0  0
  147.0187  137.8650  153.6796 C   0  0  0  0  0  0  0  0  0  0  0  0
  146.2261  138.5905  154.2796 O   0  0  0  0  0  0  0  0  0  0  0  0
  146.6952  136.6625  153.1852 N   0  0  0  0  0  0  0  0  0  0  0  0
  145.3839  136.0348  153.3033 C   0  0  0  0  0  0  0  0  0  0  0  0
  145.3914  134.5997  152.7509 C   0  0  1  0  0  0  0  0  0  0  0  0
  144.0169  133.9338  152.7403 C   0  0  0  0  0  0  0  0  0  0  0  0
  144.1230  132.9102  151.6193 C   0  0  0  0  0  0  0  0  0  0  0  0
  145.3946  133.3096  150.8648 C   0  0  0  0  0  0  0  0  0  0  0  0
  145.7414  134.5886  151.3759 O   0  0  0  0  0  0  0  0  0  0  0  0
  146.5563  140.3794  152.7802 H   0  0  0  0  0  0  0  0  0  0  0  0
  147.0542  142.0600  152.9250 H   0  0  0  0  0  0  0  0  0  0  0  0
  146.4347  141.2002  154.3331 H   0  0  0  0  0  0  0  0  0  0  0  0
  151.4768  137.8174  153.5642 H   0  0  0  0  0  0  0  0  0  0  0  0
  151.4961  138.1428  155.3017 H   0  0  0  0  0  0  0  0  0  0  0  0
  152.4181  139.1628  154.1993 H   0  0  0  0  0  0  0  0  0  0  0  0
  148.7999  137.5383  152.8128 H   0  0  0  0  0  0  0  0  0  0  0  0
  147.4089  136.1357  152.7037 H   0  0  0  0  0  0  0  0  0  0  0  0
  145.0677  136.0354  154.3477 H   0  0  0  0  0  0  0  0  0  0  0  0
  144.6605  136.6436  152.7601 H   0  0  0  0  0  0  0  0  0  0  0  0
  146.0956  133.9746  153.3037 H   0  0  0  0  0  0  0  0  0  0  0  0
  143.7614  133.4870  153.7017 H   0  0  0  0  0  0  0  0  0  0  0  0
  143.2446  134.6638  152.4934 H   0  0  0  0  0  0  0  0  0  0  0  0
  144.2084  131.8947  152.0080 H   0  0  0  0  0  0  0  0  0  0  0  0
  143.2441  132.9503  150.9749 H   0  0  0  0  0  0  0  0  0  0  0  0
  146.2028  132.6082  151.0777 H   0  0  0  0  0  0  0  0  0  0  0  0
  145.2493  133.3429  149.7847 H   0  0  0  0  0  0  0  0  0  0  0  0
  1  2  1  0  0  0  0
  1 18  1  0  0  0  0
  1 19  1  0  0  0  0
  1 20  1  0  0  0  0
  2  7  1  0  0  0  0
  2  3  2  0  0  0  0
  3  4  1  0  0  0  0
  4  5  1  0  0  0  0
  5  6  1  0  0  0  0
  5  7  2  0  0  0  0
  6 21  1  0  0  0  0
  6 22  1  0  0  0  0
  6 23  1  0  0  0  0
  7  8  1  0  0  0  0
  8  9  1  0  0  0  0
  8 24  1  0  0  0  0
  9 10  2  0  0  0  0
  9 11  1  0  0  0  0
 11 12  1  0  0  0  0
 11 25  1  0  0  0  0
 12 13  1  0  0  0  0
 12 26  1  0  0  0  0
 12 27  1  0  0  0  0
 13 17  1  0  0  0  0
 13 14  1  0  0  0  0
 13 28  1  0  0  0  0
 14 15  1  0  0  0  0
 14 29  1  0  0  0  0
 14 30  1  0  0  0  0
 15 16  1  0  0  0  0
 15 31  1  0  0  0  0
 15 32  1  0  0  0  0
 16 17  1  0  0  0  0
 16 33  1  0  0  0  0
 16 34  1  0  0  0  0
M  END
> <s_m_source_file>
AV-unprocessed.smi

> <i_m_source_file_index>
2452

> <i_lp_mmshare_version>
43012

> <i_f3d_flags>
0

> <s_epik_input>
W0NIM11jMW5vYyhbQ0gzXSljMVtOSF1DKD1PKVtOSF1bQ0gyXVtDQEBIXTJbQ0gyXVtDSDJdW0NIMl1PMg==

> <s_epik_cmdline>
J2VwaWtfcHl0aG9uJywgJy1waCcsICc3LjAnLCAnLXRuJywgJzgnLCAnLW1hJywgJzIwMCcsICctbWV0YWxfYmluZGluZycsICctaW1hZScsICc8aW5maWxlLm1hZT4nLCAnLW9tYWUnLCAnPG91dGZpbGUubWFlPic=

> <r_lp_tautomer_probability>
1

> <r_epik_Ionization_Penalty>
3.28451e-05

> <r_epik_Ionization_Penalty_Charging>
0

> <r_epik_Ionization_Penalty_Neutral>
3.28451e-05

> <r_epik_State_Penalty>
-0

> <r_epik_Charging_Adjusted_Penalty>
0

> <i_epik_Tot_Q>
0

> <i_epik_Tot_abs_Q>
0

> <r_epik_Metal_State_Penalty>
-0

> <b_epik_Metal_Only>
0

> <s_lp_Force_Field>
OPLS_2005

> <r_lp_Energy>
18.1661

> <b_lp_Chiralities_Consistent>
1

> <s_lp_Variant>
AV-unprocessed.smi:2452-2

> <Gold.Version>
5.8.1

> <Gold.Id.Protein>
6NUR|6NUR_protein|mol2

> <Gold.PLP.Fitness>
35.2863

> <Gold.PLP.PLP>
-26.9137

> <Gold.PLP.part.hbond>
-4.7784

> <Gold.PLP.part.metal>
0.0000

> <Gold.PLP.part.buried>
-0.4788

> <Gold.PLP.part.nonpolar>
-20.8431

> <Gold.PLP.part.repulsive>
0.6060

> <Gold.PLP.ligand.clash>
0.0000

> <Gold.PLP.ligand.torsion>
0.3008

> <Gold.PLP.Chemscore.Hbond>
2.9408

> <Gold.PLP.Chemscore.CHOScore>
0.0000

> <Gold.PLP.Chemscore.Metal>
0.0000

> <Gold.Chemscore.Hbonds>
donor molecule, donor type, donor heavy atom, donor atom, acceptor molecule, acceptor atom, score
      L1  H     8    24       P1  7948  1.00
      L1  H    11    25       P1  7948  0.91
      P1  H  7989  7998       L1     4  0.37
      P1  H  8011  8017       L1     3  0.55

> <Gold.PLP.Chemscore.Internal.Correction>
0.1516

> <Gold.Rescore>
     Score         DG    S(hbond)    S(metal)    S(lipo)     H(rot)  DE(clash)    DE(int)     intcor
     13.96     -15.93       1.92        0.00      61.65       1.23       0.08       1.90       ----

> <Gold.Chemscore.Fitness>
13.9569

> <Gold.Chemscore.DG>
-15.9315

> <Gold.Chemscore.ZeroCoef>
-5.4800

> <Gold.Chemscore.Hbond>
1.9150

> <Gold.Chemscore.Metal>
0.0000

> <Gold.Chemscore.Lipo>
61.6532

> <Gold.Chemscore.Internal_Hbond>
0.0000

> <Gold.Chemscore.DEClash>
0.0761

> <Gold.Chemscore.DEInternal>
1.8985

> <Gold.Chemscore.Rot>
1.2337

> <Gold.Chemscore.Internal.Correction>
   9.000000E+99

> <Gold.Chemscore.Hbonds>
donor molecule, donor type, donor heavy atom, donor atom, acceptor molecule, acceptor atom, score
      L1  H     8    24       P1  7948  0.97
      L1  H    11    25       P1  7948  0.90
      P1  H  7989  7998       L1     4  0.03
      P1  H  8011  8017       L1     3  0.04

> <Gold.Chemscore.Hbond.Weighted>
-6.3962

> <Gold.Chemscore.Metal.Weighted>
-0.0000

> <Gold.Chemscore.Lipo.Weighted>
-7.2134

> <Gold.Chemscore.Internal_Hbond.Weighted>
0.0000

> <Gold.Chemscore.DEClash.Weighted>
0.0761

> <Gold.Chemscore.DEInternal.Weighted>
1.8985

> <Gold.Chemscore.Rot.Weighted>
3.1582

> <Gold.Chemscore.Internal.Correction.Weighted>
   9.000000E+99

> <Gold.Protein.RotatedTorsions>
[ 6907 6896 6895 6894 ] final -105.27 input  -60.11 | X-H torsion
[ 7974 7965 7964 7962 ] final  112.36 input  175.53 | X-H torsion
[ 8008 7997 7996 7995 ] final  141.54 input   59.86 | X-H torsion
[ 10167 10162 10161 10158 ] final   -6.42 input  -65.29 | X-H torsion
[ 10718 10713 10712 10709 ] final  -54.60 input   66.30 | X-H torsion
[ 10763 10752 10751 10750 ] final -116.03 input  -60.55 | X-H torsion
[ 11005 11000 10999 10996 ] final   59.25 input  -57.11 | X-H torsion

> <Gold.Protein.ActiveResidues>
 VAL166  LYS551  ARG553  GLY616  TRP617  ASP618  TYR619  PRO620  LYS621  CYS622 
 ASP623  PHE694  ASN695  SER759  ASP760  ASP761  ALA762  ILE779  LEU786  VAL792 
 PHE793  MET794  SER795  GLU796  ALA797  LYS798  CYS799  TRP800  GLU811  SER814 

> <Gold.Protein.RotatedAtoms>
  150.7328  134.0152  159.3682 H   0  0  0  0  0  0  0  0  0  0  0  0  # atno 6907 bound_to 6896
  151.8113  135.0677  160.0422 H   0  0  0  0  0  0  0  0  0  0  0  0  # atno 6908 bound_to 6896
  152.3070  133.5677  159.5692 H   0  0  0  0  0  0  0  0  0  0  0  0  # atno 6909 bound_to 6896
  145.2305  139.2821  143.4170 H   0  0  0  0  0  0  0  0  0  0  0  0  # atno 7974 bound_to 7965
  156.2964  140.2312  156.4581 H   0  0  0  0  0  0  0  0  0  0  0  0  # atno 8008 bound_to 7997
  154.8042  140.0446  157.1316 H   0  0  0  0  0  0  0  0  0  0  0  0  # atno 8009 bound_to 7997
  154.9498  140.3040  155.5084 H   0  0  0  0  0  0  0  0  0  0  0  0  # atno 8010 bound_to 7997
  140.6996  143.6196  150.8625 H   0  0  0  0  0  0  0  0  0  0  0  0  # atno 10167 bound_to 10162
  156.1437  130.4153  150.0060 H   0  0  0  0  0  0  0  0  0  0  0  0  # atno 10718 bound_to 10713
  154.8504  135.4360  154.1757 H   0  0  0  0  0  0  0  0  0  0  0  0  # atno 10763 bound_to 10752
  153.2860  135.6957  153.7345 H   0  0  0  0  0  0  0  0  0  0  0  0  # atno 10764 bound_to 10752
  153.6531  135.3448  155.3080 H   0  0  0  0  0  0  0  0  0  0  0  0  # atno 10765 bound_to 10752
  140.0318  134.6001  155.9497 H   0  0  0  0  0  0  0  0  0  0  0  0  # atno 11005 bound_to 11000
  146.3354  140.2639  142.8603 LP  0  0  0  0  0  0  0  0  0  0  0  0  # atno 17320 bound_to 7965
  144.9681  140.8341  143.5472 LP  0  0  0  0  0  0  0  0  0  0  0  0  # atno 17321 bound_to 7965
  139.9917  143.5840  152.2908 LP  0  0  0  0  0  0  0  0  0  0  0  0  # atno 17342 bound_to 10162
  139.6497  144.7660  151.2172 LP  0  0  0  0  0  0  0  0  0  0  0  0  # atno 17343 bound_to 10162
  156.7938  130.9265  151.3646 LP  0  0  0  0  0  0  0  0  0  0  0  0  # atno 17370 bound_to 10713
  157.6598  130.8956  149.9805 LP  0  0  0  0  0  0  0  0  0  0  0  0  # atno 17371 bound_to 10713
  141.1835  133.6551  156.5119 LP  0  0  0  0  0  0  0  0  0  0  0  0  # atno 17394 bound_to 11000
  140.4213  134.7184  157.4891 LP  0  0  0  0  0  0  0  0  0  0  0  0  # atno 17395 bound_to 11000

$$$$
