#       Name:                AV-unprocessed.smi:1644
#       Creating user name   scv26
#       Creation time:       Fri Mar 27 07:28:41 2020


#       File generated by GOLD software.
#

@<TRIPOS>MOLECULE
AV-unprocessed.smi:1644
    56    58     1
SMALL
NO_CHARGES


@<TRIPOS>ATOM
      1 ****        -6.8244   2.3570   1.3373 C.3            1 S1                 0.0000
      2 ****        -5.3911   1.9044   1.0394 C.3            1 S1                 0.0000
      3 ****        -4.3384   2.8672   1.6259 C.3            1 S1                 0.0000
      4 ****        -2.8617   2.4893   1.3682 C.3            1 S1                 0.0000
      5 ****        -2.5571   2.2911  -0.0349 N.am           1 S1                 0.0000
      6 ****        -2.0646   1.0707  -0.2846 C.2            1 S1                 0.0000
      7 ****        -1.7086   0.6615  -1.3889 O.2            1 S1                 0.0000
      8 ****        -2.0223   0.3843   0.8725 N.am           1 S1                 0.0000
      9 ****        -1.5355  -0.9927   0.9981 C.3            1 S1                 0.0000
     10 ****         0.0030  -1.0485   1.0842 C.3            1 S1                 0.0000
     11 ****         0.3915  -0.9037   2.4365 O.3            1 S1                 0.0000
     12 ****         0.5550  -2.3908   0.5666 C.3            1 S1                 0.0000
     13 ****         2.0220  -2.4427   0.5824 N.pl3          1 S1                 0.0000
     14 ****         2.8705  -3.0275   1.4705 C.2            1 S1                 0.0000
     15 ****         4.1409  -2.7878   1.0413 N.pl3          1 S1                 1.0000
     16 ****         4.1015  -2.0385  -0.1371 C.ar           1 S1                 0.0000
     17 ****         5.1232  -1.5507  -0.9433 C.ar           1 S1                 0.0000
     18 ****         4.7453  -0.8121  -2.0878 C.ar           1 S1                 0.0000
     19 ****         5.8374  -0.2640  -2.9907 C.3            1 S1                 0.0000
     20 ****         3.3777  -0.5836  -2.3912 C.ar           1 S1                 0.0000
     21 ****         2.9825   0.2148  -3.6219 C.3            1 S1                 0.0000
     22 ****         2.3534  -1.0898  -1.5599 C.ar           1 S1                 0.0000
     23 ****         2.7441  -1.8146  -0.4368 C.ar           1 S1                 0.0000
     24 ****        -2.4636   1.1237   1.8978 C.2            1 S1                 0.0000
     25 ****        -2.5421   0.7914   3.0802 O.2            1 S1                 0.0000
     26 ****        -7.5479   1.6610   0.9123 H              1 S1                 0.0000
     27 ****        -7.0227   3.3424   0.9148 H              1 S1                 0.0000
     28 ****        -7.0047   2.4094   2.4114 H              1 S1                 0.0000
     29 ****        -5.2498   0.9010   1.4417 H              1 S1                 0.0000
     30 ****        -5.2633   1.8248  -0.0405 H              1 S1                 0.0000
     31 ****        -4.5128   3.8642   1.2195 H              1 S1                 0.0000
     32 ****        -4.4964   2.9575   2.7015 H              1 S1                 0.0000
     33 ****        -2.1941   3.2458   1.7825 H              1 S1                 0.0000
     34 ****        -2.6907   3.0085  -0.7330 H              1 S1                 0.0000
     35 ****        -1.9957  -1.5053   1.8453 H              1 S1                 0.0000
     36 ****        -1.8729  -1.5439   0.1185 H              1 S1                 0.0000
     37 ****         0.4431  -0.2352   0.5060 H              1 S1                 0.0000
     38 ****         0.0361  -0.0923   2.7665 H              1 S1                 0.0000
     39 ****         0.1857  -3.2175   1.1755 H              1 S1                 0.0000
     40 ****         0.2206  -2.5838  -0.4535 H              1 S1                 0.0000
     41 ****         2.5868  -3.5777   2.3562 H              1 S1                 0.0000
     42 ****         6.1619  -1.7273  -0.7050 H              1 S1                 0.0000
     43 ****         5.7342  -0.6600  -4.0012 H              1 S1                 0.0000
     44 ****         6.8294  -0.5344  -2.6275 H              1 S1                 0.0000
     45 ****         5.7846   0.8238  -3.0375 H              1 S1                 0.0000
     46 ****         1.8992   0.3049  -3.7083 H              1 S1                 0.0000
     47 ****         3.3496  -0.2697  -4.5268 H              1 S1                 0.0000
     48 ****         3.3969   1.2222  -3.5745 H              1 S1                 0.0000
     49 ****         1.3120  -0.9162  -1.7889 H              1 S1                 0.0000
     50 ****         4.9713  -3.1115   1.5207 H              1 S1                 0.0000
     51 ****        -1.7768   1.2577  -2.1888 LP             1 S1                 0.0000
     52 ****        -1.3510  -0.2673  -1.4865 LP             1 S1                 0.0000
     53 ****         1.3893  -0.8853   2.5004 LP             1 S1                 0.0000
     54 ****         0.0372  -1.6697   2.9729 LP             1 S1                 0.0000
     55 ****        -2.8859   1.4393   3.7599 LP             1 S1                 0.0000
     56 ****        -2.2620  -0.1265   3.3613 LP             1 S1                 0.0000
@<TRIPOS>BOND
    1    1    2 1     
    2    1   26 1     
    3    1   27 1     
    4    1   28 1     
    5    2    3 1     
    6    2   29 1     
    7    2   30 1     
    8    3    4 1     
    9    3   31 1     
   10    3   32 1     
   11    4   24 1     
   12    4    5 1     
   13    4   33 1     
   14    5    6 am    
   15    5   34 1     
   16    6    7 2     
   17    6    8 am    
   18    8    9 1     
   19    8   24 am    
   20    9   10 1     
   21    9   35 1     
   22    9   36 1     
   23   10   11 1     
   24   10   12 1     
   25   10   37 1     
   26   11   38 1     
   27   12   13 1     
   28   12   39 1     
   29   12   40 1     
   30   13   23 1     
   31   13   14 1     
   32   14   15 2     
   33   14   41 1     
   34   15   16 1     
   35   15   50 1     
   36   16   23 ar    
   37   16   17 ar    
   38   17   18 ar    
   39   17   42 1     
   40   18   19 1     
   41   18   20 ar    
   42   19   43 1     
   43   19   44 1     
   44   19   45 1     
   45   20   21 1     
   46   20   22 ar    
   47   21   46 1     
   48   21   47 1     
   49   21   48 1     
   50   22   23 ar    
   51   22   49 1     
   52   24   25 2     
   53    7   51 1     
   54    7   52 1     
   55   11   53 1     
   56   11   54 1     
   57   25   55 1     
   58   25   56 1     
@<TRIPOS>SUBSTRUCTURE
      1 S1             1
@<TRIPOS>SET
LONE_PAIRS      STATIC     ATOMS    <user>   **** ""
6 51 52 53 54 55 56
DONOR_HYDROGENS      STATIC     ATOMS    <user>   **** ""
3 34 38 50
ATOM$BLUE        STATIC     ATOMS    COLORGROUP SYSTEM
6 51 52 53 54 55 56
ATOM$RED        STATIC     ATOMS    COLORGROUP SYSTEM
3 34 38 50
