AV-unprocessed.smi:3322|AV-procd|sdf|12775|dock8
  -GOLD-   2272019123D 1   1.00000     0.00000
 Structure written by MMmdl.
 38 39  0  0  0  0  0  0  0  0  1 V2000
  148.6913  135.7449  156.7965 C   0  0  0  0  0  0  0  0  0  0  0  0
  149.2939  135.6953  155.3802 C   0  0  2  0  0  0  0  0  0  0  0  0
  149.3400  134.3055  154.8879 N   0  0  0  0  0  0  0  0  0  0  0  0
  148.0799  133.8520  154.3078 C   0  0  0  0  0  0  0  0  0  0  0  0
  148.3018  133.1013  152.9778 C   0  0  0  0  0  0  0  0  0  0  0  0
  147.0881  132.9505  152.1943 N   0  0  0  0  0  0  0  0  0  0  0  0
  145.9269  132.2882  152.5326 C   0  0  0  0  0  0  0  0  0  0  0  0
  145.0534  132.4438  151.4944 C   0  0  0  0  0  0  0  0  0  0  0  0
  145.7826  133.2219  150.5524 C   0  0  0  0  0  0  0  0  0  0  0  0
  147.0014  133.5200  150.9720 N   0  0  0  0  0  0  0  0  0  0  0  0
  150.7006  136.3302  155.3742 C   0  0  0  0  0  0  0  0  0  0  0  0
  151.6143  135.7285  155.9426 O   0  0  0  0  0  0  0  0  0  0  0  0
  150.9121  137.5135  154.7429 N   0  0  0  0  0  0  0  0  0  0  0  0
  152.2378  138.1360  154.6513 C   0  0  0  0  0  0  0  0  0  0  0  0
  152.2076  139.4776  155.4024 C   0  0  0  0  0  0  0  0  0  0  0  0
  151.2043  140.3153  154.8359 O   0  0  0  0  0  0  0  0  0  0  0  0
  149.9045  139.7351  154.8887 C   0  0  0  0  0  0  0  0  0  0  0  0
  149.8987  138.3894  154.1403 C   0  0  0  0  0  0  0  0  0  0  0  0
  148.6546  136.7642  157.1813 H   0  0  0  0  0  0  0  0  0  0  0  0
  149.2774  135.1494  157.4981 H   0  0  0  0  0  0  0  0  0  0  0  0
  147.6716  135.3605  156.8114 H   0  0  0  0  0  0  0  0  0  0  0  0
  148.6631  136.2628  154.7023 H   0  0  0  0  0  0  0  0  0  0  0  0
  150.0716  134.1814  154.2018 H   0  0  0  0  0  0  0  0  0  0  0  0
  147.6383  133.1537  155.0189 H   0  0  0  0  0  0  0  0  0  0  0  0
  147.3605  134.6638  154.1954 H   0  0  0  0  0  0  0  0  0  0  0  0
  149.0577  133.6073  152.3748 H   0  0  0  0  0  0  0  0  0  0  0  0
  148.6914  132.1036  153.1833 H   0  0  0  0  0  0  0  0  0  0  0  0
  145.8177  131.7754  153.4769 H   0  0  0  0  0  0  0  0  0  0  0  0
  144.0461  132.0619  151.4197 H   0  0  0  0  0  0  0  0  0  0  0  0
  145.4645  133.5774  149.5836 H   0  0  0  0  0  0  0  0  0  0  0  0
  153.0359  137.5100  155.0520 H   0  0  0  0  0  0  0  0  0  0  0  0
  152.4859  138.2996  153.6015 H   0  0  0  0  0  0  0  0  0  0  0  0
  152.0136  139.3251  156.4654 H   0  0  0  0  0  0  0  0  0  0  0  0
  153.1723  139.9783  155.3212 H   0  0  0  0  0  0  0  0  0  0  0  0
  149.5984  139.6023  155.9277 H   0  0  0  0  0  0  0  0  0  0  0  0
  149.1930  140.4232  154.4325 H   0  0  0  0  0  0  0  0  0  0  0  0
  150.1379  138.5426  153.0870 H   0  0  0  0  0  0  0  0  0  0  0  0
  148.8867  137.9936  154.1620 H   0  0  0  0  0  0  0  0  0  0  0  0
  1  2  1  0  0  0  0
  1 19  1  0  0  0  0
  1 20  1  0  0  0  0
  1 21  1  0  0  0  0
  2  3  1  0  0  0  0
  2 11  1  0  0  0  0
  2 22  1  0  0  0  0
  3  4  1  0  0  0  0
  3 23  1  0  0  0  0
  4  5  1  0  0  0  0
  4 24  1  0  0  0  0
  4 25  1  0  0  0  0
  5  6  1  0  0  0  0
  5 26  1  0  0  0  0
  5 27  1  0  0  0  0
  6 10  1  0  0  0  0
  6  7  1  0  0  0  0
  7  8  2  0  0  0  0
  7 28  1  0  0  0  0
  8  9  1  0  0  0  0
  8 29  1  0  0  0  0
  9 10  2  0  0  0  0
  9 30  1  0  0  0  0
 11 12  2  0  0  0  0
 11 13  1  0  0  0  0
 13 18  1  0  0  0  0
 13 14  1  0  0  0  0
 14 15  1  0  0  0  0
 14 31  1  0  0  0  0
 14 32  1  0  0  0  0
 15 16  1  0  0  0  0
 15 33  1  0  0  0  0
 15 34  1  0  0  0  0
 16 17  1  0  0  0  0
 17 18  1  0  0  0  0
 17 35  1  0  0  0  0
 17 36  1  0  0  0  0
 18 37  1  0  0  0  0
 18 38  1  0  0  0  0
M  END
> <s_m_source_file>
AV-unprocessed.smi

> <i_m_source_file_index>
3322

> <i_lp_mmshare_version>
43012

> <i_f3d_flags>
0

> <s_epik_input>
W0NIMl0xW0NIMl1PW0NIMl1bQ0gyXU4xQyg9TylbQ0BIXShbQ0gzXSlbTkhdW0NIMl1bQ0gyXW4yW2NIXVtjSF1bY0hdbjI=

> <s_epik_cmdline>
J2VwaWtfcHl0aG9uJywgJy1waCcsICc3LjAnLCAnLXRuJywgJzgnLCAnLW1hJywgJzIwMCcsICctbWV0YWxfYmluZGluZycsICctaW1hZScsICc8aW5maWxlLm1hZT4nLCAnLW9tYWUnLCAnPG91dGZpbGUubWFlPic=

> <r_lp_tautomer_probability>
1

> <r_epik_Ionization_Penalty>
0.511228

> <r_epik_Ionization_Penalty_Charging>
0

> <r_epik_Ionization_Penalty_Neutral>
0.511228

> <r_epik_State_Penalty>
0.51753

> <r_epik_Charging_Adjusted_Penalty>
0.51753

> <i_epik_Tot_Q>
0

> <i_epik_Tot_abs_Q>
0

> <r_epik_Metal_State_Penalty>
0.517012

> <b_epik_Metal_Only>
0

> <s_lp_Force_Field>
OPLS_2005

> <r_lp_Energy>
29.3693

> <b_lp_Chiralities_Consistent>
1

> <s_lp_Variant>
AV-unprocessed.smi:3322-3

> <Gold.Version>
5.8.1

> <Gold.Id.Protein>
6NUR|6NUR_protein|mol2

> <Gold.PLP.Fitness>
38.6056

> <Gold.PLP.PLP>
-31.1341

> <Gold.PLP.part.hbond>
-1.9411

> <Gold.PLP.part.metal>
0.0000

> <Gold.PLP.part.buried>
-3.2242

> <Gold.PLP.part.nonpolar>
-26.7231

> <Gold.PLP.part.repulsive>
0.3381

> <Gold.PLP.ligand.clash>
0.0000

> <Gold.PLP.ligand.torsion>
0.7965

> <Gold.PLP.Chemscore.Hbond>
2.0000

> <Gold.PLP.Chemscore.CHOScore>
1.0000

> <Gold.PLP.Chemscore.Metal>
0.0000

> <Gold.Chemscore.Hbonds>
donor molecule, donor type, donor heavy atom, donor atom, acceptor molecule, acceptor atom, score
      P1  H  7989  7998       L1    16  0.94
      P1  H 10752 10765       L1    12  1.00
      L1  C     9    30       P1  7921  1.00

> <Gold.PLP.Chemscore.Internal.Correction>
0.0646

> <Gold.Rescore>
     Score         DG    S(hbond)    S(metal)    S(lipo)     H(rot)  DE(clash)    DE(int)     intcor
     13.80     -14.63       1.78        0.00      67.71       1.84       0.06       0.77       ----

> <Gold.Chemscore.Fitness>
13.8033

> <Gold.Chemscore.DG>
-14.6303

> <Gold.Chemscore.ZeroCoef>
-5.4800

> <Gold.Chemscore.Hbond>
1.7813

> <Gold.Chemscore.Metal>
0.0000

> <Gold.Chemscore.Lipo>
67.7092

> <Gold.Chemscore.Internal_Hbond>
0.0000

> <Gold.Chemscore.DEClash>
0.0603

> <Gold.Chemscore.DEInternal>
0.7666

> <Gold.Chemscore.Rot>
1.8442

> <Gold.Chemscore.Internal.Correction>
   9.000000E+99

> <Gold.Chemscore.Hbonds>
donor molecule, donor type, donor heavy atom, donor atom, acceptor molecule, acceptor atom, score
      P1  H  7989  7998       L1    16  0.66
      P1  H 10752 10765       L1    12  0.91

> <Gold.Chemscore.Hbond.Weighted>
-5.9495

> <Gold.Chemscore.Metal.Weighted>
-0.0000

> <Gold.Chemscore.Lipo.Weighted>
-7.9220

> <Gold.Chemscore.Internal_Hbond.Weighted>
0.0000

> <Gold.Chemscore.DEClash.Weighted>
0.0603

> <Gold.Chemscore.DEInternal.Weighted>
0.7666

> <Gold.Chemscore.Rot.Weighted>
4.7212

> <Gold.Chemscore.Internal.Correction.Weighted>
   9.000000E+99

> <Gold.Protein.RotatedTorsions>
[ 6907 6896 6895 6894 ] final  -51.85 input  -60.11 | X-H torsion
[ 7974 7965 7964 7962 ] final   70.37 input  175.53 | X-H torsion
[ 8008 7997 7996 7995 ] final   79.38 input   59.86 | X-H torsion
[ 10167 10162 10161 10158 ] final  125.38 input  -65.29 | X-H torsion
[ 10718 10713 10712 10709 ] final  148.55 input   66.30 | X-H torsion
[ 10763 10752 10751 10750 ] final -157.28 input  -60.55 | X-H torsion
[ 11005 11000 10999 10996 ] final  139.77 input  -57.11 | X-H torsion

> <Gold.Protein.ActiveResidues>
 VAL166  LYS551  ARG553  GLY616  TRP617  ASP618  TYR619  PRO620  LYS621  CYS622 
 ASP623  PHE694  ASN695  SER759  ASP760  ASP761  ALA762  ILE779  LEU786  VAL792 
 PHE793  MET794  SER795  GLU796  ALA797  LYS798  CYS799  TRP800  GLU811  SER814 

> <Gold.Protein.RotatedAtoms>
  150.8573  134.7915  159.7055 H   0  0  0  0  0  0  0  0  0  0  0  0  # atno 6907 bound_to 6896
  152.4621  134.5158  159.9777 H   0  0  0  0  0  0  0  0  0  0  0  0  # atno 6908 bound_to 6896
  151.5268  133.3418  159.2946 H   0  0  0  0  0  0  0  0  0  0  0  0  # atno 6909 bound_to 6896
  145.7789  139.2878  143.1277 H   0  0  0  0  0  0  0  0  0  0  0  0  # atno 7974 bound_to 7965
  155.8688  140.3450  155.5807 H   0  0  0  0  0  0  0  0  0  0  0  0  # atno 8008 bound_to 7997
  155.7850  140.0863  157.2058 H   0  0  0  0  0  0  0  0  0  0  0  0  # atno 8009 bound_to 7997
  154.4016  140.1493  156.3084 H   0  0  0  0  0  0  0  0  0  0  0  0  # atno 8010 bound_to 7997
  139.5689  144.6927  151.3834 H   0  0  0  0  0  0  0  0  0  0  0  0  # atno 10167 bound_to 10162
  157.3072  131.0881  151.1344 H   0  0  0  0  0  0  0  0  0  0  0  0  # atno 10718 bound_to 10713
  154.7648  135.3128  154.8308 H   0  0  0  0  0  0  0  0  0  0  0  0  # atno 10763 bound_to 10752
  153.9059  135.6811  153.4757 H   0  0  0  0  0  0  0  0  0  0  0  0  # atno 10764 bound_to 10752
  153.1253  135.4804  154.9194 H   0  0  0  0  0  0  0  0  0  0  0  0  # atno 10765 bound_to 10752
  140.0279  134.9366  157.0604 H   0  0  0  0  0  0  0  0  0  0  0  0  # atno 11005 bound_to 11000
  146.0094  140.8449  142.9978 LP  0  0  0  0  0  0  0  0  0  0  0  0  # atno 17320 bound_to 7965
  144.6800  140.2468  143.7337 LP  0  0  0  0  0  0  0  0  0  0  0  0  # atno 17321 bound_to 7965
  140.6973  143.7718  150.7347 LP  0  0  0  0  0  0  0  0  0  0  0  0  # atno 17342 bound_to 10162
  140.1218  143.4605  152.2308 LP  0  0  0  0  0  0  0  0  0  0  0  0  # atno 17343 bound_to 10162
  157.2680  130.6691  149.6006 LP  0  0  0  0  0  0  0  0  0  0  0  0  # atno 17370 bound_to 10713
  155.9675  130.4488  150.5633 LP  0  0  0  0  0  0  0  0  0  0  0  0  # atno 17371 bound_to 10713
  140.4275  134.1815  155.7166 LP  0  0  0  0  0  0  0  0  0  0  0  0  # atno 17394 bound_to 11000
  141.1814  133.8407  157.1246 LP  0  0  0  0  0  0  0  0  0  0  0  0  # atno 17395 bound_to 11000

$$$$
