AV-unprocessed.smi:2750|AV-procd|sdf|10592|dock5
  -GOLD-   2272015 43D 1   1.00000     0.00000
 Structure written by MMmdl.
 24 25  0  0  0  0  0  0  0  0  3 V2000
  146.7970  137.2563  160.5977 O   0  0  0  0  0  0  0  0  0  0  0  0
  147.5793  136.4870  161.1982 C   0  0  0  0  0  0  0  0  0  0  0  0
  148.1324  136.7210  162.2951 O   0  5  0  0  0  0  0  0  0  0  0  0
  147.8825  135.1428  160.5361 C   0  0  0  0  0  0  0  0  0  0  0  0
  148.4843  135.3049  159.2255 N   0  0  0  0  0  0  0  0  0  0  0  0
  148.5314  136.4348  158.4353 C   0  0  0  0  0  0  0  0  0  0  0  0
  149.2109  136.0181  157.3265 C   0  0  0  0  0  0  0  0  0  0  0  0
  149.5775  136.7899  156.0946 C   0  0  0  0  0  0  0  0  0  0  0  0
  151.1012  136.8640  155.8726 C   0  0  1  0  0  0  0  0  0  0  0  0
  151.4502  137.9618  154.9959 N   0  0  0  0  0  0  0  0  0  0  0  0
  152.2844  138.8121  155.5903 C   0  0  0  0  0  0  0  0  0  0  0  0
  152.7158  139.8059  155.0103 O   0  0  0  0  0  0  0  0  0  0  0  0
  152.5392  138.4081  156.8499 N   0  5  0  0  0  0  0  0  0  0  0  0
  151.8792  137.2624  157.1261 C   0  0  0  0  0  0  0  0  0  0  0  0
  151.8514  136.5895  158.1552 O   0  0  0  0  0  0  0  0  0  0  0  0
  149.5452  134.6735  157.4847 N   0  0  0  0  0  0  0  0  0  0  0  0
  149.1051  134.2573  158.6307 N   0  0  0  0  0  0  0  0  0  0  0  0
  148.5478  134.5531  161.1689 H   0  0  0  0  0  0  0  0  0  0  0  0
  146.9593  134.5718  160.4289 H   0  0  0  0  0  0  0  0  0  0  0  0
  148.1005  137.3835  158.7190 H   0  0  0  0  0  0  0  0  0  0  0  0
  149.0934  136.3508  155.2208 H   0  0  0  0  0  0  0  0  0  0  0  0
  149.1773  137.8014  156.1745 H   0  0  0  0  0  0  0  0  0  0  0  0
  151.4934  135.9260  155.4767 H   0  0  0  0  0  0  0  0  0  0  0  0
  151.1112  138.0479  154.0492 H   0  0  0  0  0  0  0  0  0  0  0  0
  1  2  2  0  0  0  0
  2  3  1  0  0  0  0
  2  4  1  0  0  0  0
  4  5  1  0  0  0  0
  4 18  1  0  0  0  0
  4 19  1  0  0  0  0
  5 17  1  0  0  0  0
  5  6  1  0  0  0  0
  6  7  2  0  0  0  0
  6 20  1  0  0  0  0
  7  8  1  0  0  0  0
  7 16  1  0  0  0  0
  8  9  1  0  0  0  0
  8 21  1  0  0  0  0
  8 22  1  0  0  0  0
  9 14  1  0  0  0  0
  9 10  1  0  0  0  0
  9 23  1  0  0  0  0
 10 11  1  0  0  0  0
 10 24  1  0  0  0  0
 11 12  2  0  0  0  0
 11 13  1  0  0  0  0
 13 14  1  0  0  0  0
 14 15  2  0  0  0  0
 16 17  2  0  0  0  0
M  CHG  1   3  -1
M  CHG  1  13  -1
M  END
> <s_m_source_file>
AV-unprocessed.smi

> <i_m_source_file_index>
2750

> <i_lp_mmshare_version>
43012

> <i_f3d_flags>
0

> <s_epik_input>
Tz1DKFtPSF0pW0NIMl1uMVtjSF1jKG5uMSlbQ0gyXVtDQEBIXTJbTkhdQyg9TylbTkhdQzI9Tw==

> <s_epik_cmdline>
J2VwaWtfcHl0aG9uJywgJy1waCcsICc3LjAnLCAnLXRuJywgJzgnLCAnLW1hJywgJzIwMCcsICctbWV0YWxfYmluZGluZycsICctaW1hZScsICc8aW5maWxlLm1hZT4nLCAnLW9tYWUnLCAnPG91dGZpbGUubWFlPic=

> <r_lp_tautomer_probability>
1

> <r_epik_Ionization_Penalty>
2.03209

> <r_epik_Ionization_Penalty_Charging>
2.03208

> <r_epik_Ionization_Penalty_Neutral>
1.30912e-05

> <r_epik_State_Penalty>
2.16313

> <r_epik_Charging_Adjusted_Penalty>
4.19521

> <i_epik_Tot_Q>
-2

> <i_epik_Tot_abs_Q>
2

> <r_epik_Metal_State_Penalty>
0.529162

> <b_epik_Metal_Only>
0

> <s_lp_Force_Field>
OPLS_2005

> <r_lp_Energy>
6.41301

> <b_lp_Chiralities_Consistent>
1

> <s_lp_Variant>
AV-unprocessed.smi:2750-4

> <Gold.Version>
5.8.1

> <Gold.Id.Protein>
6NUR|6NUR_protein|mol2

> <Gold.PLP.Fitness>
39.0025

> <Gold.PLP.PLP>
-20.2523

> <Gold.PLP.part.hbond>
-6.0990

> <Gold.PLP.part.metal>
0.0000

> <Gold.PLP.part.buried>
-3.7462

> <Gold.PLP.part.nonpolar>
-10.0971

> <Gold.PLP.part.repulsive>
0.1579

> <Gold.PLP.ligand.clash>
0.0000

> <Gold.PLP.ligand.torsion>
0.3281

> <Gold.PLP.Chemscore.Hbond>
6.4599

> <Gold.PLP.Chemscore.CHOScore>
0.0000

> <Gold.PLP.Chemscore.Metal>
0.0000

> <Gold.Chemscore.Hbonds>
donor molecule, donor type, donor heavy atom, donor atom, acceptor molecule, acceptor atom, score
      P1  H  6896  6908       L1    17  0.80
      P1  H  6896  6909       L1    15  0.04
      P1  H  6931  6943       L1     3  2.00
      P1  H  6934  6947       L1     1  2.00
      P1  H  7989  7998       L1    12  0.42
      P1  H  7997  8008       L1    12  1.00

> <Gold.PLP.Chemscore.Internal.Correction>
0.0266

> <Gold.Rescore>
     Score         DG    S(hbond)    S(metal)    S(lipo)     H(rot)  DE(clash)    DE(int)     intcor
      5.82      -9.87       2.86        0.00      17.15       2.80       0.04       4.02       ----

> <Gold.Chemscore.Fitness>
5.8197

> <Gold.Chemscore.DG>
-9.8738

> <Gold.Chemscore.ZeroCoef>
-5.4800

> <Gold.Chemscore.Hbond>
2.8589

> <Gold.Chemscore.Metal>
0.0000

> <Gold.Chemscore.Lipo>
17.1473

> <Gold.Chemscore.Internal_Hbond>
0.0000

> <Gold.Chemscore.DEClash>
0.0383

> <Gold.Chemscore.DEInternal>
4.0158

> <Gold.Chemscore.Rot>
2.7973

> <Gold.Chemscore.Internal.Correction>
   9.000000E+99

> <Gold.Chemscore.Hbonds>
donor molecule, donor type, donor heavy atom, donor atom, acceptor molecule, acceptor atom, score
      P1  H  6896  6908       L1    17  0.07
      P1  H  6896  6909       L1    15  0.05
      P1  H  6931  6943       L1     3  0.35
      P1  H  6934  6947       L1     1  0.82
      P1  H  7989  7998       L1    12  0.41
      P1  H  7997  8008       L1    12  0.58

> <Gold.Chemscore.Hbond.Weighted>
-9.5487

> <Gold.Chemscore.Metal.Weighted>
-0.0000

> <Gold.Chemscore.Lipo.Weighted>
-2.0062

> <Gold.Chemscore.Internal_Hbond.Weighted>
0.0000

> <Gold.Chemscore.DEClash.Weighted>
0.0383

> <Gold.Chemscore.DEInternal.Weighted>
4.0158

> <Gold.Chemscore.Rot.Weighted>
7.1611

> <Gold.Chemscore.Internal.Correction.Weighted>
   9.000000E+99

> <Gold.Protein.RotatedTorsions>
[ 6907 6896 6895 6894 ] final  142.01 input  -60.11 | X-H torsion
[ 7974 7965 7964 7962 ] final  -43.40 input  175.53 | X-H torsion
[ 8008 7997 7996 7995 ] final   -8.43 input   59.86 | X-H torsion
[ 10167 10162 10161 10158 ] final  -13.56 input  -65.29 | X-H torsion
[ 10718 10713 10712 10709 ] final -171.01 input   66.30 | X-H torsion
[ 10763 10752 10751 10750 ] final   12.56 input  -60.55 | X-H torsion
[ 11005 11000 10999 10996 ] final  156.95 input  -57.11 | X-H torsion

> <Gold.Protein.ActiveResidues>
 VAL166  LYS551  ARG553  GLY616  TRP617  ASP618  TYR619  PRO620  LYS621  CYS622 
 ASP623  PHE694  ASN695  SER759  ASP760  ASP761  ALA762  ILE779  LEU786  VAL792 
 PHE793  MET794  SER795  GLU796  ALA797  LYS798  CYS799  TRP800  GLU811  SER814 

> <Gold.Protein.RotatedAtoms>
  152.2239  133.5005  159.5177 H   0  0  0  0  0  0  0  0  0  0  0  0  # atno 6907 bound_to 6896
  150.7020  134.1306  159.4077 H   0  0  0  0  0  0  0  0  0  0  0  0  # atno 6908 bound_to 6896
  151.9227  135.0291  160.0574 H   0  0  0  0  0  0  0  0  0  0  0  0  # atno 6909 bound_to 6896
  146.0023  140.7060  142.9264 H   0  0  0  0  0  0  0  0  0  0  0  0  # atno 7974 bound_to 7965
  154.5742  140.2381  155.8147 H   0  0  0  0  0  0  0  0  0  0  0  0  # atno 8008 bound_to 7997
  156.2130  140.3020  155.9733 H   0  0  0  0  0  0  0  0  0  0  0  0  # atno 8009 bound_to 7997
  155.2657  140.0416  157.2992 H   0  0  0  0  0  0  0  0  0  0  0  0  # atno 8010 bound_to 7997
  140.7184  143.5413  150.9406 H   0  0  0  0  0  0  0  0  0  0  0  0  # atno 10167 bound_to 10162
  156.7346  130.9319  151.3106 H   0  0  0  0  0  0  0  0  0  0  0  0  # atno 10718 bound_to 10713
  153.1810  135.6827  153.8478 H   0  0  0  0  0  0  0  0  0  0  0  0  # atno 10763 bound_to 10752
  153.7810  135.3182  155.3367 H   0  0  0  0  0  0  0  0  0  0  0  0  # atno 10764 bound_to 10752
  154.8059  135.4748  154.0487 H   0  0  0  0  0  0  0  0  0  0  0  0  # atno 10765 bound_to 10752
  140.1723  134.8534  157.2705 H   0  0  0  0  0  0  0  0  0  0  0  0  # atno 11005 bound_to 11000
  144.6923  140.3254  143.7225 LP  0  0  0  0  0  0  0  0  0  0  0  0  # atno 17320 bound_to 7965
  145.7469  139.1781  143.2344 LP  0  0  0  0  0  0  0  0  0  0  0  0  # atno 17321 bound_to 7965
  139.9136  143.6691  152.3110 LP  0  0  0  0  0  0  0  0  0  0  0  0  # atno 17342 bound_to 10162
  139.7082  144.7624  151.1156 LP  0  0  0  0  0  0  0  0  0  0  0  0  # atno 17343 bound_to 10162
  157.6844  130.9171  150.0349 LP  0  0  0  0  0  0  0  0  0  0  0  0  # atno 17370 bound_to 10713
  156.1506  130.3642  149.9444 LP  0  0  0  0  0  0  0  0  0  0  0  0  # atno 17371 bound_to 10713
  140.2362  134.3849  155.7500 LP  0  0  0  0  0  0  0  0  0  0  0  0  # atno 17394 bound_to 11000
  141.2218  133.7241  156.8718 LP  0  0  0  0  0  0  0  0  0  0  0  0  # atno 17395 bound_to 11000

$$$$
