#       Name:                AV-unprocessed.smi:940
#       Creating user name   scv26
#       Creation time:       Fri Mar 27 02:12:58 2020


#       File generated by GOLD software.
#

@<TRIPOS>MOLECULE
AV-unprocessed.smi:940
    43    43     1
SMALL
NO_CHARGES


@<TRIPOS>ATOM
      1 ****        -5.9493   1.7012  -2.9417 C.3            1 S1                 0.0000
      2 ****        -4.6634   0.8692  -2.8522 C.3            1 S1                 0.0000
      3 ****        -4.1453   0.8288  -1.4900 N.am           1 S1                 0.0000
      4 ****        -3.3904   1.7832  -0.9226 C.2            1 S1                 0.0000
      5 ****        -3.0559   2.8168  -1.5008 O.2            1 S1                 0.0000
      6 ****        -2.9482   1.5377   0.5211 C.3            1 S1                 0.0000
      7 ****        -1.8556   0.5833   0.5818 N.pl3          1 S1                 0.0000
      8 ****        -1.9237  -0.7896   0.7102 C.2            1 S1                 0.0000
      9 ****        -0.6442  -1.2668   0.7127 C.2            1 S1                 0.0000
     10 ****         0.1454  -0.0856   0.5751 C.2            1 S1                 0.0000
     11 ****         1.5622  -0.0273   0.5305 N.am           1 S1                 0.0000
     12 ****         2.4418  -1.0443   0.4874 C.2            1 S1                 0.0000
     13 ****         2.1365  -2.2361   0.4599 O.2            1 S1                 0.0000
     14 ****         3.9174  -0.6482   0.4643 C.3            1 S1                 0.0000
     15 ****         4.6029  -1.3937   1.4573 O.3            1 S1                 0.0000
     16 ****         5.9918  -1.1142   1.4925 C.3            1 S1                 0.0000
     17 ****         6.6383  -1.9586   2.5930 C.3            1 S1                 0.0000
     18 ****        -0.5785   1.0181   0.5039 N.2            1 S1                 0.0000
     19 ****        -6.3395   1.7016  -3.9596 H              1 S1                 0.0000
     20 ****        -5.7722   2.7383  -2.6555 H              1 S1                 0.0000
     21 ****        -6.7248   1.2999  -2.2888 H              1 S1                 0.0000
     22 ****        -4.8650  -0.1539  -3.1701 H              1 S1                 0.0000
     23 ****        -3.9077   1.2624  -3.5343 H              1 S1                 0.0000
     24 ****        -4.3740   0.0141  -0.9394 H              1 S1                 0.0000
     25 ****        -2.6341   2.4755   0.9824 H              1 S1                 0.0000
     26 ****        -3.7848   1.1565   1.1080 H              1 S1                 0.0000
     27 ****        -2.8681  -1.3077   0.7879 H              1 S1                 0.0000
     28 ****        -0.3408  -2.2990   0.8013 H              1 S1                 0.0000
     29 ****         1.9554   0.9026   0.5193 H              1 S1                 0.0000
     30 ****         4.3261  -0.8619  -0.5246 H              1 S1                 0.0000
     31 ****         4.0313   0.4214   0.6500 H              1 S1                 0.0000
     32 ****         6.4466  -1.3475   0.5287 H              1 S1                 0.0000
     33 ****         6.1585  -0.0542   1.6897 H              1 S1                 0.0000
     34 ****         7.7105  -1.7705   2.6494 H              1 S1                 0.0000
     35 ****         6.4943  -3.0229   2.4045 H              1 S1                 0.0000
     36 ****         6.2061  -1.7292   3.5672 H              1 S1                 0.0000
     37 ****        -3.3481   2.9795  -2.4432 LP             1 S1                 0.0000
     38 ****        -2.4919   3.4940  -1.0282 LP             1 S1                 0.0000
     39 ****         1.1736  -2.5059   0.4691 LP             1 S1                 0.0000
     40 ****         2.8513  -2.9347   0.4284 LP             1 S1                 0.0000
     41 ****         4.4777  -2.3678   1.2689 LP             1 S1                 0.0000
     42 ****         4.2100  -1.1737   2.3502 LP             1 S1                 0.0000
     43 ****        -0.2549   1.9599   0.4131 LP             1 S1                 0.0000
@<TRIPOS>BOND
    1    1    2 1     
    2    1   19 1     
    3    1   20 1     
    4    1   21 1     
    5    2    3 1     
    6    2   22 1     
    7    2   23 1     
    8    3    4 am    
    9    3   24 1     
   10    4    5 2     
   11    4    6 1     
   12    6    7 1     
   13    6   25 1     
   14    6   26 1     
   15    7   18 1     
   16    7    8 1     
   17    8    9 2     
   18    8   27 1     
   19    9   10 1     
   20    9   28 1     
   21   10   11 1     
   22   10   18 2     
   23   11   12 am    
   24   11   29 1     
   25   12   13 2     
   26   12   14 1     
   27   14   15 1     
   28   14   30 1     
   29   14   31 1     
   30   15   16 1     
   31   16   17 1     
   32   16   32 1     
   33   16   33 1     
   34   17   34 1     
   35   17   35 1     
   36   17   36 1     
   37    5   37 1     
   38    5   38 1     
   39   13   39 1     
   40   13   40 1     
   41   15   41 1     
   42   15   42 1     
   43   18   43 1     
@<TRIPOS>SUBSTRUCTURE
      1 S1             1
@<TRIPOS>SET
LONE_PAIRS      STATIC     ATOMS    <user>   **** ""
7 37 38 39 40 41 42 43
DONOR_HYDROGENS      STATIC     ATOMS    <user>   **** ""
2 24 29
ATOM$BLUE        STATIC     ATOMS    COLORGROUP SYSTEM
7 37 38 39 40 41 42 43
ATOM$RED        STATIC     ATOMS    COLORGROUP SYSTEM
2 24 29
