AV-unprocessed.smi:69|AV-procd|sdf|656|dock8
  -GOLD-   2262016553D 1   1.00000     0.00000
 Structure written by MMmdl.
 32 34  0  0  0  0  0  0  0  0  1 V2000
  139.0500  137.9885  154.1297 N   0  0  0  0  0  0  0  0  0  0  0  0
  140.0616  137.9010  153.2551 C   0  0  0  0  0  0  0  0  0  0  0  0
  140.2543  138.9236  152.3888 N   0  0  0  0  0  0  0  0  0  0  0  0
  141.2606  138.8624  151.5100 C   0  0  0  0  0  0  0  0  0  0  0  0
  142.1630  137.8920  151.3375 N   0  0  0  0  0  0  0  0  0  0  0  0
  141.9626  136.8619  152.2111 C   0  0  0  0  0  0  0  0  0  0  0  0
  140.9406  136.7901  153.1966 C   0  0  0  0  0  0  0  0  0  0  0  0
  141.0494  135.5997  153.9026 N   0  0  0  0  0  0  0  0  0  0  0  0
  142.0821  135.0071  153.3640 C   0  0  0  0  0  0  0  0  0  0  0  0
  142.6847  135.6944  152.3296 N   0  0  0  0  0  0  0  0  0  0  0  0
  143.8834  135.3261  151.5098 C   0  0  1  0  0  0  0  0  0  0  0  0
  144.3807  134.1114  151.9858 O   0  0  0  0  0  0  0  0  0  0  0  0
  143.8588  133.0455  151.1997 C   0  0  2  0  0  0  0  0  0  0  0  0
  144.6672  131.7519  151.3999 C   0  0  0  0  0  0  0  0  0  0  0  0
  144.3119  130.8035  150.4160 O   0  0  0  0  0  0  0  0  0  0  0  0
  143.9041  133.6486  149.7911 C   0  0  2  0  0  0  0  0  0  0  0  0
  145.2141  133.5584  149.2538 O   0  0  0  0  0  0  0  0  0  0  0  0
  143.4683  135.0920  150.0435 C   0  0  2  0  0  0  0  0  0  0  0  0
  144.0547  136.0085  149.1379 O   0  0  0  0  0  0  0  0  0  0  0  0
  144.5941  136.1383  151.6692 H   0  0  0  0  0  0  0  0  0  0  0  0
  142.8134  132.8772  151.4661 H   0  0  0  0  0  0  0  0  0  0  0  0
  143.2227  133.1379  149.1099 H   0  0  0  0  0  0  0  0  0  0  0  0
  142.3824  135.1587  149.9573 H   0  0  0  0  0  0  0  0  0  0  0  0
  138.8886  137.2387  154.7867 H   0  0  0  0  0  0  0  0  0  0  0  0
  138.4567  138.8055  154.1356 H   0  0  0  0  0  0  0  0  0  0  0  0
  141.3565  139.7127  150.8508 H   0  0  0  0  0  0  0  0  0  0  0  0
  142.4299  134.0459  153.7143 H   0  0  0  0  0  0  0  0  0  0  0  0
  145.7327  131.9543  151.2881 H   0  0  0  0  0  0  0  0  0  0  0  0
  144.5161  131.3366  152.3967 H   0  0  0  0  0  0  0  0  0  0  0  0
  143.3752  130.8333  150.2948 H   0  0  0  0  0  0  0  0  0  0  0  0
  145.1450  133.5070  148.3123 H   0  0  0  0  0  0  0  0  0  0  0  0
  143.3788  136.5917  148.8266 H   0  0  0  0  0  0  0  0  0  0  0  0
  1  2  1  0  0  0  0
  1 24  1  0  0  0  0
  1 25  1  0  0  0  0
  2  7  1  0  0  0  0
  2  3  2  0  0  0  0
  3  4  1  0  0  0  0
  4  5  2  0  0  0  0
  4 26  1  0  0  0  0
  5  6  1  0  0  0  0
  6 10  1  0  0  0  0
  6  7  2  0  0  0  0
  7  8  1  0  0  0  0
  8  9  2  0  0  0  0
  9 10  1  0  0  0  0
  9 27  1  0  0  0  0
 10 11  1  0  0  0  0
 11 20  1  0  0  0  0
 11 18  1  0  0  0  0
 11 12  1  0  0  0  0
 12 13  1  0  0  0  0
 13 21  1  0  0  0  0
 13 14  1  0  0  0  0
 13 16  1  0  0  0  0
 14 15  1  0  0  0  0
 14 28  1  0  0  0  0
 14 29  1  0  0  0  0
 15 30  1  0  0  0  0
 16 22  1  0  0  0  0
 16 17  1  0  0  0  0
 16 18  1  0  0  0  0
 17 31  1  0  0  0  0
 18 23  1  0  0  0  0
 18 19  1  0  0  0  0
 19 32  1  0  0  0  0
M  END
> <s_m_source_file>
AV-unprocessed.smi

> <i_m_source_file_index>
69

> <i_lp_mmshare_version>
43012

> <i_f3d_flags>
0

> <s_epik_input>
bjFbY0hdbmMoW05IMl0pYyhjMTIpbltjSF1uMltDQEBIXTNPW0NASF0oW0NIMl1bT0hdKVtDQEBIXShbT0hdKVtDQEhdM1tPSF0=

> <s_epik_cmdline>
J2VwaWtfcHl0aG9uJywgJy1waCcsICc3LjAnLCAnLXRuJywgJzgnLCAnLW1hJywgJzIwMCcsICctbWV0YWxfYmluZGluZycsICctaW1hZScsICc8aW5maWxlLm1hZT4nLCAnLW9tYWUnLCAnPG91dGZpbGUubWFlPic=

> <r_lp_tautomer_probability>
1

> <r_epik_Ionization_Penalty>
0.000428445

> <r_epik_Ionization_Penalty_Charging>
0

> <r_epik_Ionization_Penalty_Neutral>
0.000428445

> <r_epik_State_Penalty>
-0

> <r_epik_Charging_Adjusted_Penalty>
0

> <i_epik_Tot_Q>
0

> <i_epik_Tot_abs_Q>
0

> <r_epik_Metal_State_Penalty>
-0

> <b_epik_Metal_Only>
0

> <s_epik_Chemistry_Notes>
This compound contains an acetal/aminal-like group ( X-CH(R)-Y where X, Y are N, S, or O) that may be acid/base labile, releasing an aldehyde.

> <s_lp_Force_Field>
OPLS_2005

> <r_lp_Energy>
39.6726

> <b_lp_Chiralities_Consistent>
1

> <s_lp_Variant>
AV-unprocessed.smi:69-14

> <Gold.Version>
5.8.1

> <Gold.Id.Protein>
6NUR|6NUR_protein|mol2

> <Gold.PLP.Fitness>
43.8813

> <Gold.PLP.PLP>
-27.7623

> <Gold.PLP.part.hbond>
-4.6503

> <Gold.PLP.part.metal>
0.0000

> <Gold.PLP.part.buried>
-1.3375

> <Gold.PLP.part.nonpolar>
-22.5469

> <Gold.PLP.part.repulsive>
1.7359

> <Gold.PLP.ligand.clash>
0.0000

> <Gold.PLP.ligand.torsion>
0.1009

> <Gold.PLP.Chemscore.Hbond>
3.0113

> <Gold.PLP.Chemscore.CHOScore>
2.4210

> <Gold.PLP.Chemscore.Metal>
0.0000

> <Gold.Chemscore.Hbonds>
donor molecule, donor type, donor heavy atom, donor atom, acceptor molecule, acceptor atom, score
      L1  H    17    31       P1  7921  0.18
      L1  H    19    32       P1 10171  0.05
      P1  H 11000 11005       L1     8  0.23
      L1  C     9    27       P1 10957  1.00

> <Gold.PLP.Chemscore.Internal.Correction>
0.0240

> <Gold.Rescore>
     Score         DG    S(hbond)    S(metal)    S(lipo)     H(rot)  DE(clash)    DE(int)     intcor
      7.44      -8.43       2.72        0.00      35.71       4.03       0.54       0.44       ----

> <Gold.Chemscore.Fitness>
7.4450

> <Gold.Chemscore.DG>
-8.4268

> <Gold.Chemscore.ZeroCoef>
-5.4800

> <Gold.Chemscore.Hbond>
2.7183

> <Gold.Chemscore.Metal>
0.0000

> <Gold.Chemscore.Lipo>
35.7148

> <Gold.Chemscore.Internal_Hbond>
0.0000

> <Gold.Chemscore.DEClash>
0.5423

> <Gold.Chemscore.DEInternal>
0.4395

> <Gold.Chemscore.Rot>
4.0277

> <Gold.Chemscore.Internal.Correction>
   9.000000E+99

> <Gold.Chemscore.Hbonds>
donor molecule, donor type, donor heavy atom, donor atom, acceptor molecule, acceptor atom, score
      L1  H    17    31       P1  7921  0.11
      L1  H    19    32       P1 10171  0.01
      P1  H 11000 11005       L1     8  0.16

> <Gold.Chemscore.Hbond.Weighted>
-9.0791

> <Gold.Chemscore.Metal.Weighted>
-0.0000

> <Gold.Chemscore.Lipo.Weighted>
-4.1786

> <Gold.Chemscore.Internal_Hbond.Weighted>
0.0000

> <Gold.Chemscore.DEClash.Weighted>
0.5423

> <Gold.Chemscore.DEInternal.Weighted>
0.4395

> <Gold.Chemscore.Rot.Weighted>
10.3110

> <Gold.Chemscore.Internal.Correction.Weighted>
   9.000000E+99

> <Gold.Protein.RotatedTorsions>
[ 6907 6896 6895 6894 ] final -149.27 input  -60.11 | X-H torsion
[ 7974 7965 7964 7962 ] final  -86.76 input  175.53 | X-H torsion
[ 8008 7997 7996 7995 ] final   84.08 input   59.86 | X-H torsion
[ 10167 10162 10161 10158 ] final -132.93 input  -65.29 | X-H torsion
[ 10718 10713 10712 10709 ] final   -2.82 input   66.30 | X-H torsion
[ 10763 10752 10751 10750 ] final -113.41 input  -60.55 | X-H torsion
[ 11005 11000 10999 10996 ] final   33.16 input  -57.11 | X-H torsion

> <Gold.Protein.ActiveResidues>
 VAL166  LYS551  ARG553  GLY616  TRP617  ASP618  TYR619  PRO620  LYS621  CYS622 
 ASP623  PHE694  ASN695  SER759  ASP760  ASP761  ALA762  ILE779  LEU786  VAL792 
 PHE793  MET794  SER795  GLU796  ALA797  LYS798  CYS799  TRP800  GLU811  SER814 

> <Gold.Protein.RotatedAtoms>
  151.1817  133.4721  159.2593 H   0  0  0  0  0  0  0  0  0  0  0  0  # atno 6907 bound_to 6896
  151.1252  135.0101  159.8567 H   0  0  0  0  0  0  0  0  0  0  0  0  # atno 6908 bound_to 6896
  152.5458  134.1725  159.8655 H   0  0  0  0  0  0  0  0  0  0  0  0  # atno 6909 bound_to 6896
  145.4756  140.9558  143.1893 H   0  0  0  0  0  0  0  0  0  0  0  0  # atno 7974 bound_to 7965
  155.9324  140.3414  155.6260 H   0  0  0  0  0  0  0  0  0  0  0  0  # atno 8008 bound_to 7997
  155.7141  140.0775  157.2377 H   0  0  0  0  0  0  0  0  0  0  0  0  # atno 8009 bound_to 7997
  154.4087  140.1617  156.2316 H   0  0  0  0  0  0  0  0  0  0  0  0  # atno 8010 bound_to 7997
  139.9035  143.6579  152.2590 H   0  0  0  0  0  0  0  0  0  0  0  0  # atno 10167 bound_to 10162
  156.7852  130.5343  149.5744 H   0  0  0  0  0  0  0  0  0  0  0  0  # atno 10718 bound_to 10713
  154.8395  135.4455  154.1346 H   0  0  0  0  0  0  0  0  0  0  0  0  # atno 10763 bound_to 10752
  153.2547  135.6930  153.7648 H   0  0  0  0  0  0  0  0  0  0  0  0  # atno 10764 bound_to 10752
  153.6947  135.3381  155.3186 H   0  0  0  0  0  0  0  0  0  0  0  0  # atno 10765 bound_to 10752
  140.2659  134.3138  155.7843 H   0  0  0  0  0  0  0  0  0  0  0  0  # atno 11005 bound_to 11000
  144.7919  139.6311  143.7109 LP  0  0  0  0  0  0  0  0  0  0  0  0  # atno 17320 bound_to 7965
  146.2371  139.5927  142.9516 LP  0  0  0  0  0  0  0  0  0  0  0  0  # atno 17321 bound_to 7965
  139.7004  144.7635  151.1283 LP  0  0  0  0  0  0  0  0  0  0  0  0  # atno 17342 bound_to 10162
  140.7701  143.5465  150.9253 LP  0  0  0  0  0  0  0  0  0  0  0  0  # atno 17343 bound_to 10162
  156.1193  130.6098  151.0169 LP  0  0  0  0  0  0  0  0  0  0  0  0  # atno 17370 bound_to 10713
  157.6627  131.0878  150.7801 LP  0  0  0  0  0  0  0  0  0  0  0  0  # atno 17371 bound_to 10713
  141.2184  133.7438  156.9260 LP  0  0  0  0  0  0  0  0  0  0  0  0  # atno 17394 bound_to 11000
  140.1419  134.9288  157.2478 LP  0  0  0  0  0  0  0  0  0  0  0  0  # atno 17395 bound_to 11000

$$$$
