AV-unprocessed.smi:1695|AV-procd|sdf|6790|dock1
  -GOLD-   22720 7553D 1   1.00000     0.00000
 Structure written by MMmdl.
 51 53  0  0  0  0  0  0  0  0  2 V2000
  152.4211  141.3560  158.8355 C   0  0  0  0  0  0  0  0  0  0  0  0
  151.4649  141.0550  157.6950 C   0  0  0  0  0  0  0  0  0  0  0  0
  151.7519  139.9802  156.8234 C   0  0  0  0  0  0  0  0  0  0  0  0
  150.8885  139.6675  155.7508 C   0  0  0  0  0  0  0  0  0  0  0  0
  150.9719  138.6754  154.7890 N   0  0  0  0  0  0  0  0  0  0  0  0
  149.8736  138.9010  154.0744 C   0  0  0  0  0  0  0  0  0  0  0  0
  149.0905  139.9288  154.4558 N   0  0  0  0  0  0  0  0  0  0  0  0
  147.8550  140.3696  153.8341 C   0  0  0  0  0  0  0  0  0  0  0  0
  147.1502  139.2374  153.0629 C   0  0  1  0  0  0  0  0  0  0  0  0
  147.8895  138.9378  151.8941 O   0  0  0  0  0  0  0  0  0  0  0  0
  147.0292  137.9575  153.9128 C   0  0  0  0  0  0  0  0  0  0  0  0
  146.6191  136.7755  153.1114 N   0  3  1  0  0  0  0  0  0  0  0  0
  146.2702  135.6116  153.9655 C   0  0  0  0  0  0  0  0  0  0  0  0
  145.9981  134.3552  153.1158 C   0  0  0  0  0  0  0  0  0  0  0  0
  144.9268  134.5746  152.0266 C   0  0  1  0  0  0  0  0  0  0  0  0
  143.4938  134.5783  152.5913 C   0  0  0  0  0  0  0  0  0  0  0  0
  142.6561  133.6507  152.1213 N   0  0  0  0  0  0  0  0  0  0  0  0
  143.1411  135.3990  153.4355 O   0  0  0  0  0  0  0  0  0  0  0  0
  145.2589  135.8541  151.2291 C   0  0  0  0  0  0  0  0  0  0  0  0
  145.5473  137.0740  152.1251 C   0  0  0  0  0  0  0  0  0  0  0  0
  149.7221  140.4672  155.5715 C   0  0  0  0  0  0  0  0  0  0  0  0
  149.4251  141.5385  156.4322 C   0  0  0  0  0  0  0  0  0  0  0  0
  150.2976  141.8361  157.4999 C   0  0  0  0  0  0  0  0  0  0  0  0
  149.9688  142.9944  158.4252 C   0  0  0  0  0  0  0  0  0  0  0  0
  153.2597  140.6593  158.8467 H   0  0  0  0  0  0  0  0  0  0  0  0
  151.9094  141.2774  159.7948 H   0  0  0  0  0  0  0  0  0  0  0  0
  152.8249  142.3641  158.7392 H   0  0  0  0  0  0  0  0  0  0  0  0
  152.6405  139.3845  156.9719 H   0  0  0  0  0  0  0  0  0  0  0  0
  149.6269  138.2873  153.2202 H   0  0  0  0  0  0  0  0  0  0  0  0
  147.1991  140.7738  154.6069 H   0  0  0  0  0  0  0  0  0  0  0  0
  148.0901  141.1952  153.1613 H   0  0  0  0  0  0  0  0  0  0  0  0
  146.1642  139.5878  152.7596 H   0  0  0  0  0  0  0  0  0  0  0  0
  147.9568  137.9979  151.8147 H   0  0  0  0  0  0  0  0  0  0  0  0
  147.9955  137.7668  154.3829 H   0  0  0  0  0  0  0  0  0  0  0  0
  146.3197  138.1028  154.7290 H   0  0  0  0  0  0  0  0  0  0  0  0
  147.0961  135.3994  154.6457 H   0  0  0  0  0  0  0  0  0  0  0  0
  145.4113  135.8572  154.5908 H   0  0  0  0  0  0  0  0  0  0  0  0
  146.9280  134.0457  152.6367 H   0  0  0  0  0  0  0  0  0  0  0  0
  145.7117  133.5278  153.7668 H   0  0  0  0  0  0  0  0  0  0  0  0
  144.9902  133.7329  151.3344 H   0  0  0  0  0  0  0  0  0  0  0  0
  141.7047  133.6095  152.4576 H   0  0  0  0  0  0  0  0  0  0  0  0
  142.9774  132.9908  151.4274 H   0  0  0  0  0  0  0  0  0  0  0  0
  146.1319  135.6619  150.6039 H   0  0  0  0  0  0  0  0  0  0  0  0
  144.4475  136.0901  150.5388 H   0  0  0  0  0  0  0  0  0  0  0  0
  144.6456  137.3952  152.6473 H   0  0  0  0  0  0  0  0  0  0  0  0
  145.8424  137.9064  151.4876 H   0  0  0  0  0  0  0  0  0  0  0  0
  148.5325  142.1252  156.2726 H   0  0  0  0  0  0  0  0  0  0  0  0
  149.0278  143.4707  158.1486 H   0  0  0  0  0  0  0  0  0  0  0  0
  150.7530  143.7506  158.3828 H   0  0  0  0  0  0  0  0  0  0  0  0
  149.8771  142.6474  159.4545 H   0  0  0  0  0  0  0  0  0  0  0  0
  147.4365  136.5001  152.5851 H   0  0  0  0  0  0  0  0  0  0  0  0
  1  2  1  0  0  0  0
  1 25  1  0  0  0  0
  1 26  1  0  0  0  0
  1 27  1  0  0  0  0
  2 23  1  0  0  0  0
  2  3  2  0  0  0  0
  3  4  1  0  0  0  0
  3 28  1  0  0  0  0
  4 21  2  0  0  0  0
  4  5  1  0  0  0  0
  5  6  2  0  0  0  0
  6  7  1  0  0  0  0
  6 29  1  0  0  0  0
  7  8  1  0  0  0  0
  7 21  1  0  0  0  0
  8  9  1  0  0  0  0
  8 30  1  0  0  0  0
  8 31  1  0  0  0  0
  9 10  1  0  0  0  0
  9 11  1  0  0  0  0
  9 32  1  0  0  0  0
 10 33  1  0  0  0  0
 11 12  1  0  0  0  0
 11 34  1  0  0  0  0
 11 35  1  0  0  0  0
 12 20  1  0  0  0  0
 12 13  1  0  0  0  0
 12 51  1  0  0  0  0
 13 14  1  0  0  0  0
 13 36  1  0  0  0  0
 13 37  1  0  0  0  0
 14 15  1  0  0  0  0
 14 38  1  0  0  0  0
 14 39  1  0  0  0  0
 15 16  1  0  0  0  0
 15 19  1  0  0  0  0
 15 40  1  0  0  0  0
 16 17  1  0  0  0  0
 16 18  2  0  0  0  0
 17 41  1  0  0  0  0
 17 42  1  0  0  0  0
 19 20  1  0  0  0  0
 19 43  1  0  0  0  0
 19 44  1  0  0  0  0
 20 45  1  0  0  0  0
 20 46  1  0  0  0  0
 21 22  1  0  0  0  0
 22 23  2  0  0  0  0
 22 47  1  0  0  0  0
 23 24  1  0  0  0  0
 24 48  1  0  0  0  0
 24 49  1  0  0  0  0
 24 50  1  0  0  0  0
M  CHG  1  12   1
M  END
> <s_m_source_file>
AV-unprocessed.smi

> <i_m_source_file_index>
1695

> <i_lp_mmshare_version>
43012

> <i_f3d_flags>
0

> <s_epik_input>
W0NIM11jKFtjSF0xKWMoW0NIM10pW2NIXWMoYzEyKW4oW2NIXW4yKVtDSDJdW0NASF0oW09IXSlbQ0gyXU4zW0NIMl1bQ0gyXVtDSF0oQyg9TylbTkgyXSlbQ0gyXVtDSDJdMw==

> <s_epik_cmdline>
J2VwaWtfcHl0aG9uJywgJy1waCcsICc3LjAnLCAnLXRuJywgJzgnLCAnLW1hJywgJzIwMCcsICctbWV0YWxfYmluZGluZycsICctaW1hZScsICc8aW5maWxlLm1hZT4nLCAnLW9tYWUnLCAnPG91dGZpbGUubWFlPic=

> <r_epik_Ionization_Penalty>
0.113899

> <r_epik_Ionization_Penalty_Charging>
0.0258844

> <r_epik_Ionization_Penalty_Neutral>
0.0880147

> <r_epik_State_Penalty>
0.0974403

> <r_epik_Charging_Adjusted_Penalty>
0.123325

> <i_epik_Tot_Q>
1

> <i_epik_Tot_abs_Q>
1

> <r_epik_Metal_State_Penalty>
0.0851148

> <b_epik_Metal_Only>
0

> <s_lp_Force_Field>
OPLS_2005

> <r_lp_Energy>
15.764

> <b_lp_Chiralities_Consistent>
1

> <s_lp_Variant>
AV-unprocessed.smi:1695-2

> <Gold.Version>
5.8.1

> <Gold.Id.Protein>
6NUR|6NUR_protein|mol2

> <Gold.PLP.Fitness>
47.7278

> <Gold.PLP.PLP>
-37.4269

> <Gold.PLP.part.hbond>
-3.0260

> <Gold.PLP.part.metal>
0.0000

> <Gold.PLP.part.buried>
-2.1485

> <Gold.PLP.part.nonpolar>
-32.1714

> <Gold.PLP.part.repulsive>
0.2299

> <Gold.PLP.ligand.clash>
1.7140

> <Gold.PLP.ligand.torsion>
0.6119

> <Gold.PLP.Chemscore.Hbond>
2.9913

> <Gold.PLP.Chemscore.CHOScore>
1.3915

> <Gold.PLP.Chemscore.Metal>
0.0000

> <Gold.Chemscore.Hbonds>
donor molecule, donor type, donor heavy atom, donor atom, acceptor molecule, acceptor atom, score
      L1  H    10    33       P1  7948  1.00
      L1  H    12    51       P1  7948  2.00
      L1  C     6    29       P1  7948  1.00
      L1  C     6    29       P1  7957  0.30

> <Gold.PLP.Chemscore.Internal.Correction>
0.0904

> <Gold.Rescore>
     Score         DG    S(hbond)    S(metal)    S(lipo)     H(rot)  DE(clash)    DE(int)     intcor
     10.57     -14.40       1.98        0.00      81.87       2.85       0.20       3.62       ----

> <Gold.Chemscore.Fitness>
10.5724

> <Gold.Chemscore.DG>
-14.3952

> <Gold.Chemscore.ZeroCoef>
-5.4800

> <Gold.Chemscore.Hbond>
1.9828

> <Gold.Chemscore.Metal>
0.0000

> <Gold.Chemscore.Lipo>
81.8745

> <Gold.Chemscore.Internal_Hbond>
0.0000

> <Gold.Chemscore.DEClash>
0.2014

> <Gold.Chemscore.DEInternal>
3.6214

> <Gold.Chemscore.Rot>
2.8464

> <Gold.Chemscore.Internal.Correction>
   9.000000E+99

> <Gold.Chemscore.Hbonds>
donor molecule, donor type, donor heavy atom, donor atom, acceptor molecule, acceptor atom, score
      L1  H    10    33       P1  7948  0.94
      L1  H    12    51       P1  7948  1.00

> <Gold.Chemscore.Hbond.Weighted>
-6.6226

> <Gold.Chemscore.Metal.Weighted>
-0.0000

> <Gold.Chemscore.Lipo.Weighted>
-9.5793

> <Gold.Chemscore.Internal_Hbond.Weighted>
0.0000

> <Gold.Chemscore.DEClash.Weighted>
0.2014

> <Gold.Chemscore.DEInternal.Weighted>
3.6214

> <Gold.Chemscore.Rot.Weighted>
7.2867

> <Gold.Chemscore.Internal.Correction.Weighted>
   9.000000E+99

> <Gold.Protein.RotatedTorsions>
[ 6907 6896 6895 6894 ] final   71.40 input  -60.11 | X-H torsion
[ 7974 7965 7964 7962 ] final  115.08 input  175.53 | X-H torsion
[ 8008 7997 7996 7995 ] final -139.28 input   59.86 | X-H torsion
[ 10167 10162 10161 10158 ] final  177.35 input  -65.29 | X-H torsion
[ 10718 10713 10712 10709 ] final   25.82 input   66.30 | X-H torsion
[ 10763 10752 10751 10750 ] final  133.80 input  -60.55 | X-H torsion
[ 11005 11000 10999 10996 ] final -168.69 input  -57.11 | X-H torsion

> <Gold.Protein.ActiveResidues>
 VAL166  LYS551  ARG553  GLY616  TRP617  ASP618  TYR619  PRO620  LYS621  CYS622 
 ASP623  PHE694  ASN695  SER759  ASP760  ASP761  ALA762  ILE779  LEU786  VAL792 
 PHE793  MET794  SER795  GLU796  ALA797  LYS798  CYS799  TRP800  GLU811  SER814 

> <Gold.Protein.RotatedAtoms>
  152.4807  134.4726  159.9640 H   0  0  0  0  0  0  0  0  0  0  0  0  # atno 6907 bound_to 6896
  151.4733  133.3558  159.2834 H   0  0  0  0  0  0  0  0  0  0  0  0  # atno 6908 bound_to 6896
  150.8878  134.8304  159.7332 H   0  0  0  0  0  0  0  0  0  0  0  0  # atno 6909 bound_to 6896
  145.1964  139.2974  143.4341 H   0  0  0  0  0  0  0  0  0  0  0  0  # atno 7974 bound_to 7965
  155.4423  140.0532  157.3009 H   0  0  0  0  0  0  0  0  0  0  0  0  # atno 8008 bound_to 7997
  154.4813  140.2082  155.9715 H   0  0  0  0  0  0  0  0  0  0  0  0  # atno 8009 bound_to 7997
  156.1209  140.3188  155.8212 H   0  0  0  0  0  0  0  0  0  0  0  0  # atno 8010 bound_to 7997
  139.5250  144.2808  152.0548 H   0  0  0  0  0  0  0  0  0  0  0  0  # atno 10167 bound_to 10162
  157.1985  130.6879  149.6178 H   0  0  0  0  0  0  0  0  0  0  0  0  # atno 10718 bound_to 10713
  153.8130  135.3126  155.3403 H   0  0  0  0  0  0  0  0  0  0  0  0  # atno 10763 bound_to 10752
  154.8043  135.4707  154.0357 H   0  0  0  0  0  0  0  0  0  0  0  0  # atno 10764 bound_to 10752
  153.1741  135.6883  153.8656 H   0  0  0  0  0  0  0  0  0  0  0  0  # atno 10765 bound_to 10752
  140.5392  134.5539  157.5095 H   0  0  0  0  0  0  0  0  0  0  0  0  # atno 11005 bound_to 11000
  146.3426  140.2194  142.8591 LP  0  0  0  0  0  0  0  0  0  0  0  0  # atno 17320 bound_to 7965
  144.9990  140.8615  143.5293 LP  0  0  0  0  0  0  0  0  0  0  0  0  # atno 17321 bound_to 7965
  140.2263  144.4414  150.6319 LP  0  0  0  0  0  0  0  0  0  0  0  0  # atno 17342 bound_to 10162
  140.6385  143.2199  151.6343 LP  0  0  0  0  0  0  0  0  0  0  0  0  # atno 17343 bound_to 10162
  155.9703  130.4591  150.6022 LP  0  0  0  0  0  0  0  0  0  0  0  0  # atno 17370 bound_to 10713
  157.3790  131.0778  151.1493 LP  0  0  0  0  0  0  0  0  0  0  0  0  # atno 17371 bound_to 10713
  139.9513  134.7612  156.0442 LP  0  0  0  0  0  0  0  0  0  0  0  0  # atno 17394 bound_to 11000
  141.1237  133.6605  156.3281 LP  0  0  0  0  0  0  0  0  0  0  0  0  # atno 17395 bound_to 11000

$$$$
