AV-unprocessed.smi:2946|AV-procd|sdf|11280|dock3
  -GOLD-   2272016173D 1   1.00000     0.00000
 Structure written by MMmdl.
 35 36  0  0  0  0  0  0  0  0  1 V2000
  150.3884  144.1964  158.7276 C   0  0  0  0  0  0  0  0  0  0  0  0
  151.2036  142.9998  158.6763 N   0  0  0  0  0  0  0  0  0  0  0  0
  151.1653  142.0562  157.6461 C   0  0  0  0  0  0  0  0  0  0  0  0
  150.2572  142.2583  156.6132 N   0  0  0  0  0  0  0  0  0  0  0  0
  150.0799  141.3844  155.4650 C   0  0  0  0  0  0  0  0  0  0  0  0
  148.6064  141.3223  155.0457 C   0  0  2  0  0  0  0  0  0  0  0  0
  148.2569  140.0994  154.1997 C   0  0  0  0  0  0  0  0  0  0  0  0
  147.0695  140.5627  153.3680 C   0  0  0  0  0  0  0  0  0  0  0  0
  147.0499  142.0824  153.5556 C   0  0  0  0  0  0  0  0  0  0  0  0
  148.2931  142.3921  154.1680 O   0  0  0  0  0  0  0  0  0  0  0  0
  151.9815  140.9660  157.6654 C   0  0  0  0  0  0  0  0  0  0  0  0
  151.9492  139.9463  156.6643 C   0  0  0  0  0  0  0  0  0  0  0  0
  151.9323  139.1300  155.8429 N   0  0  0  0  0  0  0  0  0  0  0  0
  152.9361  140.7317  158.7464 C   0  0  0  0  0  0  0  0  0  0  0  0
  153.6971  139.7621  158.7931 O   0  0  0  0  0  0  0  0  0  0  0  0
  152.9313  141.7105  159.7608 N   0  0  0  0  0  0  0  0  0  0  0  0
  153.8644  141.5081  160.8514 C   0  0  0  0  0  0  0  0  0  0  0  0
  152.0944  142.8466  159.7673 C   0  0  0  0  0  0  0  0  0  0  0  0
  152.1331  143.6776  160.6799 O   0  0  0  0  0  0  0  0  0  0  0  0
  149.7458  144.2630  157.8525 H   0  0  0  0  0  0  0  0  0  0  0  0
  151.0646  145.0535  158.7474 H   0  0  0  0  0  0  0  0  0  0  0  0
  149.7782  144.1393  159.6311 H   0  0  0  0  0  0  0  0  0  0  0  0
  150.1205  143.2293  156.3717 H   0  0  0  0  0  0  0  0  0  0  0  0
  150.6846  141.7245  154.6243 H   0  0  0  0  0  0  0  0  0  0  0  0
  150.4345  140.3894  155.7356 H   0  0  0  0  0  0  0  0  0  0  0  0
  147.9531  141.3675  155.9195 H   0  0  0  0  0  0  0  0  0  0  0  0
  149.0873  139.8477  153.5384 H   0  0  0  0  0  0  0  0  0  0  0  0
  148.0337  139.2215  154.8063 H   0  0  0  0  0  0  0  0  0  0  0  0
  147.2029  140.2898  152.3206 H   0  0  0  0  0  0  0  0  0  0  0  0
  146.1358  140.1181  153.7144 H   0  0  0  0  0  0  0  0  0  0  0  0
  146.9280  142.6205  152.6154 H   0  0  0  0  0  0  0  0  0  0  0  0
  146.2390  142.3762  154.2239 H   0  0  0  0  0  0  0  0  0  0  0  0
  153.7617  142.2767  161.6164 H   0  0  0  0  0  0  0  0  0  0  0  0
  154.8688  141.5381  160.4254 H   0  0  0  0  0  0  0  0  0  0  0  0
  153.6467  140.5318  161.2886 H   0  0  0  0  0  0  0  0  0  0  0  0
  1  2  1  0  0  0  0
  1 20  1  0  0  0  0
  1 21  1  0  0  0  0
  1 22  1  0  0  0  0
  2 18  1  0  0  0  0
  2  3  1  0  0  0  0
  3  4  1  0  0  0  0
  3 11  2  0  0  0  0
  4  5  1  0  0  0  0
  4 23  1  0  0  0  0
  5  6  1  0  0  0  0
  5 24  1  0  0  0  0
  5 25  1  0  0  0  0
  6 10  1  0  0  0  0
  6  7  1  0  0  0  0
  6 26  1  0  0  0  0
  7  8  1  0  0  0  0
  7 27  1  0  0  0  0
  7 28  1  0  0  0  0
  8  9  1  0  0  0  0
  8 29  1  0  0  0  0
  8 30  1  0  0  0  0
  9 10  1  0  0  0  0
  9 31  1  0  0  0  0
  9 32  1  0  0  0  0
 11 12  1  0  0  0  0
 11 14  1  0  0  0  0
 12 13  3  0  0  0  0
 14 15  2  0  0  0  0
 14 16  1  0  0  0  0
 16 17  1  0  0  0  0
 16 18  1  0  0  0  0
 17 33  1  0  0  0  0
 17 34  1  0  0  0  0
 17 35  1  0  0  0  0
 18 19  2  0  0  0  0
M  END
> <s_m_source_file>
AV-unprocessed.smi

> <i_m_source_file_index>
2946

> <i_lp_mmshare_version>
43012

> <i_f3d_flags>
0

> <s_epik_input>
Tz1jMW4oW0NIM10pYyg9TyljKEMjTiljKG4xW0NIM10pW05IXVtDSDJdW0NAQEhdMltDSDJdW0NIMl1bQ0gyXU8y

> <s_epik_cmdline>
J2VwaWtfcHl0aG9uJywgJy1waCcsICc3LjAnLCAnLXRuJywgJzgnLCAnLW1hJywgJzIwMCcsICctbWV0YWxfYmluZGluZycsICctaW1hZScsICc8aW5maWxlLm1hZT4nLCAnLW9tYWUnLCAnPG91dGZpbGUubWFlPic=

> <r_epik_Ionization_Penalty>
0.000541801

> <r_epik_Ionization_Penalty_Charging>
8.97317e-10

> <r_epik_Ionization_Penalty_Neutral>
0.000541801

> <r_epik_State_Penalty>
0.000338907

> <r_epik_Charging_Adjusted_Penalty>
0.000338908

> <i_epik_Tot_Q>
0

> <i_epik_Tot_abs_Q>
0

> <r_epik_Metal_State_Penalty>
-0

> <b_epik_Metal_Only>
0

> <s_lp_Force_Field>
OPLS_2005

> <r_lp_Energy>
38.3393

> <b_lp_Chiralities_Consistent>
1

> <s_lp_Variant>
AV-unprocessed.smi:2946-1

> <Gold.Version>
5.8.1

> <Gold.Id.Protein>
6NUR|6NUR_protein|mol2

> <Gold.PLP.Fitness>
41.8224

> <Gold.PLP.PLP>
-35.8702

> <Gold.PLP.part.hbond>
-3.2400

> <Gold.PLP.part.metal>
0.0000

> <Gold.PLP.part.buried>
-5.3472

> <Gold.PLP.part.nonpolar>
-28.7554

> <Gold.PLP.part.repulsive>
2.7688

> <Gold.PLP.ligand.clash>
11.1084

> <Gold.PLP.ligand.torsion>
0.4115

> <Gold.PLP.Chemscore.Hbond>
2.2555

> <Gold.PLP.Chemscore.CHOScore>
0.0000

> <Gold.PLP.Chemscore.Metal>
0.0000

> <Gold.Chemscore.Hbonds>
donor molecule, donor type, donor heavy atom, donor atom, acceptor molecule, acceptor atom, score
      L1  H     4    23       P1  8028  0.92
      P1  H  7997  8008       L1    15  1.00
      P1  H  8011  8017       L1    10  0.04

> <Gold.PLP.Chemscore.Internal.Correction>
11.1170

> <Gold.Rescore>
     Score         DG    S(hbond)    S(metal)    S(lipo)     H(rot)  DE(clash)    DE(int)     intcor
     11.58     -14.94       1.78        0.00      58.19       1.29       0.09       3.27       ----

> <Gold.Chemscore.Fitness>
11.5773

> <Gold.Chemscore.DG>
-14.9357

> <Gold.Chemscore.ZeroCoef>
-5.4800

> <Gold.Chemscore.Hbond>
1.7849

> <Gold.Chemscore.Metal>
0.0000

> <Gold.Chemscore.Lipo>
58.1904

> <Gold.Chemscore.Internal_Hbond>
0.0000

> <Gold.Chemscore.DEClash>
0.0856

> <Gold.Chemscore.DEInternal>
3.2728

> <Gold.Chemscore.Rot>
1.2946

> <Gold.Chemscore.Internal.Correction>
   9.000000E+99

> <Gold.Chemscore.Hbonds>
donor molecule, donor type, donor heavy atom, donor atom, acceptor molecule, acceptor atom, score
      L1  H     4    23       P1  8028  0.84
      P1  H  7997  8008       L1    15  0.43
      P1  H  8011  8017       L1    10  0.01
      P1  H  8022  8030       L1    10  0.02

> <Gold.Chemscore.Hbond.Weighted>
-5.9615

> <Gold.Chemscore.Metal.Weighted>
-0.0000

> <Gold.Chemscore.Lipo.Weighted>
-6.8083

> <Gold.Chemscore.Internal_Hbond.Weighted>
0.0000

> <Gold.Chemscore.DEClash.Weighted>
0.0856

> <Gold.Chemscore.DEInternal.Weighted>
3.2728

> <Gold.Chemscore.Rot.Weighted>
3.3141

> <Gold.Chemscore.Internal.Correction.Weighted>
   9.000000E+99

> <Gold.Protein.RotatedTorsions>
[ 6907 6896 6895 6894 ] final -113.85 input  -60.11 | X-H torsion
[ 7974 7965 7964 7962 ] final  -52.14 input  175.53 | X-H torsion
[ 8008 7997 7996 7995 ] final -108.38 input   59.86 | X-H torsion
[ 10167 10162 10161 10158 ] final  -16.48 input  -65.29 | X-H torsion
[ 10718 10713 10712 10709 ] final   42.43 input   66.30 | X-H torsion
[ 10763 10752 10751 10750 ] final   76.49 input  -60.55 | X-H torsion
[ 11005 11000 10999 10996 ] final -159.38 input  -57.11 | X-H torsion

> <Gold.Protein.ActiveResidues>
 VAL166  LYS551  ARG553  GLY616  TRP617  ASP618  TYR619  PRO620  LYS621  CYS622 
 ASP623  PHE694  ASN695  SER759  ASP760  ASP761  ALA762  ILE779  LEU786  VAL792 
 PHE793  MET794  SER795  GLU796  ALA797  LYS798  CYS799  TRP800  GLU811  SER814 

> <Gold.Protein.RotatedAtoms>
  150.7859  133.8886  159.3306 H   0  0  0  0  0  0  0  0  0  0  0  0  # atno 6907 bound_to 6896
  151.6737  135.0970  160.0212 H   0  0  0  0  0  0  0  0  0  0  0  0  # atno 6908 bound_to 6896
  152.3922  133.6657  159.6282 H   0  0  0  0  0  0  0  0  0  0  0  0  # atno 6909 bound_to 6896
  145.9113  140.7913  142.9694 H   0  0  0  0  0  0  0  0  0  0  0  0  # atno 7974 bound_to 7965
  154.9434  140.0402  157.2108 H   0  0  0  0  0  0  0  0  0  0  0  0  # atno 8008 bound_to 7997
  154.8047  140.2858  155.5874 H   0  0  0  0  0  0  0  0  0  0  0  0  # atno 8009 bound_to 7997
  156.2965  140.2548  156.2923 H   0  0  0  0  0  0  0  0  0  0  0  0  # atno 8010 bound_to 7997
  140.7234  143.5112  150.9748 H   0  0  0  0  0  0  0  0  0  0  0  0  # atno 10167 bound_to 10162
  157.4048  130.7880  149.7379 H   0  0  0  0  0  0  0  0  0  0  0  0  # atno 10718 bound_to 10713
  153.0729  135.4949  154.8344 H   0  0  0  0  0  0  0  0  0  0  0  0  # atno 10763 bound_to 10752
  154.7048  135.3008  154.9289 H   0  0  0  0  0  0  0  0  0  0  0  0  # atno 10764 bound_to 10752
  154.0002  135.6767  153.4811 H   0  0  0  0  0  0  0  0  0  0  0  0  # atno 10765 bound_to 10752
  140.6433  134.4528  157.5234 H   0  0  0  0  0  0  0  0  0  0  0  0  # atno 11005 bound_to 11000
  144.6743  140.1830  143.7404 LP  0  0  0  0  0  0  0  0  0  0  0  0  # atno 17320 bound_to 7965
  145.8668  139.2251  143.1684 LP  0  0  0  0  0  0  0  0  0  0  0  0  # atno 17321 bound_to 7965
  139.8826  143.7053  152.3155 LP  0  0  0  0  0  0  0  0  0  0  0  0  # atno 17342 bound_to 10162
  139.7341  144.7575  151.0756 LP  0  0  0  0  0  0  0  0  0  0  0  0  # atno 17343 bound_to 10162
  155.9833  130.4001  150.3369 LP  0  0  0  0  0  0  0  0  0  0  0  0  # atno 17370 bound_to 10713
  157.1501  131.0319  151.2889 LP  0  0  0  0  0  0  0  0  0  0  0  0  # atno 17371 bound_to 10713
  139.9072  134.8423  156.1661 LP  0  0  0  0  0  0  0  0  0  0  0  0  # atno 17394 bound_to 11000
  141.0591  133.6850  156.1917 LP  0  0  0  0  0  0  0  0  0  0  0  0  # atno 17395 bound_to 11000

$$$$
