AV-unprocessed.smi:283|AV-procd|sdf|2130|dock2
  -GOLD-   2262021443D 1   1.00000     0.00000
 Structure written by MMmdl.
 48 51  0  0  0  0  0  0  0  0  1 V2000
  151.5238  143.9191  157.4041 C   0  0  0  0  0  0  0  0  0  0  0  0
  151.0903  142.6746  158.2000 C   0  0  1  0  0  0  0  0  0  0  0  0
  151.1311  141.4724  157.3681 N   0  0  0  0  0  0  0  0  0  0  0  0
  150.1764  141.2098  156.4483 C   0  0  0  0  0  0  0  0  0  0  0  0
  150.4621  140.5364  155.3034 N   0  0  0  0  0  0  0  0  0  0  0  0
  149.4978  140.2970  154.4098 C   0  0  0  0  0  0  0  0  0  0  0  0
  148.2077  140.6370  154.4629 N   0  0  0  0  0  0  0  0  0  0  0  0
  147.9164  141.3170  155.6099 C   0  0  0  0  0  0  0  0  0  0  0  0
  148.8395  141.6437  156.6414 C   0  0  0  0  0  0  0  0  0  0  0  0
  148.1905  142.3479  157.6456 N   0  0  0  0  0  0  0  0  0  0  0  0
  146.9581  142.4371  157.2228 C   0  0  0  0  0  0  0  0  0  0  0  0
  146.6989  141.8253  156.0113 N   0  0  0  0  0  0  0  0  0  0  0  0
  145.4266  141.7553  155.2149 C   0  0  2  0  0  0  0  0  0  0  0  0
  145.1373  143.0469  154.7782 O   0  0  0  0  0  0  0  0  0  0  0  0
  144.2495  143.6707  155.6970 C   0  0  1  0  0  0  0  0  0  0  0  0
  143.5847  144.9117  155.0735 C   0  0  0  0  0  0  0  0  0  0  0  0
  143.0193  144.5820  153.8226 O   0  0  0  0  0  0  0  0  0  0  0  0
  143.3048  142.5149  156.0613 C   0  0  1  0  0  0  0  0  0  0  0  0
  142.2597  142.4050  155.1080 O   0  0  0  0  0  0  0  0  0  0  0  0
  144.2308  141.2917  156.0712 C   0  0  1  0  0  0  0  0  0  0  0  0
  143.6134  140.1233  155.5636 O   0  0  0  0  0  0  0  0  0  0  0  0
  151.9411  142.5418  159.4621 C   0  0  0  0  0  0  0  0  0  0  0  0
  152.7033  141.3696  159.6793 C   0  0  0  0  0  0  0  0  0  0  0  0
  153.4978  141.2323  160.8330 C   0  0  0  0  0  0  0  0  0  0  0  0
  153.5448  142.2695  161.7813 C   0  0  0  0  0  0  0  0  0  0  0  0
  152.8016  143.4453  161.5703 C   0  0  0  0  0  0  0  0  0  0  0  0
  152.0051  143.5891  160.4164 C   0  0  0  0  0  0  0  0  0  0  0  0
  151.1305  145.0656  160.2024 Cl  0  0  0  0  0  0  0  0  0  0  0  0
  145.6479  141.0977  154.3738 H   0  0  0  0  0  0  0  0  0  0  0  0
  144.8007  143.9633  156.5915 H   0  0  0  0  0  0  0  0  0  0  0  0
  142.8461  142.6738  157.0378 H   0  0  0  0  0  0  0  0  0  0  0  0
  144.5545  141.0739  157.0882 H   0  0  0  0  0  0  0  0  0  0  0  0
  151.4463  144.8187  158.0153 H   0  0  0  0  0  0  0  0  0  0  0  0
  150.9043  144.0751  156.5214 H   0  0  0  0  0  0  0  0  0  0  0  0
  152.5584  143.8342  157.0704 H   0  0  0  0  0  0  0  0  0  0  0  0
  150.0554  142.8048  158.5138 H   0  0  0  0  0  0  0  0  0  0  0  0
  151.9471  140.8897  157.4871 H   0  0  0  0  0  0  0  0  0  0  0  0
  149.8035  139.7564  153.5262 H   0  0  0  0  0  0  0  0  0  0  0  0
  146.2065  142.9578  157.7971 H   0  0  0  0  0  0  0  0  0  0  0  0
  142.8219  145.3297  155.7311 H   0  0  0  0  0  0  0  0  0  0  0  0
  144.3284  145.6899  154.9000 H   0  0  0  0  0  0  0  0  0  0  0  0
  143.7191  144.4231  153.2078 H   0  0  0  0  0  0  0  0  0  0  0  0
  142.6141  142.0237  154.3192 H   0  0  0  0  0  0  0  0  0  0  0  0
  143.8145  140.0527  154.6429 H   0  0  0  0  0  0  0  0  0  0  0  0
  152.6887  140.5652  158.9589 H   0  0  0  0  0  0  0  0  0  0  0  0
  154.0733  140.3316  160.9885 H   0  0  0  0  0  0  0  0  0  0  0  0
  154.1544  142.1662  162.6668 H   0  0  0  0  0  0  0  0  0  0  0  0
  152.8468  144.2433  162.2967 H   0  0  0  0  0  0  0  0  0  0  0  0
  1  2  1  0  0  0  0
  1 33  1  0  0  0  0
  1 34  1  0  0  0  0
  1 35  1  0  0  0  0
  2  3  1  0  0  0  0
  2 22  1  0  0  0  0
  2 36  1  0  0  0  0
  3  4  1  0  0  0  0
  3 37  1  0  0  0  0
  4  9  1  0  0  0  0
  4  5  2  0  0  0  0
  5  6  1  0  0  0  0
  6  7  2  0  0  0  0
  6 38  1  0  0  0  0
  7  8  1  0  0  0  0
  8 12  1  0  0  0  0
  8  9  2  0  0  0  0
  9 10  1  0  0  0  0
 10 11  2  0  0  0  0
 11 12  1  0  0  0  0
 11 39  1  0  0  0  0
 12 13  1  0  0  0  0
 13 29  1  0  0  0  0
 13 20  1  0  0  0  0
 13 14  1  0  0  0  0
 14 15  1  0  0  0  0
 15 30  1  0  0  0  0
 15 16  1  0  0  0  0
 15 18  1  0  0  0  0
 16 17  1  0  0  0  0
 16 40  1  0  0  0  0
 16 41  1  0  0  0  0
 17 42  1  0  0  0  0
 18 31  1  0  0  0  0
 18 19  1  0  0  0  0
 18 20  1  0  0  0  0
 19 43  1  0  0  0  0
 20 32  1  0  0  0  0
 20 21  1  0  0  0  0
 21 44  1  0  0  0  0
 22 27  1  0  0  0  0
 22 23  2  0  0  0  0
 23 24  1  0  0  0  0
 23 45  1  0  0  0  0
 24 25  2  0  0  0  0
 24 46  1  0  0  0  0
 25 26  1  0  0  0  0
 25 47  1  0  0  0  0
 26 27  2  0  0  0  0
 26 48  1  0  0  0  0
 27 28  1  0  0  0  0
M  END
> <s_m_source_file>
AV-unprocessed.smi

> <i_m_source_file_index>
283

> <i_lp_mmshare_version>
43012

> <i_f3d_flags>
0

> <s_epik_input>
Q2xjMVtjSF1bY0hdW2NIXVtjSF1jMVtDQEhdKFtDSDNdKVtOSF1jKG5bY0hdbjIpYyhjMjMpbltjSF1uM1tDQEBIXTRPW0NASF0oW0NIMl1bT0hdKVtDQEBIXShbT0hdKVtDQEhdNFtPSF0=

> <s_epik_cmdline>
J2VwaWtfcHl0aG9uJywgJy1waCcsICc3LjAnLCAnLXRuJywgJzgnLCAnLW1hJywgJzIwMCcsICctbWV0YWxfYmluZGluZycsICctaW1hZScsICc8aW5maWxlLm1hZT4nLCAnLW9tYWUnLCAnPG91dGZpbGUubWFlPic=

> <r_lp_tautomer_probability>
1

> <r_epik_Ionization_Penalty>
0.000266407

> <r_epik_Ionization_Penalty_Charging>
0

> <r_epik_Ionization_Penalty_Neutral>
0.000266407

> <r_epik_State_Penalty>
-0

> <r_epik_Charging_Adjusted_Penalty>
0

> <i_epik_Tot_Q>
0

> <i_epik_Tot_abs_Q>
0

> <r_epik_Metal_State_Penalty>
-0

> <b_epik_Metal_Only>
0

> <s_epik_Chemistry_Notes>
This compound contains an acetal/aminal-like group ( X-CH(R)-Y where X, Y are N, S, or O) that may be acid/base labile, releasing an aldehyde.

> <s_lp_Force_Field>
OPLS_2005

> <r_lp_Energy>
48.0921

> <b_lp_Chiralities_Consistent>
1

> <s_lp_Variant>
AV-unprocessed.smi:283-6

> <Gold.Version>
5.8.1

> <Gold.Id.Protein>
6NUR|6NUR_protein|mol2

> <Gold.PLP.Fitness>
56.7678

> <Gold.PLP.PLP>
-49.5299

> <Gold.PLP.part.hbond>
-4.8044

> <Gold.PLP.part.metal>
0.0000

> <Gold.PLP.part.buried>
-6.7106

> <Gold.PLP.part.nonpolar>
-39.0468

> <Gold.PLP.part.repulsive>
1.4281

> <Gold.PLP.ligand.clash>
0.0000

> <Gold.PLP.ligand.torsion>
0.6752

> <Gold.PLP.Chemscore.Hbond>
1.8301

> <Gold.PLP.Chemscore.CHOScore>
1.0000

> <Gold.PLP.Chemscore.Metal>
0.0000

> <Gold.Chemscore.Hbonds>
donor molecule, donor type, donor heavy atom, donor atom, acceptor molecule, acceptor atom, score
      L1  H    19    43       P1 10174  0.36
      L1  H    21    44       P1 10175  0.62
      P1  H  7989  7998       L1     5  0.06
      L1  C     6    38       P1  7957  1.00

> <Gold.PLP.Chemscore.Internal.Correction>
0.0978

> <Gold.Rescore>
     Score         DG    S(hbond)    S(metal)    S(lipo)     H(rot)  DE(clash)    DE(int)     intcor
     11.50     -14.13       1.82        0.00     111.58       4.10       1.25       1.38       ----

> <Gold.Chemscore.Fitness>
11.4990

> <Gold.Chemscore.DG>
-14.1286

> <Gold.Chemscore.ZeroCoef>
-5.4800

> <Gold.Chemscore.Hbond>
1.8207

> <Gold.Chemscore.Metal>
0.0000

> <Gold.Chemscore.Lipo>
111.5834

> <Gold.Chemscore.Internal_Hbond>
0.0000

> <Gold.Chemscore.DEClash>
1.2538

> <Gold.Chemscore.DEInternal>
1.3759

> <Gold.Chemscore.Rot>
4.0968

> <Gold.Chemscore.Internal.Correction>
   9.000000E+99

> <Gold.Chemscore.Hbonds>
donor molecule, donor type, donor heavy atom, donor atom, acceptor molecule, acceptor atom, score
      L1  H    19    43       P1 10174  0.07
      L1  H    21    44       P1 10175  0.60

> <Gold.Chemscore.Hbond.Weighted>
-6.0813

> <Gold.Chemscore.Metal.Weighted>
-0.0000

> <Gold.Chemscore.Lipo.Weighted>
-13.0553

> <Gold.Chemscore.Internal_Hbond.Weighted>
0.0000

> <Gold.Chemscore.DEClash.Weighted>
1.2538

> <Gold.Chemscore.DEInternal.Weighted>
1.3759

> <Gold.Chemscore.Rot.Weighted>
10.4879

> <Gold.Chemscore.Internal.Correction.Weighted>
   9.000000E+99

> <Gold.Protein.RotatedTorsions>
[ 6907 6896 6895 6894 ] final  -88.14 input  -60.11 | X-H torsion
[ 7974 7965 7964 7962 ] final  150.20 input  175.53 | X-H torsion
[ 8008 7997 7996 7995 ] final   60.74 input   59.86 | X-H torsion
[ 10167 10162 10161 10158 ] final   23.82 input  -65.29 | X-H torsion
[ 10718 10713 10712 10709 ] final    0.25 input   66.30 | X-H torsion
[ 10763 10752 10751 10750 ] final -100.45 input  -60.55 | X-H torsion
[ 11005 11000 10999 10996 ] final  -75.43 input  -57.11 | X-H torsion

> <Gold.Protein.ActiveResidues>
 VAL166  LYS551  ARG553  GLY616  TRP617  ASP618  TYR619  PRO620  LYS621  CYS622 
 ASP623  PHE694  ASN695  SER759  ASP760  ASP761  ALA762  ILE779  LEU786  VAL792 
 PHE793  MET794  SER795  GLU796  ALA797  LYS798  CYS799  TRP800  GLU811  SER814 

> <Gold.Protein.RotatedAtoms>
  150.6868  134.2788  159.4618 H   0  0  0  0  0  0  0  0  0  0  0  0  # atno 6907 bound_to 6896
  152.0703  134.9535  160.0584 H   0  0  0  0  0  0  0  0  0  0  0  0  # atno 6908 bound_to 6896
  152.0927  133.4174  159.4588 H   0  0  0  0  0  0  0  0  0  0  0  0  # atno 6909 bound_to 6896
  144.8382  139.6378  143.6028 H   0  0  0  0  0  0  0  0  0  0  0  0  # atno 7974 bound_to 7965
  155.5871  140.3492  155.4556 H   0  0  0  0  0  0  0  0  0  0  0  0  # atno 8008 bound_to 7997
  156.0329  140.1278  157.0264 H   0  0  0  0  0  0  0  0  0  0  0  0  # atno 8009 bound_to 7997
  154.4359  140.1039  156.6111 H   0  0  0  0  0  0  0  0  0  0  0  0  # atno 8010 bound_to 7997
  140.5238  143.9957  150.6430 H   0  0  0  0  0  0  0  0  0  0  0  0  # atno 10167 bound_to 10162
  156.8305  130.5487  149.5687 H   0  0  0  0  0  0  0  0  0  0  0  0  # atno 10718 bound_to 10713
  154.7580  135.4934  153.9410 H   0  0  0  0  0  0  0  0  0  0  0  0  # atno 10763 bound_to 10752
  153.1218  135.6733  153.9331 H   0  0  0  0  0  0  0  0  0  0  0  0  # atno 10764 bound_to 10752
  153.9061  135.3104  155.3427 H   0  0  0  0  0  0  0  0  0  0  0  0  # atno 10765 bound_to 10752
  141.1645  133.6946  156.7515 H   0  0  0  0  0  0  0  0  0  0  0  0  # atno 11005 bound_to 11000
  146.2678  139.6561  142.9317 LP  0  0  0  0  0  0  0  0  0  0  0  0  # atno 17320 bound_to 7965
  145.4751  141.0437  143.2677 LP  0  0  0  0  0  0  0  0  0  0  0  0  # atno 17321 bound_to 7965
  140.3313  143.3076  152.0684 LP  0  0  0  0  0  0  0  0  0  0  0  0  # atno 17342 bound_to 10162
  139.4932  144.6507  151.6682 LP  0  0  0  0  0  0  0  0  0  0  0  0  # atno 17343 bound_to 10162
  156.0936  130.5915  150.9776 LP  0  0  0  0  0  0  0  0  0  0  0  0  # atno 17370 bound_to 10713
  157.6409  131.0910  150.8253 LP  0  0  0  0  0  0  0  0  0  0  0  0  # atno 17371 bound_to 10713
  140.2600  134.8474  157.3750 LP  0  0  0  0  0  0  0  0  0  0  0  0  # atno 17394 bound_to 11000
  140.1620  134.4716  155.7888 LP  0  0  0  0  0  0  0  0  0  0  0  0  # atno 17395 bound_to 11000

$$$$
