AV-unprocessed.smi:1701|AV-procd|sdf|6829|dock9
  -GOLD-   22720 8 03D 1   1.00000     0.00000
 Structure written by MMmdl.
 54 56  0  0  0  0  0  0  0  0  2 V2000
  152.7786  140.7550  158.8436 C   0  0  0  0  0  0  0  0  0  0  0  0
  151.6038  141.7212  158.6372 C   0  0  0  0  0  0  0  0  0  0  0  0
  151.0550  141.6770  157.2817 N   0  0  0  0  0  0  0  0  0  0  0  0
  151.0326  142.9038  156.4813 C   0  0  0  0  0  0  0  0  0  0  0  0
  151.8314  144.0518  157.1178 C   0  0  0  0  0  0  0  0  0  0  0  0
  150.6933  140.4411  156.6904 C   0  0  0  0  0  0  0  0  0  0  0  0
  150.3609  139.3067  157.4733 C   0  0  0  0  0  0  0  0  0  0  0  0
  150.0051  138.1033  156.8347 C   0  0  0  0  0  0  0  0  0  0  0  0
  149.9916  138.0537  155.4226 C   0  0  0  0  0  0  0  0  0  0  0  0
  149.6211  136.9074  154.6702 N   0  0  0  0  0  0  0  0  0  0  0  0
  149.3161  135.6759  155.1242 C   0  0  0  0  0  0  0  0  0  0  0  0
  149.4216  135.3178  156.2949 O   0  0  0  0  0  0  0  0  0  0  0  0
  148.9141  134.8182  154.1696 N   0  0  0  0  0  0  0  0  0  0  0  0
  148.5137  133.4191  154.3244 C   0  0  2  0  0  0  0  0  0  0  0  0
  149.5724  132.5323  155.0034 C   0  0  0  0  0  0  0  0  0  0  0  0
  149.5399  131.1930  154.2413 C   0  0  0  0  0  0  0  0  0  0  0  0
  148.4355  131.2895  153.2599 N   0  3  1  0  0  0  0  0  0  0  0  0
  147.1848  130.6551  153.7599 C   0  0  0  0  0  0  0  0  0  0  0  0
  145.9828  130.9570  152.8559 C   0  0  0  0  0  0  0  0  0  0  0  0
  145.7776  132.4691  152.7376 C   0  0  0  0  0  0  0  0  0  0  0  0
  147.0487  133.1145  152.1749 C   0  0  0  0  0  0  0  0  0  0  0  0
  148.3225  132.7382  152.9647 C   0  0  1  0  0  0  0  0  0  0  0  0
  150.3215  139.2323  154.7270 C   0  0  0  0  0  0  0  0  0  0  0  0
  150.6671  140.3854  155.3358 N   0  0  0  0  0  0  0  0  0  0  0  0
  153.1180  140.7809  159.8791 H   0  0  0  0  0  0  0  0  0  0  0  0
  153.6285  141.0222  158.2168 H   0  0  0  0  0  0  0  0  0  0  0  0
  152.4998  139.7268  158.6127 H   0  0  0  0  0  0  0  0  0  0  0  0
  150.8204  141.5341  159.3712 H   0  0  0  0  0  0  0  0  0  0  0  0
  151.9424  142.7373  158.8411 H   0  0  0  0  0  0  0  0  0  0  0  0
  151.3995  142.7025  155.4746 H   0  0  0  0  0  0  0  0  0  0  0  0
  149.9981  143.2237  156.3539 H   0  0  0  0  0  0  0  0  0  0  0  0
  151.7802  144.9448  156.4949 H   0  0  0  0  0  0  0  0  0  0  0  0
  152.8839  143.7919  157.2323 H   0  0  0  0  0  0  0  0  0  0  0  0
  151.4443  144.3159  158.1010 H   0  0  0  0  0  0  0  0  0  0  0  0
  150.3750  139.3281  158.5518 H   0  0  0  0  0  0  0  0  0  0  0  0
  149.7358  137.2509  157.4390 H   0  0  0  0  0  0  0  0  0  0  0  0
  149.6123  137.0300  153.6684 H   0  0  0  0  0  0  0  0  0  0  0  0
  148.9347  135.1669  153.2218 H   0  0  0  0  0  0  0  0  0  0  0  0
  147.5800  133.3642  154.8865 H   0  0  0  0  0  0  0  0  0  0  0  0
  150.5685  132.9725  154.9363 H   0  0  0  0  0  0  0  0  0  0  0  0
  149.3458  132.3979  156.0618 H   0  0  0  0  0  0  0  0  0  0  0  0
  150.4737  131.0626  153.6933 H   0  0  0  0  0  0  0  0  0  0  0  0
  149.4355  130.3353  154.9075 H   0  0  0  0  0  0  0  0  0  0  0  0
  147.3363  129.5770  153.8256 H   0  0  0  0  0  0  0  0  0  0  0  0
  146.9709  131.0013  154.7725 H   0  0  0  0  0  0  0  0  0  0  0  0
  146.1394  130.5217  151.8680 H   0  0  0  0  0  0  0  0  0  0  0  0
  145.0853  130.4908  153.2633 H   0  0  0  0  0  0  0  0  0  0  0  0
  144.9294  132.6842  152.0872 H   0  0  0  0  0  0  0  0  0  0  0  0
  145.5374  132.8932  153.7131 H   0  0  0  0  0  0  0  0  0  0  0  0
  147.1712  132.7892  151.1409 H   0  0  0  0  0  0  0  0  0  0  0  0
  146.9346  134.1982  152.1357 H   0  0  0  0  0  0  0  0  0  0  0  0
  149.1815  132.9940  152.3403 H   0  0  0  0  0  0  0  0  0  0  0  0
  150.3119  139.2527  153.6467 H   0  0  0  0  0  0  0  0  0  0  0  0
  148.6972  130.8058  152.4124 H   0  0  0  0  0  0  0  0  0  0  0  0
  1  2  1  0  0  0  0
  1 25  1  0  0  0  0
  1 26  1  0  0  0  0
  1 27  1  0  0  0  0
  2  3  1  0  0  0  0
  2 28  1  0  0  0  0
  2 29  1  0  0  0  0
  3  4  1  0  0  0  0
  3  6  1  0  0  0  0
  4  5  1  0  0  0  0
  4 30  1  0  0  0  0
  4 31  1  0  0  0  0
  5 32  1  0  0  0  0
  5 33  1  0  0  0  0
  5 34  1  0  0  0  0
  6 24  1  0  0  0  0
  6  7  2  0  0  0  0
  7  8  1  0  0  0  0
  7 35  1  0  0  0  0
  8  9  2  0  0  0  0
  8 36  1  0  0  0  0
  9 10  1  0  0  0  0
  9 23  1  0  0  0  0
 10 11  1  0  0  0  0
 10 37  1  0  0  0  0
 11 12  2  0  0  0  0
 11 13  1  0  0  0  0
 13 14  1  0  0  0  0
 13 38  1  0  0  0  0
 14 22  1  0  0  0  0
 14 15  1  0  0  0  0
 14 39  1  0  0  0  0
 15 16  1  0  0  0  0
 15 40  1  0  0  0  0
 15 41  1  0  0  0  0
 16 17  1  0  0  0  0
 16 42  1  0  0  0  0
 16 43  1  0  0  0  0
 17 22  1  0  0  0  0
 17 18  1  0  0  0  0
 17 54  1  0  0  0  0
 18 19  1  0  0  0  0
 18 44  1  0  0  0  0
 18 45  1  0  0  0  0
 19 20  1  0  0  0  0
 19 46  1  0  0  0  0
 19 47  1  0  0  0  0
 20 21  1  0  0  0  0
 20 48  1  0  0  0  0
 20 49  1  0  0  0  0
 21 22  1  0  0  0  0
 21 50  1  0  0  0  0
 21 51  1  0  0  0  0
 22 52  1  0  0  0  0
 23 24  2  0  0  0  0
 23 53  1  0  0  0  0
M  CHG  1  17   1
M  END
> <s_m_source_file>
AV-unprocessed.smi

> <i_m_source_file_index>
1701

> <i_lp_mmshare_version>
43012

> <i_f3d_flags>
0

> <s_epik_input>
W0NIM11bQ0gyXU4oW0NIMl1bQ0gzXSljMVtjSF1bY0hdYyhbY0hdbjEpW05IXUMoPU8pW05IXVtDQEhdKFtDSDJdW0NIMl0yKVtDQEBIXShOMjMpW0NIMl1bQ0gyXVtDSDJdW0NIMl0z

> <s_epik_cmdline>
J2VwaWtfcHl0aG9uJywgJy1waCcsICc3LjAnLCAnLXRuJywgJzgnLCAnLW1hJywgJzIwMCcsICctbWV0YWxfYmluZGluZycsICctaW1hZScsICc8aW5maWxlLm1hZT4nLCAnLW9tYWUnLCAnPG91dGZpbGUubWFlPic=

> <r_lp_tautomer_probability>
1

> <r_epik_Ionization_Penalty>
0.56662

> <r_epik_Ionization_Penalty_Charging>
0.000974069

> <r_epik_Ionization_Penalty_Neutral>
0.565646

> <r_epik_State_Penalty>
2.0247

> <r_epik_Charging_Adjusted_Penalty>
2.02568

> <i_epik_Tot_Q>
1

> <i_epik_Tot_abs_Q>
1

> <r_epik_Metal_State_Penalty>
1.51504

> <b_epik_Metal_Only>
0

> <s_lp_Force_Field>
OPLS_2005

> <r_lp_Energy>
57.8718

> <b_lp_Chiralities_Consistent>
1

> <s_lp_Variant>
AV-unprocessed.smi:1701-9

> <Gold.Version>
5.8.1

> <Gold.Id.Protein>
6NUR|6NUR_protein|mol2

> <Gold.PLP.Fitness>
48.3293

> <Gold.PLP.PLP>
-37.7603

> <Gold.PLP.part.hbond>
-3.9493

> <Gold.PLP.part.metal>
0.0000

> <Gold.PLP.part.buried>
-2.7748

> <Gold.PLP.part.nonpolar>
-30.7732

> <Gold.PLP.part.repulsive>
0.1116

> <Gold.PLP.ligand.clash>
0.0000

> <Gold.PLP.ligand.torsion>
0.4288

> <Gold.PLP.Chemscore.Hbond>
3.1109

> <Gold.PLP.Chemscore.CHOScore>
0.6650

> <Gold.PLP.Chemscore.Metal>
0.0000

> <Gold.Chemscore.Hbonds>
donor molecule, donor type, donor heavy atom, donor atom, acceptor molecule, acceptor atom, score
      L1  H    10    37       P1  7948  0.86
      L1  H    13    38       P1  7948  1.00
      L1  H    17    54       P1 10747  0.74
      P1  H  7989  7998       L1    24  0.22
      L1  C    23    53       P1  7957  0.60

> <Gold.PLP.Chemscore.Internal.Correction>
0.0989

> <Gold.Rescore>
     Score         DG    S(hbond)    S(metal)    S(lipo)     H(rot)  DE(clash)    DE(int)     intcor
     20.11     -21.80       2.64        0.00      92.15       1.28       0.02       1.67       ----

> <Gold.Chemscore.Fitness>
20.1078

> <Gold.Chemscore.DG>
-21.7972

> <Gold.Chemscore.ZeroCoef>
-5.4800

> <Gold.Chemscore.Hbond>
2.6414

> <Gold.Chemscore.Metal>
0.0000

> <Gold.Chemscore.Lipo>
92.1502

> <Gold.Chemscore.Internal_Hbond>
0.0000

> <Gold.Chemscore.DEClash>
0.0153

> <Gold.Chemscore.DEInternal>
1.6742

> <Gold.Chemscore.Rot>
1.2838

> <Gold.Chemscore.Internal.Correction>
   9.000000E+99

> <Gold.Chemscore.Hbonds>
donor molecule, donor type, donor heavy atom, donor atom, acceptor molecule, acceptor atom, score
      L1  H    10    37       P1  7948  0.66
      L1  H    13    38       P1  7948  0.40
      L1  H    17    54       P1 10747  0.53

> <Gold.Chemscore.Hbond.Weighted>
-8.8222

> <Gold.Chemscore.Metal.Weighted>
-0.0000

> <Gold.Chemscore.Lipo.Weighted>
-10.7816

> <Gold.Chemscore.Internal_Hbond.Weighted>
0.0000

> <Gold.Chemscore.DEClash.Weighted>
0.0153

> <Gold.Chemscore.DEInternal.Weighted>
1.6742

> <Gold.Chemscore.Rot.Weighted>
3.2865

> <Gold.Chemscore.Internal.Correction.Weighted>
   9.000000E+99

> <Gold.Protein.RotatedTorsions>
[ 6907 6896 6895 6894 ] final  -22.98 input  -60.11 | X-H torsion
[ 7974 7965 7964 7962 ] final   -4.49 input  175.53 | X-H torsion
[ 8008 7997 7996 7995 ] final  147.78 input   59.86 | X-H torsion
[ 10167 10162 10161 10158 ] final  -20.39 input  -65.29 | X-H torsion
[ 10718 10713 10712 10709 ] final -143.59 input   66.30 | X-H torsion
[ 10763 10752 10751 10750 ] final   82.54 input  -60.55 | X-H torsion
[ 11005 11000 10999 10996 ] final  -43.28 input  -57.11 | X-H torsion

> <Gold.Protein.ActiveResidues>
 VAL166  LYS551  ARG553  GLY616  TRP617  ASP618  TYR619  PRO620  LYS621  CYS622 
 ASP623  PHE694  ASN695  SER759  ASP760  ASP761  ALA762  ILE779  LEU786  VAL792 
 PHE793  MET794  SER795  GLU796  ALA797  LYS798  CYS799  TRP800  GLU811  SER814 

> <Gold.Protein.RotatedAtoms>
  151.2106  135.0480  159.8909 H   0  0  0  0  0  0  0  0  0  0  0  0  # atno 6907 bound_to 6896
  152.5425  134.0749  159.8220 H   0  0  0  0  0  0  0  0  0  0  0  0  # atno 6908 bound_to 6896
  151.0901  133.5274  159.2647 H   0  0  0  0  0  0  0  0  0  0  0  0  # atno 6909 bound_to 6896
  146.2371  140.1879  142.8332 H   0  0  0  0  0  0  0  0  0  0  0  0  # atno 7974 bound_to 7965
  156.2813  140.2146  156.5592 H   0  0  0  0  0  0  0  0  0  0  0  0  # atno 8008 bound_to 7997
  154.7227  140.0502  157.0677 H   0  0  0  0  0  0  0  0  0  0  0  0  # atno 8009 bound_to 7997
  155.0457  140.3150  155.4712 H   0  0  0  0  0  0  0  0  0  0  0  0  # atno 8010 bound_to 7997
  140.7275  143.4727  151.0224 H   0  0  0  0  0  0  0  0  0  0  0  0  # atno 10167 bound_to 10162
  156.3598  130.7732  151.1898 H   0  0  0  0  0  0  0  0  0  0  0  0  # atno 10718 bound_to 10713
  153.1212  135.4724  154.9198 H   0  0  0  0  0  0  0  0  0  0  0  0  # atno 10763 bound_to 10752
  154.7577  135.3123  154.8440 H   0  0  0  0  0  0  0  0  0  0  0  0  # atno 10764 bound_to 10752
  153.9004  135.6875  153.4809 H   0  0  0  0  0  0  0  0  0  0  0  0  # atno 10765 bound_to 10752
  141.0373  133.6794  156.2711 H   0  0  0  0  0  0  0  0  0  0  0  0  # atno 11005 bound_to 11000
  144.9881  140.8522  143.5356 LP  0  0  0  0  0  0  0  0  0  0  0  0  # atno 17320 bound_to 7965
  145.1881  139.2315  143.5257 LP  0  0  0  0  0  0  0  0  0  0  0  0  # atno 17321 bound_to 7965
  139.8421  143.7550  152.3180 LP  0  0  0  0  0  0  0  0  0  0  0  0  # atno 17342 bound_to 10162
  139.7703  144.7479  151.0235 LP  0  0  0  0  0  0  0  0  0  0  0  0  # atno 17343 bound_to 10162
  157.7472  131.0403  150.4593 LP  0  0  0  0  0  0  0  0  0  0  0  0  # atno 17370 bound_to 10713
  156.4802  130.4072  149.6466 LP  0  0  0  0  0  0  0  0  0  0  0  0  # atno 17371 bound_to 10713
  140.6299  134.5275  157.5558 LP  0  0  0  0  0  0  0  0  0  0  0  0  # atno 17394 bound_to 11000
  139.9250  134.8074  156.1097 LP  0  0  0  0  0  0  0  0  0  0  0  0  # atno 17395 bound_to 11000

$$$$
