AV-unprocessed.smi:332|AV-procd|sdf|2359|dock2
  -GOLD-   2262022273D 1   1.00000     0.00000
 Structure written by MMmdl.
 42 44  0  0  0  0  0  0  0  0  1 V2000
  152.0723  140.0733  158.2592 C   0  0  0  0  0  0  0  0  0  0  0  0
  151.4452  141.3781  157.7413 C   0  0  1  0  0  0  0  0  0  0  0  0
  150.1216  141.0712  157.2021 N   0  0  0  0  0  0  0  0  0  0  0  0
  149.8101  140.9417  155.9030 C   0  0  0  0  0  0  0  0  0  0  0  0
  150.6364  141.0263  154.9934 O   0  0  0  0  0  0  0  0  0  0  0  0
  148.3328  140.6655  155.5918 C   0  0  0  0  0  0  0  0  0  0  0  0
  147.6530  141.8145  154.9713 N   0  0  0  0  0  0  0  0  0  0  0  0
  146.5207  142.3274  155.6352 C   0  0  0  0  0  0  0  0  0  0  0  0
  145.8266  143.3700  155.1524 C   0  0  0  0  0  0  0  0  0  0  0  0
  146.2680  143.9700  153.9157 C   0  0  0  0  0  0  0  0  0  0  0  0
  147.3476  143.4851  153.2706 C   0  0  0  0  0  0  0  0  0  0  0  0
  148.1087  142.3446  153.7940 C   0  0  0  0  0  0  0  0  0  0  0  0
  149.0949  141.8934  153.2103 O   0  0  0  0  0  0  0  0  0  0  0  0
  151.3306  142.4581  158.8461 C   0  0  1  0  0  0  0  0  0  0  0  0
  152.6498  142.6903  159.6228 C   0  0  0  0  0  0  0  0  0  0  0  0
  152.8706  144.2085  159.5039 C   0  0  2  0  0  0  0  0  0  0  0  0
  151.8120  144.9507  160.3394 C   0  0  0  0  0  0  0  0  0  0  0  0
  150.5289  144.7507  159.5121 C   0  0  0  0  0  0  0  0  0  0  0  0
  151.0163  143.8884  158.3320 C   0  0  1  0  0  0  0  0  0  0  0  0
  152.4011  144.4754  158.0803 C   0  0  0  0  0  0  0  0  0  0  0  0
  153.0864  140.2325  158.6252 H   0  0  0  0  0  0  0  0  0  0  0  0
  152.1288  139.3259  157.4670 H   0  0  0  0  0  0  0  0  0  0  0  0
  151.4877  139.6481  159.0758 H   0  0  0  0  0  0  0  0  0  0  0  0
  152.0907  141.7604  156.9492 H   0  0  0  0  0  0  0  0  0  0  0  0
  149.3736  140.9786  157.8743 H   0  0  0  0  0  0  0  0  0  0  0  0
  148.2810  139.7885  154.9452 H   0  0  0  0  0  0  0  0  0  0  0  0
  147.8102  140.3784  156.5065 H   0  0  0  0  0  0  0  0  0  0  0  0
  146.2517  141.8182  156.5492 H   0  0  0  0  0  0  0  0  0  0  0  0
  144.9585  143.7470  155.6731 H   0  0  0  0  0  0  0  0  0  0  0  0
  145.7287  144.8107  153.5049 H   0  0  0  0  0  0  0  0  0  0  0  0
  147.6617  143.9457  152.3454 H   0  0  0  0  0  0  0  0  0  0  0  0
  150.5467  142.1469  159.5388 H   0  0  0  0  0  0  0  0  0  0  0  0
  152.5837  142.3602  160.6601 H   0  0  0  0  0  0  0  0  0  0  0  0
  153.4853  142.1621  159.1618 H   0  0  0  0  0  0  0  0  0  0  0  0
  153.8935  144.5189  159.7182 H   0  0  0  0  0  0  0  0  0  0  0  0
  151.7245  144.5455  161.3481 H   0  0  0  0  0  0  0  0  0  0  0  0
  152.0534  146.0111  160.4227 H   0  0  0  0  0  0  0  0  0  0  0  0
  149.7334  144.2697  160.0821 H   0  0  0  0  0  0  0  0  0  0  0  0
  150.1491  145.7102  159.1584 H   0  0  0  0  0  0  0  0  0  0  0  0
  150.3417  143.9317  157.4772 H   0  0  0  0  0  0  0  0  0  0  0  0
  152.3820  145.5359  157.8233 H   0  0  0  0  0  0  0  0  0  0  0  0
  152.9739  143.9359  157.3244 H   0  0  0  0  0  0  0  0  0  0  0  0
  1  2  1  0  0  0  0
  1 21  1  0  0  0  0
  1 22  1  0  0  0  0
  1 23  1  0  0  0  0
  2  3  1  0  0  0  0
  2 14  1  0  0  0  0
  2 24  1  0  0  0  0
  3  4  1  0  0  0  0
  3 25  1  0  0  0  0
  4  5  2  0  0  0  0
  4  6  1  0  0  0  0
  6  7  1  0  0  0  0
  6 26  1  0  0  0  0
  6 27  1  0  0  0  0
  7 12  1  0  0  0  0
  7  8  1  0  0  0  0
  8  9  2  0  0  0  0
  8 28  1  0  0  0  0
  9 10  1  0  0  0  0
  9 29  1  0  0  0  0
 10 11  2  0  0  0  0
 10 30  1  0  0  0  0
 11 12  1  0  0  0  0
 11 31  1  0  0  0  0
 12 13  2  0  0  0  0
 14 19  1  0  0  0  0
 14 15  1  0  0  0  0
 14 32  1  0  0  0  0
 15 16  1  0  0  0  0
 15 33  1  0  0  0  0
 15 34  1  0  0  0  0
 16 20  1  0  0  0  0
 16 17  1  0  0  0  0
 16 35  1  0  0  0  0
 17 18  1  0  0  0  0
 17 36  1  0  0  0  0
 17 37  1  0  0  0  0
 18 19  1  0  0  0  0
 18 38  1  0  0  0  0
 18 39  1  0  0  0  0
 19 20  1  0  0  0  0
 19 40  1  0  0  0  0
 20 41  1  0  0  0  0
 20 42  1  0  0  0  0
M  END
> <s_m_source_file>
AV-unprocessed.smi

> <i_m_source_file_index>
332

> <i_lp_mmshare_version>
43012

> <i_f3d_flags>
0

> <s_epik_input>
W0NIMl0xW0NIMl1bQ0BIXShbQ0gyXTIpW0NAQEhdKFtDSDJdW0NAQEhdMTIpW0NASF0oW0NIM10pW05IXUMoPU8pW0NIMl1uM1tjSF1bY0hdW2NIXVtjSF1jMz1P

> <s_epik_cmdline>
J2VwaWtfcHl0aG9uJywgJy1waCcsICc3LjAnLCAnLXRuJywgJzgnLCAnLW1hJywgJzIwMCcsICctbWV0YWxfYmluZGluZycsICctaW1hZScsICc8aW5maWxlLm1hZT4nLCAnLW9tYWUnLCAnPG91dGZpbGUubWFlPic=

> <r_lp_tautomer_probability>
1

> <r_epik_Ionization_Penalty>
4.05802e-07

> <r_epik_Ionization_Penalty_Charging>
3.84175e-07

> <r_epik_Ionization_Penalty_Neutral>
2.16269e-08

> <r_epik_State_Penalty>
-0

> <r_epik_Charging_Adjusted_Penalty>
3.84175e-07

> <i_epik_Tot_Q>
0

> <i_epik_Tot_abs_Q>
0

> <r_epik_Metal_State_Penalty>
-0

> <b_epik_Metal_Only>
0

> <s_lp_Force_Field>
OPLS_2005

> <r_lp_Energy>
59.7004

> <b_lp_Chiralities_Consistent>
1

> <s_lp_Variant>
AV-unprocessed.smi:332-8

> <Gold.Version>
5.8.1

> <Gold.Id.Protein>
6NUR|6NUR_protein|mol2

> <Gold.PLP.Fitness>
46.6335

> <Gold.PLP.PLP>
-42.9151

> <Gold.PLP.part.hbond>
-2.0000

> <Gold.PLP.part.metal>
0.0000

> <Gold.PLP.part.buried>
-7.0060

> <Gold.PLP.part.nonpolar>
-34.9484

> <Gold.PLP.part.repulsive>
1.3603

> <Gold.PLP.ligand.clash>
0.0000

> <Gold.PLP.ligand.torsion>
0.4697

> <Gold.PLP.Chemscore.Hbond>
1.5476

> <Gold.PLP.Chemscore.CHOScore>
0.0000

> <Gold.PLP.Chemscore.Metal>
0.0000

> <Gold.Chemscore.Hbonds>
donor molecule, donor type, donor heavy atom, donor atom, acceptor molecule, acceptor atom, score
      P1  H  7989  7998       L1     5  0.70
      P1  H  8011  8017       L1    13  0.18

> <Gold.PLP.Chemscore.Internal.Correction>
0.0150

> <Gold.Rescore>
     Score         DG    S(hbond)    S(metal)    S(lipo)     H(rot)  DE(clash)    DE(int)     intcor
     14.86     -18.36       1.17        0.00     110.49       1.54       0.32       3.18       ----

> <Gold.Chemscore.Fitness>
14.8601

> <Gold.Chemscore.DG>
-18.3623

> <Gold.Chemscore.ZeroCoef>
-5.4800

> <Gold.Chemscore.Hbond>
1.1669

> <Gold.Chemscore.Metal>
0.0000

> <Gold.Chemscore.Lipo>
110.4857

> <Gold.Chemscore.Internal_Hbond>
0.0000

> <Gold.Chemscore.DEClash>
0.3193

> <Gold.Chemscore.DEInternal>
3.1828

> <Gold.Chemscore.Rot>
1.5398

> <Gold.Chemscore.Internal.Correction>
   9.000000E+99

> <Gold.Chemscore.Hbonds>
donor molecule, donor type, donor heavy atom, donor atom, acceptor molecule, acceptor atom, score
      P1  H  7989  7998       L1     5  0.70
      P1  H  8011  8017       L1    13  0.18

> <Gold.Chemscore.Hbond.Weighted>
-3.8973

> <Gold.Chemscore.Metal.Weighted>
-0.0000

> <Gold.Chemscore.Lipo.Weighted>
-12.9268

> <Gold.Chemscore.Internal_Hbond.Weighted>
0.0000

> <Gold.Chemscore.DEClash.Weighted>
0.3193

> <Gold.Chemscore.DEInternal.Weighted>
3.1828

> <Gold.Chemscore.Rot.Weighted>
3.9419

> <Gold.Chemscore.Internal.Correction.Weighted>
   9.000000E+99

> <Gold.Protein.RotatedTorsions>
[ 6907 6896 6895 6894 ] final  117.32 input  -60.11 | X-H torsion
[ 7974 7965 7964 7962 ] final  117.81 input  175.53 | X-H torsion
[ 8008 7997 7996 7995 ] final   19.78 input   59.86 | X-H torsion
[ 10167 10162 10161 10158 ] final -110.10 input  -65.29 | X-H torsion
[ 10718 10713 10712 10709 ] final -140.98 input   66.30 | X-H torsion
[ 10763 10752 10751 10750 ] final   98.02 input  -60.55 | X-H torsion
[ 11005 11000 10999 10996 ] final  -37.89 input  -57.11 | X-H torsion

> <Gold.Protein.ActiveResidues>
 VAL166  LYS551  ARG553  GLY616  TRP617  ASP618  TYR619  PRO620  LYS621  CYS622 
 ASP623  PHE694  ASN695  SER759  ASP760  ASP761  ALA762  ILE779  LEU786  VAL792 
 PHE793  MET794  SER795  GLU796  ALA797  LYS798  CYS799  TRP800  GLU811  SER814 

> <Gold.Protein.RotatedAtoms>
  152.4620  133.7841  159.6866 H   0  0  0  0  0  0  0  0  0  0  0  0  # atno 6907 bound_to 6896
  150.8567  133.7694  159.3012 H   0  0  0  0  0  0  0  0  0  0  0  0  # atno 6908 bound_to 6896
  151.5272  135.1071  159.9945 H   0  0  0  0  0  0  0  0  0  0  0  0  # atno 6909 bound_to 6896
  145.1628  139.3145  143.4508 H   0  0  0  0  0  0  0  0  0  0  0  0  # atno 7974 bound_to 7965
  154.9258  140.3033  155.5193 H   0  0  0  0  0  0  0  0  0  0  0  0  # atno 8008 bound_to 7997
  156.3007  140.2363  156.4250 H   0  0  0  0  0  0  0  0  0  0  0  0  # atno 8009 bound_to 7997
  154.8285  140.0419  157.1449 H   0  0  0  0  0  0  0  0  0  0  0  0  # atno 8010 bound_to 7997
  140.1481  143.4222  152.1514 H   0  0  0  0  0  0  0  0  0  0  0  0  # atno 10167 bound_to 10162
  156.3286  130.7573  151.1687 H   0  0  0  0  0  0  0  0  0  0  0  0  # atno 10718 bound_to 10713
  153.2839  135.4163  155.1104 H   0  0  0  0  0  0  0  0  0  0  0  0  # atno 10763 bound_to 10752
  154.8498  135.3502  154.6074 H   0  0  0  0  0  0  0  0  0  0  0  0  # atno 10764 bound_to 10752
  153.6495  135.7053  153.5271 H   0  0  0  0  0  0  0  0  0  0  0  0  # atno 10765 bound_to 10752
  140.9986  133.6967  156.1980 H   0  0  0  0  0  0  0  0  0  0  0  0  # atno 11005 bound_to 11000
  146.3480  140.1744  142.8589 LP  0  0  0  0  0  0  0  0  0  0  0  0  # atno 17320 bound_to 7965
  145.0313  140.8873  143.5107 LP  0  0  0  0  0  0  0  0  0  0  0  0  # atno 17321 bound_to 7965
  139.5439  144.7281  151.4645 LP  0  0  0  0  0  0  0  0  0  0  0  0  # atno 17342 bound_to 10162
  140.6719  143.8274  150.7010 LP  0  0  0  0  0  0  0  0  0  0  0  0  # atno 17343 bound_to 10162
  157.7426  131.0487  150.5012 LP  0  0  0  0  0  0  0  0  0  0  0  0  # atno 17370 bound_to 10713
  156.5174  130.4154  149.6268 LP  0  0  0  0  0  0  0  0  0  0  0  0  # atno 17371 bound_to 10713
  140.6926  134.4650  157.5588 LP  0  0  0  0  0  0  0  0  0  0  0  0  # atno 17394 bound_to 11000
  139.9027  134.8519  156.1829 LP  0  0  0  0  0  0  0  0  0  0  0  0  # atno 17395 bound_to 11000

$$$$
