#       Name:                AV-unprocessed.smi:1982
#       Creating user name   scv26
#       Creation time:       Fri Mar 27 10:21:59 2020


#       File generated by GOLD software.
#

@<TRIPOS>MOLECULE
AV-unprocessed.smi:1982
    41    42     1
SMALL
NO_CHARGES


@<TRIPOS>ATOM
      1 ****        -3.1384  -1.6219  -1.9588 C.3            1 S1                 0.0000
      2 ****        -2.5647  -0.8796  -0.7376 C.3            1 S1                 0.0000
      3 ****        -3.0475  -1.5671   0.5551 C.3            1 S1                 0.0000
      4 ****        -2.5397  -0.8456   1.8077 C.3            1 S1                 0.0000
      5 ****        -1.0103  -0.7663   1.8002 C.3            1 S1                 0.0000
      6 ****        -0.4879  -0.0760   0.5275 C.3            1 S1                 0.0000
      7 ****         0.9750  -0.0849   0.5678 N.am           1 S1                 0.0000
      8 ****         1.7723   0.9951   0.5817 C.2            1 S1                 0.0000
      9 ****         1.3479   2.1512   0.5484 O.2            1 S1                 0.0000
     10 ****         3.2769   0.7038   0.6387 C.3            1 S1                 0.0000
     11 ****         4.0891   1.9037   0.5326 N.pl3          1 S1                 0.0000
     12 ****         4.4795   2.6080  -0.5319 C.2            1 S1                 0.0000
     13 ****         5.2182   3.6508  -0.1841 N.2            1 S1                 0.0000
     14 ****         5.2681   3.5543   1.1965 N.2            1 S1                 0.0000
     15 ****         4.6008   2.5191   1.6274 N.2            1 S1                 0.0000
     16 ****        -1.0137  -0.7615  -0.7641 C.3            1 S1                 0.0000
     17 ****        -0.5124  -0.0256  -2.0261 C.3            1 S1                 0.0000
     18 ****        -2.6951  -2.6124  -2.0653 H              1 S1                 0.0000
     19 ****        -2.9695  -1.0742  -2.8853 H              1 S1                 0.0000
     20 ****        -4.2172  -1.7510  -1.8660 H              1 S1                 0.0000
     21 ****        -2.9794   0.1297  -0.7458 H              1 S1                 0.0000
     22 ****        -4.1373  -1.5988   0.5770 H              1 S1                 0.0000
     23 ****        -2.7101  -2.6045   0.5706 H              1 S1                 0.0000
     24 ****        -2.9625   0.1589   1.8536 H              1 S1                 0.0000
     25 ****        -2.8804  -1.3682   2.7020 H              1 S1                 0.0000
     26 ****        -0.6694  -0.2259   2.6841 H              1 S1                 0.0000
     27 ****        -0.5962  -1.7730   1.8748 H              1 S1                 0.0000
     28 ****        -0.8584   0.9508   0.5354 H              1 S1                 0.0000
     29 ****         1.4167  -0.9925   0.5956 H              1 S1                 0.0000
     30 ****         3.5132   0.1932   1.5736 H              1 S1                 0.0000
     31 ****         3.5491   0.0312  -0.1757 H              1 S1                 0.0000
     32 ****         4.2232   2.3598  -1.5512 H              1 S1                 0.0000
     33 ****        -0.6064  -1.7735  -0.7928 H              1 S1                 0.0000
     34 ****        -0.9161   0.9858  -2.0785 H              1 S1                 0.0000
     35 ****        -0.7932  -0.5465  -2.9402 H              1 S1                 0.0000
     36 ****         0.5743   0.0531  -2.0462 H              1 S1                 0.0000
     37 ****         0.3633   2.3214   0.5087 LP             1 S1                 0.0000
     38 ****         1.9881   2.9194   0.5610 LP             1 S1                 0.0000
     39 ****         5.6378   4.3401  -0.7747 LP             1 S1                 0.0000
     40 ****         5.7543   4.1970   1.7886 LP             1 S1                 0.0000
     41 ****         4.4886   2.2349   2.5795 LP             1 S1                 0.0000
@<TRIPOS>BOND
    1    1    2 1     
    2    1   18 1     
    3    1   19 1     
    4    1   20 1     
    5    2   16 1     
    6    2    3 1     
    7    2   21 1     
    8    3    4 1     
    9    3   22 1     
   10    3   23 1     
   11    4    5 1     
   12    4   24 1     
   13    4   25 1     
   14    5    6 1     
   15    5   26 1     
   16    5   27 1     
   17    6    7 1     
   18    6   16 1     
   19    6   28 1     
   20    7    8 am    
   21    7   29 1     
   22    8    9 2     
   23    8   10 1     
   24   10   11 1     
   25   10   30 1     
   26   10   31 1     
   27   11   15 1     
   28   11   12 1     
   29   12   13 2     
   30   12   32 1     
   31   13   14 1     
   32   14   15 2     
   33   16   17 1     
   34   16   33 1     
   35   17   34 1     
   36   17   35 1     
   37   17   36 1     
   38    9   37 1     
   39    9   38 1     
   40   13   39 1     
   41   14   40 1     
   42   15   41 1     
@<TRIPOS>SUBSTRUCTURE
      1 S1             1
@<TRIPOS>SET
LONE_PAIRS      STATIC     ATOMS    <user>   **** ""
5 37 38 39 40 41
DONOR_HYDROGENS      STATIC     ATOMS    <user>   **** ""
1 29
ATOM$BLUE        STATIC     ATOMS    COLORGROUP SYSTEM
5 37 38 39 40 41
ATOM$RED        STATIC     ATOMS    COLORGROUP SYSTEM
1 29
