AV-unprocessed.smi:45|AV-procd|sdf|408|dock6
  -GOLD-   2262016263D 1   1.00000     0.00000
 Structure written by MMmdl.
 60 63  0  0  0  0  0  0  0  0  1 V2000
  143.0762  134.0099  162.9661 C   0  0  0  0  0  0  0  0  0  0  0  0
  144.4613  134.3138  163.0412 O   0  0  0  0  0  0  0  0  0  0  0  0
  145.2913  133.8263  162.0527 C   0  0  0  0  0  0  0  0  0  0  0  0
  144.8984  132.8486  161.1034 C   0  0  0  0  0  0  0  0  0  0  0  0
  145.8030  132.3986  160.1226 C   0  0  0  0  0  0  0  0  0  0  0  0
  147.1124  132.9172  160.0709 C   0  0  0  0  0  0  0  0  0  0  0  0
  148.0916  132.4289  159.0206 C   0  0  0  0  0  0  0  0  0  0  0  0
  148.7769  133.5065  158.3207 N   0  0  0  0  0  0  0  0  0  0  0  0
  148.8462  133.5311  156.9175 C   0  0  0  0  0  0  0  0  0  0  0  0
  148.3892  132.4472  156.2467 N   0  0  0  0  0  0  0  0  0  0  0  0
  148.4537  132.4469  154.9116 C   0  0  0  0  0  0  0  0  0  0  0  0
  147.9849  131.3169  154.2410 N   0  0  0  0  0  0  0  0  0  0  0  0
  146.6102  131.2327  153.7584 C   0  0  0  0  0  0  0  0  0  0  0  0
  146.6589  130.3778  152.4935 C   0  0  0  0  0  0  0  0  0  0  0  0
  147.8530  129.4672  152.7443 C   0  0  0  0  0  0  0  0  0  0  0  0
  148.8302  130.3656  153.5159 C   0  0  2  0  0  0  0  0  0  0  0  0
  149.7734  129.5617  154.4359 C   0  0  0  0  0  0  0  0  0  0  0  0
  150.1568  128.3589  153.8047 O   0  0  0  0  0  0  0  0  0  0  0  0
  148.9442  133.4390  154.1624 N   0  0  0  0  0  0  0  0  0  0  0  0
  149.4080  134.5299  154.8058 C   0  0  0  0  0  0  0  0  0  0  0  0
  149.3945  134.6394  156.2155 C   0  0  0  0  0  0  0  0  0  0  0  0
  149.8993  135.8855  156.8928 C   0  0  0  0  0  0  0  0  0  0  0  0
  149.9185  135.9858  158.1199 O   0  0  0  0  0  0  0  0  0  0  0  0
  150.3450  136.8438  156.0647 N   0  0  0  0  0  0  0  0  0  0  0  0
  150.8590  138.1408  156.4881 C   0  0  0  0  0  0  0  0  0  0  0  0
  150.1420  139.2984  155.8159 C   0  0  0  0  0  0  0  0  0  0  0  0
  149.3939  139.0006  154.7479 N   0  0  0  0  0  0  0  0  0  0  0  0
  148.7471  140.0251  154.1510 C   0  0  0  0  0  0  0  0  0  0  0  0
  148.8523  141.3473  154.6277 C   0  0  0  0  0  0  0  0  0  0  0  0
  149.6697  141.5387  155.7599 C   0  0  0  0  0  0  0  0  0  0  0  0
  150.3150  140.5107  156.3524 N   0  0  0  0  0  0  0  0  0  0  0  0
  147.5102  133.8867  161.0122 C   0  0  0  0  0  0  0  0  0  0  0  0
  146.6067  134.3384  161.9939 C   0  0  0  0  0  0  0  0  0  0  0  0
  147.1275  135.5295  163.1317 Cl  0  0  0  0  0  0  0  0  0  0  0  0
  149.4217  130.9378  152.7992 H   0  0  0  0  0  0  0  0  0  0  0  0
  142.5632  134.4591  163.8162 H   0  0  0  0  0  0  0  0  0  0  0  0
  142.9011  132.9341  163.0072 H   0  0  0  0  0  0  0  0  0  0  0  0
  142.6275  134.4160  162.0585 H   0  0  0  0  0  0  0  0  0  0  0  0
  143.9058  132.4249  161.1071 H   0  0  0  0  0  0  0  0  0  0  0  0
  145.4876  131.6511  159.4091 H   0  0  0  0  0  0  0  0  0  0  0  0
  148.8328  131.7801  159.4892 H   0  0  0  0  0  0  0  0  0  0  0  0
  147.5453  131.8213  158.2983 H   0  0  0  0  0  0  0  0  0  0  0  0
  149.0961  134.3059  158.8496 H   0  0  0  0  0  0  0  0  0  0  0  0
  146.0000  130.7537  154.5249 H   0  0  0  0  0  0  0  0  0  0  0  0
  146.1825  132.2136  153.5477 H   0  0  0  0  0  0  0  0  0  0  0  0
  145.7323  129.8321  152.3126 H   0  0  0  0  0  0  0  0  0  0  0  0
  146.8551  131.0103  151.6265 H   0  0  0  0  0  0  0  0  0  0  0  0
  147.5389  128.6238  153.3615 H   0  0  0  0  0  0  0  0  0  0  0  0
  148.2829  129.0681  151.8253 H   0  0  0  0  0  0  0  0  0  0  0  0
  150.6816  130.1156  154.6687 H   0  0  0  0  0  0  0  0  0  0  0  0
  149.2890  129.3322  155.3854 H   0  0  0  0  0  0  0  0  0  0  0  0
  150.8357  128.5528  153.1766 H   0  0  0  0  0  0  0  0  0  0  0  0
  149.7887  135.3245  154.1806 H   0  0  0  0  0  0  0  0  0  0  0  0
  150.3037  136.6754  155.0702 H   0  0  0  0  0  0  0  0  0  0  0  0
  150.8002  138.2328  157.5744 H   0  0  0  0  0  0  0  0  0  0  0  0
  151.9188  138.1882  156.2357 H   0  0  0  0  0  0  0  0  0  0  0  0
  148.1418  139.7887  153.2885 H   0  0  0  0  0  0  0  0  0  0  0  0
  148.3357  142.1677  154.1518 H   0  0  0  0  0  0  0  0  0  0  0  0
  149.8057  142.5191  156.1917 H   0  0  0  0  0  0  0  0  0  0  0  0
  148.5123  134.2889  160.9839 H   0  0  0  0  0  0  0  0  0  0  0  0
  1  2  1  0  0  0  0
  1 36  1  0  0  0  0
  1 37  1  0  0  0  0
  1 38  1  0  0  0  0
  2  3  1  0  0  0  0
  3 33  1  0  0  0  0
  3  4  2  0  0  0  0
  4  5  1  0  0  0  0
  4 39  1  0  0  0  0
  5  6  2  0  0  0  0
  5 40  1  0  0  0  0
  6  7  1  0  0  0  0
  6 32  1  0  0  0  0
  7  8  1  0  0  0  0
  7 41  1  0  0  0  0
  7 42  1  0  0  0  0
  8  9  1  0  0  0  0
  8 43  1  0  0  0  0
  9 21  1  0  0  0  0
  9 10  2  0  0  0  0
 10 11  1  0  0  0  0
 11 12  1  0  0  0  0
 11 19  2  0  0  0  0
 12 16  1  0  0  0  0
 12 13  1  0  0  0  0
 13 14  1  0  0  0  0
 13 44  1  0  0  0  0
 13 45  1  0  0  0  0
 14 15  1  0  0  0  0
 14 46  1  0  0  0  0
 14 47  1  0  0  0  0
 15 16  1  0  0  0  0
 15 48  1  0  0  0  0
 15 49  1  0  0  0  0
 16 35  1  0  0  0  0
 16 17  1  0  0  0  0
 17 18  1  0  0  0  0
 17 50  1  0  0  0  0
 17 51  1  0  0  0  0
 18 52  1  0  0  0  0
 19 20  1  0  0  0  0
 20 21  2  0  0  0  0
 20 53  1  0  0  0  0
 21 22  1  0  0  0  0
 22 23  2  0  0  0  0
 22 24  1  0  0  0  0
 24 25  1  0  0  0  0
 24 54  1  0  0  0  0
 25 26  1  0  0  0  0
 25 55  1  0  0  0  0
 25 56  1  0  0  0  0
 26 31  1  0  0  0  0
 26 27  2  0  0  0  0
 27 28  1  0  0  0  0
 28 29  2  0  0  0  0
 28 57  1  0  0  0  0
 29 30  1  0  0  0  0
 29 58  1  0  0  0  0
 30 31  2  0  0  0  0
 30 59  1  0  0  0  0
 32 33  2  0  0  0  0
 32 60  1  0  0  0  0
 33 34  1  0  0  0  0
M  END
> <s_m_source_file>
AV-unprocessed.smi

> <i_m_source_file_index>
45

> <i_lp_mmshare_version>
43012

> <i_f3d_flags>
0

> <s_epik_input>
W0NIM11PYzFbY0hdW2NIXWMoW2NIXWMxQ2wpW0NIMl1bTkhdYzJuYyhOM1tDSDJdW0NIMl1bQ0gyXVtDQEhdM1tDSDJdW09IXSluW2NIXWMyQyg9TylbTkhdW0NIMl1jNG5bY0hdW2NIXVtjSF1uNA==

> <s_epik_cmdline>
J2VwaWtfcHl0aG9uJywgJy1waCcsICc3LjAnLCAnLXRuJywgJzgnLCAnLW1hJywgJzIwMCcsICctbWV0YWxfYmluZGluZycsICctaW1hZScsICc8aW5maWxlLm1hZT4nLCAnLW9tYWUnLCAnPG91dGZpbGUubWFlPic=

> <r_lp_tautomer_probability>
1

> <r_epik_Ionization_Penalty>
0.0522664

> <r_epik_Ionization_Penalty_Charging>
0

> <r_epik_Ionization_Penalty_Neutral>
0.0522664

> <r_epik_State_Penalty>
0.0369431

> <r_epik_Charging_Adjusted_Penalty>
0.0369431

> <i_epik_Tot_Q>
0

> <i_epik_Tot_abs_Q>
0

> <r_epik_Metal_State_Penalty>
0.0404664

> <b_epik_Metal_Only>
0

> <s_epik_Chemistry_Notes>
This compound contains an electron-poor aromatic ring that is susceptible to covalent hydrolysis at low pH, typically resulting in measured values for nitrogen ring protonation that are around two units higher than predicted values.

> <s_lp_Force_Field>
OPLS_2005

> <r_lp_Energy>
32.9916

> <b_lp_Chiralities_Consistent>
1

> <s_lp_Variant>
AV-unprocessed.smi:45-2

> <Gold.Version>
5.8.1

> <Gold.Id.Protein>
6NUR|6NUR_protein|mol2

> <Gold.PLP.Fitness>
53.3966

> <Gold.PLP.PLP>
-45.6763

> <Gold.PLP.part.hbond>
-2.0922

> <Gold.PLP.part.metal>
0.0000

> <Gold.PLP.part.buried>
-4.3291

> <Gold.PLP.part.nonpolar>
-40.1392

> <Gold.PLP.part.repulsive>
0.9160

> <Gold.PLP.ligand.clash>
0.0000

> <Gold.PLP.ligand.torsion>
2.1361

> <Gold.PLP.Chemscore.Hbond>
1.6237

> <Gold.PLP.Chemscore.CHOScore>
2.1904

> <Gold.PLP.Chemscore.Metal>
0.0000

> <Gold.Chemscore.Hbonds>
donor molecule, donor type, donor heavy atom, donor atom, acceptor molecule, acceptor atom, score
      L1  H    18    52       P1 10737  0.83
      P1  H  6896  6907       L1    23  0.77
      L1  C    20    53       P1  7948  0.70
      L1  C    28    57       P1  7957  0.49
      L1  C    30    59       P1  8028  1.00

> <Gold.PLP.Chemscore.Internal.Correction>
0.5502

> <Gold.Rescore>
     Score         DG    S(hbond)    S(metal)    S(lipo)     H(rot)  DE(clash)    DE(int)     intcor
     11.60     -14.76       0.93        0.00     116.14       2.90       0.11       3.05       ----

> <Gold.Chemscore.Fitness>
11.6004

> <Gold.Chemscore.DG>
-14.7603

> <Gold.Chemscore.ZeroCoef>
-5.4800

> <Gold.Chemscore.Hbond>
0.9319

> <Gold.Chemscore.Metal>
0.0000

> <Gold.Chemscore.Lipo>
116.1422

> <Gold.Chemscore.Internal_Hbond>
0.0000

> <Gold.Chemscore.DEClash>
0.1100

> <Gold.Chemscore.DEInternal>
3.0499

> <Gold.Chemscore.Rot>
2.8988

> <Gold.Chemscore.Internal.Correction>
   9.000000E+99

> <Gold.Chemscore.Hbonds>
donor molecule, donor type, donor heavy atom, donor atom, acceptor molecule, acceptor atom, score
      L1  H    18    52       P1 10737  0.76
      P1  H  6896  6907       L1    23  0.72

> <Gold.Chemscore.Hbond.Weighted>
-3.1126

> <Gold.Chemscore.Metal.Weighted>
-0.0000

> <Gold.Chemscore.Lipo.Weighted>
-13.5886

> <Gold.Chemscore.Internal_Hbond.Weighted>
0.0000

> <Gold.Chemscore.DEClash.Weighted>
0.1100

> <Gold.Chemscore.DEInternal.Weighted>
3.0499

> <Gold.Chemscore.Rot.Weighted>
7.4209

> <Gold.Chemscore.Internal.Correction.Weighted>
   9.000000E+99

> <Gold.Protein.RotatedTorsions>
[ 6907 6896 6895 6894 ] final  -55.43 input  -60.11 | X-H torsion
[ 7974 7965 7964 7962 ] final    2.66 input  175.53 | X-H torsion
[ 8008 7997 7996 7995 ] final  -45.17 input   59.86 | X-H torsion
[ 10167 10162 10161 10158 ] final  -65.72 input  -65.29 | X-H torsion
[ 10718 10713 10712 10709 ] final    6.00 input   66.30 | X-H torsion
[ 10763 10752 10751 10750 ] final -169.94 input  -60.55 | X-H torsion
[ 11005 11000 10999 10996 ] final   99.11 input  -57.11 | X-H torsion

> <Gold.Protein.ActiveResidues>
 VAL166  LYS551  ARG553  GLY616  TRP617  ASP618  TYR619  PRO620  LYS621  CYS622 
 ASP623  PHE694  ASN695  SER759  ASP760  ASP761  ALA762  ILE779  LEU786  VAL792 
 PHE793  MET794  SER795  GLU796  ALA797  LYS798  CYS799  TRP800  GLU811  SER814 

> <Gold.Protein.RotatedAtoms>
  150.8252  134.7480  159.6806 H   0  0  0  0  0  0  0  0  0  0  0  0  # atno 6907 bound_to 6896
  152.4364  134.5675  159.9921 H   0  0  0  0  0  0  0  0  0  0  0  0  # atno 6908 bound_to 6896
  151.5849  133.3336  159.3052 H   0  0  0  0  0  0  0  0  0  0  0  0  # atno 6909 bound_to 6896
  146.2444  140.0803  142.8357 H   0  0  0  0  0  0  0  0  0  0  0  0  # atno 7974 bound_to 7965
  154.4000  140.1403  156.3803 H   0  0  0  0  0  0  0  0  0  0  0  0  # atno 8008 bound_to 7997
  155.8010  140.3476  155.5382 H   0  0  0  0  0  0  0  0  0  0  0  0  # atno 8009 bound_to 7997
  155.8483  140.0937  157.1681 H   0  0  0  0  0  0  0  0  0  0  0  0  # atno 8010 bound_to 7997
  140.5709  143.2318  151.6539 H   0  0  0  0  0  0  0  0  0  0  0  0  # atno 10167 bound_to 10162
  156.9157  130.5772  149.5647 H   0  0  0  0  0  0  0  0  0  0  0  0  # atno 10718 bound_to 10713
  154.6469  135.2906  155.0035 H   0  0  0  0  0  0  0  0  0  0  0  0  # atno 10763 bound_to 10752
  154.1141  135.6558  153.4894 H   0  0  0  0  0  0  0  0  0  0  0  0  # atno 10764 bound_to 10752
  153.0356  135.5272  154.7360 H   0  0  0  0  0  0  0  0  0  0  0  0  # atno 10765 bound_to 10752
  139.8771  134.9080  156.4556 H   0  0  0  0  0  0  0  0  0  0  0  0  # atno 11005 bound_to 11000
  145.0739  140.9174  143.4866 LP  0  0  0  0  0  0  0  0  0  0  0  0  # atno 17320 bound_to 7965
  145.0942  139.2868  143.5719 LP  0  0  0  0  0  0  0  0  0  0  0  0  # atno 17321 bound_to 7965
  139.5117  144.3500  152.0661 LP  0  0  0  0  0  0  0  0  0  0  0  0  # atno 17342 bound_to 10162
  140.2637  144.4039  150.6176 LP  0  0  0  0  0  0  0  0  0  0  0  0  # atno 17343 bound_to 10162
  156.0514  130.5583  150.8998 LP  0  0  0  0  0  0  0  0  0  0  0  0  # atno 17370 bound_to 10713
  157.5939  131.0943  150.9073 LP  0  0  0  0  0  0  0  0  0  0  0  0  # atno 17371 bound_to 10713
  140.8901  133.7855  155.9562 LP  0  0  0  0  0  0  0  0  0  0  0  0  # atno 17394 bound_to 11000
  140.8763  134.2665  157.5166 LP  0  0  0  0  0  0  0  0  0  0  0  0  # atno 17395 bound_to 11000

$$$$
