AV-unprocessed.smi:141|AV-procd|sdf|1188|dock2
  -GOLD-   2262018343D 1   1.00000     0.00000
 Structure written by MMmdl.
 56 59  0  0  0  0  0  0  0  0  1 V2000
  151.1569  136.0841  154.8612 O   0  0  0  0  0  0  0  0  0  0  0  0
  150.3196  136.8416  155.3560 C   0  0  0  0  0  0  0  0  0  0  0  0
  148.9957  136.2500  155.8852 C   0  0  0  0  0  0  0  0  0  0  0  0
  148.3316  135.3324  154.9318 N   0  0  0  0  0  0  0  0  0  0  0  0
  148.9818  134.1205  154.5890 C   0  0  0  0  0  0  0  0  0  0  0  0
  150.0699  133.8183  155.0815 O   0  0  0  0  0  0  0  0  0  0  0  0
  148.2841  133.2829  153.6198 C   0  0  0  0  0  0  0  0  0  0  0  0
  148.8314  132.1190  153.2303 F   0  0  0  0  0  0  0  0  0  0  0  0
  147.0980  133.6613  153.1011 C   0  0  0  0  0  0  0  0  0  0  0  0
  146.4727  134.8448  153.4480 N   0  0  0  0  0  0  0  0  0  0  0  0
  145.1523  135.2483  152.8305 C   0  0  1  0  0  0  0  0  0  0  0  0
  145.2997  136.5845  152.0931 C   0  0  0  0  0  0  0  0  0  0  0  0
  145.5683  136.1296  150.6752 C   0  0  0  0  0  0  0  0  0  0  0  0
  144.7090  134.8736  150.5907 C   0  0  0  0  0  0  0  0  0  0  0  0
  144.7747  134.2861  151.8876 O   0  0  0  0  0  0  0  0  0  0  0  0
  147.0916  135.7184  154.3685 C   0  0  0  0  0  0  0  0  0  0  0  0
  146.5689  136.7957  154.6624 O   0  0  0  0  0  0  0  0  0  0  0  0
  150.5276  138.1778  155.4519 N   0  0  0  0  0  0  0  0  0  0  0  0
  149.6155  139.1453  156.0767 C   0  0  0  0  0  0  0  0  0  0  0  0
  150.2571  139.6649  157.3760 C   0  0  0  0  0  0  0  0  0  0  0  0
  151.6461  140.2863  157.1065 C   0  0  0  0  0  0  0  0  0  0  0  0
  152.3433  140.7392  158.4089 C   0  0  0  0  0  0  0  0  0  0  0  0
  152.1820  142.2255  158.6699 C   0  0  0  0  0  0  0  0  0  0  0  0
  152.6489  142.7873  159.8767 C   0  0  0  0  0  0  0  0  0  0  0  0
  152.5068  144.1682  160.1155 C   0  0  0  0  0  0  0  0  0  0  0  0
  151.8991  144.9916  159.1479 C   0  0  0  0  0  0  0  0  0  0  0  0
  151.4345  144.4340  157.9407 C   0  0  0  0  0  0  0  0  0  0  0  0
  151.5755  143.0530  157.7017 C   0  0  0  0  0  0  0  0  0  0  0  0
  152.5246  139.3153  156.2872 C   0  0  0  0  0  0  0  0  0  0  0  0
  151.7827  138.8153  155.0346 C   0  0  0  0  0  0  0  0  0  0  0  0
  149.1909  135.7386  156.8291 H   0  0  0  0  0  0  0  0  0  0  0  0
  148.3263  137.0694  156.1509 H   0  0  0  0  0  0  0  0  0  0  0  0
  146.6323  133.0056  152.3805 H   0  0  0  0  0  0  0  0  0  0  0  0
  144.4266  135.2680  153.6451 H   0  0  0  0  0  0  0  0  0  0  0  0
  144.3508  137.1193  152.1495 H   0  0  0  0  0  0  0  0  0  0  0  0
  146.0850  137.2116  152.5170 H   0  0  0  0  0  0  0  0  0  0  0  0
  145.3058  136.8779  149.9272 H   0  0  0  0  0  0  0  0  0  0  0  0
  146.6223  135.8780  150.5527 H   0  0  0  0  0  0  0  0  0  0  0  0
  143.6720  135.1381  150.3786 H   0  0  0  0  0  0  0  0  0  0  0  0
  145.0487  134.1821  149.8194 H   0  0  0  0  0  0  0  0  0  0  0  0
  149.4482  139.9743  155.3874 H   0  0  0  0  0  0  0  0  0  0  0  0
  148.6255  138.7458  156.2898 H   0  0  0  0  0  0  0  0  0  0  0  0
  149.6032  140.4040  157.8403 H   0  0  0  0  0  0  0  0  0  0  0  0
  150.3485  138.8415  158.0861 H   0  0  0  0  0  0  0  0  0  0  0  0
  151.4852  141.1632  156.4765 H   0  0  0  0  0  0  0  0  0  0  0  0
  151.9573  140.1891  159.2682 H   0  0  0  0  0  0  0  0  0  0  0  0
  153.4091  140.5086  158.3761 H   0  0  0  0  0  0  0  0  0  0  0  0
  153.1192  142.1614  160.6212 H   0  0  0  0  0  0  0  0  0  0  0  0
  152.8649  144.5955  161.0405 H   0  0  0  0  0  0  0  0  0  0  0  0
  151.7911  146.0505  159.3309 H   0  0  0  0  0  0  0  0  0  0  0  0
  150.9707  145.0658  157.1977 H   0  0  0  0  0  0  0  0  0  0  0  0
  151.2196  142.6307  156.7731 H   0  0  0  0  0  0  0  0  0  0  0  0
  153.4518  139.8090  155.9941 H   0  0  0  0  0  0  0  0  0  0  0  0
  152.8090  138.4608  156.9033 H   0  0  0  0  0  0  0  0  0  0  0  0
  152.4301  138.1492  154.4634 H   0  0  0  0  0  0  0  0  0  0  0  0
  151.5605  139.6517  154.3703 H   0  0  0  0  0  0  0  0  0  0  0  0
  1  2  2  0  0  0  0
  2  3  1  0  0  0  0
  2 18  1  0  0  0  0
  3  4  1  0  0  0  0
  3 31  1  0  0  0  0
  3 32  1  0  0  0  0
  4 16  1  0  0  0  0
  4  5  1  0  0  0  0
  5  6  2  0  0  0  0
  5  7  1  0  0  0  0
  7  8  1  0  0  0  0
  7  9  2  0  0  0  0
  9 10  1  0  0  0  0
  9 33  1  0  0  0  0
 10 11  1  0  0  0  0
 10 16  1  0  0  0  0
 11 15  1  0  0  0  0
 11 12  1  0  0  0  0
 11 34  1  0  0  0  0
 12 13  1  0  0  0  0
 12 35  1  0  0  0  0
 12 36  1  0  0  0  0
 13 14  1  0  0  0  0
 13 37  1  0  0  0  0
 13 38  1  0  0  0  0
 14 15  1  0  0  0  0
 14 39  1  0  0  0  0
 14 40  1  0  0  0  0
 16 17  2  0  0  0  0
 18 30  1  0  0  0  0
 18 19  1  0  0  0  0
 19 20  1  0  0  0  0
 19 41  1  0  0  0  0
 19 42  1  0  0  0  0
 20 21  1  0  0  0  0
 20 43  1  0  0  0  0
 20 44  1  0  0  0  0
 21 22  1  0  0  0  0
 21 29  1  0  0  0  0
 21 45  1  0  0  0  0
 22 23  1  0  0  0  0
 22 46  1  0  0  0  0
 22 47  1  0  0  0  0
 23 28  1  0  0  0  0
 23 24  2  0  0  0  0
 24 25  1  0  0  0  0
 24 48  1  0  0  0  0
 25 26  2  0  0  0  0
 25 49  1  0  0  0  0
 26 27  1  0  0  0  0
 26 50  1  0  0  0  0
 27 28  2  0  0  0  0
 27 51  1  0  0  0  0
 28 52  1  0  0  0  0
 29 30  1  0  0  0  0
 29 53  1  0  0  0  0
 29 54  1  0  0  0  0
 30 55  1  0  0  0  0
 30 56  1  0  0  0  0
M  END
> <s_m_source_file>
AV-unprocessed.smi

> <i_m_source_file_index>
141

> <i_lp_mmshare_version>
43012

> <i_f3d_flags>
0

> <s_epik_input>
W2NIXTFbY0hdW2NIXVtjSF1bY0hdYzFbQ0gyXVtDSF0oW0NIMl1bQ0gyXTIpW0NIMl1bQ0gyXU4yQyg9TylbQ0gyXW4zYyg9TyljKEYpW2NIXW4oYzM9TylbQ0BASF00W0NIMl1bQ0gyXVtDSDJdTzQ=

> <s_epik_cmdline>
J2VwaWtfcHl0aG9uJywgJy1waCcsICc3LjAnLCAnLXRuJywgJzgnLCAnLW1hJywgJzIwMCcsICctbWV0YWxfYmluZGluZycsICctaW1hZScsICc8aW5maWxlLm1hZT4nLCAnLW9tYWUnLCAnPG91dGZpbGUubWFlPic=

> <r_lp_tautomer_probability>
1

> <r_epik_Ionization_Penalty>
3.78313e-08

> <r_epik_Ionization_Penalty_Charging>
4.95074e-09

> <r_epik_Ionization_Penalty_Neutral>
3.28806e-08

> <r_epik_State_Penalty>
-0

> <r_epik_Charging_Adjusted_Penalty>
4.95074e-09

> <i_epik_Tot_Q>
0

> <i_epik_Tot_abs_Q>
0

> <r_epik_Metal_State_Penalty>
-0

> <b_epik_Metal_Only>
0

> <s_epik_Chemistry_Notes>
This compound contains an acetal/aminal-like group ( X-CH(R)-Y where X, Y are N, S, or O) that may be acid/base labile, releasing an aldehyde.

> <s_lp_Force_Field>
OPLS_2005

> <r_lp_Energy>
51.0645

> <b_lp_Chiralities_Consistent>
1

> <s_lp_Variant>
AV-unprocessed.smi:141-2

> <Gold.Version>
5.8.1

> <Gold.Id.Protein>
6NUR|6NUR_protein|mol2

> <Gold.PLP.Fitness>
53.4892

> <Gold.PLP.PLP>
-51.9890

> <Gold.PLP.part.hbond>
-1.0000

> <Gold.PLP.part.metal>
0.0000

> <Gold.PLP.part.buried>
-4.5449

> <Gold.PLP.part.nonpolar>
-46.6537

> <Gold.PLP.part.repulsive>
0.3861

> <Gold.PLP.ligand.clash>
0.0000

> <Gold.PLP.ligand.torsion>
0.7814

> <Gold.PLP.Chemscore.Hbond>
1.0000

> <Gold.PLP.Chemscore.CHOScore>
0.0000

> <Gold.PLP.Chemscore.Metal>
0.0000

> <Gold.Chemscore.Hbonds>
donor molecule, donor type, donor heavy atom, donor atom, acceptor molecule, acceptor atom, score
      P1  H 10752 10765       L1     1  1.00

> <Gold.PLP.Chemscore.Internal.Correction>
0.0630

> <Gold.Rescore>
     Score         DG    S(hbond)    S(metal)    S(lipo)     H(rot)  DE(clash)    DE(int)     intcor
     15.38     -19.75       1.00        0.00     133.87       1.85       0.06       4.31       ----

> <Gold.Chemscore.Fitness>
15.3777

> <Gold.Chemscore.DG>
-19.7522

> <Gold.Chemscore.ZeroCoef>
-5.4800

> <Gold.Chemscore.Hbond>
0.9988

> <Gold.Chemscore.Metal>
0.0000

> <Gold.Chemscore.Lipo>
133.8659

> <Gold.Chemscore.Internal_Hbond>
0.0000

> <Gold.Chemscore.DEClash>
0.0624

> <Gold.Chemscore.DEInternal>
4.3120

> <Gold.Chemscore.Rot>
1.8461

> <Gold.Chemscore.Internal.Correction>
   9.000000E+99

> <Gold.Chemscore.Hbonds>
donor molecule, donor type, donor heavy atom, donor atom, acceptor molecule, acceptor atom, score
      P1  H 10752 10765       L1     1  1.00

> <Gold.Chemscore.Hbond.Weighted>
-3.3359

> <Gold.Chemscore.Metal.Weighted>
-0.0000

> <Gold.Chemscore.Lipo.Weighted>
-15.6623

> <Gold.Chemscore.Internal_Hbond.Weighted>
0.0000

> <Gold.Chemscore.DEClash.Weighted>
0.0624

> <Gold.Chemscore.DEInternal.Weighted>
4.3120

> <Gold.Chemscore.Rot.Weighted>
4.7260

> <Gold.Chemscore.Internal.Correction.Weighted>
   9.000000E+99

> <Gold.Protein.RotatedTorsions>
[ 6907 6896 6895 6894 ] final  119.32 input  -60.11 | X-H torsion
[ 7974 7965 7964 7962 ] final   44.39 input  175.53 | X-H torsion
[ 8008 7997 7996 7995 ] final   27.46 input   59.86 | X-H torsion
[ 10167 10162 10161 10158 ] final   59.96 input  -65.29 | X-H torsion
[ 10718 10713 10712 10709 ] final   19.68 input   66.30 | X-H torsion
[ 10763 10752 10751 10750 ] final -176.75 input  -60.55 | X-H torsion
[ 11005 11000 10999 10996 ] final   46.85 input  -57.11 | X-H torsion

> <Gold.Protein.ActiveResidues>
 VAL166  LYS551  ARG553  GLY616  TRP617  ASP618  TYR619  PRO620  LYS621  CYS622 
 ASP623  PHE694  ASN695  SER759  ASP760  ASP761  ALA762  ILE779  LEU786  VAL792 
 PHE793  MET794  SER795  GLU796  ALA797  LYS798  CYS799  TRP800  GLU811  SER814 

> <Gold.Protein.RotatedAtoms>
  152.4480  133.7574  159.6727 H   0  0  0  0  0  0  0  0  0  0  0  0  # atno 6907 bound_to 6896
  150.8385  133.7964  159.3076 H   0  0  0  0  0  0  0  0  0  0  0  0  # atno 6908 bound_to 6896
  151.5596  135.1068  160.0021 H   0  0  0  0  0  0  0  0  0  0  0  0  # atno 6909 bound_to 6896
  146.0572  139.5079  142.9681 H   0  0  0  0  0  0  0  0  0  0  0  0  # atno 7974 bound_to 7965
  155.0433  140.3172  155.4717 H   0  0  0  0  0  0  0  0  0  0  0  0  # atno 8008 bound_to 7997
  156.2850  140.2159  156.5501 H   0  0  0  0  0  0  0  0  0  0  0  0  # atno 8009 bound_to 7997
  154.7271  140.0484  157.0680 H   0  0  0  0  0  0  0  0  0  0  0  0  # atno 8010 bound_to 7997
  140.1708  144.4279  150.6662 H   0  0  0  0  0  0  0  0  0  0  0  0  # atno 10167 bound_to 10162
  157.1139  130.6520  149.5905 H   0  0  0  0  0  0  0  0  0  0  0  0  # atno 10718 bound_to 10713
  154.5686  135.2826  155.0850 H   0  0  0  0  0  0  0  0  0  0  0  0  # atno 10763 bound_to 10752
  154.2231  135.6387  153.5155 H   0  0  0  0  0  0  0  0  0  0  0  0  # atno 10764 bound_to 10752
  153.0050  135.5519  154.6302 H   0  0  0  0  0  0  0  0  0  0  0  0  # atno 10765 bound_to 10752
  140.1332  134.4679  155.8505 H   0  0  0  0  0  0  0  0  0  0  0  0  # atno 11005 bound_to 11000
  145.6622  141.0237  143.1702 LP  0  0  0  0  0  0  0  0  0  0  0  0  # atno 17320 bound_to 7965
  144.7155  139.8214  143.7400 LP  0  0  0  0  0  0  0  0  0  0  0  0  # atno 17321 bound_to 7965
  140.6583  143.2244  151.5915 LP  0  0  0  0  0  0  0  0  0  0  0  0  # atno 17342 bound_to 10162
  139.5339  144.2837  152.1208 LP  0  0  0  0  0  0  0  0  0  0  0  0  # atno 17343 bound_to 10162
  155.9844  130.4869  150.6981 LP  0  0  0  0  0  0  0  0  0  0  0  0  # atno 17370 bound_to 10713
  157.4536  131.0875  151.0820 LP  0  0  0  0  0  0  0  0  0  0  0  0  # atno 17371 bound_to 10713
  141.2174  133.6804  156.7108 LP  0  0  0  0  0  0  0  0  0  0  0  0  # atno 17394 bound_to 11000
  140.2816  134.8312  157.3938 LP  0  0  0  0  0  0  0  0  0  0  0  0  # atno 17395 bound_to 11000

$$$$
