AV-unprocessed.smi:1502|AV-procd|sdf|6067|dock4
  -GOLD-   22720 6183D 1   1.00000     0.00000
 Structure written by MMmdl.
 40 41  0  0  0  0  0  0  0  0  1 V2000
  150.8952  140.7576  155.2914 O   0  0  0  0  0  0  0  0  0  0  0  0
  149.7879  141.2064  155.5855 C   0  0  0  0  0  0  0  0  0  0  0  0
  148.5933  140.9137  154.6599 C   0  0  0  0  0  0  0  0  0  0  0  0
  147.3963  141.7341  154.9111 N   0  0  0  0  0  0  0  0  0  0  0  0
  147.1206  142.6490  153.9098 N   0  0  0  0  0  0  0  0  0  0  0  0
  146.1045  143.4324  154.0282 C   0  0  0  0  0  0  0  0  0  0  0  0
  145.2298  143.3907  155.1791 C   0  0  0  0  0  0  0  0  0  0  0  0
  143.8819  144.4676  155.2829 Cl  0  0  0  0  0  0  0  0  0  0  0  0
  145.5066  142.4882  156.1535 C   0  0  0  0  0  0  0  0  0  0  0  0
  144.5066  142.3803  157.5614 Cl  0  0  0  0  0  0  0  0  0  0  0  0
  146.6571  141.5797  156.0531 C   0  0  0  0  0  0  0  0  0  0  0  0
  146.9470  140.7540  156.9193 O   0  0  0  0  0  0  0  0  0  0  0  0
  149.5702  141.9476  156.6859 N   0  0  0  0  0  0  0  0  0  0  0  0
  150.5665  142.3141  157.6894 C   0  0  0  0  0  0  0  0  0  0  0  0
  151.5765  143.3092  157.0720 C   0  0  0  0  0  0  0  0  0  0  0  0
  151.7115  144.6458  157.8265 C   0  0  0  0  0  0  0  0  0  0  0  0
  151.8066  144.5907  159.3658 C   0  0  0  0  0  0  0  0  0  0  0  0
  152.8700  143.6465  159.9533 C   0  0  0  0  0  0  0  0  0  0  0  0
  152.3808  142.2172  160.2749 C   0  0  0  0  0  0  0  0  0  0  0  0
  152.4887  141.2111  159.1155 C   0  0  0  0  0  0  0  0  0  0  0  0
  151.2283  141.0323  158.2440 C   0  0  0  0  0  0  0  0  0  0  0  0
  148.9284  141.0555  153.6308 H   0  0  0  0  0  0  0  0  0  0  0  0
  148.3460  139.8533  154.7355 H   0  0  0  0  0  0  0  0  0  0  0  0
  145.8497  144.1692  153.2664 H   0  0  0  0  0  0  0  0  0  0  0  0
  148.6292  142.2764  156.8461 H   0  0  0  0  0  0  0  0  0  0  0  0
  150.0309  142.8027  158.5023 H   0  0  0  0  0  0  0  0  0  0  0  0
  152.5594  142.8506  156.9760 H   0  0  0  0  0  0  0  0  0  0  0  0
  151.2973  143.5421  156.0431 H   0  0  0  0  0  0  0  0  0  0  0  0
  152.5846  145.1703  157.4369 H   0  0  0  0  0  0  0  0  0  0  0  0
  150.8576  145.2734  157.5693 H   0  0  0  0  0  0  0  0  0  0  0  0
  152.0408  145.6026  159.6986 H   0  0  0  0  0  0  0  0  0  0  0  0
  150.8341  144.3798  159.8098 H   0  0  0  0  0  0  0  0  0  0  0  0
  153.7653  143.6304  159.3311 H   0  0  0  0  0  0  0  0  0  0  0  0
  153.1897  144.0862  160.8991 H   0  0  0  0  0  0  0  0  0  0  0  0
  153.0193  141.8421  161.0758 H   0  0  0  0  0  0  0  0  0  0  0  0
  151.3744  142.2253  160.6950 H   0  0  0  0  0  0  0  0  0  0  0  0
  153.3571  141.4441  158.4999 H   0  0  0  0  0  0  0  0  0  0  0  0
  152.7143  140.2329  159.5419 H   0  0  0  0  0  0  0  0  0  0  0  0
  150.4844  140.4824  158.8219 H   0  0  0  0  0  0  0  0  0  0  0  0
  151.4935  140.3779  157.4124 H   0  0  0  0  0  0  0  0  0  0  0  0
  1  2  2  0  0  0  0
  2  3  1  0  0  0  0
  2 13  1  0  0  0  0
  3  4  1  0  0  0  0
  3 22  1  0  0  0  0
  3 23  1  0  0  0  0
  4 11  1  0  0  0  0
  4  5  1  0  0  0  0
  5  6  2  0  0  0  0
  6  7  1  0  0  0  0
  6 24  1  0  0  0  0
  7  8  1  0  0  0  0
  7  9  2  0  0  0  0
  9 10  1  0  0  0  0
  9 11  1  0  0  0  0
 11 12  2  0  0  0  0
 13 14  1  0  0  0  0
 13 25  1  0  0  0  0
 14 21  1  0  0  0  0
 14 15  1  0  0  0  0
 14 26  1  0  0  0  0
 15 16  1  0  0  0  0
 15 27  1  0  0  0  0
 15 28  1  0  0  0  0
 16 17  1  0  0  0  0
 16 29  1  0  0  0  0
 16 30  1  0  0  0  0
 17 18  1  0  0  0  0
 17 31  1  0  0  0  0
 17 32  1  0  0  0  0
 18 19  1  0  0  0  0
 18 33  1  0  0  0  0
 18 34  1  0  0  0  0
 19 20  1  0  0  0  0
 19 35  1  0  0  0  0
 19 36  1  0  0  0  0
 20 21  1  0  0  0  0
 20 37  1  0  0  0  0
 20 38  1  0  0  0  0
 21 39  1  0  0  0  0
 21 40  1  0  0  0  0
M  END
> <s_m_source_file>
AV-unprocessed.smi

> <i_m_source_file_index>
1502

> <i_lp_mmshare_version>
43012

> <i_f3d_flags>
0

> <s_epik_input>
Tz1jMWMoQ2wpYyhDbClbY0hdbm4xW0NIMl1DKD1PKVtOSF1bQ0hdMltDSDJdW0NIMl1bQ0gyXVtDSDJdW0NIMl1bQ0gyXVtDSDJdMg==

> <s_epik_cmdline>
J2VwaWtfcHl0aG9uJywgJy1waCcsICc3LjAnLCAnLXRuJywgJzgnLCAnLW1hJywgJzIwMCcsICctbWV0YWxfYmluZGluZycsICctaW1hZScsICc8aW5maWxlLm1hZT4nLCAnLW9tYWUnLCAnPG91dGZpbGUubWFlPic=

> <r_lp_tautomer_probability>
1

> <r_epik_Ionization_Penalty>
2.0245e-08

> <r_epik_Ionization_Penalty_Charging>
3.01779e-11

> <r_epik_Ionization_Penalty_Neutral>
2.02148e-08

> <r_epik_State_Penalty>
-0

> <r_epik_Charging_Adjusted_Penalty>
3.01779e-11

> <i_epik_Tot_Q>
0

> <i_epik_Tot_abs_Q>
0

> <r_epik_Metal_State_Penalty>
-0

> <b_epik_Metal_Only>
0

> <s_lp_Force_Field>
OPLS_2005

> <r_lp_Energy>
35.729

> <b_lp_Chiralities_Consistent>
1

> <s_lp_Variant>
AV-unprocessed.smi:1502-1

> <Gold.Version>
5.8.1

> <Gold.Id.Protein>
6NUR|6NUR_protein|mol2

> <Gold.PLP.Fitness>
43.2106

> <Gold.PLP.PLP>
-41.2247

> <Gold.PLP.part.hbond>
-2.0748

> <Gold.PLP.part.metal>
0.0000

> <Gold.PLP.part.buried>
-5.7965

> <Gold.PLP.part.nonpolar>
-34.0380

> <Gold.PLP.part.repulsive>
0.2810

> <Gold.PLP.ligand.clash>
0.0000

> <Gold.PLP.ligand.torsion>
0.2857

> <Gold.PLP.Chemscore.Hbond>
0.8480

> <Gold.PLP.Chemscore.CHOScore>
0.0000

> <Gold.PLP.Chemscore.Metal>
0.0000

> <Gold.Chemscore.Hbonds>
donor molecule, donor type, donor heavy atom, donor atom, acceptor molecule, acceptor atom, score
      P1  H  7989  7998       L1     1  0.83

> <Gold.PLP.Chemscore.Internal.Correction>
0.0133

> <Gold.Rescore>
     Score         DG    S(hbond)    S(metal)    S(lipo)     H(rot)  DE(clash)    DE(int)     intcor
     14.19     -16.49       0.77        0.00     104.64       1.49       0.06       2.23       ----

> <Gold.Chemscore.Fitness>
14.1945

> <Gold.Chemscore.DG>
-16.4869

> <Gold.Chemscore.ZeroCoef>
-5.4800

> <Gold.Chemscore.Hbond>
0.7692

> <Gold.Chemscore.Metal>
0.0000

> <Gold.Chemscore.Lipo>
104.6439

> <Gold.Chemscore.Internal_Hbond>
0.0000

> <Gold.Chemscore.DEClash>
0.0584

> <Gold.Chemscore.DEInternal>
2.2340

> <Gold.Chemscore.Rot>
1.4866

> <Gold.Chemscore.Internal.Correction>
   9.000000E+99

> <Gold.Chemscore.Hbonds>
donor molecule, donor type, donor heavy atom, donor atom, acceptor molecule, acceptor atom, score
      P1  H  7989  7998       L1     1  0.82

> <Gold.Chemscore.Hbond.Weighted>
-2.5693

> <Gold.Chemscore.Metal.Weighted>
-0.0000

> <Gold.Chemscore.Lipo.Weighted>
-12.2433

> <Gold.Chemscore.Internal_Hbond.Weighted>
0.0000

> <Gold.Chemscore.DEClash.Weighted>
0.0584

> <Gold.Chemscore.DEInternal.Weighted>
2.2340

> <Gold.Chemscore.Rot.Weighted>
3.8057

> <Gold.Chemscore.Internal.Correction.Weighted>
   9.000000E+99

> <Gold.Protein.RotatedTorsions>
[ 6907 6896 6895 6894 ] final  148.63 input  -60.11 | X-H torsion
[ 7974 7965 7964 7962 ] final   37.30 input  175.53 | X-H torsion
[ 8008 7997 7996 7995 ] final   -7.71 input   59.86 | X-H torsion
[ 10167 10162 10161 10158 ] final  -53.82 input  -65.29 | X-H torsion
[ 10718 10713 10712 10709 ] final   31.43 input   66.30 | X-H torsion
[ 10763 10752 10751 10750 ] final   -3.95 input  -60.55 | X-H torsion
[ 11005 11000 10999 10996 ] final -101.42 input  -57.11 | X-H torsion

> <Gold.Protein.ActiveResidues>
 VAL166  LYS551  ARG553  GLY616  TRP617  ASP618  TYR619  PRO620  LYS621  CYS622 
 ASP623  PHE694  ASN695  SER759  ASP760  ASP761  ALA762  ILE779  LEU786  VAL792 
 PHE793  MET794  SER795  GLU796  ALA797  LYS798  CYS799  TRP800  GLU811  SER814 

> <Gold.Protein.RotatedAtoms>
  152.1389  133.4452  159.4756 H   0  0  0  0  0  0  0  0  0  0  0  0  # atno 6907 bound_to 6896
  150.6884  134.2329  159.4451 H   0  0  0  0  0  0  0  0  0  0  0  0  # atno 6908 bound_to 6896
  152.0219  134.9817  160.0621 H   0  0  0  0  0  0  0  0  0  0  0  0  # atno 6909 bound_to 6896
  146.1147  139.5910  142.9329 H   0  0  0  0  0  0  0  0  0  0  0  0  # atno 7974 bound_to 7965
  154.5811  140.2400  155.8052 H   0  0  0  0  0  0  0  0  0  0  0  0  # atno 8008 bound_to 7997
  156.2180  140.3006  155.9841 H   0  0  0  0  0  0  0  0  0  0  0  0  # atno 8009 bound_to 7997
  155.2539  140.0411  157.2980 H   0  0  0  0  0  0  0  0  0  0  0  0  # atno 8010 bound_to 7997
  140.6464  143.2538  151.4848 H   0  0  0  0  0  0  0  0  0  0  0  0  # atno 10167 bound_to 10162
  157.2723  130.7214  149.6511 H   0  0  0  0  0  0  0  0  0  0  0  0  # atno 10718 bound_to 10713
  153.3783  135.6997  153.6585 H   0  0  0  0  0  0  0  0  0  0  0  0  # atno 10763 bound_to 10752
  153.5207  135.3612  155.2631 H   0  0  0  0  0  0  0  0  0  0  0  0  # atno 10764 bound_to 10752
  154.8689  135.4157  154.3075 H   0  0  0  0  0  0  0  0  0  0  0  0  # atno 10765 bound_to 10752
  141.1231  133.8476  157.1229 H   0  0  0  0  0  0  0  0  0  0  0  0  # atno 11005 bound_to 11000
  145.5591  141.0406  143.2236 LP  0  0  0  0  0  0  0  0  0  0  0  0  # atno 17320 bound_to 7965
  144.7543  139.7115  143.7260 LP  0  0  0  0  0  0  0  0  0  0  0  0  # atno 17321 bound_to 7965
  139.5675  144.2008  152.1787 LP  0  0  0  0  0  0  0  0  0  0  0  0  # atno 17342 bound_to 10162
  140.1294  144.5302  150.6812 LP  0  0  0  0  0  0  0  0  0  0  0  0  # atno 17343 bound_to 10162
  155.9663  130.4364  150.5131 LP  0  0  0  0  0  0  0  0  0  0  0  0  # atno 17370 bound_to 10713
  157.3058  131.0654  151.2036 LP  0  0  0  0  0  0  0  0  0  0  0  0  # atno 17371 bound_to 10713
  140.0206  134.9947  157.0584 LP  0  0  0  0  0  0  0  0  0  0  0  0  # atno 17394 bound_to 11000
  140.4446  134.1645  155.7176 LP  0  0  0  0  0  0  0  0  0  0  0  0  # atno 17395 bound_to 11000

$$$$
