AV-unprocessed.smi:2492|AV-procd|sdf|9813|dock6
  -GOLD-   2272013443D 1   1.00000     0.00000
 Structure written by MMmdl.
 33 34  0  0  0  0  0  0  0  0  1 V2000
  153.8498  142.7767  162.8433 C   0  0  0  0  0  0  0  0  0  0  0  0
  153.8024  142.3390  161.0851 S   0  0  0  0  0  0  0  0  0  0  0  0
  152.9110  143.7739  160.4177 C   0  0  2  0  0  0  0  0  0  0  0  0
  151.4173  143.7571  160.7385 C   0  0  0  0  0  0  0  0  0  0  0  0
  150.8043  144.7068  159.7092 C   0  0  0  0  0  0  0  0  0  0  0  0
  151.6907  144.6030  158.4546 C   0  0  2  0  0  0  0  0  0  0  0  0
  150.9818  143.9139  157.3795 N   0  0  0  0  0  0  0  0  0  0  0  0
  150.8330  142.5844  157.2878 C   0  0  0  0  0  0  0  0  0  0  0  0
  151.2874  141.7920  158.1134 O   0  0  0  0  0  0  0  0  0  0  0  0
  150.1302  142.2460  156.1937 N   0  0  0  0  0  0  0  0  0  0  0  0
  149.7750  140.9434  155.7607 C   0  0  0  0  0  0  0  0  0  0  0  0
  150.6118  139.9473  155.4692 N   0  0  0  0  0  0  0  0  0  0  0  0
  149.7330  138.9687  155.1178 C   0  0  0  0  0  0  0  0  0  0  0  0
  150.1658  137.6062  154.6962 C   0  0  0  0  0  0  0  0  0  0  0  0
  148.4465  139.2933  155.1773 N   0  0  0  0  0  0  0  0  0  0  0  0
  148.4674  140.6281  155.6084 O   0  0  0  0  0  0  0  0  0  0  0  0
  152.9568  143.8355  158.8883 C   0  0  0  0  0  0  0  0  0  0  0  0
  154.3908  142.0148  163.4043 H   0  0  0  0  0  0  0  0  0  0  0  0
  152.8412  142.8501  163.2494 H   0  0  0  0  0  0  0  0  0  0  0  0
  154.3540  143.7327  162.9849 H   0  0  0  0  0  0  0  0  0  0  0  0
  153.3560  144.6855  160.8195 H   0  0  0  0  0  0  0  0  0  0  0  0
  151.0148  142.7532  160.5957 H   0  0  0  0  0  0  0  0  0  0  0  0
  151.2014  144.0617  161.7629 H   0  0  0  0  0  0  0  0  0  0  0  0
  149.7539  144.4816  159.5195 H   0  0  0  0  0  0  0  0  0  0  0  0
  150.8469  145.7269  160.0939 H   0  0  0  0  0  0  0  0  0  0  0  0
  151.9546  145.6109  158.1281 H   0  0  0  0  0  0  0  0  0  0  0  0
  150.5745  144.4921  156.6590 H   0  0  0  0  0  0  0  0  0  0  0  0
  149.8133  143.0021  155.6052 H   0  0  0  0  0  0  0  0  0  0  0  0
  149.5543  137.2499  153.8665 H   0  0  0  0  0  0  0  0  0  0  0  0
  150.0667  136.9071  155.5267 H   0  0  0  0  0  0  0  0  0  0  0  0
  151.2078  137.6162  154.3749 H   0  0  0  0  0  0  0  0  0  0  0  0
  153.8687  144.3117  158.5267 H   0  0  0  0  0  0  0  0  0  0  0  0
  152.9431  142.8224  158.4821 H   0  0  0  0  0  0  0  0  0  0  0  0
  1  2  1  0  0  0  0
  1 18  1  0  0  0  0
  1 19  1  0  0  0  0
  1 20  1  0  0  0  0
  2  3  1  0  0  0  0
  3 17  1  0  0  0  0
  3  4  1  0  0  0  0
  3 21  1  0  0  0  0
  4  5  1  0  0  0  0
  4 22  1  0  0  0  0
  4 23  1  0  0  0  0
  5  6  1  0  0  0  0
  5 24  1  0  0  0  0
  5 25  1  0  0  0  0
  6  7  1  0  0  0  0
  6 17  1  0  0  0  0
  6 26  1  0  0  0  0
  7  8  1  0  0  0  0
  7 27  1  0  0  0  0
  8  9  2  0  0  0  0
  8 10  1  0  0  0  0
 10 11  1  0  0  0  0
 10 28  1  0  0  0  0
 11 16  1  0  0  0  0
 11 12  2  0  0  0  0
 12 13  1  0  0  0  0
 13 14  1  0  0  0  0
 13 15  2  0  0  0  0
 14 29  1  0  0  0  0
 14 30  1  0  0  0  0
 14 31  1  0  0  0  0
 15 16  1  0  0  0  0
 17 32  1  0  0  0  0
 17 33  1  0  0  0  0
M  END
> <s_m_source_file>
AV-unprocessed.smi

> <i_m_source_file_index>
2492

> <i_lp_mmshare_version>
43012

> <i_f3d_flags>
0

> <s_epik_input>
W0NIM11TW0NAQEhdMVtDSDJdW0NIMl1bQ0BIXShbQ0gyXTEpW05IXUMoPU8pW05IXWMybmMoW0NIM10pbm8y

> <s_epik_cmdline>
J2VwaWtfcHl0aG9uJywgJy1waCcsICc3LjAnLCAnLXRuJywgJzgnLCAnLW1hJywgJzIwMCcsICctbWV0YWxfYmluZGluZycsICctaW1hZScsICc8aW5maWxlLm1hZT4nLCAnLW9tYWUnLCAnPG91dGZpbGUubWFlPic=

> <r_lp_tautomer_probability>
1

> <r_epik_Ionization_Penalty>
3.56659e-05

> <r_epik_Ionization_Penalty_Charging>
0

> <r_epik_Ionization_Penalty_Neutral>
3.56659e-05

> <r_epik_State_Penalty>
-0

> <r_epik_Charging_Adjusted_Penalty>
0

> <i_epik_Tot_Q>
0

> <i_epik_Tot_abs_Q>
0

> <r_epik_Metal_State_Penalty>
0.0146047

> <b_epik_Metal_Only>
0

> <s_lp_Force_Field>
OPLS_2005

> <r_lp_Energy>
15.0837

> <b_lp_Chiralities_Consistent>
1

> <s_lp_Variant>
AV-unprocessed.smi:2492-3

> <Gold.Version>
5.8.1

> <Gold.Id.Protein>
6NUR|6NUR_protein|mol2

> <Gold.PLP.Fitness>
43.6071

> <Gold.PLP.PLP>
-38.9235

> <Gold.PLP.part.hbond>
-3.0000

> <Gold.PLP.part.metal>
0.0000

> <Gold.PLP.part.buried>
-3.7067

> <Gold.PLP.part.nonpolar>
-31.2328

> <Gold.PLP.part.repulsive>
0.4706

> <Gold.PLP.ligand.clash>
0.0000

> <Gold.PLP.ligand.torsion>
0.9206

> <Gold.PLP.Chemscore.Hbond>
2.1735

> <Gold.PLP.Chemscore.CHOScore>
0.0000

> <Gold.PLP.Chemscore.Metal>
0.0000

> <Gold.Chemscore.Hbonds>
donor molecule, donor type, donor heavy atom, donor atom, acceptor molecule, acceptor atom, score
      L1  H     7    27       P1  8028  0.83
      L1  H    10    28       P1  8028  0.86
      P1  H  7989  7998       L1    12  0.06

> <Gold.PLP.Chemscore.Internal.Correction>
0.0041

> <Gold.Rescore>
     Score         DG    S(hbond)    S(metal)    S(lipo)     H(rot)  DE(clash)    DE(int)     intcor
     14.19     -17.89       1.71        0.00      85.23       1.28       0.46       3.23       ----

> <Gold.Chemscore.Fitness>
14.1925

> <Gold.Chemscore.DG>
-17.8879

> <Gold.Chemscore.ZeroCoef>
-5.4800

> <Gold.Chemscore.Hbond>
1.7116

> <Gold.Chemscore.Metal>
0.0000

> <Gold.Chemscore.Lipo>
85.2294

> <Gold.Chemscore.Internal_Hbond>
0.0000

> <Gold.Chemscore.DEClash>
0.4610

> <Gold.Chemscore.DEInternal>
3.2343

> <Gold.Chemscore.Rot>
1.2815

> <Gold.Chemscore.Internal.Correction>
   9.000000E+99

> <Gold.Chemscore.Hbonds>
donor molecule, donor type, donor heavy atom, donor atom, acceptor molecule, acceptor atom, score
      L1  H     7    27       P1  8028  0.80
      L1  H    10    28       P1  8028  0.84
      P1  H  7989  7998       L1    12  0.02

> <Gold.Chemscore.Hbond.Weighted>
-5.7168

> <Gold.Chemscore.Metal.Weighted>
-0.0000

> <Gold.Chemscore.Lipo.Weighted>
-9.9718

> <Gold.Chemscore.Internal_Hbond.Weighted>
0.0000

> <Gold.Chemscore.DEClash.Weighted>
0.4610

> <Gold.Chemscore.DEInternal.Weighted>
3.2343

> <Gold.Chemscore.Rot.Weighted>
3.2808

> <Gold.Chemscore.Internal.Correction.Weighted>
   9.000000E+99

> <Gold.Protein.RotatedTorsions>
[ 6907 6896 6895 6894 ] final  -87.04 input  -60.11 | X-H torsion
[ 7974 7965 7964 7962 ] final  121.99 input  175.53 | X-H torsion
[ 8008 7997 7996 7995 ] final -148.66 input   59.86 | X-H torsion
[ 10167 10162 10161 10158 ] final  147.28 input  -65.29 | X-H torsion
[ 10718 10713 10712 10709 ] final  130.32 input   66.30 | X-H torsion
[ 10763 10752 10751 10750 ] final   58.83 input  -60.55 | X-H torsion
[ 11005 11000 10999 10996 ] final  101.39 input  -57.11 | X-H torsion

> <Gold.Protein.ActiveResidues>
 VAL166  LYS551  ARG553  GLY616  TRP617  ASP618  TYR619  PRO620  LYS621  CYS622 
 ASP623  PHE694  ASN695  SER759  ASP760  ASP761  ALA762  ILE779  LEU786  VAL792 
 PHE793  MET794  SER795  GLU796  ALA797  LYS798  CYS799  TRP800  GLU811  SER814 

> <Gold.Protein.RotatedAtoms>
  150.6866  134.2957  159.4684 H   0  0  0  0  0  0  0  0  0  0  0  0  # atno 6907 bound_to 6896
  152.0858  134.9438  160.0582 H   0  0  0  0  0  0  0  0  0  0  0  0  # atno 6908 bound_to 6896
  152.0773  133.4101  159.4523 H   0  0  0  0  0  0  0  0  0  0  0  0  # atno 6909 bound_to 6896
  145.1128  139.3441  143.4754 H   0  0  0  0  0  0  0  0  0  0  0  0  # atno 7974 bound_to 7965
  155.5952  140.0656  157.2748 H   0  0  0  0  0  0  0  0  0  0  0  0  # atno 8008 bound_to 7997
  154.4294  140.1828  156.1162 H   0  0  0  0  0  0  0  0  0  0  0  0  # atno 8009 bound_to 7997
  156.0202  140.3317  155.7034 H   0  0  0  0  0  0  0  0  0  0  0  0  # atno 8010 bound_to 7997
  139.4893  144.5767  151.6951 H   0  0  0  0  0  0  0  0  0  0  0  0  # atno 10167 bound_to 10162
  157.5072  131.1096  150.9344 H   0  0  0  0  0  0  0  0  0  0  0  0  # atno 10718 bound_to 10713
  152.9880  135.5593  154.5616 H   0  0  0  0  0  0  0  0  0  0  0  0  # atno 10763 bound_to 10752
  154.5034  135.2798  155.1404 H   0  0  0  0  0  0  0  0  0  0  0  0  # atno 10764 bound_to 10752
  154.2825  135.6342  153.5406 H   0  0  0  0  0  0  0  0  0  0  0  0  # atno 10765 bound_to 10752
  139.8773  134.9181  156.4900 H   0  0  0  0  0  0  0  0  0  0  0  0  # atno 11005 bound_to 11000
  146.3525  140.1054  142.8606 LP  0  0  0  0  0  0  0  0  0  0  0  0  # atno 17320 bound_to 7965
  145.0828  140.9232  143.4815 LP  0  0  0  0  0  0  0  0  0  0  0  0  # atno 17321 bound_to 7965
  140.5365  144.0648  150.6072 LP  0  0  0  0  0  0  0  0  0  0  0  0  # atno 17342 bound_to 10162
  140.3655  143.2883  152.0336 LP  0  0  0  0  0  0  0  0  0  0  0  0  # atno 17343 bound_to 10162
  156.9996  130.5594  149.5310 LP  0  0  0  0  0  0  0  0  0  0  0  0  # atno 17370 bound_to 10713
  156.0266  130.5359  150.8423 LP  0  0  0  0  0  0  0  0  0  0  0  0  # atno 17371 bound_to 10713
  140.8666  133.8020  155.9320 LP  0  0  0  0  0  0  0  0  0  0  0  0  # atno 17394 bound_to 11000
  140.8996  134.2395  157.5049 LP  0  0  0  0  0  0  0  0  0  0  0  0  # atno 17395 bound_to 11000

$$$$
