AV-unprocessed.smi:3148|AV-procd|sdf|11996|dock5
  -GOLD-   2272017403D 1   1.00000     0.00000
 Structure written by MMmdl.
 35 37  0  0  0  0  0  0  0  0  2 V2000
  152.8679  138.1086  155.0850 C   0  0  0  0  0  0  0  0  0  0  0  0
  152.6015  139.0184  156.1474 O   0  0  0  0  0  0  0  0  0  0  0  0
  151.6586  140.0044  155.9431 C   0  0  0  0  0  0  0  0  0  0  0  0
  150.5892  139.7700  155.0633 C   0  0  0  0  0  0  0  0  0  0  0  0
  149.6589  140.8136  154.8937 C   0  0  0  0  0  0  0  0  0  0  0  0
  148.4616  140.6830  153.9768 C   0  0  0  0  0  0  0  0  0  0  0  0
  149.8166  141.9811  155.5658 N   0  3  0  0  0  0  0  0  0  0  0  0
  150.8586  142.1410  156.3949 C   0  0  0  0  0  0  0  0  0  0  0  0
  150.9660  143.3480  157.0618 N   0  0  0  0  0  0  0  0  0  0  0  0
  152.0389  143.6738  157.9943 C   0  0  1  0  0  0  0  0  0  0  0  0
  152.3051  145.1770  158.1060 C   0  0  0  0  0  0  0  0  0  0  0  0
  152.2017  145.4024  159.6211 C   0  0  1  0  0  0  0  0  0  0  0  0
  150.7440  145.3652  160.0977 C   0  0  0  0  0  0  0  0  0  0  0  0
  150.4220  143.8757  159.9959 C   0  0  0  0  0  0  0  0  0  0  0  0
  151.7444  143.2997  159.4606 C   0  0  2  0  0  0  0  0  0  0  0  0
  152.6667  144.1561  160.1123 O   0  0  0  0  0  0  0  0  0  0  0  0
  151.7761  141.1847  156.5945 N   0  0  0  0  0  0  0  0  0  0  0  0
  153.6206  137.3889  155.4067 H   0  0  0  0  0  0  0  0  0  0  0  0
  153.2570  138.6244  154.2060 H   0  0  0  0  0  0  0  0  0  0  0  0
  151.9747  137.5484  154.8050 H   0  0  0  0  0  0  0  0  0  0  0  0
  150.4893  138.8290  154.5420 H   0  0  0  0  0  0  0  0  0  0  0  0
  148.5217  139.7734  153.3787 H   0  0  0  0  0  0  0  0  0  0  0  0
  148.4065  141.5335  153.2967 H   0  0  0  0  0  0  0  0  0  0  0  0
  147.5412  140.6482  154.5604 H   0  0  0  0  0  0  0  0  0  0  0  0
  150.1773  143.9763  157.0134 H   0  0  0  0  0  0  0  0  0  0  0  0
  152.9551  143.1779  157.6702 H   0  0  0  0  0  0  0  0  0  0  0  0
  153.3078  145.4104  157.7460 H   0  0  0  0  0  0  0  0  0  0  0  0
  151.5954  145.7940  157.5527 H   0  0  0  0  0  0  0  0  0  0  0  0
  152.7619  146.2662  159.9798 H   0  0  0  0  0  0  0  0  0  0  0  0
  150.6631  145.7045  161.1312 H   0  0  0  0  0  0  0  0  0  0  0  0
  150.0894  145.9840  159.4829 H   0  0  0  0  0  0  0  0  0  0  0  0
  150.2012  143.4692  160.9836 H   0  0  0  0  0  0  0  0  0  0  0  0
  149.5687  143.6667  159.3504 H   0  0  0  0  0  0  0  0  0  0  0  0
  151.8871  142.2425  159.6857 H   0  0  0  0  0  0  0  0  0  0  0  0
  149.1346  142.7286  155.4346 H   0  0  0  0  0  0  0  0  0  0  0  0
  1  2  1  0  0  0  0
  1 18  1  0  0  0  0
  1 19  1  0  0  0  0
  1 20  1  0  0  0  0
  2  3  1  0  0  0  0
  3 17  1  0  0  0  0
  3  4  2  0  0  0  0
  4  5  1  0  0  0  0
  4 21  1  0  0  0  0
  5  6  1  0  0  0  0
  5  7  2  0  0  0  0
  6 22  1  0  0  0  0
  6 23  1  0  0  0  0
  6 24  1  0  0  0  0
  7  8  1  0  0  0  0
  7 35  1  0  0  0  0
  8  9  1  0  0  0  0
  8 17  2  0  0  0  0
  9 10  1  0  0  0  0
  9 25  1  0  0  0  0
 10 15  1  0  0  0  0
 10 11  1  0  0  0  0
 10 26  1  0  0  0  0
 11 12  1  0  0  0  0
 11 27  1  0  0  0  0
 11 28  1  0  0  0  0
 12 16  1  0  0  0  0
 12 13  1  0  0  0  0
 12 29  1  0  0  0  0
 13 14  1  0  0  0  0
 13 30  1  0  0  0  0
 13 31  1  0  0  0  0
 14 15  1  0  0  0  0
 14 32  1  0  0  0  0
 14 33  1  0  0  0  0
 15 16  1  0  0  0  0
 15 34  1  0  0  0  0
M  CHG  1   7   1
M  END
> <s_m_source_file>
AV-unprocessed.smi

> <i_m_source_file_index>
3148

> <i_lp_mmshare_version>
43012

> <i_f3d_flags>
0

> <s_epik_input>
W0NIM11PYzFbY0hdYyhbQ0gzXSluYyhuMSlbTkhdW0NASF0oW0NIMl1bQ0BASF0yMylbQ0BASF0oTzMpW0NIMl1bQ0gyXTI=

> <s_epik_cmdline>
J2VwaWtfcHl0aG9uJywgJy1waCcsICc3LjAnLCAnLXRuJywgJzgnLCAnLW1hJywgJzIwMCcsICctbWV0YWxfYmluZGluZycsICctaW1hZScsICc8aW5maWxlLm1hZT4nLCAnLW9tYWUnLCAnPG91dGZpbGUubWFlPic=

> <r_lp_tautomer_probability>
0.999985

> <r_epik_Ionization_Penalty>
1.09461

> <r_epik_Ionization_Penalty_Charging>
1.0946

> <r_epik_Ionization_Penalty_Neutral>
6.69406e-06

> <r_epik_State_Penalty>
1.15119

> <r_epik_Charging_Adjusted_Penalty>
2.24579

> <i_epik_Tot_Q>
1

> <i_epik_Tot_abs_Q>
1

> <r_epik_Metal_State_Penalty>
1.2392

> <b_epik_Metal_Only>
0

> <s_lp_Force_Field>
OPLS_2005

> <r_lp_Energy>
36.3956

> <b_lp_Chiralities_Consistent>
1

> <s_lp_Variant>
AV-unprocessed.smi:3148-6

> <Gold.Version>
5.8.1

> <Gold.Id.Protein>
6NUR|6NUR_protein|mol2

> <Gold.PLP.Fitness>
45.0123

> <Gold.PLP.PLP>
-33.6248

> <Gold.PLP.part.hbond>
-2.9799

> <Gold.PLP.part.metal>
0.0000

> <Gold.PLP.part.buried>
2.0959

> <Gold.PLP.part.nonpolar>
-32.0435

> <Gold.PLP.part.repulsive>
0.2220

> <Gold.PLP.ligand.clash>
0.0000

> <Gold.PLP.ligand.torsion>
0.7415

> <Gold.PLP.Chemscore.Hbond>
4.2873

> <Gold.PLP.Chemscore.CHOScore>
0.0000

> <Gold.PLP.Chemscore.Metal>
0.0000

> <Gold.Chemscore.Hbonds>
donor molecule, donor type, donor heavy atom, donor atom, acceptor molecule, acceptor atom, score
      L1  H     7    35       P1  8028  1.73
      L1  H     9    25       P1  8028  1.63
      P1  H  7997  8010       L1     2  0.93

> <Gold.PLP.Chemscore.Internal.Correction>
0.0088

> <Gold.Rescore>
     Score         DG    S(hbond)    S(metal)    S(lipo)     H(rot)  DE(clash)    DE(int)     intcor
     17.54     -19.09       1.57        0.00      98.71       1.24       0.81       0.74       ----

> <Gold.Chemscore.Fitness>
17.5416

> <Gold.Chemscore.DG>
-19.0915

> <Gold.Chemscore.ZeroCoef>
-5.4800

> <Gold.Chemscore.Hbond>
1.5659

> <Gold.Chemscore.Metal>
0.0000

> <Gold.Chemscore.Lipo>
98.7143

> <Gold.Chemscore.Internal_Hbond>
0.0000

> <Gold.Chemscore.DEClash>
0.8121

> <Gold.Chemscore.DEInternal>
0.7377

> <Gold.Chemscore.Rot>
1.2376

> <Gold.Chemscore.Internal.Correction>
   9.000000E+99

> <Gold.Chemscore.Hbonds>
donor molecule, donor type, donor heavy atom, donor atom, acceptor molecule, acceptor atom, score
      L1  H     7    35       P1  8028  0.80
      L1  H     9    25       P1  8028  0.76
      P1  H  7997  8010       L1     2  0.14

> <Gold.Chemscore.Hbond.Weighted>
-5.2300

> <Gold.Chemscore.Metal.Weighted>
-0.0000

> <Gold.Chemscore.Lipo.Weighted>
-11.5496

> <Gold.Chemscore.Internal_Hbond.Weighted>
0.0000

> <Gold.Chemscore.DEClash.Weighted>
0.8121

> <Gold.Chemscore.DEInternal.Weighted>
0.7377

> <Gold.Chemscore.Rot.Weighted>
3.1681

> <Gold.Chemscore.Internal.Correction.Weighted>
   9.000000E+99

> <Gold.Protein.RotatedTorsions>
[ 6907 6896 6895 6894 ] final  -16.68 input  -60.11 | X-H torsion
[ 7974 7965 7964 7962 ] final    7.03 input  175.53 | X-H torsion
[ 8008 7997 7996 7995 ] final   79.15 input   59.86 | X-H torsion
[ 10167 10162 10161 10158 ] final  -29.18 input  -65.29 | X-H torsion
[ 10718 10713 10712 10709 ] final  -96.41 input   66.30 | X-H torsion
[ 10763 10752 10751 10750 ] final   83.73 input  -60.55 | X-H torsion
[ 11005 11000 10999 10996 ] final   42.68 input  -57.11 | X-H torsion

> <Gold.Protein.ActiveResidues>
 VAL166  LYS551  ARG553  GLY616  TRP617  ASP618  TYR619  PRO620  LYS621  CYS622 
 ASP623  PHE694  ASN695  SER759  ASP760  ASP761  ALA762  ILE779  LEU786  VAL792 
 PHE793  MET794  SER795  GLU796  ALA797  LYS798  CYS799  TRP800  GLU811  SER814 

> <Gold.Protein.RotatedAtoms>
  151.3049  135.0778  159.9251 H   0  0  0  0  0  0  0  0  0  0  0  0  # atno 6907 bound_to 6896
  152.5290  133.9795  159.7810 H   0  0  0  0  0  0  0  0  0  0  0  0  # atno 6908 bound_to 6896
  151.0088  133.5933  159.2715 H   0  0  0  0  0  0  0  0  0  0  0  0  # atno 6909 bound_to 6896
  146.2430  140.0144  142.8403 H   0  0  0  0  0  0  0  0  0  0  0  0  # atno 7974 bound_to 7965
  155.8657  140.3451  155.5786 H   0  0  0  0  0  0  0  0  0  0  0  0  # atno 8008 bound_to 7997
  155.7884  140.0868  157.2041 H   0  0  0  0  0  0  0  0  0  0  0  0  # atno 8009 bound_to 7997
  154.4014  140.1488  156.3121 H   0  0  0  0  0  0  0  0  0  0  0  0  # atno 8010 bound_to 7997
  140.7263  143.3949  151.1364 H   0  0  0  0  0  0  0  0  0  0  0  0  # atno 10167 bound_to 10162
  156.0062  130.5150  150.6221 H   0  0  0  0  0  0  0  0  0  0  0  0  # atno 10718 bound_to 10713
  153.1317  135.4680  154.9359 H   0  0  0  0  0  0  0  0  0  0  0  0  # atno 10763 bound_to 10752
  154.7670  135.3147  154.8269 H   0  0  0  0  0  0  0  0  0  0  0  0  # atno 10764 bound_to 10752
  153.8810  135.6894  153.4821 H   0  0  0  0  0  0  0  0  0  0  0  0  # atno 10765 bound_to 10752
  140.1716  134.4214  155.8253 H   0  0  0  0  0  0  0  0  0  0  0  0  # atno 11005 bound_to 11000
  145.1298  140.9511  143.4551 LP  0  0  0  0  0  0  0  0  0  0  0  0  # atno 17320 bound_to 7965
  145.0398  139.3269  143.5982 LP  0  0  0  0  0  0  0  0  0  0  0  0  # atno 17321 bound_to 7965
  139.7560  143.8706  152.3089 LP  0  0  0  0  0  0  0  0  0  0  0  0  # atno 17342 bound_to 10162
  139.8576  144.7133  150.9138 LP  0  0  0  0  0  0  0  0  0  0  0  0  # atno 17343 bound_to 10162
  157.4035  131.0813  151.1287 LP  0  0  0  0  0  0  0  0  0  0  0  0  # atno 17370 bound_to 10713
  157.1941  130.6365  149.5715 LP  0  0  0  0  0  0  0  0  0  0  0  0  # atno 17371 bound_to 10713
  141.2218  133.6959  156.7774 LP  0  0  0  0  0  0  0  0  0  0  0  0  # atno 17394 bound_to 11000
  140.2370  134.8642  157.3535 LP  0  0  0  0  0  0  0  0  0  0  0  0  # atno 17395 bound_to 11000

$$$$
