AV-unprocessed.smi:1701|AV-procd|sdf|6831|dock7
  -GOLD-   22720 8 13D 1   1.00000     0.00000
 Structure written by MMmdl.
 54 56  0  0  0  0  0  0  0  0  2 V2000
  151.8831  145.3654  160.1212 C   0  0  0  0  0  0  0  0  0  0  0  0
  152.6505  144.2956  159.3285 C   0  0  0  0  0  0  0  0  0  0  0  0
  152.3605  142.9346  159.7784 N   0  0  0  0  0  0  0  0  0  0  0  0
  153.4395  142.2140  160.4584 C   0  0  0  0  0  0  0  0  0  0  0  0
  153.3238  142.2596  161.9906 C   0  0  0  0  0  0  0  0  0  0  0  0
  151.4960  142.2107  158.9275 C   0  0  0  0  0  0  0  0  0  0  0  0
  151.7459  140.8446  158.6645 C   0  0  0  0  0  0  0  0  0  0  0  0
  150.8639  140.1367  157.8272 C   0  0  0  0  0  0  0  0  0  0  0  0
  149.7512  140.8000  157.2739 C   0  0  0  0  0  0  0  0  0  0  0  0
  148.8906  140.0433  156.4313 N   0  0  0  0  0  0  0  0  0  0  0  0
  147.6056  140.2643  156.0892 C   0  0  0  0  0  0  0  0  0  0  0  0
  146.9250  141.2130  156.4690 O   0  0  0  0  0  0  0  0  0  0  0  0
  147.0923  139.3356  155.2628 N   0  0  0  0  0  0  0  0  0  0  0  0
  145.7415  139.2740  154.7039 C   0  0  2  0  0  0  0  0  0  0  0  0
  144.6200  139.3062  155.7616 C   0  0  0  0  0  0  0  0  0  0  0  0
  143.5531  138.3135  155.2571 C   0  0  0  0  0  0  0  0  0  0  0  0
  144.0286  137.8708  153.9326 N   0  3  2  0  0  0  0  0  0  0  0  0
  143.5397  136.5642  153.4407 C   0  0  0  0  0  0  0  0  0  0  0  0
  144.0871  136.3185  152.0198 C   0  0  0  0  0  0  0  0  0  0  0  0
  145.6216  136.4657  151.9620 C   0  0  0  0  0  0  0  0  0  0  0  0
  146.0758  137.8055  152.5728 C   0  0  0  0  0  0  0  0  0  0  0  0
  145.4960  137.9460  153.9893 C   0  0  1  0  0  0  0  0  0  0  0  0
  149.5835  142.1694  157.5932 C   0  0  0  0  0  0  0  0  0  0  0  0
  150.4277  142.8519  158.3952 N   0  0  0  0  0  0  0  0  0  0  0  0
  152.1229  146.3627  159.7521 H   0  0  0  0  0  0  0  0  0  0  0  0
  152.1390  145.3362  161.1808 H   0  0  0  0  0  0  0  0  0  0  0  0
  150.8048  145.2314  160.0322 H   0  0  0  0  0  0  0  0  0  0  0  0
  152.3879  144.3729  158.2731 H   0  0  0  0  0  0  0  0  0  0  0  0
  153.7200  144.4976  159.3785 H   0  0  0  0  0  0  0  0  0  0  0  0
  153.4696  141.1794  160.1145 H   0  0  0  0  0  0  0  0  0  0  0  0
  154.3936  142.6551  160.1682 H   0  0  0  0  0  0  0  0  0  0  0  0
  154.1711  141.7536  162.4532 H   0  0  0  0  0  0  0  0  0  0  0  0
  152.4178  141.7721  162.3501 H   0  0  0  0  0  0  0  0  0  0  0  0
  153.3160  143.2880  162.3522 H   0  0  0  0  0  0  0  0  0  0  0  0
  152.6041  140.3419  159.0855 H   0  0  0  0  0  0  0  0  0  0  0  0
  151.0440  139.0932  157.6135 H   0  0  0  0  0  0  0  0  0  0  0  0
  149.3050  139.2091  156.0425 H   0  0  0  0  0  0  0  0  0  0  0  0
  147.7202  138.5973  154.9788 H   0  0  0  0  0  0  0  0  0  0  0  0
  145.5896  140.0854  153.9887 H   0  0  0  0  0  0  0  0  0  0  0  0
  144.9844  138.9908  156.7405 H   0  0  0  0  0  0  0  0  0  0  0  0
  144.2156  140.3129  155.8721 H   0  0  0  0  0  0  0  0  0  0  0  0
  143.4868  137.4607  155.9349 H   0  0  0  0  0  0  0  0  0  0  0  0
  142.5639  138.7660  155.1831 H   0  0  0  0  0  0  0  0  0  0  0  0
  143.8589  135.7691  154.1162 H   0  0  0  0  0  0  0  0  0  0  0  0
  142.4494  136.5612  153.4306 H   0  0  0  0  0  0  0  0  0  0  0  0
  143.7936  135.3274  151.6728 H   0  0  0  0  0  0  0  0  0  0  0  0
  143.6325  137.0317  151.3308 H   0  0  0  0  0  0  0  0  0  0  0  0
  146.0846  135.6429  152.5082 H   0  0  0  0  0  0  0  0  0  0  0  0
  145.9684  136.3863  150.9313 H   0  0  0  0  0  0  0  0  0  0  0  0
  147.1648  137.8550  152.6026 H   0  0  0  0  0  0  0  0  0  0  0  0
  145.7410  138.6322  151.9446 H   0  0  0  0  0  0  0  0  0  0  0  0
  145.8607  137.1274  154.6148 H   0  0  0  0  0  0  0  0  0  0  0  0
  148.7690  142.7614  157.2101 H   0  0  0  0  0  0  0  0  0  0  0  0
  143.7313  138.5730  153.2701 H   0  0  0  0  0  0  0  0  0  0  0  0
  1  2  1  0  0  0  0
  1 25  1  0  0  0  0
  1 26  1  0  0  0  0
  1 27  1  0  0  0  0
  2  3  1  0  0  0  0
  2 28  1  0  0  0  0
  2 29  1  0  0  0  0
  3  4  1  0  0  0  0
  3  6  1  0  0  0  0
  4  5  1  0  0  0  0
  4 30  1  0  0  0  0
  4 31  1  0  0  0  0
  5 32  1  0  0  0  0
  5 33  1  0  0  0  0
  5 34  1  0  0  0  0
  6 24  1  0  0  0  0
  6  7  2  0  0  0  0
  7  8  1  0  0  0  0
  7 35  1  0  0  0  0
  8  9  2  0  0  0  0
  8 36  1  0  0  0  0
  9 10  1  0  0  0  0
  9 23  1  0  0  0  0
 10 11  1  0  0  0  0
 10 37  1  0  0  0  0
 11 12  2  0  0  0  0
 11 13  1  0  0  0  0
 13 14  1  0  0  0  0
 13 38  1  0  0  0  0
 14 22  1  0  0  0  0
 14 15  1  0  0  0  0
 14 39  1  0  0  0  0
 15 16  1  0  0  0  0
 15 40  1  0  0  0  0
 15 41  1  0  0  0  0
 16 17  1  0  0  0  0
 16 42  1  0  0  0  0
 16 43  1  0  0  0  0
 17 22  1  0  0  0  0
 17 18  1  0  0  0  0
 17 54  1  0  0  0  0
 18 19  1  0  0  0  0
 18 44  1  0  0  0  0
 18 45  1  0  0  0  0
 19 20  1  0  0  0  0
 19 46  1  0  0  0  0
 19 47  1  0  0  0  0
 20 21  1  0  0  0  0
 20 48  1  0  0  0  0
 20 49  1  0  0  0  0
 21 22  1  0  0  0  0
 21 50  1  0  0  0  0
 21 51  1  0  0  0  0
 22 52  1  0  0  0  0
 23 24  2  0  0  0  0
 23 53  1  0  0  0  0
M  CHG  1  17   1
M  END
> <s_m_source_file>
AV-unprocessed.smi

> <i_m_source_file_index>
1701

> <i_lp_mmshare_version>
43012

> <i_f3d_flags>
0

> <s_epik_input>
W0NIM11bQ0gyXU4oW0NIMl1bQ0gzXSljMVtjSF1bY0hdYyhbY0hdbjEpW05IXUMoPU8pW05IXVtDQEhdKFtDSDJdW0NIMl0yKVtDQEBIXShOMjMpW0NIMl1bQ0gyXVtDSDJdW0NIMl0z

> <s_epik_cmdline>
J2VwaWtfcHl0aG9uJywgJy1waCcsICc3LjAnLCAnLXRuJywgJzgnLCAnLW1hJywgJzIwMCcsICctbWV0YWxfYmluZGluZycsICctaW1hZScsICc8aW5maWxlLm1hZT4nLCAnLW9tYWUnLCAnPG91dGZpbGUubWFlPic=

> <r_lp_tautomer_probability>
1

> <r_epik_Ionization_Penalty>
0.56662

> <r_epik_Ionization_Penalty_Charging>
0.000974069

> <r_epik_Ionization_Penalty_Neutral>
0.565646

> <r_epik_State_Penalty>
2.0247

> <r_epik_Charging_Adjusted_Penalty>
2.02568

> <i_epik_Tot_Q>
1

> <i_epik_Tot_abs_Q>
1

> <r_epik_Metal_State_Penalty>
1.51504

> <b_epik_Metal_Only>
0

> <s_lp_Force_Field>
OPLS_2005

> <r_lp_Energy>
54.426

> <b_lp_Chiralities_Consistent>
1

> <s_lp_Variant>
AV-unprocessed.smi:1701-11

> <Gold.Version>
5.8.1

> <Gold.Id.Protein>
6NUR|6NUR_protein|mol2

> <Gold.PLP.Fitness>
46.6495

> <Gold.PLP.PLP>
-38.4174

> <Gold.PLP.part.hbond>
-1.0000

> <Gold.PLP.part.metal>
0.0000

> <Gold.PLP.part.buried>
-4.0680

> <Gold.PLP.part.nonpolar>
-34.1122

> <Gold.PLP.part.repulsive>
0.1844

> <Gold.PLP.ligand.clash>
0.0000

> <Gold.PLP.ligand.torsion>
0.7791

> <Gold.PLP.Chemscore.Hbond>
2.0000

> <Gold.PLP.Chemscore.CHOScore>
0.9880

> <Gold.PLP.Chemscore.Metal>
0.0000

> <Gold.Chemscore.Hbonds>
donor molecule, donor type, donor heavy atom, donor atom, acceptor molecule, acceptor atom, score
      L1  H    17    54       P1 10175  1.98
      L1  C    23    53       P1  8028  0.97

> <Gold.PLP.Chemscore.Internal.Correction>
0.8263

> <Gold.Rescore>
     Score         DG    S(hbond)    S(metal)    S(lipo)     H(rot)  DE(clash)    DE(int)     intcor
     15.26     -16.38       0.97        0.00      93.59       1.28       0.30       0.83       ----

> <Gold.Chemscore.Fitness>
15.2552

> <Gold.Chemscore.DG>
-16.3840

> <Gold.Chemscore.ZeroCoef>
-5.4800

> <Gold.Chemscore.Hbond>
0.9702

> <Gold.Chemscore.Metal>
0.0000

> <Gold.Chemscore.Lipo>
93.5896

> <Gold.Chemscore.Internal_Hbond>
0.0000

> <Gold.Chemscore.DEClash>
0.3001

> <Gold.Chemscore.DEInternal>
0.8287

> <Gold.Chemscore.Rot>
1.2838

> <Gold.Chemscore.Internal.Correction>
   9.000000E+99

> <Gold.Chemscore.Hbonds>
donor molecule, donor type, donor heavy atom, donor atom, acceptor molecule, acceptor atom, score
      L1  H    17    54       P1 10175  0.91

> <Gold.Chemscore.Hbond.Weighted>
-3.2405

> <Gold.Chemscore.Metal.Weighted>
-0.0000

> <Gold.Chemscore.Lipo.Weighted>
-10.9500

> <Gold.Chemscore.Internal_Hbond.Weighted>
0.0000

> <Gold.Chemscore.DEClash.Weighted>
0.3001

> <Gold.Chemscore.DEInternal.Weighted>
0.8287

> <Gold.Chemscore.Rot.Weighted>
3.2865

> <Gold.Chemscore.Internal.Correction.Weighted>
   9.000000E+99

> <Gold.Protein.RotatedTorsions>
[ 6907 6896 6895 6894 ] final -124.13 input  -60.11 | X-H torsion
[ 7974 7965 7964 7962 ] final  173.71 input  175.53 | X-H torsion
[ 8008 7997 7996 7995 ] final  160.79 input   59.86 | X-H torsion
[ 10167 10162 10161 10158 ] final -175.50 input  -65.29 | X-H torsion
[ 10718 10713 10712 10709 ] final   71.33 input   66.30 | X-H torsion
[ 10763 10752 10751 10750 ] final -149.68 input  -60.55 | X-H torsion
[ 11005 11000 10999 10996 ] final  148.16 input  -57.11 | X-H torsion

> <Gold.Protein.ActiveResidues>
 VAL166  LYS551  ARG553  GLY616  TRP617  ASP618  TYR619  PRO620  LYS621  CYS622 
 ASP623  PHE694  ASN695  SER759  ASP760  ASP761  ALA762  ILE779  LEU786  VAL792 
 PHE793  MET794  SER795  GLU796  ALA797  LYS798  CYS799  TRP800  GLU811  SER814 

> <Gold.Protein.RotatedAtoms>
  150.8738  133.7468  159.2952 H   0  0  0  0  0  0  0  0  0  0  0  0  # atno 6907 bound_to 6896
  151.5071  135.1062  159.9854 H   0  0  0  0  0  0  0  0  0  0  0  0  # atno 6908 bound_to 6896
  152.4713  133.7992  159.6999 H   0  0  0  0  0  0  0  0  0  0  0  0  # atno 6909 bound_to 6896
  144.7237  139.9689  143.6436 H   0  0  0  0  0  0  0  0  0  0  0  0  # atno 7974 bound_to 7965
  156.2148  140.1794  156.7614 H   0  0  0  0  0  0  0  0  0  0  0  0  # atno 8008 bound_to 7997
  154.5775  140.0672  156.9084 H   0  0  0  0  0  0  0  0  0  0  0  0  # atno 8009 bound_to 7997
  155.2562  140.3332  155.4280 H   0  0  0  0  0  0  0  0  0  0  0  0  # atno 8010 bound_to 7997
  139.5578  144.1946  152.1188 H   0  0  0  0  0  0  0  0  0  0  0  0  # atno 10167 bound_to 10162
  157.6446  130.9523  150.0775 H   0  0  0  0  0  0  0  0  0  0  0  0  # atno 10718 bound_to 10713
  154.8163  135.3303  154.7165 H   0  0  0  0  0  0  0  0  0  0  0  0  # atno 10763 bound_to 10752
  153.7805  135.6919  153.4893 H   0  0  0  0  0  0  0  0  0  0  0  0  # atno 10764 bound_to 10752
  153.1983  135.4525  155.0183 H   0  0  0  0  0  0  0  0  0  0  0  0  # atno 10765 bound_to 10752
  140.0936  134.9026  157.1689 H   0  0  0  0  0  0  0  0  0  0  0  0  # atno 11005 bound_to 11000
  146.0579  139.3574  143.0599 LP  0  0  0  0  0  0  0  0  0  0  0  0  # atno 17320 bound_to 7965
  145.8131  140.9716  143.0938 LP  0  0  0  0  0  0  0  0  0  0  0  0  # atno 17321 bound_to 7965
  140.1454  144.5164  150.6719 LP  0  0  0  0  0  0  0  0  0  0  0  0  # atno 17342 bound_to 10162
  140.6853  143.2347  151.5276 LP  0  0  0  0  0  0  0  0  0  0  0  0  # atno 17343 bound_to 10162
  156.1761  130.3648  149.9099 LP  0  0  0  0  0  0  0  0  0  0  0  0  # atno 17370 bound_to 10713
  156.7063  130.8952  151.3605 LP  0  0  0  0  0  0  0  0  0  0  0  0  # atno 17371 bound_to 10713
  140.3317  134.2802  155.7227 LP  0  0  0  0  0  0  0  0  0  0  0  0  # atno 17394 bound_to 11000
  141.2085  133.7775  157.0053 LP  0  0  0  0  0  0  0  0  0  0  0  0  # atno 17395 bound_to 11000

$$$$
