AV-unprocessed.smi:102|AV-procd|sdf|958|dock3
  -GOLD-   2262017493D 1   1.00000     0.00000
 Structure written by MMmdl.
 44 45  0  0  0  0  0  0  0  0  1 V2000
  143.6689  139.9063  158.4492 C   0  0  0  0  0  0  0  0  0  0  0  0
  145.0086  139.5842  159.0975 C   0  0  0  0  0  0  0  0  0  0  0  0
  145.4414  140.2459  160.0415 O   0  0  0  0  0  0  0  0  0  0  0  0
  145.6160  138.5303  158.5218 O   0  0  0  0  0  0  0  0  0  0  0  0
  146.7429  137.9251  159.1405 C   0  0  0  0  0  0  0  0  0  0  0  0
  147.2589  136.7396  158.3104 C   0  0  1  0  0  0  0  0  0  0  0  0
  147.6158  137.1620  156.9976 O   0  0  0  0  0  0  0  0  0  0  0  0
  148.6732  136.3942  156.5064 C   0  0  1  0  0  0  0  0  0  0  0  0
  149.7816  137.3198  156.0641 N   0  0  0  0  0  0  0  0  0  0  0  0
  149.6571  138.6990  156.1725 C   0  0  0  0  0  0  0  0  0  0  0  0
  150.6340  139.5584  155.7981 C   0  0  0  0  0  0  0  0  0  0  0  0
  150.4417  140.8817  155.9332 F   0  0  0  0  0  0  0  0  0  0  0  0
  151.8952  139.0612  155.2563 C   0  0  0  0  0  0  0  0  0  0  0  0
  152.8368  139.7598  154.8867 O   0  0  0  0  0  0  0  0  0  0  0  0
  151.9815  137.6680  155.1803 N   0  0  0  0  0  0  0  0  0  0  0  0
  150.9839  136.7707  155.5657 C   0  0  0  0  0  0  0  0  0  0  0  0
  151.1765  135.5597  155.4683 O   0  0  0  0  0  0  0  0  0  0  0  0
  149.1707  135.4872  157.6396 C   0  0  2  0  0  0  0  0  0  0  0  0
  148.6642  134.1693  157.4491 O   0  0  0  0  0  0  0  0  0  0  0  0
  149.4977  133.1154  157.4389 C   0  0  0  0  0  0  0  0  0  0  0  0
  148.7701  131.8044  157.1737 C   0  0  0  0  0  0  0  0  0  0  0  0
  150.7153  133.1501  157.6157 O   0  0  0  0  0  0  0  0  0  0  0  0
  148.5525  136.1478  158.8643 C   0  0  2  0  0  0  0  0  0  0  0  0
  148.3114  135.2290  159.9237 O   0  0  0  0  0  0  0  0  0  0  0  0
  147.9566  135.6795  161.1394 C   0  0  0  0  0  0  0  0  0  0  0  0
  147.7295  134.5493  162.1343 C   0  0  0  0  0  0  0  0  0  0  0  0
  147.8264  136.8596  161.4649 O   0  0  0  0  0  0  0  0  0  0  0  0
  152.8404  137.2781  154.8202 H   0  0  0  0  0  0  0  0  0  0  0  0
  142.9819  139.0679  158.5651 H   0  0  0  0  0  0  0  0  0  0  0  0
  143.8000  140.1039  157.3851 H   0  0  0  0  0  0  0  0  0  0  0  0
  143.2215  140.7864  158.9118 H   0  0  0  0  0  0  0  0  0  0  0  0
  147.5362  138.6489  159.3331 H   0  0  0  0  0  0  0  0  0  0  0  0
  146.4159  137.5614  160.1146 H   0  0  0  0  0  0  0  0  0  0  0  0
  146.5005  135.9586  158.2314 H   0  0  0  0  0  0  0  0  0  0  0  0
  148.3330  135.8590  155.6179 H   0  0  0  0  0  0  0  0  0  0  0  0
  148.7487  139.1224  156.5751 H   0  0  0  0  0  0  0  0  0  0  0  0
  150.2603  135.4934  157.7007 H   0  0  0  0  0  0  0  0  0  0  0  0
  147.8449  131.7581  157.7483 H   0  0  0  0  0  0  0  0  0  0  0  0
  149.3943  130.9566  157.4570 H   0  0  0  0  0  0  0  0  0  0  0  0
  148.5262  131.7157  156.1151 H   0  0  0  0  0  0  0  0  0  0  0  0
  149.1951  136.9644  159.1973 H   0  0  0  0  0  0  0  0  0  0  0  0
  147.1501  133.7474  161.6762 H   0  0  0  0  0  0  0  0  0  0  0  0
  147.1862  134.9117  163.0074 H   0  0  0  0  0  0  0  0  0  0  0  0
  148.6849  134.1427  162.4659 H   0  0  0  0  0  0  0  0  0  0  0  0
  1  2  1  0  0  0  0
  1 29  1  0  0  0  0
  1 30  1  0  0  0  0
  1 31  1  0  0  0  0
  2  3  2  0  0  0  0
  2  4  1  0  0  0  0
  4  5  1  0  0  0  0
  5  6  1  0  0  0  0
  5 32  1  0  0  0  0
  5 33  1  0  0  0  0
  6 23  1  0  0  0  0
  6  7  1  0  0  0  0
  6 34  1  0  0  0  0
  7  8  1  0  0  0  0
  8  9  1  0  0  0  0
  8 18  1  0  0  0  0
  8 35  1  0  0  0  0
  9 16  1  0  0  0  0
  9 10  1  0  0  0  0
 10 11  2  0  0  0  0
 10 36  1  0  0  0  0
 11 12  1  0  0  0  0
 11 13  1  0  0  0  0
 13 14  2  0  0  0  0
 13 15  1  0  0  0  0
 15 28  1  0  0  0  0
 15 16  1  0  0  0  0
 16 17  2  0  0  0  0
 18 19  1  0  0  0  0
 18 23  1  0  0  0  0
 18 37  1  0  0  0  0
 19 20  1  0  0  0  0
 20 21  1  0  0  0  0
 20 22  2  0  0  0  0
 21 38  1  0  0  0  0
 21 39  1  0  0  0  0
 21 40  1  0  0  0  0
 23 24  1  0  0  0  0
 23 41  1  0  0  0  0
 24 25  1  0  0  0  0
 25 26  1  0  0  0  0
 25 27  2  0  0  0  0
 26 42  1  0  0  0  0
 26 43  1  0  0  0  0
 26 44  1  0  0  0  0
M  END
> <s_m_source_file>
AV-unprocessed.smi

> <i_m_source_file_index>
102

> <i_lp_mmshare_version>
43012

> <i_f3d_flags>
0

> <s_epik_input>
W0NIM11DKD1PKU9bQ0gyXVtDQEBIXTFPW0NASF0oW0NAQEhdKE9DKD1PKVtDSDNdKVtDQEhdMU9DKD1PKVtDSDNdKW4yW2NIXWMoRiljKD1PKVtuSF1jMj1P

> <s_epik_cmdline>
J2VwaWtfcHl0aG9uJywgJy1waCcsICc3LjAnLCAnLXRuJywgJzgnLCAnLW1hJywgJzIwMCcsICctbWV0YWxfYmluZGluZycsICctaW1hZScsICc8aW5maWxlLm1hZT4nLCAnLW9tYWUnLCAnPG91dGZpbGUubWFlPic=

> <r_lp_tautomer_probability>
0.999537

> <r_epik_Ionization_Penalty>
0.058267

> <r_epik_Ionization_Penalty_Charging>
0.058267

> <r_epik_Ionization_Penalty_Neutral>
6.57791e-16

> <r_epik_State_Penalty>
0.0503774

> <r_epik_Charging_Adjusted_Penalty>
0.108644

> <i_epik_Tot_Q>
0

> <i_epik_Tot_abs_Q>
0

> <r_epik_Metal_State_Penalty>
2.6644

> <b_epik_Metal_Only>
0

> <s_epik_Chemistry_Notes>
This compound has an ester and may undergo hydrolysis at high or low pH. This compound contains an acetal/aminal-like group ( X-CH(R)-Y where X, Y are N, S, or O) that may be acid/base labile, releasing an aldehyde.

> <s_lp_Force_Field>
OPLS_2005

> <r_lp_Energy>
14.1022

> <b_lp_Chiralities_Consistent>
1

> <s_lp_Variant>
AV-unprocessed.smi:102-14

> <Gold.Version>
5.8.1

> <Gold.Id.Protein>
6NUR|6NUR_protein|mol2

> <Gold.PLP.Fitness>
41.2884

> <Gold.PLP.PLP>
-26.2416

> <Gold.PLP.part.hbond>
-6.9863

> <Gold.PLP.part.metal>
0.0000

> <Gold.PLP.part.buried>
-2.0587

> <Gold.PLP.part.nonpolar>
-17.1448

> <Gold.PLP.part.repulsive>
0.2864

> <Gold.PLP.ligand.clash>
0.0000

> <Gold.PLP.ligand.torsion>
0.9577

> <Gold.PLP.Chemscore.Hbond>
5.5696

> <Gold.PLP.Chemscore.CHOScore>
0.0000

> <Gold.PLP.Chemscore.Metal>
0.0000

> <Gold.Chemscore.Hbonds>
donor molecule, donor type, donor heavy atom, donor atom, acceptor molecule, acceptor atom, score
      P1  H  6896  6908       L1    22  1.00
      P1  H  6931  6943       L1    27  1.00
      P1  H  6934  6946       L1     3  0.24
      P1  H  6934  6947       L1    27  0.23
      P1  H  7989  7998       L1    14  0.28
      P1  H  7997  8008       L1    14  1.00
      P1  H 10752 10764       L1    17  1.00

> <Gold.PLP.Chemscore.Internal.Correction>
0.2534

> <Gold.Rescore>
     Score         DG    S(hbond)    S(metal)    S(lipo)     H(rot)  DE(clash)    DE(int)     intcor
      9.73     -14.17       4.80        0.00      25.87       4.05       0.93       3.51       ----

> <Gold.Chemscore.Fitness>
9.7256

> <Gold.Chemscore.DG>
-14.1670

> <Gold.Chemscore.ZeroCoef>
-5.4800

> <Gold.Chemscore.Hbond>
4.8003

> <Gold.Chemscore.Metal>
0.0000

> <Gold.Chemscore.Lipo>
25.8715

> <Gold.Chemscore.Internal_Hbond>
0.0000

> <Gold.Chemscore.DEClash>
0.9272

> <Gold.Chemscore.DEInternal>
3.5142

> <Gold.Chemscore.Rot>
4.0520

> <Gold.Chemscore.Internal.Correction>
   9.000000E+99

> <Gold.Chemscore.Hbonds>
donor molecule, donor type, donor heavy atom, donor atom, acceptor molecule, acceptor atom, score
      P1  H  6896  6908       L1    22  0.75
      P1  H  6931  6943       L1    27  0.99
      P1  H  6934  6946       L1     3  0.24
      P1  H  6934  6947       L1    27  0.22
      P1  H  7989  7998       L1    14  0.03
      P1  H  7997  8008       L1    14  0.99
      P1  H 10752 10764       L1    17  0.25

> <Gold.Chemscore.Hbond.Weighted>
-16.0332

> <Gold.Chemscore.Metal.Weighted>
-0.0000

> <Gold.Chemscore.Lipo.Weighted>
-3.0270

> <Gold.Chemscore.Internal_Hbond.Weighted>
0.0000

> <Gold.Chemscore.DEClash.Weighted>
0.9272

> <Gold.Chemscore.DEInternal.Weighted>
3.5142

> <Gold.Chemscore.Rot.Weighted>
10.3732

> <Gold.Chemscore.Internal.Correction.Weighted>
   9.000000E+99

> <Gold.Protein.RotatedTorsions>
[ 6907 6896 6895 6894 ] final   97.24 input  -60.11 | X-H torsion
[ 7974 7965 7964 7962 ] final  116.78 input  175.53 | X-H torsion
[ 8008 7997 7996 7995 ] final  -15.33 input   59.86 | X-H torsion
[ 10167 10162 10161 10158 ] final   84.08 input  -65.29 | X-H torsion
[ 10718 10713 10712 10709 ] final   10.62 input   66.30 | X-H torsion
[ 10763 10752 10751 10750 ] final  -56.66 input  -60.55 | X-H torsion
[ 11005 11000 10999 10996 ] final   93.71 input  -57.11 | X-H torsion

> <Gold.Protein.ActiveResidues>
 VAL166  LYS551  ARG553  GLY616  TRP617  ASP618  TYR619  PRO620  LYS621  CYS622 
 ASP623  PHE694  ASN695  SER759  ASP760  ASP761  ALA762  ILE779  LEU786  VAL792 
 PHE793  MET794  SER795  GLU796  ALA797  LYS798  CYS799  TRP800  GLU811  SER814 

> <Gold.Protein.RotatedAtoms>
  152.5426  134.0764  159.8215 H   0  0  0  0  0  0  0  0  0  0  0  0  # atno 6907 bound_to 6896
  151.0871  133.5337  159.2624 H   0  0  0  0  0  0  0  0  0  0  0  0  # atno 6908 bound_to 6896
  151.2142  135.0502  159.8978 H   0  0  0  0  0  0  0  0  0  0  0  0  # atno 6909 bound_to 6896
  145.1754  139.3078  143.4446 H   0  0  0  0  0  0  0  0  0  0  0  0  # atno 7974 bound_to 7965
  154.5139  140.2199  155.9103 H   0  0  0  0  0  0  0  0  0  0  0  0  # atno 8008 bound_to 7997
  156.1585  140.3147  155.8732 H   0  0  0  0  0  0  0  0  0  0  0  0  # atno 8009 bound_to 7997
  155.3799  140.0472  157.3034 H   0  0  0  0  0  0  0  0  0  0  0  0  # atno 8010 bound_to 7997
  139.9117  144.6268  150.8530 H   0  0  0  0  0  0  0  0  0  0  0  0  # atno 10167 bound_to 10162
  156.9837  130.6015  149.5679 H   0  0  0  0  0  0  0  0  0  0  0  0  # atno 10718 bound_to 10713
  154.2102  135.6396  153.5113 H   0  0  0  0  0  0  0  0  0  0  0  0  # atno 10763 bound_to 10752
  152.9991  135.5472  154.6223 H   0  0  0  0  0  0  0  0  0  0  0  0  # atno 10764 bound_to 10752
  154.5658  135.2912  155.0849 H   0  0  0  0  0  0  0  0  0  0  0  0  # atno 10765 bound_to 10752
  139.8807  134.8805  156.3757 H   0  0  0  0  0  0  0  0  0  0  0  0  # atno 11005 bound_to 11000
  146.3462  140.1914  142.8589 LP  0  0  0  0  0  0  0  0  0  0  0  0  # atno 17320 bound_to 7965
  145.0190  140.8778  143.5178 LP  0  0  0  0  0  0  0  0  0  0  0  0  # atno 17321 bound_to 7965
  140.7684  143.3361  151.2306 LP  0  0  0  0  0  0  0  0  0  0  0  0  # atno 17342 bound_to 10162
  139.6937  143.9649  152.2872 LP  0  0  0  0  0  0  0  0  0  0  0  0  # atno 17343 bound_to 10162
  156.0234  130.5329  150.8340 LP  0  0  0  0  0  0  0  0  0  0  0  0  # atno 17370 bound_to 10713
  157.5508  131.0944  150.9698 LP  0  0  0  0  0  0  0  0  0  0  0  0  # atno 17371 bound_to 10713
  140.9433  133.7500  156.0175 LP  0  0  0  0  0  0  0  0  0  0  0  0  # atno 17394 bound_to 11000
  140.8193  134.3308  157.5387 LP  0  0  0  0  0  0  0  0  0  0  0  0  # atno 17395 bound_to 11000

$$$$
