AV-unprocessed.smi:284|AV-procd|sdf|2164|dock7
  -GOLD-   2262021523D 1   1.00000     0.00000
 Structure written by MMmdl.
 60 62  0  0  0  0  0  0  0  0  1 V2000
  146.7868  134.8441  159.4369 C   0  0  0  0  0  0  0  0  0  0  0  0
  147.0837  135.3451  158.0322 C   0  0  0  0  0  0  0  0  0  0  0  0
  146.1049  135.5570  157.1222 C   0  0  0  0  0  0  0  0  0  0  0  0
  146.3419  136.0134  155.8378 N   0  0  0  0  0  0  0  0  0  0  0  0
  145.2246  136.2331  154.8397 C   0  0  1  0  0  0  0  0  0  0  0  0
  145.2982  137.6505  154.2509 C   0  0  0  0  0  0  0  0  0  0  0  0
  145.1018  137.4096  152.7663 C   0  0  2  0  0  0  0  0  0  0  0  0
  143.7271  137.4504  152.4312 O   0  0  0  0  0  0  0  0  0  0  0  0
  145.7034  136.0111  152.5862 C   0  0  2  0  0  0  0  0  0  0  0  0
  145.2755  135.2214  151.3370 C   0  0  0  0  0  0  0  0  0  0  0  0
  145.4258  136.0183  150.1815 O   0  0  0  0  0  0  0  0  0  0  0  0
  145.3417  135.3258  153.7813 O   0  0  0  0  0  0  0  0  0  0  0  0
  147.6644  136.2653  155.4214 C   0  0  0  0  0  0  0  0  0  0  0  0
  147.8997  136.6619  154.2776 O   0  0  0  0  0  0  0  0  0  0  0  0
  148.7103  136.0511  156.3468 N   0  0  0  0  0  0  0  0  0  0  0  0
  150.0972  136.3411  155.9195 C   0  0  0  0  0  0  0  0  0  0  0  0
  150.7700  137.4464  156.7487 C   0  0  0  0  0  0  0  0  0  0  0  0
  151.6706  137.1662  157.5403 O   0  0  0  0  0  0  0  0  0  0  0  0
  150.3245  138.6926  156.5046 N   0  0  0  0  0  0  0  0  0  0  0  0
  150.7116  139.9228  157.1047 C   0  0  0  0  0  0  0  0  0  0  0  0
  151.3900  139.8482  158.3367 C   0  0  0  0  0  0  0  0  0  0  0  0
  151.8276  141.0156  158.9911 C   0  0  0  0  0  0  0  0  0  0  0  0
  151.6031  142.2934  158.4229 C   0  0  0  0  0  0  0  0  0  0  0  0
  152.0684  143.5945  159.1050 C   0  0  0  0  0  0  0  0  0  0  0  0
  152.9637  144.3975  158.1377 C   0  0  0  0  0  0  0  0  0  0  0  0
  152.8828  143.3421  160.3940 C   0  0  0  0  0  0  0  0  0  0  0  0
  150.8394  144.4457  159.4864 C   0  0  0  0  0  0  0  0  0  0  0  0
  150.9290  142.3595  157.1808 C   0  0  0  0  0  0  0  0  0  0  0  0
  150.4923  141.1935  156.5237 C   0  0  0  0  0  0  0  0  0  0  0  0
  148.4798  135.6009  157.6698 C   0  0  0  0  0  0  0  0  0  0  0  0
  149.4186  135.4464  158.4532 O   0  0  0  0  0  0  0  0  0  0  0  0
  145.7203  134.6803  159.5936 H   0  0  0  0  0  0  0  0  0  0  0  0
  147.1248  135.5685  160.1787 H   0  0  0  0  0  0  0  0  0  0  0  0
  147.2994  133.8992  159.6207 H   0  0  0  0  0  0  0  0  0  0  0  0
  145.0907  135.3545  157.4298 H   0  0  0  0  0  0  0  0  0  0  0  0
  144.2934  136.0215  155.3677 H   0  0  0  0  0  0  0  0  0  0  0  0
  144.5552  138.3087  154.7033 H   0  0  0  0  0  0  0  0  0  0  0  0
  146.2902  138.0693  154.4288 H   0  0  0  0  0  0  0  0  0  0  0  0
  145.6239  138.1531  152.1632 H   0  0  0  0  0  0  0  0  0  0  0  0
  143.6479  137.6112  151.5034 H   0  0  0  0  0  0  0  0  0  0  0  0
  146.7906  136.1039  152.5876 H   0  0  0  0  0  0  0  0  0  0  0  0
  145.9053  134.3386  151.2241 H   0  0  0  0  0  0  0  0  0  0  0  0
  144.2471  134.8686  151.4131 H   0  0  0  0  0  0  0  0  0  0  0  0
  144.8771  136.7826  150.2696 H   0  0  0  0  0  0  0  0  0  0  0  0
  150.7249  135.4503  155.9679 H   0  0  0  0  0  0  0  0  0  0  0  0
  150.1209  136.6199  154.8643 H   0  0  0  0  0  0  0  0  0  0  0  0
  149.6407  138.7732  155.7662 H   0  0  0  0  0  0  0  0  0  0  0  0
  151.5784  138.8867  158.7920 H   0  0  0  0  0  0  0  0  0  0  0  0
  152.3382  140.8966  159.9336 H   0  0  0  0  0  0  0  0  0  0  0  0
  153.3271  145.3147  158.6026 H   0  0  0  0  0  0  0  0  0  0  0  0
  152.4333  144.6898  157.2314 H   0  0  0  0  0  0  0  0  0  0  0  0
  153.8359  143.8173  157.8344 H   0  0  0  0  0  0  0  0  0  0  0  0
  153.7866  142.7652  160.1937 H   0  0  0  0  0  0  0  0  0  0  0  0
  152.2978  142.8075  161.1435 H   0  0  0  0  0  0  0  0  0  0  0  0
  153.2001  144.2806  160.8505 H   0  0  0  0  0  0  0  0  0  0  0  0
  151.1353  145.3668  159.9898 H   0  0  0  0  0  0  0  0  0  0  0  0
  150.1780  143.9020  160.1621 H   0  0  0  0  0  0  0  0  0  0  0  0
  150.2523  144.7331  158.6141 H   0  0  0  0  0  0  0  0  0  0  0  0
  150.7433  143.3141  156.7121 H   0  0  0  0  0  0  0  0  0  0  0  0
  150.0040  141.3054  155.5688 H   0  0  0  0  0  0  0  0  0  0  0  0
  1  2  1  0  0  0  0
  1 32  1  0  0  0  0
  1 33  1  0  0  0  0
  1 34  1  0  0  0  0
  2 30  1  0  0  0  0
  2  3  2  0  0  0  0
  3  4  1  0  0  0  0
  3 35  1  0  0  0  0
  4  5  1  0  0  0  0
  4 13  1  0  0  0  0
  5 12  1  0  0  0  0
  5  6  1  0  0  0  0
  5 36  1  0  0  0  0
  6  7  1  0  0  0  0
  6 37  1  0  0  0  0
  6 38  1  0  0  0  0
  7  8  1  0  0  0  0
  7  9  1  0  0  0  0
  7 39  1  0  0  0  0
  8 40  1  0  0  0  0
  9 10  1  0  0  0  0
  9 12  1  0  0  0  0
  9 41  1  0  0  0  0
 10 11  1  0  0  0  0
 10 42  1  0  0  0  0
 10 43  1  0  0  0  0
 11 44  1  0  0  0  0
 13 14  2  0  0  0  0
 13 15  1  0  0  0  0
 15 16  1  0  0  0  0
 15 30  1  0  0  0  0
 16 17  1  0  0  0  0
 16 45  1  0  0  0  0
 16 46  1  0  0  0  0
 17 18  2  0  0  0  0
 17 19  1  0  0  0  0
 19 20  1  0  0  0  0
 19 47  1  0  0  0  0
 20 29  1  0  0  0  0
 20 21  2  0  0  0  0
 21 22  1  0  0  0  0
 21 48  1  0  0  0  0
 22 23  2  0  0  0  0
 22 49  1  0  0  0  0
 23 24  1  0  0  0  0
 23 28  1  0  0  0  0
 24 25  1  0  0  0  0
 24 26  1  0  0  0  0
 24 27  1  0  0  0  0
 25 50  1  0  0  0  0
 25 51  1  0  0  0  0
 25 52  1  0  0  0  0
 26 53  1  0  0  0  0
 26 54  1  0  0  0  0
 26 55  1  0  0  0  0
 27 56  1  0  0  0  0
 27 57  1  0  0  0  0
 27 58  1  0  0  0  0
 28 29  2  0  0  0  0
 28 59  1  0  0  0  0
 29 60  1  0  0  0  0
 30 31  2  0  0  0  0
M  END
> <s_m_source_file>
AV-unprocessed.smi

> <i_m_source_file_index>
284

> <i_lp_mmshare_version>
43012

> <i_f3d_flags>
0

> <s_epik_input>
W09IXVtDSDJdW0NAQEhdKE8xKVtDQEhdKFtPSF0pW0NIMl1bQ0BIXTFuKFtjSF1jMltDSDNdKWMoPU8pbihjMj1PKVtDSDJdQyg9TylbTkhdYzNbY0hdW2NIXWMoQyhbQ0gzXSkoW0NIM10pW0NIM10pW2NIXVtjSF0z

> <s_epik_cmdline>
J2VwaWtfcHl0aG9uJywgJy1waCcsICc3LjAnLCAnLXRuJywgJzgnLCAnLW1hJywgJzIwMCcsICctbWV0YWxfYmluZGluZycsICctaW1hZScsICc8aW5maWxlLm1hZT4nLCAnLW9tYWUnLCAnPG91dGZpbGUubWFlPic=

> <r_lp_tautomer_probability>
1

> <r_epik_Ionization_Penalty>
4.92358e-06

> <r_epik_Ionization_Penalty_Charging>
1.29777e-07

> <r_epik_Ionization_Penalty_Neutral>
4.79381e-06

> <r_epik_State_Penalty>
-0

> <r_epik_Charging_Adjusted_Penalty>
1.29777e-07

> <i_epik_Tot_Q>
0

> <i_epik_Tot_abs_Q>
0

> <r_epik_Metal_State_Penalty>
-0

> <b_epik_Metal_Only>
0

> <s_epik_Chemistry_Notes>
This compound contains an acetal/aminal-like group ( X-CH(R)-Y where X, Y are N, S, or O) that may be acid/base labile, releasing an aldehyde.

> <s_lp_Force_Field>
OPLS_2005

> <r_lp_Energy>
40.7373

> <b_lp_Chiralities_Consistent>
1

> <s_lp_Variant>
AV-unprocessed.smi:284-8

> <Gold.Version>
5.8.1

> <Gold.Id.Protein>
6NUR|6NUR_protein|mol2

> <Gold.PLP.Fitness>
47.0588

> <Gold.PLP.PLP>
-38.7287

> <Gold.PLP.part.hbond>
-5.0000

> <Gold.PLP.part.metal>
0.0000

> <Gold.PLP.part.buried>
-7.1219

> <Gold.PLP.part.nonpolar>
-31.3517

> <Gold.PLP.part.repulsive>
3.6382

> <Gold.PLP.ligand.clash>
0.0000

> <Gold.PLP.ligand.torsion>
0.3984

> <Gold.PLP.Chemscore.Hbond>
3.0000

> <Gold.PLP.Chemscore.CHOScore>
0.0000

> <Gold.PLP.Chemscore.Metal>
0.0000

> <Gold.Chemscore.Hbonds>
donor molecule, donor type, donor heavy atom, donor atom, acceptor molecule, acceptor atom, score
      L1  H     8    40       P1 10171  1.00
      L1  H    11    44       P1 10171  0.81
      P1  H  6896  6909       L1    31  1.00

> <Gold.PLP.Chemscore.Internal.Correction>
0.1270

> <Gold.Rescore>
     Score         DG    S(hbond)    S(metal)    S(lipo)     H(rot)  DE(clash)    DE(int)     intcor
     11.55     -19.94       2.89        0.00     112.87       3.27       0.60       7.80       ----

> <Gold.Chemscore.Fitness>
11.5510

> <Gold.Chemscore.DG>
-19.9419

> <Gold.Chemscore.ZeroCoef>
-5.4800

> <Gold.Chemscore.Hbond>
2.8851

> <Gold.Chemscore.Metal>
0.0000

> <Gold.Chemscore.Lipo>
112.8689

> <Gold.Chemscore.Internal_Hbond>
0.0000

> <Gold.Chemscore.DEClash>
0.5957

> <Gold.Chemscore.DEInternal>
7.7952

> <Gold.Chemscore.Rot>
3.2735

> <Gold.Chemscore.Internal.Correction>
   9.000000E+99

> <Gold.Chemscore.Hbonds>
donor molecule, donor type, donor heavy atom, donor atom, acceptor molecule, acceptor atom, score
      L1  H     8    40       P1 10171  0.97
      L1  H    11    44       P1 10171  0.80
      P1  H  6896  6909       L1    31  0.99

> <Gold.Chemscore.Hbond.Weighted>
-9.6363

> <Gold.Chemscore.Metal.Weighted>
-0.0000

> <Gold.Chemscore.Lipo.Weighted>
-13.2057

> <Gold.Chemscore.Internal_Hbond.Weighted>
0.0000

> <Gold.Chemscore.DEClash.Weighted>
0.5957

> <Gold.Chemscore.DEInternal.Weighted>
7.7952

> <Gold.Chemscore.Rot.Weighted>
8.3801

> <Gold.Chemscore.Internal.Correction.Weighted>
   9.000000E+99

> <Gold.Protein.RotatedTorsions>
[ 6907 6896 6895 6894 ] final   34.70 input  -60.11 | X-H torsion
[ 7974 7965 7964 7962 ] final  116.98 input  175.53 | X-H torsion
[ 8008 7997 7996 7995 ] final    1.35 input   59.86 | X-H torsion
[ 10167 10162 10161 10158 ] final  132.38 input  -65.29 | X-H torsion
[ 10718 10713 10712 10709 ] final   35.86 input   66.30 | X-H torsion
[ 10763 10752 10751 10750 ] final  -51.17 input  -60.55 | X-H torsion
[ 11005 11000 10999 10996 ] final  -10.10 input  -57.11 | X-H torsion

> <Gold.Protein.ActiveResidues>
 VAL166  LYS551  ARG553  GLY616  TRP617  ASP618  TYR619  PRO620  LYS621  CYS622 
 ASP623  PHE694  ASN695  SER759  ASP760  ASP761  ALA762  ILE779  LEU786  VAL792 
 PHE793  MET794  SER795  GLU796  ALA797  LYS798  CYS799  TRP800  GLU811  SER814 

> <Gold.Protein.RotatedAtoms>
  152.1060  134.9308  160.0567 H   0  0  0  0  0  0  0  0  0  0  0  0  # atno 6907 bound_to 6896
  152.0504  133.4011  159.4383 H   0  0  0  0  0  0  0  0  0  0  0  0  # atno 6908 bound_to 6896
  150.6841  134.3235  159.4840 H   0  0  0  0  0  0  0  0  0  0  0  0  # atno 6909 bound_to 6896
  145.1730  139.3091  143.4457 H   0  0  0  0  0  0  0  0  0  0  0  0  # atno 7974 bound_to 7965
  154.6788  140.2628  155.6930 H   0  0  0  0  0  0  0  0  0  0  0  0  # atno 8008 bound_to 7997
  156.2688  140.2814  156.1247 H   0  0  0  0  0  0  0  0  0  0  0  0  # atno 8009 bound_to 7997
  155.1062  140.0375  157.2701 H   0  0  0  0  0  0  0  0  0  0  0  0  # atno 8010 bound_to 7997
  139.5342  144.6664  151.4844 H   0  0  0  0  0  0  0  0  0  0  0  0  # atno 10167 bound_to 10162
  157.3278  130.7482  149.6827 H   0  0  0  0  0  0  0  0  0  0  0  0  # atno 10718 bound_to 10713
  154.1223  135.6533  153.4905 H   0  0  0  0  0  0  0  0  0  0  0  0  # atno 10763 bound_to 10752
  153.0221  135.5273  154.7085 H   0  0  0  0  0  0  0  0  0  0  0  0  # atno 10764 bound_to 10752
  154.6296  135.2974  155.0202 H   0  0  0  0  0  0  0  0  0  0  0  0  # atno 10765 bound_to 10752
  140.7411  133.8669  155.8969 H   0  0  0  0  0  0  0  0  0  0  0  0  # atno 11005 bound_to 11000
  146.3465  140.1883  142.8589 LP  0  0  0  0  0  0  0  0  0  0  0  0  # atno 17320 bound_to 7965
  145.0213  140.8796  143.5165 LP  0  0  0  0  0  0  0  0  0  0  0  0  # atno 17321 bound_to 7965
  140.6539  143.8640  150.6814 LP  0  0  0  0  0  0  0  0  0  0  0  0  # atno 17342 bound_to 10162
  140.2013  143.3957  152.1789 LP  0  0  0  0  0  0  0  0  0  0  0  0  # atno 17343 bound_to 10162
  155.9692  130.4204  150.4421 LP  0  0  0  0  0  0  0  0  0  0  0  0  # atno 17370 bound_to 10713
  157.2448  131.0533  151.2415 LP  0  0  0  0  0  0  0  0  0  0  0  0  # atno 17371 bound_to 10713
  140.9835  134.1373  157.4473 LP  0  0  0  0  0  0  0  0  0  0  0  0  # atno 17394 bound_to 11000
  139.8806  135.0018  156.6090 LP  0  0  0  0  0  0  0  0  0  0  0  0  # atno 17395 bound_to 11000

$$$$
