AV-unprocessed.smi:2807|AV-procd|sdf|10817|dock1
  -GOLD-   2272015253D 1   1.00000     0.00000
 Structure written by MMmdl.
 32 33  0  0  0  0  0  0  0  0  1 V2000
  151.9046  139.6244  154.9912 O   0  0  0  0  0  0  0  0  0  0  0  0
  151.0918  139.6525  155.9162 C   0  0  0  0  0  0  0  0  0  0  0  0
  149.7669  139.7643  155.7255 N   0  0  0  0  0  0  0  0  0  0  0  0
  149.1091  139.9503  154.4325 C   0  0  1  0  0  0  0  0  0  0  0  0
  147.7553  139.2182  154.4179 C   0  0  0  0  0  0  0  0  0  0  0  0
  146.6903  140.3090  154.5160 C   0  0  0  0  0  0  0  0  0  0  0  0
  147.3012  141.4883  153.7651 C   0  0  0  0  0  0  0  0  0  0  0  0
  148.7970  141.4372  154.1016 C   0  0  1  0  0  0  0  0  0  0  0  0
  149.0510  142.3209  155.1810 O   0  0  0  0  0  0  0  0  0  0  0  0
  151.5677  139.5973  157.3750 C   0  0  0  0  0  0  0  0  0  0  0  0
  150.6770  138.9018  158.0856 F   0  0  0  0  0  0  0  0  0  0  0  0
  152.7362  138.9537  157.4375 F   0  0  0  0  0  0  0  0  0  0  0  0
  151.7215  141.0123  157.9285 C   0  0  0  0  0  0  0  0  0  0  0  0
  152.2641  141.2390  159.2143 C   0  0  0  0  0  0  0  0  0  0  0  0
  152.3506  142.5627  159.6870 C   0  0  0  0  0  0  0  0  0  0  0  0
  151.8948  143.6091  158.8631 C   0  0  0  0  0  0  0  0  0  0  0  0
  151.3696  143.2839  157.5976 C   0  0  0  0  0  0  0  0  0  0  0  0
  151.2802  142.0185  157.1360 N   0  0  0  0  0  0  0  0  0  0  0  0
  149.1729  139.7833  156.5420 H   0  0  0  0  0  0  0  0  0  0  0  0
  149.7329  139.5218  153.6459 H   0  0  0  0  0  0  0  0  0  0  0  0
  147.6412  138.6943  153.4680 H   0  0  0  0  0  0  0  0  0  0  0  0
  147.6554  138.4718  155.2075 H   0  0  0  0  0  0  0  0  0  0  0  0
  145.7308  139.9978  154.1021 H   0  0  0  0  0  0  0  0  0  0  0  0
  146.5329  140.5791  155.5613 H   0  0  0  0  0  0  0  0  0  0  0  0
  147.1674  141.3347  152.6936 H   0  0  0  0  0  0  0  0  0  0  0  0
  146.8303  142.4397  154.0166 H   0  0  0  0  0  0  0  0  0  0  0  0
  149.3910  141.7774  153.2528 H   0  0  0  0  0  0  0  0  0  0  0  0
  148.8145  143.1958  154.9127 H   0  0  0  0  0  0  0  0  0  0  0  0
  152.5989  140.4200  159.8334 H   0  0  0  0  0  0  0  0  0  0  0  0
  152.7564  142.7711  160.6659 H   0  0  0  0  0  0  0  0  0  0  0  0
  151.9448  144.6360  159.1933 H   0  0  0  0  0  0  0  0  0  0  0  0
  151.0091  144.0607  156.9396 H   0  0  0  0  0  0  0  0  0  0  0  0
  1  2  2  0  0  0  0
  2  3  1  0  0  0  0
  2 10  1  0  0  0  0
  3  4  1  0  0  0  0
  3 19  1  0  0  0  0
  4  8  1  0  0  0  0
  4  5  1  0  0  0  0
  4 20  1  0  0  0  0
  5  6  1  0  0  0  0
  5 21  1  0  0  0  0
  5 22  1  0  0  0  0
  6  7  1  0  0  0  0
  6 23  1  0  0  0  0
  6 24  1  0  0  0  0
  7  8  1  0  0  0  0
  7 25  1  0  0  0  0
  7 26  1  0  0  0  0
  8  9  1  0  0  0  0
  8 27  1  0  0  0  0
  9 28  1  0  0  0  0
 10 11  1  0  0  0  0
 10 12  1  0  0  0  0
 10 13  1  0  0  0  0
 13 18  1  0  0  0  0
 13 14  2  0  0  0  0
 14 15  1  0  0  0  0
 14 29  1  0  0  0  0
 15 16  2  0  0  0  0
 15 30  1  0  0  0  0
 16 17  1  0  0  0  0
 16 31  1  0  0  0  0
 17 18  2  0  0  0  0
 17 32  1  0  0  0  0
M  END
> <s_m_source_file>
AV-unprocessed.smi

> <i_m_source_file_index>
2807

> <i_lp_mmshare_version>
43012

> <i_f3d_flags>
0

> <s_epik_input>
bjFbY0hdW2NIXVtjSF1bY0hdYzFDKEYpKEYpQyg9TylbTkhdW0NAQEhdMltDSDJdW0NIMl1bQ0gyXVtDQEhdMltPSF0=

> <s_epik_cmdline>
J2VwaWtfcHl0aG9uJywgJy1waCcsICc3LjAnLCAnLXRuJywgJzgnLCAnLW1hJywgJzIwMCcsICctbWV0YWxfYmluZGluZycsICctaW1hZScsICc8aW5maWxlLm1hZT4nLCAnLW9tYWUnLCAnPG91dGZpbGUubWFlPic=

> <r_lp_tautomer_probability>
1

> <r_epik_Ionization_Penalty>
4.08325e-05

> <r_epik_Ionization_Penalty_Charging>
0

> <r_epik_Ionization_Penalty_Neutral>
4.08325e-05

> <r_epik_State_Penalty>
-0

> <r_epik_Charging_Adjusted_Penalty>
0

> <i_epik_Tot_Q>
0

> <i_epik_Tot_abs_Q>
0

> <r_epik_Metal_State_Penalty>
0.034564

> <b_epik_Metal_Only>
0

> <s_lp_Force_Field>
OPLS_2005

> <r_lp_Energy>
28.4248

> <b_lp_Chiralities_Consistent>
1

> <s_lp_Variant>
AV-unprocessed.smi:2807-2

> <Gold.Version>
5.8.1

> <Gold.Id.Protein>
6NUR|6NUR_protein|mol2

> <Gold.PLP.Fitness>
37.7026

> <Gold.PLP.PLP>
-32.6255

> <Gold.PLP.part.hbond>
-1.7831

> <Gold.PLP.part.metal>
0.0000

> <Gold.PLP.part.buried>
-3.1233

> <Gold.PLP.part.nonpolar>
-27.3532

> <Gold.PLP.part.repulsive>
0.1377

> <Gold.PLP.ligand.clash>
0.0000

> <Gold.PLP.ligand.torsion>
1.5347

> <Gold.PLP.Chemscore.Hbond>
1.6960

> <Gold.PLP.Chemscore.CHOScore>
1.0000

> <Gold.PLP.Chemscore.Metal>
0.0000

> <Gold.Chemscore.Hbonds>
donor molecule, donor type, donor heavy atom, donor atom, acceptor molecule, acceptor atom, score
      L1  H     9    28       P1  8028  0.72
      P1  H  7989  7998       L1     1  0.98
      L1  C    17    32       P1  8028  0.98

> <Gold.PLP.Chemscore.Internal.Correction>
0.0585

> <Gold.Rescore>
     Score         DG    S(hbond)    S(metal)    S(lipo)     H(rot)  DE(clash)    DE(int)     intcor
     13.87     -15.38       1.68        0.00      81.29       2.05       0.06       1.45       ----

> <Gold.Chemscore.Fitness>
13.8678

> <Gold.Chemscore.DG>
-15.3778

> <Gold.Chemscore.ZeroCoef>
-5.4800

> <Gold.Chemscore.Hbond>
1.6837

> <Gold.Chemscore.Metal>
0.0000

> <Gold.Chemscore.Lipo>
81.2935

> <Gold.Chemscore.Internal_Hbond>
0.0000

> <Gold.Chemscore.DEClash>
0.0568

> <Gold.Chemscore.DEInternal>
1.4532

> <Gold.Chemscore.Rot>
2.0457

> <Gold.Chemscore.Internal.Correction>
   9.000000E+99

> <Gold.Chemscore.Hbonds>
donor molecule, donor type, donor heavy atom, donor atom, acceptor molecule, acceptor atom, score
      L1  H     9    28       P1  8028  0.72
      P1  H  7989  7998       L1     1  0.88

> <Gold.Chemscore.Hbond.Weighted>
-5.6235

> <Gold.Chemscore.Metal.Weighted>
-0.0000

> <Gold.Chemscore.Lipo.Weighted>
-9.5113

> <Gold.Chemscore.Internal_Hbond.Weighted>
0.0000

> <Gold.Chemscore.DEClash.Weighted>
0.0568

> <Gold.Chemscore.DEInternal.Weighted>
1.4532

> <Gold.Chemscore.Rot.Weighted>
5.2371

> <Gold.Chemscore.Internal.Correction.Weighted>
   9.000000E+99

> <Gold.Protein.RotatedTorsions>
[ 6907 6896 6895 6894 ] final  -97.08 input  -60.11 | X-H torsion
[ 7974 7965 7964 7962 ] final  103.09 input  175.53 | X-H torsion
[ 8008 7997 7996 7995 ] final  171.99 input   59.86 | X-H torsion
[ 10167 10162 10161 10158 ] final  125.80 input  -65.29 | X-H torsion
[ 10718 10713 10712 10709 ] final  -46.06 input   66.30 | X-H torsion
[ 10763 10752 10751 10750 ] final -167.95 input  -60.55 | X-H torsion
[ 11005 11000 10999 10996 ] final   85.90 input  -57.11 | X-H torsion

> <Gold.Protein.ActiveResidues>
 VAL166  LYS551  ARG553  GLY616  TRP617  ASP618  TYR619  PRO620  LYS621  CYS622 
 ASP623  PHE694  ASN695  SER759  ASP760  ASP761  ALA762  ILE779  LEU786  VAL792 
 PHE793  MET794  SER795  GLU796  ALA797  LYS798  CYS799  TRP800  GLU811  SER814 

> <Gold.Protein.RotatedAtoms>
  150.7006  134.1404  159.4102 H   0  0  0  0  0  0  0  0  0  0  0  0  # atno 6907 bound_to 6896
  151.9388  135.0220  160.0543 H   0  0  0  0  0  0  0  0  0  0  0  0  # atno 6908 bound_to 6896
  152.2112  133.4877  159.5147 H   0  0  0  0  0  0  0  0  0  0  0  0  # atno 6909 bound_to 6896
  145.3505  139.2440  143.3561 H   0  0  0  0  0  0  0  0  0  0  0  0  # atno 7974 bound_to 7965
  156.1218  140.1497  156.9193 H   0  0  0  0  0  0  0  0  0  0  0  0  # atno 8008 bound_to 7997
  154.4842  140.0870  156.7488 H   0  0  0  0  0  0  0  0  0  0  0  0  # atno 8009 bound_to 7997
  155.4414  140.3431  155.4292 H   0  0  0  0  0  0  0  0  0  0  0  0  # atno 8010 bound_to 7997
  139.5665  144.6914  151.3895 H   0  0  0  0  0  0  0  0  0  0  0  0  # atno 10167 bound_to 10162
  156.2221  130.4167  149.8980 H   0  0  0  0  0  0  0  0  0  0  0  0  # atno 10718 bound_to 10713
  154.6679  135.2935  154.9781 H   0  0  0  0  0  0  0  0  0  0  0  0  # atno 10763 bound_to 10752
  154.0818  135.6603  153.4843 H   0  0  0  0  0  0  0  0  0  0  0  0  # atno 10764 bound_to 10752
  153.0469  135.5199  154.7661 H   0  0  0  0  0  0  0  0  0  0  0  0  # atno 10765 bound_to 10752
  139.8959  134.8318  156.2646 H   0  0  0  0  0  0  0  0  0  0  0  0  # atno 11005 bound_to 11000
  146.2970  140.4120  142.8718 LP  0  0  0  0  0  0  0  0  0  0  0  0  # atno 17320 bound_to 7965
  144.8721  140.7287  143.6040 LP  0  0  0  0  0  0  0  0  0  0  0  0  # atno 17321 bound_to 7965
  140.6949  143.7773  150.7311 LP  0  0  0  0  0  0  0  0  0  0  0  0  # atno 17342 bound_to 10162
  140.1266  143.4563  152.2280 LP  0  0  0  0  0  0  0  0  0  0  0  0  # atno 17343 bound_to 10162
  156.6622  130.8787  151.3549 LP  0  0  0  0  0  0  0  0  0  0  0  0  # atno 17370 bound_to 10713
  157.7092  130.9421  150.1033 LP  0  0  0  0  0  0  0  0  0  0  0  0  # atno 17371 bound_to 10713
  141.0140  133.7079  156.1158 LP  0  0  0  0  0  0  0  0  0  0  0  0  # atno 17394 bound_to 11000
  140.7327  134.4236  157.5564 LP  0  0  0  0  0  0  0  0  0  0  0  0  # atno 17395 bound_to 11000

$$$$
