#       Name:                AV-unprocessed.smi:1202
#       Creating user name   scv26
#       Creation time:       Fri Mar 27 04:05:27 2020


#       File generated by GOLD software.
#

@<TRIPOS>MOLECULE
AV-unprocessed.smi:1202
    51    52     1
SMALL
NO_CHARGES


@<TRIPOS>ATOM
      1 ****        -6.8276   1.2546   1.1970 C.3            1 S1                 0.0000
      2 ****        -5.9324   0.4297   0.3946 N.pl3          1 S1                -1.0000
      3 ****        -5.2829  -0.6626   0.8790 C.2            1 S1                 0.0000
      4 ****        -5.2930  -1.1739   2.0039 O.2            1 S1                 0.0000
      5 ****        -4.3915  -1.2970  -0.1948 C.3            1 S1                 0.0000
      6 ****        -2.9615  -1.1228   0.1621 N.4            1 S1                 1.0000
      7 ****        -2.4447   0.2415  -0.1310 C.3            1 S1                 0.0000
      8 ****        -1.0041   0.4112   0.3783 C.3            1 S1                 0.0000
      9 ****        -0.0734  -0.6612  -0.2162 C.3            1 S1                 0.0000
     10 ****         1.2683  -0.5568   0.3492 N.am           1 S1                 0.0000
     11 ****         2.2217   0.2883  -0.0716 C.2            1 S1                 0.0000
     12 ****         2.0518   1.0940  -0.9877 O.2            1 S1                 0.0000
     13 ****         3.5604   0.2189   0.6770 C.3            1 S1                 0.0000
     14 ****         4.6968   0.7171  -0.1157 N.am           1 S1                 0.0000
     15 ****         5.1192   2.0394   0.1274 C.2            1 S1                 0.0000
     16 ****         6.1442   2.5914  -0.5409 C.2            1 S1                 0.0000
     17 ****         6.8218   1.7917  -1.5337 C.2            1 S1                 0.0000
     18 ****         6.4237   0.5270  -1.7768 C.2            1 S1                 0.0000
     19 ****         5.3021  -0.0797  -1.0502 C.2            1 S1                 0.0000
     20 ****         4.9291  -1.2329  -1.2680 O.2            1 S1                 0.0000
     21 ****        -0.6512  -2.0569   0.0670 C.3            1 S1                 0.0000
     22 ****        -2.0993  -2.1726  -0.4371 C.3            1 S1                 0.0000
     23 ****        -7.2598   2.0682   0.6147 H              1 S1                 0.0000
     24 ****        -6.3181   1.7178   2.0427 H              1 S1                 0.0000
     25 ****        -7.6648   0.6870   1.6045 H              1 S1                 0.0000
     26 ****        -4.6421  -2.3583  -0.2243 H              1 S1                 0.0000
     27 ****        -4.5870  -0.9074  -1.1966 H              1 S1                 0.0000
     28 ****        -2.4866   0.4244  -1.2058 H              1 S1                 0.0000
     29 ****        -3.0758   0.9954   0.3403 H              1 S1                 0.0000
     30 ****        -0.6427   1.4083   0.1238 H              1 S1                 0.0000
     31 ****        -0.9963   0.3483   1.4676 H              1 S1                 0.0000
     32 ****        -0.0187  -0.5266  -1.2985 H              1 S1                 0.0000
     33 ****         1.4929  -1.1802   1.1113 H              1 S1                 0.0000
     34 ****         3.4607   0.7866   1.6032 H              1 S1                 0.0000
     35 ****         3.7487  -0.8094   0.9922 H              1 S1                 0.0000
     36 ****         4.5560   2.5726   0.8795 H              1 S1                 0.0000
     37 ****         6.4512   3.6081  -0.3443 H              1 S1                 0.0000
     38 ****         7.6508   2.2101  -2.0855 H              1 S1                 0.0000
     39 ****         6.9418  -0.0555  -2.5245 H              1 S1                 0.0000
     40 ****        -0.0343  -2.8205  -0.4085 H              1 S1                 0.0000
     41 ****        -0.6249  -2.2606   1.1388 H              1 S1                 0.0000
     42 ****        -2.4879  -3.1593  -0.1817 H              1 S1                 0.0000
     43 ****        -2.1285  -2.0911  -1.5249 H              1 S1                 0.0000
     44 ****        -2.9125  -1.2482   1.1633 H              1 S1                 0.0000
     45 ****        -5.7883   0.6804  -0.5627 LP             1 S1                 0.0000
     46 ****        -5.8491  -0.7714   2.7311 LP             1 S1                 0.0000
     47 ****        -4.7451  -1.9901   2.1871 LP             1 S1                 0.0000
     48 ****         1.1695   1.1397  -1.4561 LP             1 S1                 0.0000
     49 ****         2.7962   1.7024  -1.2629 LP             1 S1                 0.0000
     50 ****         4.1608  -1.6152  -0.7546 LP             1 S1                 0.0000
     51 ****         5.3945  -1.7869  -1.9582 LP             1 S1                 0.0000
@<TRIPOS>BOND
    1    1    2 1     
    2    1   23 1     
    3    1   24 1     
    4    1   25 1     
    5    2    3 1     
    6    3    4 2     
    7    3    5 1     
    8    5    6 1     
    9    5   26 1     
   10    5   27 1     
   11    6   22 1     
   12    6    7 1     
   13    6   44 1     
   14    7    8 1     
   15    7   28 1     
   16    7   29 1     
   17    8    9 1     
   18    8   30 1     
   19    8   31 1     
   20    9   10 1     
   21    9   21 1     
   22    9   32 1     
   23   10   11 am    
   24   10   33 1     
   25   11   12 2     
   26   11   13 1     
   27   13   14 1     
   28   13   34 1     
   29   13   35 1     
   30   14   19 am    
   31   14   15 1     
   32   15   16 2     
   33   15   36 1     
   34   16   17 1     
   35   16   37 1     
   36   17   18 2     
   37   17   38 1     
   38   18   19 1     
   39   18   39 1     
   40   19   20 2     
   41   21   22 1     
   42   21   40 1     
   43   21   41 1     
   44   22   42 1     
   45   22   43 1     
   46    2   45 1     
   47    4   46 1     
   48    4   47 1     
   49   12   48 1     
   50   12   49 1     
   51   20   50 1     
   52   20   51 1     
@<TRIPOS>SUBSTRUCTURE
      1 S1             1
@<TRIPOS>SET
LONE_PAIRS      STATIC     ATOMS    <user>   **** ""
7 45 46 47 48 49 50 51
DONOR_HYDROGENS      STATIC     ATOMS    <user>   **** ""
2 44 33
ATOM$BLUE        STATIC     ATOMS    COLORGROUP SYSTEM
7 45 46 47 48 49 50 51
ATOM$RED        STATIC     ATOMS    COLORGROUP SYSTEM
2 44 33
