AV-unprocessed.smi:1610|AV-procd|sdf|6472|dock3
  -GOLD-   22720 7133D 1   1.00000     0.00000
 Structure written by MMmdl.
 43 44  0  0  0  0  0  0  0  0  2 V2000
  153.0689  133.0807  156.7012 C   0  0  0  0  0  0  0  0  0  0  0  0
  151.3738  133.7318  156.4257 S   0  0  0  0  0  0  0  0  0  0  0  0
  150.7624  132.8454  155.4224 O   0  0  0  0  0  0  0  0  0  0  0  0
  150.7440  133.7804  157.7548 O   0  0  0  0  0  0  0  0  0  0  0  0
  151.7168  135.2027  155.8369 N   0  5  0  0  0  0  0  0  0  0  0  0
  150.6425  136.1280  155.5054 C   0  0  0  0  0  0  0  0  0  0  0  0
  151.1523  137.1743  154.4762 C   0  0  0  0  0  0  0  0  0  0  0  0
  150.1819  138.3704  154.2688 C   0  0  0  0  0  0  0  0  0  0  0  0
  149.9063  139.0311  155.5614 N   0  0  0  0  0  0  0  0  0  0  0  0
  150.4801  140.1670  156.0292 C   0  0  0  0  0  0  0  0  0  0  0  0
  151.4609  140.6909  155.4991 O   0  0  0  0  0  0  0  0  0  0  0  0
  149.8558  140.7131  157.0878 N   0  0  0  0  0  0  0  0  0  0  0  0
  150.0840  142.0612  157.6044 C   0  0  0  0  0  0  0  0  0  0  0  0
  151.5685  142.2913  157.9570 C   0  0  0  0  0  0  0  0  0  0  0  0
  151.8005  143.0104  159.2794 C   0  0  0  0  0  0  0  0  0  0  0  0
  151.2867  144.3043  159.5112 C   0  0  0  0  0  0  0  0  0  0  0  0
  151.4926  144.9032  160.7688 C   0  0  0  0  0  0  0  0  0  0  0  0
  152.2193  144.1889  161.7416 C   0  0  0  0  0  0  0  0  0  0  0  0
  152.7378  142.9615  161.5243 N   0  0  0  0  0  0  0  0  0  0  0  0
  152.5258  142.3900  160.3195 C   0  0  0  0  0  0  0  0  0  0  0  0
  149.2097  138.0847  156.4498 C   0  0  0  0  0  0  0  0  0  0  0  0
  150.1360  136.8768  156.7719 C   0  0  0  0  0  0  0  0  0  0  0  0
  153.0063  132.0677  157.0969 H   0  0  0  0  0  0  0  0  0  0  0  0
  153.5909  133.7182  157.4142 H   0  0  0  0  0  0  0  0  0  0  0  0
  153.6117  133.0694  155.7564 H   0  0  0  0  0  0  0  0  0  0  0  0
  149.7929  135.6141  155.0540 H   0  0  0  0  0  0  0  0  0  0  0  0
  152.1109  137.5720  154.8080 H   0  0  0  0  0  0  0  0  0  0  0  0
  151.3429  136.6864  153.5198 H   0  0  0  0  0  0  0  0  0  0  0  0
  150.5936  139.0505  153.5232 H   0  0  0  0  0  0  0  0  0  0  0  0
  149.2396  138.0287  153.8353 H   0  0  0  0  0  0  0  0  0  0  0  0
  149.0682  140.2111  157.4713 H   0  0  0  0  0  0  0  0  0  0  0  0
  149.7602  142.7889  156.8601 H   0  0  0  0  0  0  0  0  0  0  0  0
  149.4744  142.2467  158.4898 H   0  0  0  0  0  0  0  0  0  0  0  0
  152.0734  141.3253  157.9942 H   0  0  0  0  0  0  0  0  0  0  0  0
  152.0544  142.8554  157.1605 H   0  0  0  0  0  0  0  0  0  0  0  0
  150.7253  144.8219  158.7477 H   0  0  0  0  0  0  0  0  0  0  0  0
  151.0962  145.8837  160.9863 H   0  0  0  0  0  0  0  0  0  0  0  0
  152.3911  144.6157  162.7187 H   0  0  0  0  0  0  0  0  0  0  0  0
  152.9402  141.4014  160.1883 H   0  0  0  0  0  0  0  0  0  0  0  0
  148.8910  138.5557  157.3806 H   0  0  0  0  0  0  0  0  0  0  0  0
  148.2859  137.7502  155.9728 H   0  0  0  0  0  0  0  0  0  0  0  0
  149.6057  136.1840  157.4253 H   0  0  0  0  0  0  0  0  0  0  0  0
  150.9898  137.2410  157.3461 H   0  0  0  0  0  0  0  0  0  0  0  0
  1  2  1  0  0  0  0
  1 23  1  0  0  0  0
  1 24  1  0  0  0  0
  1 25  1  0  0  0  0
  2  3  2  0  0  0  0
  2  4  2  0  0  0  0
  2  5  1  0  0  0  0
  5  6  1  0  0  0  0
  6 22  1  0  0  0  0
  6  7  1  0  0  0  0
  6 26  1  0  0  0  0
  7  8  1  0  0  0  0
  7 27  1  0  0  0  0
  7 28  1  0  0  0  0
  8  9  1  0  0  0  0
  8 29  1  0  0  0  0
  8 30  1  0  0  0  0
  9 10  1  0  0  0  0
  9 21  1  0  0  0  0
 10 11  2  0  0  0  0
 10 12  1  0  0  0  0
 12 13  1  0  0  0  0
 12 31  1  0  0  0  0
 13 14  1  0  0  0  0
 13 32  1  0  0  0  0
 13 33  1  0  0  0  0
 14 15  1  0  0  0  0
 14 34  1  0  0  0  0
 14 35  1  0  0  0  0
 15 20  1  0  0  0  0
 15 16  2  0  0  0  0
 16 17  1  0  0  0  0
 16 36  1  0  0  0  0
 17 18  2  0  0  0  0
 17 37  1  0  0  0  0
 18 19  1  0  0  0  0
 18 38  1  0  0  0  0
 19 20  2  0  0  0  0
 20 39  1  0  0  0  0
 21 22  1  0  0  0  0
 21 40  1  0  0  0  0
 21 41  1  0  0  0  0
 22 42  1  0  0  0  0
 22 43  1  0  0  0  0
M  CHG  1   5  -1
M  END
> <s_m_source_file>
AV-unprocessed.smi

> <i_m_source_file_index>
1610

> <i_lp_mmshare_version>
43012

> <i_f3d_flags>
0

> <s_epik_input>
W0NIM11TKD1PKSg9TylbTkhdW0NIXTFbQ0gyXVtDSDJdTihbQ0gyXVtDSDJdMSlDKD1PKVtOSF1bQ0gyXVtDSDJdYzJbY0hdW2NIXVtjSF1uW2NIXTI=

> <s_epik_cmdline>
J2VwaWtfcHl0aG9uJywgJy1waCcsICc3LjAnLCAnLXRuJywgJzgnLCAnLW1hJywgJzIwMCcsICctbWV0YWxfYmluZGluZycsICctaW1hZScsICc8aW5maWxlLm1hZT4nLCAnLW9tYWUnLCAnPG91dGZpbGUubWFlPic=

> <r_epik_Ionization_Penalty>
6.72257

> <r_epik_Ionization_Penalty_Charging>
6.70803

> <r_epik_Ionization_Penalty_Neutral>
0.0145361

> <r_epik_State_Penalty>
6.71933

> <r_epik_Charging_Adjusted_Penalty>
13.4274

> <i_epik_Tot_Q>
-1

> <i_epik_Tot_abs_Q>
1

> <r_epik_Metal_State_Penalty>
2.65475

> <b_epik_Metal_Only>
1

> <s_lp_Force_Field>
OPLS_2005

> <r_lp_Energy>
25.1746

> <b_lp_Chiralities_Consistent>
1

> <s_lp_Variant>
AV-unprocessed.smi:1610-3

> <Gold.Version>
5.8.1

> <Gold.Id.Protein>
6NUR|6NUR_protein|mol2

> <Gold.PLP.Fitness>
47.1366

> <Gold.PLP.PLP>
-37.9941

> <Gold.PLP.part.hbond>
-3.0000

> <Gold.PLP.part.metal>
0.0000

> <Gold.PLP.part.buried>
-3.9330

> <Gold.PLP.part.nonpolar>
-30.2213

> <Gold.PLP.part.repulsive>
0.1489

> <Gold.PLP.ligand.clash>
0.0000

> <Gold.PLP.ligand.torsion>
1.5093

> <Gold.PLP.Chemscore.Hbond>
3.6720

> <Gold.PLP.Chemscore.CHOScore>
0.0000

> <Gold.PLP.Chemscore.Metal>
0.0000

> <Gold.Chemscore.Hbonds>
donor molecule, donor type, donor heavy atom, donor atom, acceptor molecule, acceptor atom, score
      P1  H  6896  6909       L1     4  0.60
      P1  H  7989  7998       L1    11  0.75
      P1  H 10752 10763       L1     5  2.00

> <Gold.PLP.Chemscore.Internal.Correction>
1.1451

> <Gold.Rescore>
     Score         DG    S(hbond)    S(metal)    S(lipo)     H(rot)  DE(clash)    DE(int)     intcor
     17.92     -20.92       2.46        0.00      98.41       1.68       0.19       2.81       ----

> <Gold.Chemscore.Fitness>
17.9204

> <Gold.Chemscore.DG>
-20.9215

> <Gold.Chemscore.ZeroCoef>
-5.4800

> <Gold.Chemscore.Hbond>
2.4646

> <Gold.Chemscore.Metal>
0.0000

> <Gold.Chemscore.Lipo>
98.4089

> <Gold.Chemscore.Internal_Hbond>
0.0000

> <Gold.Chemscore.DEClash>
0.1931

> <Gold.Chemscore.DEInternal>
2.8080

> <Gold.Chemscore.Rot>
1.6813

> <Gold.Chemscore.Internal.Correction>
   9.000000E+99

> <Gold.Chemscore.Hbonds>
donor molecule, donor type, donor heavy atom, donor atom, acceptor molecule, acceptor atom, score
      P1  H  6896  6909       L1     4  0.58
      P1  H  7989  7998       L1    11  0.70
      P1  H 10752 10763       L1     5  0.83

> <Gold.Chemscore.Hbond.Weighted>
-8.2319

> <Gold.Chemscore.Metal.Weighted>
-0.0000

> <Gold.Chemscore.Lipo.Weighted>
-11.5138

> <Gold.Chemscore.Internal_Hbond.Weighted>
0.0000

> <Gold.Chemscore.DEClash.Weighted>
0.1931

> <Gold.Chemscore.DEInternal.Weighted>
2.8080

> <Gold.Chemscore.Rot.Weighted>
4.3042

> <Gold.Chemscore.Internal.Correction.Weighted>
   9.000000E+99

> <Gold.Protein.RotatedTorsions>
[ 6907 6896 6895 6894 ] final   -2.40 input  -60.11 | X-H torsion
[ 7974 7965 7964 7962 ] final   59.23 input  175.53 | X-H torsion
[ 8008 7997 7996 7995 ] final    1.85 input   59.86 | X-H torsion
[ 10167 10162 10161 10158 ] final  163.73 input  -65.29 | X-H torsion
[ 10718 10713 10712 10709 ] final   83.89 input   66.30 | X-H torsion
[ 10763 10752 10751 10750 ] final   84.91 input  -60.55 | X-H torsion
[ 11005 11000 10999 10996 ] final   82.17 input  -57.11 | X-H torsion

> <Gold.Protein.ActiveResidues>
 VAL166  LYS551  ARG553  GLY616  TRP617  ASP618  TYR619  PRO620  LYS621  CYS622 
 ASP623  PHE694  ASN695  SER759  ASP760  ASP761  ALA762  ILE779  LEU786  VAL792 
 PHE793  MET794  SER795  GLU796  ALA797  LYS798  CYS799  TRP800  GLU811  SER814 

> <Gold.Protein.RotatedAtoms>
  151.5306  135.1068  159.9901 H   0  0  0  0  0  0  0  0  0  0  0  0  # atno 6907 bound_to 6896
  152.4580  133.7759  159.6835 H   0  0  0  0  0  0  0  0  0  0  0  0  # atno 6908 bound_to 6896
  150.8531  133.7691  159.3043 H   0  0  0  0  0  0  0  0  0  0  0  0  # atno 6909 bound_to 6896
  145.9094  139.3642  143.0544 H   0  0  0  0  0  0  0  0  0  0  0  0  # atno 7974 bound_to 7965
  154.6846  140.2640  155.6873 H   0  0  0  0  0  0  0  0  0  0  0  0  # atno 8008 bound_to 7997
  156.2710  140.2803  156.1326 H   0  0  0  0  0  0  0  0  0  0  0  0  # atno 8009 bound_to 7997
  155.0982  140.0374  157.2679 H   0  0  0  0  0  0  0  0  0  0  0  0  # atno 8010 bound_to 7997
  139.4878  144.4308  151.9073 H   0  0  0  0  0  0  0  0  0  0  0  0  # atno 10167 bound_to 10162
  157.6888  131.0110  150.2591 H   0  0  0  0  0  0  0  0  0  0  0  0  # atno 10718 bound_to 10713
  153.1426  135.4636  154.9518 H   0  0  0  0  0  0  0  0  0  0  0  0  # atno 10763 bound_to 10752
  154.7759  135.3173  154.8094 H   0  0  0  0  0  0  0  0  0  0  0  0  # atno 10764 bound_to 10752
  153.8614  135.6912  153.4836 H   0  0  0  0  0  0  0  0  0  0  0  0  # atno 10765 bound_to 10752
  139.9073  134.8051  156.2139 H   0  0  0  0  0  0  0  0  0  0  0  0  # atno 11005 bound_to 11000
  145.8690  140.9431  143.0660 LP  0  0  0  0  0  0  0  0  0  0  0  0  # atno 17320 bound_to 7965
  144.6742  140.0630  143.7475 LP  0  0  0  0  0  0  0  0  0  0  0  0  # atno 17321 bound_to 7965
  140.3755  144.2802  150.5914 LP  0  0  0  0  0  0  0  0  0  0  0  0  # atno 17342 bound_to 10162
  140.5280  143.2250  151.8283 LP  0  0  0  0  0  0  0  0  0  0  0  0  # atno 17343 bound_to 10162
  156.3174  130.3781  149.7606 LP  0  0  0  0  0  0  0  0  0  0  0  0  # atno 17370 bound_to 10713
  156.5187  130.8205  151.3196 LP  0  0  0  0  0  0  0  0  0  0  0  0  # atno 17371 bound_to 10713
  141.0448  133.6919  156.1663 LP  0  0  0  0  0  0  0  0  0  0  0  0  # atno 17394 bound_to 11000
  140.6900  134.4675  157.5588 LP  0  0  0  0  0  0  0  0  0  0  0  0  # atno 17395 bound_to 11000

$$$$
