AV-unprocessed.smi:704|AV-procd|sdf|3445|dock3
  -GOLD-   22720 0433D 1   1.00000     0.00000
 Structure written by MMmdl.
 38 39  0  0  0  0  0  0  0  0  1 V2000
  151.7483  138.3434  154.4805 C   0  0  0  0  0  0  0  0  0  0  0  0
  150.3811  138.2301  154.1013 O   0  0  0  0  0  0  0  0  0  0  0  0
  149.5710  139.3447  154.2089 C   0  0  0  0  0  0  0  0  0  0  0  0
  150.1094  140.4882  154.7017 N   0  0  0  0  0  0  0  0  0  0  0  0
  149.3217  141.5785  154.8017 C   0  0  0  0  0  0  0  0  0  0  0  0
  147.9695  141.5897  154.4139 C   0  0  0  0  0  0  0  0  0  0  0  0
  147.4085  140.4048  153.9027 C   0  0  0  0  0  0  0  0  0  0  0  0
  148.2188  139.2474  153.8053 C   0  0  0  0  0  0  0  0  0  0  0  0
  147.7635  138.0029  153.2887 N   0  0  0  0  0  0  0  0  0  0  0  0
  146.5386  137.4563  153.3634 C   0  0  0  0  0  0  0  0  0  0  0  0
  145.5616  137.9646  153.9124 O   0  0  0  0  0  0  0  0  0  0  0  0
  146.5131  136.2528  152.7741 N   0  0  0  0  0  0  0  0  0  0  0  0
  145.3462  135.3769  152.6869 C   0  0  1  0  0  0  0  0  0  0  0  0
  144.2328  136.0427  151.8623 C   0  0  0  0  0  0  0  0  0  0  0  0
  144.2713  135.3615  150.4975 C   0  0  0  0  0  0  0  0  0  0  0  0
  144.6745  133.9240  150.8126 C   0  0  0  0  0  0  0  0  0  0  0  0
  145.6802  134.0381  151.9728 C   0  0  2  0  0  0  0  0  0  0  0  0
  145.6287  132.8316  152.9234 C   0  0  0  0  0  0  0  0  0  0  0  0
  145.3092  133.0744  154.1969 N   0  0  0  0  0  0  0  0  0  0  0  0
  145.8708  131.6969  152.5162 O   0  0  0  0  0  0  0  0  0  0  0  0
  152.2424  137.3828  154.3361 H   0  0  0  0  0  0  0  0  0  0  0  0
  151.8507  138.6130  155.5327 H   0  0  0  0  0  0  0  0  0  0  0  0
  152.2717  139.0795  153.8685 H   0  0  0  0  0  0  0  0  0  0  0  0
  149.7851  142.4704  155.1965 H   0  0  0  0  0  0  0  0  0  0  0  0
  147.3767  142.4880  154.5015 H   0  0  0  0  0  0  0  0  0  0  0  0
  146.3780  140.4139  153.5843 H   0  0  0  0  0  0  0  0  0  0  0  0
  148.4792  137.4265  152.8707 H   0  0  0  0  0  0  0  0  0  0  0  0
  147.3661  135.9118  152.3555 H   0  0  0  0  0  0  0  0  0  0  0  0
  144.9697  135.2172  153.6998 H   0  0  0  0  0  0  0  0  0  0  0  0
  143.2697  135.8401  152.3330 H   0  0  0  0  0  0  0  0  0  0  0  0
  144.3332  137.1264  151.7902 H   0  0  0  0  0  0  0  0  0  0  0  0
  143.3205  135.4252  149.9678 H   0  0  0  0  0  0  0  0  0  0  0  0
  145.0343  135.8302  149.8745 H   0  0  0  0  0  0  0  0  0  0  0  0
  143.7880  133.3586  151.1046 H   0  0  0  0  0  0  0  0  0  0  0  0
  145.1058  133.4270  149.9430 H   0  0  0  0  0  0  0  0  0  0  0  0
  146.6785  134.1010  151.5346 H   0  0  0  0  0  0  0  0  0  0  0  0
  145.2756  132.3165  154.8629 H   0  0  0  0  0  0  0  0  0  0  0  0
  145.1154  134.0201  154.4922 H   0  0  0  0  0  0  0  0  0  0  0  0
  1  2  1  0  0  0  0
  1 21  1  0  0  0  0
  1 22  1  0  0  0  0
  1 23  1  0  0  0  0
  2  3  1  0  0  0  0
  3  8  1  0  0  0  0
  3  4  2  0  0  0  0
  4  5  1  0  0  0  0
  5  6  2  0  0  0  0
  5 24  1  0  0  0  0
  6  7  1  0  0  0  0
  6 25  1  0  0  0  0
  7  8  2  0  0  0  0
  7 26  1  0  0  0  0
  8  9  1  0  0  0  0
  9 10  1  0  0  0  0
  9 27  1  0  0  0  0
 10 11  2  0  0  0  0
 10 12  1  0  0  0  0
 12 13  1  0  0  0  0
 12 28  1  0  0  0  0
 13 17  1  0  0  0  0
 13 14  1  0  0  0  0
 13 29  1  0  0  0  0
 14 15  1  0  0  0  0
 14 30  1  0  0  0  0
 14 31  1  0  0  0  0
 15 16  1  0  0  0  0
 15 32  1  0  0  0  0
 15 33  1  0  0  0  0
 16 17  1  0  0  0  0
 16 34  1  0  0  0  0
 16 35  1  0  0  0  0
 17 18  1  0  0  0  0
 17 36  1  0  0  0  0
 18 19  1  0  0  0  0
 18 20  2  0  0  0  0
 19 37  1  0  0  0  0
 19 38  1  0  0  0  0
M  END
> <s_m_source_file>
AV-unprocessed.smi

> <i_m_source_file_index>
704

> <i_lp_mmshare_version>
43012

> <i_f3d_flags>
0

> <s_epik_input>
W0NIM11PYzFuW2NIXVtjSF1bY0hdYzFbTkhdQyg9TylbTkhdW0NAQEhdMltDSDJdW0NIMl1bQ0gyXVtDQEhdMkMoPU8pW05IMl0=

> <s_epik_cmdline>
J2VwaWtfcHl0aG9uJywgJy1waCcsICc3LjAnLCAnLXRuJywgJzgnLCAnLW1hJywgJzIwMCcsICctbWV0YWxfYmluZGluZycsICctaW1hZScsICc8aW5maWxlLm1hZT4nLCAnLW9tYWUnLCAnPG91dGZpbGUubWFlPic=

> <r_lp_tautomer_probability>
1

> <r_epik_Ionization_Penalty>
9.09123e-05

> <r_epik_Ionization_Penalty_Charging>
0

> <r_epik_Ionization_Penalty_Neutral>
9.09123e-05

> <r_epik_State_Penalty>
-0

> <r_epik_Charging_Adjusted_Penalty>
0

> <i_epik_Tot_Q>
0

> <i_epik_Tot_abs_Q>
0

> <r_epik_Metal_State_Penalty>
-0

> <b_epik_Metal_Only>
0

> <s_lp_Force_Field>
OPLS_2005

> <r_lp_Energy>
17.389

> <b_lp_Chiralities_Consistent>
1

> <s_lp_Variant>
AV-unprocessed.smi:704-4

> <Gold.Version>
5.8.1

> <Gold.Id.Protein>
6NUR|6NUR_protein|mol2

> <Gold.PLP.Fitness>
42.1660

> <Gold.PLP.PLP>
-30.8183

> <Gold.PLP.part.hbond>
-4.0000

> <Gold.PLP.part.metal>
0.0000

> <Gold.PLP.part.buried>
-3.2974

> <Gold.PLP.part.nonpolar>
-24.5579

> <Gold.PLP.part.repulsive>
0.7029

> <Gold.PLP.ligand.clash>
0.0000

> <Gold.PLP.ligand.torsion>
0.2191

> <Gold.PLP.Chemscore.Hbond>
2.9200

> <Gold.PLP.Chemscore.CHOScore>
1.0000

> <Gold.PLP.Chemscore.Metal>
0.0000

> <Gold.Chemscore.Hbonds>
donor molecule, donor type, donor heavy atom, donor atom, acceptor molecule, acceptor atom, score
      L1  H     9    27       P1  7948  1.00
      L1  H    12    28       P1  7948  0.99
      P1  H  7989  7998       L1     4  0.93
      L1  C     5    24       P1  8028  1.00

> <Gold.PLP.Chemscore.Internal.Correction>
0.0258

> <Gold.Rescore>
     Score         DG    S(hbond)    S(metal)    S(lipo)     H(rot)  DE(clash)    DE(int)     intcor
     13.70     -15.43       2.30        0.00      60.17       1.86       0.73       1.00       ----

> <Gold.Chemscore.Fitness>
13.7019

> <Gold.Chemscore.DG>
-15.4295

> <Gold.Chemscore.ZeroCoef>
-5.4800

> <Gold.Chemscore.Hbond>
2.3003

> <Gold.Chemscore.Metal>
0.0000

> <Gold.Chemscore.Lipo>
60.1739

> <Gold.Chemscore.Internal_Hbond>
0.0000

> <Gold.Chemscore.DEClash>
0.7288

> <Gold.Chemscore.DEInternal>
0.9988

> <Gold.Chemscore.Rot>
1.8648

> <Gold.Chemscore.Internal.Correction>
   9.000000E+99

> <Gold.Chemscore.Hbonds>
donor molecule, donor type, donor heavy atom, donor atom, acceptor molecule, acceptor atom, score
      L1  H     9    27       P1  7948  0.95
      L1  H    12    28       P1  7948  0.93
      P1  H  7989  7998       L1     4  0.31

> <Gold.Chemscore.Hbond.Weighted>
-7.6831

> <Gold.Chemscore.Metal.Weighted>
-0.0000

> <Gold.Chemscore.Lipo.Weighted>
-7.0404

> <Gold.Chemscore.Internal_Hbond.Weighted>
0.0000

> <Gold.Chemscore.DEClash.Weighted>
0.7288

> <Gold.Chemscore.DEInternal.Weighted>
0.9988

> <Gold.Chemscore.Rot.Weighted>
4.7739

> <Gold.Chemscore.Internal.Correction.Weighted>
   9.000000E+99

> <Gold.Protein.RotatedTorsions>
[ 6907 6896 6895 6894 ] final  -80.23 input  -60.11 | X-H torsion
[ 7974 7965 7964 7962 ] final   17.55 input  175.53 | X-H torsion
[ 8008 7997 7996 7995 ] final  -46.75 input   59.86 | X-H torsion
[ 10167 10162 10161 10158 ] final  -49.21 input  -65.29 | X-H torsion
[ 10718 10713 10712 10709 ] final  -85.12 input   66.30 | X-H torsion
[ 10763 10752 10751 10750 ] final  -35.93 input  -60.55 | X-H torsion
[ 11005 11000 10999 10996 ] final  174.95 input  -57.11 | X-H torsion

> <Gold.Protein.ActiveResidues>
 VAL166  LYS551  ARG553  GLY616  TRP617  ASP618  TYR619  PRO620  LYS621  CYS622 
 ASP623  PHE694  ASN695  SER759  ASP760  ASP761  ALA762  ILE779  LEU786  VAL792 
 PHE793  MET794  SER795  GLU796  ALA797  LYS798  CYS799  TRP800  GLU811  SER814 

> <Gold.Protein.RotatedAtoms>
  150.6933  134.4002  159.5115 H   0  0  0  0  0  0  0  0  0  0  0  0  # atno 6907 bound_to 6896
  152.1776  134.8778  160.0538 H   0  0  0  0  0  0  0  0  0  0  0  0  # atno 6908 bound_to 6896
  151.9781  133.3713  159.4134 H   0  0  0  0  0  0  0  0  0  0  0  0  # atno 6909 bound_to 6896
  146.2214  139.8585  142.8609 H   0  0  0  0  0  0  0  0  0  0  0  0  # atno 7974 bound_to 7965
  154.4010  140.1363  156.4063 H   0  0  0  0  0  0  0  0  0  0  0  0  # atno 8008 bound_to 7997
  155.7776  140.3482  155.5260 H   0  0  0  0  0  0  0  0  0  0  0  0  # atno 8009 bound_to 7997
  155.8705  140.0971  157.1543 H   0  0  0  0  0  0  0  0  0  0  0  0  # atno 8010 bound_to 7997
  140.6695  143.2707  151.4182 H   0  0  0  0  0  0  0  0  0  0  0  0  # atno 10167 bound_to 10162
  155.9999  130.4720  150.4513 H   0  0  0  0  0  0  0  0  0  0  0  0  # atno 10718 bound_to 10713
  153.8714  135.6830  153.4774 H   0  0  0  0  0  0  0  0  0  0  0  0  # atno 10763 bound_to 10752
  153.1285  135.4708  154.9309 H   0  0  0  0  0  0  0  0  0  0  0  0  # atno 10764 bound_to 10752
  154.7712  135.3239  154.8135 H   0  0  0  0  0  0  0  0  0  0  0  0  # atno 10765 bound_to 10752
  140.3569  134.7147  157.4305 H   0  0  0  0  0  0  0  0  0  0  0  0  # atno 11005 bound_to 11000
  145.2728  141.0114  143.3762 LP  0  0  0  0  0  0  0  0  0  0  0  0  # atno 17320 bound_to 7965
  144.9210  139.4412  143.6541 LP  0  0  0  0  0  0  0  0  0  0  0  0  # atno 17321 bound_to 7965
  139.5958  144.1401  152.2142 LP  0  0  0  0  0  0  0  0  0  0  0  0  # atno 17342 bound_to 10162
  140.0769  144.5733  150.7150 LP  0  0  0  0  0  0  0  0  0  0  0  0  # atno 17343 bound_to 10162
  157.2546  131.0554  151.2358 LP  0  0  0  0  0  0  0  0  0  0  0  0  # atno 17370 bound_to 10713
  157.3495  130.7074  149.6431 LP  0  0  0  0  0  0  0  0  0  0  0  0  # atno 17371 bound_to 10713
  140.0658  134.5932  155.8697 LP  0  0  0  0  0  0  0  0  0  0  0  0  # atno 17394 bound_to 11000
  141.1996  133.6607  156.5851 LP  0  0  0  0  0  0  0  0  0  0  0  0  # atno 17395 bound_to 11000

$$$$
