AV-unprocessed.smi:2095|AV-procd|sdf|8557|dock5
  -GOLD-   2272011283D 1   1.00000     0.00000
 Structure written by MMmdl.
 42 43  0  0  0  0  0  0  0  0  2 V2000
  146.3029  132.2518  149.5960 C   0  0  0  0  0  0  0  0  0  0  0  0
  146.4790  133.4590  150.5279 C   0  0  1  0  0  0  0  0  0  0  0  0
  145.2216  134.3459  150.5426 C   0  0  0  0  0  0  0  0  0  0  0  0
  145.4127  135.5298  151.5001 C   0  0  0  0  0  0  0  0  0  0  0  0
  145.8017  135.0457  152.9063 C   0  0  0  0  0  0  0  0  0  0  0  0
  147.0211  134.1966  152.8532 N   0  3  1  0  0  0  0  0  0  0  0  0
  147.5955  133.8982  154.1974 C   0  0  2  0  0  0  0  0  0  0  0  0
  146.8828  132.6927  154.8404 C   0  0  0  0  0  0  0  0  0  0  0  0
  147.6401  135.1339  155.1333 C   0  0  0  0  0  0  0  0  0  0  0  0
  148.4675  136.2030  154.5872 N   0  0  0  0  0  0  0  0  0  0  0  0
  148.8718  137.2854  155.2693 C   0  0  0  0  0  0  0  0  0  0  0  0
  148.6371  137.4601  156.4648 O   0  0  0  0  0  0  0  0  0  0  0  0
  149.6304  138.3464  154.4734 C   0  0  0  0  0  0  0  0  0  0  0  0
  150.8768  138.6809  155.1355 N   0  0  0  0  0  0  0  0  0  0  0  0
  151.3316  139.8412  155.6127 C   0  0  0  0  0  0  0  0  0  0  0  0
  152.5486  139.7172  156.1196 N   0  0  0  0  0  0  0  0  0  0  0  0
  152.8352  138.3759  155.9276 N   0  0  0  0  0  0  0  0  0  0  0  0
  151.8471  137.7556  155.3436 N   0  0  0  0  0  0  0  0  0  0  0  0
  146.8344  133.0185  151.9620 C   0  0  0  0  0  0  0  0  0  0  0  0
  145.4815  131.6137  149.9237 H   0  0  0  0  0  0  0  0  0  0  0  0
  147.2065  131.6421  149.5669 H   0  0  0  0  0  0  0  0  0  0  0  0
  146.0892  132.5714  148.5757 H   0  0  0  0  0  0  0  0  0  0  0  0
  147.3086  134.0533  150.1416 H   0  0  0  0  0  0  0  0  0  0  0  0
  145.0051  134.7123  149.5384 H   0  0  0  0  0  0  0  0  0  0  0  0
  144.3557  133.7597  150.8535 H   0  0  0  0  0  0  0  0  0  0  0  0
  146.1883  136.1921  151.1129 H   0  0  0  0  0  0  0  0  0  0  0  0
  144.4977  136.1210  151.5490 H   0  0  0  0  0  0  0  0  0  0  0  0
  145.9767  135.9128  153.5442 H   0  0  0  0  0  0  0  0  0  0  0  0
  144.9766  134.4869  153.3495 H   0  0  0  0  0  0  0  0  0  0  0  0
  148.6220  133.5710  154.0261 H   0  0  0  0  0  0  0  0  0  0  0  0
  147.4170  132.3425  155.7242 H   0  0  0  0  0  0  0  0  0  0  0  0
  146.8277  131.8530  154.1470 H   0  0  0  0  0  0  0  0  0  0  0  0
  145.8672  132.9369  155.1514 H   0  0  0  0  0  0  0  0  0  0  0  0
  146.6384  135.5175  155.3300 H   0  0  0  0  0  0  0  0  0  0  0  0
  148.0647  134.8667  156.1011 H   0  0  0  0  0  0  0  0  0  0  0  0
  148.7081  136.1417  153.6081 H   0  0  0  0  0  0  0  0  0  0  0  0
  149.8516  137.9769  153.4710 H   0  0  0  0  0  0  0  0  0  0  0  0
  149.0238  139.2467  154.3617 H   0  0  0  0  0  0  0  0  0  0  0  0
  150.7798  140.7692  155.5800 H   0  0  0  0  0  0  0  0  0  0  0  0
  146.0434  132.3777  152.3540 H   0  0  0  0  0  0  0  0  0  0  0  0
  147.7453  132.4210  151.9368 H   0  0  0  0  0  0  0  0  0  0  0  0
  147.7162  134.7724  152.3999 H   0  0  0  0  0  0  0  0  0  0  0  0
  1  2  1  0  0  0  0
  1 20  1  0  0  0  0
  1 21  1  0  0  0  0
  1 22  1  0  0  0  0
  2 19  1  0  0  0  0
  2  3  1  0  0  0  0
  2 23  1  0  0  0  0
  3  4  1  0  0  0  0
  3 24  1  0  0  0  0
  3 25  1  0  0  0  0
  4  5  1  0  0  0  0
  4 26  1  0  0  0  0
  4 27  1  0  0  0  0
  5  6  1  0  0  0  0
  5 28  1  0  0  0  0
  5 29  1  0  0  0  0
  6  7  1  0  0  0  0
  6 19  1  0  0  0  0
  6 42  1  0  0  0  0
  7  8  1  0  0  0  0
  7  9  1  0  0  0  0
  7 30  1  0  0  0  0
  8 31  1  0  0  0  0
  8 32  1  0  0  0  0
  8 33  1  0  0  0  0
  9 10  1  0  0  0  0
  9 34  1  0  0  0  0
  9 35  1  0  0  0  0
 10 11  1  0  0  0  0
 10 36  1  0  0  0  0
 11 12  2  0  0  0  0
 11 13  1  0  0  0  0
 13 14  1  0  0  0  0
 13 37  1  0  0  0  0
 13 38  1  0  0  0  0
 14 18  1  0  0  0  0
 14 15  1  0  0  0  0
 15 16  2  0  0  0  0
 15 39  1  0  0  0  0
 16 17  1  0  0  0  0
 17 18  2  0  0  0  0
 19 40  1  0  0  0  0
 19 41  1  0  0  0  0
M  CHG  1   6   1
M  END
> <s_m_source_file>
AV-unprocessed.smi

> <i_m_source_file_index>
2095

> <i_lp_mmshare_version>
43012

> <i_f3d_flags>
0

> <s_epik_input>
W0NIM11bQ0BASF0xW0NIMl1bQ0gyXVtDSDJdTihbQ0gyXTEpW0NASF0oW0NIM10pW0NIMl1bTkhdQyg9TylbQ0gyXW4yW2NIXW5ubjI=

> <s_epik_cmdline>
J2VwaWtfcHl0aG9uJywgJy1waCcsICc3LjAnLCAnLXRuJywgJzgnLCAnLW1hJywgJzIwMCcsICctbWV0YWxfYmluZGluZycsICctaW1hZScsICc8aW5maWxlLm1hZT4nLCAnLW9tYWUnLCAnPG91dGZpbGUubWFlPic=

> <r_lp_tautomer_probability>
1

> <r_epik_Ionization_Penalty>
0.00268321

> <r_epik_Ionization_Penalty_Charging>
0.00267875

> <r_epik_Ionization_Penalty_Neutral>
4.46125e-06

> <r_epik_State_Penalty>
0.00186642

> <r_epik_Charging_Adjusted_Penalty>
0.00454517

> <i_epik_Tot_Q>
1

> <i_epik_Tot_abs_Q>
1

> <r_epik_Metal_State_Penalty>
-0

> <b_epik_Metal_Only>
0

> <s_lp_Force_Field>
OPLS_2005

> <r_lp_Energy>
21.2581

> <b_lp_Chiralities_Consistent>
1

> <s_lp_Variant>
AV-unprocessed.smi:2095-4

> <Gold.Version>
5.8.1

> <Gold.Id.Protein>
6NUR|6NUR_protein|mol2

> <Gold.PLP.Fitness>
44.1719

> <Gold.PLP.PLP>
-30.6663

> <Gold.PLP.part.hbond>
-4.9113

> <Gold.PLP.part.metal>
0.0000

> <Gold.PLP.part.buried>
-2.1947

> <Gold.PLP.part.nonpolar>
-23.9412

> <Gold.PLP.part.repulsive>
0.1030

> <Gold.PLP.ligand.clash>
0.0000

> <Gold.PLP.ligand.torsion>
0.3878

> <Gold.PLP.Chemscore.Hbond>
4.7200

> <Gold.PLP.Chemscore.CHOScore>
0.0000

> <Gold.PLP.Chemscore.Metal>
0.0000

> <Gold.Chemscore.Hbonds>
donor molecule, donor type, donor heavy atom, donor atom, acceptor molecule, acceptor atom, score
      L1  H     6    42       P1  7948  2.00
      L1  H    10    36       P1  7948  1.00
      P1  H  7997  8009       L1    16  0.60

> <Gold.PLP.Chemscore.Internal.Correction>
0.1212

> <Gold.Rescore>
     Score         DG    S(hbond)    S(metal)    S(lipo)     H(rot)  DE(clash)    DE(int)     intcor
     14.83     -15.29       3.08        0.00      53.86       2.64       0.20       0.25       ----

> <Gold.Chemscore.Fitness>
14.8332

> <Gold.Chemscore.DG>
-15.2871

> <Gold.Chemscore.ZeroCoef>
-5.4800

> <Gold.Chemscore.Hbond>
3.0762

> <Gold.Chemscore.Metal>
0.0000

> <Gold.Chemscore.Lipo>
53.8558

> <Gold.Chemscore.Internal_Hbond>
0.0000

> <Gold.Chemscore.DEClash>
0.1996

> <Gold.Chemscore.DEInternal>
0.2543

> <Gold.Chemscore.Rot>
2.6439

> <Gold.Chemscore.Internal.Correction>
   9.000000E+99

> <Gold.Chemscore.Hbonds>
donor molecule, donor type, donor heavy atom, donor atom, acceptor molecule, acceptor atom, score
      L1  H     6    42       P1  7948  0.81
      L1  H    10    36       P1  7948  1.00
      P1  H  7997  8009       L1    16  0.04

> <Gold.Chemscore.Hbond.Weighted>
-10.2745

> <Gold.Chemscore.Metal.Weighted>
-0.0000

> <Gold.Chemscore.Lipo.Weighted>
-6.3011

> <Gold.Chemscore.Internal_Hbond.Weighted>
0.0000

> <Gold.Chemscore.DEClash.Weighted>
0.1996

> <Gold.Chemscore.DEInternal.Weighted>
0.2543

> <Gold.Chemscore.Rot.Weighted>
6.7685

> <Gold.Chemscore.Internal.Correction.Weighted>
   9.000000E+99

> <Gold.Protein.RotatedTorsions>
[ 6907 6896 6895 6894 ] final  126.70 input  -60.11 | X-H torsion
[ 7974 7965 7964 7962 ] final   66.77 input  175.53 | X-H torsion
[ 8008 7997 7996 7995 ] final -140.15 input   59.86 | X-H torsion
[ 10167 10162 10161 10158 ] final  -58.14 input  -65.29 | X-H torsion
[ 10718 10713 10712 10709 ] final -177.05 input   66.30 | X-H torsion
[ 10763 10752 10751 10750 ] final   54.68 input  -60.55 | X-H torsion
[ 11005 11000 10999 10996 ] final  119.45 input  -57.11 | X-H torsion

> <Gold.Protein.ActiveResidues>
 VAL166  LYS551  ARG553  GLY616  TRP617  ASP618  TYR619  PRO620  LYS621  CYS622 
 ASP623  PHE694  ASN695  SER759  ASP760  ASP761  ALA762  ILE779  LEU786  VAL792 
 PHE793  MET794  SER795  GLU796  ALA797  LYS798  CYS799  TRP800  GLU811  SER814 

> <Gold.Protein.RotatedAtoms>
  152.3880  133.6638  159.6214 H   0  0  0  0  0  0  0  0  0  0  0  0  # atno 6907 bound_to 6896
  150.7795  133.9002  159.3348 H   0  0  0  0  0  0  0  0  0  0  0  0  # atno 6908 bound_to 6896
  151.6795  135.0965  160.0264 H   0  0  0  0  0  0  0  0  0  0  0  0  # atno 6909 bound_to 6896
  145.8227  139.3094  143.1034 H   0  0  0  0  0  0  0  0  0  0  0  0  # atno 7974 bound_to 7965
  155.4566  140.0542  157.2995 H   0  0  0  0  0  0  0  0  0  0  0  0  # atno 8008 bound_to 7997
  154.4755  140.2059  155.9844 H   0  0  0  0  0  0  0  0  0  0  0  0  # atno 8009 bound_to 7997
  156.1125  140.3202  155.8097 H   0  0  0  0  0  0  0  0  0  0  0  0  # atno 8010 bound_to 7997
  140.6216  143.2421  151.5467 H   0  0  0  0  0  0  0  0  0  0  0  0  # atno 10167 bound_to 10162
  156.8237  130.9629  151.3110 H   0  0  0  0  0  0  0  0  0  0  0  0  # atno 10718 bound_to 10713
  152.9807  135.5737  154.4943 H   0  0  0  0  0  0  0  0  0  0  0  0  # atno 10763 bound_to 10752
  154.4473  135.2777  155.1808 H   0  0  0  0  0  0  0  0  0  0  0  0  # atno 10764 bound_to 10752
  154.3451  135.6221  153.5669 H   0  0  0  0  0  0  0  0  0  0  0  0  # atno 10765 bound_to 10752
  139.9147  134.9628  156.7657 H   0  0  0  0  0  0  0  0  0  0  0  0  # atno 11005 bound_to 11000
  145.9657  140.8800  143.0188 LP  0  0  0  0  0  0  0  0  0  0  0  0  # atno 17320 bound_to 7965
  144.6746  140.1875  143.7400 LP  0  0  0  0  0  0  0  0  0  0  0  0  # atno 17321 bound_to 7965
  139.5443  144.2563  152.1412 LP  0  0  0  0  0  0  0  0  0  0  0  0  # atno 17342 bound_to 10162
  140.1784  144.4868  150.6541 LP  0  0  0  0  0  0  0  0  0  0  0  0  # atno 17343 bound_to 10162
  157.6443  130.8831  149.9508 LP  0  0  0  0  0  0  0  0  0  0  0  0  # atno 17370 bound_to 10713
  156.0974  130.3658  150.0281 LP  0  0  0  0  0  0  0  0  0  0  0  0  # atno 17371 bound_to 10713
  140.6661  133.9601  155.7831 LP  0  0  0  0  0  0  0  0  0  0  0  0  # atno 17394 bound_to 11000
  141.0609  134.0347  157.3659 LP  0  0  0  0  0  0  0  0  0  0  0  0  # atno 17395 bound_to 11000

$$$$
