AV-unprocessed.smi:2049|AV-procd|sdf|8322|dock9
  -GOLD-   2272010583D 1   1.00000     0.00000
 Structure written by MMmdl.
 51 53  0  0  0  0  0  0  0  0  2 V2000
  149.3251  136.8753  156.3792 O   0  0  0  0  0  0  0  0  0  0  0  0
  149.2768  137.0423  155.1611 C   0  0  0  0  0  0  0  0  0  0  0  0
  150.1003  138.1529  154.5013 C   0  0  0  0  0  0  0  0  0  0  0  0
  150.8317  138.9423  155.5043 N   0  0  0  0  0  0  0  0  0  0  0  0
  150.0964  139.8516  156.2832 C   0  0  0  0  0  0  0  0  0  0  0  0
  150.7024  140.6165  157.2026 C   0  0  0  0  0  0  0  0  0  0  0  0
  152.1549  140.4461  157.3401 C   0  0  0  0  0  0  0  0  0  0  0  0
  152.8282  139.6187  156.6309 N   0  0  0  0  0  0  0  0  0  0  0  0
  152.1903  138.8175  155.6660 C   0  0  0  0  0  0  0  0  0  0  0  0
  152.8328  138.0241  154.9767 O   0  0  0  0  0  0  0  0  0  0  0  0
  148.5131  136.3077  154.3401 N   0  0  0  0  0  0  0  0  0  0  0  0
  147.5402  135.2985  154.7536 C   0  0  0  0  0  0  0  0  0  0  0  0
  147.6877  133.9430  153.9808 C   0  0  0  0  0  0  0  0  0  0  0  0
  147.0745  134.1063  152.6050 N   0  3  0  0  0  0  0  0  0  0  0  0
  146.8485  132.8337  151.8606 C   0  0  0  0  0  0  0  0  0  0  0  0
  146.4332  133.1160  150.4099 C   0  0  0  0  0  0  0  0  0  0  0  0
  145.2385  133.8816  150.4123 O   0  0  0  0  0  0  0  0  0  0  0  0
  145.4357  135.1463  151.0256 C   0  0  0  0  0  0  0  0  0  0  0  0
  145.8639  134.9714  152.4945 C   0  0  0  0  0  0  0  0  0  0  0  0
  149.1957  133.5627  153.8879 C   0  0  0  0  0  0  0  0  0  0  0  0
  149.8417  133.2575  155.2541 C   0  0  0  0  0  0  0  0  0  0  0  0
  149.0861  132.1573  156.0116 C   0  0  0  0  0  0  0  0  0  0  0  0
  147.5968  132.4981  156.1528 C   0  0  0  0  0  0  0  0  0  0  0  0
  146.9757  132.7983  154.7762 C   0  0  0  0  0  0  0  0  0  0  0  0
  150.7856  137.6944  153.7869 H   0  0  0  0  0  0  0  0  0  0  0  0
  149.4572  138.8062  153.9080 H   0  0  0  0  0  0  0  0  0  0  0  0
  149.0355  139.8890  156.0829 H   0  0  0  0  0  0  0  0  0  0  0  0
  150.1991  141.3365  157.8311 H   0  0  0  0  0  0  0  0  0  0  0  0
  152.6302  141.0782  158.0947 H   0  0  0  0  0  0  0  0  0  0  0  0
  148.5705  136.5026  153.3511 H   0  0  0  0  0  0  0  0  0  0  0  0
  147.6894  135.1404  155.8209 H   0  0  0  0  0  0  0  0  0  0  0  0
  146.5333  135.7079  154.6925 H   0  0  0  0  0  0  0  0  0  0  0  0
  147.7443  132.2160  151.8439 H   0  0  0  0  0  0  0  0  0  0  0  0
  146.0639  132.2490  152.3419 H   0  0  0  0  0  0  0  0  0  0  0  0
  147.2241  133.6382  149.8684 H   0  0  0  0  0  0  0  0  0  0  0  0
  146.2495  132.1794  149.8830 H   0  0  0  0  0  0  0  0  0  0  0  0
  146.1804  135.7171  150.4691 H   0  0  0  0  0  0  0  0  0  0  0  0
  144.5047  135.7112  150.9727 H   0  0  0  0  0  0  0  0  0  0  0  0
  145.0445  134.5461  153.0748 H   0  0  0  0  0  0  0  0  0  0  0  0
  146.0520  135.9746  152.8711 H   0  0  0  0  0  0  0  0  0  0  0  0
  149.3181  132.6882  153.2483 H   0  0  0  0  0  0  0  0  0  0  0  0
  149.7697  134.3618  153.4189 H   0  0  0  0  0  0  0  0  0  0  0  0
  150.8779  132.9511  155.1074 H   0  0  0  0  0  0  0  0  0  0  0  0
  149.8811  134.1615  155.8617 H   0  0  0  0  0  0  0  0  0  0  0  0
  149.1927  131.2121  155.4777 H   0  0  0  0  0  0  0  0  0  0  0  0
  149.5307  132.0074  156.9958 H   0  0  0  0  0  0  0  0  0  0  0  0
  147.0760  131.6559  156.6094 H   0  0  0  0  0  0  0  0  0  0  0  0
  147.4617  133.3318  156.8401 H   0  0  0  0  0  0  0  0  0  0  0  0
  145.9093  132.9970  154.8797 H   0  0  0  0  0  0  0  0  0  0  0  0
  147.0536  131.8563  154.2358 H   0  0  0  0  0  0  0  0  0  0  0  0
  147.7812  134.6004  152.0786 H   0  0  0  0  0  0  0  0  0  0  0  0
  1  2  2  0  0  0  0
  2  3  1  0  0  0  0
  2 11  1  0  0  0  0
  3  4  1  0  0  0  0
  3 25  1  0  0  0  0
  3 26  1  0  0  0  0
  4  9  1  0  0  0  0
  4  5  1  0  0  0  0
  5  6  2  0  0  0  0
  5 27  1  0  0  0  0
  6  7  1  0  0  0  0
  6 28  1  0  0  0  0
  7  8  2  0  0  0  0
  7 29  1  0  0  0  0
  8  9  1  0  0  0  0
  9 10  2  0  0  0  0
 11 12  1  0  0  0  0
 11 30  1  0  0  0  0
 12 13  1  0  0  0  0
 12 31  1  0  0  0  0
 12 32  1  0  0  0  0
 13 24  1  0  0  0  0
 13 14  1  0  0  0  0
 13 20  1  0  0  0  0
 14 19  1  0  0  0  0
 14 15  1  0  0  0  0
 14 51  1  0  0  0  0
 15 16  1  0  0  0  0
 15 33  1  0  0  0  0
 15 34  1  0  0  0  0
 16 17  1  0  0  0  0
 16 35  1  0  0  0  0
 16 36  1  0  0  0  0
 17 18  1  0  0  0  0
 18 19  1  0  0  0  0
 18 37  1  0  0  0  0
 18 38  1  0  0  0  0
 19 39  1  0  0  0  0
 19 40  1  0  0  0  0
 20 21  1  0  0  0  0
 20 41  1  0  0  0  0
 20 42  1  0  0  0  0
 21 22  1  0  0  0  0
 21 43  1  0  0  0  0
 21 44  1  0  0  0  0
 22 23  1  0  0  0  0
 22 45  1  0  0  0  0
 22 46  1  0  0  0  0
 23 24  1  0  0  0  0
 23 47  1  0  0  0  0
 23 48  1  0  0  0  0
 24 49  1  0  0  0  0
 24 50  1  0  0  0  0
M  CHG  1  14   1
M  END
> <s_m_source_file>
AV-unprocessed.smi

> <i_m_source_file_index>
2049

> <i_lp_mmshare_version>
43012

> <i_f3d_flags>
0

> <s_epik_input>
Tz1jMW5bY0hdW2NIXVtjSF1uMVtDSDJdQyg9TylbTkhdW0NIMl1DMihbQ0gyXVtDSDJdW0NIMl1bQ0gyXVtDSDJdMilOM1tDSDJdW0NIMl1PW0NIMl1bQ0gyXTM=

> <s_epik_cmdline>
J2VwaWtfcHl0aG9uJywgJy1waCcsICc3LjAnLCAnLXRuJywgJzgnLCAnLW1hJywgJzIwMCcsICctbWV0YWxfYmluZGluZycsICctaW1hZScsICc8aW5maWxlLm1hZT4nLCAnLW9tYWUnLCAnPG91dGZpbGUubWFlPic=

> <r_lp_tautomer_probability>
1

> <r_epik_Ionization_Penalty>
0.40042

> <r_epik_Ionization_Penalty_Charging>
0.400415

> <r_epik_Ionization_Penalty_Neutral>
5.09538e-06

> <r_epik_State_Penalty>
0.399732

> <r_epik_Charging_Adjusted_Penalty>
0.800147

> <i_epik_Tot_Q>
1

> <i_epik_Tot_abs_Q>
1

> <r_epik_Metal_State_Penalty>
0.399734

> <b_epik_Metal_Only>
0

> <s_lp_Force_Field>
OPLS_2005

> <r_lp_Energy>
43.1449

> <b_lp_Chiralities_Consistent>
1

> <s_lp_Variant>
AV-unprocessed.smi:2049-1

> <Gold.Version>
5.8.1

> <Gold.Id.Protein>
6NUR|6NUR_protein|mol2

> <Gold.PLP.Fitness>
42.6892

> <Gold.PLP.PLP>
-32.5489

> <Gold.PLP.part.hbond>
-3.6145

> <Gold.PLP.part.metal>
0.0000

> <Gold.PLP.part.buried>
-3.4333

> <Gold.PLP.part.nonpolar>
-25.4678

> <Gold.PLP.part.repulsive>
0.2206

> <Gold.PLP.ligand.clash>
0.0000

> <Gold.PLP.ligand.torsion>
0.9966

> <Gold.PLP.Chemscore.Hbond>
4.0000

> <Gold.PLP.Chemscore.CHOScore>
0.0000

> <Gold.PLP.Chemscore.Metal>
0.0000

> <Gold.Chemscore.Hbonds>
donor molecule, donor type, donor heavy atom, donor atom, acceptor molecule, acceptor atom, score
      L1  H    11    30       P1  7948  1.00
      L1  H    14    51       P1  7948  2.00
      P1  H  7997  8008       L1     8  1.00

> <Gold.PLP.Chemscore.Internal.Correction>
0.1335

> <Gold.Rescore>
     Score         DG    S(hbond)    S(metal)    S(lipo)     H(rot)  DE(clash)    DE(int)     intcor
     17.19     -17.82       2.78        0.00      70.19       2.02       0.01       0.61       ----

> <Gold.Chemscore.Fitness>
17.1899

> <Gold.Chemscore.DG>
-17.8154

> <Gold.Chemscore.ZeroCoef>
-5.4800

> <Gold.Chemscore.Hbond>
2.7799

> <Gold.Chemscore.Metal>
0.0000

> <Gold.Chemscore.Lipo>
70.1874

> <Gold.Chemscore.Internal_Hbond>
0.0000

> <Gold.Chemscore.DEClash>
0.0136

> <Gold.Chemscore.DEInternal>
0.6119

> <Gold.Chemscore.Rot>
2.0162

> <Gold.Chemscore.Internal.Correction>
   9.000000E+99

> <Gold.Chemscore.Hbonds>
donor molecule, donor type, donor heavy atom, donor atom, acceptor molecule, acceptor atom, score
      L1  H    11    30       P1  7948  0.95
      L1  H    14    51       P1  7948  0.42
      P1  H  7997  8008       L1     8  0.79

> <Gold.Chemscore.Hbond.Weighted>
-9.2849

> <Gold.Chemscore.Metal.Weighted>
-0.0000

> <Gold.Chemscore.Lipo.Weighted>
-8.2119

> <Gold.Chemscore.Internal_Hbond.Weighted>
0.0000

> <Gold.Chemscore.DEClash.Weighted>
0.0136

> <Gold.Chemscore.DEInternal.Weighted>
0.6119

> <Gold.Chemscore.Rot.Weighted>
5.1614

> <Gold.Chemscore.Internal.Correction.Weighted>
   9.000000E+99

> <Gold.Protein.RotatedTorsions>
[ 6907 6896 6895 6894 ] final -161.22 input  -60.11 | X-H torsion
[ 7974 7965 7964 7962 ] final  -43.32 input  175.53 | X-H torsion
[ 8008 7997 7996 7995 ] final  -33.39 input   59.86 | X-H torsion
[ 10167 10162 10161 10158 ] final   24.00 input  -65.29 | X-H torsion
[ 10718 10713 10712 10709 ] final -151.54 input   66.30 | X-H torsion
[ 10763 10752 10751 10750 ] final -157.36 input  -60.55 | X-H torsion
[ 11005 11000 10999 10996 ] final   54.32 input  -57.11 | X-H torsion

> <Gold.Protein.ActiveResidues>
 VAL166  LYS551  ARG553  GLY616  TRP617  ASP618  TYR619  PRO620  LYS621  CYS622 
 ASP623  PHE694  ASN695  SER759  ASP760  ASP761  ALA762  ILE779  LEU786  VAL792 
 PHE793  MET794  SER795  GLU796  ALA797  LYS798  CYS799  TRP800  GLU811  SER814 

> <Gold.Protein.RotatedAtoms>
  151.3613  133.3888  159.2689 H   0  0  0  0  0  0  0  0  0  0  0  0  # atno 6907 bound_to 6896
  150.9723  134.9095  159.7806 H   0  0  0  0  0  0  0  0  0  0  0  0  # atno 6908 bound_to 6896
  152.5189  134.3575  159.9325 H   0  0  0  0  0  0  0  0  0  0  0  0  # atno 6909 bound_to 6896
  146.0030  140.7052  142.9261 H   0  0  0  0  0  0  0  0  0  0  0  0  # atno 7974 bound_to 7965
  154.4150  140.1712  156.1881 H   0  0  0  0  0  0  0  0  0  0  0  0  # atno 8008 bound_to 7997
  155.9626  140.3392  155.6480 H   0  0  0  0  0  0  0  0  0  0  0  0  # atno 8009 bound_to 7997
  155.6729  140.0713  157.2504 H   0  0  0  0  0  0  0  0  0  0  0  0  # atno 8010 bound_to 7997
  140.5224  143.9980  150.6423 H   0  0  0  0  0  0  0  0  0  0  0  0  # atno 10167 bound_to 10162
  156.4606  130.8211  151.2442 H   0  0  0  0  0  0  0  0  0  0  0  0  # atno 10718 bound_to 10713
  154.7642  135.3126  154.8319 H   0  0  0  0  0  0  0  0  0  0  0  0  # atno 10763 bound_to 10752
  153.9071  135.6809  153.4757 H   0  0  0  0  0  0  0  0  0  0  0  0  # atno 10764 bound_to 10752
  153.1246  135.4807  154.9184 H   0  0  0  0  0  0  0  0  0  0  0  0  # atno 10765 bound_to 10752
  140.0696  134.5488  155.9061 H   0  0  0  0  0  0  0  0  0  0  0  0  # atno 11005 bound_to 11000
  144.6926  140.3267  143.7223 LP  0  0  0  0  0  0  0  0  0  0  0  0  # atno 17320 bound_to 7965
  145.7458  139.1778  143.2350 LP  0  0  0  0  0  0  0  0  0  0  0  0  # atno 17321 bound_to 7965
  140.3333  143.3064  152.0665 LP  0  0  0  0  0  0  0  0  0  0  0  0  # atno 17342 bound_to 10162
  139.4927  144.6494  151.6709 LP  0  0  0  0  0  0  0  0  0  0  0  0  # atno 17343 bound_to 10162
  157.7498  131.0108  150.3321 LP  0  0  0  0  0  0  0  0  0  0  0  0  # atno 17370 bound_to 10713
  156.3720  130.3865  149.7168 LP  0  0  0  0  0  0  0  0  0  0  0  0  # atno 17371 bound_to 10713
  141.2006  133.6614  156.5908 LP  0  0  0  0  0  0  0  0  0  0  0  0  # atno 17394 bound_to 11000
  140.3647  134.7657  157.4558 LP  0  0  0  0  0  0  0  0  0  0  0  0  # atno 17395 bound_to 11000

$$$$
