AV-unprocessed.smi:741|AV-procd|sdf|3555|dock7
  -GOLD-   22720 0553D 1   1.00000     0.00000
 Structure written by MMmdl.
 42 43  0  0  0  0  0  0  0  0  2 V2000
  145.1226  136.5134  155.5489 C   0  0  0  0  0  0  0  0  0  0  0  0
  146.0549  137.6671  155.1509 C   0  0  0  0  0  0  0  0  0  0  0  0
  145.9920  138.0294  153.6546 C   0  0  1  0  0  0  0  0  0  0  0  0
  146.8827  139.2521  153.3402 C   0  0  0  0  0  0  0  0  0  0  0  0
  146.3090  140.5277  153.8342 N   0  3  0  0  0  0  0  0  0  0  0  0
  146.3181  140.6928  155.3023 C   0  0  0  0  0  0  0  0  0  0  0  0
  146.1767  142.1947  155.5208 C   0  0  0  0  0  0  0  0  0  0  0  0
  146.9978  142.7871  154.3789 C   0  0  0  0  0  0  0  0  0  0  0  0
  146.9193  141.7459  153.2529 C   0  0  0  0  0  0  0  0  0  0  0  0
  146.3933  136.8729  152.8498 N   0  0  0  0  0  0  0  0  0  0  0  0
  145.5689  136.0024  152.2488 C   0  0  0  0  0  0  0  0  0  0  0  0
  144.3432  136.1051  152.2723 O   0  0  0  0  0  0  0  0  0  0  0  0
  146.2591  135.0432  151.6081 N   0  0  0  0  0  0  0  0  0  0  0  0
  145.7637  133.9446  150.8544 C   0  0  0  0  0  0  0  0  0  0  0  0
  144.3754  133.8882  150.6125 C   0  0  0  0  0  0  0  0  0  0  0  0
  143.8605  132.8176  149.8544 C   0  0  0  0  0  0  0  0  0  0  0  0
  144.6311  131.8387  149.3355 N   0  0  0  0  0  0  0  0  0  0  0  0
  145.9615  131.9017  149.5552 C   0  0  0  0  0  0  0  0  0  0  0  0
  146.5779  132.9276  150.2996 C   0  0  0  0  0  0  0  0  0  0  0  0
  145.1704  136.3318  156.6226 H   0  0  0  0  0  0  0  0  0  0  0  0
  145.3942  135.5846  155.0470 H   0  0  0  0  0  0  0  0  0  0  0  0
  144.0862  136.7402  155.2973 H   0  0  0  0  0  0  0  0  0  0  0  0
  145.7890  138.5436  155.7430 H   0  0  0  0  0  0  0  0  0  0  0  0
  147.0791  137.4146  155.4288 H   0  0  0  0  0  0  0  0  0  0  0  0
  144.9547  138.2855  153.4319 H   0  0  0  0  0  0  0  0  0  0  0  0
  147.8829  139.1203  153.7558 H   0  0  0  0  0  0  0  0  0  0  0  0
  147.0087  139.3199  152.2583 H   0  0  0  0  0  0  0  0  0  0  0  0
  145.5230  140.1264  155.7868 H   0  0  0  0  0  0  0  0  0  0  0  0
  147.2714  140.3518  155.7095 H   0  0  0  0  0  0  0  0  0  0  0  0
  145.1306  142.4868  155.4177 H   0  0  0  0  0  0  0  0  0  0  0  0
  146.5215  142.5158  156.5043 H   0  0  0  0  0  0  0  0  0  0  0  0
  146.6324  143.7671  154.0703 H   0  0  0  0  0  0  0  0  0  0  0  0
  148.0346  142.9060  154.6964 H   0  0  0  0  0  0  0  0  0  0  0  0
  147.9166  141.5468  152.8576 H   0  0  0  0  0  0  0  0  0  0  0  0
  146.2987  142.0958  152.4276 H   0  0  0  0  0  0  0  0  0  0  0  0
  147.3865  136.7069  152.7704 H   0  0  0  0  0  0  0  0  0  0  0  0
  147.2641  135.1387  151.6170 H   0  0  0  0  0  0  0  0  0  0  0  0
  143.7112  134.6461  151.0020 H   0  0  0  0  0  0  0  0  0  0  0  0
  142.8006  132.7472  149.6587 H   0  0  0  0  0  0  0  0  0  0  0  0
  146.5560  131.1123  149.1197 H   0  0  0  0  0  0  0  0  0  0  0  0
  147.6505  132.9184  150.4146 H   0  0  0  0  0  0  0  0  0  0  0  0
  145.3386  140.5471  153.5538 H   0  0  0  0  0  0  0  0  0  0  0  0
  1  2  1  0  0  0  0
  1 20  1  0  0  0  0
  1 21  1  0  0  0  0
  1 22  1  0  0  0  0
  2  3  1  0  0  0  0
  2 23  1  0  0  0  0
  2 24  1  0  0  0  0
  3  4  1  0  0  0  0
  3 10  1  0  0  0  0
  3 25  1  0  0  0  0
  4  5  1  0  0  0  0
  4 26  1  0  0  0  0
  4 27  1  0  0  0  0
  5  9  1  0  0  0  0
  5  6  1  0  0  0  0
  5 42  1  0  0  0  0
  6  7  1  0  0  0  0
  6 28  1  0  0  0  0
  6 29  1  0  0  0  0
  7  8  1  0  0  0  0
  7 30  1  0  0  0  0
  7 31  1  0  0  0  0
  8  9  1  0  0  0  0
  8 32  1  0  0  0  0
  8 33  1  0  0  0  0
  9 34  1  0  0  0  0
  9 35  1  0  0  0  0
 10 11  1  0  0  0  0
 10 36  1  0  0  0  0
 11 12  2  0  0  0  0
 11 13  1  0  0  0  0
 13 14  1  0  0  0  0
 13 37  1  0  0  0  0
 14 19  1  0  0  0  0
 14 15  2  0  0  0  0
 15 16  1  0  0  0  0
 15 38  1  0  0  0  0
 16 17  2  0  0  0  0
 16 39  1  0  0  0  0
 17 18  1  0  0  0  0
 18 19  2  0  0  0  0
 18 40  1  0  0  0  0
 19 41  1  0  0  0  0
M  CHG  1   5   1
M  END
> <s_m_source_file>
AV-unprocessed.smi

> <i_m_source_file_index>
741

> <i_lp_mmshare_version>
43012

> <i_f3d_flags>
0

> <s_epik_input>
W0NIMl0xW0NIMl1bQ0gyXVtDSDJdTjFbQ0gyXVtDQEBIXShbQ0gyXVtDSDNdKVtOSF1DKD1PKVtOSF1jMltjSF1bY0hdbltjSF1bY0hdMg==

> <s_epik_cmdline>
J2VwaWtfcHl0aG9uJywgJy1waCcsICc3LjAnLCAnLXRuJywgJzgnLCAnLW1hJywgJzIwMCcsICctbWV0YWxfYmluZGluZycsICctaW1hZScsICc8aW5maWxlLm1hZT4nLCAnLW9tYWUnLCAnPG91dGZpbGUubWFlPic=

> <r_epik_Ionization_Penalty>
0.101421

> <r_epik_Ionization_Penalty_Charging>
0.00180027

> <r_epik_Ionization_Penalty_Neutral>
0.0996204

> <r_epik_State_Penalty>
0.0910414

> <r_epik_Charging_Adjusted_Penalty>
0.0928416

> <i_epik_Tot_Q>
1

> <i_epik_Tot_abs_Q>
1

> <r_epik_Metal_State_Penalty>
0.076772

> <b_epik_Metal_Only>
0

> <s_lp_Force_Field>
OPLS_2005

> <r_lp_Energy>
40.7955

> <b_lp_Chiralities_Consistent>
1

> <s_lp_Variant>
AV-unprocessed.smi:741-2

> <Gold.Version>
5.8.1

> <Gold.Id.Protein>
6NUR|6NUR_protein|mol2

> <Gold.PLP.Fitness>
44.9369

> <Gold.PLP.PLP>
-28.3131

> <Gold.PLP.part.hbond>
-4.0000

> <Gold.PLP.part.metal>
0.0000

> <Gold.PLP.part.buried>
-2.5223

> <Gold.PLP.part.nonpolar>
-22.6591

> <Gold.PLP.part.repulsive>
0.4118

> <Gold.PLP.ligand.clash>
0.0000

> <Gold.PLP.ligand.torsion>
0.4896

> <Gold.PLP.Chemscore.Hbond>
4.1435

> <Gold.PLP.Chemscore.CHOScore>
1.7124

> <Gold.PLP.Chemscore.Metal>
0.0000

> <Gold.Chemscore.Hbonds>
donor molecule, donor type, donor heavy atom, donor atom, acceptor molecule, acceptor atom, score
      L1  H     5    42       P1 10175  2.00
      L1  H    10    36       P1  7948  1.00
      L1  H    13    37       P1  7948  1.00
      P1  H 10785 10796       L1    17  0.16
      L1  C    16    39       P1 10186  1.00
      L1  C    18    40       P1 10747  0.46

> <Gold.PLP.Chemscore.Internal.Correction>
0.0353

> <Gold.Rescore>
     Score         DG    S(hbond)    S(metal)    S(lipo)     H(rot)  DE(clash)    DE(int)     intcor
     15.61     -19.83       2.57        0.00      84.06       1.59       1.50       2.72       ----

> <Gold.Chemscore.Fitness>
15.6050

> <Gold.Chemscore.DG>
-19.8268

> <Gold.Chemscore.ZeroCoef>
-5.4800

> <Gold.Chemscore.Hbond>
2.5663

> <Gold.Chemscore.Metal>
0.0000

> <Gold.Chemscore.Lipo>
84.0587

> <Gold.Chemscore.Internal_Hbond>
0.0000

> <Gold.Chemscore.DEClash>
1.4974

> <Gold.Chemscore.DEInternal>
2.7244

> <Gold.Chemscore.Rot>
1.5858

> <Gold.Chemscore.Internal.Correction>
   9.000000E+99

> <Gold.Chemscore.Hbonds>
donor molecule, donor type, donor heavy atom, donor atom, acceptor molecule, acceptor atom, score
      L1  H     5    42       P1 10175  0.95
      L1  H    10    36       P1  7948  0.98
      L1  H    13    37       P1  7948  0.84
      P1  H 10785 10796       L1    17  0.09

> <Gold.Chemscore.Hbond.Weighted>
-8.5715

> <Gold.Chemscore.Metal.Weighted>
-0.0000

> <Gold.Chemscore.Lipo.Weighted>
-9.8349

> <Gold.Chemscore.Internal_Hbond.Weighted>
0.0000

> <Gold.Chemscore.DEClash.Weighted>
1.4974

> <Gold.Chemscore.DEInternal.Weighted>
2.7244

> <Gold.Chemscore.Rot.Weighted>
4.0596

> <Gold.Chemscore.Internal.Correction.Weighted>
   9.000000E+99

> <Gold.Protein.RotatedTorsions>
[ 6907 6896 6895 6894 ] final   44.88 input  -60.11 | X-H torsion
[ 7974 7965 7964 7962 ] final   49.36 input  175.53 | X-H torsion
[ 8008 7997 7996 7995 ] final   74.09 input   59.86 | X-H torsion
[ 10167 10162 10161 10158 ] final -134.55 input  -65.29 | X-H torsion
[ 10718 10713 10712 10709 ] final  -34.20 input   66.30 | X-H torsion
[ 10763 10752 10751 10750 ] final  -99.63 input  -60.55 | X-H torsion
[ 11005 11000 10999 10996 ] final  -54.91 input  -57.11 | X-H torsion

> <Gold.Protein.ActiveResidues>
 VAL166  LYS551  ARG553  GLY616  TRP617  ASP618  TYR619  PRO620  LYS621  CYS622 
 ASP623  PHE694  ASN695  SER759  ASP760  ASP761  ALA762  ILE779  LEU786  VAL792 
 PHE793  MET794  SER795  GLU796  ALA797  LYS798  CYS799  TRP800  GLU811  SER814 

> <Gold.Protein.RotatedAtoms>
  152.2379  134.8258  160.0464 H   0  0  0  0  0  0  0  0  0  0  0  0  # atno 6907 bound_to 6896
  151.8983  133.3527  159.3830 H   0  0  0  0  0  0  0  0  0  0  0  0  # atno 6908 bound_to 6896
  150.7045  134.4780  159.5501 H   0  0  0  0  0  0  0  0  0  0  0  0  # atno 6909 bound_to 6896
  146.0116  139.4550  142.9952 H   0  0  0  0  0  0  0  0  0  0  0  0  # atno 7974 bound_to 7965
  155.7932  140.3478  155.5361 H   0  0  0  0  0  0  0  0  0  0  0  0  # atno 8008 bound_to 7997
  155.8612  140.0971  157.1632 H   0  0  0  0  0  0  0  0  0  0  0  0  # atno 8009 bound_to 7997
  154.4012  140.1358  156.3951 H   0  0  0  0  0  0  0  0  0  0  0  0  # atno 8010 bound_to 7997
  139.8869  143.6770  152.2618 H   0  0  0  0  0  0  0  0  0  0  0  0  # atno 10167 bound_to 10162
  156.3534  130.4312  149.7685 H   0  0  0  0  0  0  0  0  0  0  0  0  # atno 10718 bound_to 10713
  154.7513  135.4965  153.9295 H   0  0  0  0  0  0  0  0  0  0  0  0  # atno 10763 bound_to 10752
  153.1147  135.6717  153.9447 H   0  0  0  0  0  0  0  0  0  0  0  0  # atno 10764 bound_to 10752
  153.9196  135.3090  155.3427 H   0  0  0  0  0  0  0  0  0  0  0  0  # atno 10765 bound_to 10752
  141.1049  133.6614  156.4391 H   0  0  0  0  0  0  0  0  0  0  0  0  # atno 11005 bound_to 11000
  145.7333  141.0034  143.1340 LP  0  0  0  0  0  0  0  0  0  0  0  0  # atno 17320 bound_to 7965
  144.6955  139.9010  143.7458 LP  0  0  0  0  0  0  0  0  0  0  0  0  # atno 17321 bound_to 7965
  139.7145  144.7614  151.1057 LP  0  0  0  0  0  0  0  0  0  0  0  0  # atno 17342 bound_to 10162
  140.7734  143.5287  150.9449 LP  0  0  0  0  0  0  0  0  0  0  0  0  # atno 17343 bound_to 10162
  156.4877  130.8070  151.3081 LP  0  0  0  0  0  0  0  0  0  0  0  0  # atno 17370 bound_to 10713
  157.7464  130.9985  150.2856 LP  0  0  0  0  0  0  0  0  0  0  0  0  # atno 17371 bound_to 10713
  140.4929  134.6559  157.5218 LP  0  0  0  0  0  0  0  0  0  0  0  0  # atno 17394 bound_to 11000
  139.9914  134.6979  155.9682 LP  0  0  0  0  0  0  0  0  0  0  0  0  # atno 17395 bound_to 11000

$$$$
