AV-unprocessed.smi:3150|AV-procd|sdf|12012|dock1
  -GOLD-   2272017423D 1   1.00000     0.00000
 Structure written by MMmdl.
 32 33  0  0  0  0  0  0  0  0  2 V2000
  153.6118  140.0653  159.6808 C   0  0  0  0  0  0  0  0  0  0  0  0
  152.2386  140.1846  159.0062 C   0  0  1  0  0  0  0  0  0  0  0  0
  152.0782  141.5353  158.5790 O   0  0  0  0  0  0  0  0  0  0  0  0
  152.2624  142.5129  159.5956 C   0  0  0  0  0  0  0  0  0  0  0  0
  151.6217  143.8083  159.1465 C   0  0  0  0  0  0  0  0  0  0  0  0
  152.4172  144.8218  158.3555 C   0  0  0  0  0  0  0  0  0  0  0  0
  152.0206  145.1222  159.7785 C   0  0  0  0  0  0  0  0  0  0  0  0
  152.1364  139.2246  157.8089 C   0  0  0  0  0  0  0  0  0  0  0  0
  152.7646  139.4942  156.7811 O   0  0  0  0  0  0  0  0  0  0  0  0
  151.3052  138.1412  158.0810 N   0  0  0  0  0  0  0  0  0  0  0  0
  150.8840  137.3076  157.1690 C   0  0  0  0  0  0  0  0  0  0  0  0
  151.2222  137.4150  155.8087 N   0  0  0  0  0  0  0  0  0  0  0  0
  150.7708  136.5336  154.8493 C   0  0  0  0  0  0  0  0  0  0  0  0
  149.9749  135.5097  155.1617 C   0  0  0  0  0  0  0  0  0  0  0  0
  149.5806  135.3263  156.5433 C   0  0  0  0  0  0  0  0  0  0  0  0
  150.0066  136.1893  157.5599 C   0  0  0  0  0  0  0  0  0  0  0  0
  149.6393  135.9929  158.7415 O   0  5  0  0  0  0  0  0  0  0  0  0
  153.7893  139.0508  160.0397 H   0  0  0  0  0  0  0  0  0  0  0  0
  153.6804  140.7344  160.5390 H   0  0  0  0  0  0  0  0  0  0  0  0
  154.4185  140.3247  158.9942 H   0  0  0  0  0  0  0  0  0  0  0  0
  151.4699  139.9523  159.7467 H   0  0  0  0  0  0  0  0  0  0  0  0
  151.8199  142.1985  160.5418 H   0  0  0  0  0  0  0  0  0  0  0  0
  153.3259  142.6852  159.7653 H   0  0  0  0  0  0  0  0  0  0  0  0
  150.5738  143.7077  158.8702 H   0  0  0  0  0  0  0  0  0  0  0  0
  153.4662  144.6051  158.1622 H   0  0  0  0  0  0  0  0  0  0  0  0
  151.8988  145.3595  157.5643 H   0  0  0  0  0  0  0  0  0  0  0  0
  151.2369  145.8599  159.9385 H   0  0  0  0  0  0  0  0  0  0  0  0
  152.8031  145.1022  160.5347 H   0  0  0  0  0  0  0  0  0  0  0  0
  151.1107  136.7423  153.8458 H   0  0  0  0  0  0  0  0  0  0  0  0
  149.6297  134.8288  154.3978 H   0  0  0  0  0  0  0  0  0  0  0  0
  148.9359  134.4933  156.7846 H   0  0  0  0  0  0  0  0  0  0  0  0
  151.8200  138.1605  155.4837 H   0  0  0  0  0  0  0  0  0  0  0  0
  1  2  1  0  0  0  0
  1 18  1  0  0  0  0
  1 19  1  0  0  0  0
  1 20  1  0  0  0  0
  2  3  1  0  0  0  0
  2  8  1  0  0  0  0
  2 21  1  0  0  0  0
  3  4  1  0  0  0  0
  4  5  1  0  0  0  0
  4 22  1  0  0  0  0
  4 23  1  0  0  0  0
  5  7  1  0  0  0  0
  5  6  1  0  0  0  0
  5 24  1  0  0  0  0
  6  7  1  0  0  0  0
  6 25  1  0  0  0  0
  6 26  1  0  0  0  0
  7 27  1  0  0  0  0
  7 28  1  0  0  0  0
  8  9  2  0  0  0  0
  8 10  1  0  0  0  0
 10 11  2  0  0  0  0
 11 16  1  0  0  0  0
 11 12  1  0  0  0  0
 12 32  1  0  0  0  0
 12 13  1  0  0  0  0
 13 29  1  0  0  0  0
 13 14  2  0  0  0  0
 14 30  1  0  0  0  0
 14 15  1  0  0  0  0
 15 16  2  0  0  0  0
 15 31  1  0  0  0  0
 16 17  1  0  0  0  0
M  CHG  1  17  -1
M  END
> <s_m_source_file>
AV-unprocessed.smi

> <i_m_source_file_index>
3150

> <i_lp_mmshare_version>
43012

> <i_f3d_flags>
0

> <s_epik_input>
W0NIMl0xW0NIMl1bQ0hdMVtDSDJdT1tDQEBIXShbQ0gzXSlDKD1PKVtOSF1jMm5bY0hdW2NIXVtjSF1jMltPSF0=

> <s_epik_cmdline>
J2VwaWtfcHl0aG9uJywgJy1waCcsICc3LjAnLCAnLXRuJywgJzgnLCAnLW1hJywgJzIwMCcsICctbWV0YWxfYmluZGluZycsICctaW1hZScsICc8aW5maWxlLm1hZT4nLCAnLW9tYWUnLCAnPG91dGZpbGUubWFlPic=

> <r_epik_Ionization_Penalty>
0.784632

> <r_epik_Ionization_Penalty_Charging>
0.784632

> <r_epik_Ionization_Penalty_Neutral>
7.02258e-13

> <r_epik_State_Penalty>
1.43154

> <r_epik_Charging_Adjusted_Penalty>
2.21617

> <i_epik_Tot_Q>
-1

> <i_epik_Tot_abs_Q>
1

> <r_epik_Metal_State_Penalty>
1.39244

> <b_epik_Metal_Only>
0

> <s_lp_Force_Field>
OPLS_2005

> <r_lp_Energy>
45.381

> <b_lp_Chiralities_Consistent>
1

> <s_lp_Variant>
AV-unprocessed.smi:3150-6

> <Gold.Version>
5.8.1

> <Gold.Id.Protein>
6NUR|6NUR_protein|mol2

> <Gold.PLP.Fitness>
40.6258

> <Gold.PLP.PLP>
-29.3493

> <Gold.PLP.part.hbond>
-2.0000

> <Gold.PLP.part.metal>
0.0000

> <Gold.PLP.part.buried>
-4.7889

> <Gold.PLP.part.nonpolar>
-22.8615

> <Gold.PLP.part.repulsive>
0.0634

> <Gold.PLP.ligand.clash>
0.0000

> <Gold.PLP.ligand.torsion>
0.7099

> <Gold.PLP.Chemscore.Hbond>
3.0000

> <Gold.PLP.Chemscore.CHOScore>
1.0086

> <Gold.PLP.Chemscore.Metal>
0.0000

> <Gold.Chemscore.Hbonds>
donor molecule, donor type, donor heavy atom, donor atom, acceptor molecule, acceptor atom, score
      P1  H  6896  6908       L1    17  2.00
      P1  H  7997  8010       L1     9  1.00
      L1  C    13    29       P1  7949  1.00

> <Gold.PLP.Chemscore.Internal.Correction>
0.6705

> <Gold.Rescore>
     Score         DG    S(hbond)    S(metal)    S(lipo)     H(rot)  DE(clash)    DE(int)     intcor
     16.15     -16.95       1.99        0.00      77.15       1.64       0.04       0.76       ----

> <Gold.Chemscore.Fitness>
16.1451

> <Gold.Chemscore.DG>
-16.9490

> <Gold.Chemscore.ZeroCoef>
-5.4800

> <Gold.Chemscore.Hbond>
1.9874

> <Gold.Chemscore.Metal>
0.0000

> <Gold.Chemscore.Lipo>
77.1469

> <Gold.Chemscore.Internal_Hbond>
0.0000

> <Gold.Chemscore.DEClash>
0.0442

> <Gold.Chemscore.DEInternal>
0.7597

> <Gold.Chemscore.Rot>
1.6387

> <Gold.Chemscore.Internal.Correction>
   9.000000E+99

> <Gold.Chemscore.Hbonds>
donor molecule, donor type, donor heavy atom, donor atom, acceptor molecule, acceptor atom, score
      P1  H  6896  6908       L1    17  0.71
      P1  H  7997  8010       L1     9  1.00

> <Gold.Chemscore.Hbond.Weighted>
-6.6379

> <Gold.Chemscore.Metal.Weighted>
-0.0000

> <Gold.Chemscore.Lipo.Weighted>
-9.0262

> <Gold.Chemscore.Internal_Hbond.Weighted>
0.0000

> <Gold.Chemscore.DEClash.Weighted>
0.0442

> <Gold.Chemscore.DEInternal.Weighted>
0.7597

> <Gold.Chemscore.Rot.Weighted>
4.1950

> <Gold.Chemscore.Internal.Correction.Weighted>
   9.000000E+99

> <Gold.Protein.RotatedTorsions>
[ 6907 6896 6895 6894 ] final  164.46 input  -60.11 | X-H torsion
[ 7974 7965 7964 7962 ] final   11.25 input  175.53 | X-H torsion
[ 8008 7997 7996 7995 ] final   59.32 input   59.86 | X-H torsion
[ 10167 10162 10161 10158 ] final -141.65 input  -65.29 | X-H torsion
[ 10718 10713 10712 10709 ] final  -64.57 input   66.30 | X-H torsion
[ 10763 10752 10751 10750 ] final  134.83 input  -60.55 | X-H torsion
[ 11005 11000 10999 10996 ] final  139.06 input  -57.11 | X-H torsion

> <Gold.Protein.ActiveResidues>
 VAL166  LYS551  ARG553  GLY616  TRP617  ASP618  TYR619  PRO620  LYS621  CYS622 
 ASP623  PHE694  ASN695  SER759  ASP760  ASP761  ALA762  ILE779  LEU786  VAL792 
 PHE793  MET794  SER795  GLU796  ALA797  LYS798  CYS799  TRP800  GLU811  SER814 

> <Gold.Protein.RotatedAtoms>
  151.9095  133.3558  159.3858 H   0  0  0  0  0  0  0  0  0  0  0  0  # atno 6907 bound_to 6896
  150.7061  134.4746  159.5451 H   0  0  0  0  0  0  0  0  0  0  0  0  # atno 6908 bound_to 6896
  152.2350  134.8285  160.0519 H   0  0  0  0  0  0  0  0  0  0  0  0  # atno 6909 bound_to 6896
  146.2374  139.9513  142.8470 H   0  0  0  0  0  0  0  0  0  0  0  0  # atno 7974 bound_to 7965
  155.5643  140.3489  155.4499 H   0  0  0  0  0  0  0  0  0  0  0  0  # atno 8008 bound_to 7997
  156.0491  140.1313  157.0096 H   0  0  0  0  0  0  0  0  0  0  0  0  # atno 8009 bound_to 7997
  154.4426  140.1008  156.6335 H   0  0  0  0  0  0  0  0  0  0  0  0  # atno 8010 bound_to 7997
  139.8164  143.7632  152.2665 H   0  0  0  0  0  0  0  0  0  0  0  0  # atno 10167 bound_to 10162
  156.0721  130.4235  150.1439 H   0  0  0  0  0  0  0  0  0  0  0  0  # atno 10718 bound_to 10713
  153.8301  135.3105  155.3418 H   0  0  0  0  0  0  0  0  0  0  0  0  # atno 10763 bound_to 10752
  154.7977  135.4745  154.0203 H   0  0  0  0  0  0  0  0  0  0  0  0  # atno 10764 bound_to 10752
  153.1640  135.6866  153.8793 H   0  0  0  0  0  0  0  0  0  0  0  0  # atno 10765 bound_to 10752
  140.0228  134.9389  157.0508 H   0  0  0  0  0  0  0  0  0  0  0  0  # atno 11005 bound_to 11000
  145.1858  140.9789  143.4239 LP  0  0  0  0  0  0  0  0  0  0  0  0  # atno 17320 bound_to 7965
  144.9901  139.3698  143.6219 LP  0  0  0  0  0  0  0  0  0  0  0  0  # atno 17321 bound_to 7965
  139.7797  144.7448  151.0105 LP  0  0  0  0  0  0  0  0  0  0  0  0  # atno 17342 bound_to 10162
  140.7815  143.4555  151.0352 LP  0  0  0  0  0  0  0  0  0  0  0  0  # atno 17343 bound_to 10162
  156.9487  130.9768  151.3502 LP  0  0  0  0  0  0  0  0  0  0  0  0  # atno 17370 bound_to 10713
  157.5798  130.8368  149.8506 LP  0  0  0  0  0  0  0  0  0  0  0  0  # atno 17371 bound_to 10713
  140.4358  134.1733  155.7170 LP  0  0  0  0  0  0  0  0  0  0  0  0  # atno 17394 bound_to 11000
  141.1784  133.8465  157.1342 LP  0  0  0  0  0  0  0  0  0  0  0  0  # atno 17395 bound_to 11000

$$$$
