AV-unprocessed.smi:102|AV-procd|sdf|961|dock2
  -GOLD-   2262017503D 1   1.00000     0.00000
 Structure written by MMmdl.
 43 44  0  0  0  0  0  0  0  0  2 V2000
  152.1701  144.1420  161.2484 C   0  0  0  0  0  0  0  0  0  0  0  0
  151.6656  144.2196  159.8138 C   0  0  0  0  0  0  0  0  0  0  0  0
  151.8307  145.2293  159.1294 O   0  0  0  0  0  0  0  0  0  0  0  0
  151.0487  143.0889  159.4265 O   0  0  0  0  0  0  0  0  0  0  0  0
  150.4297  143.0051  158.1497 C   0  0  0  0  0  0  0  0  0  0  0  0
  150.6174  141.6051  157.5461 C   0  0  2  0  0  0  0  0  0  0  0  0
  152.0007  141.3084  157.3883 O   0  0  0  0  0  0  0  0  0  0  0  0
  152.1712  140.3322  156.4014 C   0  0  1  0  0  0  0  0  0  0  0  0
  152.5917  139.0262  157.0494 N   0  0  0  0  0  0  0  0  0  0  0  0
  152.4934  138.8308  158.4177 C   0  0  0  0  0  0  0  0  0  0  0  0
  152.8583  137.6626  158.9839 C   0  0  0  0  0  0  0  0  0  0  0  0
  152.7506  137.5018  160.3140 F   0  0  0  0  0  0  0  0  0  0  0  0
  153.3676  136.5794  158.1448 C   0  0  0  0  0  0  0  0  0  0  0  0
  153.6984  135.5164  158.6677 O   0  0  0  0  0  0  0  0  0  0  0  0
  153.4535  136.7997  156.8010 N   0  5  0  0  0  0  0  0  0  0  0  0
  153.0828  137.9795  156.2228 C   0  0  0  0  0  0  0  0  0  0  0  0
  153.1431  138.1852  155.0105 O   0  0  0  0  0  0  0  0  0  0  0  0
  150.8315  140.2236  155.6351 C   0  0  1  0  0  0  0  0  0  0  0  0
  150.1184  139.0453  156.0171 O   0  0  0  0  0  0  0  0  0  0  0  0
  150.1708  137.9325  155.2652 C   0  0  0  0  0  0  0  0  0  0  0  0
  149.3419  136.7986  155.8528 C   0  0  0  0  0  0  0  0  0  0  0  0
  150.7949  137.7932  154.2134 O   0  0  0  0  0  0  0  0  0  0  0  0
  150.1125  141.4815  156.1129 C   0  0  1  0  0  0  0  0  0  0  0  0
  148.6940  141.3850  156.0485 O   0  0  0  0  0  0  0  0  0  0  0  0
  148.0591  141.5436  154.8744 C   0  0  0  0  0  0  0  0  0  0  0  0
  146.5444  141.5407  155.0294 C   0  0  0  0  0  0  0  0  0  0  0  0
  148.5928  141.6699  153.7724 O   0  0  0  0  0  0  0  0  0  0  0  0
  151.3369  143.9939  161.9354 H   0  0  0  0  0  0  0  0  0  0  0  0
  152.6857  145.0625  161.5226 H   0  0  0  0  0  0  0  0  0  0  0  0
  152.8656  143.3101  161.3606 H   0  0  0  0  0  0  0  0  0  0  0  0
  149.3657  143.1879  158.3018 H   0  0  0  0  0  0  0  0  0  0  0  0
  150.7841  143.7829  157.4716 H   0  0  0  0  0  0  0  0  0  0  0  0
  150.1429  140.8468  158.1718 H   0  0  0  0  0  0  0  0  0  0  0  0
  153.0104  140.6337  155.7723 H   0  0  0  0  0  0  0  0  0  0  0  0
  152.1186  139.6149  159.0574 H   0  0  0  0  0  0  0  0  0  0  0  0
  151.0300  140.2517  154.5629 H   0  0  0  0  0  0  0  0  0  0  0  0
  148.4921  137.1921  156.4113 H   0  0  0  0  0  0  0  0  0  0  0  0
  149.9529  136.2002  156.5287 H   0  0  0  0  0  0  0  0  0  0  0  0
  148.9648  136.1518  155.0604 H   0  0  0  0  0  0  0  0  0  0  0  0
  150.4704  142.3431  155.5464 H   0  0  0  0  0  0  0  0  0  0  0  0
  146.2385  142.2548  155.7942 H   0  0  0  0  0  0  0  0  0  0  0  0
  146.1983  140.5489  155.3207 H   0  0  0  0  0  0  0  0  0  0  0  0
  146.0626  141.8129  154.0900 H   0  0  0  0  0  0  0  0  0  0  0  0
  1  2  1  0  0  0  0
  1 28  1  0  0  0  0
  1 29  1  0  0  0  0
  1 30  1  0  0  0  0
  2  3  2  0  0  0  0
  2  4  1  0  0  0  0
  4  5  1  0  0  0  0
  5  6  1  0  0  0  0
  5 31  1  0  0  0  0
  5 32  1  0  0  0  0
  6 23  1  0  0  0  0
  6  7  1  0  0  0  0
  6 33  1  0  0  0  0
  7  8  1  0  0  0  0
  8  9  1  0  0  0  0
  8 18  1  0  0  0  0
  8 34  1  0  0  0  0
  9 16  1  0  0  0  0
  9 10  1  0  0  0  0
 10 11  2  0  0  0  0
 10 35  1  0  0  0  0
 11 12  1  0  0  0  0
 11 13  1  0  0  0  0
 13 14  2  0  0  0  0
 13 15  1  0  0  0  0
 15 16  1  0  0  0  0
 16 17  2  0  0  0  0
 18 19  1  0  0  0  0
 18 23  1  0  0  0  0
 18 36  1  0  0  0  0
 19 20  1  0  0  0  0
 20 21  1  0  0  0  0
 20 22  2  0  0  0  0
 21 37  1  0  0  0  0
 21 38  1  0  0  0  0
 21 39  1  0  0  0  0
 23 24  1  0  0  0  0
 23 40  1  0  0  0  0
 24 25  1  0  0  0  0
 25 26  1  0  0  0  0
 25 27  2  0  0  0  0
 26 41  1  0  0  0  0
 26 42  1  0  0  0  0
 26 43  1  0  0  0  0
M  CHG  1  15  -1
M  END
> <s_m_source_file>
AV-unprocessed.smi

> <i_m_source_file_index>
102

> <i_lp_mmshare_version>
43012

> <i_f3d_flags>
0

> <s_epik_input>
W0NIM11DKD1PKU9bQ0gyXVtDQEBIXTFPW0NASF0oW0NAQEhdKE9DKD1PKVtDSDNdKVtDQEhdMU9DKD1PKVtDSDNdKW4yW2NIXWMoRiljKD1PKVtuSF1jMj1P

> <s_epik_cmdline>
J2VwaWtfcHl0aG9uJywgJy1waCcsICc3LjAnLCAnLXRuJywgJzgnLCAnLW1hJywgJzIwMCcsICctbWV0YWxfYmluZGluZycsICctaW1hZScsICc8aW5maWxlLm1hZT4nLCAnLW9tYWUnLCAnPG91dGZpbGUubWFlPic=

> <r_epik_Ionization_Penalty>
1.40304

> <r_epik_Ionization_Penalty_Charging>
1.43915e-08

> <r_epik_Ionization_Penalty_Neutral>
1.40304

> <r_epik_State_Penalty>
1.48536

> <r_epik_Charging_Adjusted_Penalty>
1.48536

> <i_epik_Tot_Q>
-1

> <i_epik_Tot_abs_Q>
1

> <r_epik_Metal_State_Penalty>
0.00663881

> <b_epik_Metal_Only>
0

> <s_epik_Chemistry_Notes>
This compound has an ester and may undergo hydrolysis at high or low pH. This compound contains an acetal/aminal-like group ( X-CH(R)-Y where X, Y are N, S, or O) that may be acid/base labile, releasing an aldehyde.

> <s_lp_Force_Field>
OPLS_2005

> <r_lp_Energy>
23.8996

> <b_lp_Chiralities_Consistent>
1

> <s_lp_Variant>
AV-unprocessed.smi:102-17

> <Gold.Version>
5.8.1

> <Gold.Id.Protein>
6NUR|6NUR_protein|mol2

> <Gold.PLP.Fitness>
43.9791

> <Gold.PLP.PLP>
-35.9524

> <Gold.PLP.part.hbond>
-3.8184

> <Gold.PLP.part.metal>
0.0000

> <Gold.PLP.part.buried>
-5.2707

> <Gold.PLP.part.nonpolar>
-26.6938

> <Gold.PLP.part.repulsive>
0.6520

> <Gold.PLP.ligand.clash>
0.0000

> <Gold.PLP.ligand.torsion>
1.2188

> <Gold.PLP.Chemscore.Hbond>
3.2000

> <Gold.PLP.Chemscore.CHOScore>
0.0000

> <Gold.PLP.Chemscore.Metal>
0.0000

> <Gold.Chemscore.Hbonds>
donor molecule, donor type, donor heavy atom, donor atom, acceptor molecule, acceptor atom, score
      P1  H  6896  6907       L1    14  0.75
      P1  H  8011  8017       L1    27  0.61
      P1  H 10752 10765       L1    15  1.82

> <Gold.PLP.Chemscore.Internal.Correction>
0.8644

> <Gold.Rescore>
     Score         DG    S(hbond)    S(metal)    S(lipo)     H(rot)  DE(clash)    DE(int)     intcor
      3.77      -8.15       1.96        0.00      54.34       4.00       1.59       2.80       ----

> <Gold.Chemscore.Fitness>
3.7679

> <Gold.Chemscore.DG>
-8.1537

> <Gold.Chemscore.ZeroCoef>
-5.4800

> <Gold.Chemscore.Hbond>
1.9591

> <Gold.Chemscore.Metal>
0.0000

> <Gold.Chemscore.Lipo>
54.3388

> <Gold.Chemscore.Internal_Hbond>
0.0000

> <Gold.Chemscore.DEClash>
1.5867

> <Gold.Chemscore.DEInternal>
2.7991

> <Gold.Chemscore.Rot>
3.9951

> <Gold.Chemscore.Internal.Correction>
   9.000000E+99

> <Gold.Chemscore.Hbonds>
donor molecule, donor type, donor heavy atom, donor atom, acceptor molecule, acceptor atom, score
      P1  H  6896  6907       L1    14  0.72
      P1  H  8011  8017       L1    27  0.59
      P1  H 10752 10765       L1    15  0.62

> <Gold.Chemscore.Hbond.Weighted>
-6.5434

> <Gold.Chemscore.Metal.Weighted>
-0.0000

> <Gold.Chemscore.Lipo.Weighted>
-6.3576

> <Gold.Chemscore.Internal_Hbond.Weighted>
0.0000

> <Gold.Chemscore.DEClash.Weighted>
1.5867

> <Gold.Chemscore.DEInternal.Weighted>
2.7991

> <Gold.Chemscore.Rot.Weighted>
10.2274

> <Gold.Chemscore.Internal.Correction.Weighted>
   9.000000E+99

> <Gold.Protein.RotatedTorsions>
[ 6907 6896 6895 6894 ] final   65.48 input  -60.11 | X-H torsion
[ 7974 7965 7964 7962 ] final  128.07 input  175.53 | X-H torsion
[ 8008 7997 7996 7995 ] final  103.67 input   59.86 | X-H torsion
[ 10167 10162 10161 10158 ] final   57.23 input  -65.29 | X-H torsion
[ 10718 10713 10712 10709 ] final -161.20 input   66.30 | X-H torsion
[ 10763 10752 10751 10750 ] final -112.93 input  -60.55 | X-H torsion
[ 11005 11000 10999 10996 ] final  159.94 input  -57.11 | X-H torsion

> <Gold.Protein.ActiveResidues>
 VAL166  LYS551  ARG553  GLY616  TRP617  ASP618  TYR619  PRO620  LYS621  CYS622 
 ASP623  PHE694  ASN695  SER759  ASP760  ASP761  ALA762  ILE779  LEU786  VAL792 
 PHE793  MET794  SER795  GLU796  ALA797  LYS798  CYS799  TRP800  GLU811  SER814 

> <Gold.Protein.RotatedAtoms>
  152.4411  134.5589  159.9888 H   0  0  0  0  0  0  0  0  0  0  0  0  # atno 6907 bound_to 6896
  151.5686  133.3387  159.2993 H   0  0  0  0  0  0  0  0  0  0  0  0  # atno 6908 bound_to 6896
  150.8317  134.7607  159.6923 H   0  0  0  0  0  0  0  0  0  0  0  0  # atno 6909 bound_to 6896
  145.0436  139.3942  143.5089 H   0  0  0  0  0  0  0  0  0  0  0  0  # atno 7974 bound_to 7965
  156.1504  140.3161  155.8639 H   0  0  0  0  0  0  0  0  0  0  0  0  # atno 8008 bound_to 7997
  155.3981  140.0498  157.3055 H   0  0  0  0  0  0  0  0  0  0  0  0  # atno 8009 bound_to 7997
  154.5054  140.2145  155.9274 H   0  0  0  0  0  0  0  0  0  0  0  0  # atno 8010 bound_to 7997
  140.2002  144.3995  150.6532 H   0  0  0  0  0  0  0  0  0  0  0  0  # atno 10167 bound_to 10162
  156.5928  130.8777  151.2894 H   0  0  0  0  0  0  0  0  0  0  0  0  # atno 10718 bound_to 10713
  154.8372  135.4473  154.1270 H   0  0  0  0  0  0  0  0  0  0  0  0  # atno 10763 bound_to 10752
  153.2490  135.6924  153.7706 H   0  0  0  0  0  0  0  0  0  0  0  0  # atno 10764 bound_to 10752
  153.7025  135.3369  155.3204 H   0  0  0  0  0  0  0  0  0  0  0  0  # atno 10765 bound_to 10752
  140.2011  134.8337  157.3018 H   0  0  0  0  0  0  0  0  0  0  0  0  # atno 11005 bound_to 11000
  146.3512  140.0050  142.8672 LP  0  0  0  0  0  0  0  0  0  0  0  0  # atno 17320 bound_to 7965
  145.1616  140.9676  143.4374 LP  0  0  0  0  0  0  0  0  0  0  0  0  # atno 17321 bound_to 7965
  140.6395  143.2201  151.6321 LP  0  0  0  0  0  0  0  0  0  0  0  0  # atno 17342 bound_to 10162
  139.5220  144.3176  152.0939 LP  0  0  0  0  0  0  0  0  0  0  0  0  # atno 17343 bound_to 10162
  157.7299  130.9678  150.1809 LP  0  0  0  0  0  0  0  0  0  0  0  0  # atno 17370 bound_to 10713
  156.2535  130.3703  149.8207 LP  0  0  0  0  0  0  0  0  0  0  0  0  # atno 17371 bound_to 10713
  140.2053  134.4204  155.7641 LP  0  0  0  0  0  0  0  0  0  0  0  0  # atno 17394 bound_to 11000
  141.2227  133.7092  156.8251 LP  0  0  0  0  0  0  0  0  0  0  0  0  # atno 17395 bound_to 11000

$$$$
