AV-unprocessed.smi:2218|AV-procd|sdf|8976|dock4
  -GOLD-   2272012193D 1   1.00000     0.00000
 Structure written by MMmdl.
 32 32  0  0  0  0  0  0  0  0  2 V2000
  153.3244  142.4097  161.8317 C   0  0  0  0  0  0  0  0  0  0  0  0
  152.7107  143.1448  160.6900 C   0  0  0  0  0  0  0  0  0  0  0  0
  152.3787  142.5670  159.5326 N   0  0  0  0  0  0  0  0  0  0  0  0
  151.8251  143.4702  158.6187 C   0  0  0  0  0  0  0  0  0  0  0  0
  151.3914  142.9936  157.2604 C   0  0  0  0  0  0  0  0  0  0  0  0
  150.2234  142.0008  157.3348 C   0  0  0  0  0  0  0  0  0  0  0  0
  149.8123  141.5727  158.4147 O   0  0  0  0  0  0  0  0  0  0  0  0
  149.7004  141.6316  156.1555 N   0  0  0  0  0  0  0  0  0  0  0  0
  148.6185  140.6697  155.9805 C   0  0  0  0  0  0  0  0  0  0  0  0
  148.7413  139.9287  154.6393 C   0  0  0  0  0  0  0  0  0  0  0  0
  149.7789  138.7984  154.6822 C   0  0  0  0  0  0  0  0  0  0  0  0
  151.2021  139.3237  154.9572 C   0  0  0  0  0  0  0  0  0  0  0  0
  152.1820  138.2242  155.3877 C   0  0  0  0  0  0  0  0  0  0  0  0
  153.2486  138.6101  155.9136 O   0  0  0  0  0  0  0  0  0  0  0  0
  151.8656  137.0283  155.1986 O   0  5  0  0  0  0  0  0  0  0  0  0
  151.7341  144.7492  159.1111 C   0  0  0  0  0  0  0  0  0  0  0  0
  152.3543  144.8670  160.7346 S   0  0  0  0  0  0  0  0  0  0  0  0
  153.2072  141.3333  161.7027 H   0  0  0  0  0  0  0  0  0  0  0  0
  152.8450  142.7030  162.7656 H   0  0  0  0  0  0  0  0  0  0  0  0
  154.3877  142.6419  161.8946 H   0  0  0  0  0  0  0  0  0  0  0  0
  151.0965  143.8376  156.6355 H   0  0  0  0  0  0  0  0  0  0  0  0
  152.2242  142.5090  156.7496 H   0  0  0  0  0  0  0  0  0  0  0  0
  150.0937  142.0313  155.3159 H   0  0  0  0  0  0  0  0  0  0  0  0
  148.6024  139.9620  156.8113 H   0  0  0  0  0  0  0  0  0  0  0  0
  147.6746  141.2138  156.0183 H   0  0  0  0  0  0  0  0  0  0  0  0
  147.7697  139.5167  154.3636 H   0  0  0  0  0  0  0  0  0  0  0  0
  149.0122  140.6341  153.8527 H   0  0  0  0  0  0  0  0  0  0  0  0
  149.4941  138.0814  155.4537 H   0  0  0  0  0  0  0  0  0  0  0  0
  149.7606  138.2604  153.7332 H   0  0  0  0  0  0  0  0  0  0  0  0
  151.5977  139.8055  154.0623 H   0  0  0  0  0  0  0  0  0  0  0  0
  151.1736  140.0844  155.7381 H   0  0  0  0  0  0  0  0  0  0  0  0
  151.3474  145.6268  158.6150 H   0  0  0  0  0  0  0  0  0  0  0  0
  1  2  1  0  0  0  0
  1 18  1  0  0  0  0
  1 19  1  0  0  0  0
  1 20  1  0  0  0  0
  2 17  1  0  0  0  0
  2  3  2  0  0  0  0
  3  4  1  0  0  0  0
  4  5  1  0  0  0  0
  4 16  2  0  0  0  0
  5  6  1  0  0  0  0
  5 21  1  0  0  0  0
  5 22  1  0  0  0  0
  6  7  2  0  0  0  0
  6  8  1  0  0  0  0
  8  9  1  0  0  0  0
  8 23  1  0  0  0  0
  9 10  1  0  0  0  0
  9 24  1  0  0  0  0
  9 25  1  0  0  0  0
 10 11  1  0  0  0  0
 10 26  1  0  0  0  0
 10 27  1  0  0  0  0
 11 12  1  0  0  0  0
 11 28  1  0  0  0  0
 11 29  1  0  0  0  0
 12 13  1  0  0  0  0
 12 30  1  0  0  0  0
 12 31  1  0  0  0  0
 13 14  2  0  0  0  0
 13 15  1  0  0  0  0
 16 17  1  0  0  0  0
 16 32  1  0  0  0  0
M  CHG  1  15  -1
M  END
> <s_m_source_file>
AV-unprocessed.smi

> <i_m_source_file_index>
2218

> <i_lp_mmshare_version>
43012

> <i_f3d_flags>
0

> <s_epik_input>
W0NIM11jMW5jKFtjSF1zMSlbQ0gyXUMoPU8pW05IXVtDSDJdW0NIMl1bQ0gyXVtDSDJdQyg9TylbT0hd

> <s_epik_cmdline>
J2VwaWtfcHl0aG9uJywgJy1waCcsICc3LjAnLCAnLXRuJywgJzgnLCAnLW1hJywgJzIwMCcsICctbWV0YWxfYmluZGluZycsICctaW1hZScsICc8aW5maWxlLm1hZT4nLCAnLW9tYWUnLCAnPG91dGZpbGUubWFlPic=

> <r_epik_Ionization_Penalty>
0.0039764

> <r_epik_Ionization_Penalty_Charging>
0.00392012

> <r_epik_Ionization_Penalty_Neutral>
5.62812e-05

> <r_epik_State_Penalty>
0.00280293

> <r_epik_Charging_Adjusted_Penalty>
0.00672305

> <i_epik_Tot_Q>
-1

> <i_epik_Tot_abs_Q>
1

> <r_epik_Metal_State_Penalty>
-0

> <b_epik_Metal_Only>
0

> <s_lp_Force_Field>
OPLS_2005

> <r_lp_Energy>
1.59535

> <b_lp_Chiralities_Consistent>
1

> <s_lp_Variant>
AV-unprocessed.smi:2218-1

> <Gold.Version>
5.8.1

> <Gold.Id.Protein>
6NUR|6NUR_protein|mol2

> <Gold.PLP.Fitness>
48.8613

> <Gold.PLP.PLP>
-38.1289

> <Gold.PLP.part.hbond>
-2.7194

> <Gold.PLP.part.metal>
0.0000

> <Gold.PLP.part.buried>
-5.0728

> <Gold.PLP.part.nonpolar>
-31.3917

> <Gold.PLP.part.repulsive>
0.2568

> <Gold.PLP.ligand.clash>
0.0000

> <Gold.PLP.ligand.torsion>
0.6058

> <Gold.PLP.Chemscore.Hbond>
3.9680

> <Gold.PLP.Chemscore.CHOScore>
0.0000

> <Gold.PLP.Chemscore.Metal>
0.0000

> <Gold.Chemscore.Hbonds>
donor molecule, donor type, donor heavy atom, donor atom, acceptor molecule, acceptor atom, score
      P1  H  7997  8008       L1    14  1.95
      P1  H 10752 10763       L1    15  2.00

> <Gold.PLP.Chemscore.Internal.Correction>
0.0399

> <Gold.Rescore>
     Score         DG    S(hbond)    S(metal)    S(lipo)     H(rot)  DE(clash)    DE(int)     intcor
     13.91     -15.63       1.90        0.00      94.41       2.83       0.11       1.61       ----

> <Gold.Chemscore.Fitness>
13.9107

> <Gold.Chemscore.DG>
-15.6294

> <Gold.Chemscore.ZeroCoef>
-5.4800

> <Gold.Chemscore.Hbond>
1.9015

> <Gold.Chemscore.Metal>
0.0000

> <Gold.Chemscore.Lipo>
94.4147

> <Gold.Chemscore.Internal_Hbond>
0.0000

> <Gold.Chemscore.DEClash>
0.1086

> <Gold.Chemscore.DEInternal>
1.6101

> <Gold.Chemscore.Rot>
2.8313

> <Gold.Chemscore.Internal.Correction>
   9.000000E+99

> <Gold.Chemscore.Hbonds>
donor molecule, donor type, donor heavy atom, donor atom, acceptor molecule, acceptor atom, score
      P1  H  7997  8008       L1    14  0.93
      P1  H 10752 10763       L1    15  0.95

> <Gold.Chemscore.Hbond.Weighted>
-6.3511

> <Gold.Chemscore.Metal.Weighted>
-0.0000

> <Gold.Chemscore.Lipo.Weighted>
-11.0465

> <Gold.Chemscore.Internal_Hbond.Weighted>
0.0000

> <Gold.Chemscore.DEClash.Weighted>
0.1086

> <Gold.Chemscore.DEInternal.Weighted>
1.6101

> <Gold.Chemscore.Rot.Weighted>
7.2482

> <Gold.Chemscore.Internal.Correction.Weighted>
   9.000000E+99

> <Gold.Protein.RotatedTorsions>
[ 6907 6896 6895 6894 ] final  178.50 input  -60.11 | X-H torsion
[ 7974 7965 7964 7962 ] final  140.01 input  175.53 | X-H torsion
[ 8008 7997 7996 7995 ] final  -39.06 input   59.86 | X-H torsion
[ 10167 10162 10161 10158 ] final  -33.64 input  -65.29 | X-H torsion
[ 10718 10713 10712 10709 ] final   -7.91 input   66.30 | X-H torsion
[ 10763 10752 10751 10750 ] final   59.31 input  -60.55 | X-H torsion
[ 11005 11000 10999 10996 ] final  168.59 input  -57.11 | X-H torsion

> <Gold.Protein.ActiveResidues>
 VAL166  LYS551  ARG553  GLY616  TRP617  ASP618  TYR619  PRO620  LYS621  CYS622 
 ASP623  PHE694  ASN695  SER759  ASP760  ASP761  ALA762  ILE779  LEU786  VAL792 
 PHE793  MET794  SER795  GLU796  ALA797  LYS798  CYS799  TRP800  GLU811  SER814 

> <Gold.Protein.RotatedAtoms>
  151.6868  133.3311  159.3232 H   0  0  0  0  0  0  0  0  0  0  0  0  # atno 6907 bound_to 6896
  150.7797  134.6733  159.6413 H   0  0  0  0  0  0  0  0  0  0  0  0  # atno 6908 bound_to 6896
  152.3851  134.6534  160.0181 H   0  0  0  0  0  0  0  0  0  0  0  0  # atno 6909 bound_to 6896
  144.9226  139.5148  143.5656 H   0  0  0  0  0  0  0  0  0  0  0  0  # atno 7974 bound_to 7965
  154.4028  140.1561  156.2801 H   0  0  0  0  0  0  0  0  0  0  0  0  # atno 8008 bound_to 7997
  155.8877  140.3440  155.5911 H   0  0  0  0  0  0  0  0  0  0  0  0  # atno 8009 bound_to 7997
  155.7594  140.0815  157.2153 H   0  0  0  0  0  0  0  0  0  0  0  0  # atno 8010 bound_to 7997
  140.7200  143.3606  151.1972 H   0  0  0  0  0  0  0  0  0  0  0  0  # atno 10167 bound_to 10162
  156.7103  130.5120  149.5894 H   0  0  0  0  0  0  0  0  0  0  0  0  # atno 10718 bound_to 10713
  152.9891  135.5576  154.5693 H   0  0  0  0  0  0  0  0  0  0  0  0  # atno 10763 bound_to 10752
  154.5096  135.2801  155.1355 H   0  0  0  0  0  0  0  0  0  0  0  0  # atno 10764 bound_to 10752
  154.2752  135.6355  153.5378 H   0  0  0  0  0  0  0  0  0  0  0  0  # atno 10765 bound_to 10752
  140.2888  134.7690  157.3821 H   0  0  0  0  0  0  0  0  0  0  0  0  # atno 11005 bound_to 11000
  146.3211  139.8117  142.8944 LP  0  0  0  0  0  0  0  0  0  0  0  0  # atno 17320 bound_to 7965
  145.3271  141.0258  143.3467 LP  0  0  0  0  0  0  0  0  0  0  0  0  # atno 17321 bound_to 7965
  139.7156  143.9305  152.2965 LP  0  0  0  0  0  0  0  0  0  0  0  0  # atno 17342 bound_to 10162
  139.9045  144.6892  150.8629 LP  0  0  0  0  0  0  0  0  0  0  0  0  # atno 17343 bound_to 10162
  156.1666  130.6409  151.0785 LP  0  0  0  0  0  0  0  0  0  0  0  0  # atno 17370 bound_to 10713
  157.6938  131.0801  150.7028 LP  0  0  0  0  0  0  0  0  0  0  0  0  # atno 17371 bound_to 10713
  140.1214  134.5214  155.8180 LP  0  0  0  0  0  0  0  0  0  0  0  0  # atno 17394 bound_to 11000
  141.2150  133.6758  156.6873 LP  0  0  0  0  0  0  0  0  0  0  0  0  # atno 17395 bound_to 11000

$$$$
