AV-unprocessed.smi:528|AV-procd|sdf|2832|dock5
  -GOLD-   2262023323D 1   1.00000     0.00000
 Structure written by MMmdl.
 45 47  0  0  0  0  0  0  0  0  1 V2000
  151.0312  136.3894  156.8196 C   0  0  0  0  0  0  0  0  0  0  0  0
  149.6655  136.7633  156.2179 C   0  0  1  0  0  0  0  0  0  0  0  0
  148.6820  136.9193  157.2876 N   0  0  0  0  0  0  0  0  0  0  0  0
  148.4845  136.0609  158.2999 C   0  0  0  0  0  0  0  0  0  0  0  0
  149.1475  135.0343  158.4550 O   0  0  0  0  0  0  0  0  0  0  0  0
  147.3781  136.4427  159.2937 C   0  0  0  0  0  0  0  0  0  0  0  0
  147.3601  135.6000  160.5012 N   0  0  0  0  0  0  0  0  0  0  0  0
  147.2940  134.2056  160.3103 C   0  0  0  0  0  0  0  0  0  0  0  0
  147.2589  133.3270  161.3305 C   0  0  0  0  0  0  0  0  0  0  0  0
  147.2399  131.8249  161.0932 C   0  0  0  0  0  0  0  0  0  0  0  0
  148.3117  131.2411  161.6295 F   0  0  0  0  0  0  0  0  0  0  0  0
  146.1542  131.2917  161.6512 F   0  0  0  0  0  0  0  0  0  0  0  0
  147.2178  131.5431  159.7899 F   0  0  0  0  0  0  0  0  0  0  0  0
  147.3267  133.8864  162.6662 C   0  0  0  0  0  0  0  0  0  0  0  0
  147.3941  135.2172  162.8664 C   0  0  0  0  0  0  0  0  0  0  0  0
  147.4072  136.1612  161.7467 C   0  0  0  0  0  0  0  0  0  0  0  0
  147.4595  137.3796  161.9170 O   0  0  0  0  0  0  0  0  0  0  0  0
  149.7242  138.0667  155.3867 C   0  0  2  0  0  0  0  0  0  0  0  0
  150.9459  138.1814  154.4454 C   0  0  0  0  0  0  0  0  0  0  0  0
  151.4937  139.5863  154.7573 C   0  0  2  0  0  0  0  0  0  0  0  0
  152.1975  139.5582  156.1261 C   0  0  0  0  0  0  0  0  0  0  0  0
  151.0175  139.4573  157.1099 C   0  0  0  0  0  0  0  0  0  0  0  0
  149.7932  139.4001  156.1726 C   0  0  1  0  0  0  0  0  0  0  0  0
  150.2224  140.3661  155.0725 C   0  0  0  0  0  0  0  0  0  0  0  0
  151.7722  136.2116  156.0403 H   0  0  0  0  0  0  0  0  0  0  0  0
  150.9653  135.4774  157.4136 H   0  0  0  0  0  0  0  0  0  0  0  0
  151.4107  137.1811  157.4662 H   0  0  0  0  0  0  0  0  0  0  0  0
  149.3354  135.9486  155.5726 H   0  0  0  0  0  0  0  0  0  0  0  0
  148.0955  137.7402  157.2453 H   0  0  0  0  0  0  0  0  0  0  0  0
  147.5095  137.4923  159.5597 H   0  0  0  0  0  0  0  0  0  0  0  0
  146.4100  136.3956  158.7913 H   0  0  0  0  0  0  0  0  0  0  0  0
  147.2689  133.8941  159.2760 H   0  0  0  0  0  0  0  0  0  0  0  0
  147.3173  133.2277  163.5222 H   0  0  0  0  0  0  0  0  0  0  0  0
  147.4391  135.5989  163.8759 H   0  0  0  0  0  0  0  0  0  0  0  0
  148.8239  138.1033  154.7699 H   0  0  0  0  0  0  0  0  0  0  0  0
  151.6966  137.4099  154.6216 H   0  0  0  0  0  0  0  0  0  0  0  0
  150.6332  138.1047  153.4033 H   0  0  0  0  0  0  0  0  0  0  0  0
  152.1077  140.0039  153.9591 H   0  0  0  0  0  0  0  0  0  0  0  0
  152.8903  138.7209  156.2188 H   0  0  0  0  0  0  0  0  0  0  0  0
  152.7596  140.4777  156.2947 H   0  0  0  0  0  0  0  0  0  0  0  0
  151.0947  138.6022  157.7799 H   0  0  0  0  0  0  0  0  0  0  0  0
  150.9734  140.3504  157.7346 H   0  0  0  0  0  0  0  0  0  0  0  0
  148.8566  139.6671  156.6628 H   0  0  0  0  0  0  0  0  0  0  0  0
  150.4140  141.3785  155.4332 H   0  0  0  0  0  0  0  0  0  0  0  0
  149.5236  140.4122  154.2353 H   0  0  0  0  0  0  0  0  0  0  0  0
  1  2  1  0  0  0  0
  1 25  1  0  0  0  0
  1 26  1  0  0  0  0
  1 27  1  0  0  0  0
  2  3  1  0  0  0  0
  2 18  1  0  0  0  0
  2 28  1  0  0  0  0
  3  4  1  0  0  0  0
  3 29  1  0  0  0  0
  4  5  2  0  0  0  0
  4  6  1  0  0  0  0
  6  7  1  0  0  0  0
  6 30  1  0  0  0  0
  6 31  1  0  0  0  0
  7 16  1  0  0  0  0
  7  8  1  0  0  0  0
  8  9  2  0  0  0  0
  8 32  1  0  0  0  0
  9 10  1  0  0  0  0
  9 14  1  0  0  0  0
 10 11  1  0  0  0  0
 10 12  1  0  0  0  0
 10 13  1  0  0  0  0
 14 15  2  0  0  0  0
 14 33  1  0  0  0  0
 15 16  1  0  0  0  0
 15 34  1  0  0  0  0
 16 17  2  0  0  0  0
 18 23  1  0  0  0  0
 18 19  1  0  0  0  0
 18 35  1  0  0  0  0
 19 20  1  0  0  0  0
 19 36  1  0  0  0  0
 19 37  1  0  0  0  0
 20 24  1  0  0  0  0
 20 21  1  0  0  0  0
 20 38  1  0  0  0  0
 21 22  1  0  0  0  0
 21 39  1  0  0  0  0
 21 40  1  0  0  0  0
 22 23  1  0  0  0  0
 22 41  1  0  0  0  0
 22 42  1  0  0  0  0
 23 24  1  0  0  0  0
 23 43  1  0  0  0  0
 24 44  1  0  0  0  0
 24 45  1  0  0  0  0
M  END
> <s_m_source_file>
AV-unprocessed.smi

> <i_m_source_file_index>
528

> <i_lp_mmshare_version>
43012

> <i_f3d_flags>
0

> <s_epik_input>
W0NIMl0xW0NIMl1bQ0BASF0oW0NIMl0yKVtDQEBIXShbQ0gyXVtDQEhdMTIpW0NASF0oW0NIM10pW05IXUMoPU8pW0NIMl1uM1tjSF1jKEMoRikoRilGKVtjSF1bY0hdYzM9Tw==

> <s_epik_cmdline>
J2VwaWtfcHl0aG9uJywgJy1waCcsICc3LjAnLCAnLXRuJywgJzgnLCAnLW1hJywgJzIwMCcsICctbWV0YWxfYmluZGluZycsICctaW1hZScsICc8aW5maWxlLm1hZT4nLCAnLW9tYWUnLCAnPG91dGZpbGUubWFlPic=

> <r_lp_tautomer_probability>
1

> <r_epik_Ionization_Penalty>
4.09479e-08

> <r_epik_Ionization_Penalty_Charging>
1.9321e-08

> <r_epik_Ionization_Penalty_Neutral>
2.16269e-08

> <r_epik_State_Penalty>
-0

> <r_epik_Charging_Adjusted_Penalty>
1.9321e-08

> <i_epik_Tot_Q>
0

> <i_epik_Tot_abs_Q>
0

> <r_epik_Metal_State_Penalty>
-0

> <b_epik_Metal_Only>
0

> <s_lp_Force_Field>
OPLS_2005

> <r_lp_Energy>
63.1325

> <b_lp_Chiralities_Consistent>
1

> <s_lp_Variant>
AV-unprocessed.smi:528-2

> <Gold.Version>
5.8.1

> <Gold.Id.Protein>
6NUR|6NUR_protein|mol2

> <Gold.PLP.Fitness>
45.0385

> <Gold.PLP.PLP>
-39.0602

> <Gold.PLP.part.hbond>
-3.0000

> <Gold.PLP.part.metal>
0.0000

> <Gold.PLP.part.buried>
-1.1412

> <Gold.PLP.part.nonpolar>
-34.7544

> <Gold.PLP.part.repulsive>
0.0147

> <Gold.PLP.ligand.clash>
1.3017

> <Gold.PLP.ligand.torsion>
0.4644

> <Gold.PLP.Chemscore.Hbond>
2.6960

> <Gold.PLP.Chemscore.CHOScore>
0.0000

> <Gold.PLP.Chemscore.Metal>
0.0000

> <Gold.Chemscore.Hbonds>
donor molecule, donor type, donor heavy atom, donor atom, acceptor molecule, acceptor atom, score
      P1  H  6896  6909       L1     5  1.00
      P1  H  6931  6943       L1    17  0.83
      P1  H  6934  6947       L1    17  0.67

> <Gold.PLP.Chemscore.Internal.Correction>
0.1207

> <Gold.Rescore>
     Score         DG    S(hbond)    S(metal)    S(lipo)     H(rot)  DE(clash)    DE(int)     intcor
     15.42     -19.11       2.43        0.00      84.64       1.71       0.47       3.21       ----

> <Gold.Chemscore.Fitness>
15.4226

> <Gold.Chemscore.DG>
-19.1064

> <Gold.Chemscore.ZeroCoef>
-5.4800

> <Gold.Chemscore.Hbond>
2.4275

> <Gold.Chemscore.Metal>
0.0000

> <Gold.Chemscore.Lipo>
84.6385

> <Gold.Chemscore.Internal_Hbond>
0.0000

> <Gold.Chemscore.DEClash>
0.4734

> <Gold.Chemscore.DEInternal>
3.2104

> <Gold.Chemscore.Rot>
1.7125

> <Gold.Chemscore.Internal.Correction>
   9.000000E+99

> <Gold.Chemscore.Hbonds>
donor molecule, donor type, donor heavy atom, donor atom, acceptor molecule, acceptor atom, score
      P1  H  6896  6909       L1     5  0.94
      P1  H  6931  6943       L1    17  0.82
      P1  H  6934  6947       L1    17  0.68

> <Gold.Chemscore.Hbond.Weighted>
-8.1077

> <Gold.Chemscore.Metal.Weighted>
-0.0000

> <Gold.Chemscore.Lipo.Weighted>
-9.9027

> <Gold.Chemscore.Internal_Hbond.Weighted>
0.0000

> <Gold.Chemscore.DEClash.Weighted>
0.4734

> <Gold.Chemscore.DEInternal.Weighted>
3.2104

> <Gold.Chemscore.Rot.Weighted>
4.3840

> <Gold.Chemscore.Internal.Correction.Weighted>
   9.000000E+99

> <Gold.Protein.RotatedTorsions>
[ 6907 6896 6895 6894 ] final   19.59 input  -60.11 | X-H torsion
[ 7974 7965 7964 7962 ] final -114.03 input  175.53 | X-H torsion
[ 8008 7997 7996 7995 ] final   15.49 input   59.86 | X-H torsion
[ 10167 10162 10161 10158 ] final -152.74 input  -65.29 | X-H torsion
[ 10718 10713 10712 10709 ] final  -91.06 input   66.30 | X-H torsion
[ 10763 10752 10751 10750 ] final   10.76 input  -60.55 | X-H torsion
[ 11005 11000 10999 10996 ] final  -40.53 input  -57.11 | X-H torsion

> <Gold.Protein.ActiveResidues>
 VAL166  LYS551  ARG553  GLY616  TRP617  ASP618  TYR619  PRO620  LYS621  CYS622 
 ASP623  PHE694  ASN695  SER759  ASP760  ASP761  ALA762  ILE779  LEU786  VAL792 
 PHE793  MET794  SER795  GLU796  ALA797  LYS798  CYS799  TRP800  GLU811  SER814 

> <Gold.Protein.RotatedAtoms>
  151.8832  135.0445  160.0490 H   0  0  0  0  0  0  0  0  0  0  0  0  # atno 6907 bound_to 6896
  152.2496  133.5199  159.5326 H   0  0  0  0  0  0  0  0  0  0  0  0  # atno 6908 bound_to 6896
  150.7079  134.0895  159.3969 H   0  0  0  0  0  0  0  0  0  0  0  0  # atno 6909 bound_to 6896
  145.1250  140.8691  143.3792 H   0  0  0  0  0  0  0  0  0  0  0  0  # atno 7974 bound_to 7965
  154.8633  140.2947  155.5525 H   0  0  0  0  0  0  0  0  0  0  0  0  # atno 8008 bound_to 7997
  156.3020  140.2474  156.3544 H   0  0  0  0  0  0  0  0  0  0  0  0  # atno 8009 bound_to 7997
  154.8894  140.0395  157.1819 H   0  0  0  0  0  0  0  0  0  0  0  0  # atno 8010 bound_to 7997
  139.7155  143.9039  152.2484 H   0  0  0  0  0  0  0  0  0  0  0  0  # atno 10167 bound_to 10162
  155.9991  130.4933  150.5417 H   0  0  0  0  0  0  0  0  0  0  0  0  # atno 10718 bound_to 10713
  153.1998  135.6854  153.8246 H   0  0  0  0  0  0  0  0  0  0  0  0  # atno 10763 bound_to 10752
  153.7516  135.3223  155.3323 H   0  0  0  0  0  0  0  0  0  0  0  0  # atno 10764 bound_to 10752
  154.8165  135.4682  154.0759 H   0  0  0  0  0  0  0  0  0  0  0  0  # atno 10765 bound_to 10752
  141.0181  133.6876  156.2334 H   0  0  0  0  0  0  0  0  0  0  0  0  # atno 11005 bound_to 11000
  145.0699  139.3040  143.5837 LP  0  0  0  0  0  0  0  0  0  0  0  0  # atno 17320 bound_to 7965
  146.3518  140.0169  142.8662 LP  0  0  0  0  0  0  0  0  0  0  0  0  # atno 17321 bound_to 7965
  139.8921  144.6960  150.8759 LP  0  0  0  0  0  0  0  0  0  0  0  0  # atno 17342 bound_to 10162
  140.7743  143.3578  151.1886 LP  0  0  0  0  0  0  0  0  0  0  0  0  # atno 17343 bound_to 10162
  157.3352  131.0707  151.1830 LP  0  0  0  0  0  0  0  0  0  0  0  0  # atno 17370 bound_to 10713
  157.2697  130.6698  149.6013 LP  0  0  0  0  0  0  0  0  0  0  0  0  # atno 17371 bound_to 10713
  140.6620  134.4958  157.5584 LP  0  0  0  0  0  0  0  0  0  0  0  0  # atno 17394 bound_to 11000
  139.9129  134.8306  156.1465 LP  0  0  0  0  0  0  0  0  0  0  0  0  # atno 17395 bound_to 11000

$$$$
