AV-unprocessed.smi:2772|AV-procd|sdf|10669|dock9
  -GOLD-   2272015113D 1   1.00000     0.00000
 Structure written by MMmdl.
 54 56  0  0  0  0  0  0  0  0  2 V2000
  153.7661  142.1042  161.2790 C   0  0  0  0  0  0  0  0  0  0  0  0
  152.7973  142.2581  160.1253 C   0  0  0  0  0  0  0  0  0  0  0  0
  152.6311  143.5000  159.4786 C   0  0  0  0  0  0  0  0  0  0  0  0
  151.7132  143.5829  158.4143 C   0  0  0  0  0  0  0  0  0  0  0  0
  150.9883  142.4333  158.0393 C   0  0  0  0  0  0  0  0  0  0  0  0
  150.0771  142.5421  156.9544 N   0  0  0  0  0  0  0  0  0  0  0  0
  149.2891  141.5878  156.4301 C   0  0  0  0  0  0  0  0  0  0  0  0
  149.2331  140.4198  156.8142 O   0  0  0  0  0  0  0  0  0  0  0  0
  148.5365  142.0737  155.4328 N   0  0  0  0  0  0  0  0  0  0  0  0
  147.5514  141.3062  154.6762 C   0  0  0  0  0  0  0  0  0  0  0  0
  146.5123  140.7014  155.6231 C   0  0  0  0  0  0  0  0  0  0  0  0
  145.5265  139.8007  154.8587 C   0  0  0  0  0  0  0  0  0  0  0  0
  146.2142  138.6927  154.1740 N   0  0  0  0  0  0  0  0  0  0  0  0
  145.2485  137.7876  153.5084 C   0  0  2  0  0  0  0  0  0  0  0  0
  144.1985  137.1831  154.4765 C   0  0  0  0  0  0  0  0  0  0  0  0
  144.8301  136.1755  155.4540 C   0  0  0  0  0  0  0  0  0  0  0  0
  145.5110  135.0779  154.7243 N   0  3  2  0  0  0  0  0  0  0  0  0
  146.0556  134.0488  155.6355 C   0  0  0  0  0  0  0  0  0  0  0  0
  146.5278  135.5835  153.7698 C   0  0  0  0  0  0  0  0  0  0  0  0
  145.9076  136.5869  152.7805 C   0  0  0  0  0  0  0  0  0  0  0  0
  147.1675  139.2731  153.2130 C   0  0  0  0  0  0  0  0  0  0  0  0
  148.2166  140.1591  153.9061 C   0  0  0  0  0  0  0  0  0  0  0  0
  151.2428  141.2324  158.7467 C   0  0  0  0  0  0  0  0  0  0  0  0
  152.1229  141.1444  159.7674 N   0  0  0  0  0  0  0  0  0  0  0  0
  154.3060  143.0319  161.4695 H   0  0  0  0  0  0  0  0  0  0  0  0
  154.4967  141.3247  161.0603 H   0  0  0  0  0  0  0  0  0  0  0  0
  153.2310  141.8286  162.1883 H   0  0  0  0  0  0  0  0  0  0  0  0
  153.1914  144.3701  159.7881 H   0  0  0  0  0  0  0  0  0  0  0  0
  151.5652  144.5208  157.8988 H   0  0  0  0  0  0  0  0  0  0  0  0
  149.9550  143.4725  156.5828 H   0  0  0  0  0  0  0  0  0  0  0  0
  148.6453  143.0462  155.1841 H   0  0  0  0  0  0  0  0  0  0  0  0
  147.0398  141.9666  153.9733 H   0  0  0  0  0  0  0  0  0  0  0  0
  147.0062  140.1180  156.4017 H   0  0  0  0  0  0  0  0  0  0  0  0
  145.9648  141.4958  156.1317 H   0  0  0  0  0  0  0  0  0  0  0  0
  144.8217  139.4303  155.5981 H   0  0  0  0  0  0  0  0  0  0  0  0
  144.9554  140.3891  154.1387 H   0  0  0  0  0  0  0  0  0  0  0  0
  144.7188  138.3809  152.7613 H   0  0  0  0  0  0  0  0  0  0  0  0
  143.6247  137.9339  155.0147 H   0  0  0  0  0  0  0  0  0  0  0  0
  143.4492  136.6567  153.8838 H   0  0  0  0  0  0  0  0  0  0  0  0
  145.5414  136.6803  156.1100 H   0  0  0  0  0  0  0  0  0  0  0  0
  144.0531  135.7553  156.0938 H   0  0  0  0  0  0  0  0  0  0  0  0
  146.8328  134.4660  156.2771 H   0  0  0  0  0  0  0  0  0  0  0  0
  146.4861  133.2218  155.0697 H   0  0  0  0  0  0  0  0  0  0  0  0
  145.2685  133.6422  156.2714 H   0  0  0  0  0  0  0  0  0  0  0  0
  147.3494  136.0495  154.3163 H   0  0  0  0  0  0  0  0  0  0  0  0
  146.9518  134.7443  153.2169 H   0  0  0  0  0  0  0  0  0  0  0  0
  145.1360  136.0670  152.2107 H   0  0  0  0  0  0  0  0  0  0  0  0
  146.6306  136.8855  152.0246 H   0  0  0  0  0  0  0  0  0  0  0  0
  147.7271  138.4958  152.6990 H   0  0  0  0  0  0  0  0  0  0  0  0
  146.6326  139.8431  152.4518 H   0  0  0  0  0  0  0  0  0  0  0  0
  148.9053  140.5570  153.1600 H   0  0  0  0  0  0  0  0  0  0  0  0
  148.8154  139.5492  154.5846 H   0  0  0  0  0  0  0  0  0  0  0  0
  150.7559  140.3043  158.4919 H   0  0  0  0  0  0  0  0  0  0  0  0
  144.8011  134.6217  154.1689 H   0  0  0  0  0  0  0  0  0  0  0  0
  1  2  1  0  0  0  0
  1 25  1  0  0  0  0
  1 26  1  0  0  0  0
  1 27  1  0  0  0  0
  2 24  1  0  0  0  0
  2  3  2  0  0  0  0
  3  4  1  0  0  0  0
  3 28  1  0  0  0  0
  4  5  2  0  0  0  0
  4 29  1  0  0  0  0
  5  6  1  0  0  0  0
  5 23  1  0  0  0  0
  6  7  1  0  0  0  0
  6 30  1  0  0  0  0
  7  8  2  0  0  0  0
  7  9  1  0  0  0  0
  9 10  1  0  0  0  0
  9 31  1  0  0  0  0
 10 22  1  0  0  0  0
 10 11  1  0  0  0  0
 10 32  1  0  0  0  0
 11 12  1  0  0  0  0
 11 33  1  0  0  0  0
 11 34  1  0  0  0  0
 12 13  1  0  0  0  0
 12 35  1  0  0  0  0
 12 36  1  0  0  0  0
 13 14  1  0  0  0  0
 13 21  1  0  0  0  0
 14 20  1  0  0  0  0
 14 15  1  0  0  0  0
 14 37  1  0  0  0  0
 15 16  1  0  0  0  0
 15 38  1  0  0  0  0
 15 39  1  0  0  0  0
 16 17  1  0  0  0  0
 16 40  1  0  0  0  0
 16 41  1  0  0  0  0
 17 18  1  0  0  0  0
 17 19  1  0  0  0  0
 17 54  1  0  0  0  0
 18 42  1  0  0  0  0
 18 43  1  0  0  0  0
 18 44  1  0  0  0  0
 19 20  1  0  0  0  0
 19 45  1  0  0  0  0
 19 46  1  0  0  0  0
 20 47  1  0  0  0  0
 20 48  1  0  0  0  0
 21 22  1  0  0  0  0
 21 49  1  0  0  0  0
 21 50  1  0  0  0  0
 22 51  1  0  0  0  0
 22 52  1  0  0  0  0
 23 24  2  0  0  0  0
 23 53  1  0  0  0  0
M  CHG  1  17   1
M  END
> <s_m_source_file>
AV-unprocessed.smi

> <i_m_source_file_index>
2772

> <i_lp_mmshare_version>
43012

> <i_f3d_flags>
0

> <s_epik_input>
W0NIM11jMVtjSF1bY0hdYyhbY0hdbjEpW05IXUMoPU8pW05IXVtDSF0yW0NIMl1bQ0gyXU4oW0NIMl1bQ0gyXTIpW0NIXTNbQ0gyXVtDSDJdTihbQ0gzXSlbQ0gyXVtDSDJdMw==

> <s_epik_cmdline>
J2VwaWtfcHl0aG9uJywgJy1waCcsICc3LjAnLCAnLXRuJywgJzgnLCAnLW1hJywgJzIwMCcsICctbWV0YWxfYmluZGluZycsICctaW1hZScsICc8aW5maWxlLm1hZT4nLCAnLW9tYWUnLCAnPG91dGZpbGUubWFlPic=

> <r_epik_Ionization_Penalty>
1.02952

> <r_epik_Ionization_Penalty_Charging>
0.000974969

> <r_epik_Ionization_Penalty_Neutral>
1.02854

> <r_epik_State_Penalty>
1.11259

> <r_epik_Charging_Adjusted_Penalty>
1.11356

> <i_epik_Tot_Q>
1

> <i_epik_Tot_abs_Q>
1

> <r_epik_Metal_State_Penalty>
1.1091

> <b_epik_Metal_Only>
0

> <s_lp_Force_Field>
OPLS_2005

> <r_lp_Energy>
36.1162

> <b_lp_Chiralities_Consistent>
1

> <s_lp_Variant>
AV-unprocessed.smi:2772-6

> <Gold.Version>
5.8.1

> <Gold.Id.Protein>
6NUR|6NUR_protein|mol2

> <Gold.PLP.Fitness>
36.7786

> <Gold.PLP.PLP>
-30.8232

> <Gold.PLP.part.hbond>
-2.0000

> <Gold.PLP.part.metal>
0.0000

> <Gold.PLP.part.buried>
-0.3992

> <Gold.PLP.part.nonpolar>
-27.4347

> <Gold.PLP.part.repulsive>
0.2957

> <Gold.PLP.ligand.clash>
0.0000

> <Gold.PLP.ligand.torsion>
0.0119

> <Gold.PLP.Chemscore.Hbond>
1.9920

> <Gold.PLP.Chemscore.CHOScore>
0.0000

> <Gold.PLP.Chemscore.Metal>
0.0000

> <Gold.Chemscore.Hbonds>
donor molecule, donor type, donor heavy atom, donor atom, acceptor molecule, acceptor atom, score
      L1  H     6    30       P1  8028  0.99
      L1  H     9    31       P1  8028  1.00

> <Gold.PLP.Chemscore.Internal.Correction>
0.0032

> <Gold.Rescore>
     Score         DG    S(hbond)    S(metal)    S(lipo)     H(rot)  DE(clash)    DE(int)     intcor
     16.92     -19.52       1.91        0.00      91.85       1.20       0.11       2.50       ----

> <Gold.Chemscore.Fitness>
16.9183

> <Gold.Chemscore.DG>
-19.5237

> <Gold.Chemscore.ZeroCoef>
-5.4800

> <Gold.Chemscore.Hbond>
1.9051

> <Gold.Chemscore.Metal>
0.0000

> <Gold.Chemscore.Lipo>
91.8451

> <Gold.Chemscore.Internal_Hbond>
0.0000

> <Gold.Chemscore.DEClash>
0.1084

> <Gold.Chemscore.DEInternal>
2.4970

> <Gold.Chemscore.Rot>
1.1974

> <Gold.Chemscore.Internal.Correction>
   9.000000E+99

> <Gold.Chemscore.Hbonds>
donor molecule, donor type, donor heavy atom, donor atom, acceptor molecule, acceptor atom, score
      L1  H     6    30       P1  8028  0.94
      L1  H     9    31       P1  8028  0.95

> <Gold.Chemscore.Hbond.Weighted>
-6.3630

> <Gold.Chemscore.Metal.Weighted>
-0.0000

> <Gold.Chemscore.Lipo.Weighted>
-10.7459

> <Gold.Chemscore.Internal_Hbond.Weighted>
0.0000

> <Gold.Chemscore.DEClash.Weighted>
0.1084

> <Gold.Chemscore.DEInternal.Weighted>
2.4970

> <Gold.Chemscore.Rot.Weighted>
3.0652

> <Gold.Chemscore.Internal.Correction.Weighted>
   9.000000E+99

> <Gold.Protein.RotatedTorsions>
[ 6907 6896 6895 6894 ] final -115.02 input  -60.11 | X-H torsion
[ 7974 7965 7964 7962 ] final  -25.24 input  175.53 | X-H torsion
[ 8008 7997 7996 7995 ] final    3.34 input   59.86 | X-H torsion
[ 10167 10162 10161 10158 ] final  -28.38 input  -65.29 | X-H torsion
[ 10718 10713 10712 10709 ] final  -68.13 input   66.30 | X-H torsion
[ 10763 10752 10751 10750 ] final  -59.75 input  -60.55 | X-H torsion
[ 11005 11000 10999 10996 ] final -142.49 input  -57.11 | X-H torsion

> <Gold.Protein.ActiveResidues>
 VAL166  LYS551  ARG553  GLY616  TRP617  ASP618  TYR619  PRO620  LYS621  CYS622 
 ASP623  PHE694  ASN695  SER759  ASP760  ASP761  ALA762  ILE779  LEU786  VAL792 
 PHE793  MET794  SER795  GLU796  ALA797  LYS798  CYS799  TRP800  GLU811  SER814 

> <Gold.Protein.RotatedAtoms>
  150.7946  133.8717  159.3260 H   0  0  0  0  0  0  0  0  0  0  0  0  # atno 6907 bound_to 6896
  151.6546  135.0995  160.0177 H   0  0  0  0  0  0  0  0  0  0  0  0  # atno 6908 bound_to 6896
  152.4026  133.6801  159.6364 H   0  0  0  0  0  0  0  0  0  0  0  0  # atno 6909 bound_to 6896
  146.1504  140.4860  142.8614 H   0  0  0  0  0  0  0  0  0  0  0  0  # atno 7974 bound_to 7965
  154.7024  140.2676  155.6706 H   0  0  0  0  0  0  0  0  0  0  0  0  # atno 8008 bound_to 7997
  156.2769  140.2769  156.1563 H   0  0  0  0  0  0  0  0  0  0  0  0  # atno 8009 bound_to 7997
  155.0746  140.0372  157.2609 H   0  0  0  0  0  0  0  0  0  0  0  0  # atno 8010 bound_to 7997
  140.7270  143.4015  151.1257 H   0  0  0  0  0  0  0  0  0  0  0  0  # atno 10167 bound_to 10162
  156.0521  130.4289  150.1955 H   0  0  0  0  0  0  0  0  0  0  0  0  # atno 10718 bound_to 10713
  154.2586  135.6312  153.5266 H   0  0  0  0  0  0  0  0  0  0  0  0  # atno 10763 bound_to 10752
  152.9899  135.5582  154.5729 H   0  0  0  0  0  0  0  0  0  0  0  0  # atno 10764 bound_to 10752
  154.5273  135.2886  155.1186 H   0  0  0  0  0  0  0  0  0  0  0  0  # atno 10765 bound_to 10752
  140.8220  134.2620  157.4896 H   0  0  0  0  0  0  0  0  0  0  0  0  # atno 11005 bound_to 11000
  144.7897  140.6006  143.6550 LP  0  0  0  0  0  0  0  0  0  0  0  0  # atno 17320 bound_to 7965
  145.4838  139.1493  143.3747 LP  0  0  0  0  0  0  0  0  0  0  0  0  # atno 17321 bound_to 7965
  139.7635  143.8599  152.3105 LP  0  0  0  0  0  0  0  0  0  0  0  0  # atno 17342 bound_to 10162
  139.8494  144.7172  150.9233 LP  0  0  0  0  0  0  0  0  0  0  0  0  # atno 17343 bound_to 10162
  157.0036  130.9930  151.3384 LP  0  0  0  0  0  0  0  0  0  0  0  0  # atno 17370 bound_to 10713
  157.5458  130.8149  149.8084 LP  0  0  0  0  0  0  0  0  0  0  0  0  # atno 17371 bound_to 10713
  139.8708  134.9540  156.4163 LP  0  0  0  0  0  0  0  0  0  0  0  0  # atno 17394 bound_to 11000
  140.9089  133.7726  155.9768 LP  0  0  0  0  0  0  0  0  0  0  0  0  # atno 17395 bound_to 11000

$$$$
