AV-unprocessed.smi:765|AV-procd|sdf|3649|dock10
  -GOLD-   22720 1 53D 1   1.00000     0.00000
 Structure written by MMmdl.
 39 40  0  0  0  0  0  0  0  0  1 V2000
  151.2256  141.2690  156.6910 C   0  0  0  0  0  0  0  0  0  0  0  0
  151.3431  139.7502  156.8816 C   0  0  2  0  0  0  0  0  0  0  0  0
  151.6656  139.0417  155.5539 C   0  0  0  0  0  0  0  0  0  0  0  0
  151.7658  137.5210  155.7362 C   0  0  0  0  0  0  0  0  0  0  0  0
  150.4813  136.9573  156.3646 C   0  0  0  0  0  0  0  0  0  0  0  0
  150.1446  137.6281  157.7148 C   0  0  2  0  0  0  0  0  0  0  0  0
  151.1898  137.2918  158.7028 C   0  0  0  0  0  0  0  0  0  0  0  0
  152.0080  137.0280  159.4775 N   0  0  0  0  0  0  0  0  0  0  0  0
  148.8382  137.1181  158.1349 N   0  0  0  0  0  0  0  0  0  0  0  0
  148.5143  135.8410  158.3997 C   0  0  0  0  0  0  0  0  0  0  0  0
  149.3029  134.9032  158.2790 O   0  0  0  0  0  0  0  0  0  0  0  0
  147.0803  135.6022  158.8961 C   0  0  1  0  0  0  0  0  0  0  0  0
  146.3542  134.4863  158.1224 C   0  0  0  0  0  0  0  0  0  0  0  0
  147.0850  135.3277  160.3272 N   0  0  0  0  0  0  0  0  0  0  0  0
  147.5487  136.1193  161.3606 C   0  0  0  0  0  0  0  0  0  0  0  0
  147.3347  135.4390  162.5247 C   0  0  0  0  0  0  0  0  0  0  0  0
  146.7315  134.2231  162.0988 C   0  0  0  0  0  0  0  0  0  0  0  0
  146.5835  134.1595  160.7856 N   0  0  0  0  0  0  0  0  0  0  0  0
  150.0615  139.1616  157.5058 C   0  0  0  0  0  0  0  0  0  0  0  0
  150.4128  141.5216  156.0092 H   0  0  0  0  0  0  0  0  0  0  0  0
  152.1460  141.6854  156.2808 H   0  0  0  0  0  0  0  0  0  0  0  0
  151.0320  141.7701  157.6400 H   0  0  0  0  0  0  0  0  0  0  0  0
  152.1709  139.5716  157.5689 H   0  0  0  0  0  0  0  0  0  0  0  0
  150.8923  139.2679  154.8182 H   0  0  0  0  0  0  0  0  0  0  0  0
  152.6013  139.4232  155.1438 H   0  0  0  0  0  0  0  0  0  0  0  0
  151.9462  137.0445  154.7724 H   0  0  0  0  0  0  0  0  0  0  0  0
  152.6250  137.2804  156.3631 H   0  0  0  0  0  0  0  0  0  0  0  0
  149.6559  137.0989  155.6648 H   0  0  0  0  0  0  0  0  0  0  0  0
  150.5848  135.8794  156.4979 H   0  0  0  0  0  0  0  0  0  0  0  0
  148.1145  137.8103  158.2646 H   0  0  0  0  0  0  0  0  0  0  0  0
  146.5249  136.5275  158.7292 H   0  0  0  0  0  0  0  0  0  0  0  0
  146.3346  134.6960  157.0524 H   0  0  0  0  0  0  0  0  0  0  0  0
  145.3202  134.3944  158.4558 H   0  0  0  0  0  0  0  0  0  0  0  0
  146.8326  133.5161  158.2638 H   0  0  0  0  0  0  0  0  0  0  0  0
  147.9850  137.0914  161.1823 H   0  0  0  0  0  0  0  0  0  0  0  0
  147.5735  135.7606  163.5274 H   0  0  0  0  0  0  0  0  0  0  0  0
  146.3985  133.3904  162.7007 H   0  0  0  0  0  0  0  0  0  0  0  0
  149.8682  139.6590  158.4570 H   0  0  0  0  0  0  0  0  0  0  0  0
  149.2104  139.3968  156.8642 H   0  0  0  0  0  0  0  0  0  0  0  0
  1  2  1  0  0  0  0
  1 20  1  0  0  0  0
  1 21  1  0  0  0  0
  1 22  1  0  0  0  0
  2 19  1  0  0  0  0
  2  3  1  0  0  0  0
  2 23  1  0  0  0  0
  3  4  1  0  0  0  0
  3 24  1  0  0  0  0
  3 25  1  0  0  0  0
  4  5  1  0  0  0  0
  4 26  1  0  0  0  0
  4 27  1  0  0  0  0
  5  6  1  0  0  0  0
  5 28  1  0  0  0  0
  5 29  1  0  0  0  0
  6  7  1  0  0  0  0
  6  9  1  0  0  0  0
  6 19  1  0  0  0  0
  7  8  3  0  0  0  0
  9 10  1  0  0  0  0
  9 30  1  0  0  0  0
 10 11  2  0  0  0  0
 10 12  1  0  0  0  0
 12 13  1  0  0  0  0
 12 14  1  0  0  0  0
 12 31  1  0  0  0  0
 13 32  1  0  0  0  0
 13 33  1  0  0  0  0
 13 34  1  0  0  0  0
 14 18  1  0  0  0  0
 14 15  1  0  0  0  0
 15 16  2  0  0  0  0
 15 35  1  0  0  0  0
 16 17  1  0  0  0  0
 16 36  1  0  0  0  0
 17 18  2  0  0  0  0
 17 37  1  0  0  0  0
 19 38  1  0  0  0  0
 19 39  1  0  0  0  0
M  END
> <s_m_source_file>
AV-unprocessed.smi

> <i_m_source_file_index>
765

> <i_lp_mmshare_version>
43012

> <i_f3d_flags>
0

> <s_epik_input>
W0NIM11bQ0BASF0oW0NIMl0xKVtDSDJdW0NIMl1bQ0gyXVtDQEBdMShDI04pW05IXUMoPU8pW0NASF0oW0NIM10pbjJbY0hdW2NIXVtjSF1uMg==

> <s_epik_cmdline>
J2VwaWtfcHl0aG9uJywgJy1waCcsICc3LjAnLCAnLXRuJywgJzgnLCAnLW1hJywgJzIwMCcsICctbWV0YWxfYmluZGluZycsICctaW1hZScsICc8aW5maWxlLm1hZT4nLCAnLW9tYWUnLCAnPG91dGZpbGUubWFlPic=

> <r_lp_tautomer_probability>
1

> <r_epik_Ionization_Penalty>
2.71142e-05

> <r_epik_Ionization_Penalty_Charging>
0

> <r_epik_Ionization_Penalty_Neutral>
2.71142e-05

> <r_epik_State_Penalty>
-0

> <r_epik_Charging_Adjusted_Penalty>
0

> <i_epik_Tot_Q>
0

> <i_epik_Tot_abs_Q>
0

> <r_epik_Metal_State_Penalty>
-0

> <b_epik_Metal_Only>
0

> <s_lp_Force_Field>
OPLS_2005

> <r_lp_Energy>
10.7608

> <b_lp_Chiralities_Consistent>
1

> <s_lp_Variant>
AV-unprocessed.smi:765-7

> <Gold.Version>
5.8.1

> <Gold.Id.Protein>
6NUR|6NUR_protein|mol2

> <Gold.PLP.Fitness>
34.5244

> <Gold.PLP.PLP>
-29.0589

> <Gold.PLP.part.hbond>
-2.0000

> <Gold.PLP.part.metal>
0.0000

> <Gold.PLP.part.buried>
-5.0060

> <Gold.PLP.part.nonpolar>
-22.5742

> <Gold.PLP.part.repulsive>
0.1222

> <Gold.PLP.ligand.clash>
0.0000

> <Gold.PLP.ligand.torsion>
0.2861

> <Gold.PLP.Chemscore.Hbond>
1.9913

> <Gold.PLP.Chemscore.CHOScore>
0.0000

> <Gold.PLP.Chemscore.Metal>
0.0000

> <Gold.Chemscore.Hbonds>
donor molecule, donor type, donor heavy atom, donor atom, acceptor molecule, acceptor atom, score
      P1  H  6896  6907       L1    11  1.00
      P1  H  6896  6908       L1     8  1.00

> <Gold.PLP.Chemscore.Internal.Correction>
0.0639

> <Gold.Rescore>
     Score         DG    S(hbond)    S(metal)    S(lipo)     H(rot)  DE(clash)    DE(int)     intcor
     14.24     -15.55       1.90        0.00      62.87       1.42       0.01       1.30       ----

> <Gold.Chemscore.Fitness>
14.2421

> <Gold.Chemscore.DG>
-15.5509

> <Gold.Chemscore.ZeroCoef>
-5.4800

> <Gold.Chemscore.Hbond>
1.9000

> <Gold.Chemscore.Metal>
0.0000

> <Gold.Chemscore.Lipo>
62.8718

> <Gold.Chemscore.Internal_Hbond>
0.0000

> <Gold.Chemscore.DEClash>
0.0126

> <Gold.Chemscore.DEInternal>
1.2962

> <Gold.Chemscore.Rot>
1.4183

> <Gold.Chemscore.Internal.Correction>
   9.000000E+99

> <Gold.Chemscore.Hbonds>
donor molecule, donor type, donor heavy atom, donor atom, acceptor molecule, acceptor atom, score
      P1  H  6896  6907       L1    11  0.97
      P1  H  6896  6908       L1     8  0.74

> <Gold.Chemscore.Hbond.Weighted>
-6.3459

> <Gold.Chemscore.Metal.Weighted>
-0.0000

> <Gold.Chemscore.Lipo.Weighted>
-7.3560

> <Gold.Chemscore.Internal_Hbond.Weighted>
0.0000

> <Gold.Chemscore.DEClash.Weighted>
0.0126

> <Gold.Chemscore.DEInternal.Weighted>
1.2962

> <Gold.Chemscore.Rot.Weighted>
3.6309

> <Gold.Chemscore.Internal.Correction.Weighted>
   9.000000E+99

> <Gold.Protein.RotatedTorsions>
[ 6907 6896 6895 6894 ] final -100.86 input  -60.11 | X-H torsion
[ 7974 7965 7964 7962 ] final   61.41 input  175.53 | X-H torsion
[ 8008 7997 7996 7995 ] final  120.77 input   59.86 | X-H torsion
[ 10167 10162 10161 10158 ] final   75.92 input  -65.29 | X-H torsion
[ 10718 10713 10712 10709 ] final   71.06 input   66.30 | X-H torsion
[ 10763 10752 10751 10750 ] final  104.22 input  -60.55 | X-H torsion
[ 11005 11000 10999 10996 ] final   55.46 input  -57.11 | X-H torsion

> <Gold.Protein.ActiveResidues>
 VAL166  LYS551  ARG553  GLY616  TRP617  ASP618  TYR619  PRO620  LYS621  CYS622 
 ASP623  PHE694  ASN695  SER759  ASP760  ASP761  ALA762  ILE779  LEU786  VAL792 
 PHE793  MET794  SER795  GLU796  ALA797  LYS798  CYS799  TRP800  GLU811  SER814 

> <Gold.Protein.RotatedAtoms>
  150.7132  134.0822  159.3901 H   0  0  0  0  0  0  0  0  0  0  0  0  # atno 6907 bound_to 6896
  151.8806  135.0452  160.0498 H   0  0  0  0  0  0  0  0  0  0  0  0  # atno 6908 bound_to 6896
  152.2570  133.5229  159.5396 H   0  0  0  0  0  0  0  0  0  0  0  0  # atno 6909 bound_to 6896
  145.8850  139.3470  143.0683 H   0  0  0  0  0  0  0  0  0  0  0  0  # atno 7974 bound_to 7965
  156.2657  140.2823  156.1202 H   0  0  0  0  0  0  0  0  0  0  0  0  # atno 8008 bound_to 7997
  155.1164  140.0391  157.2755 H   0  0  0  0  0  0  0  0  0  0  0  0  # atno 8009 bound_to 7997
  154.6703  140.2586  155.7020 H   0  0  0  0  0  0  0  0  0  0  0  0  # atno 8010 bound_to 7997
  139.9978  144.5709  150.7763 H   0  0  0  0  0  0  0  0  0  0  0  0  # atno 10167 bound_to 10162
  157.6432  130.9509  150.0737 H   0  0  0  0  0  0  0  0  0  0  0  0  # atno 10718 bound_to 10713
  153.3630  135.3950  155.1732 H   0  0  0  0  0  0  0  0  0  0  0  0  # atno 10763 bound_to 10752
  154.8682  135.3684  154.5075 H   0  0  0  0  0  0  0  0  0  0  0  0  # atno 10764 bound_to 10752
  153.5536  135.7082  153.5640 H   0  0  0  0  0  0  0  0  0  0  0  0  # atno 10765 bound_to 10752
  140.0606  134.5608  155.9157 H   0  0  0  0  0  0  0  0  0  0  0  0  # atno 11005 bound_to 11000
  145.8977  140.9263  143.0519 LP  0  0  0  0  0  0  0  0  0  0  0  0  # atno 17320 bound_to 7965
  144.6728  140.0991  143.7461 LP  0  0  0  0  0  0  0  0  0  0  0  0  # atno 17321 bound_to 7965
  140.7430  143.2840  151.3515 LP  0  0  0  0  0  0  0  0  0  0  0  0  # atno 17342 bound_to 10162
  139.6293  144.0751  152.2462 LP  0  0  0  0  0  0  0  0  0  0  0  0  # atno 17343 bound_to 10162
  156.1733  130.3647  149.9134 LP  0  0  0  0  0  0  0  0  0  0  0  0  # atno 17370 bound_to 10713
  156.7105  130.8968  151.3609 LP  0  0  0  0  0  0  0  0  0  0  0  0  # atno 17371 bound_to 10713
  141.1971  133.6595  156.5725 LP  0  0  0  0  0  0  0  0  0  0  0  0  # atno 17394 bound_to 11000
  140.3777  134.7551  157.4640 LP  0  0  0  0  0  0  0  0  0  0  0  0  # atno 17395 bound_to 11000

$$$$
