AV-unprocessed.smi:2849|AV-procd|sdf|10962|dock8
  -GOLD-   2272015413D 1   1.00000     0.00000
 Structure written by MMmdl.
 56 59  0  0  0  0  0  0  0  0  3 V2000
  145.7735  132.7807  154.3545 C   0  0  0  0  0  0  0  0  0  0  0  0
  144.6571  133.6224  153.8621 N   0  3  2  0  0  0  0  0  0  0  0  0
  144.8050  134.1027  152.4665 C   0  0  1  0  0  0  0  0  0  0  0  0
  143.4246  134.5719  151.9493 C   0  0  0  0  0  0  0  0  0  0  0  0
  142.7289  135.5990  152.8664 C   0  0  0  0  0  0  0  0  0  0  0  0
  142.8752  135.2492  154.3618 C   0  0  0  0  0  0  0  0  0  0  0  0
  144.2855  134.7486  154.7528 C   0  0  2  0  0  0  0  0  0  0  0  0
  145.3843  135.8416  154.7674 C   0  0  0  0  0  0  0  0  0  0  0  0
  145.8389  136.3174  153.3679 C   0  0  1  0  0  0  0  0  0  0  0  0
  147.1431  136.9704  153.4783 N   0  0  0  0  0  0  0  0  0  0  0  0
  147.4921  137.8812  154.3994 C   0  0  0  0  0  0  0  0  0  0  0  0
  146.7358  138.2842  155.2827 O   0  0  0  0  0  0  0  0  0  0  0  0
  148.7546  138.3026  154.2114 N   0  0  0  0  0  0  0  0  0  0  0  0
  149.5093  139.2070  155.0066 C   0  0  0  0  0  0  0  0  0  0  0  0
  150.9062  139.2528  154.8089 C   0  0  0  0  0  0  0  0  0  0  0  0
  151.6958  140.1185  155.5929 C   0  0  0  0  0  0  0  0  0  0  0  0
  151.0761  140.9214  156.5786 C   0  0  0  0  0  0  0  0  0  0  0  0
  151.7689  141.8142  157.4085 N   0  0  0  0  0  0  0  0  0  0  0  0
  151.3104  143.1932  157.3654 C   0  0  0  0  0  0  0  0  0  0  0  0
  151.8963  143.8572  158.6135 C   0  0  0  0  0  0  0  0  0  0  0  0
  152.1789  142.7003  159.5792 C   0  0  0  0  0  0  0  0  0  0  0  0
  151.7811  141.4363  158.8114 C   0  0  0  0  0  0  0  0  0  0  0  0
  149.7376  140.8433  156.7425 N   0  3  0  0  0  0  0  0  0  0  0  0
  148.9445  140.0305  156.0112 C   0  0  0  0  0  0  0  0  0  0  0  0
  145.9341  135.1569  152.3505 C   0  0  0  0  0  0  0  0  0  0  0  0
  146.7105  133.3329  154.4207 H   0  0  0  0  0  0  0  0  0  0  0  0
  145.9293  131.9299  153.6908 H   0  0  0  0  0  0  0  0  0  0  0  0
  145.5432  132.3871  155.3450 H   0  0  0  0  0  0  0  0  0  0  0  0
  145.0925  133.2502  151.8492 H   0  0  0  0  0  0  0  0  0  0  0  0
  143.5117  134.9718  150.9384 H   0  0  0  0  0  0  0  0  0  0  0  0
  142.7777  133.6974  151.8673 H   0  0  0  0  0  0  0  0  0  0  0  0
  143.1061  136.5994  152.6717 H   0  0  0  0  0  0  0  0  0  0  0  0
  141.6707  135.6551  152.6095 H   0  0  0  0  0  0  0  0  0  0  0  0
  142.5889  136.1038  154.9760 H   0  0  0  0  0  0  0  0  0  0  0  0
  142.1581  134.4617  154.5972 H   0  0  0  0  0  0  0  0  0  0  0  0
  144.2032  134.3578  155.7681 H   0  0  0  0  0  0  0  0  0  0  0  0
  145.0510  136.6966  155.3567 H   0  0  0  0  0  0  0  0  0  0  0  0
  146.2471  135.4444  155.3036 H   0  0  0  0  0  0  0  0  0  0  0  0
  145.1143  137.0403  153.0031 H   0  0  0  0  0  0  0  0  0  0  0  0
  147.8357  136.7108  152.7910 H   0  0  0  0  0  0  0  0  0  0  0  0
  149.2213  137.9571  153.3856 H   0  0  0  0  0  0  0  0  0  0  0  0
  151.3740  138.6335  154.0574 H   0  0  0  0  0  0  0  0  0  0  0  0
  152.7632  140.1616  155.4324 H   0  0  0  0  0  0  0  0  0  0  0  0
  151.6470  143.6892  156.4544 H   0  0  0  0  0  0  0  0  0  0  0  0
  150.2215  143.2436  157.3924 H   0  0  0  0  0  0  0  0  0  0  0  0
  152.8273  144.3696  158.3679 H   0  0  0  0  0  0  0  0  0  0  0  0
  151.2133  144.5950  159.0358 H   0  0  0  0  0  0  0  0  0  0  0  0
  153.2398  142.6764  159.8310 H   0  0  0  0  0  0  0  0  0  0  0  0
  151.6189  142.7927  160.5102 H   0  0  0  0  0  0  0  0  0  0  0  0
  150.7914  141.1010  159.1248 H   0  0  0  0  0  0  0  0  0  0  0  0
  152.4841  140.6221  158.9903 H   0  0  0  0  0  0  0  0  0  0  0  0
  147.8976  140.0646  156.2722 H   0  0  0  0  0  0  0  0  0  0  0  0
  146.8874  134.6446  152.4873 H   0  0  0  0  0  0  0  0  0  0  0  0
  145.9677  135.5573  151.3365 H   0  0  0  0  0  0  0  0  0  0  0  0
  143.8564  133.0064  153.8539 H   0  0  0  0  0  0  0  0  0  0  0  0
  149.3026  141.4247  157.4593 H   0  0  0  0  0  0  0  0  0  0  0  0
  1  2  1  0  0  0  0
  1 26  1  0  0  0  0
  1 27  1  0  0  0  0
  1 28  1  0  0  0  0
  2  7  1  0  0  0  0
  2  3  1  0  0  0  0
  2 55  1  0  0  0  0
  3 25  1  0  0  0  0
  3  4  1  0  0  0  0
  3 29  1  0  0  0  0
  4  5  1  0  0  0  0
  4 30  1  0  0  0  0
  4 31  1  0  0  0  0
  5  6  1  0  0  0  0
  5 32  1  0  0  0  0
  5 33  1  0  0  0  0
  6  7  1  0  0  0  0
  6 34  1  0  0  0  0
  6 35  1  0  0  0  0
  7  8  1  0  0  0  0
  7 36  1  0  0  0  0
  8  9  1  0  0  0  0
  8 37  1  0  0  0  0
  8 38  1  0  0  0  0
  9 10  1  0  0  0  0
  9 25  1  0  0  0  0
  9 39  1  0  0  0  0
 10 11  1  0  0  0  0
 10 40  1  0  0  0  0
 11 12  2  0  0  0  0
 11 13  1  0  0  0  0
 13 14  1  0  0  0  0
 13 41  1  0  0  0  0
 14 24  1  0  0  0  0
 14 15  2  0  0  0  0
 15 16  1  0  0  0  0
 15 42  1  0  0  0  0
 16 17  2  0  0  0  0
 16 43  1  0  0  0  0
 17 18  1  0  0  0  0
 17 23  1  0  0  0  0
 18 22  1  0  0  0  0
 18 19  1  0  0  0  0
 19 20  1  0  0  0  0
 19 44  1  0  0  0  0
 19 45  1  0  0  0  0
 20 21  1  0  0  0  0
 20 46  1  0  0  0  0
 20 47  1  0  0  0  0
 21 22  1  0  0  0  0
 21 48  1  0  0  0  0
 21 49  1  0  0  0  0
 22 50  1  0  0  0  0
 22 51  1  0  0  0  0
 23 24  2  0  0  0  0
 23 56  1  0  0  0  0
 24 52  1  0  0  0  0
 25 53  1  0  0  0  0
 25 54  1  0  0  0  0
M  CHG  1   2   1
M  CHG  1  23   1
M  END
> <s_m_source_file>
AV-unprocessed.smi

> <i_m_source_file_index>
2849

> <i_lp_mmshare_version>
43012

> <i_f3d_flags>
0

> <s_epik_input>
W0NIMl0xW0NIMl1bQ0gyXVtDQEhdKE4oW0NIM10pW0NIXTEyKVtDSDJdW0NASF0oW0NIMl0yKVtOSF1DKD1PKVtOSF1jM1tjSF1bY0hdYyhuW2NIXTMpTjRbQ0gyXVtDSDJdW0NIMl1bQ0gyXTQ=

> <s_epik_cmdline>
J2VwaWtfcHl0aG9uJywgJy1waCcsICc3LjAnLCAnLXRuJywgJzgnLCAnLW1hJywgJzIwMCcsICctbWV0YWxfYmluZGluZycsICctaW1hZScsICc8aW5maWxlLm1hZT4nLCAnLW9tYWUnLCAnPG91dGZpbGUubWFlPic=

> <r_lp_tautomer_probability>
0.999994

> <r_epik_Ionization_Penalty>
1.2404

> <r_epik_Ionization_Penalty_Charging>
1.24038

> <r_epik_Ionization_Penalty_Neutral>
1.86921e-05

> <r_epik_State_Penalty>
1.30821

> <r_epik_Charging_Adjusted_Penalty>
2.54859

> <i_epik_Tot_Q>
2

> <i_epik_Tot_abs_Q>
2

> <r_epik_Metal_State_Penalty>
1.37823

> <b_epik_Metal_Only>
0

> <s_lp_Force_Field>
OPLS_2005

> <r_lp_Energy>
73.3774

> <b_lp_Chiralities_Consistent>
1

> <s_lp_Variant>
AV-unprocessed.smi:2849-6

> <Gold.Version>
5.8.1

> <Gold.Id.Protein>
6NUR|6NUR_protein|mol2

> <Gold.PLP.Fitness>
41.7288

> <Gold.PLP.PLP>
-32.3618

> <Gold.PLP.part.hbond>
-2.6915

> <Gold.PLP.part.metal>
0.0000

> <Gold.PLP.part.buried>
-1.5599

> <Gold.PLP.part.nonpolar>
-29.1876

> <Gold.PLP.part.repulsive>
0.0996

> <Gold.PLP.ligand.clash>
0.0000

> <Gold.PLP.ligand.torsion>
0.2468

> <Gold.PLP.Chemscore.Hbond>
3.2803

> <Gold.PLP.Chemscore.CHOScore>
0.0000

> <Gold.PLP.Chemscore.Metal>
0.0000

> <Gold.Chemscore.Hbonds>
donor molecule, donor type, donor heavy atom, donor atom, acceptor molecule, acceptor atom, score
      L1  H     2    55       P1 10957  2.00
      L1  H    10    40       P1  7948  0.99
      L1  H    13    41       P1  7948  0.28

> <Gold.PLP.Chemscore.Internal.Correction>
0.0197

> <Gold.Rescore>
     Score         DG    S(hbond)    S(metal)    S(lipo)     H(rot)  DE(clash)    DE(int)     intcor
     18.49     -21.46       2.52        0.00      90.56       1.19       0.14       2.83       ----

> <Gold.Chemscore.Fitness>
18.4925

> <Gold.Chemscore.DG>
-21.4629

> <Gold.Chemscore.ZeroCoef>
-5.4800

> <Gold.Chemscore.Hbond>
2.5235

> <Gold.Chemscore.Metal>
0.0000

> <Gold.Chemscore.Lipo>
90.5600

> <Gold.Chemscore.Internal_Hbond>
0.0000

> <Gold.Chemscore.DEClash>
0.1406

> <Gold.Chemscore.DEInternal>
2.8298

> <Gold.Chemscore.Rot>
1.1879

> <Gold.Chemscore.Internal.Correction>
   9.000000E+99

> <Gold.Chemscore.Hbonds>
donor molecule, donor type, donor heavy atom, donor atom, acceptor molecule, acceptor atom, score
      L1  H     2    55       P1 10957  0.90
      L1  H    10    40       P1  7948  0.92
      L1  H    13    41       P1  7948  0.27

> <Gold.Chemscore.Hbond.Weighted>
-8.4284

> <Gold.Chemscore.Metal.Weighted>
-0.0000

> <Gold.Chemscore.Lipo.Weighted>
-10.5955

> <Gold.Chemscore.Internal_Hbond.Weighted>
0.0000

> <Gold.Chemscore.DEClash.Weighted>
0.1406

> <Gold.Chemscore.DEInternal.Weighted>
2.8298

> <Gold.Chemscore.Rot.Weighted>
3.0410

> <Gold.Chemscore.Internal.Correction.Weighted>
   9.000000E+99

> <Gold.Protein.RotatedTorsions>
[ 6907 6896 6895 6894 ] final   65.16 input  -60.11 | X-H torsion
[ 7974 7965 7964 7962 ] final  144.38 input  175.53 | X-H torsion
[ 8008 7997 7996 7995 ] final   40.82 input   59.86 | X-H torsion
[ 10167 10162 10161 10158 ] final  -95.34 input  -65.29 | X-H torsion
[ 10718 10713 10712 10709 ] final -156.51 input   66.30 | X-H torsion
[ 10763 10752 10751 10750 ] final -123.92 input  -60.55 | X-H torsion
[ 11005 11000 10999 10996 ] final -141.10 input  -57.11 | X-H torsion

> <Gold.Protein.ActiveResidues>
 VAL166  LYS551  ARG553  GLY616  TRP617  ASP618  TYR619  PRO620  LYS621  CYS622 
 ASP623  PHE694  ASN695  SER759  ASP760  ASP761  ALA762  ILE779  LEU786  VAL792 
 PHE793  MET794  SER795  GLU796  ALA797  LYS798  CYS799  TRP800  GLU811  SER814 

> <Gold.Protein.RotatedAtoms>
  152.4387  134.5635  159.9900 H   0  0  0  0  0  0  0  0  0  0  0  0  # atno 6907 bound_to 6896
  151.5739  133.3380  159.3003 H   0  0  0  0  0  0  0  0  0  0  0  0  # atno 6908 bound_to 6896
  150.8289  134.7567  159.6901 H   0  0  0  0  0  0  0  0  0  0  0  0  # atno 6909 bound_to 6896
  144.8841  139.5656  143.5829 H   0  0  0  0  0  0  0  0  0  0  0  0  # atno 7974 bound_to 7965
  155.2594  140.3358  155.4274 H   0  0  0  0  0  0  0  0  0  0  0  0  # atno 8008 bound_to 7997
  156.2181  140.1797  156.7584 H   0  0  0  0  0  0  0  0  0  0  0  0  # atno 8009 bound_to 7997
  154.5784  140.0658  156.9053 H   0  0  0  0  0  0  0  0  0  0  0  0  # atno 8010 bound_to 7997
  140.3052  143.3138  152.0207 H   0  0  0  0  0  0  0  0  0  0  0  0  # atno 10167 bound_to 10162
  156.5275  130.8506  151.2704 H   0  0  0  0  0  0  0  0  0  0  0  0  # atno 10718 bound_to 10713
  154.8715  135.4081  154.3022 H   0  0  0  0  0  0  0  0  0  0  0  0  # atno 10763 bound_to 10752
  153.3879  135.7014  153.6522 H   0  0  0  0  0  0  0  0  0  0  0  0  # atno 10764 bound_to 10752
  153.5317  135.3666  155.2650 H   0  0  0  0  0  0  0  0  0  0  0  0  # atno 10765 bound_to 10752
  140.8357  134.2462  157.4835 H   0  0  0  0  0  0  0  0  0  0  0  0  # atno 11005 bound_to 11000
  146.3013  139.7435  142.9089 LP  0  0  0  0  0  0  0  0  0  0  0  0  # atno 17320 bound_to 7965
  145.3901  141.0371  143.3128 LP  0  0  0  0  0  0  0  0  0  0  0  0  # atno 17321 bound_to 7965
  139.4906  144.6426  151.6845 LP  0  0  0  0  0  0  0  0  0  0  0  0  # atno 17342 bound_to 10162
  140.5617  144.0258  150.6173 LP  0  0  0  0  0  0  0  0  0  0  0  0  # atno 17343 bound_to 10162
  157.7427  130.9896  150.2536 LP  0  0  0  0  0  0  0  0  0  0  0  0  # atno 17370 bound_to 10713
  156.3091  130.3769  149.7679 LP  0  0  0  0  0  0  0  0  0  0  0  0  # atno 17371 bound_to 10713
  139.8704  134.9609  156.4380 LP  0  0  0  0  0  0  0  0  0  0  0  0  # atno 17394 bound_to 11000
  140.8949  133.7821  155.9614 LP  0  0  0  0  0  0  0  0  0  0  0  0  # atno 17395 bound_to 11000

$$$$
