#       Name:                AV-unprocessed.smi:2674
#       Creating user name   scv26
#       Creation time:       Fri Mar 27 14:38:34 2020


#       File generated by GOLD software.
#

@<TRIPOS>MOLECULE
AV-unprocessed.smi:2674
    48    49     1
SMALL
NO_CHARGES


@<TRIPOS>ATOM
      1 ****        -1.6995  -0.6393  -2.6056 C.3            1 S1                 0.0000
      2 ****        -1.8859  -0.1786  -1.2038 N.4            1 S1                 1.0000
      3 ****        -0.6952  -0.4757  -0.3539 C.3            1 S1                 0.0000
      4 ****        -0.2778  -1.9625  -0.3476 C.3            1 S1                 0.0000
      5 ****         0.8242  -2.2028   0.5780 N.am           1 S1                 0.0000
      6 ****         2.1007  -1.8561   0.3555 C.2            1 S1                 0.0000
      7 ****         2.4776  -1.2962  -0.6746 O.2            1 S1                 0.0000
      8 ****         2.8886  -2.1962   1.3908 N.am           1 S1                 0.0000
      9 ****         4.2784  -1.9502   1.5520 C.ar           1 S1                 0.0000
     10 ****         4.8392  -2.4445   2.7513 C.ar           1 S1                 0.0000
     11 ****         6.2093  -2.2449   3.0093 C.ar           1 S1                 0.0000
     12 ****         6.9840  -1.5548   2.0601 C.ar           1 S1                 0.0000
     13 ****         6.3479  -1.0960   0.8920 C.ar           1 S1                 0.0000
     14 ****         5.0350  -1.2860   0.6428 N.ar           1 S1                 0.0000
     15 ****        -2.3759   1.2394  -1.1544 C.3            1 S1                 0.0000
     16 ****        -2.0921   1.9825   0.1797 C.3            1 S1                 0.0000
     17 ****        -2.6406   3.4189   0.1736 C.3            1 S1                 0.0000
     18 ****        -4.1442   3.4429  -0.1267 C.3            1 S1                 0.0000
     19 ****        -4.4452   2.7237  -1.4474 C.3            1 S1                 0.0000
     20 ****        -3.8985   1.2873  -1.4376 C.3            1 S1                 0.0000
     21 ****        -0.7800  -0.2320  -3.0282 H              1 S1                 0.0000
     22 ****        -2.5197  -0.3386  -3.2548 H              1 S1                 0.0000
     23 ****        -1.6533  -1.7261  -2.6637 H              1 S1                 0.0000
     24 ****         0.1366   0.1514  -0.6784 H              1 S1                 0.0000
     25 ****        -0.9096  -0.2153   0.6820 H              1 S1                 0.0000
     26 ****        -1.1189  -2.5872  -0.0456 H              1 S1                 0.0000
     27 ****         0.0291  -2.3004  -1.3379 H              1 S1                 0.0000
     28 ****         0.5992  -2.6634   1.4480 H              1 S1                 0.0000
     29 ****         2.4412  -2.6707   2.1611 H              1 S1                 0.0000
     30 ****         4.2293  -2.9718   3.4706 H              1 S1                 0.0000
     31 ****         6.6569  -2.6144   3.9201 H              1 S1                 0.0000
     32 ****         8.0375  -1.3813   2.2224 H              1 S1                 0.0000
     33 ****         6.9066  -0.5613   0.1381 H              1 S1                 0.0000
     34 ****        -1.8560   1.7936  -1.9383 H              1 S1                 0.0000
     35 ****        -2.5350   1.4359   1.0138 H              1 S1                 0.0000
     36 ****        -1.0203   2.0431   0.3708 H              1 S1                 0.0000
     37 ****        -2.4484   3.8934   1.1366 H              1 S1                 0.0000
     38 ****        -2.1089   4.0107  -0.5727 H              1 S1                 0.0000
     39 ****        -4.6896   2.9628   0.6868 H              1 S1                 0.0000
     40 ****        -4.4996   4.4728  -0.1729 H              1 S1                 0.0000
     41 ****        -5.5214   2.7097  -1.6235 H              1 S1                 0.0000
     42 ****        -4.0037   3.2782  -2.2766 H              1 S1                 0.0000
     43 ****        -4.1405   0.8258  -2.3937 H              1 S1                 0.0000
     44 ****        -4.4276   0.7062  -0.6808 H              1 S1                 0.0000
     45 ****        -2.6356  -0.7339  -0.8169 H              1 S1                 0.0000
     46 ****         1.8192  -1.0787  -1.3951 LP             1 S1                 0.0000
     47 ****         3.4422  -1.0590  -0.7905 LP             1 S1                 0.0000
     48 ****         4.6251  -0.9413  -0.2017 LP             1 S1                 0.0000
@<TRIPOS>BOND
    1    1    2 1     
    2    1   21 1     
    3    1   22 1     
    4    1   23 1     
    5    2    3 1     
    6    2   15 1     
    7    2   45 1     
    8    3    4 1     
    9    3   24 1     
   10    3   25 1     
   11    4    5 1     
   12    4   26 1     
   13    4   27 1     
   14    5    6 am    
   15    5   28 1     
   16    6    7 2     
   17    6    8 am    
   18    8    9 1     
   19    8   29 1     
   20    9   14 ar    
   21    9   10 ar    
   22   10   11 ar    
   23   10   30 1     
   24   11   12 ar    
   25   11   31 1     
   26   12   13 ar    
   27   12   32 1     
   28   13   14 ar    
   29   13   33 1     
   30   15   20 1     
   31   15   16 1     
   32   15   34 1     
   33   16   17 1     
   34   16   35 1     
   35   16   36 1     
   36   17   18 1     
   37   17   37 1     
   38   17   38 1     
   39   18   19 1     
   40   18   39 1     
   41   18   40 1     
   42   19   20 1     
   43   19   41 1     
   44   19   42 1     
   45   20   43 1     
   46   20   44 1     
   47    7   46 1     
   48    7   47 1     
   49   14   48 1     
@<TRIPOS>SUBSTRUCTURE
      1 S1             1
@<TRIPOS>SET
LONE_PAIRS      STATIC     ATOMS    <user>   **** ""
3 46 47 48
DONOR_HYDROGENS      STATIC     ATOMS    <user>   **** ""
3 45 28 29
ATOM$BLUE        STATIC     ATOMS    COLORGROUP SYSTEM
3 46 47 48
ATOM$RED        STATIC     ATOMS    COLORGROUP SYSTEM
3 45 28 29
