AV-unprocessed.smi:3209|AV-procd|sdf|12269|dock7
  -GOLD-   2272018103D 1   1.00000     0.00000
 Structure written by MMmdl.
 37 39  0  0  0  0  0  0  0  0  2 V2000
  145.2273  142.7289  155.9993 C   0  0  0  0  0  0  0  0  0  0  0  0
  146.4360  142.1950  155.3096 C   0  0  0  0  0  0  0  0  0  0  0  0
  147.5835  141.9200  155.9356 N   0  0  0  0  0  0  0  0  0  0  0  0
  148.5674  141.4341  155.0692 C   0  0  0  0  0  0  0  0  0  0  0  0
  149.9203  141.0763  155.6051 C   0  0  0  0  0  0  0  0  0  0  0  0
  150.0953  141.5001  157.0696 C   0  0  0  0  0  0  0  0  0  0  0  0
  150.6067  142.8826  157.1643 N   0  3  0  0  0  0  0  0  0  0  0  0
  150.7672  143.3854  158.5463 C   0  0  1  0  0  0  0  0  0  0  0  0
  151.7476  142.5273  159.3797 C   0  0  0  0  0  0  0  0  0  0  0  0
  152.8049  143.5518  159.8298 C   0  0  2  0  0  0  0  0  0  0  0  0
  152.1831  144.5242  160.8493 C   0  0  0  0  0  0  0  0  0  0  0  0
  151.2589  145.3902  159.9721 C   0  0  0  0  0  0  0  0  0  0  0  0
  151.4432  144.7739  158.5722 C   0  0  1  0  0  0  0  0  0  0  0  0
  152.9295  144.4282  158.5898 C   0  0  0  0  0  0  0  0  0  0  0  0
  148.1425  141.3377  153.7672 C   0  0  0  0  0  0  0  0  0  0  0  0
  146.4901  141.8594  153.5834 S   0  0  0  0  0  0  0  0  0  0  0  0
  145.4689  143.0334  157.0181 H   0  0  0  0  0  0  0  0  0  0  0  0
  144.4520  141.9636  156.0366 H   0  0  0  0  0  0  0  0  0  0  0  0
  144.8413  143.5938  155.4599 H   0  0  0  0  0  0  0  0  0  0  0  0
  150.0815  140.0012  155.5155 H   0  0  0  0  0  0  0  0  0  0  0  0
  150.6938  141.5461  154.9959 H   0  0  0  0  0  0  0  0  0  0  0  0
  149.1405  141.4374  157.5933 H   0  0  0  0  0  0  0  0  0  0  0  0
  150.7836  140.8192  157.5718 H   0  0  0  0  0  0  0  0  0  0  0  0
  151.4982  142.9411  156.6934 H   0  0  0  0  0  0  0  0  0  0  0  0
  149.7839  143.4369  159.0167 H   0  0  0  0  0  0  0  0  0  0  0  0
  151.2573  142.0409  160.2238 H   0  0  0  0  0  0  0  0  0  0  0  0
  152.2165  141.7481  158.7765 H   0  0  0  0  0  0  0  0  0  0  0  0
  153.7362  143.0983  160.1698 H   0  0  0  0  0  0  0  0  0  0  0  0
  151.6402  144.0028  161.6388 H   0  0  0  0  0  0  0  0  0  0  0  0
  152.9508  145.1394  161.3206 H   0  0  0  0  0  0  0  0  0  0  0  0
  150.2214  145.3661  160.3076 H   0  0  0  0  0  0  0  0  0  0  0  0
  151.5872  146.4304  159.9823 H   0  0  0  0  0  0  0  0  0  0  0  0
  151.1300  145.4380  157.7657 H   0  0  0  0  0  0  0  0  0  0  0  0
  153.5747  145.2963  158.7374 H   0  0  0  0  0  0  0  0  0  0  0  0
  153.2614  143.8829  157.7045 H   0  0  0  0  0  0  0  0  0  0  0  0
  148.6975  140.9939  152.9068 H   0  0  0  0  0  0  0  0  0  0  0  0
  149.9509  143.4851  156.6875 H   0  0  0  0  0  0  0  0  0  0  0  0
  1  2  1  0  0  0  0
  1 17  1  0  0  0  0
  1 18  1  0  0  0  0
  1 19  1  0  0  0  0
  2 16  1  0  0  0  0
  2  3  2  0  0  0  0
  3  4  1  0  0  0  0
  4  5  1  0  0  0  0
  4 15  2  0  0  0  0
  5  6  1  0  0  0  0
  5 20  1  0  0  0  0
  5 21  1  0  0  0  0
  6  7  1  0  0  0  0
  6 22  1  0  0  0  0
  6 23  1  0  0  0  0
  7  8  1  0  0  0  0
  7 24  1  0  0  0  0
  7 37  1  0  0  0  0
  8 13  1  0  0  0  0
  8  9  1  0  0  0  0
  8 25  1  0  0  0  0
  9 10  1  0  0  0  0
  9 26  1  0  0  0  0
  9 27  1  0  0  0  0
 10 14  1  0  0  0  0
 10 11  1  0  0  0  0
 10 28  1  0  0  0  0
 11 12  1  0  0  0  0
 11 29  1  0  0  0  0
 11 30  1  0  0  0  0
 12 13  1  0  0  0  0
 12 31  1  0  0  0  0
 12 32  1  0  0  0  0
 13 14  1  0  0  0  0
 13 33  1  0  0  0  0
 14 34  1  0  0  0  0
 14 35  1  0  0  0  0
 15 16  1  0  0  0  0
 15 36  1  0  0  0  0
M  CHG  1   7   1
M  END
> <s_m_source_file>
AV-unprocessed.smi

> <i_m_source_file_index>
3209

> <i_lp_mmshare_version>
43012

> <i_f3d_flags>
0

> <s_epik_input>
W0NIM11jMW5jKFtjSF1zMSlbQ0gyXVtDSDJdW05IXVtDQEhdKFtDSDJdW0NASF0yMylbQ0BIXShbQ0gyXTMpW0NIMl1bQ0gyXTI=

> <s_epik_cmdline>
J2VwaWtfcHl0aG9uJywgJy1waCcsICc3LjAnLCAnLXRuJywgJzgnLCAnLW1hJywgJzIwMCcsICctbWV0YWxfYmluZGluZycsICctaW1hZScsICc8aW5maWxlLm1hZT4nLCAnLW9tYWUnLCAnPG91dGZpbGUubWFlPic=

> <r_lp_tautomer_probability>
1

> <r_epik_Ionization_Penalty>
0.000342479

> <r_epik_Ionization_Penalty_Charging>
0.000317129

> <r_epik_Ionization_Penalty_Neutral>
2.535e-05

> <r_epik_State_Penalty>
-0

> <r_epik_Charging_Adjusted_Penalty>
0.000317129

> <i_epik_Tot_Q>
1

> <i_epik_Tot_abs_Q>
1

> <r_epik_Metal_State_Penalty>
-0

> <b_epik_Metal_Only>
0

> <s_lp_Force_Field>
OPLS_2005

> <r_lp_Energy>
48.296

> <b_lp_Chiralities_Consistent>
1

> <s_lp_Variant>
AV-unprocessed.smi:3209-2

> <Gold.Version>
5.8.1

> <Gold.Id.Protein>
6NUR|6NUR_protein|mol2

> <Gold.PLP.Fitness>
48.9293

> <Gold.PLP.PLP>
-40.4081

> <Gold.PLP.part.hbond>
-1.0000

> <Gold.PLP.part.metal>
0.0000

> <Gold.PLP.part.buried>
-5.7111

> <Gold.PLP.part.nonpolar>
-34.6729

> <Gold.PLP.part.repulsive>
0.8220

> <Gold.PLP.ligand.clash>
0.0000

> <Gold.PLP.ligand.torsion>
0.2451

> <Gold.PLP.Chemscore.Hbond>
2.0000

> <Gold.PLP.Chemscore.CHOScore>
1.0000

> <Gold.PLP.Chemscore.Metal>
0.0000

> <Gold.Chemscore.Hbonds>
donor molecule, donor type, donor heavy atom, donor atom, acceptor molecule, acceptor atom, score
      L1  H     7    37       P1  8028  2.00
      L1  C    15    36       P1  7957  1.00

> <Gold.PLP.Chemscore.Internal.Correction>
0.0113

> <Gold.Rescore>
     Score         DG    S(hbond)    S(metal)    S(lipo)     H(rot)  DE(clash)    DE(int)     intcor
     19.71     -19.95       1.00        0.00     123.83       1.31       0.03       0.21       ----

> <Gold.Chemscore.Fitness>
19.7052

> <Gold.Chemscore.DG>
-19.9504

> <Gold.Chemscore.ZeroCoef>
-5.4800

> <Gold.Chemscore.Hbond>
0.9995

> <Gold.Chemscore.Metal>
0.0000

> <Gold.Chemscore.Lipo>
123.8268

> <Gold.Chemscore.Internal_Hbond>
0.0000

> <Gold.Chemscore.DEClash>
0.0303

> <Gold.Chemscore.DEInternal>
0.2149

> <Gold.Chemscore.Rot>
1.3108

> <Gold.Chemscore.Internal.Correction>
   9.000000E+99

> <Gold.Chemscore.Hbonds>
donor molecule, donor type, donor heavy atom, donor atom, acceptor molecule, acceptor atom, score
      L1  H     7    37       P1  8028  1.00

> <Gold.Chemscore.Hbond.Weighted>
-3.3384

> <Gold.Chemscore.Metal.Weighted>
-0.0000

> <Gold.Chemscore.Lipo.Weighted>
-14.4877

> <Gold.Chemscore.Internal_Hbond.Weighted>
0.0000

> <Gold.Chemscore.DEClash.Weighted>
0.0303

> <Gold.Chemscore.DEInternal.Weighted>
0.2149

> <Gold.Chemscore.Rot.Weighted>
3.3558

> <Gold.Chemscore.Internal.Correction.Weighted>
   9.000000E+99

> <Gold.Protein.RotatedTorsions>
[ 6907 6896 6895 6894 ] final  -71.14 input  -60.11 | X-H torsion
[ 7974 7965 7964 7962 ] final -125.62 input  175.53 | X-H torsion
[ 8008 7997 7996 7995 ] final -148.79 input   59.86 | X-H torsion
[ 10167 10162 10161 10158 ] final  -73.89 input  -65.29 | X-H torsion
[ 10718 10713 10712 10709 ] final  154.26 input   66.30 | X-H torsion
[ 10763 10752 10751 10750 ] final   57.27 input  -60.55 | X-H torsion
[ 11005 11000 10999 10996 ] final  170.71 input  -57.11 | X-H torsion

> <Gold.Protein.ActiveResidues>
 VAL166  LYS551  ARG553  GLY616  TRP617  ASP618  TYR619  PRO620  LYS621  CYS622 
 ASP623  PHE694  ASN695  SER759  ASP760  ASP761  ALA762  ILE779  LEU786  VAL792 
 PHE793  MET794  SER795  GLU796  ALA797  LYS798  CYS799  TRP800  GLU811  SER814 

> <Gold.Protein.RotatedAtoms>
  150.7225  134.5351  159.5719 H   0  0  0  0  0  0  0  0  0  0  0  0  # atno 6907 bound_to 6896
  152.2875  134.7756  160.0393 H   0  0  0  0  0  0  0  0  0  0  0  0  # atno 6908 bound_to 6896
  151.8381  133.3384  159.3671 H   0  0  0  0  0  0  0  0  0  0  0  0  # atno 6909 bound_to 6896
  144.9957  140.7774  143.4527 H   0  0  0  0  0  0  0  0  0  0  0  0  # atno 7974 bound_to 7965
  155.5973  140.0658  157.2742 H   0  0  0  0  0  0  0  0  0  0  0  0  # atno 8008 bound_to 7997
  154.4288  140.1824  156.1184 H   0  0  0  0  0  0  0  0  0  0  0  0  # atno 8009 bound_to 7997
  156.0186  140.3319  155.7018 H   0  0  0  0  0  0  0  0  0  0  0  0  # atno 8010 bound_to 7997
  140.5073  143.2351  151.7653 H   0  0  0  0  0  0  0  0  0  0  0  0  # atno 10167 bound_to 10162
  157.2339  131.0745  151.1836 H   0  0  0  0  0  0  0  0  0  0  0  0  # atno 10718 bound_to 10713
  152.9847  135.5647  154.5363 H   0  0  0  0  0  0  0  0  0  0  0  0  # atno 10763 bound_to 10752
  154.4826  135.2789  155.1561 H   0  0  0  0  0  0  0  0  0  0  0  0  # atno 10764 bound_to 10752
  154.3063  135.6297  153.5499 H   0  0  0  0  0  0  0  0  0  0  0  0  # atno 10765 bound_to 10752
  140.3112  134.7515  157.3992 H   0  0  0  0  0  0  0  0  0  0  0  0  # atno 11005 bound_to 11000
  145.2223  139.2153  143.5086 LP  0  0  0  0  0  0  0  0  0  0  0  0  # atno 17320 bound_to 7965
  146.3441  140.2083  142.8590 LP  0  0  0  0  0  0  0  0  0  0  0  0  # atno 17321 bound_to 7965
  139.4887  144.4440  151.9732 LP  0  0  0  0  0  0  0  0  0  0  0  0  # atno 17342 bound_to 10162
  140.3531  144.3065  150.5946 LP  0  0  0  0  0  0  0  0  0  0  0  0  # atno 17343 bound_to 10162
  157.3449  130.7052  149.6404 LP  0  0  0  0  0  0  0  0  0  0  0  0  # atno 17370 bound_to 10713
  155.9674  130.4269  150.4720 LP  0  0  0  0  0  0  0  0  0  0  0  0  # atno 17371 bound_to 10713
  140.1023  134.5456  155.8341 LP  0  0  0  0  0  0  0  0  0  0  0  0  # atno 17394 bound_to 11000
  141.2108  133.6698  156.6533 LP  0  0  0  0  0  0  0  0  0  0  0  0  # atno 17395 bound_to 11000

$$$$
