#       Name:                AV-unprocessed.smi:1116
#       Creating user name   scv26
#       Creation time:       Fri Mar 27 03:36:04 2020


#       File generated by GOLD software.
#

@<TRIPOS>MOLECULE
AV-unprocessed.smi:1116
    43    44     1
SMALL
NO_CHARGES


@<TRIPOS>ATOM
      1 ****        -6.6179  -0.5334  -1.3757 C.3            1 S1                 0.0000
      2 ****        -5.5986  -0.1125  -0.3732 C.2            1 S1                 0.0000
      3 ****        -4.2812  -0.1968  -0.5770 N.2            1 S1                 0.0000
      4 ****        -3.5371   0.2584   0.5162 C.2            1 S1                 0.0000
      5 ****        -2.0398   0.2278   0.4699 C.3            1 S1                 0.0000
      6 ****        -1.4829  -1.1902   0.6809 C.3            1 S1                 0.0000
      7 ****        -0.0257  -1.1979   0.7234 N.am           1 S1                 0.0000
      8 ****         0.7808  -1.1315  -0.3468 C.2            1 S1                 0.0000
      9 ****         0.3664  -1.0651  -1.5044 O.2            1 S1                 0.0000
     10 ****         2.2842  -1.1479  -0.0659 C.3            1 S1                 0.0000
     11 ****         3.0029   0.0739  -0.6679 C.3            1 S1                 0.0000
     12 ****         4.5048   0.1174  -0.3170 C.3            1 S1                 0.0000
     13 ****         4.7134   0.4629   1.0787 N.pl3          1 S1                -1.0000
     14 ****         5.4703   1.5840   1.1352 C.2            1 S1                 0.0000
     15 ****         5.8646   2.1750   2.1380 O.2            1 S1                 0.0000
     16 ****         5.7648   2.0185  -0.0945 N.am           1 S1                 0.0000
     17 ****         5.2343   1.2392  -1.0314 C.2            1 S1                 0.0000
     18 ****         5.3094   1.3795  -2.2513 O.2            1 S1                 0.0000
     19 ****        -4.3175   0.6968   1.5569 C.2            1 S1                 0.0000
     20 ****        -6.0167   0.5481   1.2028 S.3            1 S1                 0.0000
     21 ****        -6.1406  -1.0010  -2.2375 H              1 S1                 0.0000
     22 ****        -7.1839   0.3335  -1.7169 H              1 S1                 0.0000
     23 ****        -7.3080  -1.2486  -0.9279 H              1 S1                 0.0000
     24 ****        -1.6928   0.6229  -0.4856 H              1 S1                 0.0000
     25 ****        -1.6330   0.8935   1.2323 H              1 S1                 0.0000
     26 ****        -1.8464  -1.5930   1.6268 H              1 S1                 0.0000
     27 ****        -1.8374  -1.8636  -0.1013 H              1 S1                 0.0000
     28 ****         0.4048  -1.2493   1.6356 H              1 S1                 0.0000
     29 ****         2.4518  -1.1867   1.0114 H              1 S1                 0.0000
     30 ****         2.7043  -2.0663  -0.4769 H              1 S1                 0.0000
     31 ****         2.8885   0.0494  -1.7530 H              1 S1                 0.0000
     32 ****         2.5157   0.9929  -0.3356 H              1 S1                 0.0000
     33 ****         4.9795  -0.8264  -0.5889 H              1 S1                 0.0000
     34 ****         6.3140   2.8431  -0.2859 H              1 S1                 0.0000
     35 ****        -3.9956   1.0941   2.5082 H              1 S1                 0.0000
     36 ****        -3.8716  -0.5472  -1.4194 LP             1 S1                 0.0000
     37 ****        -0.6174  -1.0587  -1.6838 LP             1 S1                 0.0000
     38 ****         1.0136  -1.0176  -2.2653 LP             1 S1                 0.0000
     39 ****         4.3578  -0.0423   1.8650 LP             1 S1                 0.0000
     40 ****         5.6279   1.8309   3.0466 LP             1 S1                 0.0000
     41 ****         6.4222   2.9999   2.0453 LP             1 S1                 0.0000
     42 ****         4.8661   0.7203  -2.8587 LP             1 S1                 0.0000
     43 ****         5.8138   2.1527  -2.6356 LP             1 S1                 0.0000
@<TRIPOS>BOND
    1    1    2 1     
    2    1   21 1     
    3    1   22 1     
    4    1   23 1     
    5    2   20 1     
    6    2    3 2     
    7    3    4 1     
    8    4    5 1     
    9    4   19 2     
   10    5    6 1     
   11    5   24 1     
   12    5   25 1     
   13    6    7 1     
   14    6   26 1     
   15    6   27 1     
   16    7    8 am    
   17    7   28 1     
   18    8    9 2     
   19    8   10 1     
   20   10   11 1     
   21   10   29 1     
   22   10   30 1     
   23   11   12 1     
   24   11   31 1     
   25   11   32 1     
   26   12   17 1     
   27   12   13 1     
   28   12   33 1     
   29   13   14 1     
   30   14   15 2     
   31   14   16 am    
   32   16   17 am    
   33   16   34 1     
   34   17   18 2     
   35   19   20 1     
   36   19   35 1     
   37    3   36 1     
   38    9   37 1     
   39    9   38 1     
   40   13   39 1     
   41   15   40 1     
   42   15   41 1     
   43   18   42 1     
   44   18   43 1     
@<TRIPOS>SUBSTRUCTURE
      1 S1             1
@<TRIPOS>SET
LONE_PAIRS      STATIC     ATOMS    <user>   **** ""
8 36 37 38 39 40 41 42 43
DONOR_HYDROGENS      STATIC     ATOMS    <user>   **** ""
2 28 34
ATOM$BLUE        STATIC     ATOMS    COLORGROUP SYSTEM
8 36 37 38 39 40 41 42 43
ATOM$RED        STATIC     ATOMS    COLORGROUP SYSTEM
2 28 34
