AV-unprocessed.smi:1396|AV-procd|sdf|5677|dock3
  -GOLD-   22720 5303D 1   1.00000     0.00000
 Structure written by MMmdl.
 46 47  0  0  0  0  0  0  0  0  3 V2000
  149.3066  133.0384  153.9407 C   0  0  0  0  0  0  0  0  0  0  0  0
  148.0810  132.3337  154.2968 N   0  5  0  0  0  0  0  0  0  0  0  0
  147.0515  132.1331  153.4308 C   0  0  0  0  0  0  0  0  0  0  0  0
  146.1049  131.3403  153.4736 O   0  0  0  0  0  0  0  0  0  0  0  0
  147.1661  133.0571  152.2128 C   0  0  0  0  0  0  0  0  0  0  0  0
  146.1105  134.0991  152.2627 N   0  3  2  0  0  0  0  0  0  0  0  0
  146.0921  134.9737  151.0589 C   0  0  0  0  0  0  0  0  0  0  0  0
  144.9002  135.9434  151.0974 C   0  0  0  0  0  0  0  0  0  0  0  0
  144.9196  136.7937  152.3768 C   0  0  1  0  0  0  0  0  0  0  0  0
  143.7354  137.6460  152.4223 N   0  0  0  0  0  0  0  0  0  0  0  0
  142.4993  137.2340  152.7374 C   0  0  0  0  0  0  0  0  0  0  0  0
  142.2247  136.0676  153.0186 O   0  0  0  0  0  0  0  0  0  0  0  0
  141.6283  138.2572  152.7188 N   0  0  0  0  0  0  0  0  0  0  0  0
  140.2383  138.2424  153.0150 C   0  0  0  0  0  0  0  0  0  0  0  0
  139.6637  137.0208  153.4193 C   0  0  0  0  0  0  0  0  0  0  0  0
  138.2921  136.9759  153.7318 C   0  0  0  0  0  0  0  0  0  0  0  0
  137.5359  138.1608  153.6391 C   0  0  0  0  0  0  0  0  0  0  0  0
  136.1909  138.1104  153.9438 O   0  0  0  0  0  0  0  0  0  0  0  0
  135.6968  136.9694  154.6365 C   0  0  0  0  0  0  0  0  0  0  0  0
  138.0814  139.3450  153.2670 N   0  0  0  0  0  0  0  0  0  0  0  0
  139.3973  139.3814  152.9671 C   0  0  0  0  0  0  0  0  0  0  0  0
  144.9791  135.8714  153.6077 C   0  0  0  0  0  0  0  0  0  0  0  0
  146.1638  134.8951  153.5153 C   0  0  0  0  0  0  0  0  0  0  0  0
  150.0148  133.0631  154.7685 H   0  0  0  0  0  0  0  0  0  0  0  0
  149.1214  134.0763  153.6620 H   0  0  0  0  0  0  0  0  0  0  0  0
  149.8268  132.5739  153.1024 H   0  0  0  0  0  0  0  0  0  0  0  0
  148.1518  133.5222  152.2602 H   0  0  0  0  0  0  0  0  0  0  0  0
  147.1266  132.5169  151.2640 H   0  0  0  0  0  0  0  0  0  0  0  0
  147.0285  135.5303  150.9980 H   0  0  0  0  0  0  0  0  0  0  0  0
  146.0258  134.3722  150.1522 H   0  0  0  0  0  0  0  0  0  0  0  0
  144.9227  136.5887  150.2183 H   0  0  0  0  0  0  0  0  0  0  0  0
  143.9706  135.3746  151.0407 H   0  0  0  0  0  0  0  0  0  0  0  0
  145.8137  137.4201  152.3560 H   0  0  0  0  0  0  0  0  0  0  0  0
  143.8695  138.6235  152.2083 H   0  0  0  0  0  0  0  0  0  0  0  0
  142.0196  139.1696  152.5353 H   0  0  0  0  0  0  0  0  0  0  0  0
  140.2632  136.1245  153.4849 H   0  0  0  0  0  0  0  0  0  0  0  0
  137.8286  136.0494  154.0370 H   0  0  0  0  0  0  0  0  0  0  0  0
  134.6247  137.0827  154.7966 H   0  0  0  0  0  0  0  0  0  0  0  0
  136.1680  136.8611  155.6145 H   0  0  0  0  0  0  0  0  0  0  0  0
  135.8505  136.0553  154.0613 H   0  0  0  0  0  0  0  0  0  0  0  0
  139.7698  140.3589  152.7047 H   0  0  0  0  0  0  0  0  0  0  0  0
  145.0647  136.4644  154.5191 H   0  0  0  0  0  0  0  0  0  0  0  0
  144.0500  135.3055  153.6930 H   0  0  0  0  0  0  0  0  0  0  0  0
  146.1425  134.2272  154.3773 H   0  0  0  0  0  0  0  0  0  0  0  0
  147.1071  135.4418  153.5605 H   0  0  0  0  0  0  0  0  0  0  0  0
  145.2327  133.5995  152.2779 H   0  0  0  0  0  0  0  0  0  0  0  0
  1  2  1  0  0  0  0
  1 24  1  0  0  0  0
  1 25  1  0  0  0  0
  1 26  1  0  0  0  0
  2  3  1  0  0  0  0
  3  4  2  0  0  0  0
  3  5  1  0  0  0  0
  5  6  1  0  0  0  0
  5 27  1  0  0  0  0
  5 28  1  0  0  0  0
  6 23  1  0  0  0  0
  6  7  1  0  0  0  0
  6 46  1  0  0  0  0
  7  8  1  0  0  0  0
  7 29  1  0  0  0  0
  7 30  1  0  0  0  0
  8  9  1  0  0  0  0
  8 31  1  0  0  0  0
  8 32  1  0  0  0  0
  9 10  1  0  0  0  0
  9 22  1  0  0  0  0
  9 33  1  0  0  0  0
 10 11  1  0  0  0  0
 10 34  1  0  0  0  0
 11 12  2  0  0  0  0
 11 13  1  0  0  0  0
 13 14  1  0  0  0  0
 13 35  1  0  0  0  0
 14 21  1  0  0  0  0
 14 15  2  0  0  0  0
 15 16  1  0  0  0  0
 15 36  1  0  0  0  0
 16 17  2  0  0  0  0
 16 37  1  0  0  0  0
 17 18  1  0  0  0  0
 17 20  1  0  0  0  0
 18 19  1  0  0  0  0
 19 38  1  0  0  0  0
 19 39  1  0  0  0  0
 19 40  1  0  0  0  0
 20 21  2  0  0  0  0
 21 41  1  0  0  0  0
 22 23  1  0  0  0  0
 22 42  1  0  0  0  0
 22 43  1  0  0  0  0
 23 44  1  0  0  0  0
 23 45  1  0  0  0  0
M  CHG  1   2  -1
M  CHG  1   6   1
M  END
> <s_m_source_file>
AV-unprocessed.smi

> <i_m_source_file_index>
1396

> <i_lp_mmshare_version>
43012

> <i_f3d_flags>
0

> <s_epik_input>
W0NIM11bTkhdQyg9TylbQ0gyXU4xW0NIMl1bQ0gyXVtDSF0oW0NIMl1bQ0gyXTEpW05IXUMoPU8pW05IXWMyW2NIXVtjSF1jKE9bQ0gzXSluW2NIXTI=

> <s_epik_cmdline>
J2VwaWtfcHl0aG9uJywgJy1waCcsICc3LjAnLCAnLXRuJywgJzgnLCAnLW1hJywgJzIwMCcsICctbWV0YWxfYmluZGluZycsICctaW1hZScsICc8aW5maWxlLm1hZT4nLCAnLW9tYWUnLCAnPG91dGZpbGUubWFlPic=

> <r_lp_tautomer_probability>
1

> <r_epik_Ionization_Penalty>
6.13954

> <r_epik_Ionization_Penalty_Charging>
6.13946

> <r_epik_Ionization_Penalty_Neutral>
7.8452e-05

> <r_epik_State_Penalty>
6.9595

> <r_epik_Charging_Adjusted_Penalty>
13.099

> <i_epik_Tot_Q>
0

> <i_epik_Tot_abs_Q>
2

> <r_epik_Metal_State_Penalty>
2.89145

> <b_epik_Metal_Only>
1

> <s_lp_Force_Field>
OPLS_2005

> <r_lp_Energy>
12.8454

> <b_lp_Chiralities_Consistent>
1

> <s_lp_Variant>
AV-unprocessed.smi:1396-4

> <Gold.Version>
5.8.1

> <Gold.Id.Protein>
6NUR|6NUR_protein|mol2

> <Gold.PLP.Fitness>
41.9082

> <Gold.PLP.PLP>
-34.8384

> <Gold.PLP.part.hbond>
-3.2000

> <Gold.PLP.part.metal>
0.0000

> <Gold.PLP.part.buried>
-4.2554

> <Gold.PLP.part.nonpolar>
-28.2994

> <Gold.PLP.part.repulsive>
0.5387

> <Gold.PLP.ligand.clash>
0.0545

> <Gold.PLP.ligand.torsion>
0.5769

> <Gold.PLP.Chemscore.Hbond>
2.0000

> <Gold.PLP.Chemscore.CHOScore>
0.7307

> <Gold.PLP.Chemscore.Metal>
0.0000

> <Gold.Chemscore.Hbonds>
donor molecule, donor type, donor heavy atom, donor atom, acceptor molecule, acceptor atom, score
      L1  H    10    34       P1 10175  1.00
      L1  H    13    35       P1 10175  1.00
      L1  C    21    41       P1 10160  0.60

> <Gold.PLP.Chemscore.Internal.Correction>
0.0858

> <Gold.Rescore>
     Score         DG    S(hbond)    S(metal)    S(lipo)     H(rot)  DE(clash)    DE(int)     intcor
     12.05     -15.39       1.95        0.00      71.21       1.93       0.06       3.29       ----

> <Gold.Chemscore.Fitness>
12.0505

> <Gold.Chemscore.DG>
-15.3942

> <Gold.Chemscore.ZeroCoef>
-5.4800

> <Gold.Chemscore.Hbond>
1.9520

> <Gold.Chemscore.Metal>
0.0000

> <Gold.Chemscore.Lipo>
71.2052

> <Gold.Chemscore.Internal_Hbond>
0.0000

> <Gold.Chemscore.DEClash>
0.0573

> <Gold.Chemscore.DEInternal>
3.2863

> <Gold.Chemscore.Rot>
1.9283

> <Gold.Chemscore.Internal.Correction>
   9.000000E+99

> <Gold.Chemscore.Hbonds>
donor molecule, donor type, donor heavy atom, donor atom, acceptor molecule, acceptor atom, score
      L1  H    10    34       P1 10175  0.98
      L1  H    13    35       P1 10175  0.68

> <Gold.Chemscore.Hbond.Weighted>
-6.5197

> <Gold.Chemscore.Metal.Weighted>
-0.0000

> <Gold.Chemscore.Lipo.Weighted>
-8.3310

> <Gold.Chemscore.Internal_Hbond.Weighted>
0.0000

> <Gold.Chemscore.DEClash.Weighted>
0.0573

> <Gold.Chemscore.DEInternal.Weighted>
3.2863

> <Gold.Chemscore.Rot.Weighted>
4.9365

> <Gold.Chemscore.Internal.Correction.Weighted>
   9.000000E+99

> <Gold.Protein.RotatedTorsions>
[ 6907 6896 6895 6894 ] final -140.65 input  -60.11 | X-H torsion
[ 7974 7965 7964 7962 ] final  144.29 input  175.53 | X-H torsion
[ 8008 7997 7996 7995 ] final   76.56 input   59.86 | X-H torsion
[ 10167 10162 10161 10158 ] final  -89.37 input  -65.29 | X-H torsion
[ 10718 10713 10712 10709 ] final   80.81 input   66.30 | X-H torsion
[ 10763 10752 10751 10750 ] final   -5.99 input  -60.55 | X-H torsion
[ 11005 11000 10999 10996 ] final -126.86 input  -57.11 | X-H torsion

> <Gold.Protein.ActiveResidues>
 VAL166  LYS551  ARG553  GLY616  TRP617  ASP618  TYR619  PRO620  LYS621  CYS622 
 ASP623  PHE694  ASN695  SER759  ASP760  ASP761  ALA762  ILE779  LEU786  VAL792 
 PHE793  MET794  SER795  GLU796  ALA797  LYS798  CYS799  TRP800  GLU811  SER814 

> <Gold.Protein.RotatedAtoms>
  151.0634  133.5525  159.2632 H   0  0  0  0  0  0  0  0  0  0  0  0  # atno 6907 bound_to 6896
  151.2492  135.0615  159.9065 H   0  0  0  0  0  0  0  0  0  0  0  0  # atno 6908 bound_to 6896
  152.5401  134.0397  159.8116 H   0  0  0  0  0  0  0  0  0  0  0  0  # atno 6909 bound_to 6896
  144.8848  139.5645  143.5826 H   0  0  0  0  0  0  0  0  0  0  0  0  # atno 7974 bound_to 7965
  155.8290  140.3467  155.5561 H   0  0  0  0  0  0  0  0  0  0  0  0  # atno 8008 bound_to 7997
  155.8262  140.0920  157.1840 H   0  0  0  0  0  0  0  0  0  0  0  0  # atno 8009 bound_to 7997
  154.4004  140.1421  156.3546 H   0  0  0  0  0  0  0  0  0  0  0  0  # atno 8010 bound_to 7997
  140.3655  143.2820  151.9563 H   0  0  0  0  0  0  0  0  0  0  0  0  # atno 10167 bound_to 10162
  157.6816  130.9976  150.2133 H   0  0  0  0  0  0  0  0  0  0  0  0  # atno 10718 bound_to 10713
  153.4062  135.7006  153.6391 H   0  0  0  0  0  0  0  0  0  0  0  0  # atno 10763 bound_to 10752
  153.4904  135.3674  155.2489 H   0  0  0  0  0  0  0  0  0  0  0  0  # atno 10764 bound_to 10752
  154.8714  135.4087  154.3406 H   0  0  0  0  0  0  0  0  0  0  0  0  # atno 10765 bound_to 10752
  140.9647  134.0888  157.3932 H   0  0  0  0  0  0  0  0  0  0  0  0  # atno 11005 bound_to 11000
  146.3018  139.7450  142.9086 LP  0  0  0  0  0  0  0  0  0  0  0  0  # atno 17320 bound_to 7965
  145.3888  141.0369  143.3136 LP  0  0  0  0  0  0  0  0  0  0  0  0  # atno 17321 bound_to 7965
  139.4809  144.5954  151.7699 LP  0  0  0  0  0  0  0  0  0  0  0  0  # atno 17342 bound_to 10162
  140.5085  144.1061  150.5989 LP  0  0  0  0  0  0  0  0  0  0  0  0  # atno 17343 bound_to 10162
  156.2800  130.3732  149.7945 LP  0  0  0  0  0  0  0  0  0  0  0  0  # atno 17370 bound_to 10713
  156.5636  130.8394  151.3336 LP  0  0  0  0  0  0  0  0  0  0  0  0  # atno 17371 bound_to 10713
  139.8890  135.0102  156.6655 LP  0  0  0  0  0  0  0  0  0  0  0  0  # atno 17394 bound_to 11000
  140.7417  133.8972  155.8282 LP  0  0  0  0  0  0  0  0  0  0  0  0  # atno 17395 bound_to 11000

$$$$
