AV-unprocessed.smi:389|AV-procd|sdf|2476|dock3
  -GOLD-   2262022413D 1   1.00000     0.00000
 Structure written by MMmdl.
 34 34  0  0  0  0  0  0  0  0  1 V2000
  152.1992  144.3736  159.1674 C   0  0  0  0  0  0  0  0  0  0  0  0
  152.0644  143.2411  160.1962 C   0  0  0  0  0  0  0  0  0  0  0  0
  152.4550  143.7373  161.5981 C   0  0  0  0  0  0  0  0  0  0  0  0
  152.8861  142.0066  159.7601 C   0  0  0  0  0  0  0  0  0  0  0  0
  152.1213  140.9709  158.9089 C   0  0  0  0  0  0  0  0  0  0  0  0
  151.5842  141.5489  157.6818 N   0  0  0  0  0  0  0  0  0  0  0  0
  150.7189  140.9405  156.8569 C   0  0  0  0  0  0  0  0  0  0  0  0
  150.2240  139.8372  157.0915 O   0  0  0  0  0  0  0  0  0  0  0  0
  150.3538  141.7013  155.5750 C   0  0  0  0  0  0  0  0  0  0  0  0
  149.3789  140.9756  154.7478 N   0  0  0  0  0  0  0  0  0  0  0  0
  148.1389  141.5337  154.4706 C   0  0  0  0  0  0  0  0  0  0  0  0
  147.1924  140.9141  153.7263 C   0  0  0  0  0  0  0  0  0  0  0  0
  147.4421  139.5905  153.1658 C   0  0  0  0  0  0  0  0  0  0  0  0
  146.6490  138.9498  152.4795 O   0  0  0  0  0  0  0  0  0  0  0  0
  148.6998  139.0617  153.4680 N   0  0  0  0  0  0  0  0  0  0  0  0
  149.6797  139.6942  154.2346 C   0  0  0  0  0  0  0  0  0  0  0  0
  150.7570  139.1367  154.4439 O   0  0  0  0  0  0  0  0  0  0  0  0
  148.9167  138.1454  153.1035 H   0  0  0  0  0  0  0  0  0  0  0  0
  153.2331  144.7085  159.0788 H   0  0  0  0  0  0  0  0  0  0  0  0
  151.5926  145.2349  159.4490 H   0  0  0  0  0  0  0  0  0  0  0  0
  151.8675  144.0499  158.1803 H   0  0  0  0  0  0  0  0  0  0  0  0
  151.0093  142.9668  160.2214 H   0  0  0  0  0  0  0  0  0  0  0  0
  153.5113  144.0034  161.6440 H   0  0  0  0  0  0  0  0  0  0  0  0
  152.2670  142.9800  162.3588 H   0  0  0  0  0  0  0  0  0  0  0  0
  151.8784  144.6201  161.8753 H   0  0  0  0  0  0  0  0  0  0  0  0
  153.7549  142.3437  159.1929 H   0  0  0  0  0  0  0  0  0  0  0  0
  153.2902  141.5102  160.6430 H   0  0  0  0  0  0  0  0  0  0  0  0
  152.7760  140.1327  158.6654 H   0  0  0  0  0  0  0  0  0  0  0  0
  151.2939  140.5489  159.4789 H   0  0  0  0  0  0  0  0  0  0  0  0
  151.9317  142.4591  157.4165 H   0  0  0  0  0  0  0  0  0  0  0  0
  149.9630  142.6786  155.8619 H   0  0  0  0  0  0  0  0  0  0  0  0
  151.2521  141.9084  154.9894 H   0  0  0  0  0  0  0  0  0  0  0  0
  147.9072  142.5116  154.8681 H   0  0  0  0  0  0  0  0  0  0  0  0
  146.2445  141.4000  153.5460 H   0  0  0  0  0  0  0  0  0  0  0  0
  1  2  1  0  0  0  0
  1 19  1  0  0  0  0
  1 20  1  0  0  0  0
  1 21  1  0  0  0  0
  2  3  1  0  0  0  0
  2  4  1  0  0  0  0
  2 22  1  0  0  0  0
  3 23  1  0  0  0  0
  3 24  1  0  0  0  0
  3 25  1  0  0  0  0
  4  5  1  0  0  0  0
  4 26  1  0  0  0  0
  4 27  1  0  0  0  0
  5  6  1  0  0  0  0
  5 28  1  0  0  0  0
  5 29  1  0  0  0  0
  6  7  1  0  0  0  0
  6 30  1  0  0  0  0
  7  8  2  0  0  0  0
  7  9  1  0  0  0  0
  9 10  1  0  0  0  0
  9 31  1  0  0  0  0
  9 32  1  0  0  0  0
 10 16  1  0  0  0  0
 10 11  1  0  0  0  0
 11 12  2  0  0  0  0
 11 33  1  0  0  0  0
 12 13  1  0  0  0  0
 12 34  1  0  0  0  0
 13 14  2  0  0  0  0
 13 15  1  0  0  0  0
 15 18  1  0  0  0  0
 15 16  1  0  0  0  0
 16 17  2  0  0  0  0
M  END
> <s_m_source_file>
AV-unprocessed.smi

> <i_m_source_file_index>
389

> <i_lp_mmshare_version>
43012

> <i_f3d_flags>
0

> <s_epik_input>
W0NIM11bQ0hdKFtDSDNdKVtDSDJdW0NIMl1bTkhdQyg9TylbQ0gyXW4xW2NIXVtjSF1jKD1PKVtuSF1jMT1P

> <s_epik_cmdline>
J2VwaWtfcHl0aG9uJywgJy1waCcsICc3LjAnLCAnLXRuJywgJzgnLCAnLW1hJywgJzIwMCcsICctbWV0YWxfYmluZGluZycsICctaW1hZScsICc8aW5maWxlLm1hZT4nLCAnLW9tYWUnLCAnPG91dGZpbGUubWFlPic=

> <r_lp_tautomer_probability>
0.999537

> <r_epik_Ionization_Penalty>
0.00305319

> <r_epik_Ionization_Penalty_Charging>
0.00305317

> <r_epik_Ionization_Penalty_Neutral>
2.06703e-08

> <r_epik_State_Penalty>
0.00214626

> <r_epik_Charging_Adjusted_Penalty>
0.00519944

> <i_epik_Tot_Q>
0

> <i_epik_Tot_abs_Q>
0

> <r_epik_Metal_State_Penalty>
0.361976

> <b_epik_Metal_Only>
0

> <s_lp_Force_Field>
OPLS_2005

> <r_lp_Energy>
4.98151

> <b_lp_Chiralities_Consistent>
1

> <s_lp_Variant>
AV-unprocessed.smi:389-1

> <Gold.Version>
5.8.1

> <Gold.Id.Protein>
6NUR|6NUR_protein|mol2

> <Gold.PLP.Fitness>
41.7676

> <Gold.PLP.PLP>
-37.5650

> <Gold.PLP.part.hbond>
-2.1000

> <Gold.PLP.part.metal>
0.0000

> <Gold.PLP.part.buried>
-2.1043

> <Gold.PLP.part.nonpolar>
-32.4395

> <Gold.PLP.part.repulsive>
0.6064

> <Gold.PLP.ligand.clash>
0.0000

> <Gold.PLP.ligand.torsion>
0.4881

> <Gold.PLP.Chemscore.Hbond>
0.7101

> <Gold.PLP.Chemscore.CHOScore>
1.0000

> <Gold.PLP.Chemscore.Metal>
0.0000

> <Gold.Chemscore.Hbonds>
donor molecule, donor type, donor heavy atom, donor atom, acceptor molecule, acceptor atom, score
      L1  H    15    18       P1  7948  0.44
      P1  H  7989  7998       L1    17  0.17
      L1  C    11    33       P1  8028  1.00

> <Gold.PLP.Chemscore.Internal.Correction>
0.0485

> <Gold.Rescore>
     Score         DG    S(hbond)    S(metal)    S(lipo)     H(rot)  DE(clash)    DE(int)     intcor
      7.81     -11.63       0.98        0.00      73.67       2.24       0.07       3.75       ----

> <Gold.Chemscore.Fitness>
7.8093

> <Gold.Chemscore.DG>
-11.6327

> <Gold.Chemscore.ZeroCoef>
-5.4800

> <Gold.Chemscore.Hbond>
0.9793

> <Gold.Chemscore.Metal>
0.0000

> <Gold.Chemscore.Lipo>
73.6724

> <Gold.Chemscore.Internal_Hbond>
0.0000

> <Gold.Chemscore.DEClash>
0.0719

> <Gold.Chemscore.DEInternal>
3.7515

> <Gold.Chemscore.Rot>
2.2414

> <Gold.Chemscore.Internal.Correction>
   9.000000E+99

> <Gold.Chemscore.Hbonds>
donor molecule, donor type, donor heavy atom, donor atom, acceptor molecule, acceptor atom, score
      L1  H    15    18       P1  7948  0.43

> <Gold.Chemscore.Hbond.Weighted>
-3.2710

> <Gold.Chemscore.Metal.Weighted>
-0.0000

> <Gold.Chemscore.Lipo.Weighted>
-8.6197

> <Gold.Chemscore.Internal_Hbond.Weighted>
0.0000

> <Gold.Chemscore.DEClash.Weighted>
0.0719

> <Gold.Chemscore.DEInternal.Weighted>
3.7515

> <Gold.Chemscore.Rot.Weighted>
5.7380

> <Gold.Chemscore.Internal.Correction.Weighted>
   9.000000E+99

> <Gold.Protein.RotatedTorsions>
[ 6907 6896 6895 6894 ] final  -38.89 input  -60.11 | X-H torsion
[ 7974 7965 7964 7962 ] final  143.31 input  175.53 | X-H torsion
[ 8008 7997 7996 7995 ] final  148.52 input   59.86 | X-H torsion
[ 10167 10162 10161 10158 ] final  -13.18 input  -65.29 | X-H torsion
[ 10718 10713 10712 10709 ] final  105.19 input   66.30 | X-H torsion
[ 10763 10752 10751 10750 ] final  156.62 input  -60.55 | X-H torsion
[ 11005 11000 10999 10996 ] final   -7.77 input  -57.11 | X-H torsion

> <Gold.Protein.ActiveResidues>
 VAL166  LYS551  ARG553  GLY616  TRP617  ASP618  TYR619  PRO620  LYS621  CYS622 
 ASP623  PHE694  ASN695  SER759  ASP760  ASP761  ALA762  ILE779  LEU786  VAL792 
 PHE793  MET794  SER795  GLU796  ALA797  LYS798  CYS799  TRP800  GLU811  SER814 

> <Gold.Protein.RotatedAtoms>
  150.9969  134.9291  159.7931 H   0  0  0  0  0  0  0  0  0  0  0  0  # atno 6907 bound_to 6896
  152.5267  134.3206  159.9157 H   0  0  0  0  0  0  0  0  0  0  0  0  # atno 6908 bound_to 6896
  151.3211  133.3998  159.2689 H   0  0  0  0  0  0  0  0  0  0  0  0  # atno 6909 bound_to 6896
  144.8932  139.5528  143.5789 H   0  0  0  0  0  0  0  0  0  0  0  0  # atno 7974 bound_to 7965
  156.2788  140.2126  156.5712 H   0  0  0  0  0  0  0  0  0  0  0  0  # atno 8008 bound_to 7997
  154.7134  140.0510  157.0595 H   0  0  0  0  0  0  0  0  0  0  0  0  # atno 8009 bound_to 7997
  155.0575  140.3163  155.4674 H   0  0  0  0  0  0  0  0  0  0  0  0  # atno 8010 bound_to 7997
  140.7177  143.5453  150.9362 H   0  0  0  0  0  0  0  0  0  0  0  0  # atno 10167 bound_to 10162
  157.6714  131.0822  150.5819 H   0  0  0  0  0  0  0  0  0  0  0  0  # atno 10718 bound_to 10713
  154.1873  135.2796  155.3033 H   0  0  0  0  0  0  0  0  0  0  0  0  # atno 10763 bound_to 10752
  154.5956  135.5546  153.7326 H   0  0  0  0  0  0  0  0  0  0  0  0  # atno 10764 bound_to 10752
  153.0122  135.6379  154.2012 H   0  0  0  0  0  0  0  0  0  0  0  0  # atno 10765 bound_to 10752
  140.7164  133.8866  155.8788 H   0  0  0  0  0  0  0  0  0  0  0  0  # atno 11005 bound_to 11000
  146.3066  139.7600  142.9051 LP  0  0  0  0  0  0  0  0  0  0  0  0  # atno 17320 bound_to 7965
  145.3746  141.0348  143.3211 LP  0  0  0  0  0  0  0  0  0  0  0  0  # atno 17321 bound_to 7965
  139.9176  143.6644  152.3103 LP  0  0  0  0  0  0  0  0  0  0  0  0  # atno 17342 bound_to 10162
  139.7050  144.7629  151.1209 LP  0  0  0  0  0  0  0  0  0  0  0  0  # atno 17343 bound_to 10162
  156.6120  130.4382  149.5855 LP  0  0  0  0  0  0  0  0  0  0  0  0  # atno 17370 bound_to 10713
  156.2423  130.6858  151.1567 LP  0  0  0  0  0  0  0  0  0  0  0  0  # atno 17371 bound_to 10713
  141.0041  134.1110  157.4288 LP  0  0  0  0  0  0  0  0  0  0  0  0  # atno 17394 bound_to 11000
  139.8859  135.0076  156.6463 LP  0  0  0  0  0  0  0  0  0  0  0  0  # atno 17395 bound_to 11000

$$$$
