AV-unprocessed.smi:38|AV-procd|sdf|335|dock6
  -GOLD-   2262016173D 1   1.00000     0.00000
 Structure written by MMmdl.
 28 29  0  0  0  0  0  0  0  0  1 V2000
  152.4883  139.8838  156.2126 O   0  0  0  0  0  0  0  0  0  0  0  0
  151.3843  139.8314  155.6741 C   0  0  0  0  0  0  0  0  0  0  0  0
  150.4226  140.8096  155.9445 N   0  0  0  0  0  0  0  0  0  0  0  0
  149.1396  140.8618  155.3957 C   0  0  0  0  0  0  0  0  0  0  0  0
  148.3825  141.7821  155.7005 O   0  0  0  0  0  0  0  0  0  0  0  0
  148.7833  139.8338  154.4936 N   0  0  0  0  0  0  0  0  0  0  0  0
  147.4069  139.8167  153.8684 C   0  0  1  0  0  0  0  0  0  0  0  0
  147.4987  139.7904  152.3394 C   0  0  0  0  0  0  0  0  0  0  0  0
  147.0962  138.3645  152.0114 C   0  0  2  0  0  0  0  0  0  0  0  0
  146.4591  138.3007  150.7519 O   0  0  0  0  0  0  0  0  0  0  0  0
  146.1499  138.0148  153.1632 C   0  0  1  0  0  0  0  0  0  0  0  0
  146.0370  136.5058  153.4289 C   0  0  0  0  0  0  0  0  0  0  0  0
  147.2728  136.0010  153.8875 O   0  0  0  0  0  0  0  0  0  0  0  0
  146.7513  138.6568  154.2831 O   0  0  0  0  0  0  0  0  0  0  0  0
  149.7075  138.8418  154.1951 C   0  0  0  0  0  0  0  0  0  0  0  0
  150.9497  138.8042  154.7322 C   0  0  0  0  0  0  0  0  0  0  0  0
  151.7888  137.8102  154.3948 F   0  0  0  0  0  0  0  0  0  0  0  0
  150.6780  141.5417  156.5910 H   0  0  0  0  0  0  0  0  0  0  0  0
  146.8542  140.6785  154.2441 H   0  0  0  0  0  0  0  0  0  0  0  0
  147.9723  137.7151  152.0187 H   0  0  0  0  0  0  0  0  0  0  0  0
  145.1704  138.4625  152.9820 H   0  0  0  0  0  0  0  0  0  0  0  0
  146.7753  140.5058  151.9445 H   0  0  0  0  0  0  0  0  0  0  0  0
  148.4915  140.0611  151.9773 H   0  0  0  0  0  0  0  0  0  0  0  0
  145.5289  138.4118  150.8774 H   0  0  0  0  0  0  0  0  0  0  0  0
  145.2985  136.3154  154.2080 H   0  0  0  0  0  0  0  0  0  0  0  0
  145.7130  135.9688  152.5369 H   0  0  0  0  0  0  0  0  0  0  0  0
  147.9558  136.3051  153.3095 H   0  0  0  0  0  0  0  0  0  0  0  0
  149.4336  138.0573  153.5056 H   0  0  0  0  0  0  0  0  0  0  0  0
  1  2  2  0  0  0  0
  2 16  1  0  0  0  0
  2  3  1  0  0  0  0
  3 18  1  0  0  0  0
  3  4  1  0  0  0  0
  4  5  2  0  0  0  0
  4  6  1  0  0  0  0
  6  7  1  0  0  0  0
  6 15  1  0  0  0  0
  7 19  1  0  0  0  0
  7 14  1  0  0  0  0
  7  8  1  0  0  0  0
  8  9  1  0  0  0  0
  8 22  1  0  0  0  0
  8 23  1  0  0  0  0
  9 20  1  0  0  0  0
  9 10  1  0  0  0  0
  9 11  1  0  0  0  0
 10 24  1  0  0  0  0
 11 21  1  0  0  0  0
 11 12  1  0  0  0  0
 11 14  1  0  0  0  0
 12 13  1  0  0  0  0
 12 25  1  0  0  0  0
 12 26  1  0  0  0  0
 13 27  1  0  0  0  0
 15 16  2  0  0  0  0
 15 28  1  0  0  0  0
 16 17  1  0  0  0  0
M  END
> <s_m_source_file>
AV-unprocessed.smi

> <i_m_source_file_index>
38

> <i_lp_mmshare_version>
43012

> <i_f3d_flags>
0

> <s_epik_input>
Tz1jMVtuSF1jKD1PKW4oW2NIXWMxRilbQ0BIXTJbQ0gyXVtDQEhdKFtPSF0pW0NASF0oTzIpW0NIMl1bT0hd

> <s_epik_cmdline>
J2VwaWtfcHl0aG9uJywgJy1waCcsICc3LjAnLCAnLXRuJywgJzgnLCAnLW1hJywgJzIwMCcsICctbWV0YWxfYmluZGluZycsICctaW1hZScsICc8aW5maWxlLm1hZT4nLCAnLW9tYWUnLCAnPG91dGZpbGUubWFlPic=

> <r_lp_tautomer_probability>
0.999537

> <r_epik_Ionization_Penalty>
0.0357432

> <r_epik_Ionization_Penalty_Charging>
0.0357431

> <r_epik_Ionization_Penalty_Neutral>
1.19946e-07

> <r_epik_State_Penalty>
0.0298169

> <r_epik_Charging_Adjusted_Penalty>
0.06556

> <i_epik_Tot_Q>
0

> <i_epik_Tot_abs_Q>
0

> <r_epik_Metal_State_Penalty>
2.348

> <b_epik_Metal_Only>
0

> <s_epik_Chemistry_Notes>
This compound contains an acetal/aminal-like group ( X-CH(R)-Y where X, Y are N, S, or O) that may be acid/base labile, releasing an aldehyde.

> <s_lp_Force_Field>
OPLS_2005

> <r_lp_Energy>
27.0042

> <b_lp_Chiralities_Consistent>
1

> <s_lp_Variant>
AV-unprocessed.smi:38-1

> <Gold.Version>
5.8.1

> <Gold.Id.Protein>
6NUR|6NUR_protein|mol2

> <Gold.PLP.Fitness>
37.0952

> <Gold.PLP.PLP>
-24.5168

> <Gold.PLP.part.hbond>
-4.0000

> <Gold.PLP.part.metal>
0.0000

> <Gold.PLP.part.buried>
4.4942

> <Gold.PLP.part.nonpolar>
-25.9041

> <Gold.PLP.part.repulsive>
1.4472

> <Gold.PLP.ligand.clash>
0.0000

> <Gold.PLP.ligand.torsion>
0.0634

> <Gold.PLP.Chemscore.Hbond>
3.2320

> <Gold.PLP.Chemscore.CHOScore>
1.0000

> <Gold.PLP.Chemscore.Metal>
0.0000

> <Gold.Chemscore.Hbonds>
donor molecule, donor type, donor heavy atom, donor atom, acceptor molecule, acceptor atom, score
      L1  H    10    24       P1 10171  0.78
      L1  H    13    27       P1  7948  1.00
      P1  H  7954  7966       L1    10  0.54
      P1  H  7997  8010       L1     1  1.00
      L1  C    15    28       P1  7948  1.00

> <Gold.PLP.Chemscore.Internal.Correction>
0.0092

> <Gold.Rescore>
     Score         DG    S(hbond)    S(metal)    S(lipo)     H(rot)  DE(clash)    DE(int)     intcor
      9.49     -12.27       2.72        0.00      44.04       2.91       2.72       0.06       ----

> <Gold.Chemscore.Fitness>
9.4948

> <Gold.Chemscore.DG>
-12.2725

> <Gold.Chemscore.ZeroCoef>
-5.4800

> <Gold.Chemscore.Hbond>
2.7244

> <Gold.Chemscore.Metal>
0.0000

> <Gold.Chemscore.Lipo>
44.0439

> <Gold.Chemscore.Internal_Hbond>
0.0000

> <Gold.Chemscore.DEClash>
2.7218

> <Gold.Chemscore.DEInternal>
0.0559

> <Gold.Chemscore.Rot>
2.9141

> <Gold.Chemscore.Internal.Correction>
   9.000000E+99

> <Gold.Chemscore.Hbonds>
donor molecule, donor type, donor heavy atom, donor atom, acceptor molecule, acceptor atom, score
      L1  H    10    24       P1 10171  0.76
      L1  H    13    27       P1  7948  0.98
      P1  H  7954  7966       L1    10  0.03
      P1  H  7997  8010       L1     1  1.00

> <Gold.Chemscore.Hbond.Weighted>
-9.0994

> <Gold.Chemscore.Metal.Weighted>
-0.0000

> <Gold.Chemscore.Lipo.Weighted>
-5.1531

> <Gold.Chemscore.Internal_Hbond.Weighted>
0.0000

> <Gold.Chemscore.DEClash.Weighted>
2.7218

> <Gold.Chemscore.DEInternal.Weighted>
0.0559

> <Gold.Chemscore.Rot.Weighted>
7.4601

> <Gold.Chemscore.Internal.Correction.Weighted>
   9.000000E+99

> <Gold.Protein.RotatedTorsions>
[ 6907 6896 6895 6894 ] final  138.28 input  -60.11 | X-H torsion
[ 7974 7965 7964 7962 ] final  -26.49 input  175.53 | X-H torsion
[ 8008 7997 7996 7995 ] final   78.36 input   59.86 | X-H torsion
[ 10167 10162 10161 10158 ] final -101.42 input  -65.29 | X-H torsion
[ 10718 10713 10712 10709 ] final  -99.69 input   66.30 | X-H torsion
[ 10763 10752 10751 10750 ] final  171.93 input  -60.55 | X-H torsion
[ 11005 11000 10999 10996 ] final  136.37 input  -57.11 | X-H torsion

> <Gold.Protein.ActiveResidues>
 VAL166  LYS551  ARG553  GLY616  TRP617  ASP618  TYR619  PRO620  LYS621  CYS622 
 ASP623  PHE694  ASN695  SER759  ASP760  ASP761  ALA762  ILE779  LEU786  VAL792 
 PHE793  MET794  SER795  GLU796  ALA797  LYS798  CYS799  TRP800  GLU811  SER814 

> <Gold.Protein.RotatedAtoms>
  152.2684  133.5360  159.5423 H   0  0  0  0  0  0  0  0  0  0  0  0  # atno 6907 bound_to 6896
  150.7150  134.0732  159.3881 H   0  0  0  0  0  0  0  0  0  0  0  0  # atno 6908 bound_to 6896
  151.8648  135.0511  160.0524 H   0  0  0  0  0  0  0  0  0  0  0  0  # atno 6909 bound_to 6896
  146.1422  140.5027  142.8647 H   0  0  0  0  0  0  0  0  0  0  0  0  # atno 7974 bound_to 7965
  155.8547  140.3456  155.5716 H   0  0  0  0  0  0  0  0  0  0  0  0  # atno 8008 bound_to 7997
  155.8000  140.0884  157.1982 H   0  0  0  0  0  0  0  0  0  0  0  0  # atno 8009 bound_to 7997
  154.4009  140.1467  156.3250 H   0  0  0  0  0  0  0  0  0  0  0  0  # atno 8010 bound_to 7997
  140.2415  143.3535  152.0797 H   0  0  0  0  0  0  0  0  0  0  0  0  # atno 10167 bound_to 10162
  156.0141  130.5294  150.6707 H   0  0  0  0  0  0  0  0  0  0  0  0  # atno 10718 bound_to 10713
  154.4188  135.2757  155.1989 H   0  0  0  0  0  0  0  0  0  0  0  0  # atno 10763 bound_to 10752
  154.3943  135.6059  153.5864 H   0  0  0  0  0  0  0  0  0  0  0  0  # atno 10764 bound_to 10752
  152.9832  135.5911  154.4481 H   0  0  0  0  0  0  0  0  0  0  0  0  # atno 10765 bound_to 10752
  140.0041  134.9466  157.0137 H   0  0  0  0  0  0  0  0  0  0  0  0  # atno 11005 bound_to 11000
  144.7805  140.5830  143.6609 LP  0  0  0  0  0  0  0  0  0  0  0  0  # atno 17320 bound_to 7965
  145.5021  139.1483  143.3651 LP  0  0  0  0  0  0  0  0  0  0  0  0  # atno 17321 bound_to 7965
  139.5076  144.6834  151.5950 LP  0  0  0  0  0  0  0  0  0  0  0  0  # atno 17342 bound_to 10162
  140.6110  143.9437  150.6453 LP  0  0  0  0  0  0  0  0  0  0  0  0  # atno 17343 bound_to 10162
  157.4430  131.0863  151.0924 LP  0  0  0  0  0  0  0  0  0  0  0  0  # atno 17370 bound_to 10713
  157.1462  130.6164  149.5569 LP  0  0  0  0  0  0  0  0  0  0  0  0  # atno 17371 bound_to 10713
  140.4673  134.1423  155.7198 LP  0  0  0  0  0  0  0  0  0  0  0  0  # atno 17394 bound_to 11000
  141.1664  133.8694  157.1702 LP  0  0  0  0  0  0  0  0  0  0  0  0  # atno 17395 bound_to 11000

$$$$
