AV-unprocessed.smi:2822|AV-procd|sdf|10862|dock3
  -GOLD-   2272015303D 1   1.00000     0.00000
 Structure written by MMmdl.
 41 43  0  0  0  0  0  0  0  0  3 V2000
  149.9149  138.2187  154.3574 Cl  0  0  0  0  0  0  0  0  0  0  0  0
  148.9388  139.6244  154.1100 C   0  0  0  0  0  0  0  0  0  0  0  0
  149.3579  140.8579  154.6501 C   0  0  0  0  0  0  0  0  0  0  0  0
  148.6076  141.9651  154.4680 N   0  3  0  0  0  0  0  0  0  0  0  0
  147.4478  141.9540  153.7774 C   0  0  0  0  0  0  0  0  0  0  0  0
  146.9766  140.7511  153.2131 C   0  0  0  0  0  0  0  0  0  0  0  0
  147.7273  139.5599  153.3778 C   0  0  0  0  0  0  0  0  0  0  0  0
  147.3132  138.3310  152.8402 N   0  0  0  0  0  0  0  0  0  0  0  0
  145.9040  138.0521  152.6067 C   0  0  0  0  0  0  0  0  0  0  0  0
  145.6622  136.5652  152.3089 C   0  0  2  0  0  0  0  0  0  0  0  0
  145.8331  136.2560  150.8046 C   0  0  0  0  0  0  0  0  0  0  0  0
  145.4808  134.8495  150.4925 N   0  3  1  0  0  0  0  0  0  0  0  0
  146.5393  133.8764  150.8771 C   0  0  0  0  0  0  0  0  0  0  0  0
  146.1565  132.4446  150.4757 C   0  0  0  0  0  0  0  0  0  0  0  0
  144.8118  132.0495  151.0953 C   0  0  0  0  0  0  0  0  0  0  0  0
  143.7321  133.0597  150.6843 C   0  0  0  0  0  0  0  0  0  0  0  0
  144.1269  134.5149  151.0148 C   0  0  1  0  0  0  0  0  0  0  0  0
  144.0177  134.8682  152.5130 C   0  0  0  0  0  0  0  0  0  0  0  0
  144.3279  136.2456  152.6936 O   0  0  0  0  0  0  0  0  0  0  0  0
  150.2663  140.9910  155.2193 H   0  0  0  0  0  0  0  0  0  0  0  0
  146.9350  142.9014  153.6960 H   0  0  0  0  0  0  0  0  0  0  0  0
  146.0487  140.7639  152.6612 H   0  0  0  0  0  0  0  0  0  0  0  0
  147.9598  137.5542  152.8478 H   0  0  0  0  0  0  0  0  0  0  0  0
  145.3158  138.3629  153.4710 H   0  0  0  0  0  0  0  0  0  0  0  0
  145.5719  138.6475  151.7556 H   0  0  0  0  0  0  0  0  0  0  0  0
  146.3654  135.9711  152.8947 H   0  0  0  0  0  0  0  0  0  0  0  0
  145.1796  136.9070  150.2222 H   0  0  0  0  0  0  0  0  0  0  0  0
  146.8514  136.4690  150.4768 H   0  0  0  0  0  0  0  0  0  0  0  0
  147.4748  134.1514  150.3884 H   0  0  0  0  0  0  0  0  0  0  0  0
  146.7252  133.9147  151.9503 H   0  0  0  0  0  0  0  0  0  0  0  0
  146.0995  132.3682  149.3891 H   0  0  0  0  0  0  0  0  0  0  0  0
  146.9327  131.7485  150.7952 H   0  0  0  0  0  0  0  0  0  0  0  0
  144.5295  131.0475  150.7709 H   0  0  0  0  0  0  0  0  0  0  0  0
  144.8981  132.0110  152.1816 H   0  0  0  0  0  0  0  0  0  0  0  0
  143.5635  132.9738  149.6097 H   0  0  0  0  0  0  0  0  0  0  0  0
  142.7826  132.8084  151.1580 H   0  0  0  0  0  0  0  0  0  0  0  0
  143.4201  135.1588  150.4889 H   0  0  0  0  0  0  0  0  0  0  0  0
  143.0012  134.6951  152.8667 H   0  0  0  0  0  0  0  0  0  0  0  0
  144.6738  134.2514  153.1281 H   0  0  0  0  0  0  0  0  0  0  0  0
  145.4175  134.7888  149.4861 H   0  0  0  0  0  0  0  0  0  0  0  0
  148.9309  142.8463  154.8684 H   0  0  0  0  0  0  0  0  0  0  0  0
  1  2  1  0  0  0  0
  2  7  1  0  0  0  0
  2  3  2  0  0  0  0
  3  4  1  0  0  0  0
  3 20  1  0  0  0  0
  4  5  2  0  0  0  0
  4 41  1  0  0  0  0
  5  6  1  0  0  0  0
  5 21  1  0  0  0  0
  6  7  2  0  0  0  0
  6 22  1  0  0  0  0
  7  8  1  0  0  0  0
  8  9  1  0  0  0  0
  8 23  1  0  0  0  0
  9 10  1  0  0  0  0
  9 24  1  0  0  0  0
  9 25  1  0  0  0  0
 10 19  1  0  0  0  0
 10 11  1  0  0  0  0
 10 26  1  0  0  0  0
 11 12  1  0  0  0  0
 11 27  1  0  0  0  0
 11 28  1  0  0  0  0
 12 17  1  0  0  0  0
 12 13  1  0  0  0  0
 12 40  1  0  0  0  0
 13 14  1  0  0  0  0
 13 29  1  0  0  0  0
 13 30  1  0  0  0  0
 14 15  1  0  0  0  0
 14 31  1  0  0  0  0
 14 32  1  0  0  0  0
 15 16  1  0  0  0  0
 15 33  1  0  0  0  0
 15 34  1  0  0  0  0
 16 17  1  0  0  0  0
 16 35  1  0  0  0  0
 16 36  1  0  0  0  0
 17 18  1  0  0  0  0
 17 37  1  0  0  0  0
 18 19  1  0  0  0  0
 18 38  1  0  0  0  0
 18 39  1  0  0  0  0
M  CHG  1   4   1
M  CHG  1  12   1
M  END
> <s_m_source_file>
AV-unprocessed.smi

> <i_m_source_file_index>
2822

> <i_lp_mmshare_version>
43012

> <i_f3d_flags>
0

> <s_epik_input>
Q2xjMVtjSF1uW2NIXVtjSF1jMVtOSF1bQ0gyXVtDQEhdKFtDSDJdMilPW0NIMl1bQ0BASF0oTjIzKVtDSDJdW0NIMl1bQ0gyXVtDSDJdMw==

> <s_epik_cmdline>
J2VwaWtfcHl0aG9uJywgJy1waCcsICc3LjAnLCAnLXRuJywgJzgnLCAnLW1hJywgJzIwMCcsICctbWV0YWxfYmluZGluZycsICctaW1hZScsICc8aW5maWxlLm1hZT4nLCAnLW9tYWUnLCAnPG91dGZpbGUubWFlPic=

> <r_lp_tautomer_probability>
1

> <r_epik_Ionization_Penalty>
0.254999

> <r_epik_Ionization_Penalty_Charging>
0.254956

> <r_epik_Ionization_Penalty_Neutral>
4.33524e-05

> <r_epik_State_Penalty>
0.230978

> <r_epik_Charging_Adjusted_Penalty>
0.485934

> <i_epik_Tot_Q>
2

> <i_epik_Tot_abs_Q>
2

> <r_epik_Metal_State_Penalty>
3.47007

> <b_epik_Metal_Only>
0

> <s_lp_Force_Field>
OPLS_2005

> <r_lp_Energy>
40.6949

> <b_lp_Chiralities_Consistent>
1

> <s_lp_Variant>
AV-unprocessed.smi:2822-3

> <Gold.Version>
5.8.1

> <Gold.Id.Protein>
6NUR|6NUR_protein|mol2

> <Gold.PLP.Fitness>
47.1873

> <Gold.PLP.PLP>
-36.3632

> <Gold.PLP.part.hbond>
-3.0547

> <Gold.PLP.part.metal>
0.0000

> <Gold.PLP.part.buried>
-2.3838

> <Gold.PLP.part.nonpolar>
-31.4518

> <Gold.PLP.part.repulsive>
0.4565

> <Gold.PLP.ligand.clash>
0.0000

> <Gold.PLP.ligand.torsion>
0.5282

> <Gold.PLP.Chemscore.Hbond>
3.9600

> <Gold.PLP.Chemscore.CHOScore>
0.0000

> <Gold.PLP.Chemscore.Metal>
0.0000

> <Gold.Chemscore.Hbonds>
donor molecule, donor type, donor heavy atom, donor atom, acceptor molecule, acceptor atom, score
      L1  H     4    41       P1  8028  2.00
      L1  H     8    23       P1  7948  0.96
      L1  H    12    40       P1  7921  1.00

> <Gold.PLP.Chemscore.Internal.Correction>
0.0004

> <Gold.Rescore>
     Score         DG    S(hbond)    S(metal)    S(lipo)     H(rot)  DE(clash)    DE(int)     intcor
     23.21     -24.43       2.91        0.00     105.01       1.20       0.70       0.51       ----

> <Gold.Chemscore.Fitness>
23.2125

> <Gold.Chemscore.DG>
-24.4281

> <Gold.Chemscore.ZeroCoef>
-5.4800

> <Gold.Chemscore.Hbond>
2.9115

> <Gold.Chemscore.Metal>
0.0000

> <Gold.Chemscore.Lipo>
105.0088

> <Gold.Chemscore.Internal_Hbond>
0.0000

> <Gold.Chemscore.DEClash>
0.7045

> <Gold.Chemscore.DEInternal>
0.5111

> <Gold.Chemscore.Rot>
1.1962

> <Gold.Chemscore.Internal.Correction>
   9.000000E+99

> <Gold.Chemscore.Hbonds>
donor molecule, donor type, donor heavy atom, donor atom, acceptor molecule, acceptor atom, score
      L1  H     4    41       P1  8028  0.94
      L1  H     8    23       P1  7948  0.92
      L1  H    12    40       P1  7921  0.95

> <Gold.Chemscore.Hbond.Weighted>
-9.7244

> <Gold.Chemscore.Metal.Weighted>
-0.0000

> <Gold.Chemscore.Lipo.Weighted>
-12.2860

> <Gold.Chemscore.Internal_Hbond.Weighted>
0.0000

> <Gold.Chemscore.DEClash.Weighted>
0.7045

> <Gold.Chemscore.DEInternal.Weighted>
0.5111

> <Gold.Chemscore.Rot.Weighted>
3.0623

> <Gold.Chemscore.Internal.Correction.Weighted>
   9.000000E+99

> <Gold.Protein.RotatedTorsions>
[ 6907 6896 6895 6894 ] final   57.44 input  -60.11 | X-H torsion
[ 7974 7965 7964 7962 ] final  120.71 input  175.53 | X-H torsion
[ 8008 7997 7996 7995 ] final  -48.58 input   59.86 | X-H torsion
[ 10167 10162 10161 10158 ] final  -39.01 input  -65.29 | X-H torsion
[ 10718 10713 10712 10709 ] final  129.18 input   66.30 | X-H torsion
[ 10763 10752 10751 10750 ] final  -20.11 input  -60.55 | X-H torsion
[ 11005 11000 10999 10996 ] final  -88.20 input  -57.11 | X-H torsion

> <Gold.Protein.ActiveResidues>
 VAL166  LYS551  ARG553  GLY616  TRP617  ASP618  TYR619  PRO620  LYS621  CYS622 
 ASP623  PHE694  ASN695  SER759  ASP760  ASP761  ALA762  ILE779  LEU786  VAL792 
 PHE793  MET794  SER795  GLU796  ALA797  LYS798  CYS799  TRP800  GLU811  SER814 

> <Gold.Protein.RotatedAtoms>
  152.3731  134.6704  160.0168 H   0  0  0  0  0  0  0  0  0  0  0  0  # atno 6907 bound_to 6896
  151.6991  133.3305  159.3270 H   0  0  0  0  0  0  0  0  0  0  0  0  # atno 6908 bound_to 6896
  150.7689  134.6567  159.6362 H   0  0  0  0  0  0  0  0  0  0  0  0  # atno 6909 bound_to 6896
  145.1279  139.3346  143.4680 H   0  0  0  0  0  0  0  0  0  0  0  0  # atno 7974 bound_to 7965
  154.4031  140.1318  156.4361 H   0  0  0  0  0  0  0  0  0  0  0  0  # atno 8008 bound_to 7997
  155.7504  140.3488  155.5127 H   0  0  0  0  0  0  0  0  0  0  0  0  # atno 8009 bound_to 7997
  155.8955  140.1010  157.1378 H   0  0  0  0  0  0  0  0  0  0  0  0  # atno 8010 bound_to 7997
  140.7076  143.3241  151.2722 H   0  0  0  0  0  0  0  0  0  0  0  0  # atno 10167 bound_to 10162
  157.5178  131.1098  150.9199 H   0  0  0  0  0  0  0  0  0  0  0  0  # atno 10718 bound_to 10713
  153.6152  135.6995  153.5331 H   0  0  0  0  0  0  0  0  0  0  0  0  # atno 10763 bound_to 10752
  153.2983  135.4136  155.1229 H   0  0  0  0  0  0  0  0  0  0  0  0  # atno 10764 bound_to 10752
  154.8555  135.3642  154.5692 H   0  0  0  0  0  0  0  0  0  0  0  0  # atno 10765 bound_to 10752
  141.1605  133.7555  156.9416 H   0  0  0  0  0  0  0  0  0  0  0  0  # atno 11005 bound_to 11000
  146.3516  140.1266  142.8598 LP  0  0  0  0  0  0  0  0  0  0  0  0  # atno 17320 bound_to 7965
  145.0667  140.9127  143.4906 LP  0  0  0  0  0  0  0  0  0  0  0  0  # atno 17321 bound_to 7965
  139.6704  144.0030  152.2749 LP  0  0  0  0  0  0  0  0  0  0  0  0  # atno 17342 bound_to 10162
  139.9627  144.6547  150.8064 LP  0  0  0  0  0  0  0  0  0  0  0  0  # atno 17343 bound_to 10162
  156.9819  130.5530  149.5297 LP  0  0  0  0  0  0  0  0  0  0  0  0  # atno 17370 bound_to 10713
  156.0332  130.5422  150.8588 LP  0  0  0  0  0  0  0  0  0  0  0  0  # atno 17371 bound_to 10713
  140.1317  134.9351  157.2347 LP  0  0  0  0  0  0  0  0  0  0  0  0  # atno 17394 bound_to 11000
  140.2944  134.3203  155.7306 LP  0  0  0  0  0  0  0  0  0  0  0  0  # atno 17395 bound_to 11000

$$$$
