AV-unprocessed.smi:1731|AV-procd|sdf|6975|dock10
  -GOLD-   22720 8183D 1   1.00000     0.00000
 Structure written by MMmdl.
 41 42  0  0  0  0  0  0  0  0  1 V2000
  150.5788  145.4412  160.6353 C   0  0  0  0  0  0  0  0  0  0  0  0
  151.7190  144.5823  160.0701 C   0  0  2  0  0  0  0  0  0  0  0  0
  151.3663  144.0238  158.6780 C   0  0  0  0  0  0  0  0  0  0  0  0
  152.5033  143.1566  158.1081 C   0  0  0  0  0  0  0  0  0  0  0  0
  152.9054  142.0176  159.0644 C   0  0  2  0  0  0  0  0  0  0  0  0
  151.8481  141.0094  159.1218 N   0  0  0  0  0  0  0  0  0  0  0  0
  151.8405  139.8493  158.4504 C   0  0  0  0  0  0  0  0  0  0  0  0
  152.7406  139.4959  157.6881 O   0  0  0  0  0  0  0  0  0  0  0  0
  150.7352  139.1371  158.7231 N   0  0  0  0  0  0  0  0  0  0  0  0
  150.3815  137.8657  158.2054 C   0  0  0  0  0  0  0  0  0  0  0  0
  149.4503  136.9783  158.8046 C   0  0  0  0  0  0  0  0  0  0  0  0
  149.3229  135.8672  158.0955 N   0  0  0  0  0  0  0  0  0  0  0  0
  150.1651  136.0216  157.0429 N   0  0  0  0  0  0  0  0  0  0  0  0
  150.2766  134.9680  156.0496 C   0  0  0  0  0  0  0  0  0  0  0  0
  150.1800  135.5338  154.6311 C   0  0  0  0  0  0  0  0  0  0  0  0
  149.1465  135.1360  153.8845 N   0  0  0  0  0  0  0  0  0  0  0  0
  151.0253  136.3233  154.2149 O   0  0  0  0  0  0  0  0  0  0  0  0
  150.8243  137.2354  157.0771 C   0  0  0  0  0  0  0  0  0  0  0  0
  153.2322  142.5715  160.4675 C   0  0  0  0  0  0  0  0  0  0  0  0
  152.0920  143.4377  161.0316 C   0  0  0  0  0  0  0  0  0  0  0  0
  149.6700  144.8544  160.7723 H   0  0  0  0  0  0  0  0  0  0  0  0
  150.3430  146.2695  159.9666 H   0  0  0  0  0  0  0  0  0  0  0  0
  150.8498  145.8662  161.6022 H   0  0  0  0  0  0  0  0  0  0  0  0
  152.5922  145.2271  159.9614 H   0  0  0  0  0  0  0  0  0  0  0  0
  150.4501  143.4349  158.7372 H   0  0  0  0  0  0  0  0  0  0  0  0
  151.1577  144.8442  157.9905 H   0  0  0  0  0  0  0  0  0  0  0  0
  152.2140  142.7509  157.1379 H   0  0  0  0  0  0  0  0  0  0  0  0
  153.3722  143.7896  157.9231 H   0  0  0  0  0  0  0  0  0  0  0  0
  153.8021  141.5449  158.6597 H   0  0  0  0  0  0  0  0  0  0  0  0
  151.0651  141.2117  159.7260 H   0  0  0  0  0  0  0  0  0  0  0  0
  150.0794  139.5450  159.3733 H   0  0  0  0  0  0  0  0  0  0  0  0
  148.8749  137.0999  159.7105 H   0  0  0  0  0  0  0  0  0  0  0  0
  151.2293  134.4496  156.1701 H   0  0  0  0  0  0  0  0  0  0  0  0
  149.4885  134.2353  156.2288 H   0  0  0  0  0  0  0  0  0  0  0  0
  149.0399  135.4826  152.9419 H   0  0  0  0  0  0  0  0  0  0  0  0
  148.4733  134.4882  154.2675 H   0  0  0  0  0  0  0  0  0  0  0  0
  151.5313  137.5250  156.3139 H   0  0  0  0  0  0  0  0  0  0  0  0
  153.4586  141.7574  161.1572 H   0  0  0  0  0  0  0  0  0  0  0  0
  154.1390  143.1747  160.4088 H   0  0  0  0  0  0  0  0  0  0  0  0
  152.3913  143.8462  161.9973 H   0  0  0  0  0  0  0  0  0  0  0  0
  151.2175  142.8138  161.2214 H   0  0  0  0  0  0  0  0  0  0  0  0
  1  2  1  0  0  0  0
  1 21  1  0  0  0  0
  1 22  1  0  0  0  0
  1 23  1  0  0  0  0
  2 20  1  0  0  0  0
  2  3  1  0  0  0  0
  2 24  1  0  0  0  0
  3  4  1  0  0  0  0
  3 25  1  0  0  0  0
  3 26  1  0  0  0  0
  4  5  1  0  0  0  0
  4 27  1  0  0  0  0
  4 28  1  0  0  0  0
  5  6  1  0  0  0  0
  5 19  1  0  0  0  0
  5 29  1  0  0  0  0
  6  7  1  0  0  0  0
  6 30  1  0  0  0  0
  7  8  2  0  0  0  0
  7  9  1  0  0  0  0
  9 10  1  0  0  0  0
  9 31  1  0  0  0  0
 10 18  2  0  0  0  0
 10 11  1  0  0  0  0
 11 12  2  0  0  0  0
 11 32  1  0  0  0  0
 12 13  1  0  0  0  0
 13 14  1  0  0  0  0
 13 18  1  0  0  0  0
 14 15  1  0  0  0  0
 14 33  1  0  0  0  0
 14 34  1  0  0  0  0
 15 16  1  0  0  0  0
 15 17  2  0  0  0  0
 16 35  1  0  0  0  0
 16 36  1  0  0  0  0
 18 37  1  0  0  0  0
 19 20  1  0  0  0  0
 19 38  1  0  0  0  0
 19 39  1  0  0  0  0
 20 40  1  0  0  0  0
 20 41  1  0  0  0  0
M  END
> <s_m_source_file>
AV-unprocessed.smi

> <i_m_source_file_index>
1731

> <i_lp_mmshare_version>
43012

> <i_f3d_flags>
0

> <s_epik_input>
W0NIM11bQ0BASF0xW0NIMl1bQ0gyXVtDQEhdKFtDSDJdW0NIMl0xKVtOSF1DKD1PKVtOSF1jMltjSF1ubihbY0hdMilbQ0gyXUMoPU8pW05IMl0=

> <s_epik_cmdline>
J2VwaWtfcHl0aG9uJywgJy1waCcsICc3LjAnLCAnLXRuJywgJzgnLCAnLW1hJywgJzIwMCcsICctbWV0YWxfYmluZGluZycsICctaW1hZScsICc8aW5maWxlLm1hZT4nLCAnLW9tYWUnLCAnPG91dGZpbGUubWFlPic=

> <r_lp_tautomer_probability>
1

> <r_epik_Ionization_Penalty>
4.81284e-05

> <r_epik_Ionization_Penalty_Charging>
0

> <r_epik_Ionization_Penalty_Neutral>
4.81284e-05

> <r_epik_State_Penalty>
-0

> <r_epik_Charging_Adjusted_Penalty>
0

> <i_epik_Tot_Q>
0

> <i_epik_Tot_abs_Q>
0

> <r_epik_Metal_State_Penalty>
-0

> <b_epik_Metal_Only>
0

> <s_lp_Force_Field>
OPLS_2005

> <r_lp_Energy>
11.3018

> <b_lp_Chiralities_Consistent>
1

> <s_lp_Variant>
AV-unprocessed.smi:1731-2

> <Gold.Version>
5.8.1

> <Gold.Id.Protein>
6NUR|6NUR_protein|mol2

> <Gold.PLP.Fitness>
42.0563

> <Gold.PLP.PLP>
-31.0361

> <Gold.PLP.part.hbond>
-4.0000

> <Gold.PLP.part.metal>
0.0000

> <Gold.PLP.part.buried>
-2.1911

> <Gold.PLP.part.nonpolar>
-27.7897

> <Gold.PLP.part.repulsive>
1.2346

> <Gold.PLP.ligand.clash>
0.0000

> <Gold.PLP.ligand.torsion>
0.4934

> <Gold.PLP.Chemscore.Hbond>
4.0000

> <Gold.PLP.Chemscore.CHOScore>
0.0000

> <Gold.PLP.Chemscore.Metal>
0.0000

> <Gold.Chemscore.Hbonds>
donor molecule, donor type, donor heavy atom, donor atom, acceptor molecule, acceptor atom, score
      L1  H    16    35       P1  7948  0.37
      P1  H  6896  6909       L1    12  0.08
      P1  H  7997  8009       L1     8  1.00
      P1  H 10752 10763       L1    17  0.84

> <Gold.PLP.Chemscore.Internal.Correction>
0.0071

> <Gold.Rescore>
     Score         DG    S(hbond)    S(metal)    S(lipo)     H(rot)  DE(clash)    DE(int)     intcor
     18.80     -22.41       3.10        0.00      97.83       1.90       1.96       1.64       ----

> <Gold.Chemscore.Fitness>
18.8007

> <Gold.Chemscore.DG>
-22.4068

> <Gold.Chemscore.ZeroCoef>
-5.4800

> <Gold.Chemscore.Hbond>
3.0993

> <Gold.Chemscore.Metal>
0.0000

> <Gold.Chemscore.Lipo>
97.8350

> <Gold.Chemscore.Internal_Hbond>
0.0000

> <Gold.Chemscore.DEClash>
1.9619

> <Gold.Chemscore.DEInternal>
1.6442

> <Gold.Chemscore.Rot>
1.9029

> <Gold.Chemscore.Internal.Correction>
   9.000000E+99

> <Gold.Chemscore.Hbonds>
donor molecule, donor type, donor heavy atom, donor atom, acceptor molecule, acceptor atom, score
      L1  H    16    35       P1  7948  0.13
      P1  H  6896  6909       L1    12  0.01
      P1  H  7997  8009       L1     8  0.97
      P1  H 10752 10763       L1    17  0.56

> <Gold.Chemscore.Hbond.Weighted>
-10.3516

> <Gold.Chemscore.Metal.Weighted>
-0.0000

> <Gold.Chemscore.Lipo.Weighted>
-11.4467

> <Gold.Chemscore.Internal_Hbond.Weighted>
0.0000

> <Gold.Chemscore.DEClash.Weighted>
1.9619

> <Gold.Chemscore.DEInternal.Weighted>
1.6442

> <Gold.Chemscore.Rot.Weighted>
4.8714

> <Gold.Chemscore.Internal.Correction.Weighted>
   9.000000E+99

> <Gold.Protein.RotatedTorsions>
[ 6907 6896 6895 6894 ] final   37.80 input  -60.11 | X-H torsion
[ 7974 7965 7964 7962 ] final   56.07 input  175.53 | X-H torsion
[ 8008 7997 7996 7995 ] final  168.58 input   59.86 | X-H torsion
[ 10167 10162 10161 10158 ] final  -45.43 input  -65.29 | X-H torsion
[ 10718 10713 10712 10709 ] final -154.85 input   66.30 | X-H torsion
[ 10763 10752 10751 10750 ] final   62.74 input  -60.55 | X-H torsion
[ 11005 11000 10999 10996 ] final  -35.29 input  -57.11 | X-H torsion

> <Gold.Protein.ActiveResidues>
 VAL166  LYS551  ARG553  GLY616  TRP617  ASP618  TYR619  PRO620  LYS621  CYS622 
 ASP623  PHE694  ASN695  SER759  ASP760  ASP761  ALA762  ILE779  LEU786  VAL792 
 PHE793  MET794  SER795  GLU796  ALA797  LYS798  CYS799  TRP800  GLU811  SER814 

> <Gold.Protein.RotatedAtoms>
  152.1480  134.9011  160.0549 H   0  0  0  0  0  0  0  0  0  0  0  0  # atno 6907 bound_to 6896
  152.0053  133.3836  159.4206 H   0  0  0  0  0  0  0  0  0  0  0  0  # atno 6908 bound_to 6896
  150.6872  134.3711  159.5036 H   0  0  0  0  0  0  0  0  0  0  0  0  # atno 6909 bound_to 6896
  145.9437  139.3910  143.0348 H   0  0  0  0  0  0  0  0  0  0  0  0  # atno 7974 bound_to 7965
  156.1534  140.1587  156.8732 H   0  0  0  0  0  0  0  0  0  0  0  0  # atno 8008 bound_to 7997
  154.5092  140.0805  156.7993 H   0  0  0  0  0  0  0  0  0  0  0  0  # atno 8009 bound_to 7997
  155.3851  140.3407  155.4251 H   0  0  0  0  0  0  0  0  0  0  0  0  # atno 8010 bound_to 7997
  140.6858  143.2880  151.3638 H   0  0  0  0  0  0  0  0  0  0  0  0  # atno 10167 bound_to 10162
  156.5049  130.8408  151.2624 H   0  0  0  0  0  0  0  0  0  0  0  0  # atno 10718 bound_to 10713
  152.9993  135.5454  154.6241 H   0  0  0  0  0  0  0  0  0  0  0  0  # atno 10763 bound_to 10752
  154.5534  135.2828  155.0989 H   0  0  0  0  0  0  0  0  0  0  0  0  # atno 10764 bound_to 10752
  154.2220  135.6449  153.5200 H   0  0  0  0  0  0  0  0  0  0  0  0  # atno 10765 bound_to 10752
  140.9785  133.7070  156.1642 H   0  0  0  0  0  0  0  0  0  0  0  0  # atno 11005 bound_to 11000
  145.8265  140.9652  143.0871 LP  0  0  0  0  0  0  0  0  0  0  0  0  # atno 17320 bound_to 7965
  144.6783  140.0108  143.7484 LP  0  0  0  0  0  0  0  0  0  0  0  0  # atno 17321 bound_to 7965
  139.6215  144.0897  152.2396 LP  0  0  0  0  0  0  0  0  0  0  0  0  # atno 17342 bound_to 10162
  140.0343  144.6057  150.7463 LP  0  0  0  0  0  0  0  0  0  0  0  0  # atno 17343 bound_to 10162
  157.7458  130.9969  150.2797 LP  0  0  0  0  0  0  0  0  0  0  0  0  # atno 17370 bound_to 10713
  156.3296  130.3798  149.7502 LP  0  0  0  0  0  0  0  0  0  0  0  0  # atno 17371 bound_to 10713
  140.7223  134.4345  157.5574 LP  0  0  0  0  0  0  0  0  0  0  0  0  # atno 17394 bound_to 11000
  139.8940  134.8717  156.2197 LP  0  0  0  0  0  0  0  0  0  0  0  0  # atno 17395 bound_to 11000

$$$$
