AV-unprocessed.smi:1512|AV-procd|sdf|6106|dock5
  -GOLD-   22720 6243D 1   1.00000     0.00000
 Structure written by MMmdl.
 44 46  0  0  0  0  0  0  0  0  3 V2000
  150.8511  140.7734  156.8804 C   0  0  0  0  0  0  0  0  0  0  0  0
  151.8179  141.0581  158.0423 C   0  0  2  0  0  0  0  0  0  0  0  0
  151.8741  139.8660  158.8881 N   0  0  0  0  0  0  0  0  0  0  0  0
  152.9675  139.1345  159.1534 C   0  0  0  0  0  0  0  0  0  0  0  0
  154.0886  139.4073  158.7228 O   0  0  0  0  0  0  0  0  0  0  0  0
  152.7518  137.9178  160.0649 C   0  0  0  0  0  0  0  0  0  0  0  0
  153.9296  137.5873  160.8859 N   0  0  0  0  0  0  0  0  0  0  0  0
  154.3009  138.5208  161.8716 C   0  0  0  0  0  0  0  0  0  0  0  0
  155.3574  138.3230  162.6727 C   0  0  0  0  0  0  0  0  0  0  0  0
  156.1289  137.1165  162.5001 C   0  0  0  0  0  0  0  0  0  0  0  0
  155.7941  136.2064  161.5564 C   0  0  0  0  0  0  0  0  0  0  0  0
  156.6177  135.0261  161.4279 N   0  3  0  0  0  0  0  0  0  0  0  0
  157.5796  134.8899  162.1774 O   0  0  0  0  0  0  0  0  0  0  0  0
  156.3169  134.1914  160.5796 O   0  5  0  0  0  0  0  0  0  0  0  0
  154.6197  136.4213  160.6856 C   0  0  0  0  0  0  0  0  0  0  0  0
  154.2628  135.6078  159.8310 O   0  0  0  0  0  0  0  0  0  0  0  0
  151.3982  142.2839  158.8924 C   0  0  1  0  0  0  0  0  0  0  0  0
  152.4781  142.7379  159.9077 C   0  0  0  0  0  0  0  0  0  0  0  0
  152.6572  144.2332  159.5942 C   0  0  2  0  0  0  0  0  0  0  0  0
  151.3952  145.0052  160.0193 C   0  0  0  0  0  0  0  0  0  0  0  0
  150.3657  144.5780  158.9567 C   0  0  0  0  0  0  0  0  0  0  0  0
  151.1641  143.5877  158.0869 C   0  0  1  0  0  0  0  0  0  0  0  0
  152.5425  144.2409  158.0763 C   0  0  0  0  0  0  0  0  0  0  0  0
  150.8353  141.5860  156.1553 H   0  0  0  0  0  0  0  0  0  0  0  0
  149.8317  140.6250  157.2389 H   0  0  0  0  0  0  0  0  0  0  0  0
  151.1460  139.8727  156.3405 H   0  0  0  0  0  0  0  0  0  0  0  0
  152.8010  141.2565  157.6128 H   0  0  0  0  0  0  0  0  0  0  0  0
  151.0009  139.5651  159.2959 H   0  0  0  0  0  0  0  0  0  0  0  0
  151.8857  138.1193  160.6966 H   0  0  0  0  0  0  0  0  0  0  0  0
  152.4661  137.0562  159.4584 H   0  0  0  0  0  0  0  0  0  0  0  0
  153.6790  139.4023  161.9313 H   0  0  0  0  0  0  0  0  0  0  0  0
  155.6282  139.0516  163.4228 H   0  0  0  0  0  0  0  0  0  0  0  0
  156.9914  136.9564  163.1308 H   0  0  0  0  0  0  0  0  0  0  0  0
  150.4851  142.0213  159.4295 H   0  0  0  0  0  0  0  0  0  0  0  0
  152.1759  142.5628  160.9409 H   0  0  0  0  0  0  0  0  0  0  0  0
  153.4231  142.2170  159.7492 H   0  0  0  0  0  0  0  0  0  0  0  0
  153.5826  144.6539  159.9887 H   0  0  0  0  0  0  0  0  0  0  0  0
  151.0789  144.7524  161.0319 H   0  0  0  0  0  0  0  0  0  0  0  0
  151.5643  146.0819  159.9789 H   0  0  0  0  0  0  0  0  0  0  0  0
  149.4747  144.1274  159.3950 H   0  0  0  0  0  0  0  0  0  0  0  0
  150.0465  145.4387  158.3676 H   0  0  0  0  0  0  0  0  0  0  0  0
  150.7220  143.4452  157.1017 H   0  0  0  0  0  0  0  0  0  0  0  0
  152.5424  145.2446  157.6475 H   0  0  0  0  0  0  0  0  0  0  0  0
  153.3076  143.6421  157.5799 H   0  0  0  0  0  0  0  0  0  0  0  0
  1  2  1  0  0  0  0
  1 24  1  0  0  0  0
  1 25  1  0  0  0  0
  1 26  1  0  0  0  0
  2  3  1  0  0  0  0
  2 17  1  0  0  0  0
  2 27  1  0  0  0  0
  3  4  1  0  0  0  0
  3 28  1  0  0  0  0
  4  5  2  0  0  0  0
  4  6  1  0  0  0  0
  6  7  1  0  0  0  0
  6 29  1  0  0  0  0
  6 30  1  0  0  0  0
  7 15  1  0  0  0  0
  7  8  1  0  0  0  0
  8  9  2  0  0  0  0
  8 31  1  0  0  0  0
  9 10  1  0  0  0  0
  9 32  1  0  0  0  0
 10 11  2  0  0  0  0
 10 33  1  0  0  0  0
 11 12  1  0  0  0  0
 11 15  1  0  0  0  0
 12 13  2  0  0  0  0
 12 14  1  0  0  0  0
 15 16  2  0  0  0  0
 17 22  1  0  0  0  0
 17 18  1  0  0  0  0
 17 34  1  0  0  0  0
 18 19  1  0  0  0  0
 18 35  1  0  0  0  0
 18 36  1  0  0  0  0
 19 23  1  0  0  0  0
 19 20  1  0  0  0  0
 19 37  1  0  0  0  0
 20 21  1  0  0  0  0
 20 38  1  0  0  0  0
 20 39  1  0  0  0  0
 21 22  1  0  0  0  0
 21 40  1  0  0  0  0
 21 41  1  0  0  0  0
 22 23  1  0  0  0  0
 22 42  1  0  0  0  0
 23 43  1  0  0  0  0
 23 44  1  0  0  0  0
M  CHG  1  12   1
M  CHG  1  14  -1
M  END
> <s_m_source_file>
AV-unprocessed.smi

> <i_m_source_file_index>
1512

> <i_lp_mmshare_version>
43012

> <i_f3d_flags>
0

> <s_epik_input>
W0NIMl0xW0NIMl1bQ0BIXShbQ0gyXTIpW0NAQEhdKFtDSDJdW0NAQEhdMTIpW0NASF0oW0NIM10pW05IXUMoPU8pW0NIMl1uM1tjSF1bY0hdW2NIXWMoW04rXSg9TylbTy1dKWMzPU8=

> <s_epik_cmdline>
J2VwaWtfcHl0aG9uJywgJy1waCcsICc3LjAnLCAnLXRuJywgJzgnLCAnLW1hJywgJzIwMCcsICctbWV0YWxfYmluZGluZycsICctaW1hZScsICc8aW5maWxlLm1hZT4nLCAnLW9tYWUnLCAnPG91dGZpbGUubWFlPic=

> <r_lp_tautomer_probability>
1

> <r_epik_Ionization_Penalty>
2.17697e-08

> <r_epik_Ionization_Penalty_Charging>
1.42735e-10

> <r_epik_Ionization_Penalty_Neutral>
2.16269e-08

> <r_epik_State_Penalty>
-0

> <r_epik_Charging_Adjusted_Penalty>
1.42735e-10

> <i_epik_Tot_Q>
0

> <i_epik_Tot_abs_Q>
2

> <r_epik_Metal_State_Penalty>
-0

> <b_epik_Metal_Only>
0

> <s_lp_Force_Field>
OPLS_2005

> <r_lp_Energy>
64.581

> <b_lp_Chiralities_Consistent>
1

> <s_lp_Variant>
AV-unprocessed.smi:1512-7

> <Gold.Version>
5.8.1

> <Gold.Id.Protein>
6NUR|6NUR_protein|mol2

> <Gold.PLP.Fitness>
45.6502

> <Gold.PLP.PLP>
-40.5722

> <Gold.PLP.part.hbond>
-2.0000

> <Gold.PLP.part.metal>
0.0000

> <Gold.PLP.part.buried>
-5.3663

> <Gold.PLP.part.nonpolar>
-33.2351

> <Gold.PLP.part.repulsive>
0.1197

> <Gold.PLP.ligand.clash>
0.0000

> <Gold.PLP.ligand.torsion>
0.4880

> <Gold.PLP.Chemscore.Hbond>
2.0000

> <Gold.PLP.Chemscore.CHOScore>
0.0000

> <Gold.PLP.Chemscore.Metal>
0.0000

> <Gold.Chemscore.Hbonds>
donor molecule, donor type, donor heavy atom, donor atom, acceptor molecule, acceptor atom, score
      P1  H  6896  6909       L1    16  0.98
      P1  H  7997  8009       L1     5  1.00

> <Gold.PLP.Chemscore.Internal.Correction>
0.0540

> <Gold.Rescore>
     Score         DG    S(hbond)    S(metal)    S(lipo)     H(rot)  DE(clash)    DE(int)     intcor
     19.67     -21.98       1.97        0.00     122.95       1.75       0.05       2.26       ----

> <Gold.Chemscore.Fitness>
19.6652

> <Gold.Chemscore.DG>
-21.9757

> <Gold.Chemscore.ZeroCoef>
-5.4800

> <Gold.Chemscore.Hbond>
1.9713

> <Gold.Chemscore.Metal>
0.0000

> <Gold.Chemscore.Lipo>
122.9494

> <Gold.Chemscore.Internal_Hbond>
0.0000

> <Gold.Chemscore.DEClash>
0.0490

> <Gold.Chemscore.DEInternal>
2.2616

> <Gold.Chemscore.Rot>
1.7474

> <Gold.Chemscore.Internal.Correction>
   9.000000E+99

> <Gold.Chemscore.Hbonds>
donor molecule, donor type, donor heavy atom, donor atom, acceptor molecule, acceptor atom, score
      P1  H  6896  6909       L1    16  0.91
      P1  H  7997  8009       L1     5  1.00

> <Gold.Chemscore.Hbond.Weighted>
-6.5840

> <Gold.Chemscore.Metal.Weighted>
-0.0000

> <Gold.Chemscore.Lipo.Weighted>
-14.3851

> <Gold.Chemscore.Internal_Hbond.Weighted>
0.0000

> <Gold.Chemscore.DEClash.Weighted>
0.0490

> <Gold.Chemscore.DEInternal.Weighted>
2.2616

> <Gold.Chemscore.Rot.Weighted>
4.4733

> <Gold.Chemscore.Internal.Correction.Weighted>
   9.000000E+99

> <Gold.Protein.RotatedTorsions>
[ 6907 6896 6895 6894 ] final -175.18 input  -60.11 | X-H torsion
[ 7974 7965 7964 7962 ] final  -51.45 input  175.53 | X-H torsion
[ 8008 7997 7996 7995 ] final  131.18 input   59.86 | X-H torsion
[ 10167 10162 10161 10158 ] final -124.10 input  -65.29 | X-H torsion
[ 10718 10713 10712 10709 ] final -149.82 input   66.30 | X-H torsion
[ 10763 10752 10751 10750 ] final   95.26 input  -60.55 | X-H torsion
[ 11005 11000 10999 10996 ] final   21.09 input  -57.11 | X-H torsion

> <Gold.Protein.ActiveResidues>
 VAL166  LYS551  ARG553  GLY616  TRP617  ASP618  TYR619  PRO620  LYS621  CYS622 
 ASP623  PHE694  ASN695  SER759  ASP760  ASP761  ALA762  ILE779  LEU786  VAL792 
 PHE793  MET794  SER795  GLU796  ALA797  LYS798  CYS799  TRP800  GLU811  SER814 

> <Gold.Protein.RotatedAtoms>
  151.5845  133.3374  159.3014 H   0  0  0  0  0  0  0  0  0  0  0  0  # atno 6907 bound_to 6896
  150.8295  134.7544  159.6852 H   0  0  0  0  0  0  0  0  0  0  0  0  # atno 6908 bound_to 6896
  152.4380  134.5654  159.9957 H   0  0  0  0  0  0  0  0  0  0  0  0  # atno 6909 bound_to 6896
  145.9188  140.7851  142.9658 H   0  0  0  0  0  0  0  0  0  0  0  0  # atno 7974 bound_to 7965
  156.2966  140.2577  156.2883 H   0  0  0  0  0  0  0  0  0  0  0  0  # atno 8008 bound_to 7997
  154.9534  140.0394  157.2174 H   0  0  0  0  0  0  0  0  0  0  0  0  # atno 8009 bound_to 7997
  154.8014  140.2829  155.5923 H   0  0  0  0  0  0  0  0  0  0  0  0  # atno 8010 bound_to 7997
  139.9964  143.5587  152.2321 H   0  0  0  0  0  0  0  0  0  0  0  0  # atno 10167 bound_to 10162
  156.4381  130.8108  151.2337 H   0  0  0  0  0  0  0  0  0  0  0  0  # atno 10718 bound_to 10713
  153.2511  135.4260  155.0799 H   0  0  0  0  0  0  0  0  0  0  0  0  # atno 10763 bound_to 10752
  154.8382  135.3426  154.6511 H   0  0  0  0  0  0  0  0  0  0  0  0  # atno 10764 bound_to 10752
  153.6932  135.7032  153.5141 H   0  0  0  0  0  0  0  0  0  0  0  0  # atno 10765 bound_to 10752
  140.3954  134.1774  155.7663 H   0  0  0  0  0  0  0  0  0  0  0  0  # atno 11005 bound_to 11000
  144.6750  140.1943  143.7393 LP  0  0  0  0  0  0  0  0  0  0  0  0  # atno 17320 bound_to 7965
  145.8576  139.2207  143.1735 LP  0  0  0  0  0  0  0  0  0  0  0  0  # atno 17321 bound_to 7965
  139.6303  144.7643  151.2550 LP  0  0  0  0  0  0  0  0  0  0  0  0  # atno 17342 bound_to 10162
  140.7435  143.6491  150.8265 LP  0  0  0  0  0  0  0  0  0  0  0  0  # atno 17343 bound_to 10162
  157.7507  131.0177  150.3596 LP  0  0  0  0  0  0  0  0  0  0  0  0  # atno 17370 bound_to 10713
  156.3947  130.3904  149.7003 LP  0  0  0  0  0  0  0  0  0  0  0  0  # atno 17371 bound_to 10713
  141.1876  133.8278  157.1027 LP  0  0  0  0  0  0  0  0  0  0  0  0  # atno 17394 bound_to 11000
  140.0375  134.9871  157.0899 LP  0  0  0  0  0  0  0  0  0  0  0  0  # atno 17395 bound_to 11000

$$$$
