AV-unprocessed.smi:1817|AV-procd|sdf|7369|dock5
  -GOLD-   22720 9 33D 1   1.00000     0.00000
 Structure written by MMmdl.
 43 44  0  0  0  0  0  0  0  0  2 V2000
  145.2470  131.6942  150.2809 C   0  0  0  0  0  0  0  0  0  0  0  0
  146.1011  132.6875  151.0819 C   0  0  0  0  0  0  0  0  0  0  0  0
  147.0965  132.0135  151.9523 N   0  3  0  0  0  0  0  0  0  0  0  0
  146.5041  131.0074  152.8697 C   0  0  0  0  0  0  0  0  0  0  0  0
  147.6060  130.3367  153.7172 C   0  0  0  0  0  0  0  0  0  0  0  0
  148.3491  131.3152  154.5251 N   0  0  0  0  0  0  0  0  0  0  0  0
  147.5860  131.9519  155.6235 C   0  0  1  0  0  0  0  0  0  0  0  0
  146.7519  130.8958  156.3890 C   0  0  0  0  0  0  0  0  0  0  0  0
  148.5400  132.7101  156.5874 C   0  0  0  0  0  0  0  0  0  0  0  0
  147.9322  132.9936  157.8857 N   0  0  0  0  0  0  0  0  0  0  0  0
  148.2974  133.9803  158.7180 C   0  0  0  0  0  0  0  0  0  0  0  0
  149.2174  134.7627  158.4817 O   0  0  0  0  0  0  0  0  0  0  0  0
  147.5367  133.9880  159.8244 N   0  0  0  0  0  0  0  0  0  0  0  0
  147.6210  134.8660  160.9341 C   0  0  0  0  0  0  0  0  0  0  0  0
  147.8988  136.1533  160.6962 N   0  0  0  0  0  0  0  0  0  0  0  0
  147.9510  136.8995  161.8674 N   0  0  0  0  0  0  0  0  0  0  0  0
  147.7096  136.1447  162.9437 C   0  0  0  0  0  0  0  0  0  0  0  0
  147.3940  134.4464  162.6349 S   0  0  0  0  0  0  0  0  0  0  0  0
  148.9767  132.2372  153.5668 C   0  0  0  0  0  0  0  0  0  0  0  0
  147.9277  132.9794  152.7118 C   0  0  0  0  0  0  0  0  0  0  0  0
  144.5940  132.2244  149.5874 H   0  0  0  0  0  0  0  0  0  0  0  0
  144.6087  131.0901  150.9249 H   0  0  0  0  0  0  0  0  0  0  0  0
  145.8715  131.0194  149.6946 H   0  0  0  0  0  0  0  0  0  0  0  0
  146.6278  133.3247  150.3702 H   0  0  0  0  0  0  0  0  0  0  0  0
  145.4678  133.3464  151.6778 H   0  0  0  0  0  0  0  0  0  0  0  0
  145.7465  131.4698  153.5033 H   0  0  0  0  0  0  0  0  0  0  0  0
  145.9959  130.2363  152.2918 H   0  0  0  0  0  0  0  0  0  0  0  0
  147.1899  129.5418  154.3332 H   0  0  0  0  0  0  0  0  0  0  0  0
  148.3084  129.8307  153.0530 H   0  0  0  0  0  0  0  0  0  0  0  0
  146.8897  132.6792  155.2081 H   0  0  0  0  0  0  0  0  0  0  0  0
  146.2276  131.3292  157.2395 H   0  0  0  0  0  0  0  0  0  0  0  0
  147.3818  130.0906  156.7690 H   0  0  0  0  0  0  0  0  0  0  0  0
  145.9696  130.4564  155.7721 H   0  0  0  0  0  0  0  0  0  0  0  0
  149.4779  132.1632  156.7000 H   0  0  0  0  0  0  0  0  0  0  0  0
  148.8015  133.6880  156.1878 H   0  0  0  0  0  0  0  0  0  0  0  0
  147.1668  132.3983  158.1666 H   0  0  0  0  0  0  0  0  0  0  0  0
  146.8142  133.2857  159.8829 H   0  0  0  0  0  0  0  0  0  0  0  0
  147.7183  136.5914  163.9266 H   0  0  0  0  0  0  0  0  0  0  0  0
  149.6405  132.9424  154.0624 H   0  0  0  0  0  0  0  0  0  0  0  0
  149.6295  131.6607  152.9094 H   0  0  0  0  0  0  0  0  0  0  0  0
  148.4434  133.6356  152.0100 H   0  0  0  0  0  0  0  0  0  0  0  0
  147.2962  133.6200  153.3285 H   0  0  0  0  0  0  0  0  0  0  0  0
  147.7301  131.5169  151.3424 H   0  0  0  0  0  0  0  0  0  0  0  0
  1  2  1  0  0  0  0
  1 21  1  0  0  0  0
  1 22  1  0  0  0  0
  1 23  1  0  0  0  0
  2  3  1  0  0  0  0
  2 24  1  0  0  0  0
  2 25  1  0  0  0  0
  3 20  1  0  0  0  0
  3  4  1  0  0  0  0
  3 43  1  0  0  0  0
  4  5  1  0  0  0  0
  4 26  1  0  0  0  0
  4 27  1  0  0  0  0
  5  6  1  0  0  0  0
  5 28  1  0  0  0  0
  5 29  1  0  0  0  0
  6  7  1  0  0  0  0
  6 19  1  0  0  0  0
  7  8  1  0  0  0  0
  7  9  1  0  0  0  0
  7 30  1  0  0  0  0
  8 31  1  0  0  0  0
  8 32  1  0  0  0  0
  8 33  1  0  0  0  0
  9 10  1  0  0  0  0
  9 34  1  0  0  0  0
  9 35  1  0  0  0  0
 10 11  1  0  0  0  0
 10 36  1  0  0  0  0
 11 12  2  0  0  0  0
 11 13  1  0  0  0  0
 13 14  1  0  0  0  0
 13 37  1  0  0  0  0
 14 18  1  0  0  0  0
 14 15  2  0  0  0  0
 15 16  1  0  0  0  0
 16 17  2  0  0  0  0
 17 18  1  0  0  0  0
 17 38  1  0  0  0  0
 19 20  1  0  0  0  0
 19 39  1  0  0  0  0
 19 40  1  0  0  0  0
 20 41  1  0  0  0  0
 20 42  1  0  0  0  0
M  CHG  1   3   1
M  END
> <s_m_source_file>
AV-unprocessed.smi

> <i_m_source_file_index>
1817

> <i_lp_mmshare_version>
43012

> <i_f3d_flags>
0

> <s_epik_input>
W0NIM11bQ0gyXU4xW0NIMl1bQ0gyXU4oW0NIMl1bQ0gyXTEpW0NASF0oW0NIM10pW0NIMl1bTkhdQyg9TylbTkhdYzJubltjSF1zMg==

> <s_epik_cmdline>
J2VwaWtfcHl0aG9uJywgJy1waCcsICc3LjAnLCAnLXRuJywgJzgnLCAnLW1hJywgJzIwMCcsICctbWV0YWxfYmluZGluZycsICctaW1hZScsICc8aW5maWxlLm1hZT4nLCAnLW9tYWUnLCAnPG91dGZpbGUubWFlPic=

> <r_lp_tautomer_probability>
1

> <r_epik_Ionization_Penalty>
0.0474318

> <r_epik_Ionization_Penalty_Charging>
0.0451959

> <r_epik_Ionization_Penalty_Neutral>
0.00223598

> <r_epik_State_Penalty>
0.165541

> <r_epik_Charging_Adjusted_Penalty>
0.210737

> <i_epik_Tot_Q>
1

> <i_epik_Tot_abs_Q>
1

> <r_epik_Metal_State_Penalty>
0.500395

> <b_epik_Metal_Only>
0

> <s_lp_Force_Field>
OPLS_2005

> <r_lp_Energy>
20.492

> <b_lp_Chiralities_Consistent>
1

> <s_lp_Variant>
AV-unprocessed.smi:1817-2

> <Gold.Version>
5.8.1

> <Gold.Id.Protein>
6NUR|6NUR_protein|mol2

> <Gold.PLP.Fitness>
42.6700

> <Gold.PLP.PLP>
-33.0941

> <Gold.PLP.part.hbond>
-4.0000

> <Gold.PLP.part.metal>
0.0000

> <Gold.PLP.part.buried>
-4.8017

> <Gold.PLP.part.nonpolar>
-24.2909

> <Gold.PLP.part.repulsive>
0.1208

> <Gold.PLP.ligand.clash>
0.0000

> <Gold.PLP.ligand.torsion>
0.7927

> <Gold.PLP.Chemscore.Hbond>
3.7020

> <Gold.PLP.Chemscore.CHOScore>
0.0000

> <Gold.PLP.Chemscore.Metal>
0.0000

> <Gold.Chemscore.Hbonds>
donor molecule, donor type, donor heavy atom, donor atom, acceptor molecule, acceptor atom, score
      L1  H     3    43       P1 10747  1.00
      P1  H  6896  6909       L1    12  1.00
      P1  H  6931  6943       L1    16  1.00

> <Gold.PLP.Chemscore.Internal.Correction>
0.0553

> <Gold.Rescore>
     Score         DG    S(hbond)    S(metal)    S(lipo)     H(rot)  DE(clash)    DE(int)     intcor
     17.01     -19.07       3.09        0.00      70.04       1.92       0.02       2.05       ----

> <Gold.Chemscore.Fitness>
17.0075

> <Gold.Chemscore.DG>
-19.0715

> <Gold.Chemscore.ZeroCoef>
-5.4800

> <Gold.Chemscore.Hbond>
3.0872

> <Gold.Chemscore.Metal>
0.0000

> <Gold.Chemscore.Lipo>
70.0380

> <Gold.Chemscore.Internal_Hbond>
0.0000

> <Gold.Chemscore.DEClash>
0.0166

> <Gold.Chemscore.DEInternal>
2.0474

> <Gold.Chemscore.Rot>
1.9196

> <Gold.Chemscore.Internal.Correction>
   9.000000E+99

> <Gold.Chemscore.Hbonds>
donor molecule, donor type, donor heavy atom, donor atom, acceptor molecule, acceptor atom, score
      L1  H     3    43       P1 10747  1.00
      P1  H  6896  6909       L1    12  0.74
      P1  H  6931  6943       L1    16  0.95
      P1  H  6934  6947       L1    16  0.01

> <Gold.Chemscore.Hbond.Weighted>
-10.3111

> <Gold.Chemscore.Metal.Weighted>
-0.0000

> <Gold.Chemscore.Lipo.Weighted>
-8.1944

> <Gold.Chemscore.Internal_Hbond.Weighted>
0.0000

> <Gold.Chemscore.DEClash.Weighted>
0.0166

> <Gold.Chemscore.DEInternal.Weighted>
2.0474

> <Gold.Chemscore.Rot.Weighted>
4.9141

> <Gold.Chemscore.Internal.Correction.Weighted>
   9.000000E+99

> <Gold.Protein.RotatedTorsions>
[ 6907 6896 6895 6894 ] final   35.08 input  -60.11 | X-H torsion
[ 7974 7965 7964 7962 ] final -149.25 input  175.53 | X-H torsion
[ 8008 7997 7996 7995 ] final  131.76 input   59.86 | X-H torsion
[ 10167 10162 10161 10158 ] final  -56.68 input  -65.29 | X-H torsion
[ 10718 10713 10712 10709 ] final -157.08 input   66.30 | X-H torsion
[ 10763 10752 10751 10750 ] final -154.61 input  -60.55 | X-H torsion
[ 11005 11000 10999 10996 ] final  -52.12 input  -57.11 | X-H torsion

> <Gold.Protein.ActiveResidues>
 VAL166  LYS551  ARG553  GLY616  TRP617  ASP618  TYR619  PRO620  LYS621  CYS622 
 ASP623  PHE694  ASN695  SER759  ASP760  ASP761  ALA762  ILE779  LEU786  VAL792 
 PHE793  MET794  SER795  GLU796  ALA797  LYS798  CYS799  TRP800  GLU811  SER814 

> <Gold.Protein.RotatedAtoms>
  152.1113  134.9273  160.0566 H   0  0  0  0  0  0  0  0  0  0  0  0  # atno 6907 bound_to 6896
  152.0449  133.3989  159.4361 H   0  0  0  0  0  0  0  0  0  0  0  0  # atno 6908 bound_to 6896
  150.6843  134.3294  159.4864 H   0  0  0  0  0  0  0  0  0  0  0  0  # atno 6909 bound_to 6896
  144.7979  140.5090  143.5727 H   0  0  0  0  0  0  0  0  0  0  0  0  # atno 7974 bound_to 7965
  156.2974  140.2563  156.2977 H   0  0  0  0  0  0  0  0  0  0  0  0  # atno 8008 bound_to 7997
  154.9447  140.0395  157.2133 H   0  0  0  0  0  0  0  0  0  0  0  0  # atno 8009 bound_to 7997
  154.8092  140.2841  155.5869 H   0  0  0  0  0  0  0  0  0  0  0  0  # atno 8010 bound_to 7997
  140.6303  143.2456  151.5258 H   0  0  0  0  0  0  0  0  0  0  0  0  # atno 10167 bound_to 10162
  156.5354  130.8539  151.2730 H   0  0  0  0  0  0  0  0  0  0  0  0  # atno 10718 bound_to 10713
  154.7846  135.3186  154.7914 H   0  0  0  0  0  0  0  0  0  0  0  0  # atno 10763 bound_to 10752
  153.8617  135.6853  153.4786 H   0  0  0  0  0  0  0  0  0  0  0  0  # atno 10764 bound_to 10752
  153.1494  135.4706  154.9552 H   0  0  0  0  0  0  0  0  0  0  0  0  # atno 10765 bound_to 10752
  141.0907  133.6633  156.3977 H   0  0  0  0  0  0  0  0  0  0  0  0  # atno 11005 bound_to 11000
  145.5627  139.1480  143.3332 LP  0  0  0  0  0  0  0  0  0  0  0  0  # atno 17320 bound_to 7965
  146.2253  140.5762  142.8999 LP  0  0  0  0  0  0  0  0  0  0  0  0  # atno 17321 bound_to 7965
  139.5518  144.2376  152.1543 LP  0  0  0  0  0  0  0  0  0  0  0  0  # atno 17342 bound_to 10162
  140.1618  144.5018  150.6628 LP  0  0  0  0  0  0  0  0  0  0  0  0  # atno 17343 bound_to 10162
  157.7414  130.9870  150.2447 LP  0  0  0  0  0  0  0  0  0  0  0  0  # atno 17370 bound_to 10713
  156.3021  130.3760  149.7740 LP  0  0  0  0  0  0  0  0  0  0  0  0  # atno 17371 bound_to 10713
  140.5258  134.6260  157.5333 LP  0  0  0  0  0  0  0  0  0  0  0  0  # atno 17394 bound_to 11000
  139.9733  134.7257  155.9999 LP  0  0  0  0  0  0  0  0  0  0  0  0  # atno 17395 bound_to 11000

$$$$
