AV-unprocessed.smi:1047|AV-procd|sdf|4579|dock10
  -GOLD-   22720 3 43D 1   1.00000     0.00000
 Structure written by MMmdl.
 56 58  0  0  0  0  0  0  0  0  2 V2000
  146.6700  145.4874  160.4767 C   0  0  0  0  0  0  0  0  0  0  0  0
  146.6994  144.1633  159.6999 C   0  0  0  0  0  0  0  0  0  0  0  0
  146.2986  144.3263  158.2801 N   0  3  2  0  0  0  0  0  0  0  0  0
  145.0121  145.0443  158.1051 C   0  0  0  0  0  0  0  0  0  0  0  0
  144.6771  145.1915  156.6118 C   0  0  0  0  0  0  0  0  0  0  0  0
  144.6552  143.9084  155.9994 O   0  0  0  0  0  0  0  0  0  0  0  0
  145.9211  143.2591  156.0658 C   0  0  2  0  0  0  0  0  0  0  0  0
  145.8232  141.9336  155.2957 C   0  0  0  0  0  0  0  0  0  0  0  0
  146.9526  141.0639  155.6076 N   0  0  0  0  0  0  0  0  0  0  0  0
  147.6096  140.5139  154.4251 C   0  0  0  0  0  0  0  0  0  0  0  0
  149.1418  140.6387  154.5356 C   0  0  1  0  0  0  0  0  0  0  0  0
  149.6592  140.9213  153.2521 O   0  0  0  0  0  0  0  0  0  0  0  0
  149.6070  141.7696  155.4738 C   0  0  0  0  0  0  0  0  0  0  0  0
  150.6758  141.3569  156.3652 N   0  0  0  0  0  0  0  0  0  0  0  0
  151.4428  140.2557  156.2521 C   0  0  0  0  0  0  0  0  0  0  0  0
  152.3730  140.0632  157.1828 N   0  0  0  0  0  0  0  0  0  0  0  0
  152.1929  141.1729  157.9908 C   0  0  0  0  0  0  0  0  0  0  0  0
  152.8703  141.5718  159.1637 C   0  0  0  0  0  0  0  0  0  0  0  0
  152.5141  142.7619  159.8371 C   0  0  0  0  0  0  0  0  0  0  0  0
  153.2692  143.1531  161.0953 C   0  0  0  0  0  0  0  0  0  0  0  0
  151.4653  143.5746  159.3367 C   0  0  0  0  0  0  0  0  0  0  0  0
  151.0672  144.8593  160.0415 C   0  0  0  0  0  0  0  0  0  0  0  0
  150.7766  143.1897  158.1675 C   0  0  0  0  0  0  0  0  0  0  0  0
  151.1403  142.0033  157.5060 C   0  0  0  0  0  0  0  0  0  0  0  0
  146.2735  143.0364  157.5493 C   0  0  0  0  0  0  0  0  0  0  0  0
  147.0579  145.3469  161.4858 H   0  0  0  0  0  0  0  0  0  0  0  0
  145.6596  145.8838  160.5727 H   0  0  0  0  0  0  0  0  0  0  0  0
  147.2857  146.2444  159.9901 H   0  0  0  0  0  0  0  0  0  0  0  0
  147.7188  143.7769  159.7389 H   0  0  0  0  0  0  0  0  0  0  0  0
  146.0676  143.4179  160.1852 H   0  0  0  0  0  0  0  0  0  0  0  0
  144.2153  144.4972  158.6113 H   0  0  0  0  0  0  0  0  0  0  0  0
  145.0613  146.0332  158.5600 H   0  0  0  0  0  0  0  0  0  0  0  0
  143.6988  145.6569  156.4906 H   0  0  0  0  0  0  0  0  0  0  0  0
  145.4003  145.8366  156.1099 H   0  0  0  0  0  0  0  0  0  0  0  0
  146.6861  143.8875  155.6049 H   0  0  0  0  0  0  0  0  0  0  0  0
  144.8959  141.4270  155.5661 H   0  0  0  0  0  0  0  0  0  0  0  0
  145.7725  142.1273  154.2235 H   0  0  0  0  0  0  0  0  0  0  0  0
  147.6300  141.5730  156.1670 H   0  0  0  0  0  0  0  0  0  0  0  0
  147.3220  139.4731  154.2698 H   0  0  0  0  0  0  0  0  0  0  0  0
  147.2610  141.0621  153.5499 H   0  0  0  0  0  0  0  0  0  0  0  0
  149.5674  139.6955  154.8818 H   0  0  0  0  0  0  0  0  0  0  0  0
  149.4030  140.2241  152.6679 H   0  0  0  0  0  0  0  0  0  0  0  0
  149.9636  142.6203  154.8910 H   0  0  0  0  0  0  0  0  0  0  0  0
  148.7724  142.1339  156.0739 H   0  0  0  0  0  0  0  0  0  0  0  0
  151.3077  139.5541  155.4417 H   0  0  0  0  0  0  0  0  0  0  0  0
  153.6698  140.9530  159.5437 H   0  0  0  0  0  0  0  0  0  0  0  0
  153.8024  144.0917  160.9428 H   0  0  0  0  0  0  0  0  0  0  0  0
  153.9997  142.3932  161.3743 H   0  0  0  0  0  0  0  0  0  0  0  0
  152.5818  143.2770  161.9322 H   0  0  0  0  0  0  0  0  0  0  0  0
  150.2862  145.3877  159.4937 H   0  0  0  0  0  0  0  0  0  0  0  0
  151.9231  145.5286  160.1301 H   0  0  0  0  0  0  0  0  0  0  0  0
  150.6890  144.6445  161.0412 H   0  0  0  0  0  0  0  0  0  0  0  0
  149.9745  143.7990  157.7784 H   0  0  0  0  0  0  0  0  0  0  0  0
  147.2494  142.5549  157.6247 H   0  0  0  0  0  0  0  0  0  0  0  0
  145.5479  142.3668  158.0146 H   0  0  0  0  0  0  0  0  0  0  0  0
  147.0140  144.8875  157.8400 H   0  0  0  0  0  0  0  0  0  0  0  0
  1  2  1  0  0  0  0
  1 26  1  0  0  0  0
  1 27  1  0  0  0  0
  1 28  1  0  0  0  0
  2  3  1  0  0  0  0
  2 29  1  0  0  0  0
  2 30  1  0  0  0  0
  3 25  1  0  0  0  0
  3  4  1  0  0  0  0
  3 56  1  0  0  0  0
  4  5  1  0  0  0  0
  4 31  1  0  0  0  0
  4 32  1  0  0  0  0
  5  6  1  0  0  0  0
  5 33  1  0  0  0  0
  5 34  1  0  0  0  0
  6  7  1  0  0  0  0
  7  8  1  0  0  0  0
  7 25  1  0  0  0  0
  7 35  1  0  0  0  0
  8  9  1  0  0  0  0
  8 36  1  0  0  0  0
  8 37  1  0  0  0  0
  9 10  1  0  0  0  0
  9 38  1  0  0  0  0
 10 11  1  0  0  0  0
 10 39  1  0  0  0  0
 10 40  1  0  0  0  0
 11 12  1  0  0  0  0
 11 13  1  0  0  0  0
 11 41  1  0  0  0  0
 12 42  1  0  0  0  0
 13 14  1  0  0  0  0
 13 43  1  0  0  0  0
 13 44  1  0  0  0  0
 14 24  1  0  0  0  0
 14 15  1  0  0  0  0
 15 16  2  0  0  0  0
 15 45  1  0  0  0  0
 16 17  1  0  0  0  0
 17 24  2  0  0  0  0
 17 18  1  0  0  0  0
 18 19  2  0  0  0  0
 18 46  1  0  0  0  0
 19 20  1  0  0  0  0
 19 21  1  0  0  0  0
 20 47  1  0  0  0  0
 20 48  1  0  0  0  0
 20 49  1  0  0  0  0
 21 22  1  0  0  0  0
 21 23  2  0  0  0  0
 22 50  1  0  0  0  0
 22 51  1  0  0  0  0
 22 52  1  0  0  0  0
 23 24  1  0  0  0  0
 23 53  1  0  0  0  0
 25 54  1  0  0  0  0
 25 55  1  0  0  0  0
M  CHG  1   3   1
M  END
> <s_m_source_file>
AV-unprocessed.smi

> <i_m_source_file_index>
1047

> <i_lp_mmshare_version>
43012

> <i_f3d_flags>
0

> <s_epik_input>
W0NIM11bQ0gyXU4xW0NIMl1bQ0gyXU9bQ0BIXShbQ0gyXTEpW0NIMl1bTkhdW0NIMl1bQ0BIXShbT0hdKVtDSDJdbihbY0hdbjIpYyhjMjMpW2NIXWMoW0NIM10pYyhbY0hdMylbQ0gzXQ==

> <s_epik_cmdline>
J2VwaWtfcHl0aG9uJywgJy1waCcsICc3LjAnLCAnLXRuJywgJzgnLCAnLW1hJywgJzIwMCcsICctbWV0YWxfYmluZGluZycsICctaW1hZScsICc8aW5maWxlLm1hZT4nLCAnLW9tYWUnLCAnPG91dGZpbGUubWFlPic=

> <r_epik_Ionization_Penalty>
1.19246

> <r_epik_Ionization_Penalty_Charging>
0.210041

> <r_epik_Ionization_Penalty_Neutral>
0.982415

> <r_epik_State_Penalty>
1.57595

> <r_epik_Charging_Adjusted_Penalty>
1.78599

> <i_epik_Tot_Q>
1

> <i_epik_Tot_abs_Q>
1

> <r_epik_Metal_State_Penalty>
1.46172

> <b_epik_Metal_Only>
0

> <s_lp_Force_Field>
OPLS_2005

> <r_lp_Energy>
30.8486

> <b_lp_Chiralities_Consistent>
1

> <s_lp_Variant>
AV-unprocessed.smi:1047-20

> <Gold.Version>
5.8.1

> <Gold.Id.Protein>
6NUR|6NUR_protein|mol2

> <Gold.PLP.Fitness>
55.6524

> <Gold.PLP.PLP>
-44.9792

> <Gold.PLP.part.hbond>
-4.1000

> <Gold.PLP.part.metal>
0.0000

> <Gold.PLP.part.buried>
-5.5105

> <Gold.PLP.part.nonpolar>
-35.5005

> <Gold.PLP.part.repulsive>
0.1000

> <Gold.PLP.ligand.clash>
0.0038

> <Gold.PLP.ligand.torsion>
2.1115

> <Gold.PLP.Chemscore.Hbond>
4.9440

> <Gold.PLP.Chemscore.CHOScore>
0.0000

> <Gold.PLP.Chemscore.Metal>
0.0000

> <Gold.Chemscore.Hbonds>
donor molecule, donor type, donor heavy atom, donor atom, acceptor molecule, acceptor atom, score
      L1  H     3    56       P1  8029  1.62
      L1  H    12    42       P1  7957  0.62
      P1  H  7989  7998       L1    12  0.19
      P1  H  7997  8009       L1    16  0.91
      P1  H  8011  8017       L1    12  1.00

> <Gold.PLP.Chemscore.Internal.Correction>
0.0679

> <Gold.Rescore>
     Score         DG    S(hbond)    S(metal)    S(lipo)     H(rot)  DE(clash)    DE(int)     intcor
     19.72     -21.91       2.92        0.00     114.45       2.62       0.13       2.07       ----

> <Gold.Chemscore.Fitness>
19.7201

> <Gold.Chemscore.DG>
-21.9134

> <Gold.Chemscore.ZeroCoef>
-5.4800

> <Gold.Chemscore.Hbond>
2.9198

> <Gold.Chemscore.Metal>
0.0000

> <Gold.Chemscore.Lipo>
114.4507

> <Gold.Chemscore.Internal_Hbond>
0.0000

> <Gold.Chemscore.DEClash>
0.1252

> <Gold.Chemscore.DEInternal>
2.0681

> <Gold.Chemscore.Rot>
2.6209

> <Gold.Chemscore.Internal.Correction>
   9.000000E+99

> <Gold.Chemscore.Hbonds>
donor molecule, donor type, donor heavy atom, donor atom, acceptor molecule, acceptor atom, score
      L1  H     3    56       P1  8029  0.44
      L1  H    12    42       P1  7957  0.58
      P1  H  7989  7998       L1    12  0.08
      P1  H  7997  8009       L1    16  0.45
      P1  H  8011  8017       L1    12  0.70

> <Gold.Chemscore.Hbond.Weighted>
-9.7523

> <Gold.Chemscore.Metal.Weighted>
-0.0000

> <Gold.Chemscore.Lipo.Weighted>
-13.3907

> <Gold.Chemscore.Internal_Hbond.Weighted>
0.0000

> <Gold.Chemscore.DEClash.Weighted>
0.1252

> <Gold.Chemscore.DEInternal.Weighted>
2.0681

> <Gold.Chemscore.Rot.Weighted>
6.7096

> <Gold.Chemscore.Internal.Correction.Weighted>
   9.000000E+99

> <Gold.Protein.RotatedTorsions>
[ 6907 6896 6895 6894 ] final    2.59 input  -60.11 | X-H torsion
[ 7974 7965 7964 7962 ] final  -62.58 input  175.53 | X-H torsion
[ 8008 7997 7996 7995 ] final -177.64 input   59.86 | X-H torsion
[ 10167 10162 10161 10158 ] final   81.26 input  -65.29 | X-H torsion
[ 10718 10713 10712 10709 ] final -161.36 input   66.30 | X-H torsion
[ 10763 10752 10751 10750 ] final  -71.23 input  -60.55 | X-H torsion
[ 11005 11000 10999 10996 ] final  103.06 input  -57.11 | X-H torsion

> <Gold.Protein.ActiveResidues>
 VAL166  LYS551  ARG553  GLY616  TRP617  ASP618  TYR619  PRO620  LYS621  CYS622 
 ASP623  PHE694  ASN695  SER759  ASP760  ASP761  ALA762  ILE779  LEU786  VAL792 
 PHE793  MET794  SER795  GLU796  ALA797  LYS798  CYS799  TRP800  GLU811  SER814 

> <Gold.Protein.RotatedAtoms>
  151.6113  135.1040  160.0081 H   0  0  0  0  0  0  0  0  0  0  0  0  # atno 6907 bound_to 6896
  152.4206  133.7106  159.6487 H   0  0  0  0  0  0  0  0  0  0  0  0  # atno 6908 bound_to 6896
  150.8094  133.8376  159.3211 H   0  0  0  0  0  0  0  0  0  0  0  0  # atno 6909 bound_to 6896
  145.7895  140.8717  143.0288 H   0  0  0  0  0  0  0  0  0  0  0  0  # atno 7974 bound_to 7965
  156.0094  140.1237  157.0469 H   0  0  0  0  0  0  0  0  0  0  0  0  # atno 8008 bound_to 7997
  154.4270  140.1091  156.5877 H   0  0  0  0  0  0  0  0  0  0  0  0  # atno 8009 bound_to 7997
  155.6101  140.3471  155.4622 H   0  0  0  0  0  0  0  0  0  0  0  0  # atno 8010 bound_to 7997
  139.9412  144.6089  150.8250 H   0  0  0  0  0  0  0  0  0  0  0  0  # atno 10167 bound_to 10162
  156.5952  130.8787  151.2900 H   0  0  0  0  0  0  0  0  0  0  0  0  # atno 10718 bound_to 10713
  154.4289  135.5968  153.6056 H   0  0  0  0  0  0  0  0  0  0  0  0  # atno 10763 bound_to 10752
  152.9798  135.5970  154.3863 H   0  0  0  0  0  0  0  0  0  0  0  0  # atno 10764 bound_to 10752
  154.3699  135.2841  155.2251 H   0  0  0  0  0  0  0  0  0  0  0  0  # atno 10765 bound_to 10752
  139.8781  134.9248  156.5152 H   0  0  0  0  0  0  0  0  0  0  0  0  # atno 11005 bound_to 11000
  144.6784  140.0104  143.7484 LP  0  0  0  0  0  0  0  0  0  0  0  0  # atno 17320 bound_to 7965
  145.9991  139.3076  143.0938 LP  0  0  0  0  0  0  0  0  0  0  0  0  # atno 17321 bound_to 7965
  140.7610  143.3165  151.2721 LP  0  0  0  0  0  0  0  0  0  0  0  0  # atno 17342 bound_to 10162
  139.6703  144.0031  152.2749 LP  0  0  0  0  0  0  0  0  0  0  0  0  # atno 17343 bound_to 10162
  157.7293  130.9670  150.1783 LP  0  0  0  0  0  0  0  0  0  0  0  0  # atno 17370 bound_to 10713
  156.2516  130.3701  149.8226 LP  0  0  0  0  0  0  0  0  0  0  0  0  # atno 17371 bound_to 10713
  140.8491  133.8146  155.9150 LP  0  0  0  0  0  0  0  0  0  0  0  0  # atno 17394 bound_to 11000
  140.9162  134.2199  157.4955 LP  0  0  0  0  0  0  0  0  0  0  0  0  # atno 17395 bound_to 11000

$$$$
