AV-unprocessed.smi:2769|AV-procd|sdf|10657|dock2
  -GOLD-   2272015103D 1   1.00000     0.00000
 Structure written by MMmdl.
 19 20  0  0  0  0  0  0  0  0  1 V2000
  154.0159  141.7662  162.6850 C   0  0  0  0  0  0  0  0  0  0  0  0
  153.1509  142.3020  161.5958 C   0  0  0  0  0  0  0  0  0  0  0  0
  151.8849  142.6305  161.8198 N   0  0  0  0  0  0  0  0  0  0  0  0
  151.4388  143.0701  160.5653 O   0  0  0  0  0  0  0  0  0  0  0  0
  152.5120  142.9935  159.7416 C   0  0  0  0  0  0  0  0  0  0  0  0
  152.3304  143.3093  158.2937 C   0  0  0  0  0  0  0  0  0  0  0  0
  151.8351  144.6747  157.8266 C   0  0  0  0  0  0  0  0  0  0  0  0
  151.2549  143.9635  156.6959 N   0  0  0  0  0  0  0  0  0  0  0  0
  151.1811  142.7324  157.4706 C   0  0  0  0  0  0  0  0  0  0  0  0
  153.5957  142.4820  160.3222 N   0  0  0  0  0  0  0  0  0  0  0  0
  153.4135  141.2814  163.4541 H   0  0  0  0  0  0  0  0  0  0  0  0
  154.5824  142.5752  163.1466 H   0  0  0  0  0  0  0  0  0  0  0  0
  154.7184  141.0332  162.2878 H   0  0  0  0  0  0  0  0  0  0  0  0
  153.2768  143.0777  157.7971 H   0  0  0  0  0  0  0  0  0  0  0  0
  151.0769  145.1259  158.4686 H   0  0  0  0  0  0  0  0  0  0  0  0
  152.6290  145.3718  157.5572 H   0  0  0  0  0  0  0  0  0  0  0  0
  150.3409  144.3165  156.4498 H   0  0  0  0  0  0  0  0  0  0  0  0
  151.4381  141.8342  156.9086 H   0  0  0  0  0  0  0  0  0  0  0  0
  150.2373  142.6367  158.0101 H   0  0  0  0  0  0  0  0  0  0  0  0
  1  2  1  0  0  0  0
  1 11  1  0  0  0  0
  1 12  1  0  0  0  0
  1 13  1  0  0  0  0
  2 10  1  0  0  0  0
  2  3  2  0  0  0  0
  3  4  1  0  0  0  0
  4  5  1  0  0  0  0
  5  6  1  0  0  0  0
  5 10  2  0  0  0  0
  6  9  1  0  0  0  0
  6  7  1  0  0  0  0
  6 14  1  0  0  0  0
  7  8  1  0  0  0  0
  7 15  1  0  0  0  0
  7 16  1  0  0  0  0
  8  9  1  0  0  0  0
  8 17  1  0  0  0  0
  9 18  1  0  0  0  0
  9 19  1  0  0  0  0
M  END
> <s_m_source_file>
AV-unprocessed.smi

> <i_m_source_file_index>
2769

> <i_lp_mmshare_version>
43012

> <i_f3d_flags>
0

> <s_epik_input>
W0NIM11jMW5vYyhuMSlbQ0hdMltDSDJdW05IXVtDSDJdMg==

> <s_epik_cmdline>
J2VwaWtfcHl0aG9uJywgJy1waCcsICc3LjAnLCAnLXRuJywgJzgnLCAnLW1hJywgJzIwMCcsICctbWV0YWxfYmluZGluZycsICctaW1hZScsICc8aW5maWxlLm1hZT4nLCAnLW9tYWUnLCAnPG91dGZpbGUubWFlPic=

> <r_lp_tautomer_probability>
1

> <r_epik_Ionization_Penalty>
2.39489

> <r_epik_Ionization_Penalty_Charging>
0

> <r_epik_Ionization_Penalty_Neutral>
2.39489

> <r_epik_State_Penalty>
2.55237

> <r_epik_Charging_Adjusted_Penalty>
2.55237

> <i_epik_Tot_Q>
0

> <i_epik_Tot_abs_Q>
0

> <r_epik_Metal_State_Penalty>
2.55237

> <b_epik_Metal_Only>
0

> <s_lp_Force_Field>
OPLS_2005

> <r_lp_Energy>
11.1519

> <b_lp_Chiralities_Consistent>
1

> <s_lp_Variant>
AV-unprocessed.smi:2769-2

> <Gold.Version>
5.8.1

> <Gold.Id.Protein>
6NUR|6NUR_protein|mol2

> <Gold.PLP.Fitness>
29.4957

> <Gold.PLP.PLP>
-25.1130

> <Gold.PLP.part.hbond>
-3.0000

> <Gold.PLP.part.metal>
0.0000

> <Gold.PLP.part.buried>
-3.8887

> <Gold.PLP.part.nonpolar>
-18.2311

> <Gold.PLP.part.repulsive>
0.2059

> <Gold.PLP.ligand.clash>
0.0000

> <Gold.PLP.ligand.torsion>
0.1187

> <Gold.PLP.Chemscore.Hbond>
1.4648

> <Gold.PLP.Chemscore.CHOScore>
0.0000

> <Gold.PLP.Chemscore.Metal>
0.0000

> <Gold.Chemscore.Hbonds>
donor molecule, donor type, donor heavy atom, donor atom, acceptor molecule, acceptor atom, score
      L1  H     8    17       P1  8028  1.00
      P1  H  6933  6945       L1     3  0.42

> <Gold.PLP.Chemscore.Internal.Correction>
0.2259

> <Gold.Rescore>
     Score         DG    S(hbond)    S(metal)    S(lipo)     H(rot)  DE(clash)    DE(int)     intcor
     11.87     -12.25       1.23        0.00      44.77       1.00       0.27       0.12       ----

> <Gold.Chemscore.Fitness>
11.8660

> <Gold.Chemscore.DG>
-12.2537

> <Gold.Chemscore.ZeroCoef>
-5.4800

> <Gold.Chemscore.Hbond>
1.2262

> <Gold.Chemscore.Metal>
0.0000

> <Gold.Chemscore.Lipo>
44.7706

> <Gold.Chemscore.Internal_Hbond>
0.0000

> <Gold.Chemscore.DEClash>
0.2665

> <Gold.Chemscore.DEInternal>
0.1211

> <Gold.Chemscore.Rot>
1.0000

> <Gold.Chemscore.Internal.Correction>
   9.000000E+99

> <Gold.Chemscore.Hbonds>
donor molecule, donor type, donor heavy atom, donor atom, acceptor molecule, acceptor atom, score
      L1  H     8    17       P1  8028  1.00
      P1  H  6933  6945       L1     3  0.03

> <Gold.Chemscore.Hbond.Weighted>
-4.0955

> <Gold.Chemscore.Metal.Weighted>
-0.0000

> <Gold.Chemscore.Lipo.Weighted>
-5.2382

> <Gold.Chemscore.Internal_Hbond.Weighted>
0.0000

> <Gold.Chemscore.DEClash.Weighted>
0.2665

> <Gold.Chemscore.DEInternal.Weighted>
0.1211

> <Gold.Chemscore.Rot.Weighted>
2.5600

> <Gold.Chemscore.Internal.Correction.Weighted>
   9.000000E+99

> <Gold.Protein.RotatedTorsions>
[ 6907 6896 6895 6894 ] final -134.90 input  -60.11 | X-H torsion
[ 7974 7965 7964 7962 ] final    2.33 input  175.53 | X-H torsion
[ 8008 7997 7996 7995 ] final -101.10 input   59.86 | X-H torsion
[ 10167 10162 10161 10158 ] final  -53.86 input  -65.29 | X-H torsion
[ 10718 10713 10712 10709 ] final   60.82 input   66.30 | X-H torsion
[ 10763 10752 10751 10750 ] final  166.06 input  -60.55 | X-H torsion
[ 11005 11000 10999 10996 ] final -172.43 input  -57.11 | X-H torsion

> <Gold.Protein.ActiveResidues>
 VAL166  LYS551  ARG553  GLY616  TRP617  ASP618  TYR619  PRO620  LYS621  CYS622 
 ASP623  PHE694  ASN695  SER759  ASP760  ASP761  ALA762  ILE779  LEU786  VAL792 
 PHE793  MET794  SER795  GLU796  ALA797  LYS798  CYS799  TRP800  GLU811  SER814 

> <Gold.Protein.RotatedAtoms>
  150.9914  133.6145  159.2707 H   0  0  0  0  0  0  0  0  0  0  0  0  # atno 6907 bound_to 6896
  151.3365  135.0853  159.9366 H   0  0  0  0  0  0  0  0  0  0  0  0  # atno 6908 bound_to 6896
  152.5247  133.9534  159.7737 H   0  0  0  0  0  0  0  0  0  0  0  0  # atno 6909 bound_to 6896
  146.2443  140.0852  142.8355 H   0  0  0  0  0  0  0  0  0  0  0  0  # atno 7974 bound_to 7965
  154.8378  140.0436  157.1521 H   0  0  0  0  0  0  0  0  0  0  0  0  # atno 8008 bound_to 7997
  154.9080  140.3009  155.5261 H   0  0  0  0  0  0  0  0  0  0  0  0  # atno 8009 bound_to 7997
  156.2991  140.2363  156.4116 H   0  0  0  0  0  0  0  0  0  0  0  0  # atno 8010 bound_to 7997
  140.6462  143.2537  151.4853 H   0  0  0  0  0  0  0  0  0  0  0  0  # atno 10167 bound_to 10162
  157.5782  130.8960  149.9384 H   0  0  0  0  0  0  0  0  0  0  0  0  # atno 10718 bound_to 10713
  154.3333  135.2754  155.2460 H   0  0  0  0  0  0  0  0  0  0  0  0  # atno 10763 bound_to 10752
  154.4763  135.5870  153.6361 H   0  0  0  0  0  0  0  0  0  0  0  0  # atno 10764 bound_to 10752
  152.9864  135.6100  154.3527 H   0  0  0  0  0  0  0  0  0  0  0  0  # atno 10765 bound_to 10752
  140.4971  134.5929  157.4975 H   0  0  0  0  0  0  0  0  0  0  0  0  # atno 11005 bound_to 11000
  145.0698  140.9147  143.4889 LP  0  0  0  0  0  0  0  0  0  0  0  0  # atno 17320 bound_to 7965
  145.0984  139.2840  143.5699 LP  0  0  0  0  0  0  0  0  0  0  0  0  # atno 17321 bound_to 7965
  139.5673  144.2012  152.1784 LP  0  0  0  0  0  0  0  0  0  0  0  0  # atno 17342 bound_to 10162
  140.1298  144.5298  150.6810 LP  0  0  0  0  0  0  0  0  0  0  0  0  # atno 17343 bound_to 10162
  156.0827  130.3671  150.0549 LP  0  0  0  0  0  0  0  0  0  0  0  0  # atno 17370 bound_to 10713
  156.8692  130.9518  151.3611 LP  0  0  0  0  0  0  0  0  0  0  0  0  # atno 17371 bound_to 10713
  139.9735  134.7253  155.9995 LP  0  0  0  0  0  0  0  0  0  0  0  0  # atno 17394 bound_to 11000
  141.1455  133.6557  156.3854 LP  0  0  0  0  0  0  0  0  0  0  0  0  # atno 17395 bound_to 11000

$$$$
