AV-unprocessed.smi:219|AV-procd|sdf|1680|dock9
  -GOLD-   2262020113D 1   1.00000     0.00000
 Structure written by MMmdl.
 50 53  0  0  0  0  0  0  0  0  1 V2000
  148.9153  138.9256  158.4942 N   0  0  0  0  0  0  0  0  0  0  0  0
  149.1948  137.6320  158.6713 C   0  0  0  0  0  0  0  0  0  0  0  0
  150.2177  137.2559  159.2395 O   0  0  0  0  0  0  0  0  0  0  0  0
  148.1774  136.6194  158.1287 C   0  0  0  0  0  0  0  0  0  0  0  0
  147.5776  135.6421  159.1825 C   0  0  2  0  0  0  0  0  0  0  0  0
  147.6237  136.3174  160.5727 C   0  0  0  0  0  0  0  0  0  0  0  0
  147.0689  135.4082  161.6775 C   0  0  0  0  0  0  0  0  0  0  0  0
  147.8136  134.0694  161.6739 C   0  0  0  0  0  0  0  0  0  0  0  0
  147.7343  133.4230  160.2849 C   0  0  0  0  0  0  0  0  0  0  0  0
  148.2420  134.3253  159.2490 N   0  0  0  0  0  0  0  0  0  0  0  0
  148.4237  133.6789  158.0751 C   0  0  0  0  0  0  0  0  0  0  0  0
  149.6807  133.4158  157.6292 N   0  0  0  0  0  0  0  0  0  0  0  0
  149.8546  132.7541  156.4811 C   0  0  0  0  0  0  0  0  0  0  0  0
  148.9306  132.2798  155.6420 N   0  0  0  0  0  0  0  0  0  0  0  0
  147.6696  132.5497  156.0871 C   0  0  0  0  0  0  0  0  0  0  0  0
  147.3307  133.2382  157.2846 C   0  0  0  0  0  0  0  0  0  0  0  0
  145.9510  133.3144  157.4201 N   0  0  0  0  0  0  0  0  0  0  0  0
  145.4976  132.7074  156.3573 C   0  0  0  0  0  0  0  0  0  0  0  0
  146.4597  132.2261  155.4972 N   0  0  0  0  0  0  0  0  0  0  0  0
  146.2335  131.5163  154.2471 C   0  0  0  0  0  0  0  0  0  0  0  0
  146.5685  132.3535  152.9887 C   0  0  2  0  0  0  0  0  0  0  0  0
  147.9579  132.2556  152.7307 O   0  0  0  0  0  0  0  0  0  0  0  0
  146.1967  133.8289  153.1521 C   0  0  0  0  0  0  0  0  0  0  0  0
  144.9965  134.0014  152.2289 C   0  0  0  0  0  0  0  0  0  0  0  0
  145.3015  133.1265  151.1579 O   0  0  0  0  0  0  0  0  0  0  0  0
  145.7873  131.9215  151.7311 C   0  0  0  0  0  0  0  0  0  0  0  0
  149.5563  139.6270  158.8364 H   0  0  0  0  0  0  0  0  0  0  0  0
  148.0662  139.1987  158.0213 H   0  0  0  0  0  0  0  0  0  0  0  0
  147.3765  137.1295  157.5913 H   0  0  0  0  0  0  0  0  0  0  0  0
  148.7190  136.0474  157.3745 H   0  0  0  0  0  0  0  0  0  0  0  0
  146.5281  135.4625  158.9433 H   0  0  0  0  0  0  0  0  0  0  0  0
  148.6532  136.5875  160.8134 H   0  0  0  0  0  0  0  0  0  0  0  0
  147.0569  137.2490  160.5572 H   0  0  0  0  0  0  0  0  0  0  0  0
  147.1680  135.8920  162.6495 H   0  0  0  0  0  0  0  0  0  0  0  0
  146.0034  135.2397  161.5170 H   0  0  0  0  0  0  0  0  0  0  0  0
  148.8579  134.2255  161.9480 H   0  0  0  0  0  0  0  0  0  0  0  0
  147.3896  133.4007  162.4233 H   0  0  0  0  0  0  0  0  0  0  0  0
  148.3071  132.4943  160.2822 H   0  0  0  0  0  0  0  0  0  0  0  0
  146.6985  133.1597  160.0647 H   0  0  0  0  0  0  0  0  0  0  0  0
  150.8811  132.5778  156.1954 H   0  0  0  0  0  0  0  0  0  0  0  0
  144.4396  132.5973  156.1674 H   0  0  0  0  0  0  0  0  0  0  0  0
  146.8321  130.6043  154.2579 H   0  0  0  0  0  0  0  0  0  0  0  0
  145.1912  131.1952  154.2219 H   0  0  0  0  0  0  0  0  0  0  0  0
  148.0755  131.8929  151.8659 H   0  0  0  0  0  0  0  0  0  0  0  0
  145.9708  134.1096  154.1815 H   0  0  0  0  0  0  0  0  0  0  0  0
  147.0038  134.4777  152.8074 H   0  0  0  0  0  0  0  0  0  0  0  0
  144.0751  133.6804  152.7175 H   0  0  0  0  0  0  0  0  0  0  0  0
  144.8696  135.0292  151.8884 H   0  0  0  0  0  0  0  0  0  0  0  0
  146.3840  131.3508  151.0183 H   0  0  0  0  0  0  0  0  0  0  0  0
  144.9210  131.3144  151.9948 H   0  0  0  0  0  0  0  0  0  0  0  0
  1  2  1  0  0  0  0
  1 27  1  0  0  0  0
  1 28  1  0  0  0  0
  2  3  2  0  0  0  0
  2  4  1  0  0  0  0
  4  5  1  0  0  0  0
  4 29  1  0  0  0  0
  4 30  1  0  0  0  0
  5 10  1  0  0  0  0
  5  6  1  0  0  0  0
  5 31  1  0  0  0  0
  6  7  1  0  0  0  0
  6 32  1  0  0  0  0
  6 33  1  0  0  0  0
  7  8  1  0  0  0  0
  7 34  1  0  0  0  0
  7 35  1  0  0  0  0
  8  9  1  0  0  0  0
  8 36  1  0  0  0  0
  8 37  1  0  0  0  0
  9 10  1  0  0  0  0
  9 38  1  0  0  0  0
  9 39  1  0  0  0  0
 10 11  1  0  0  0  0
 11 16  1  0  0  0  0
 11 12  2  0  0  0  0
 12 13  1  0  0  0  0
 13 14  2  0  0  0  0
 13 40  1  0  0  0  0
 14 15  1  0  0  0  0
 15 19  1  0  0  0  0
 15 16  2  0  0  0  0
 16 17  1  0  0  0  0
 17 18  2  0  0  0  0
 18 19  1  0  0  0  0
 18 41  1  0  0  0  0
 19 20  1  0  0  0  0
 20 21  1  0  0  0  0
 20 42  1  0  0  0  0
 20 43  1  0  0  0  0
 21 26  1  0  0  0  0
 21 22  1  0  0  0  0
 21 23  1  0  0  0  0
 22 44  1  0  0  0  0
 23 24  1  0  0  0  0
 23 45  1  0  0  0  0
 23 46  1  0  0  0  0
 24 25  1  0  0  0  0
 24 47  1  0  0  0  0
 24 48  1  0  0  0  0
 25 26  1  0  0  0  0
 26 49  1  0  0  0  0
 26 50  1  0  0  0  0
M  END
> <s_m_source_file>
AV-unprocessed.smi

> <i_m_source_file_index>
219

> <i_lp_mmshare_version>
43012

> <i_f3d_flags>
0

> <s_epik_input>
W05IMl1DKD1PKVtDSDJdW0NAQEhdMVtDSDJdW0NIMl1bQ0gyXVtDSDJdTjFjKG5bY0hdbjIpYyhjMjMpbltjSF1uM1tDSDJdW0NAQF00KFtPSF0pW0NIMl1bQ0gyXU9bQ0gyXTQ=

> <s_epik_cmdline>
J2VwaWtfcHl0aG9uJywgJy1waCcsICc3LjAnLCAnLXRuJywgJzgnLCAnLW1hJywgJzIwMCcsICctbWV0YWxfYmluZGluZycsICctaW1hZScsICc8aW5maWxlLm1hZT4nLCAnLW9tYWUnLCAnPG91dGZpbGUubWFlPic=

> <r_lp_tautomer_probability>
1

> <r_epik_Ionization_Penalty>
0.00228532

> <r_epik_Ionization_Penalty_Charging>
0

> <r_epik_Ionization_Penalty_Neutral>
0.00228532

> <r_epik_State_Penalty>
0.00140978

> <r_epik_Charging_Adjusted_Penalty>
0.00140978

> <i_epik_Tot_Q>
0

> <i_epik_Tot_abs_Q>
0

> <r_epik_Metal_State_Penalty>
-0

> <b_epik_Metal_Only>
0

> <s_lp_Force_Field>
OPLS_2005

> <r_lp_Energy>
33.6932

> <b_lp_Chiralities_Consistent>
1

> <s_lp_Variant>
AV-unprocessed.smi:219-3

> <Gold.Version>
5.8.1

> <Gold.Id.Protein>
6NUR|6NUR_protein|mol2

> <Gold.PLP.Fitness>
37.9728

> <Gold.PLP.PLP>
-27.9941

> <Gold.PLP.part.hbond>
-3.5359

> <Gold.PLP.part.metal>
0.0000

> <Gold.PLP.part.buried>
-5.7524

> <Gold.PLP.part.nonpolar>
-19.7248

> <Gold.PLP.part.repulsive>
0.3718

> <Gold.PLP.ligand.clash>
0.0000

> <Gold.PLP.ligand.torsion>
1.1393

> <Gold.PLP.Chemscore.Hbond>
3.0000

> <Gold.PLP.Chemscore.CHOScore>
0.9936

> <Gold.PLP.Chemscore.Metal>
0.0000

> <Gold.Chemscore.Hbonds>
donor molecule, donor type, donor heavy atom, donor atom, acceptor molecule, acceptor atom, score
      L1  H    22    44       P1 10747  0.84
      P1  H  6896  6908       L1    12  1.00
      L1  C    18    41       P1 10957  1.00

> <Gold.PLP.Chemscore.Internal.Correction>
0.2765

> <Gold.Rescore>
     Score         DG    S(hbond)    S(metal)    S(lipo)     H(rot)  DE(clash)    DE(int)     intcor
     11.90     -13.12       2.95        0.00      54.90       3.37       0.00       1.21       ----

> <Gold.Chemscore.Fitness>
11.9027

> <Gold.Chemscore.DG>
-13.1156

> <Gold.Chemscore.ZeroCoef>
-5.4800

> <Gold.Chemscore.Hbond>
2.9457

> <Gold.Chemscore.Metal>
0.0000

> <Gold.Chemscore.Lipo>
54.8997

> <Gold.Chemscore.Internal_Hbond>
0.0000

> <Gold.Chemscore.DEClash>
0.0000

> <Gold.Chemscore.DEInternal>
1.2129

> <Gold.Chemscore.Rot>
3.3697

> <Gold.Chemscore.Internal.Correction>
   9.000000E+99

> <Gold.Chemscore.Hbonds>
donor molecule, donor type, donor heavy atom, donor atom, acceptor molecule, acceptor atom, score
      L1  H    22    44       P1 10747  0.82
      P1  H  6896  6908       L1    12  0.43

> <Gold.Chemscore.Hbond.Weighted>
-9.8387

> <Gold.Chemscore.Metal.Weighted>
-0.0000

> <Gold.Chemscore.Lipo.Weighted>
-6.4233

> <Gold.Chemscore.Internal_Hbond.Weighted>
0.0000

> <Gold.Chemscore.DEClash.Weighted>
0.0000

> <Gold.Chemscore.DEInternal.Weighted>
1.2129

> <Gold.Chemscore.Rot.Weighted>
8.6264

> <Gold.Chemscore.Internal.Correction.Weighted>
   9.000000E+99

> <Gold.Protein.RotatedTorsions>
[ 6907 6896 6895 6894 ] final  115.57 input  -60.11 | X-H torsion
[ 7974 7965 7964 7962 ] final   -9.69 input  175.53 | X-H torsion
[ 8008 7997 7996 7995 ] final   67.63 input   59.86 | X-H torsion
[ 10167 10162 10161 10158 ] final -100.32 input  -65.29 | X-H torsion
[ 10718 10713 10712 10709 ] final  -71.10 input   66.30 | X-H torsion
[ 10763 10752 10751 10750 ] final  173.03 input  -60.55 | X-H torsion
[ 11005 11000 10999 10996 ] final   76.06 input  -57.11 | X-H torsion

> <Gold.Protein.ActiveResidues>
 VAL166  LYS551  ARG553  GLY616  TRP617  ASP618  TYR619  PRO620  LYS621  CYS622 
 ASP623  PHE694  ASN695  SER759  ASP760  ASP761  ALA762  ILE779  LEU786  VAL792 
 PHE793  MET794  SER795  GLU796  ALA797  LYS798  CYS799  TRP800  GLU811  SER814 

> <Gold.Protein.RotatedAtoms>
  152.4733  133.8080  159.6988 H   0  0  0  0  0  0  0  0  0  0  0  0  # atno 6907 bound_to 6896
  150.8735  133.7462  159.2960 H   0  0  0  0  0  0  0  0  0  0  0  0  # atno 6908 bound_to 6896
  151.4989  135.1064  159.9875 H   0  0  0  0  0  0  0  0  0  0  0  0  # atno 6909 bound_to 6896
  146.2244  140.2654  142.8354 H   0  0  0  0  0  0  0  0  0  0  0  0  # atno 7974 bound_to 7965
  155.6959  140.3495  155.4913 H   0  0  0  0  0  0  0  0  0  0  0  0  # atno 8008 bound_to 7997
  155.9483  140.1114  157.1020 H   0  0  0  0  0  0  0  0  0  0  0  0  # atno 8009 bound_to 7997
  154.4116  140.1199  156.5005 H   0  0  0  0  0  0  0  0  0  0  0  0  # atno 8010 bound_to 7997
  140.2531  143.3458  152.0696 H   0  0  0  0  0  0  0  0  0  0  0  0  # atno 10167 bound_to 10162
  156.0378  130.4344  150.2394 H   0  0  0  0  0  0  0  0  0  0  0  0  # atno 10718 bound_to 10713
  154.4344  135.2760  155.1890 H   0  0  0  0  0  0  0  0  0  0  0  0  # atno 10763 bound_to 10752
  154.3783  135.6093  153.5780 H   0  0  0  0  0  0  0  0  0  0  0  0  # atno 10764 bound_to 10752
  152.9837  135.5874  154.4661 H   0  0  0  0  0  0  0  0  0  0  0  0  # atno 10765 bound_to 10752
  139.9315  134.7569  156.1348 H   0  0  0  0  0  0  0  0  0  0  0  0  # atno 11005 bound_to 11000
  144.9308  140.7973  143.5690 LP  0  0  0  0  0  0  0  0  0  0  0  0  # atno 17320 bound_to 7965
  145.2597  139.1997  143.4898 LP  0  0  0  0  0  0  0  0  0  0  0  0  # atno 17321 bound_to 7965
  139.5040  144.6766  151.6113 LP  0  0  0  0  0  0  0  0  0  0  0  0  # atno 17342 bound_to 10162
  140.6025  143.9585  150.6395 LP  0  0  0  0  0  0  0  0  0  0  0  0  # atno 17343 bound_to 10162
  157.0492  131.0057  151.3259 LP  0  0  0  0  0  0  0  0  0  0  0  0  # atno 17370 bound_to 10713
  157.5153  130.7964  149.7749 LP  0  0  0  0  0  0  0  0  0  0  0  0  # atno 17371 bound_to 10713
  141.0907  133.6716  156.2533 LP  0  0  0  0  0  0  0  0  0  0  0  0  # atno 17394 bound_to 11000
  140.6188  134.5382  157.5544 LP  0  0  0  0  0  0  0  0  0  0  0  0  # atno 17395 bound_to 11000

$$$$
