#       Name:                AV-unprocessed.smi:1677
#       Creating user name   scv26
#       Creation time:       Fri Mar 27 07:46:47 2020


#       File generated by GOLD software.
#

@<TRIPOS>MOLECULE
AV-unprocessed.smi:1677
    39    40     1
SMALL
NO_CHARGES


@<TRIPOS>ATOM
      1 ****        -0.5326  -2.2118  -1.6865 C.3            1 S1                 0.0000
      2 ****         0.0189  -1.4726  -0.4566 C.3            1 S1                 0.0000
      3 ****         1.5601  -1.5048  -0.3685 C.3            1 S1                 0.0000
      4 ****         2.0982  -2.8671  -0.3049 N.pl3          1 S1                 0.0000
      5 ****         2.0909  -3.7099   0.7768 C.2            1 S1                 0.0000
      6 ****         2.7002  -4.8699   0.3727 C.2            1 S1                 0.0000
      7 ****         3.0564  -4.6849  -0.9365 N.pl3          1 S1                 1.0000
      8 ****         2.6926  -3.4651  -1.3458 C.2            1 S1                 0.0000
      9 ****        -0.4557  -0.0923  -0.4773 N.am           1 S1                 0.0000
     10 ****        -0.6286   0.6868   0.6023 C.2            1 S1                 0.0000
     11 ****        -0.3779   0.3150   1.7492 O.2            1 S1                 0.0000
     12 ****        -1.1643   2.1013   0.3449 C.3            1 S1                 0.0000
     13 ****        -2.5954   2.2635   0.9059 C.3            1 S1                 0.0000
     14 ****        -3.0575   3.7097   0.8835 C.2            1 S1                 0.0000
     15 ****        -2.2204   4.7503   0.7319 C.2            1 S1                 0.0000
     16 ****        -0.7177   4.5980   0.5722 C.3            1 S1                 0.0000
     17 ****        -0.2323   3.1806   0.9320 C.3            1 S1                 0.0000
     18 ****        -0.2734  -3.2705  -1.6686 H              1 S1                 0.0000
     19 ****        -0.1419  -1.7875  -2.6122 H              1 S1                 0.0000
     20 ****        -1.6208  -2.1476  -1.7250 H              1 S1                 0.0000
     21 ****        -0.3902  -1.9651   0.4277 H              1 S1                 0.0000
     22 ****         2.0055  -0.9973  -1.2258 H              1 S1                 0.0000
     23 ****         1.9066  -0.9800   0.5229 H              1 S1                 0.0000
     24 ****         1.6621  -3.4288   1.7282 H              1 S1                 0.0000
     25 ****         2.9024  -5.7882   0.9047 H              1 S1                 0.0000
     26 ****         2.8448  -3.0485  -2.3257 H              1 S1                 0.0000
     27 ****        -0.6860   0.2974  -1.3802 H              1 S1                 0.0000
     28 ****        -1.2051   2.2570  -0.7351 H              1 S1                 0.0000
     29 ****        -3.2924   1.6668   0.3164 H              1 S1                 0.0000
     30 ****        -2.6617   1.9051   1.9344 H              1 S1                 0.0000
     31 ****        -4.1159   3.8852   1.0088 H              1 S1                 0.0000
     32 ****        -2.6133   5.7562   0.7098 H              1 S1                 0.0000
     33 ****        -0.4631   4.8324  -0.4617 H              1 S1                 0.0000
     34 ****        -0.2127   5.3337   1.1986 H              1 S1                 0.0000
     35 ****        -0.1999   3.0818   2.0184 H              1 S1                 0.0000
     36 ****         0.7915   3.0431   0.5810 H              1 S1                 0.0000
     37 ****         3.5279  -5.3704  -1.5135 H              1 S1                 0.0000
     38 ****        -0.0275  -0.6077   1.9104 LP             1 S1                 0.0000
     39 ****        -0.5247   0.9357   2.5194 LP             1 S1                 0.0000
@<TRIPOS>BOND
    1    1    2 1     
    2    1   18 1     
    3    1   19 1     
    4    1   20 1     
    5    2    3 1     
    6    2    9 1     
    7    2   21 1     
    8    3    4 1     
    9    3   22 1     
   10    3   23 1     
   11    4    8 1     
   12    4    5 1     
   13    5    6 2     
   14    5   24 1     
   15    6    7 1     
   16    6   25 1     
   17    7    8 2     
   18    7   37 1     
   19    8   26 1     
   20    9   10 am    
   21    9   27 1     
   22   10   11 2     
   23   10   12 1     
   24   12   17 1     
   25   12   13 1     
   26   12   28 1     
   27   13   14 1     
   28   13   29 1     
   29   13   30 1     
   30   14   15 2     
   31   14   31 1     
   32   15   16 1     
   33   15   32 1     
   34   16   17 1     
   35   16   33 1     
   36   16   34 1     
   37   17   35 1     
   38   17   36 1     
   39   11   38 1     
   40   11   39 1     
@<TRIPOS>SUBSTRUCTURE
      1 S1             1
@<TRIPOS>SET
LONE_PAIRS      STATIC     ATOMS    <user>   **** ""
2 38 39
DONOR_HYDROGENS      STATIC     ATOMS    <user>   **** ""
2 37 27
ATOM$BLUE        STATIC     ATOMS    COLORGROUP SYSTEM
2 38 39
ATOM$RED        STATIC     ATOMS    COLORGROUP SYSTEM
2 37 27
