#       Name:                AV-unprocessed.smi:1897
#       Creating user name   scv26
#       Creation time:       Fri Mar 27 09:42:43 2020


#       File generated by GOLD software.
#

@<TRIPOS>MOLECULE
AV-unprocessed.smi:1897
    43    45     1
SMALL
NO_CHARGES


@<TRIPOS>ATOM
      1 ****         0.8087   8.1478  -1.2711 C.3            1 S1                 0.0000
      2 ****         1.0131   6.7465  -0.8057 C.2            1 S1                 0.0000
      3 ****         2.2252   6.2274  -0.5760 N.2            1 S1                 0.0000
      4 ****         2.1597   4.9110  -0.1444 N.2            1 S1                 0.0000
      5 ****         0.8963   4.4658  -0.0773 C.2            1 S1                 0.0000
      6 ****         0.5281   3.1599   0.3588 N.am           1 S1                 0.0000
      7 ****         1.2799   2.0663   0.6037 C.2            1 S1                 0.0000
      8 ****         2.5013   2.0848   0.4624 O.2            1 S1                 0.0000
      9 ****         0.6139   0.9728   1.0094 N.am           1 S1                 0.0000
     10 ****         1.2140  -0.3321   1.2632 C.3            1 S1                 0.0000
     11 ****         0.3343  -1.2441   2.1085 C.3            1 S1                 0.0000
     12 ****         0.9046  -2.6366   1.8220 C.3            1 S1                 0.0000
     13 ****         1.5231  -2.5790   0.4745 N.4            1 S1                 1.0000
     14 ****         0.9989  -3.5977  -0.4745 C.3            1 S1                 0.0000
     15 ****         1.3690  -3.2424  -1.9221 C.3            1 S1                 0.0000
     16 ****         0.7472  -1.8992  -2.3492 C.3            1 S1                 0.0000
     17 ****         0.4377  -0.9845  -1.1486 C.3            1 S1                 0.0000
     18 ****         1.4666  -1.1686  -0.0053 C.3            1 S1                 0.0000
     19 ****        -0.3281   5.6476  -0.5092 S.3            1 S1                 0.0000
     20 ****         1.7648   8.6229  -1.4940 H              1 S1                 0.0000
     21 ****         0.3025   8.7266  -0.4985 H              1 S1                 0.0000
     22 ****         0.1969   8.1557  -2.1732 H              1 S1                 0.0000
     23 ****        -0.4463   3.0644   0.6060 H              1 S1                 0.0000
     24 ****        -0.3894   1.0420   1.1069 H              1 S1                 0.0000
     25 ****         2.1597  -0.1977   1.7930 H              1 S1                 0.0000
     26 ****         0.3537  -0.9900   3.1687 H              1 S1                 0.0000
     27 ****        -0.7015  -1.1919   1.7690 H              1 S1                 0.0000
     28 ****         1.6897  -2.8738   2.5405 H              1 S1                 0.0000
     29 ****         0.1394  -3.4087   1.9122 H              1 S1                 0.0000
     30 ****         1.3986  -4.5752  -0.2034 H              1 S1                 0.0000
     31 ****        -0.0870  -3.6666  -0.3905 H              1 S1                 0.0000
     32 ****         2.4553  -3.1847  -2.0058 H              1 S1                 0.0000
     33 ****         1.0526  -4.0329  -2.6034 H              1 S1                 0.0000
     34 ****         1.4275  -1.3962  -3.0373 H              1 S1                 0.0000
     35 ****        -0.1735  -2.0725  -2.9072 H              1 S1                 0.0000
     36 ****         0.4070   0.0500  -1.4915 H              1 S1                 0.0000
     37 ****        -0.5619  -1.2076  -0.7729 H              1 S1                 0.0000
     38 ****         2.4481  -0.9095  -0.4049 H              1 S1                 0.0000
     39 ****         2.5036  -2.7836   0.6051 H              1 S1                 0.0000
     40 ****         3.0801   6.7309  -0.7012 LP             1 S1                 0.0000
     41 ****         2.9600   4.3589   0.0892 LP             1 S1                 0.0000
     42 ****         2.9570   2.9220   0.1603 LP             1 S1                 0.0000
     43 ****         3.0388   1.2625   0.6496 LP             1 S1                 0.0000
@<TRIPOS>BOND
    1    1    2 1     
    2    1   20 1     
    3    1   21 1     
    4    1   22 1     
    5    2   19 1     
    6    2    3 2     
    7    3    4 1     
    8    4    5 2     
    9    5    6 1     
   10    5   19 1     
   11    6    7 am    
   12    6   23 1     
   13    7    8 2     
   14    7    9 am    
   15    9   10 1     
   16    9   24 1     
   17   10   18 1     
   18   10   11 1     
   19   10   25 1     
   20   11   12 1     
   21   11   26 1     
   22   11   27 1     
   23   12   13 1     
   24   12   28 1     
   25   12   29 1     
   26   13   18 1     
   27   13   14 1     
   28   13   39 1     
   29   14   15 1     
   30   14   30 1     
   31   14   31 1     
   32   15   16 1     
   33   15   32 1     
   34   15   33 1     
   35   16   17 1     
   36   16   34 1     
   37   16   35 1     
   38   17   18 1     
   39   17   36 1     
   40   17   37 1     
   41   18   38 1     
   42    3   40 1     
   43    4   41 1     
   44    8   42 1     
   45    8   43 1     
@<TRIPOS>SUBSTRUCTURE
      1 S1             1
@<TRIPOS>SET
LONE_PAIRS      STATIC     ATOMS    <user>   **** ""
4 40 41 42 43
DONOR_HYDROGENS      STATIC     ATOMS    <user>   **** ""
3 23 24 39
ATOM$BLUE        STATIC     ATOMS    COLORGROUP SYSTEM
4 40 41 42 43
ATOM$RED        STATIC     ATOMS    COLORGROUP SYSTEM
3 23 24 39
