#       Name:                AV-unprocessed.smi:101
#       Creating user name   scv26
#       Creation time:       Thu Mar 26 17:46:28 2020


#       File generated by GOLD software.
#

@<TRIPOS>MOLECULE
AV-unprocessed.smi:101
    56    58     1
SMALL
NO_CHARGES


@<TRIPOS>ATOM
      1 ****        -1.7907   3.5874  -2.8542 C.3            1 S1                 0.0000
      2 ****        -2.6429   2.6146  -2.0584 C.2            1 S1                 0.0000
      3 ****        -2.1461   1.4604  -1.5609 C.2            1 S1                 0.0000
      4 ****        -2.9278   0.5750  -0.8403 N.am           1 S1                 0.0000
      5 ****        -2.3345  -0.7108  -0.3037 C.3            1 S1                 0.0000
      6 ****        -0.9967  -0.4831   0.0272 O.3            1 S1                 0.0000
      7 ****        -0.2009  -1.5751  -0.4181 C.3            1 S1                 0.0000
      8 ****         1.2658  -1.1544  -0.5877 C.3            1 S1                 0.0000
      9 ****         1.8615  -1.0129   0.6913 O.3            1 S1                 0.0000
     10 ****         3.1352  -0.5884   0.7980 C.2            1 S1                 0.0000
     11 ****         3.8461  -0.3141  -0.1712 O.2            1 S1                 0.0000
     12 ****         3.5967  -0.4863   2.2127 C.ar           1 S1                 0.0000
     13 ****         4.9227  -0.0732   2.4812 C.ar           1 S1                 0.0000
     14 ****         5.3862   0.0333   3.8069 C.ar           1 S1                 0.0000
     15 ****         4.5293  -0.2717   4.8804 C.ar           1 S1                 0.0000
     16 ****         3.2080  -0.6836   4.6267 C.ar           1 S1                 0.0000
     17 ****         2.7426  -0.7908   3.3016 C.ar           1 S1                 0.0000
     18 ****        -0.9079  -2.0497  -1.6936 C.3            1 S1                 0.0000
     19 ****        -0.5176  -1.2633  -2.8080 O.3            1 S1                 0.0000
     20 ****        -2.3773  -1.8673  -1.3259 C.3            1 S1                 0.0000
     21 ****        -3.2181  -1.6731  -2.4506 O.3            1 S1                 0.0000
     22 ****        -4.3020   0.8615  -0.6304 C.2            1 S1                 0.0000
     23 ****        -4.9821   0.0330  -0.0244 O.2            1 S1                 0.0000
     24 ****        -4.8098   2.0285  -1.1192 N.pl3          1 S1                -1.0000
     25 ****        -4.0577   2.9255  -1.8199 C.2            1 S1                 0.0000
     26 ****        -4.5292   3.9765  -2.2533 O.2            1 S1                 0.0000
     27 ****        -0.7622   3.2354  -2.9388 H              1 S1                 0.0000
     28 ****        -1.7745   4.5649  -2.3711 H              1 S1                 0.0000
     29 ****        -2.1912   3.7065  -3.8613 H              1 S1                 0.0000
     30 ****        -1.1079   1.2225  -1.7382 H              1 S1                 0.0000
     31 ****        -2.8710  -0.9406   0.6177 H              1 S1                 0.0000
     32 ****        -0.2716  -2.3700   0.3270 H              1 S1                 0.0000
     33 ****         1.8086  -1.9187  -1.1455 H              1 S1                 0.0000
     34 ****         1.3354  -0.2212  -1.1487 H              1 S1                 0.0000
     35 ****         5.5991   0.1663   1.6733 H              1 S1                 0.0000
     36 ****         6.4007   0.3497   3.9998 H              1 S1                 0.0000
     37 ****         4.8850  -0.1898   5.8970 H              1 S1                 0.0000
     38 ****         2.5491  -0.9179   5.4498 H              1 S1                 0.0000
     39 ****         1.7226  -1.1088   3.1422 H              1 S1                 0.0000
     40 ****        -0.6772  -3.0914  -1.9184 H              1 S1                 0.0000
     41 ****         0.4050  -1.3944  -2.9618 H              1 S1                 0.0000
     42 ****        -2.7219  -2.7517  -0.7886 H              1 S1                 0.0000
     43 ****        -4.0803  -1.4405  -2.1399 H              1 S1                 0.0000
     44 ****        -0.9105  -0.3915   1.0192 LP             1 S1                 0.0000
     45 ****        -0.6836   0.3581  -0.4137 LP             1 S1                 0.0000
     46 ****         3.4829  -0.4025  -1.0987 LP             1 S1                 0.0000
     47 ****         4.7859  -0.0031  -0.0299 LP             1 S1                 0.0000
     48 ****        -0.6932  -0.2976  -2.6167 LP             1 S1                 0.0000
     49 ****        -1.0367  -1.5428  -3.6157 LP             1 S1                 0.0000
     50 ****        -3.2676  -2.5165  -2.9855 LP             1 S1                 0.0000
     51 ****        -2.8545  -0.9371  -3.0216 LP             1 S1                 0.0000
     52 ****        -4.5633  -0.8134   0.3044 LP             1 S1                 0.0000
     53 ****        -5.9533   0.2066   0.1389 LP             1 S1                 0.0000
     54 ****        -5.7746   2.2359  -0.9573 LP             1 S1                 0.0000
     55 ****        -3.9495   4.6116  -2.7638 LP             1 S1                 0.0000
     56 ****        -5.4920   4.1954  -2.0950 LP             1 S1                 0.0000
@<TRIPOS>BOND
    1    1    2 1     
    2    1   27 1     
    3    1   28 1     
    4    1   29 1     
    5    2   25 1     
    6    2    3 2     
    7    3    4 1     
    8    3   30 1     
    9    4    5 1     
   10    4   22 am    
   11    5   20 1     
   12    5    6 1     
   13    5   31 1     
   14    6    7 1     
   15    7    8 1     
   16    7   18 1     
   17    7   32 1     
   18    8    9 1     
   19    8   33 1     
   20    8   34 1     
   21    9   10 1     
   22   10   11 2     
   23   10   12 1     
   24   12   17 ar    
   25   12   13 ar    
   26   13   14 ar    
   27   13   35 1     
   28   14   15 ar    
   29   14   36 1     
   30   15   16 ar    
   31   15   37 1     
   32   16   17 ar    
   33   16   38 1     
   34   17   39 1     
   35   18   19 1     
   36   18   20 1     
   37   18   40 1     
   38   19   41 1     
   39   20   21 1     
   40   20   42 1     
   41   21   43 1     
   42   22   23 2     
   43   22   24 1     
   44   24   25 1     
   45   25   26 2     
   46    6   44 1     
   47    6   45 1     
   48   11   46 1     
   49   11   47 1     
   50   19   48 1     
   51   19   49 1     
   52   21   50 1     
   53   21   51 1     
   54   23   52 1     
   55   23   53 1     
   56   24   54 1     
   57   26   55 1     
   58   26   56 1     
@<TRIPOS>SUBSTRUCTURE
      1 S1             1
@<TRIPOS>SET
LONE_PAIRS      STATIC     ATOMS    <user>   **** ""
13 44 45 46 47 48 49 50 51 52 53 54 55 56
DONOR_HYDROGENS      STATIC     ATOMS    <user>   **** ""
2 41 43
ATOM$BLUE        STATIC     ATOMS    COLORGROUP SYSTEM
13 44 45 46 47 48 49 50 51 52 53 54 55 56
ATOM$RED        STATIC     ATOMS    COLORGROUP SYSTEM
2 41 43
