AV-unprocessed.smi:1560|AV-procd|sdf|6279|dock5
  -GOLD-   22720 6473D 1   1.00000     0.00000
 Structure written by MMmdl.
 46 47  0  0  0  0  0  0  0  0  2 V2000
  154.7021  137.8067  158.4441 C   0  0  0  0  0  0  0  0  0  0  0  0
  153.6969  138.0086  157.2951 C   0  0  0  0  0  0  0  0  0  0  0  0
  152.2506  138.4121  157.7249 C   0  0  1  0  0  0  0  0  0  0  0  0
  151.3551  138.2312  156.4695 C   0  0  0  0  0  0  0  0  0  0  0  0
  151.7574  137.4153  158.8235 C   0  0  0  0  0  0  0  0  0  0  0  0
  150.3526  137.5858  159.1938 N   0  0  0  0  0  0  0  0  0  0  0  0
  149.3687  136.7000  158.9745 C   0  0  0  0  0  0  0  0  0  0  0  0
  149.5383  135.6294  158.3895 O   0  0  0  0  0  0  0  0  0  0  0  0
  147.9728  137.1090  159.4626 C   0  0  0  0  0  0  0  0  0  0  0  0
  147.3825  136.1280  160.3874 N   0  0  0  0  0  0  0  0  0  0  0  0
  147.2972  134.7912  159.9593 C   0  0  0  0  0  0  0  0  0  0  0  0
  146.7725  133.8275  160.7403 C   0  0  0  0  0  0  0  0  0  0  0  0
  146.2848  134.1996  162.0628 C   0  0  0  0  0  0  0  0  0  0  0  0
  145.7974  133.3340  162.7874 O   0  0  0  0  0  0  0  0  0  0  0  0
  146.3952  135.5088  162.4345 N   0  5  0  0  0  0  0  0  0  0  0  0
  146.9326  136.4779  161.6304 C   0  0  0  0  0  0  0  0  0  0  0  0
  147.0234  137.6537  161.9862 O   0  0  0  0  0  0  0  0  0  0  0  0
  152.2115  139.8258  158.1964 N   0  0  0  0  0  0  0  0  0  0  0  0
  152.8991  140.0783  159.4691 C   0  0  0  0  0  0  0  0  0  0  0  0
  152.9437  141.5767  159.8122 C   0  0  0  0  0  0  0  0  0  0  0  0
  151.6212  142.0998  159.8468 O   0  0  0  0  0  0  0  0  0  0  0  0
  150.9362  141.9259  158.6124 C   0  0  0  0  0  0  0  0  0  0  0  0
  150.8751  140.4299  158.2595 C   0  0  0  0  0  0  0  0  0  0  0  0
  155.6783  137.5245  158.0498 H   0  0  0  0  0  0  0  0  0  0  0  0
  154.3877  137.0164  159.1255 H   0  0  0  0  0  0  0  0  0  0  0  0
  154.8399  138.7172  159.0265 H   0  0  0  0  0  0  0  0  0  0  0  0
  154.1137  138.7685  156.6338 H   0  0  0  0  0  0  0  0  0  0  0  0
  153.6720  137.1047  156.6862 H   0  0  0  0  0  0  0  0  0  0  0  0
  151.5433  137.2830  155.9647 H   0  0  0  0  0  0  0  0  0  0  0  0
  151.5223  139.0224  155.7381 H   0  0  0  0  0  0  0  0  0  0  0  0
  150.2943  138.2394  156.7205 H   0  0  0  0  0  0  0  0  0  0  0  0
  151.9337  136.3828  158.5209 H   0  0  0  0  0  0  0  0  0  0  0  0
  152.3246  137.5513  159.7435 H   0  0  0  0  0  0  0  0  0  0  0  0
  150.1134  138.4402  159.6757 H   0  0  0  0  0  0  0  0  0  0  0  0
  148.0157  138.0908  159.9383 H   0  0  0  0  0  0  0  0  0  0  0  0
  147.3353  137.2424  158.5876 H   0  0  0  0  0  0  0  0  0  0  0  0
  147.6859  134.5988  158.9700 H   0  0  0  0  0  0  0  0  0  0  0  0
  146.7165  132.8046  160.3979 H   0  0  0  0  0  0  0  0  0  0  0  0
  152.3980  139.5519  160.2813 H   0  0  0  0  0  0  0  0  0  0  0  0
  153.9236  139.7120  159.4408 H   0  0  0  0  0  0  0  0  0  0  0  0
  153.4117  141.7284  160.7850 H   0  0  0  0  0  0  0  0  0  0  0  0
  153.5411  142.1224  159.0802 H   0  0  0  0  0  0  0  0  0  0  0  0
  149.9300  142.3355  158.7028 H   0  0  0  0  0  0  0  0  0  0  0  0
  151.4411  142.4876  157.8250 H   0  0  0  0  0  0  0  0  0  0  0  0
  150.3589  140.3361  157.3057 H   0  0  0  0  0  0  0  0  0  0  0  0
  150.2627  139.9208  159.0035 H   0  0  0  0  0  0  0  0  0  0  0  0
  1  2  1  0  0  0  0
  1 24  1  0  0  0  0
  1 25  1  0  0  0  0
  1 26  1  0  0  0  0
  2  3  1  0  0  0  0
  2 27  1  0  0  0  0
  2 28  1  0  0  0  0
  3  4  1  0  0  0  0
  3  5  1  0  0  0  0
  3 18  1  0  0  0  0
  4 29  1  0  0  0  0
  4 30  1  0  0  0  0
  4 31  1  0  0  0  0
  5  6  1  0  0  0  0
  5 32  1  0  0  0  0
  5 33  1  0  0  0  0
  6  7  1  0  0  0  0
  6 34  1  0  0  0  0
  7  8  2  0  0  0  0
  7  9  1  0  0  0  0
  9 10  1  0  0  0  0
  9 35  1  0  0  0  0
  9 36  1  0  0  0  0
 10 16  1  0  0  0  0
 10 11  1  0  0  0  0
 11 12  2  0  0  0  0
 11 37  1  0  0  0  0
 12 13  1  0  0  0  0
 12 38  1  0  0  0  0
 13 14  2  0  0  0  0
 13 15  1  0  0  0  0
 15 16  1  0  0  0  0
 16 17  2  0  0  0  0
 18 23  1  0  0  0  0
 18 19  1  0  0  0  0
 19 20  1  0  0  0  0
 19 39  1  0  0  0  0
 19 40  1  0  0  0  0
 20 21  1  0  0  0  0
 20 41  1  0  0  0  0
 20 42  1  0  0  0  0
 21 22  1  0  0  0  0
 22 23  1  0  0  0  0
 22 43  1  0  0  0  0
 22 44  1  0  0  0  0
 23 45  1  0  0  0  0
 23 46  1  0  0  0  0
M  CHG  1  15  -1
M  END
> <s_m_source_file>
AV-unprocessed.smi

> <i_m_source_file_index>
1560

> <i_lp_mmshare_version>
43012

> <i_f3d_flags>
0

> <s_epik_input>
W0NIMl0xW0NIMl1PW0NIMl1bQ0gyXU4xW0NAQF0oW0NIM10pKFtDSDJdW0NIM10pW0NIMl1bTkhdQyg9TylbQ0gyXW4yW2NIXVtjSF1jKD1PKVtuSF1jMj1P

> <s_epik_cmdline>
J2VwaWtfcHl0aG9uJywgJy1waCcsICc3LjAnLCAnLXRuJywgJzgnLCAnLW1hJywgJzIwMCcsICctbWV0YWxfYmluZGluZycsICctaW1hZScsICc8aW5maWxlLm1hZT4nLCAnLW9tYWUnLCAnPG91dGZpbGUubWFlPic=

> <r_lp_tautomer_probability>
0.999537

> <r_epik_Ionization_Penalty>
3.35108

> <r_epik_Ionization_Penalty_Charging>
2.65778e-08

> <r_epik_Ionization_Penalty_Neutral>
3.35108

> <r_epik_State_Penalty>
3.36199

> <r_epik_Charging_Adjusted_Penalty>
3.36199

> <i_epik_Tot_Q>
-1

> <i_epik_Tot_abs_Q>
1

> <r_epik_Metal_State_Penalty>
0.748914

> <b_epik_Metal_Only>
1

> <s_lp_Force_Field>
OPLS_2005

> <r_lp_Energy>
51.7621

> <b_lp_Chiralities_Consistent>
1

> <s_lp_Variant>
AV-unprocessed.smi:1560-5

> <Gold.Version>
5.8.1

> <Gold.Id.Protein>
6NUR|6NUR_protein|mol2

> <Gold.PLP.Fitness>
35.9900

> <Gold.PLP.PLP>
-29.5361

> <Gold.PLP.part.hbond>
-4.3900

> <Gold.PLP.part.metal>
0.0000

> <Gold.PLP.part.buried>
-2.4710

> <Gold.PLP.part.nonpolar>
-22.4574

> <Gold.PLP.part.repulsive>
0.2575

> <Gold.PLP.ligand.clash>
0.0000

> <Gold.PLP.ligand.torsion>
0.4035

> <Gold.PLP.Chemscore.Hbond>
2.3621

> <Gold.PLP.Chemscore.CHOScore>
0.0000

> <Gold.PLP.Chemscore.Metal>
0.0000

> <Gold.Chemscore.Hbonds>
donor molecule, donor type, donor heavy atom, donor atom, acceptor molecule, acceptor atom, score
      P1  H  6896  6907       L1     8  0.99
      P1  H  6931  6943       L1    17  0.52
      P1  H  6934  6947       L1    17  0.69

> <Gold.PLP.Chemscore.Internal.Correction>
0.1745

> <Gold.Rescore>
     Score         DG    S(hbond)    S(metal)    S(lipo)     H(rot)  DE(clash)    DE(int)     intcor
     11.68     -13.68       2.15        0.00      61.59       2.42       0.13       1.87       ----

> <Gold.Chemscore.Fitness>
11.6792

> <Gold.Chemscore.DG>
-13.6813

> <Gold.Chemscore.ZeroCoef>
-5.4800

> <Gold.Chemscore.Hbond>
2.1526

> <Gold.Chemscore.Metal>
0.0000

> <Gold.Chemscore.Lipo>
61.5900

> <Gold.Chemscore.Internal_Hbond>
0.0000

> <Gold.Chemscore.DEClash>
0.1298

> <Gold.Chemscore.DEInternal>
1.8723

> <Gold.Chemscore.Rot>
2.4197

> <Gold.Chemscore.Internal.Correction>
   9.000000E+99

> <Gold.Chemscore.Hbonds>
donor molecule, donor type, donor heavy atom, donor atom, acceptor molecule, acceptor atom, score
      P1  H  6896  6907       L1     8  0.77
      P1  H  6931  6943       L1    17  0.36
      P1  H  6934  6947       L1    17  0.70

> <Gold.Chemscore.Hbond.Weighted>
-7.1896

> <Gold.Chemscore.Metal.Weighted>
-0.0000

> <Gold.Chemscore.Lipo.Weighted>
-7.2060

> <Gold.Chemscore.Internal_Hbond.Weighted>
0.0000

> <Gold.Chemscore.DEClash.Weighted>
0.1298

> <Gold.Chemscore.DEInternal.Weighted>
1.8723

> <Gold.Chemscore.Rot.Weighted>
6.1943

> <Gold.Chemscore.Internal.Correction.Weighted>
   9.000000E+99

> <Gold.Protein.RotatedTorsions>
[ 6907 6896 6895 6894 ] final  -86.66 input  -60.11 | X-H torsion
[ 7974 7965 7964 7962 ] final    8.26 input  175.53 | X-H torsion
[ 8008 7997 7996 7995 ] final   -7.17 input   59.86 | X-H torsion
[ 10167 10162 10161 10158 ] final -116.63 input  -65.29 | X-H torsion
[ 10718 10713 10712 10709 ] final   42.28 input   66.30 | X-H torsion
[ 10763 10752 10751 10750 ] final -177.17 input  -60.55 | X-H torsion
[ 11005 11000 10999 10996 ] final -102.17 input  -57.11 | X-H torsion

> <Gold.Protein.ActiveResidues>
 VAL166  LYS551  ARG553  GLY616  TRP617  ASP618  TYR619  PRO620  LYS621  CYS622 
 ASP623  PHE694  ASN695  SER759  ASP760  ASP761  ALA762  ILE779  LEU786  VAL792 
 PHE793  MET794  SER795  GLU796  ALA797  LYS798  CYS799  TRP800  GLU811  SER814 

> <Gold.Protein.RotatedAtoms>
  150.6866  134.3017  159.4708 H   0  0  0  0  0  0  0  0  0  0  0  0  # atno 6907 bound_to 6896
  152.0912  134.9403  160.0581 H   0  0  0  0  0  0  0  0  0  0  0  0  # atno 6908 bound_to 6896
  152.0718  133.4076  159.4499 H   0  0  0  0  0  0  0  0  0  0  0  0  # atno 6909 bound_to 6896
  146.2418  139.9960  142.8421 H   0  0  0  0  0  0  0  0  0  0  0  0  # atno 7974 bound_to 7965
  154.5865  140.2414  155.7980 H   0  0  0  0  0  0  0  0  0  0  0  0  # atno 8008 bound_to 7997
  156.2217  140.2995  155.9923 H   0  0  0  0  0  0  0  0  0  0  0  0  # atno 8009 bound_to 7997
  155.2449  140.0408  157.2970 H   0  0  0  0  0  0  0  0  0  0  0  0  # atno 8010 bound_to 7997
  140.0772  143.4822  152.1946 H   0  0  0  0  0  0  0  0  0  0  0  0  # atno 10167 bound_to 10162
  157.4030  130.7871  149.7365 H   0  0  0  0  0  0  0  0  0  0  0  0  # atno 10718 bound_to 10713
  154.5634  135.2822  155.0897 H   0  0  0  0  0  0  0  0  0  0  0  0  # atno 10763 bound_to 10752
  154.2297  135.6376  153.5175 H   0  0  0  0  0  0  0  0  0  0  0  0  # atno 10764 bound_to 10752
  153.0036  135.5534  154.6235 H   0  0  0  0  0  0  0  0  0  0  0  0  # atno 10765 bound_to 10752
  141.1200  133.8536  157.1325 H   0  0  0  0  0  0  0  0  0  0  0  0  # atno 11005 bound_to 11000
  145.1459  140.9597  143.4461 LP  0  0  0  0  0  0  0  0  0  0  0  0  # atno 17320 bound_to 7965
  145.0251  139.3390  143.6053 LP  0  0  0  0  0  0  0  0  0  0  0  0  # atno 17321 bound_to 7965
  139.5801  144.7506  151.3662 LP  0  0  0  0  0  0  0  0  0  0  0  0  # atno 17342 bound_to 10162
  140.7096  143.7425  150.7543 LP  0  0  0  0  0  0  0  0  0  0  0  0  # atno 17343 bound_to 10162
  155.9828  130.4006  150.3394 LP  0  0  0  0  0  0  0  0  0  0  0  0  # atno 17370 bound_to 10713
  157.1524  131.0324  151.2879 LP  0  0  0  0  0  0  0  0  0  0  0  0  # atno 17371 bound_to 10713
  140.0151  134.9971  157.0476 LP  0  0  0  0  0  0  0  0  0  0  0  0  # atno 17394 bound_to 11000
  140.4534  134.1559  155.7184 LP  0  0  0  0  0  0  0  0  0  0  0  0  # atno 17395 bound_to 11000

$$$$
