#       Name:                AV-unprocessed.smi:1053
#       Creating user name   scv26
#       Creation time:       Fri Mar 27 03:12:06 2020


#       File generated by GOLD software.
#

@<TRIPOS>MOLECULE
AV-unprocessed.smi:1053
    42    43     1
SMALL
NO_CHARGES


@<TRIPOS>ATOM
      1 ****        -3.6840  -2.9119   0.6550 C.3            1 S1                 0.0000
      2 ****        -3.7399  -1.4205   0.2946 C.3            1 S1                 0.0000
      3 ****        -3.0284  -0.5689   1.2847 N.4            1 S1                 1.0000
      4 ****        -3.4560   0.8511   1.2591 C.3            1 S1                 0.0000
      5 ****        -2.8159   1.6031   0.0788 C.3            1 S1                 0.0000
      6 ****        -1.4009   1.4881   0.1589 O.3            1 S1                 0.0000
      7 ****        -0.9542   0.1389   0.0612 C.3            1 S1                 0.0000
      8 ****         0.5799   0.1406   0.0976 C.3            1 S1                 0.0000
      9 ****         1.1471   0.7325  -1.1046 N.pl3          1 S1                 0.0000
     10 ****         2.5027   0.8723  -1.3318 C.ar           1 S1                 0.0000
     11 ****         2.8347   1.4816  -2.4719 N.ar           1 S1                 0.0000
     12 ****         4.1529   1.6351  -2.7242 C.ar           1 S1                 0.0000
     13 ****         5.1389   1.1755  -1.8287 C.ar           1 S1                 0.0000
     14 ****         4.6728   0.5450  -0.6534 C.ar           1 S1                 0.0000
     15 ****         5.6205  -0.0002   0.4043 C.3            1 S1                 0.0000
     16 ****         6.8958   0.1997   0.0699 F              1 S1                 0.0000
     17 ****         5.3891   0.6049   1.5693 F              1 S1                 0.0000
     18 ****         5.4223  -1.3101   0.5529 F              1 S1                 0.0000
     19 ****         3.3494   0.3967  -0.4122 N.ar           1 S1                 0.0000
     20 ****        -1.5462  -0.6637   1.2409 C.3            1 S1                 0.0000
     21 ****        -4.2986  -3.4948  -0.0313 H              1 S1                 0.0000
     22 ****        -4.0596  -3.0880   1.6634 H              1 S1                 0.0000
     23 ****        -2.6719  -3.3111   0.5973 H              1 S1                 0.0000
     24 ****        -3.3545  -1.2569  -0.7116 H              1 S1                 0.0000
     25 ****        -4.7906  -1.1290   0.2687 H              1 S1                 0.0000
     26 ****        -4.5433   0.9283   1.2257 H              1 S1                 0.0000
     27 ****        -3.1452   1.3197   2.1939 H              1 S1                 0.0000
     28 ****        -3.1741   1.2219  -0.8785 H              1 S1                 0.0000
     29 ****        -3.0845   2.6589   0.1191 H              1 S1                 0.0000
     30 ****        -1.2830  -0.2916  -0.8860 H              1 S1                 0.0000
     31 ****         0.9378   0.6790   0.9761 H              1 S1                 0.0000
     32 ****         0.9460  -0.8837   0.1778 H              1 S1                 0.0000
     33 ****         0.5200   1.1161  -1.7968 H              1 S1                 0.0000
     34 ****         4.4228   2.1277  -3.6466 H              1 S1                 0.0000
     35 ****         6.1905   1.3030  -2.0383 H              1 S1                 0.0000
     36 ****        -1.1576  -0.2629   2.1783 H              1 S1                 0.0000
     37 ****        -1.2216  -1.7028   1.2023 H              1 S1                 0.0000
     38 ****        -3.3120  -0.9246   2.1868 H              1 S1                 0.0000
     39 ****        -1.0983   1.8630   1.0352 LP             1 S1                 0.0000
     40 ****        -0.9941   2.0150  -0.5874 LP             1 S1                 0.0000
     41 ****         2.1388   1.8098  -3.1107 LP             1 S1                 0.0000
     42 ****         3.0183  -0.0499   0.4190 LP             1 S1                 0.0000
@<TRIPOS>BOND
    1    1    2 1     
    2    1   21 1     
    3    1   22 1     
    4    1   23 1     
    5    2    3 1     
    6    2   24 1     
    7    2   25 1     
    8    3   20 1     
    9    3    4 1     
   10    3   38 1     
   11    4    5 1     
   12    4   26 1     
   13    4   27 1     
   14    5    6 1     
   15    5   28 1     
   16    5   29 1     
   17    6    7 1     
   18    7    8 1     
   19    7   20 1     
   20    7   30 1     
   21    8    9 1     
   22    8   31 1     
   23    8   32 1     
   24    9   10 1     
   25    9   33 1     
   26   10   19 ar    
   27   10   11 ar    
   28   11   12 ar    
   29   12   13 ar    
   30   12   34 1     
   31   13   14 ar    
   32   13   35 1     
   33   14   15 1     
   34   14   19 ar    
   35   15   16 1     
   36   15   17 1     
   37   15   18 1     
   38   20   36 1     
   39   20   37 1     
   40    6   39 1     
   41    6   40 1     
   42   11   41 1     
   43   19   42 1     
@<TRIPOS>SUBSTRUCTURE
      1 S1             1
@<TRIPOS>SET
LONE_PAIRS      STATIC     ATOMS    <user>   **** ""
4 39 40 41 42
DONOR_HYDROGENS      STATIC     ATOMS    <user>   **** ""
2 38 33
ATOM$BLUE        STATIC     ATOMS    COLORGROUP SYSTEM
4 39 40 41 42
ATOM$RED        STATIC     ATOMS    COLORGROUP SYSTEM
2 38 33
