AV-unprocessed.smi:2999|AV-procd|sdf|11425|dock3
  -GOLD-   2272016353D 1   1.00000     0.00000
 Structure written by MMmdl.
 37 39  0  0  0  0  0  0  0  0  3 V2000
  152.5310  140.2479  157.4971 O   0  0  0  0  0  0  0  0  0  0  0  0
  151.4286  140.7072  157.1906 C   0  0  0  0  0  0  0  0  0  0  0  0
  150.8361  140.3189  156.0551 N   0  0  0  0  0  0  0  0  0  0  0  0
  151.3771  139.3522  155.1083 C   0  0  0  0  0  0  0  0  0  0  0  0
  150.3098  138.3254  154.7015 C   0  0  2  0  0  0  0  0  0  0  0  0
  148.9851  138.9815  154.2556 C   0  0  0  0  0  0  0  0  0  0  0  0
  147.9741  137.9454  153.9473 N   0  3  2  0  0  0  0  0  0  0  0  0
  146.6988  138.5247  153.4739 C   0  0  0  0  0  0  0  0  0  0  0  0
  145.9075  137.6006  152.5780 C   0  0  0  0  0  0  0  0  0  0  0  0
  146.6606  138.7703  151.9838 C   0  0  0  0  0  0  0  0  0  0  0  0
  147.7899  137.0376  155.1017 C   0  0  0  0  0  0  0  0  0  0  0  0
  149.1405  136.4402  155.5279 C   0  0  0  0  0  0  0  0  0  0  0  0
  150.0528  137.4903  155.8265 O   0  0  0  0  0  0  0  0  0  0  0  0
  150.7036  141.6024  157.8981 N   0  5  0  0  0  0  0  0  0  0  0  0
  151.3237  142.5100  158.6701 C   0  0  0  0  0  0  0  0  0  0  0  0
  152.5425  142.3161  159.1868 N   0  0  0  0  0  0  0  0  0  0  0  0
  152.9913  143.3844  159.9658 C   0  0  0  0  0  0  0  0  0  0  0  0
  152.0895  144.4118  160.0512 C   0  0  0  0  0  0  0  0  0  0  0  0
  150.6417  144.0672  159.1488 S   0  0  0  0  0  0  0  0  0  0  0  0
  149.9374  140.7248  155.8396 H   0  0  0  0  0  0  0  0  0  0  0  0
  151.7355  139.8878  154.2284 H   0  0  0  0  0  0  0  0  0  0  0  0
  152.2368  138.8405  155.5444 H   0  0  0  0  0  0  0  0  0  0  0  0
  150.7071  137.7116  153.8904 H   0  0  0  0  0  0  0  0  0  0  0  0
  148.6068  139.6391  155.0403 H   0  0  0  0  0  0  0  0  0  0  0  0
  149.1463  139.5996  153.3716 H   0  0  0  0  0  0  0  0  0  0  0  0
  146.1906  139.2024  154.1579 H   0  0  0  0  0  0  0  0  0  0  0  0
  146.3004  136.6031  152.3890 H   0  0  0  0  0  0  0  0  0  0  0  0
  144.8225  137.6735  152.6146 H   0  0  0  0  0  0  0  0  0  0  0  0
  146.0723  139.6144  151.6297 H   0  0  0  0  0  0  0  0  0  0  0  0
  147.5541  138.5505  151.4020 H   0  0  0  0  0  0  0  0  0  0  0  0
  147.3452  137.5871  155.9329 H   0  0  0  0  0  0  0  0  0  0  0  0
  147.0966  136.2385  154.8372 H   0  0  0  0  0  0  0  0  0  0  0  0
  149.0141  135.8193  156.4148 H   0  0  0  0  0  0  0  0  0  0  0  0
  149.5482  135.7984  154.7453 H   0  0  0  0  0  0  0  0  0  0  0  0
  153.9668  143.3270  160.4250 H   0  0  0  0  0  0  0  0  0  0  0  0
  152.1864  145.3438  160.5874 H   0  0  0  0  0  0  0  0  0  0  0  0
  148.3451  137.3897  153.1899 H   0  0  0  0  0  0  0  0  0  0  0  0
  1  2  2  0  0  0  0
  2  3  1  0  0  0  0
  2 14  1  0  0  0  0
  3  4  1  0  0  0  0
  3 20  1  0  0  0  0
  4  5  1  0  0  0  0
  4 21  1  0  0  0  0
  4 22  1  0  0  0  0
  5 13  1  0  0  0  0
  5  6  1  0  0  0  0
  5 23  1  0  0  0  0
  6  7  1  0  0  0  0
  6 24  1  0  0  0  0
  6 25  1  0  0  0  0
  7  8  1  0  0  0  0
  7 11  1  0  0  0  0
  7 37  1  0  0  0  0
  8 10  1  0  0  0  0
  8  9  1  0  0  0  0
  8 26  1  0  0  0  0
  9 10  1  0  0  0  0
  9 27  1  0  0  0  0
  9 28  1  0  0  0  0
 10 29  1  0  0  0  0
 10 30  1  0  0  0  0
 11 12  1  0  0  0  0
 11 31  1  0  0  0  0
 11 32  1  0  0  0  0
 12 13  1  0  0  0  0
 12 33  1  0  0  0  0
 12 34  1  0  0  0  0
 14 15  1  0  0  0  0
 15 19  1  0  0  0  0
 15 16  2  0  0  0  0
 16 17  1  0  0  0  0
 17 18  2  0  0  0  0
 17 35  1  0  0  0  0
 18 19  1  0  0  0  0
 18 36  1  0  0  0  0
M  CHG  1   7   1
M  CHG  1  14  -1
M  END
> <s_m_source_file>
AV-unprocessed.smi

> <i_m_source_file_index>
2999

> <i_lp_mmshare_version>
43012

> <i_f3d_flags>
0

> <s_epik_input>
czFbY0hdW2NIXW5jMVtOSF1DKD1PKVtOSF1bQ0gyXVtDQEBIXTJbQ0gyXU4oW0NIMl1bQ0gyXU8yKVtDSF0zW0NIMl1bQ0gyXTM=

> <s_epik_cmdline>
J2VwaWtfcHl0aG9uJywgJy1waCcsICc3LjAnLCAnLXRuJywgJzgnLCAnLW1hJywgJzIwMCcsICctbWV0YWxfYmluZGluZycsICctaW1hZScsICc8aW5maWxlLm1hZT4nLCAnLW9tYWUnLCAnPG91dGZpbGUubWFlPic=

> <r_lp_tautomer_probability>
0.999

> <r_epik_Ionization_Penalty>
7.79196

> <r_epik_Ionization_Penalty_Charging>
6.93299

> <r_epik_Ionization_Penalty_Neutral>
0.858963

> <r_epik_State_Penalty>
7.05108

> <r_epik_Charging_Adjusted_Penalty>
13.9841

> <i_epik_Tot_Q>
0

> <i_epik_Tot_abs_Q>
2

> <r_epik_Metal_State_Penalty>
3.05936

> <b_epik_Metal_Only>
1

> <s_lp_Force_Field>
OPLS_2005

> <r_lp_Energy>
14.1159

> <b_lp_Chiralities_Consistent>
1

> <s_lp_Variant>
AV-unprocessed.smi:2999-9

> <Gold.Version>
5.8.1

> <Gold.Id.Protein>
6NUR|6NUR_protein|mol2

> <Gold.PLP.Fitness>
42.9146

> <Gold.PLP.PLP>
-34.8182

> <Gold.PLP.part.hbond>
-2.0000

> <Gold.PLP.part.metal>
0.0000

> <Gold.PLP.part.buried>
-2.0765

> <Gold.PLP.part.nonpolar>
-30.7033

> <Gold.PLP.part.repulsive>
0.2282

> <Gold.PLP.ligand.clash>
0.0000

> <Gold.PLP.ligand.torsion>
1.0741

> <Gold.PLP.Chemscore.Hbond>
2.9920

> <Gold.PLP.Chemscore.CHOScore>
0.0000

> <Gold.PLP.Chemscore.Metal>
0.0000

> <Gold.Chemscore.Hbonds>
donor molecule, donor type, donor heavy atom, donor atom, acceptor molecule, acceptor atom, score
      L1  H     7    37       P1  7948  2.00
      P1  H  7997  8009       L1     1  0.98

> <Gold.PLP.Chemscore.Internal.Correction>
1.2687

> <Gold.Rescore>
     Score         DG    S(hbond)    S(metal)    S(lipo)     H(rot)  DE(clash)    DE(int)     intcor
     15.01     -17.49       1.98        0.00      80.13       1.55       0.00       2.48       ----

> <Gold.Chemscore.Fitness>
15.0078

> <Gold.Chemscore.DG>
-17.4905

> <Gold.Chemscore.ZeroCoef>
-5.4800

> <Gold.Chemscore.Hbond>
1.9775

> <Gold.Chemscore.Metal>
0.0000

> <Gold.Chemscore.Lipo>
80.1252

> <Gold.Chemscore.Internal_Hbond>
0.0000

> <Gold.Chemscore.DEClash>
0.0013

> <Gold.Chemscore.DEInternal>
2.4814

> <Gold.Chemscore.Rot>
1.5504

> <Gold.Chemscore.Internal.Correction>
   9.000000E+99

> <Gold.Chemscore.Hbonds>
donor molecule, donor type, donor heavy atom, donor atom, acceptor molecule, acceptor atom, score
      L1  H     7    37       P1  7948  1.00
      P1  H  7997  8009       L1     1  0.86

> <Gold.Chemscore.Hbond.Weighted>
-6.6049

> <Gold.Chemscore.Metal.Weighted>
-0.0000

> <Gold.Chemscore.Lipo.Weighted>
-9.3747

> <Gold.Chemscore.Internal_Hbond.Weighted>
0.0000

> <Gold.Chemscore.DEClash.Weighted>
0.0013

> <Gold.Chemscore.DEInternal.Weighted>
2.4814

> <Gold.Chemscore.Rot.Weighted>
3.9690

> <Gold.Chemscore.Internal.Correction.Weighted>
   9.000000E+99

> <Gold.Protein.RotatedTorsions>
[ 6907 6896 6895 6894 ] final   95.28 input  -60.11 | X-H torsion
[ 7974 7965 7964 7962 ] final  -16.87 input  175.53 | X-H torsion
[ 8008 7997 7996 7995 ] final  179.79 input   59.86 | X-H torsion
[ 10167 10162 10161 10158 ] final  -79.07 input  -65.29 | X-H torsion
[ 10718 10713 10712 10709 ] final  -31.87 input   66.30 | X-H torsion
[ 10763 10752 10751 10750 ] final -102.35 input  -60.55 | X-H torsion
[ 11005 11000 10999 10996 ] final   84.60 input  -57.11 | X-H torsion

> <Gold.Protein.ActiveResidues>
 VAL166  LYS551  ARG553  GLY616  TRP617  ASP618  TYR619  PRO620  LYS621  CYS622 
 ASP623  PHE694  ASN695  SER759  ASP760  ASP761  ALA762  ILE779  LEU786  VAL792 
 PHE793  MET794  SER795  GLU796  ALA797  LYS798  CYS799  TRP800  GLU811  SER814 

> <Gold.Protein.RotatedAtoms>
  152.5444  134.1065  159.8339 H   0  0  0  0  0  0  0  0  0  0  0  0  # atno 6907 bound_to 6896
  151.1136  133.5147  159.2612 H   0  0  0  0  0  0  0  0  0  0  0  0  # atno 6908 bound_to 6896
  151.1857  135.0390  159.8865 H   0  0  0  0  0  0  0  0  0  0  0  0  # atno 6909 bound_to 6896
  146.1968  140.3697  142.8438 H   0  0  0  0  0  0  0  0  0  0  0  0  # atno 7974 bound_to 7965
  156.0393  140.1300  157.0173 H   0  0  0  0  0  0  0  0  0  0  0  0  # atno 8008 bound_to 7997
  154.4384  140.1033  156.6284 H   0  0  0  0  0  0  0  0  0  0  0  0  # atno 8009 bound_to 7997
  155.5690  140.3466  155.4512 H   0  0  0  0  0  0  0  0  0  0  0  0  # atno 8010 bound_to 7997
  140.4626  143.2449  151.8325 H   0  0  0  0  0  0  0  0  0  0  0  0  # atno 10167 bound_to 10162
  156.3819  130.4357  149.7462 H   0  0  0  0  0  0  0  0  0  0  0  0  # atno 10718 bound_to 10713
  154.7727  135.4863  153.9682 H   0  0  0  0  0  0  0  0  0  0  0  0  # atno 10763 bound_to 10752
  153.1389  135.6768  153.9066 H   0  0  0  0  0  0  0  0  0  0  0  0  # atno 10764 bound_to 10752
  153.8747  135.3139  155.3422 H   0  0  0  0  0  0  0  0  0  0  0  0  # atno 10765 bound_to 10752
  139.8995  134.8228  156.2468 H   0  0  0  0  0  0  0  0  0  0  0  0  # atno 11005 bound_to 11000
  144.8597  140.7121  143.6115 LP  0  0  0  0  0  0  0  0  0  0  0  0  # atno 17320 bound_to 7965
  145.3618  139.1680  143.4379 LP  0  0  0  0  0  0  0  0  0  0  0  0  # atno 17321 bound_to 7965
  139.4808  144.4989  151.9087 LP  0  0  0  0  0  0  0  0  0  0  0  0  # atno 17342 bound_to 10162
  140.4074  144.2413  150.5890 LP  0  0  0  0  0  0  0  0  0  0  0  0  # atno 17343 bound_to 10162
  156.4550  130.7924  151.2945 LP  0  0  0  0  0  0  0  0  0  0  0  0  # atno 17370 bound_to 10713
  157.7493  131.0084  150.3226 LP  0  0  0  0  0  0  0  0  0  0  0  0  # atno 17371 bound_to 10713
  141.0250  133.7020  156.1332 LP  0  0  0  0  0  0  0  0  0  0  0  0  # atno 17394 bound_to 11000
  140.7180  134.4390  157.5577 LP  0  0  0  0  0  0  0  0  0  0  0  0  # atno 17395 bound_to 11000

$$$$
