AV-unprocessed.smi:1738|AV-procd|sdf|7004|dock2
  -GOLD-   22720 8213D 1   1.00000     0.00000
 Structure written by MMmdl.
 46 48  0  0  0  0  0  0  0  0  2 V2000
  151.7269  138.3389  159.7529 C   0  0  0  0  0  0  0  0  0  0  0  0
  152.8832  137.5166  158.5830 S   0  0  0  0  0  0  0  0  0  0  0  0
  153.8069  138.5395  158.0681 O   0  0  0  0  0  0  0  0  0  0  0  0
  153.4226  136.3135  159.2358 O   0  0  0  0  0  0  0  0  0  0  0  0
  151.8243  136.9874  157.2413 C   0  0  0  0  0  0  0  0  0  0  0  0
  151.5729  137.8425  156.1499 C   0  0  0  0  0  0  0  0  0  0  0  0
  150.6994  137.3934  155.1410 C   0  0  0  0  0  0  0  0  0  0  0  0
  150.1005  136.1150  155.2699 C   0  0  0  0  0  0  0  0  0  0  0  0
  149.2067  135.5333  154.3278 N   0  0  0  0  0  0  0  0  0  0  0  0
  148.5906  134.3385  154.3575 C   0  0  0  0  0  0  0  0  0  0  0  0
  148.7091  133.4914  155.2415 O   0  0  0  0  0  0  0  0  0  0  0  0
  147.8160  134.1682  153.2764 N   0  0  0  0  0  0  0  0  0  0  0  0
  146.9934  132.9917  153.0071 C   0  0  1  0  0  0  0  0  0  0  0  0
  146.1403  133.1349  151.7523 C   0  0  0  0  0  0  0  0  0  0  0  0
  145.7876  131.6814  151.4328 C   0  0  0  0  0  0  0  0  0  0  0  0
  146.9558  130.8751  151.8562 N   0  3  2  0  0  0  0  0  0  0  0  0
  146.6131  129.5465  152.4197 C   0  0  0  0  0  0  0  0  0  0  0  0
  147.8873  128.7717  152.8038 C   0  0  0  0  0  0  0  0  0  0  0  0
  148.8701  129.6053  153.6525 C   0  0  0  0  0  0  0  0  0  0  0  0
  148.3198  131.0009  153.9847 C   0  0  0  0  0  0  0  0  0  0  0  0
  147.8244  131.7303  152.7150 C   0  0  2  0  0  0  0  0  0  0  0  0
  150.4231  135.3520  156.4134 C   0  0  0  0  0  0  0  0  0  0  0  0
  151.2577  135.7713  157.3872 N   0  0  0  0  0  0  0  0  0  0  0  0
  152.2826  138.7016  160.6173 H   0  0  0  0  0  0  0  0  0  0  0  0
  150.9720  137.6244  160.0809 H   0  0  0  0  0  0  0  0  0  0  0  0
  151.2408  139.1777  159.2550 H   0  0  0  0  0  0  0  0  0  0  0  0
  152.0359  138.8155  156.0800 H   0  0  0  0  0  0  0  0  0  0  0  0
  150.5176  138.0402  154.2983 H   0  0  0  0  0  0  0  0  0  0  0  0
  149.0226  136.1002  153.5129 H   0  0  0  0  0  0  0  0  0  0  0  0
  147.7792  134.9150  152.5978 H   0  0  0  0  0  0  0  0  0  0  0  0
  146.3201  132.8034  153.8463 H   0  0  0  0  0  0  0  0  0  0  0  0
  145.2595  133.7598  151.9045 H   0  0  0  0  0  0  0  0  0  0  0  0
  146.7260  133.5642  150.9377 H   0  0  0  0  0  0  0  0  0  0  0  0
  144.9063  131.3920  152.0079 H   0  0  0  0  0  0  0  0  0  0  0  0
  145.5600  131.5291  150.3774 H   0  0  0  0  0  0  0  0  0  0  0  0
  145.9725  129.6728  153.2942 H   0  0  0  0  0  0  0  0  0  0  0  0
  146.0368  128.9781  151.6887 H   0  0  0  0  0  0  0  0  0  0  0  0
  147.6099  127.8638  153.3406 H   0  0  0  0  0  0  0  0  0  0  0  0
  148.3943  128.4395  151.8971 H   0  0  0  0  0  0  0  0  0  0  0  0
  149.1155  129.0746  154.5730 H   0  0  0  0  0  0  0  0  0  0  0  0
  149.8088  129.7140  153.1078 H   0  0  0  0  0  0  0  0  0  0  0  0
  147.5053  130.9037  154.7040 H   0  0  0  0  0  0  0  0  0  0  0  0
  149.0904  131.5914  154.4808 H   0  0  0  0  0  0  0  0  0  0  0  0
  148.6852  131.9979  152.0997 H   0  0  0  0  0  0  0  0  0  0  0  0
  149.9928  134.3712  156.5559 H   0  0  0  0  0  0  0  0  0  0  0  0
  147.4976  130.6945  151.0229 H   0  0  0  0  0  0  0  0  0  0  0  0
  1  2  1  0  0  0  0
  1 24  1  0  0  0  0
  1 25  1  0  0  0  0
  1 26  1  0  0  0  0
  2  3  2  0  0  0  0
  2  4  2  0  0  0  0
  2  5  1  0  0  0  0
  5 23  1  0  0  0  0
  5  6  2  0  0  0  0
  6  7  1  0  0  0  0
  6 27  1  0  0  0  0
  7  8  2  0  0  0  0
  7 28  1  0  0  0  0
  8  9  1  0  0  0  0
  8 22  1  0  0  0  0
  9 10  1  0  0  0  0
  9 29  1  0  0  0  0
 10 11  2  0  0  0  0
 10 12  1  0  0  0  0
 12 13  1  0  0  0  0
 12 30  1  0  0  0  0
 13 21  1  0  0  0  0
 13 14  1  0  0  0  0
 13 31  1  0  0  0  0
 14 15  1  0  0  0  0
 14 32  1  0  0  0  0
 14 33  1  0  0  0  0
 15 16  1  0  0  0  0
 15 34  1  0  0  0  0
 15 35  1  0  0  0  0
 16 21  1  0  0  0  0
 16 17  1  0  0  0  0
 16 46  1  0  0  0  0
 17 18  1  0  0  0  0
 17 36  1  0  0  0  0
 17 37  1  0  0  0  0
 18 19  1  0  0  0  0
 18 38  1  0  0  0  0
 18 39  1  0  0  0  0
 19 20  1  0  0  0  0
 19 40  1  0  0  0  0
 19 41  1  0  0  0  0
 20 21  1  0  0  0  0
 20 42  1  0  0  0  0
 20 43  1  0  0  0  0
 21 44  1  0  0  0  0
 22 23  2  0  0  0  0
 22 45  1  0  0  0  0
M  CHG  1  16   1
M  END
> <s_m_source_file>
AV-unprocessed.smi

> <i_m_source_file_index>
1738

> <i_lp_mmshare_version>
43012

> <i_f3d_flags>
0

> <s_epik_input>
W0NIM11TKD1PKSg9TyljMVtjSF1bY0hdYyhbY0hdbjEpW05IXUMoPU8pW05IXVtDQEhdKFtDSDJdW0NIMl0yKVtDQEBIXShOMjMpW0NIMl1bQ0gyXVtDSDJdW0NIMl0z

> <s_epik_cmdline>
J2VwaWtfcHl0aG9uJywgJy1waCcsICc3LjAnLCAnLXRuJywgJzgnLCAnLW1hJywgJzIwMCcsICctbWV0YWxfYmluZGluZycsICctaW1hZScsICc8aW5maWxlLm1hZT4nLCAnLW9tYWUnLCAnPG91dGZpbGUubWFlPic=

> <r_epik_Ionization_Penalty>
0.00100042

> <r_epik_Ionization_Penalty_Charging>
0.000974069

> <r_epik_Ionization_Penalty_Neutral>
2.63543e-05

> <r_epik_State_Penalty>
0.000633842

> <r_epik_Charging_Adjusted_Penalty>
0.00160791

> <i_epik_Tot_Q>
1

> <i_epik_Tot_abs_Q>
1

> <r_epik_Metal_State_Penalty>
-0

> <b_epik_Metal_Only>
0

> <s_lp_Force_Field>
OPLS_2005

> <r_lp_Energy>
42.7986

> <b_lp_Chiralities_Consistent>
1

> <s_lp_Variant>
AV-unprocessed.smi:1738-8

> <Gold.Version>
5.8.1

> <Gold.Id.Protein>
6NUR|6NUR_protein|mol2

> <Gold.PLP.Fitness>
45.6956

> <Gold.PLP.PLP>
-31.0161

> <Gold.PLP.part.hbond>
-6.0618

> <Gold.PLP.part.metal>
0.0000

> <Gold.PLP.part.buried>
-1.5314

> <Gold.PLP.part.nonpolar>
-23.5646

> <Gold.PLP.part.repulsive>
0.0774

> <Gold.PLP.ligand.clash>
0.0000

> <Gold.PLP.ligand.torsion>
1.0531

> <Gold.PLP.Chemscore.Hbond>
4.9195

> <Gold.PLP.Chemscore.CHOScore>
0.0000

> <Gold.PLP.Chemscore.Metal>
0.0000

> <Gold.Chemscore.Hbonds>
donor molecule, donor type, donor heavy atom, donor atom, acceptor molecule, acceptor atom, score
      L1  H     9    29       P1  7948  0.96
      L1  H    12    30       P1  7948  0.77
      L1  H    16    46       P1 10747  0.93
      P1  H  6896  6909       L1     4  0.98
      P1  H  7997  8010       L1     3  1.00

> <Gold.PLP.Chemscore.Internal.Correction>
2.0274

> <Gold.Rescore>
     Score         DG    S(hbond)    S(metal)    S(lipo)     H(rot)  DE(clash)    DE(int)     intcor
     21.15     -25.33       4.25        0.00      70.32       1.00       0.39       3.79       ----

> <Gold.Chemscore.Fitness>
21.1496

> <Gold.Chemscore.DG>
-25.3262

> <Gold.Chemscore.ZeroCoef>
-5.4800

> <Gold.Chemscore.Hbond>
4.2451

> <Gold.Chemscore.Metal>
0.0000

> <Gold.Chemscore.Lipo>
70.3206

> <Gold.Chemscore.Internal_Hbond>
0.0000

> <Gold.Chemscore.DEClash>
0.3900

> <Gold.Chemscore.DEInternal>
3.7866

> <Gold.Chemscore.Rot>
1.0000

> <Gold.Chemscore.Internal.Correction>
   9.000000E+99

> <Gold.Chemscore.Hbonds>
donor molecule, donor type, donor heavy atom, donor atom, acceptor molecule, acceptor atom, score
      L1  H     9    29       P1  7948  0.89
      L1  H    12    30       P1  7948  0.71
      L1  H    16    46       P1 10747  0.91
      P1  H  6896  6909       L1     4  0.88
      P1  H  7997  8010       L1     3  0.97

> <Gold.Chemscore.Hbond.Weighted>
-14.1787

> <Gold.Chemscore.Metal.Weighted>
-0.0000

> <Gold.Chemscore.Lipo.Weighted>
-8.2275

> <Gold.Chemscore.Internal_Hbond.Weighted>
0.0000

> <Gold.Chemscore.DEClash.Weighted>
0.3900

> <Gold.Chemscore.DEInternal.Weighted>
3.7866

> <Gold.Chemscore.Rot.Weighted>
2.5600

> <Gold.Chemscore.Internal.Correction.Weighted>
   9.000000E+99

> <Gold.Protein.RotatedTorsions>
[ 6907 6896 6895 6894 ] final  172.74 input  -60.11 | X-H torsion
[ 7974 7965 7964 7962 ] final  -86.42 input  175.53 | X-H torsion
[ 8008 7997 7996 7995 ] final   17.06 input   59.86 | X-H torsion
[ 10167 10162 10161 10158 ] final  -92.26 input  -65.29 | X-H torsion
[ 10718 10713 10712 10709 ] final -105.62 input   66.30 | X-H torsion
[ 10763 10752 10751 10750 ] final -162.08 input  -60.55 | X-H torsion
[ 11005 11000 10999 10996 ] final  113.34 input  -57.11 | X-H torsion

> <Gold.Protein.ActiveResidues>
 VAL166  LYS551  ARG553  GLY616  TRP617  ASP618  TYR619  PRO620  LYS621  CYS622 
 ASP623  PHE694  ASN695  SER759  ASP760  ASP761  ALA762  ILE779  LEU786  VAL792 
 PHE793  MET794  SER795  GLU796  ALA797  LYS798  CYS799  TRP800  GLU811  SER814 

> <Gold.Protein.RotatedAtoms>
  151.7794  133.3348  159.3466 H   0  0  0  0  0  0  0  0  0  0  0  0  # atno 6907 bound_to 6896
  150.7432  134.5945  159.6014 H   0  0  0  0  0  0  0  0  0  0  0  0  # atno 6908 bound_to 6896
  152.3287  134.7289  160.0346 H   0  0  0  0  0  0  0  0  0  0  0  0  # atno 6909 bound_to 6896
  145.4802  140.9557  143.1869 H   0  0  0  0  0  0  0  0  0  0  0  0  # atno 7974 bound_to 7965
  154.8859  140.2980  155.5398 H   0  0  0  0  0  0  0  0  0  0  0  0  # atno 8008 bound_to 7997
  156.3021  140.2433  156.3802 H   0  0  0  0  0  0  0  0  0  0  0  0  # atno 8009 bound_to 7997
  154.8669  140.0403  157.1689 H   0  0  0  0  0  0  0  0  0  0  0  0  # atno 8010 bound_to 7997
  140.3365  143.2965  151.9883 H   0  0  0  0  0  0  0  0  0  0  0  0  # atno 10167 bound_to 10162
  156.0354  130.5572  150.7565 H   0  0  0  0  0  0  0  0  0  0  0  0  # atno 10718 bound_to 10713
  154.7246  135.3033  154.8991 H   0  0  0  0  0  0  0  0  0  0  0  0  # atno 10763 bound_to 10752
  153.9852  135.6725  153.4756 H   0  0  0  0  0  0  0  0  0  0  0  0  # atno 10764 bound_to 10752
  153.0864  135.4982  154.8524 H   0  0  0  0  0  0  0  0  0  0  0  0  # atno 10765 bound_to 10752
  139.8950  134.9548  156.6723 H   0  0  0  0  0  0  0  0  0  0  0  0  # atno 11005 bound_to 11000
  144.7893  139.6360  143.7120 LP  0  0  0  0  0  0  0  0  0  0  0  0  # atno 17320 bound_to 7965
  146.2345  139.5879  142.9533 LP  0  0  0  0  0  0  0  0  0  0  0  0  # atno 17321 bound_to 7965
  139.4847  144.6192  151.7288 LP  0  0  0  0  0  0  0  0  0  0  0  0  # atno 17342 bound_to 10162
  140.5348  144.0673  150.6066 LP  0  0  0  0  0  0  0  0  0  0  0  0  # atno 17343 bound_to 10162
  157.5096  131.0924  151.0215 LP  0  0  0  0  0  0  0  0  0  0  0  0  # atno 17370 bound_to 10713
  157.0574  130.5811  149.5380 LP  0  0  0  0  0  0  0  0  0  0  0  0  # atno 17371 bound_to 10713
  140.7363  133.9015  155.8246 LP  0  0  0  0  0  0  0  0  0  0  0  0  # atno 17394 bound_to 11000
  141.0113  134.1016  157.4218 LP  0  0  0  0  0  0  0  0  0  0  0  0  # atno 17395 bound_to 11000

$$$$
