AV-unprocessed.smi:1109|AV-procd|sdf|4789|dock10
  -GOLD-   22720 3333D 1   1.00000     0.00000
 Structure written by MMmdl.
 45 46  0  0  0  0  0  0  0  0  1 V2000
  150.3267  145.1077  159.8529 C   0  0  0  0  0  0  0  0  0  0  0  0
  150.7578  144.4684  158.6650 O   0  0  0  0  0  0  0  0  0  0  0  0
  152.1660  144.3006  158.6167 C   0  0  0  0  0  0  0  0  0  0  0  0
  152.6121  143.3841  159.7666 C   0  0  0  0  0  0  0  0  0  0  0  0
  152.6208  141.9741  159.3630 N   0  0  0  0  0  0  0  0  0  0  0  0
  152.1124  141.7551  158.0971 N   0  0  0  0  0  0  0  0  0  0  0  0
  152.0475  140.5610  157.6098 C   0  0  0  0  0  0  0  0  0  0  0  0
  151.5438  140.2763  156.2272 C   0  0  0  0  0  0  0  0  0  0  0  0
  152.3763  140.1561  155.3264 O   0  0  0  0  0  0  0  0  0  0  0  0
  150.1976  140.2270  155.9708 N   0  0  0  0  0  0  0  0  0  0  0  0
  149.1634  139.9129  156.9841 C   0  0  0  0  0  0  0  0  0  0  0  0
  149.2654  138.5134  157.6197 C   0  0  0  0  0  0  0  0  0  0  0  0
  150.2102  137.6728  157.1853 N   0  0  0  0  0  0  0  0  0  0  0  0
  148.4753  138.1917  158.5035 O   0  0  0  0  0  0  0  0  0  0  0  0
  149.6620  140.2714  154.5863 C   0  0  0  0  0  0  0  0  0  0  0  0
  148.7323  141.4759  154.3138 C   0  0  0  0  0  0  0  0  0  0  0  0
  147.3856  140.8886  153.8808 C   0  0  0  0  0  0  0  0  0  0  0  0
  147.7261  139.5206  153.2945 C   0  0  0  0  0  0  0  0  0  0  0  0
  148.8822  139.0081  154.1543 C   0  0  0  0  0  0  0  0  0  0  0  0
  152.5274  139.4259  158.3817 C   0  0  0  0  0  0  0  0  0  0  0  0
  153.0429  139.6535  159.6100 C   0  0  0  0  0  0  0  0  0  0  0  0
  153.1259  141.0003  160.1775 C   0  0  0  0  0  0  0  0  0  0  0  0
  153.6083  141.2370  161.2845 O   0  0  0  0  0  0  0  0  0  0  0  0
  149.2419  145.2134  159.8392 H   0  0  0  0  0  0  0  0  0  0  0  0
  150.7611  146.1039  159.9439 H   0  0  0  0  0  0  0  0  0  0  0  0
  150.5972  144.5252  160.7344 H   0  0  0  0  0  0  0  0  0  0  0  0
  152.4705  143.8851  157.6548 H   0  0  0  0  0  0  0  0  0  0  0  0
  152.6500  145.2729  158.7180 H   0  0  0  0  0  0  0  0  0  0  0  0
  153.6028  143.6842  160.1123 H   0  0  0  0  0  0  0  0  0  0  0  0
  151.9541  143.5260  160.6260 H   0  0  0  0  0  0  0  0  0  0  0  0
  149.2267  140.6439  157.7916 H   0  0  0  0  0  0  0  0  0  0  0  0
  148.1557  140.0543  156.5919 H   0  0  0  0  0  0  0  0  0  0  0  0
  150.2946  136.7538  157.5946 H   0  0  0  0  0  0  0  0  0  0  0  0
  150.8404  137.9629  156.4518 H   0  0  0  0  0  0  0  0  0  0  0  0
  150.4939  140.3598  153.8851 H   0  0  0  0  0  0  0  0  0  0  0  0
  148.6235  142.1448  155.1683 H   0  0  0  0  0  0  0  0  0  0  0  0
  149.1460  142.0734  153.5004 H   0  0  0  0  0  0  0  0  0  0  0  0
  146.7397  140.7627  154.7504 H   0  0  0  0  0  0  0  0  0  0  0  0
  146.8600  141.5282  153.1714 H   0  0  0  0  0  0  0  0  0  0  0  0
  146.8732  138.8413  153.2908 H   0  0  0  0  0  0  0  0  0  0  0  0
  148.0618  139.6391  152.2635 H   0  0  0  0  0  0  0  0  0  0  0  0
  149.5138  138.3075  153.6072 H   0  0  0  0  0  0  0  0  0  0  0  0
  148.4751  138.4610  155.0040 H   0  0  0  0  0  0  0  0  0  0  0  0
  152.4723  138.4206  157.9893 H   0  0  0  0  0  0  0  0  0  0  0  0
  153.4020  138.8182  160.1930 H   0  0  0  0  0  0  0  0  0  0  0  0
  1  2  1  0  0  0  0
  1 24  1  0  0  0  0
  1 25  1  0  0  0  0
  1 26  1  0  0  0  0
  2  3  1  0  0  0  0
  3  4  1  0  0  0  0
  3 27  1  0  0  0  0
  3 28  1  0  0  0  0
  4  5  1  0  0  0  0
  4 29  1  0  0  0  0
  4 30  1  0  0  0  0
  5 22  1  0  0  0  0
  5  6  1  0  0  0  0
  6  7  2  0  0  0  0
  7  8  1  0  0  0  0
  7 20  1  0  0  0  0
  8  9  2  0  0  0  0
  8 10  1  0  0  0  0
 10 11  1  0  0  0  0
 10 15  1  0  0  0  0
 11 12  1  0  0  0  0
 11 31  1  0  0  0  0
 11 32  1  0  0  0  0
 12 13  1  0  0  0  0
 12 14  2  0  0  0  0
 13 33  1  0  0  0  0
 13 34  1  0  0  0  0
 15 19  1  0  0  0  0
 15 16  1  0  0  0  0
 15 35  1  0  0  0  0
 16 17  1  0  0  0  0
 16 36  1  0  0  0  0
 16 37  1  0  0  0  0
 17 18  1  0  0  0  0
 17 38  1  0  0  0  0
 17 39  1  0  0  0  0
 18 19  1  0  0  0  0
 18 40  1  0  0  0  0
 18 41  1  0  0  0  0
 19 42  1  0  0  0  0
 19 43  1  0  0  0  0
 20 21  2  0  0  0  0
 20 44  1  0  0  0  0
 21 22  1  0  0  0  0
 21 45  1  0  0  0  0
 22 23  2  0  0  0  0
M  END
> <s_m_source_file>
AV-unprocessed.smi

> <i_m_source_file_index>
1109

> <i_lp_mmshare_version>
43012

> <i_f3d_flags>
0

> <s_epik_input>
W0NIM11PW0NIMl1bQ0gyXW4xbmMoW2NIXVtjSF1jMT1PKUMoPU8pTihbQ0gyXUMoPU8pW05IMl0pW0NIXTJbQ0gyXVtDSDJdW0NIMl1bQ0gyXTI=

> <s_epik_cmdline>
J2VwaWtfcHl0aG9uJywgJy1waCcsICc3LjAnLCAnLXRuJywgJzgnLCAnLW1hJywgJzIwMCcsICctbWV0YWxfYmluZGluZycsICctaW1hZScsICc8aW5maWxlLm1hZT4nLCAnLW9tYWUnLCAnPG91dGZpbGUubWFlPic=

> <r_lp_tautomer_probability>
1

> <r_epik_Ionization_Penalty>
6.63696e-08

> <r_epik_Ionization_Penalty_Charging>
1.13312e-09

> <r_epik_Ionization_Penalty_Neutral>
6.52365e-08

> <r_epik_State_Penalty>
-0

> <r_epik_Charging_Adjusted_Penalty>
1.13312e-09

> <i_epik_Tot_Q>
0

> <i_epik_Tot_abs_Q>
0

> <r_epik_Metal_State_Penalty>
-0

> <b_epik_Metal_Only>
0

> <s_lp_Force_Field>
OPLS_2005

> <r_lp_Energy>
53.0262

> <b_lp_Chiralities_Consistent>
1

> <s_lp_Variant>
AV-unprocessed.smi:1109-1

> <Gold.Version>
5.8.1

> <Gold.Id.Protein>
6NUR|6NUR_protein|mol2

> <Gold.PLP.Fitness>
43.5935

> <Gold.PLP.PLP>
-43.0765

> <Gold.PLP.part.hbond>
-2.7807

> <Gold.PLP.part.metal>
0.0000

> <Gold.PLP.part.buried>
0.1433

> <Gold.PLP.part.nonpolar>
-39.2966

> <Gold.PLP.part.repulsive>
0.1636

> <Gold.PLP.ligand.clash>
0.0000

> <Gold.PLP.ligand.torsion>
1.9862

> <Gold.PLP.Chemscore.Hbond>
1.3235

> <Gold.PLP.Chemscore.CHOScore>
0.0000

> <Gold.PLP.Chemscore.Metal>
0.0000

> <Gold.Chemscore.Hbonds>
donor molecule, donor type, donor heavy atom, donor atom, acceptor molecule, acceptor atom, score
      P1  H  7989  7998       L1     9  0.54
      P1  H  7997  8009       L1     9  0.76

> <Gold.PLP.Chemscore.Internal.Correction>
0.5189

> <Gold.Rescore>
     Score         DG    S(hbond)    S(metal)    S(lipo)     H(rot)  DE(clash)    DE(int)     intcor
      9.74     -12.93       1.09        0.00      89.57       2.61       0.22       2.97       ----

> <Gold.Chemscore.Fitness>
9.7395

> <Gold.Chemscore.DG>
-12.9320

> <Gold.Chemscore.ZeroCoef>
-5.4800

> <Gold.Chemscore.Hbond>
1.0906

> <Gold.Chemscore.Metal>
0.0000

> <Gold.Chemscore.Lipo>
89.5717

> <Gold.Chemscore.Internal_Hbond>
0.0000

> <Gold.Chemscore.DEClash>
0.2186

> <Gold.Chemscore.DEInternal>
2.9739

> <Gold.Chemscore.Rot>
2.6057

> <Gold.Chemscore.Internal.Correction>
   9.000000E+99

> <Gold.Chemscore.Hbonds>
donor molecule, donor type, donor heavy atom, donor atom, acceptor molecule, acceptor atom, score
      P1  H  7989  7998       L1     9  0.42
      P1  H  7997  8009       L1     9  0.66

> <Gold.Chemscore.Hbond.Weighted>
-3.6428

> <Gold.Chemscore.Metal.Weighted>
-0.0000

> <Gold.Chemscore.Lipo.Weighted>
-10.4799

> <Gold.Chemscore.Internal_Hbond.Weighted>
0.0000

> <Gold.Chemscore.DEClash.Weighted>
0.2186

> <Gold.Chemscore.DEInternal.Weighted>
2.9739

> <Gold.Chemscore.Rot.Weighted>
6.6707

> <Gold.Chemscore.Internal.Correction.Weighted>
   9.000000E+99

> <Gold.Protein.RotatedTorsions>
[ 6907 6896 6895 6894 ] final   49.13 input  -60.11 | X-H torsion
[ 7974 7965 7964 7962 ] final  158.48 input  175.53 | X-H torsion
[ 8008 7997 7996 7995 ] final -143.20 input   59.86 | X-H torsion
[ 10167 10162 10161 10158 ] final    3.65 input  -65.29 | X-H torsion
[ 10718 10713 10712 10709 ] final  168.00 input   66.30 | X-H torsion
[ 10763 10752 10751 10750 ] final -113.92 input  -60.55 | X-H torsion
[ 11005 11000 10999 10996 ] final  118.43 input  -57.11 | X-H torsion

> <Gold.Protein.ActiveResidues>
 VAL166  LYS551  ARG553  GLY616  TRP617  ASP618  TYR619  PRO620  LYS621  CYS622 
 ASP623  PHE694  ASN695  SER759  ASP760  ASP761  ALA762  ILE779  LEU786  VAL792 
 PHE793  MET794  SER795  GLU796  ALA797  LYS798  CYS799  TRP800  GLU811  SER814 

> <Gold.Protein.RotatedAtoms>
  152.2873  134.7761  160.0384 H   0  0  0  0  0  0  0  0  0  0  0  0  # atno 6907 bound_to 6896
  151.8319  133.3405  159.3624 H   0  0  0  0  0  0  0  0  0  0  0  0  # atno 6908 bound_to 6896
  150.7215  134.5403  159.5788 H   0  0  0  0  0  0  0  0  0  0  0  0  # atno 6909 bound_to 6896
  144.7843  139.7484  143.6247 H   0  0  0  0  0  0  0  0  0  0  0  0  # atno 7974 bound_to 7965
  155.5067  140.0580  157.2930 H   0  0  0  0  0  0  0  0  0  0  0  0  # atno 8008 bound_to 7997
  154.4567  140.1976  156.0309 H   0  0  0  0  0  0  0  0  0  0  0  0  # atno 8009 bound_to 7997
  156.0812  140.3247  155.7700 H   0  0  0  0  0  0  0  0  0  0  0  0  # atno 8010 bound_to 7997
  140.6575  143.7389  150.7679 H   0  0  0  0  0  0  0  0  0  0  0  0  # atno 10167 bound_to 10162
  157.0434  131.0293  151.2705 H   0  0  0  0  0  0  0  0  0  0  0  0  # atno 10718 bound_to 10713
  154.8417  135.4437  154.1424 H   0  0  0  0  0  0  0  0  0  0  0  0  # atno 10763 bound_to 10752
  153.2606  135.6936  153.7589 H   0  0  0  0  0  0  0  0  0  0  0  0  # atno 10764 bound_to 10752
  153.6866  135.3394  155.3167 H   0  0  0  0  0  0  0  0  0  0  0  0  # atno 10765 bound_to 10752
  139.9109  134.9620  156.7502 H   0  0  0  0  0  0  0  0  0  0  0  0  # atno 11005 bound_to 11000
  146.2068  139.5397  142.9707 LP  0  0  0  0  0  0  0  0  0  0  0  0  # atno 17320 bound_to 7965
  145.5963  141.0362  143.2042 LP  0  0  0  0  0  0  0  0  0  0  0  0  # atno 17321 bound_to 7965
  140.1052  143.4750  152.2402 LP  0  0  0  0  0  0  0  0  0  0  0  0  # atno 17342 bound_to 10162
  139.5801  144.7506  151.3663 LP  0  0  0  0  0  0  0  0  0  0  0  0  # atno 17343 bound_to 10162
  157.5087  130.7925  149.7681 LP  0  0  0  0  0  0  0  0  0  0  0  0  # atno 17370 bound_to 10713
  156.0031  130.3870  150.2532 LP  0  0  0  0  0  0  0  0  0  0  0  0  # atno 17371 bound_to 10713
  140.6779  133.9501  155.7893 LP  0  0  0  0  0  0  0  0  0  0  0  0  # atno 17394 bound_to 11000
  141.0531  134.0456  157.3758 LP  0  0  0  0  0  0  0  0  0  0  0  0  # atno 17395 bound_to 11000

$$$$
