AV-unprocessed.smi:3268|AV-procd|sdf|12508|dock1
  -GOLD-   2272018413D 1   1.00000     0.00000
 Structure written by MMmdl.
 40 41  0  0  0  0  0  0  0  0  2 V2000
  152.4306  138.2086  154.6289 C   0  0  0  0  0  0  0  0  0  0  0  0
  151.0416  137.6249  154.3014 C   0  0  2  0  0  0  0  0  0  0  0  0
  149.9783  138.7249  154.1668 C   0  0  0  0  0  0  0  0  0  0  0  0
  150.2352  139.8844  154.4925 O   0  0  0  0  0  0  0  0  0  0  0  0
  148.7829  138.3498  153.6838 N   0  0  0  0  0  0  0  0  0  0  0  0
  147.6462  139.2412  153.4805 C   0  0  0  0  0  0  0  0  0  0  0  0
  146.7193  138.7332  152.3582 C   0  0  0  0  0  0  0  0  0  0  0  0
  146.4055  137.2885  152.4939 N   0  3  0  0  0  0  0  0  0  0  0  0
  145.8462  136.9586  153.8315 C   0  0  0  0  0  0  0  0  0  0  0  0
  145.6498  135.4422  153.9978 C   0  0  0  0  0  0  0  0  0  0  0  0
  144.7613  134.8772  152.8826 C   0  0  0  0  0  0  0  0  0  0  0  0
  145.3410  135.2524  151.5130 C   0  0  0  0  0  0  0  0  0  0  0  0
  145.5421  136.7729  151.3971 C   0  0  0  0  0  0  0  0  0  0  0  0
  150.6139  136.6272  155.2752 N   0  0  0  0  0  0  0  0  0  0  0  0
  149.4626  135.9577  155.3660 C   0  0  0  0  0  0  0  0  0  0  0  0
  149.3891  135.1502  156.4147 N   0  0  0  0  0  0  0  0  0  0  0  0
  150.6095  135.3955  156.9772 C   0  0  0  0  0  0  0  0  0  0  0  0
  151.3775  136.2805  156.3420 N   0  0  0  0  0  0  0  0  0  0  0  0
  152.7525  138.9097  153.8581 H   0  0  0  0  0  0  0  0  0  0  0  0
  153.1804  137.4189  154.6840 H   0  0  0  0  0  0  0  0  0  0  0  0
  152.4410  138.7406  155.5813 H   0  0  0  0  0  0  0  0  0  0  0  0
  151.1251  137.1136  153.3407 H   0  0  0  0  0  0  0  0  0  0  0  0
  148.6521  137.3778  153.4423 H   0  0  0  0  0  0  0  0  0  0  0  0
  147.1119  139.3043  154.4279 H   0  0  0  0  0  0  0  0  0  0  0  0
  148.0015  140.2485  153.2563 H   0  0  0  0  0  0  0  0  0  0  0  0
  145.7886  139.3007  152.3991 H   0  0  0  0  0  0  0  0  0  0  0  0
  147.1529  138.9293  151.3763 H   0  0  0  0  0  0  0  0  0  0  0  0
  146.5197  137.3157  154.6118 H   0  0  0  0  0  0  0  0  0  0  0  0
  144.8969  137.4793  153.9690 H   0  0  0  0  0  0  0  0  0  0  0  0
  146.6197  134.9431  153.9823 H   0  0  0  0  0  0  0  0  0  0  0  0
  145.2077  135.2278  154.9713 H   0  0  0  0  0  0  0  0  0  0  0  0
  144.6812  133.7936  152.9749 H   0  0  0  0  0  0  0  0  0  0  0  0
  143.7503  135.2753  152.9781 H   0  0  0  0  0  0  0  0  0  0  0  0
  146.2948  134.7438  151.3659 H   0  0  0  0  0  0  0  0  0  0  0  0
  144.6780  134.9028  150.7206 H   0  0  0  0  0  0  0  0  0  0  0  0
  144.5761  137.2798  151.4248 H   0  0  0  0  0  0  0  0  0  0  0  0
  145.9862  136.9958  150.4278 H   0  0  0  0  0  0  0  0  0  0  0  0
  148.6601  136.0647  154.6510 H   0  0  0  0  0  0  0  0  0  0  0  0
  150.9396  134.9121  157.8849 H   0  0  0  0  0  0  0  0  0  0  0  0
  147.2868  136.7985  152.4327 H   0  0  0  0  0  0  0  0  0  0  0  0
  1  2  1  0  0  0  0
  1 19  1  0  0  0  0
  1 20  1  0  0  0  0
  1 21  1  0  0  0  0
  2  3  1  0  0  0  0
  2 14  1  0  0  0  0
  2 22  1  0  0  0  0
  3  4  2  0  0  0  0
  3  5  1  0  0  0  0
  5  6  1  0  0  0  0
  5 23  1  0  0  0  0
  6  7  1  0  0  0  0
  6 24  1  0  0  0  0
  6 25  1  0  0  0  0
  7  8  1  0  0  0  0
  7 26  1  0  0  0  0
  7 27  1  0  0  0  0
  8 13  1  0  0  0  0
  8  9  1  0  0  0  0
  8 40  1  0  0  0  0
  9 10  1  0  0  0  0
  9 28  1  0  0  0  0
  9 29  1  0  0  0  0
 10 11  1  0  0  0  0
 10 30  1  0  0  0  0
 10 31  1  0  0  0  0
 11 12  1  0  0  0  0
 11 32  1  0  0  0  0
 11 33  1  0  0  0  0
 12 13  1  0  0  0  0
 12 34  1  0  0  0  0
 12 35  1  0  0  0  0
 13 36  1  0  0  0  0
 13 37  1  0  0  0  0
 14 18  1  0  0  0  0
 14 15  1  0  0  0  0
 15 16  2  0  0  0  0
 15 38  1  0  0  0  0
 16 17  1  0  0  0  0
 17 18  2  0  0  0  0
 17 39  1  0  0  0  0
M  CHG  1   8   1
M  END
> <s_m_source_file>
AV-unprocessed.smi

> <i_m_source_file_index>
3268

> <i_lp_mmshare_version>
43012

> <i_f3d_flags>
0

> <s_epik_input>
bjFbY0hdbltjSF1uMVtDQEhdKFtDSDNdKUMoPU8pW05IXVtDSDJdW0NIMl1OMltDSDJdW0NIMl1bQ0gyXVtDSDJdW0NIMl0y

> <s_epik_cmdline>
J2VwaWtfcHl0aG9uJywgJy1waCcsICc3LjAnLCAnLXRuJywgJzgnLCAnLW1hJywgJzIwMCcsICctbWV0YWxfYmluZGluZycsICctaW1hZScsICc8aW5maWxlLm1hZT4nLCAnLW9tYWUnLCAnPG91dGZpbGUubWFlPic=

> <r_lp_tautomer_probability>
1

> <r_epik_Ionization_Penalty>
0.00266407

> <r_epik_Ionization_Penalty_Charging>
0.00265606

> <r_epik_Ionization_Penalty_Neutral>
8.01095e-06

> <r_epik_State_Penalty>
0.00184955

> <r_epik_Charging_Adjusted_Penalty>
0.00450561

> <i_epik_Tot_Q>
1

> <i_epik_Tot_abs_Q>
1

> <r_epik_Metal_State_Penalty>
-0

> <b_epik_Metal_Only>
0

> <s_lp_Force_Field>
OPLS_2005

> <r_lp_Energy>
22.0187

> <b_lp_Chiralities_Consistent>
1

> <s_lp_Variant>
AV-unprocessed.smi:3268-1

> <Gold.Version>
5.8.1

> <Gold.Id.Protein>
6NUR|6NUR_protein|mol2

> <Gold.PLP.Fitness>
47.8231

> <Gold.PLP.PLP>
-30.4498

> <Gold.PLP.part.hbond>
-5.0000

> <Gold.PLP.part.metal>
0.0000

> <Gold.PLP.part.buried>
-0.2778

> <Gold.PLP.part.nonpolar>
-25.3843

> <Gold.PLP.part.repulsive>
0.2674

> <Gold.PLP.ligand.clash>
0.0000

> <Gold.PLP.ligand.torsion>
0.3979

> <Gold.PLP.Chemscore.Hbond>
5.0000

> <Gold.PLP.Chemscore.CHOScore>
1.0000

> <Gold.PLP.Chemscore.Metal>
0.0000

> <Gold.Chemscore.Hbonds>
donor molecule, donor type, donor heavy atom, donor atom, acceptor molecule, acceptor atom, score
      L1  H     5    23       P1  7948  0.72
      L1  H     8    40       P1  7948  2.00
      P1  H  7989  7998       L1     4  1.00
      P1  H 10752 10764       L1    18  0.16
      L1  C    15    38       P1  7948  0.30

> <Gold.PLP.Chemscore.Internal.Correction>
0.1691

> <Gold.Rescore>
     Score         DG    S(hbond)    S(metal)    S(lipo)     H(rot)  DE(clash)    DE(int)     intcor
     13.62     -15.49       3.21        0.00      50.10       2.57       0.56       1.31       ----

> <Gold.Chemscore.Fitness>
13.6246

> <Gold.Chemscore.DG>
-15.4934

> <Gold.Chemscore.ZeroCoef>
-5.4800

> <Gold.Chemscore.Hbond>
3.2120

> <Gold.Chemscore.Metal>
0.0000

> <Gold.Chemscore.Lipo>
50.1025

> <Gold.Chemscore.Internal_Hbond>
0.0000

> <Gold.Chemscore.DEClash>
0.5611

> <Gold.Chemscore.DEInternal>
1.3077

> <Gold.Chemscore.Rot>
2.5690

> <Gold.Chemscore.Internal.Correction>
   9.000000E+99

> <Gold.Chemscore.Hbonds>
donor molecule, donor type, donor heavy atom, donor atom, acceptor molecule, acceptor atom, score
      L1  H     5    23       P1  7948  0.71
      L1  H     8    40       P1  7948  1.00
      P1  H  7989  7998       L1     4  0.94
      P1  H 10752 10764       L1    18  0.03

> <Gold.Chemscore.Hbond.Weighted>
-10.7280

> <Gold.Chemscore.Metal.Weighted>
-0.0000

> <Gold.Chemscore.Lipo.Weighted>
-5.8620

> <Gold.Chemscore.Internal_Hbond.Weighted>
0.0000

> <Gold.Chemscore.DEClash.Weighted>
0.5611

> <Gold.Chemscore.DEInternal.Weighted>
1.3077

> <Gold.Chemscore.Rot.Weighted>
6.5766

> <Gold.Chemscore.Internal.Correction.Weighted>
   9.000000E+99

> <Gold.Protein.RotatedTorsions>
[ 6907 6896 6895 6894 ] final -104.01 input  -60.11 | X-H torsion
[ 7974 7965 7964 7962 ] final -118.55 input  175.53 | X-H torsion
[ 8008 7997 7996 7995 ] final   94.13 input   59.86 | X-H torsion
[ 10167 10162 10161 10158 ] final   -2.96 input  -65.29 | X-H torsion
[ 10718 10713 10712 10709 ] final -150.64 input   66.30 | X-H torsion
[ 10763 10752 10751 10750 ] final  -20.74 input  -60.55 | X-H torsion
[ 11005 11000 10999 10996 ] final -159.77 input  -57.11 | X-H torsion

> <Gold.Protein.ActiveResidues>
 VAL166  LYS551  ARG553  GLY616  TRP617  ASP618  TYR619  PRO620  LYS621  CYS622 
 ASP623  PHE694  ASN695  SER759  ASP760  ASP761  ALA762  ILE779  LEU786  VAL792 
 PHE793  MET794  SER795  GLU796  ALA797  LYS798  CYS799  TRP800  GLU811  SER814 

> <Gold.Protein.RotatedAtoms>
  150.7267  134.0343  159.3743 H   0  0  0  0  0  0  0  0  0  0  0  0  # atno 6907 bound_to 6896
  151.8313  135.0618  160.0446 H   0  0  0  0  0  0  0  0  0  0  0  0  # atno 6908 bound_to 6896
  152.2931  133.5545  159.5606 H   0  0  0  0  0  0  0  0  0  0  0  0  # atno 6909 bound_to 6896
  145.0726  140.8370  143.4087 H   0  0  0  0  0  0  0  0  0  0  0  0  # atno 7974 bound_to 7965
  156.0545  140.3304  155.7389 H   0  0  0  0  0  0  0  0  0  0  0  0  # atno 8008 bound_to 7997
  155.5550  140.0614  157.2859 H   0  0  0  0  0  0  0  0  0  0  0  0  # atno 8009 bound_to 7997
  154.4451  140.1887  156.0713 H   0  0  0  0  0  0  0  0  0  0  0  0  # atno 8010 bound_to 7997
  140.6872  143.6595  150.8279 H   0  0  0  0  0  0  0  0  0  0  0  0  # atno 10167 bound_to 10162
  156.4487  130.8157  151.2388 H   0  0  0  0  0  0  0  0  0  0  0  0  # atno 10718 bound_to 10713
  153.6252  135.6991  153.5296 H   0  0  0  0  0  0  0  0  0  0  0  0  # atno 10763 bound_to 10752
  153.2905  135.4158  155.1162 H   0  0  0  0  0  0  0  0  0  0  0  0  # atno 10764 bound_to 10752
  154.8534  135.3624  154.5793 H   0  0  0  0  0  0  0  0  0  0  0  0  # atno 10765 bound_to 10752
  140.6389  134.4572  157.5232 H   0  0  0  0  0  0  0  0  0  0  0  0  # atno 11005 bound_to 11000
  145.1274  139.2654  143.5557 LP  0  0  0  0  0  0  0  0  0  0  0  0  # atno 17320 bound_to 7965
  146.3529  140.0916  142.8612 LP  0  0  0  0  0  0  0  0  0  0  0  0  # atno 17321 bound_to 7965
  140.0304  143.5450  152.2762 LP  0  0  0  0  0  0  0  0  0  0  0  0  # atno 17342 bound_to 10162
  139.6240  144.7634  151.2678 LP  0  0  0  0  0  0  0  0  0  0  0  0  # atno 17343 bound_to 10162
  157.7503  131.0145  150.3465 LP  0  0  0  0  0  0  0  0  0  0  0  0  # atno 17370 bound_to 10713
  156.3839  130.3885  149.7081 LP  0  0  0  0  0  0  0  0  0  0  0  0  # atno 17371 bound_to 10713
  139.9087  134.8391  156.1607 LP  0  0  0  0  0  0  0  0  0  0  0  0  # atno 17394 bound_to 11000
  141.0621  133.6837  156.1973 LP  0  0  0  0  0  0  0  0  0  0  0  0  # atno 17395 bound_to 11000

$$$$
