AV-unprocessed.smi:1718|AV-procd|sdf|6923|dock2
  -GOLD-   22720 8133D 1   1.00000     0.00000
 Structure written by MMmdl.
 40 41  0  0  0  0  0  0  0  0  1 V2000
  148.1232  138.6341  157.6448 C   0  0  0  0  0  0  0  0  0  0  0  0
  149.5229  138.2388  158.1388 C   0  0  1  0  0  0  0  0  0  0  0  0
  150.0769  139.3703  158.8050 O   0  0  0  0  0  0  0  0  0  0  0  0
  150.3674  140.4892  157.9747 C   0  0  0  0  0  0  0  0  0  0  0  0
  151.0185  141.5821  158.8305 C   0  0  2  0  0  0  0  0  0  0  0  0
  151.5222  142.7847  158.0369 C   0  0  0  0  0  0  0  0  0  0  0  0
  152.5404  143.3674  158.9907 C   0  0  0  0  0  0  0  0  0  0  0  0
  153.1490  142.1167  159.6243 C   0  0  0  0  0  0  0  0  0  0  0  0
  152.1794  141.0799  159.4831 O   0  0  0  0  0  0  0  0  0  0  0  0
  149.4636  137.0336  159.0918 C   0  0  0  0  0  0  0  0  0  0  0  0
  150.4479  136.3034  159.2067 O   0  0  0  0  0  0  0  0  0  0  0  0
  148.2973  136.8721  159.7478 N   0  0  0  0  0  0  0  0  0  0  0  0
  147.9070  135.8544  160.6342 C   0  0  0  0  0  0  0  0  0  0  0  0
  148.0140  134.5233  160.3830 C   0  0  0  0  0  0  0  0  0  0  0  0
  147.5746  133.5201  161.3382 C   0  0  0  0  0  0  0  0  0  0  0  0
  147.7733  132.0346  161.0801 C   0  0  0  0  0  0  0  0  0  0  0  0
  148.6055  131.4950  161.9719 F   0  0  0  0  0  0  0  0  0  0  0  0
  146.6048  131.4005  161.1658 F   0  0  0  0  0  0  0  0  0  0  0  0
  148.2714  131.8232  159.8615 F   0  0  0  0  0  0  0  0  0  0  0  0
  147.0604  133.9773  162.4950 C   0  0  0  0  0  0  0  0  0  0  0  0
  146.9258  135.3436  162.7515 N   0  0  0  0  0  0  0  0  0  0  0  0
  147.3110  136.3186  161.8979 C   0  0  0  0  0  0  0  0  0  0  0  0
  147.1563  137.5023  162.1965 O   0  0  0  0  0  0  0  0  0  0  0  0
  146.5144  135.6062  163.6356 H   0  0  0  0  0  0  0  0  0  0  0  0
  147.6348  137.8045  157.1321 H   0  0  0  0  0  0  0  0  0  0  0  0
  148.1828  139.4658  156.9423 H   0  0  0  0  0  0  0  0  0  0  0  0
  147.4794  138.9464  158.4679 H   0  0  0  0  0  0  0  0  0  0  0  0
  150.1358  137.9963  157.2682 H   0  0  0  0  0  0  0  0  0  0  0  0
  151.0524  140.2057  157.1751 H   0  0  0  0  0  0  0  0  0  0  0  0
  149.4569  140.8664  157.5064 H   0  0  0  0  0  0  0  0  0  0  0  0
  150.3231  141.9169  159.6021 H   0  0  0  0  0  0  0  0  0  0  0  0
  152.0120  142.4630  157.1167 H   0  0  0  0  0  0  0  0  0  0  0  0
  150.7283  143.4856  157.7772 H   0  0  0  0  0  0  0  0  0  0  0  0
  153.2799  143.9983  158.4970 H   0  0  0  0  0  0  0  0  0  0  0  0
  152.0359  143.9651  159.7512 H   0  0  0  0  0  0  0  0  0  0  0  0
  154.0553  141.8181  159.0969 H   0  0  0  0  0  0  0  0  0  0  0  0
  153.4053  142.2756  160.6721 H   0  0  0  0  0  0  0  0  0  0  0  0
  147.6058  137.5955  159.6101 H   0  0  0  0  0  0  0  0  0  0  0  0
  148.4106  134.1650  159.4472 H   0  0  0  0  0  0  0  0  0  0  0  0
  146.7216  133.3448  163.3023 H   0  0  0  0  0  0  0  0  0  0  0  0
  1  2  1  0  0  0  0
  1 25  1  0  0  0  0
  1 26  1  0  0  0  0
  1 27  1  0  0  0  0
  2  3  1  0  0  0  0
  2 10  1  0  0  0  0
  2 28  1  0  0  0  0
  3  4  1  0  0  0  0
  4  5  1  0  0  0  0
  4 29  1  0  0  0  0
  4 30  1  0  0  0  0
  5  9  1  0  0  0  0
  5  6  1  0  0  0  0
  5 31  1  0  0  0  0
  6  7  1  0  0  0  0
  6 32  1  0  0  0  0
  6 33  1  0  0  0  0
  7  8  1  0  0  0  0
  7 34  1  0  0  0  0
  7 35  1  0  0  0  0
  8  9  1  0  0  0  0
  8 36  1  0  0  0  0
  8 37  1  0  0  0  0
 10 11  2  0  0  0  0
 10 12  1  0  0  0  0
 12 13  1  0  0  0  0
 12 38  1  0  0  0  0
 13 22  1  0  0  0  0
 13 14  2  0  0  0  0
 14 15  1  0  0  0  0
 14 39  1  0  0  0  0
 15 16  1  0  0  0  0
 15 20  2  0  0  0  0
 16 17  1  0  0  0  0
 16 18  1  0  0  0  0
 16 19  1  0  0  0  0
 20 21  1  0  0  0  0
 20 40  1  0  0  0  0
 21 24  1  0  0  0  0
 21 22  1  0  0  0  0
 22 23  2  0  0  0  0
M  END
> <s_m_source_file>
AV-unprocessed.smi

> <i_m_source_file_index>
1718

> <i_lp_mmshare_version>
43012

> <i_f3d_flags>
0

> <s_epik_input>
TzFbQ0gyXVtDSDJdW0NIMl1bQ0BIXTFbQ0gyXU9bQ0BASF0oW0NIM10pQyg9TylbTkhdYzJbY0hdYyhDKEYpKEYpRilbY0hdW25IXWMyPU8=

> <s_epik_cmdline>
J2VwaWtfcHl0aG9uJywgJy1waCcsICc3LjAnLCAnLXRuJywgJzgnLCAnLW1hJywgJzIwMCcsICctbWV0YWxfYmluZGluZycsICctaW1hZScsICc8aW5maWxlLm1hZT4nLCAnLW9tYWUnLCAnPG91dGZpbGUubWFlPic=

> <r_lp_tautomer_probability>
0.999

> <r_epik_Ionization_Penalty>
0.00894336

> <r_epik_Ionization_Penalty_Charging>
0.00894326

> <r_epik_Ionization_Penalty_Neutral>
1.00145e-07

> <r_epik_State_Penalty>
0.00676626

> <r_epik_Charging_Adjusted_Penalty>
0.0157095

> <i_epik_Tot_Q>
0

> <i_epik_Tot_abs_Q>
0

> <r_epik_Metal_State_Penalty>
0.321145

> <b_epik_Metal_Only>
0

> <s_lp_Force_Field>
OPLS_2005

> <r_lp_Energy>
34.2201

> <b_lp_Chiralities_Consistent>
1

> <s_lp_Variant>
AV-unprocessed.smi:1718-2

> <Gold.Version>
5.8.1

> <Gold.Id.Protein>
6NUR|6NUR_protein|mol2

> <Gold.PLP.Fitness>
44.5857

> <Gold.PLP.PLP>
-40.2336

> <Gold.PLP.part.hbond>
-3.2758

> <Gold.PLP.part.metal>
0.0000

> <Gold.PLP.part.buried>
-5.4094

> <Gold.PLP.part.nonpolar>
-31.9749

> <Gold.PLP.part.repulsive>
0.3418

> <Gold.PLP.ligand.clash>
0.0304

> <Gold.PLP.ligand.torsion>
1.2412

> <Gold.PLP.Chemscore.Hbond>
2.2480

> <Gold.PLP.Chemscore.CHOScore>
0.0000

> <Gold.PLP.Chemscore.Metal>
0.0000

> <Gold.Chemscore.Hbonds>
donor molecule, donor type, donor heavy atom, donor atom, acceptor molecule, acceptor atom, score
      P1  H  6896  6907       L1    11  0.98
      P1  H  6931  6943       L1    23  0.66
      P1  H  6934  6947       L1    23  0.61

> <Gold.PLP.Chemscore.Internal.Correction>
0.1210

> <Gold.Rescore>
     Score         DG    S(hbond)    S(metal)    S(lipo)     H(rot)  DE(clash)    DE(int)     intcor
     16.41     -17.63       2.47        0.00      74.35       1.88       0.00       1.22       ----

> <Gold.Chemscore.Fitness>
16.4145

> <Gold.Chemscore.DG>
-17.6343

> <Gold.Chemscore.ZeroCoef>
-5.4800

> <Gold.Chemscore.Hbond>
2.4747

> <Gold.Chemscore.Metal>
0.0000

> <Gold.Chemscore.Lipo>
74.3489

> <Gold.Chemscore.Internal_Hbond>
0.0000

> <Gold.Chemscore.DEClash>
0.0009

> <Gold.Chemscore.DEInternal>
1.2189

> <Gold.Chemscore.Rot>
1.8790

> <Gold.Chemscore.Internal.Correction>
   9.000000E+99

> <Gold.Chemscore.Hbonds>
donor molecule, donor type, donor heavy atom, donor atom, acceptor molecule, acceptor atom, score
      P1  H  6896  6907       L1    11  0.91
      P1  H  6931  6943       L1    23  0.24
      P1  H  6934  6947       L1    23  0.61

> <Gold.Chemscore.Hbond.Weighted>
-8.2656

> <Gold.Chemscore.Metal.Weighted>
-0.0000

> <Gold.Chemscore.Lipo.Weighted>
-8.6988

> <Gold.Chemscore.Internal_Hbond.Weighted>
0.0000

> <Gold.Chemscore.DEClash.Weighted>
0.0009

> <Gold.Chemscore.DEInternal.Weighted>
1.2189

> <Gold.Chemscore.Rot.Weighted>
4.8102

> <Gold.Chemscore.Internal.Correction.Weighted>
   9.000000E+99

> <Gold.Protein.RotatedTorsions>
[ 6907 6896 6895 6894 ] final  -33.60 input  -60.11 | X-H torsion
[ 7974 7965 7964 7962 ] final  -71.61 input  175.53 | X-H torsion
[ 8008 7997 7996 7995 ] final  107.86 input   59.86 | X-H torsion
[ 10167 10162 10161 10158 ] final  130.18 input  -65.29 | X-H torsion
[ 10718 10713 10712 10709 ] final   53.61 input   66.30 | X-H torsion
[ 10763 10752 10751 10750 ] final   18.07 input  -60.55 | X-H torsion
[ 11005 11000 10999 10996 ] final -145.51 input  -57.11 | X-H torsion

> <Gold.Protein.ActiveResidues>
 VAL166  LYS551  ARG553  GLY616  TRP617  ASP618  TYR619  PRO620  LYS621  CYS622 
 ASP623  PHE694  ASN695  SER759  ASP760  ASP761  ALA762  ILE779  LEU786  VAL792 
 PHE793  MET794  SER795  GLU796  ALA797  LYS798  CYS799  TRP800  GLU811  SER814 

> <Gold.Protein.RotatedAtoms>
  151.0634  134.9752  159.8271 H   0  0  0  0  0  0  0  0  0  0  0  0  # atno 6907 bound_to 6896
  152.5398  134.2389  159.8864 H   0  0  0  0  0  0  0  0  0  0  0  0  # atno 6908 bound_to 6896
  151.2410  133.4356  159.2641 H   0  0  0  0  0  0  0  0  0  0  0  0  # atno 6909 bound_to 6896
  145.6759  140.9205  143.0858 H   0  0  0  0  0  0  0  0  0  0  0  0  # atno 7974 bound_to 7965
  156.1857  140.3087  155.9235 H   0  0  0  0  0  0  0  0  0  0  0  0  # atno 8008 bound_to 7997
  155.3285  140.0459  157.3059 H   0  0  0  0  0  0  0  0  0  0  0  0  # atno 8009 bound_to 7997
  154.5394  140.2256  155.8677 H   0  0  0  0  0  0  0  0  0  0  0  0  # atno 8010 bound_to 7997
  139.5442  144.6758  151.4526 H   0  0  0  0  0  0  0  0  0  0  0  0  # atno 10167 bound_to 10162
  157.5182  130.8547  149.8523 H   0  0  0  0  0  0  0  0  0  0  0  0  # atno 10718 bound_to 10713
  153.1282  135.6734  153.9222 H   0  0  0  0  0  0  0  0  0  0  0  0  # atno 10763 bound_to 10752
  153.8716  135.3069  155.3443 H   0  0  0  0  0  0  0  0  0  0  0  0  # atno 10764 bound_to 10752
  154.7684  135.4952  153.9680 H   0  0  0  0  0  0  0  0  0  0  0  0  # atno 10765 bound_to 10752
  140.7915  134.2963  157.5011 H   0  0  0  0  0  0  0  0  0  0  0  0  # atno 11005 bound_to 11000
  144.7041  139.8633  143.7435 LP  0  0  0  0  0  0  0  0  0  0  0  0  # atno 17320 bound_to 7965
  146.1006  139.4001  143.0349 LP  0  0  0  0  0  0  0  0  0  0  0  0  # atno 17321 bound_to 7965
  140.6684  143.8348  150.6969 LP  0  0  0  0  0  0  0  0  0  0  0  0  # atno 17342 bound_to 10162
  140.1764  143.4151  152.1964 LP  0  0  0  0  0  0  0  0  0  0  0  0  # atno 17343 bound_to 10162
  156.0335  130.3758  150.1623 LP  0  0  0  0  0  0  0  0  0  0  0  0  # atno 17370 bound_to 10713
  156.9812  130.9864  151.3437 LP  0  0  0  0  0  0  0  0  0  0  0  0  # atno 17371 bound_to 10713
  139.8730  134.9377  156.3695 LP  0  0  0  0  0  0  0  0  0  0  0  0  # atno 17394 bound_to 11000
  140.9384  133.7531  156.0115 LP  0  0  0  0  0  0  0  0  0  0  0  0  # atno 17395 bound_to 11000

$$$$
