AV-unprocessed.smi:3330|AV-procd|sdf|12814|dock7
  -GOLD-   2272019183D 1   1.00000     0.00000
 Structure written by MMmdl.
 37 38  0  0  0  0  0  0  0  0  2 V2000
  149.3337  135.4677  155.1129 C   0  0  0  0  0  0  0  0  0  0  0  0
  149.1136  136.9766  155.3280 C   0  0  1  0  0  0  0  0  0  0  0  0
  149.4031  137.2523  156.7308 N   0  0  0  0  0  0  0  0  0  0  0  0
  148.4442  136.5973  157.6063 C   0  0  0  0  0  0  0  0  0  0  0  0
  148.8173  136.8677  159.0708 C   0  0  0  0  0  0  0  0  0  0  0  0
  148.1349  135.9309  159.9673 N   0  0  0  0  0  0  0  0  0  0  0  0
  147.5073  136.2885  161.0917 C   0  0  0  0  0  0  0  0  0  0  0  0
  147.3961  137.4172  161.5708 O   0  0  0  0  0  0  0  0  0  0  0  0
  146.9213  135.0372  161.7030 C   0  0  0  0  0  0  0  0  0  0  0  0
  147.3120  134.0179  160.7552 N   0  5  0  0  0  0  0  0  0  0  0  0
  148.0167  134.6054  159.7600 C   0  0  0  0  0  0  0  0  0  0  0  0
  148.5000  134.0494  158.7743 O   0  0  0  0  0  0  0  0  0  0  0  0
  150.0086  137.8683  154.4260 C   0  0  2  0  0  0  0  0  0  0  0  0
  151.4988  137.8129  154.8099 C   0  0  0  0  0  0  0  0  0  0  0  0
  149.5571  139.2542  154.4277 N   0  0  0  0  0  0  0  0  0  0  0  0
  148.3111  139.7544  154.1057 C   0  0  0  0  0  0  0  0  0  0  0  0
  148.3634  141.1106  154.2552 C   0  0  0  0  0  0  0  0  0  0  0  0
  149.7006  141.3517  154.6763 C   0  0  0  0  0  0  0  0  0  0  0  0
  150.4113  140.2405  154.7797 N   0  0  0  0  0  0  0  0  0  0  0  0
  149.0529  135.1591  154.1060 H   0  0  0  0  0  0  0  0  0  0  0  0
  148.7293  134.8798  155.8046 H   0  0  0  0  0  0  0  0  0  0  0  0
  150.3780  135.1922  155.2654 H   0  0  0  0  0  0  0  0  0  0  0  0
  148.0657  137.1890  155.1085 H   0  0  0  0  0  0  0  0  0  0  0  0
  150.3312  136.9236  156.9564 H   0  0  0  0  0  0  0  0  0  0  0  0
  147.4388  136.9671  157.4021 H   0  0  0  0  0  0  0  0  0  0  0  0
  148.4451  135.5243  157.4086 H   0  0  0  0  0  0  0  0  0  0  0  0
  149.8977  136.7920  159.2057 H   0  0  0  0  0  0  0  0  0  0  0  0
  148.5566  137.8931  159.3392 H   0  0  0  0  0  0  0  0  0  0  0  0
  147.3370  134.8814  162.6990 H   0  0  0  0  0  0  0  0  0  0  0  0
  145.8403  135.1428  161.8012 H   0  0  0  0  0  0  0  0  0  0  0  0
  149.9228  137.5016  153.4011 H   0  0  0  0  0  0  0  0  0  0  0  0
  151.9059  136.8099  154.6819 H   0  0  0  0  0  0  0  0  0  0  0  0
  151.6555  138.1056  155.8485 H   0  0  0  0  0  0  0  0  0  0  0  0
  152.0898  138.4811  154.1826 H   0  0  0  0  0  0  0  0  0  0  0  0
  147.5006  139.1096  153.7996 H   0  0  0  0  0  0  0  0  0  0  0  0
  147.5680  141.8215  154.0883 H   0  0  0  0  0  0  0  0  0  0  0  0
  150.1729  142.2946  154.9092 H   0  0  0  0  0  0  0  0  0  0  0  0
  1  2  1  0  0  0  0
  1 20  1  0  0  0  0
  1 21  1  0  0  0  0
  1 22  1  0  0  0  0
  2  3  1  0  0  0  0
  2 13  1  0  0  0  0
  2 23  1  0  0  0  0
  3  4  1  0  0  0  0
  3 24  1  0  0  0  0
  4  5  1  0  0  0  0
  4 25  1  0  0  0  0
  4 26  1  0  0  0  0
  5  6  1  0  0  0  0
  5 27  1  0  0  0  0
  5 28  1  0  0  0  0
  6 11  1  0  0  0  0
  6  7  1  0  0  0  0
  7  8  2  0  0  0  0
  7  9  1  0  0  0  0
  9 10  1  0  0  0  0
  9 29  1  0  0  0  0
  9 30  1  0  0  0  0
 10 11  1  0  0  0  0
 11 12  2  0  0  0  0
 13 14  1  0  0  0  0
 13 15  1  0  0  0  0
 13 31  1  0  0  0  0
 14 32  1  0  0  0  0
 14 33  1  0  0  0  0
 14 34  1  0  0  0  0
 15 19  1  0  0  0  0
 15 16  1  0  0  0  0
 16 17  2  0  0  0  0
 16 35  1  0  0  0  0
 17 18  1  0  0  0  0
 17 36  1  0  0  0  0
 18 19  2  0  0  0  0
 18 37  1  0  0  0  0
M  CHG  1  10  -1
M  END
> <s_m_source_file>
AV-unprocessed.smi

> <i_m_source_file_index>
3330

> <i_lp_mmshare_version>
43012

> <i_f3d_flags>
0

> <s_epik_input>
bjFbY0hdW2NIXVtjSF1uMVtDQEBIXShbQ0gzXSlbQ0BIXShbQ0gzXSlbTkhdW0NIMl1bQ0gyXU4yQyg9TylbQ0gyXVtOSF1DMj1P

> <s_epik_cmdline>
J2VwaWtfcHl0aG9uJywgJy1waCcsICc3LjAnLCAnLXRuJywgJzgnLCAnLW1hJywgJzIwMCcsICctbWV0YWxfYmluZGluZycsICctaW1hZScsICc8aW5maWxlLm1hZT4nLCAnLW9tYWUnLCAnPG91dGZpbGUubWFlPic=

> <r_lp_tautomer_probability>
1

> <r_epik_Ionization_Penalty>
8.77477

> <r_epik_Ionization_Penalty_Charging>
6.28461

> <r_epik_Ionization_Penalty_Neutral>
2.49016

> <r_epik_State_Penalty>
8.73376

> <r_epik_Charging_Adjusted_Penalty>
15.0184

> <i_epik_Tot_Q>
-1

> <i_epik_Tot_abs_Q>
1

> <r_epik_Metal_State_Penalty>
4.73175

> <b_epik_Metal_Only>
1

> <s_lp_Force_Field>
OPLS_2005

> <r_lp_Energy>
21.213

> <b_lp_Chiralities_Consistent>
1

> <s_lp_Variant>
AV-unprocessed.smi:3330-14

> <Gold.Version>
5.8.1

> <Gold.Id.Protein>
6NUR|6NUR_protein|mol2

> <Gold.PLP.Fitness>
44.9526

> <Gold.PLP.PLP>
-31.8115

> <Gold.PLP.part.hbond>
-4.0000

> <Gold.PLP.part.metal>
0.0000

> <Gold.PLP.part.buried>
-2.6100

> <Gold.PLP.part.nonpolar>
-24.7610

> <Gold.PLP.part.repulsive>
0.0841

> <Gold.PLP.ligand.clash>
0.0000

> <Gold.PLP.ligand.torsion>
0.4404

> <Gold.PLP.Chemscore.Hbond>
3.6400

> <Gold.PLP.Chemscore.CHOScore>
1.0000

> <Gold.PLP.Chemscore.Metal>
0.0000

> <Gold.Chemscore.Hbonds>
donor molecule, donor type, donor heavy atom, donor atom, acceptor molecule, acceptor atom, score
      P1  H  6896  6907       L1    12  0.27
      P1  H  6931  6943       L1     8  0.80
      P1  H  6934  6947       L1     8  0.83
      P1  H  7989  7998       L1    19  0.50
      L1  C    18    37       P1  8028  0.22

> <Gold.PLP.Chemscore.Internal.Correction>
0.1019

> <Gold.Rescore>
     Score         DG    S(hbond)    S(metal)    S(lipo)     H(rot)  DE(clash)    DE(int)     intcor
     12.06     -14.17       2.52        0.00      57.44       2.52       0.29       1.81       ----

> <Gold.Chemscore.Fitness>
12.0598

> <Gold.Chemscore.DG>
-14.1677

> <Gold.Chemscore.ZeroCoef>
-5.4800

> <Gold.Chemscore.Hbond>
2.5175

> <Gold.Chemscore.Metal>
0.0000

> <Gold.Chemscore.Lipo>
57.4380

> <Gold.Chemscore.Internal_Hbond>
0.0000

> <Gold.Chemscore.DEClash>
0.2939

> <Gold.Chemscore.DEInternal>
1.8139

> <Gold.Chemscore.Rot>
2.5160

> <Gold.Chemscore.Internal.Correction>
   9.000000E+99

> <Gold.Chemscore.Hbonds>
donor molecule, donor type, donor heavy atom, donor atom, acceptor molecule, acceptor atom, score
      P1  H  6896  6907       L1    12  0.02
      P1  H  6931  6943       L1     8  0.70
      P1  H  6934  6947       L1     8  0.83
      P1  H  7989  7998       L1    19  0.02

> <Gold.Chemscore.Hbond.Weighted>
-8.4084

> <Gold.Chemscore.Metal.Weighted>
-0.0000

> <Gold.Chemscore.Lipo.Weighted>
-6.7203

> <Gold.Chemscore.Internal_Hbond.Weighted>
0.0000

> <Gold.Chemscore.DEClash.Weighted>
0.2939

> <Gold.Chemscore.DEInternal.Weighted>
1.8139

> <Gold.Chemscore.Rot.Weighted>
6.4410

> <Gold.Chemscore.Internal.Correction.Weighted>
   9.000000E+99

> <Gold.Protein.RotatedTorsions>
[ 6907 6896 6895 6894 ] final  -81.93 input  -60.11 | X-H torsion
[ 7974 7965 7964 7962 ] final -134.06 input  175.53 | X-H torsion
[ 8008 7997 7996 7995 ] final  -53.88 input   59.86 | X-H torsion
[ 10167 10162 10161 10158 ] final  128.47 input  -65.29 | X-H torsion
[ 10718 10713 10712 10709 ] final  -93.51 input   66.30 | X-H torsion
[ 10763 10752 10751 10750 ] final   58.97 input  -60.55 | X-H torsion
[ 11005 11000 10999 10996 ] final  -48.82 input  -57.11 | X-H torsion

> <Gold.Protein.ActiveResidues>
 VAL166  LYS551  ARG553  GLY616  TRP617  ASP618  TYR619  PRO620  LYS621  CYS622 
 ASP623  PHE694  ASN695  SER759  ASP760  ASP761  ALA762  ILE779  LEU786  VAL792 
 PHE793  MET794  SER795  GLU796  ALA797  LYS798  CYS799  TRP800  GLU811  SER814 

> <Gold.Protein.RotatedAtoms>
  150.6904  134.3743  159.5005 H   0  0  0  0  0  0  0  0  0  0  0  0  # atno 6907 bound_to 6896
  152.1554  134.8952  160.0554 H   0  0  0  0  0  0  0  0  0  0  0  0  # atno 6908 bound_to 6896
  152.0034  133.3799  159.4227 H   0  0  0  0  0  0  0  0  0  0  0  0  # atno 6909 bound_to 6896
  144.9136  140.6927  143.5009 H   0  0  0  0  0  0  0  0  0  0  0  0  # atno 7974 bound_to 7965
  154.4146  140.1189  156.5225 H   0  0  0  0  0  0  0  0  0  0  0  0  # atno 8008 bound_to 7997
  155.6688  140.3496  155.4791 H   0  0  0  0  0  0  0  0  0  0  0  0  # atno 8009 bound_to 7997
  155.9651  140.1130  157.0852 H   0  0  0  0  0  0  0  0  0  0  0  0  # atno 8010 bound_to 7997
  139.5526  144.6824  151.4279 H   0  0  0  0  0  0  0  0  0  0  0  0  # atno 10167 bound_to 10162
  156.0014  130.5030  150.5787 H   0  0  0  0  0  0  0  0  0  0  0  0  # atno 10718 bound_to 10713
  152.9883  135.5588  154.5638 H   0  0  0  0  0  0  0  0  0  0  0  0  # atno 10763 bound_to 10752
  154.5052  135.2799  155.1390 H   0  0  0  0  0  0  0  0  0  0  0  0  # atno 10764 bound_to 10752
  154.2805  135.6346  153.5398 H   0  0  0  0  0  0  0  0  0  0  0  0  # atno 10765 bound_to 10752
  141.0723  133.6675  156.3496 H   0  0  0  0  0  0  0  0  0  0  0  0  # atno 11005 bound_to 11000
  145.3412  139.1731  143.4484 LP  0  0  0  0  0  0  0  0  0  0  0  0  # atno 17320 bound_to 7965
  146.3171  140.3454  142.8651 LP  0  0  0  0  0  0  0  0  0  0  0  0  # atno 17321 bound_to 7965
  140.6792  143.8121  150.7098 LP  0  0  0  0  0  0  0  0  0  0  0  0  # atno 17342 bound_to 10162
  140.1569  143.4309  152.2093 LP  0  0  0  0  0  0  0  0  0  0  0  0  # atno 17343 bound_to 10162
  157.3671  131.0759  151.1589 LP  0  0  0  0  0  0  0  0  0  0  0  0  # atno 17370 bound_to 10713
  157.2355  130.6545  149.5867 LP  0  0  0  0  0  0  0  0  0  0  0  0  # atno 17371 bound_to 10713
  140.5647  134.5899  157.5442 LP  0  0  0  0  0  0  0  0  0  0  0  0  # atno 17394 bound_to 11000
  139.9536  134.7574  156.0392 LP  0  0  0  0  0  0  0  0  0  0  0  0  # atno 17395 bound_to 11000

$$$$
