AV-unprocessed.smi:196|AV-procd|sdf|1535|dock5
  -GOLD-   2262019393D 1   1.00000     0.00000
 Structure written by MMmdl.
 47 50  0  0  0  0  0  0  0  0  1 V2000
  151.9811  145.1168  158.7482 C   0  0  0  0  0  0  0  0  0  0  0  0
  151.3265  143.7404  158.5599 C   0  0  1  0  0  0  0  0  0  0  0  0
  151.4102  143.3223  157.1997 O   0  0  0  0  0  0  0  0  0  0  0  0
  151.5528  141.9063  157.1276 C   0  0  0  0  0  0  0  0  0  0  0  0
  151.3959  141.4017  158.5592 C   0  0  0  0  0  0  0  0  0  0  0  0
  151.9095  142.5760  159.3836 C   0  0  2  0  0  0  0  0  0  0  0  0
  151.3142  142.5313  160.6671 O   0  0  0  0  0  0  0  0  0  0  0  0
  153.4550  142.6171  159.5302 C   0  0  0  0  0  0  0  0  0  0  0  0
  153.9807  141.6734  160.5041 N   0  0  0  0  0  0  0  0  0  0  0  0
  154.1418  141.8833  161.8552 C   0  0  0  0  0  0  0  0  0  0  0  0
  154.6380  140.8755  162.5199 N   0  0  0  0  0  0  0  0  0  0  0  0
  154.8413  139.8995  161.5527 C   0  0  0  0  0  0  0  0  0  0  0  0
  155.3466  138.5722  161.5772 C   0  0  0  0  0  0  0  0  0  0  0  0
  155.7339  137.9667  162.7263 N   0  0  0  0  0  0  0  0  0  0  0  0
  155.5857  136.5134  162.7727 C   0  0  0  0  0  0  0  0  0  0  0  0
  154.4459  136.2521  163.7487 C   0  0  1  0  0  0  0  0  0  0  0  0
  154.4966  135.0336  164.2860 F   0  0  0  0  0  0  0  0  0  0  0  0
  154.6518  137.3554  164.7762 C   0  0  0  0  0  0  0  0  0  0  0  0
  155.1318  138.5547  163.9352 C   0  0  1  0  0  0  0  0  0  0  0  0
  156.0860  139.4573  164.7378 C   0  0  0  0  0  0  0  0  0  0  0  0
  156.5974  140.5420  164.1472 N   0  0  0  0  0  0  0  0  0  0  0  0
  156.3569  139.1711  165.9016 O   0  0  0  0  0  0  0  0  0  0  0  0
  155.3998  137.8934  160.3998 N   0  0  0  0  0  0  0  0  0  0  0  0
  154.9937  138.4794  159.2696 C   0  0  0  0  0  0  0  0  0  0  0  0
  154.5032  139.7084  159.0967 N   0  0  0  0  0  0  0  0  0  0  0  0
  154.4420  140.3884  160.2776 C   0  0  0  0  0  0  0  0  0  0  0  0
  153.4802  136.3625  163.2540 H   0  0  0  0  0  0  0  0  0  0  0  0
  154.2595  139.1544  163.6646 H   0  0  0  0  0  0  0  0  0  0  0  0
  151.9461  145.4268  159.7927 H   0  0  0  0  0  0  0  0  0  0  0  0
  151.4605  145.8732  158.1607 H   0  0  0  0  0  0  0  0  0  0  0  0
  153.0232  145.1174  158.4287 H   0  0  0  0  0  0  0  0  0  0  0  0
  150.2616  143.8312  158.7837 H   0  0  0  0  0  0  0  0  0  0  0  0
  150.8187  141.4667  156.4521 H   0  0  0  0  0  0  0  0  0  0  0  0
  152.5467  141.6738  156.7435 H   0  0  0  0  0  0  0  0  0  0  0  0
  150.3351  141.2379  158.7582 H   0  0  0  0  0  0  0  0  0  0  0  0
  151.9051  140.4559  158.7401 H   0  0  0  0  0  0  0  0  0  0  0  0
  151.6964  143.2133  161.1978 H   0  0  0  0  0  0  0  0  0  0  0  0
  153.9319  142.4138  158.5708 H   0  0  0  0  0  0  0  0  0  0  0  0
  153.7821  143.6153  159.8244 H   0  0  0  0  0  0  0  0  0  0  0  0
  153.8749  142.8137  162.3357 H   0  0  0  0  0  0  0  0  0  0  0  0
  155.4074  136.0499  161.8010 H   0  0  0  0  0  0  0  0  0  0  0  0
  156.5174  136.0972  163.1579 H   0  0  0  0  0  0  0  0  0  0  0  0
  153.7436  137.5742  165.3387 H   0  0  0  0  0  0  0  0  0  0  0  0
  155.4181  137.0474  165.4906 H   0  0  0  0  0  0  0  0  0  0  0  0
  157.2301  141.1411  164.6579 H   0  0  0  0  0  0  0  0  0  0  0  0
  156.3543  140.7546  163.1907 H   0  0  0  0  0  0  0  0  0  0  0  0
  155.0693  137.8760  158.3769 H   0  0  0  0  0  0  0  0  0  0  0  0
  1  2  1  0  0  0  0
  1 29  1  0  0  0  0
  1 30  1  0  0  0  0
  1 31  1  0  0  0  0
  2  6  1  0  0  0  0
  2  3  1  0  0  0  0
  2 32  1  0  0  0  0
  3  4  1  0  0  0  0
  4  5  1  0  0  0  0
  4 33  1  0  0  0  0
  4 34  1  0  0  0  0
  5  6  1  0  0  0  0
  5 35  1  0  0  0  0
  5 36  1  0  0  0  0
  6  7  1  0  0  0  0
  6  8  1  0  0  0  0
  7 37  1  0  0  0  0
  8  9  1  0  0  0  0
  8 38  1  0  0  0  0
  8 39  1  0  0  0  0
  9 26  1  0  0  0  0
  9 10  1  0  0  0  0
 10 11  2  0  0  0  0
 10 40  1  0  0  0  0
 11 12  1  0  0  0  0
 12 26  2  0  0  0  0
 12 13  1  0  0  0  0
 13 14  1  0  0  0  0
 13 23  2  0  0  0  0
 14 19  1  0  0  0  0
 14 15  1  0  0  0  0
 15 16  1  0  0  0  0
 15 41  1  0  0  0  0
 15 42  1  0  0  0  0
 16 27  1  0  0  0  0
 16 17  1  0  0  0  0
 16 18  1  0  0  0  0
 18 19  1  0  0  0  0
 18 43  1  0  0  0  0
 18 44  1  0  0  0  0
 19 28  1  0  0  0  0
 19 20  1  0  0  0  0
 20 21  1  0  0  0  0
 20 22  2  0  0  0  0
 21 45  1  0  0  0  0
 21 46  1  0  0  0  0
 23 24  1  0  0  0  0
 24 25  2  0  0  0  0
 24 47  1  0  0  0  0
 25 26  1  0  0  0  0
M  END
> <s_m_source_file>
AV-unprocessed.smi

> <i_m_source_file_index>
196

> <i_lp_mmshare_version>
43012

> <i_f3d_flags>
0

> <s_epik_input>
W0NIMl0xW0NIMl1PW0NAQEhdKFtDSDNdKVtDQEBdMShbT0hdKVtDSDJdbihbY0hdbjIpYyhjMjMpbltjSF1uYzNONFtDSDJdW0NASF0oRilbQ0gyXVtDQEhdNEMoPU8pW05IMl0=

> <s_epik_cmdline>
J2VwaWtfcHl0aG9uJywgJy1waCcsICc3LjAnLCAnLXRuJywgJzgnLCAnLW1hJywgJzIwMCcsICctbWV0YWxfYmluZGluZycsICctaW1hZScsICc8aW5maWxlLm1hZT4nLCAnLW9tYWUnLCAnPG91dGZpbGUubWFlPic=

> <r_lp_tautomer_probability>
1

> <r_epik_Ionization_Penalty>
0.000857933

> <r_epik_Ionization_Penalty_Charging>
0

> <r_epik_Ionization_Penalty_Neutral>
0.000857933

> <r_epik_State_Penalty>
0.000462053

> <r_epik_Charging_Adjusted_Penalty>
0.000462053

> <i_epik_Tot_Q>
0

> <i_epik_Tot_abs_Q>
0

> <r_epik_Metal_State_Penalty>
-0

> <b_epik_Metal_Only>
0

> <s_lp_Force_Field>
OPLS_2005

> <r_lp_Energy>
46.5275

> <b_lp_Chiralities_Consistent>
1

> <s_lp_Variant>
AV-unprocessed.smi:196-8

> <Gold.Version>
5.8.1

> <Gold.Id.Protein>
6NUR|6NUR_protein|mol2

> <Gold.PLP.Fitness>
46.9686

> <Gold.PLP.PLP>
-45.8662

> <Gold.PLP.part.hbond>
-3.1118

> <Gold.PLP.part.metal>
0.0000

> <Gold.PLP.part.buried>
-4.1947

> <Gold.PLP.part.nonpolar>
-37.5619

> <Gold.PLP.part.repulsive>
0.1741

> <Gold.PLP.ligand.clash>
0.0000

> <Gold.PLP.ligand.torsion>
1.2227

> <Gold.PLP.Chemscore.Hbond>
1.1529

> <Gold.PLP.Chemscore.CHOScore>
0.0000

> <Gold.PLP.Chemscore.Metal>
0.0000

> <Gold.Chemscore.Hbonds>
donor molecule, donor type, donor heavy atom, donor atom, acceptor molecule, acceptor atom, score
      P1  H  6933  6945       L1     7  0.06
      P1  H  7997  8008       L1    25  1.00

> <Gold.PLP.Chemscore.Internal.Correction>
0.0893

> <Gold.Rescore>
     Score         DG    S(hbond)    S(metal)    S(lipo)     H(rot)  DE(clash)    DE(int)     intcor
      6.43     -10.87       0.49        0.00      98.57       3.04       0.78       3.66       ----

> <Gold.Chemscore.Fitness>
6.4318

> <Gold.Chemscore.DG>
-10.8671

> <Gold.Chemscore.ZeroCoef>
-5.4800

> <Gold.Chemscore.Hbond>
0.4911

> <Gold.Chemscore.Metal>
0.0000

> <Gold.Chemscore.Lipo>
98.5682

> <Gold.Chemscore.Internal_Hbond>
0.0000

> <Gold.Chemscore.DEClash>
0.7801

> <Gold.Chemscore.DEInternal>
3.6552

> <Gold.Chemscore.Rot>
3.0413

> <Gold.Chemscore.Internal.Correction>
   9.000000E+99

> <Gold.Chemscore.Hbonds>
donor molecule, donor type, donor heavy atom, donor atom, acceptor molecule, acceptor atom, score
      P1  H  6933  6945       L1     7  0.01
      P1  H  7997  8008       L1    25  0.34

> <Gold.Chemscore.Hbond.Weighted>
-1.6402

> <Gold.Chemscore.Metal.Weighted>
-0.0000

> <Gold.Chemscore.Lipo.Weighted>
-11.5325

> <Gold.Chemscore.Internal_Hbond.Weighted>
0.0000

> <Gold.Chemscore.DEClash.Weighted>
0.7801

> <Gold.Chemscore.DEInternal.Weighted>
3.6552

> <Gold.Chemscore.Rot.Weighted>
7.7856

> <Gold.Chemscore.Internal.Correction.Weighted>
   9.000000E+99

> <Gold.Protein.RotatedTorsions>
[ 6907 6896 6895 6894 ] final   92.51 input  -60.11 | X-H torsion
[ 7974 7965 7964 7962 ] final  -11.56 input  175.53 | X-H torsion
[ 8008 7997 7996 7995 ] final -107.19 input   59.86 | X-H torsion
[ 10167 10162 10161 10158 ] final  113.31 input  -65.29 | X-H torsion
[ 10718 10713 10712 10709 ] final  121.80 input   66.30 | X-H torsion
[ 10763 10752 10751 10750 ] final  104.00 input  -60.55 | X-H torsion
[ 11005 11000 10999 10996 ] final   93.85 input  -57.11 | X-H torsion

> <Gold.Protein.ActiveResidues>
 VAL166  LYS551  ARG553  GLY616  TRP617  ASP618  TYR619  PRO620  LYS621  CYS622 
 ASP623  PHE694  ASN695  SER759  ASP760  ASP761  ALA762  ILE779  LEU786  VAL792 
 PHE793  MET794  SER795  GLU796  ALA797  LYS798  CYS799  TRP800  GLU811  SER814 

> <Gold.Protein.RotatedAtoms>
  152.5452  134.1491  159.8510 H   0  0  0  0  0  0  0  0  0  0  0  0  # atno 6907 bound_to 6896
  151.1520  133.4894  159.2602 H   0  0  0  0  0  0  0  0  0  0  0  0  # atno 6908 bound_to 6896
  151.1462  135.0215  159.8703 H   0  0  0  0  0  0  0  0  0  0  0  0  # atno 6909 bound_to 6896
  146.2183  140.2929  142.8370 H   0  0  0  0  0  0  0  0  0  0  0  0  # atno 7974 bound_to 7965
  154.9256  140.0406  157.2021 H   0  0  0  0  0  0  0  0  0  0  0  0  # atno 8008 bound_to 7997
  154.8211  140.2884  155.5765 H   0  0  0  0  0  0  0  0  0  0  0  0  # atno 8009 bound_to 7997
  156.2980  140.2518  156.3118 H   0  0  0  0  0  0  0  0  0  0  0  0  # atno 8010 bound_to 7997
  139.6471  144.7127  151.2121 H   0  0  0  0  0  0  0  0  0  0  0  0  # atno 10167 bound_to 10162
  157.5790  131.1076  150.8223 H   0  0  0  0  0  0  0  0  0  0  0  0  # atno 10718 bound_to 10713
  153.3601  135.3958  155.1712 H   0  0  0  0  0  0  0  0  0  0  0  0  # atno 10763 bound_to 10752
  154.8677  135.3677  154.5110 H   0  0  0  0  0  0  0  0  0  0  0  0  # atno 10764 bound_to 10752
  153.5569  135.7082  153.5625 H   0  0  0  0  0  0  0  0  0  0  0  0  # atno 10765 bound_to 10752
  139.8805  134.8813  156.3778 H   0  0  0  0  0  0  0  0  0  0  0  0  # atno 11005 bound_to 11000
  144.9113  140.7761  143.5805 LP  0  0  0  0  0  0  0  0  0  0  0  0  # atno 17320 bound_to 7965
  145.2860  139.1901  143.4765 LP  0  0  0  0  0  0  0  0  0  0  0  0  # atno 17321 bound_to 7965
  140.7520  143.6212  150.8511 LP  0  0  0  0  0  0  0  0  0  0  0  0  # atno 17342 bound_to 10162
  139.9856  143.5903  152.2928 LP  0  0  0  0  0  0  0  0  0  0  0  0  # atno 17343 bound_to 10162
  156.8674  130.5134  149.5299 LP  0  0  0  0  0  0  0  0  0  0  0  0  # atno 17370 bound_to 10713
  156.0836  130.5840  150.9607 LP  0  0  0  0  0  0  0  0  0  0  0  0  # atno 17371 bound_to 10713
  140.9420  133.7508  156.0159 LP  0  0  0  0  0  0  0  0  0  0  0  0  # atno 17394 bound_to 11000
  140.8208  134.3291  157.5382 LP  0  0  0  0  0  0  0  0  0  0  0  0  # atno 17395 bound_to 11000

$$$$
