AV-unprocessed.smi:1703|AV-procd|sdf|6879|dock1
  -GOLD-   22720 8 83D 1   1.00000     0.00000
 Structure written by MMmdl.
 50 52  0  0  0  0  0  0  0  0  3 V2000
  138.5469  141.6488  153.8855 C   0  0  0  0  0  0  0  0  0  0  0  0
  139.9888  141.1305  153.9117 C   0  0  2  0  0  0  0  0  0  0  0  0
  140.0643  139.6109  153.6689 C   0  0  0  0  0  0  0  0  0  0  0  0
  141.4663  139.1366  153.7779 N   0  3  2  0  0  0  0  0  0  0  0  0
  141.6310  137.6841  153.5111 C   0  0  0  0  0  0  0  0  0  0  0  0
  143.0698  137.2995  153.1095 C   0  0  1  0  0  0  0  0  0  0  0  0
  143.7376  136.7547  154.2316 O   0  0  0  0  0  0  0  0  0  0  0  0
  143.0781  136.2616  151.9689 C   0  0  0  0  0  0  0  0  0  0  0  0
  144.3862  135.6090  151.7943 N   0  0  0  0  0  0  0  0  0  0  0  0
  145.6520  136.1219  151.8225 C   0  0  0  0  0  0  0  0  0  0  0  0
  146.0478  137.5451  152.0415 C   0  0  0  0  0  0  0  0  0  0  0  0
  146.6538  138.1139  150.9028 O   0  0  0  0  0  0  0  0  0  0  0  0
  146.5109  135.0877  151.5980 N   0  3  0  0  0  0  0  0  0  0  0  0
  145.7933  133.9033  151.4309 C   0  0  0  0  0  0  0  0  0  0  0  0
  146.2235  132.6035  151.1832 C   0  0  0  0  0  0  0  0  0  0  0  0
  145.2222  131.6168  151.0672 C   0  0  0  0  0  0  0  0  0  0  0  0
  143.8554  131.9389  151.1957 C   0  0  0  0  0  0  0  0  0  0  0  0
  143.4313  133.2608  151.4449 C   0  0  0  0  0  0  0  0  0  0  0  0
  144.4279  134.2300  151.5585 C   0  0  0  0  0  0  0  0  0  0  0  0
  142.0428  139.5369  155.0832 C   0  0  0  0  0  0  0  0  0  0  0  0
  141.9146  141.0581  155.2886 C   0  0  2  0  0  0  0  0  0  0  0  0
  142.4305  141.5013  156.6619 C   0  0  0  0  0  0  0  0  0  0  0  0
  140.5432  141.4255  155.1890 O   0  0  0  0  0  0  0  0  0  0  0  0
  138.0797  141.4625  152.9182 H   0  0  0  0  0  0  0  0  0  0  0  0
  138.5157  142.7234  154.0674 H   0  0  0  0  0  0  0  0  0  0  0  0
  137.9387  141.1645  154.6501 H   0  0  0  0  0  0  0  0  0  0  0  0
  140.5592  141.6550  153.1430 H   0  0  0  0  0  0  0  0  0  0  0  0
  139.4445  139.0836  154.3962 H   0  0  0  0  0  0  0  0  0  0  0  0
  139.6600  139.3859  152.6829 H   0  0  0  0  0  0  0  0  0  0  0  0
  141.3579  137.1162  154.4019 H   0  0  0  0  0  0  0  0  0  0  0  0
  140.9265  137.3843  152.7336 H   0  0  0  0  0  0  0  0  0  0  0  0
  143.6223  138.1788  152.7815 H   0  0  0  0  0  0  0  0  0  0  0  0
  143.0965  136.5063  154.8800 H   0  0  0  0  0  0  0  0  0  0  0  0
  142.3348  135.4862  152.1552 H   0  0  0  0  0  0  0  0  0  0  0  0
  142.7998  136.7243  151.0209 H   0  0  0  0  0  0  0  0  0  0  0  0
  145.1757  138.1354  152.3217 H   0  0  0  0  0  0  0  0  0  0  0  0
  146.7480  137.5994  152.8754 H   0  0  0  0  0  0  0  0  0  0  0  0
  145.9733  138.4408  150.3334 H   0  0  0  0  0  0  0  0  0  0  0  0
  147.2699  132.3542  151.0845 H   0  0  0  0  0  0  0  0  0  0  0  0
  145.5085  130.5926  150.8765 H   0  0  0  0  0  0  0  0  0  0  0  0
  143.1171  131.1556  151.1014 H   0  0  0  0  0  0  0  0  0  0  0  0
  142.3818  133.4963  151.5414 H   0  0  0  0  0  0  0  0  0  0  0  0
  141.5321  139.0018  155.8858 H   0  0  0  0  0  0  0  0  0  0  0  0
  143.0944  139.2500  155.1240 H   0  0  0  0  0  0  0  0  0  0  0  0
  142.4838  141.5826  154.5190 H   0  0  0  0  0  0  0  0  0  0  0  0
  143.4838  141.2481  156.7863 H   0  0  0  0  0  0  0  0  0  0  0  0
  141.8735  141.0220  157.4677 H   0  0  0  0  0  0  0  0  0  0  0  0
  142.3322  142.5800  156.7853 H   0  0  0  0  0  0  0  0  0  0  0  0
  142.0025  139.6235  153.0741 H   0  0  0  0  0  0  0  0  0  0  0  0
  147.5171  135.1896  151.5608 H   0  0  0  0  0  0  0  0  0  0  0  0
  1  2  1  0  0  0  0
  1 24  1  0  0  0  0
  1 25  1  0  0  0  0
  1 26  1  0  0  0  0
  2 23  1  0  0  0  0
  2  3  1  0  0  0  0
  2 27  1  0  0  0  0
  3  4  1  0  0  0  0
  3 28  1  0  0  0  0
  3 29  1  0  0  0  0
  4  5  1  0  0  0  0
  4 20  1  0  0  0  0
  4 49  1  0  0  0  0
  5  6  1  0  0  0  0
  5 30  1  0  0  0  0
  5 31  1  0  0  0  0
  6  7  1  0  0  0  0
  6  8  1  0  0  0  0
  6 32  1  0  0  0  0
  7 33  1  0  0  0  0
  8  9  1  0  0  0  0
  8 34  1  0  0  0  0
  8 35  1  0  0  0  0
  9 19  1  0  0  0  0
  9 10  1  0  0  0  0
 10 11  1  0  0  0  0
 10 13  2  0  0  0  0
 11 12  1  0  0  0  0
 11 36  1  0  0  0  0
 11 37  1  0  0  0  0
 12 38  1  0  0  0  0
 13 14  1  0  0  0  0
 13 50  1  0  0  0  0
 14 19  2  0  0  0  0
 14 15  1  0  0  0  0
 15 16  2  0  0  0  0
 15 39  1  0  0  0  0
 16 17  1  0  0  0  0
 16 40  1  0  0  0  0
 17 18  2  0  0  0  0
 17 41  1  0  0  0  0
 18 19  1  0  0  0  0
 18 42  1  0  0  0  0
 20 21  1  0  0  0  0
 20 43  1  0  0  0  0
 20 44  1  0  0  0  0
 21 22  1  0  0  0  0
 21 23  1  0  0  0  0
 21 45  1  0  0  0  0
 22 46  1  0  0  0  0
 22 47  1  0  0  0  0
 22 48  1  0  0  0  0
M  CHG  1   4   1
M  CHG  1  13   1
M  END
> <s_m_source_file>
AV-unprocessed.smi

> <i_m_source_file_index>
1703

> <i_lp_mmshare_version>
43012

> <i_f3d_flags>
0

> <s_epik_input>
W0NIM11bQ0BASF0xW0NIMl1OKFtDSDJdW0NASF0oTzEpW0NIM10pW0NIMl1bQ0BIXShbT0hdKVtDSDJdbihjKG4yKVtDSDJdW09IXSljKGMyMylbY0hdW2NIXVtjSF1bY0hdMw==

> <s_epik_cmdline>
J2VwaWtfcHl0aG9uJywgJy1waCcsICc3LjAnLCAnLXRuJywgJzgnLCAnLW1hJywgJzIwMCcsICctbWV0YWxfYmluZGluZycsICctaW1hZScsICc8aW5maWxlLm1hZT4nLCAnLW9tYWUnLCAnPG91dGZpbGUubWFlPic=

> <r_epik_Ionization_Penalty>
2.22579

> <r_epik_Ionization_Penalty_Charging>
2.22492

> <r_epik_Ionization_Penalty_Neutral>
0.000870007

> <r_epik_State_Penalty>
2.3141

> <r_epik_Charging_Adjusted_Penalty>
4.53902

> <i_epik_Tot_Q>
2

> <i_epik_Tot_abs_Q>
2

> <r_epik_Metal_State_Penalty>
6.36517

> <b_epik_Metal_Only>
0

> <s_lp_Force_Field>
OPLS_2005

> <r_lp_Energy>
26.5271

> <b_lp_Chiralities_Consistent>
1

> <s_lp_Variant>
AV-unprocessed.smi:1703-27

> <Gold.Version>
5.8.1

> <Gold.Id.Protein>
6NUR|6NUR_protein|mol2

> <Gold.PLP.Fitness>
52.5561

> <Gold.PLP.PLP>
-36.6040

> <Gold.PLP.part.hbond>
-4.1384

> <Gold.PLP.part.metal>
0.0000

> <Gold.PLP.part.buried>
-4.4960

> <Gold.PLP.part.nonpolar>
-28.3158

> <Gold.PLP.part.repulsive>
0.1918

> <Gold.PLP.ligand.clash>
0.0000

> <Gold.PLP.ligand.torsion>
1.1262

> <Gold.PLP.Chemscore.Hbond>
6.0000

> <Gold.PLP.Chemscore.CHOScore>
0.0000

> <Gold.PLP.Chemscore.Metal>
0.0000

> <Gold.Chemscore.Hbonds>
donor molecule, donor type, donor heavy atom, donor atom, acceptor molecule, acceptor atom, score
      L1  H     4    49       P1 10175  2.00
      L1  H    12    38       P1 10171  0.70
      L1  H    13    50       P1  7948  1.98
      P1  H  7954  7966       L1    12  1.00

> <Gold.PLP.Chemscore.Internal.Correction>
0.2044

> <Gold.Rescore>
     Score         DG    S(hbond)    S(metal)    S(lipo)     H(rot)  DE(clash)    DE(int)     intcor
     16.96     -18.23       3.61        0.00      72.30       3.04       0.08       1.19       ----

> <Gold.Chemscore.Fitness>
16.9618

> <Gold.Chemscore.DG>
-18.2317

> <Gold.Chemscore.ZeroCoef>
-5.4800

> <Gold.Chemscore.Hbond>
3.6135

> <Gold.Chemscore.Metal>
0.0000

> <Gold.Chemscore.Lipo>
72.3006

> <Gold.Chemscore.Internal_Hbond>
0.0000

> <Gold.Chemscore.DEClash>
0.0804

> <Gold.Chemscore.DEInternal>
1.1894

> <Gold.Chemscore.Rot>
3.0378

> <Gold.Chemscore.Internal.Correction>
   9.000000E+99

> <Gold.Chemscore.Hbonds>
donor molecule, donor type, donor heavy atom, donor atom, acceptor molecule, acceptor atom, score
      L1  H     4    49       P1 10175  0.72
      L1  H    12    38       P1 10171  0.68
      L1  H    13    50       P1  7948  0.73
      P1  H  7954  7966       L1    12  0.60

> <Gold.Chemscore.Hbond.Weighted>
-12.0692

> <Gold.Chemscore.Metal.Weighted>
-0.0000

> <Gold.Chemscore.Lipo.Weighted>
-8.4592

> <Gold.Chemscore.Internal_Hbond.Weighted>
0.0000

> <Gold.Chemscore.DEClash.Weighted>
0.0804

> <Gold.Chemscore.DEInternal.Weighted>
1.1894

> <Gold.Chemscore.Rot.Weighted>
7.7767

> <Gold.Chemscore.Internal.Correction.Weighted>
   9.000000E+99

> <Gold.Protein.RotatedTorsions>
[ 6907 6896 6895 6894 ] final   -9.97 input  -60.11 | X-H torsion
[ 7974 7965 7964 7962 ] final  174.42 input  175.53 | X-H torsion
[ 8008 7997 7996 7995 ] final   96.79 input   59.86 | X-H torsion
[ 10167 10162 10161 10158 ] final  144.16 input  -65.29 | X-H torsion
[ 10718 10713 10712 10709 ] final    7.30 input   66.30 | X-H torsion
[ 10763 10752 10751 10750 ] final  -38.10 input  -60.55 | X-H torsion
[ 11005 11000 10999 10996 ] final   85.03 input  -57.11 | X-H torsion

> <Gold.Protein.ActiveResidues>
 VAL166  LYS551  ARG553  GLY616  TRP617  ASP618  TYR619  PRO620  LYS621  CYS622 
 ASP623  PHE694  ASN695  SER759  ASP760  ASP761  ALA762  ILE779  LEU786  VAL792 
 PHE793  MET794  SER795  GLU796  ALA797  LYS798  CYS799  TRP800  GLU811  SER814 

> <Gold.Protein.RotatedAtoms>
  151.4094  135.0983  159.9580 H   0  0  0  0  0  0  0  0  0  0  0  0  # atno 6907 bound_to 6896
  152.5025  133.8812  159.7357 H   0  0  0  0  0  0  0  0  0  0  0  0  # atno 6908 bound_to 6896
  150.9303  133.6717  159.2840 H   0  0  0  0  0  0  0  0  0  0  0  0  # atno 6909 bound_to 6896
  144.7222  139.9794  143.6438 H   0  0  0  0  0  0  0  0  0  0  0  0  # atno 7974 bound_to 7965
  156.0833  140.3267  155.7722 H   0  0  0  0  0  0  0  0  0  0  0  0  # atno 8008 bound_to 7997
  155.5116  140.0577  157.2939 H   0  0  0  0  0  0  0  0  0  0  0  0  # atno 8009 bound_to 7997
  154.4595  140.1959  156.0302 H   0  0  0  0  0  0  0  0  0  0  0  0  # atno 8010 bound_to 7997
  139.4953  144.5991  151.6519 H   0  0  0  0  0  0  0  0  0  0  0  0  # atno 10167 bound_to 10162
  156.9348  130.5839  149.5650 H   0  0  0  0  0  0  0  0  0  0  0  0  # atno 10718 bound_to 10713
  153.9073  135.6796  153.4752 H   0  0  0  0  0  0  0  0  0  0  0  0  # atno 10763 bound_to 10752
  153.1097  135.4789  154.9011 H   0  0  0  0  0  0  0  0  0  0  0  0  # atno 10764 bound_to 10752
  154.7545  135.3193  154.8451 H   0  0  0  0  0  0  0  0  0  0  0  0  # atno 10765 bound_to 10752
  139.8983  134.8258  156.2527 H   0  0  0  0  0  0  0  0  0  0  0  0  # atno 11005 bound_to 11000
  146.0499  139.3501  143.0646 LP  0  0  0  0  0  0  0  0  0  0  0  0  # atno 17320 bound_to 7965
  145.8228  140.9670  143.0890 LP  0  0  0  0  0  0  0  0  0  0  0  0  # atno 17321 bound_to 7965
  140.5637  144.0226  150.6182 LP  0  0  0  0  0  0  0  0  0  0  0  0  # atno 17342 bound_to 10162
  140.3321  143.3071  152.0677 LP  0  0  0  0  0  0  0  0  0  0  0  0  # atno 17343 bound_to 10162
  156.0431  130.5511  150.8817 LP  0  0  0  0  0  0  0  0  0  0  0  0  # atno 17370 bound_to 10713
  157.5823  131.0946  150.9251 LP  0  0  0  0  0  0  0  0  0  0  0  0  # atno 17371 bound_to 10713
  141.0213  133.7039  156.1274 LP  0  0  0  0  0  0  0  0  0  0  0  0  # atno 17394 bound_to 11000
  140.7229  134.4339  157.5573 LP  0  0  0  0  0  0  0  0  0  0  0  0  # atno 17395 bound_to 11000

$$$$
