AV-unprocessed.smi:2143|AV-procd|sdf|8723|dock5
  -GOLD-   2272011493D 1   1.00000     0.00000
 Structure written by MMmdl.
 44 45  0  0  0  0  0  0  0  0  1 V2000
  151.9291  145.3864  159.8698 C   0  0  0  0  0  0  0  0  0  0  0  0
  152.1315  144.1532  158.9736 C   0  0  1  0  0  0  0  0  0  0  0  0
  152.4411  142.8899  159.8021 C   0  0  0  0  0  0  0  0  0  0  0  0
  152.7440  141.6849  158.8979 C   0  0  0  0  0  0  0  0  0  0  0  0
  151.6089  141.4338  157.8941 C   0  0  0  0  0  0  0  0  0  0  0  0
  151.3055  142.6975  157.0666 C   0  0  1  0  0  0  0  0  0  0  0  0
  150.2447  142.4136  156.1028 N   0  0  0  0  0  0  0  0  0  0  0  0
  150.1788  141.3294  155.3157 C   0  0  0  0  0  0  0  0  0  0  0  0
  151.0069  140.4183  155.3478 O   0  0  0  0  0  0  0  0  0  0  0  0
  148.9828  141.2655  154.3571 C   0  0  0  0  0  0  0  0  0  0  0  0
  147.7639  141.8525  154.9286 N   0  0  0  0  0  0  0  0  0  0  0  0
  146.9988  142.7191  154.1692 C   0  0  0  0  0  0  0  0  0  0  0  0
  145.8664  143.3023  154.6190 C   0  0  0  0  0  0  0  0  0  0  0  0
  145.3793  143.0463  155.9687 C   0  0  0  0  0  0  0  0  0  0  0  0
  144.3419  143.5371  156.4162 O   0  0  0  0  0  0  0  0  0  0  0  0
  146.1888  142.1718  156.7308 N   0  0  0  0  0  0  0  0  0  0  0  0
  145.7500  141.8659  158.0769 C   0  0  0  0  0  0  0  0  0  0  0  0
  147.3629  141.5486  156.2482 C   0  0  0  0  0  0  0  0  0  0  0  0
  148.0212  140.7634  156.9351 O   0  0  0  0  0  0  0  0  0  0  0  0
  150.9671  143.9119  157.9762 C   0  0  1  0  0  0  0  0  0  0  0  0
  149.5831  143.7969  158.6576 C   0  0  0  0  0  0  0  0  0  0  0  0
  151.1262  145.2362  160.5916 H   0  0  0  0  0  0  0  0  0  0  0  0
  151.6895  146.2695  159.2769 H   0  0  0  0  0  0  0  0  0  0  0  0
  152.8348  145.6070  160.4352 H   0  0  0  0  0  0  0  0  0  0  0  0
  153.0181  144.3622  158.3728 H   0  0  0  0  0  0  0  0  0  0  0  0
  153.2958  143.0742  160.4539 H   0  0  0  0  0  0  0  0  0  0  0  0
  151.6036  142.6559  160.4600 H   0  0  0  0  0  0  0  0  0  0  0  0
  153.6738  141.8624  158.3562 H   0  0  0  0  0  0  0  0  0  0  0  0
  152.9071  140.7948  159.5061 H   0  0  0  0  0  0  0  0  0  0  0  0
  151.8877  140.6133  157.2317 H   0  0  0  0  0  0  0  0  0  0  0  0
  150.7152  141.1057  158.4262 H   0  0  0  0  0  0  0  0  0  0  0  0
  152.2103  142.9359  156.5038 H   0  0  0  0  0  0  0  0  0  0  0  0
  149.5165  143.1074  156.0126 H   0  0  0  0  0  0  0  0  0  0  0  0
  149.2553  141.7868  153.4386 H   0  0  0  0  0  0  0  0  0  0  0  0
  148.7948  140.2309  154.0640 H   0  0  0  0  0  0  0  0  0  0  0  0
  147.3203  142.9436  153.1625 H   0  0  0  0  0  0  0  0  0  0  0  0
  145.3129  143.9668  153.9718 H   0  0  0  0  0  0  0  0  0  0  0  0
  146.5943  141.5412  158.6855 H   0  0  0  0  0  0  0  0  0  0  0  0
  144.9964  141.0817  157.9935 H   0  0  0  0  0  0  0  0  0  0  0  0
  145.3383  142.7707  158.5272 H   0  0  0  0  0  0  0  0  0  0  0  0
  150.9152  144.7914  157.3326 H   0  0  0  0  0  0  0  0  0  0  0  0
  149.5346  142.9566  159.3492 H   0  0  0  0  0  0  0  0  0  0  0  0
  148.7852  143.6664  157.9265 H   0  0  0  0  0  0  0  0  0  0  0  0
  149.3375  144.6987  159.2172 H   0  0  0  0  0  0  0  0  0  0  0  0
  1  2  1  0  0  0  0
  1 22  1  0  0  0  0
  1 23  1  0  0  0  0
  1 24  1  0  0  0  0
  2 20  1  0  0  0  0
  2  3  1  0  0  0  0
  2 25  1  0  0  0  0
  3  4  1  0  0  0  0
  3 26  1  0  0  0  0
  3 27  1  0  0  0  0
  4  5  1  0  0  0  0
  4 28  1  0  0  0  0
  4 29  1  0  0  0  0
  5  6  1  0  0  0  0
  5 30  1  0  0  0  0
  5 31  1  0  0  0  0
  6  7  1  0  0  0  0
  6 20  1  0  0  0  0
  6 32  1  0  0  0  0
  7  8  1  0  0  0  0
  7 33  1  0  0  0  0
  8  9  2  0  0  0  0
  8 10  1  0  0  0  0
 10 11  1  0  0  0  0
 10 34  1  0  0  0  0
 10 35  1  0  0  0  0
 11 18  1  0  0  0  0
 11 12  1  0  0  0  0
 12 13  2  0  0  0  0
 12 36  1  0  0  0  0
 13 14  1  0  0  0  0
 13 37  1  0  0  0  0
 14 15  2  0  0  0  0
 14 16  1  0  0  0  0
 16 17  1  0  0  0  0
 16 18  1  0  0  0  0
 17 38  1  0  0  0  0
 17 39  1  0  0  0  0
 17 40  1  0  0  0  0
 18 19  2  0  0  0  0
 20 21  1  0  0  0  0
 20 41  1  0  0  0  0
 21 42  1  0  0  0  0
 21 43  1  0  0  0  0
 21 44  1  0  0  0  0
M  END
> <s_m_source_file>
AV-unprocessed.smi

> <i_m_source_file_index>
2143

> <i_lp_mmshare_version>
43012

> <i_f3d_flags>
0

> <s_epik_input>
W0NIM11bQ0BASF0xW0NIMl1bQ0gyXVtDSDJdW0NASF0oW0NASF0xW0NIM10pW05IXUMoPU8pW0NIMl1uMltjSF1bY0hdYyg9TyluKFtDSDNdKWMyPU8=

> <s_epik_cmdline>
J2VwaWtfcHl0aG9uJywgJy1waCcsICc3LjAnLCAnLXRuJywgJzgnLCAnLW1hJywgJzIwMCcsICctbWV0YWxfYmluZGluZycsICctaW1hZScsICc8aW5maWxlLm1hZT4nLCAnLW9tYWUnLCAnPG91dGZpbGUubWFlPic=

> <r_lp_tautomer_probability>
1

> <r_epik_Ionization_Penalty>
3.18445e-08

> <r_epik_Ionization_Penalty_Charging>
1.27977e-08

> <r_epik_Ionization_Penalty_Neutral>
1.90469e-08

> <r_epik_State_Penalty>
-0

> <r_epik_Charging_Adjusted_Penalty>
1.27977e-08

> <i_epik_Tot_Q>
0

> <i_epik_Tot_abs_Q>
0

> <r_epik_Metal_State_Penalty>
-0

> <b_epik_Metal_Only>
0

> <s_lp_Force_Field>
OPLS_2005

> <r_lp_Energy>
21.6223

> <b_lp_Chiralities_Consistent>
1

> <s_lp_Variant>
AV-unprocessed.smi:2143-2

> <Gold.Version>
5.8.1

> <Gold.Id.Protein>
6NUR|6NUR_protein|mol2

> <Gold.PLP.Fitness>
46.5143

> <Gold.PLP.PLP>
-42.7588

> <Gold.PLP.part.hbond>
-2.0000

> <Gold.PLP.part.metal>
0.0000

> <Gold.PLP.part.buried>
-3.6631

> <Gold.PLP.part.nonpolar>
-36.5811

> <Gold.PLP.part.repulsive>
0.2087

> <Gold.PLP.ligand.clash>
0.0000

> <Gold.PLP.ligand.torsion>
0.6438

> <Gold.PLP.Chemscore.Hbond>
1.6760

> <Gold.PLP.Chemscore.CHOScore>
0.0000

> <Gold.PLP.Chemscore.Metal>
0.0000

> <Gold.Chemscore.Hbonds>
donor molecule, donor type, donor heavy atom, donor atom, acceptor molecule, acceptor atom, score
      L1  H     7    33       P1  8028  1.00
      P1  H  7989  7998       L1     9  0.55

> <Gold.PLP.Chemscore.Internal.Correction>
0.0151

> <Gold.Rescore>
     Score         DG    S(hbond)    S(metal)    S(lipo)     H(rot)  DE(clash)    DE(int)     intcor
     14.07     -17.30       1.28        0.00      97.47       1.51       0.40       2.83       ----

> <Gold.Chemscore.Fitness>
14.0698

> <Gold.Chemscore.DG>
-17.2987

> <Gold.Chemscore.ZeroCoef>
-5.4800

> <Gold.Chemscore.Hbond>
1.2838

> <Gold.Chemscore.Metal>
0.0000

> <Gold.Chemscore.Lipo>
97.4722

> <Gold.Chemscore.Internal_Hbond>
0.0000

> <Gold.Chemscore.DEClash>
0.4031

> <Gold.Chemscore.DEInternal>
2.8258

> <Gold.Chemscore.Rot>
1.5131

> <Gold.Chemscore.Internal.Correction>
   9.000000E+99

> <Gold.Chemscore.Hbonds>
donor molecule, donor type, donor heavy atom, donor atom, acceptor molecule, acceptor atom, score
      L1  H     7    33       P1  8028  0.98
      P1  H  7989  7998       L1     9  0.03

> <Gold.Chemscore.Hbond.Weighted>
-4.2879

> <Gold.Chemscore.Metal.Weighted>
-0.0000

> <Gold.Chemscore.Lipo.Weighted>
-11.4042

> <Gold.Chemscore.Internal_Hbond.Weighted>
0.0000

> <Gold.Chemscore.DEClash.Weighted>
0.4031

> <Gold.Chemscore.DEInternal.Weighted>
2.8258

> <Gold.Chemscore.Rot.Weighted>
3.8734

> <Gold.Chemscore.Internal.Correction.Weighted>
   9.000000E+99

> <Gold.Protein.RotatedTorsions>
[ 6907 6896 6895 6894 ] final   98.30 input  -60.11 | X-H torsion
[ 7974 7965 7964 7962 ] final    1.95 input  175.53 | X-H torsion
[ 8008 7997 7996 7995 ] final  127.06 input   59.86 | X-H torsion
[ 10167 10162 10161 10158 ] final  -59.90 input  -65.29 | X-H torsion
[ 10718 10713 10712 10709 ] final -169.83 input   66.30 | X-H torsion
[ 10763 10752 10751 10750 ] final  -56.57 input  -60.55 | X-H torsion
[ 11005 11000 10999 10996 ] final   94.69 input  -57.11 | X-H torsion

> <Gold.Protein.ActiveResidues>
 VAL166  LYS551  ARG553  GLY616  TRP617  ASP618  TYR619  PRO620  LYS621  CYS622 
 ASP623  PHE694  ASN695  SER759  ASP760  ASP761  ALA762  ILE779  LEU786  VAL792 
 PHE793  MET794  SER795  GLU796  ALA797  LYS798  CYS799  TRP800  GLU811  SER814 

> <Gold.Protein.RotatedAtoms>
  152.5411  134.0602  159.8148 H   0  0  0  0  0  0  0  0  0  0  0  0  # atno 6907 bound_to 6896
  151.0731  133.5442  159.2633 H   0  0  0  0  0  0  0  0  0  0  0  0  # atno 6908 bound_to 6896
  151.2298  135.0558  159.9037 H   0  0  0  0  0  0  0  0  0  0  0  0  # atno 6909 bound_to 6896
  146.2442  140.0910  142.8352 H   0  0  0  0  0  0  0  0  0  0  0  0  # atno 7974 bound_to 7965
  156.2881  140.2678  156.2212 H   0  0  0  0  0  0  0  0  0  0  0  0  # atno 8008 bound_to 7997
  155.0167  140.0387  157.2439 H   0  0  0  0  0  0  0  0  0  0  0  0  # atno 8009 bound_to 7997
  154.7471  140.2736  155.6328 H   0  0  0  0  0  0  0  0  0  0  0  0  # atno 8010 bound_to 7997
  140.6106  143.2386  151.5718 H   0  0  0  0  0  0  0  0  0  0  0  0  # atno 10167 bound_to 10162
  156.7172  130.9256  151.3094 H   0  0  0  0  0  0  0  0  0  0  0  0  # atno 10718 bound_to 10713
  154.2087  135.6398  153.5109 H   0  0  0  0  0  0  0  0  0  0  0  0  # atno 10763 bound_to 10752
  152.9995  135.5469  154.6238 H   0  0  0  0  0  0  0  0  0  0  0  0  # atno 10764 bound_to 10752
  154.5669  135.2913  155.0838 H   0  0  0  0  0  0  0  0  0  0  0  0  # atno 10765 bound_to 10752
  139.8796  134.8859  156.3901 H   0  0  0  0  0  0  0  0  0  0  0  0  # atno 11005 bound_to 11000
  145.0650  140.9115  143.4916 LP  0  0  0  0  0  0  0  0  0  0  0  0  # atno 17320 bound_to 7965
  145.1033  139.2807  143.5675 LP  0  0  0  0  0  0  0  0  0  0  0  0  # atno 17321 bound_to 7965
  139.5358  144.2785  152.1248 LP  0  0  0  0  0  0  0  0  0  0  0  0  # atno 17342 bound_to 10162
  140.1983  144.4683  150.6444 LP  0  0  0  0  0  0  0  0  0  0  0  0  # atno 17343 bound_to 10162
  157.6912  130.9236  150.0520 LP  0  0  0  0  0  0  0  0  0  0  0  0  # atno 17370 bound_to 10713
  156.1619  130.3644  149.9287 LP  0  0  0  0  0  0  0  0  0  0  0  0  # atno 17371 bound_to 10713
  140.9339  133.7560  156.0059 LP  0  0  0  0  0  0  0  0  0  0  0  0  # atno 17394 bound_to 11000
  140.8298  134.3191  157.5352 LP  0  0  0  0  0  0  0  0  0  0  0  0  # atno 17395 bound_to 11000

$$$$
