AV-unprocessed.smi:1810|AV-procd|sdf|7334|dock4
  -GOLD-   22720 8593D 1   1.00000     0.00000
 Structure written by MMmdl.
 39 40  0  0  0  0  0  0  0  0  2 V2000
  150.9926  144.5947  159.4438 C   0  0  0  0  0  0  0  0  0  0  0  0
  151.6371  143.2428  159.2950 C   0  0  0  0  0  0  0  0  0  0  0  0
  151.5105  142.6616  158.1474 N   0  0  0  0  0  0  0  0  0  0  0  0
  152.0658  141.4206  157.9046 N   0  0  0  0  0  0  0  0  0  0  0  0
  151.8134  140.9065  156.5542 C   0  0  0  0  0  0  0  0  0  0  0  0
  150.3244  140.9937  156.1863 C   0  0  0  0  0  0  0  0  0  0  0  0
  149.9516  139.7978  155.5158 O   0  0  0  0  0  0  0  0  0  0  0  0
  149.5220  138.7308  156.2761 C   0  0  0  0  0  0  0  0  0  0  0  0
  149.5541  138.6979  157.6942 C   0  0  0  0  0  0  0  0  0  0  0  0
  149.0960  137.5640  158.3930 C   0  0  0  0  0  0  0  0  0  0  0  0
  148.6018  136.4537  157.6809 C   0  0  0  0  0  0  0  0  0  0  0  0
  148.0156  135.0139  158.5738 S   0  0  0  0  0  0  0  0  0  0  0  0
  149.2413  134.0301  158.2065 N   0  5  0  0  0  0  0  0  0  0  0  0
  147.9877  135.3826  159.9978 O   0  0  0  0  0  0  0  0  0  0  0  0
  146.7512  134.6127  157.9370 O   0  0  0  0  0  0  0  0  0  0  0  0
  148.5631  136.4736  156.2729 C   0  0  0  0  0  0  0  0  0  0  0  0
  149.0229  137.6097  155.5797 C   0  0  0  0  0  0  0  0  0  0  0  0
  152.7800  140.6975  158.8135 C   0  0  0  0  0  0  0  0  0  0  0  0
  153.2551  139.5908  158.5546 O   0  0  0  0  0  0  0  0  0  0  0  0
  152.9187  141.3608  160.1120 C   0  0  0  0  0  0  0  0  0  0  0  0
  153.6604  140.6375  161.0939 C   0  0  0  0  0  0  0  0  0  0  0  0
  154.2685  140.0689  161.8984 N   0  0  0  0  0  0  0  0  0  0  0  0
  152.3779  142.5795  160.3634 C   0  0  0  0  0  0  0  0  0  0  0  0
  152.4937  143.3110  161.6937 C   0  0  0  0  0  0  0  0  0  0  0  0
  151.7295  145.3461  159.7279 H   0  0  0  0  0  0  0  0  0  0  0  0
  150.2191  144.5715  160.2117 H   0  0  0  0  0  0  0  0  0  0  0  0
  150.5260  144.9276  158.5153 H   0  0  0  0  0  0  0  0  0  0  0  0
  152.3985  141.4714  155.8263 H   0  0  0  0  0  0  0  0  0  0  0  0
  152.1613  139.8756  156.4676 H   0  0  0  0  0  0  0  0  0  0  0  0
  149.7230  141.1209  157.0878 H   0  0  0  0  0  0  0  0  0  0  0  0
  150.1557  141.8554  155.5383 H   0  0  0  0  0  0  0  0  0  0  0  0
  149.9272  139.5300  158.2713 H   0  0  0  0  0  0  0  0  0  0  0  0
  149.1288  137.5491  159.4724 H   0  0  0  0  0  0  0  0  0  0  0  0
  148.9158  133.3708  157.4896 H   0  0  0  0  0  0  0  0  0  0  0  0
  148.1874  135.6238  155.7225 H   0  0  0  0  0  0  0  0  0  0  0  0
  148.9930  137.6205  154.5001 H   0  0  0  0  0  0  0  0  0  0  0  0
  153.0281  142.7259  162.4418 H   0  0  0  0  0  0  0  0  0  0  0  0
  151.5053  143.5320  162.0979 H   0  0  0  0  0  0  0  0  0  0  0  0
  153.0320  144.2510  161.5665 H   0  0  0  0  0  0  0  0  0  0  0  0
  1  2  1  0  0  0  0
  1 25  1  0  0  0  0
  1 26  1  0  0  0  0
  1 27  1  0  0  0  0
  2 23  1  0  0  0  0
  2  3  2  0  0  0  0
  3  4  1  0  0  0  0
  4  5  1  0  0  0  0
  4 18  1  0  0  0  0
  5  6  1  0  0  0  0
  5 28  1  0  0  0  0
  5 29  1  0  0  0  0
  6  7  1  0  0  0  0
  6 30  1  0  0  0  0
  6 31  1  0  0  0  0
  7  8  1  0  0  0  0
  8 17  1  0  0  0  0
  8  9  2  0  0  0  0
  9 10  1  0  0  0  0
  9 32  1  0  0  0  0
 10 11  2  0  0  0  0
 10 33  1  0  0  0  0
 11 12  1  0  0  0  0
 11 16  1  0  0  0  0
 12 13  1  0  0  0  0
 12 14  2  0  0  0  0
 12 15  2  0  0  0  0
 13 34  1  0  0  0  0
 16 17  2  0  0  0  0
 16 35  1  0  0  0  0
 17 36  1  0  0  0  0
 18 19  2  0  0  0  0
 18 20  1  0  0  0  0
 20 21  1  0  0  0  0
 20 23  2  0  0  0  0
 21 22  3  0  0  0  0
 23 24  1  0  0  0  0
 24 37  1  0  0  0  0
 24 38  1  0  0  0  0
 24 39  1  0  0  0  0
M  CHG  1  13  -1
M  END
> <s_m_source_file>
AV-unprocessed.smi

> <i_m_source_file_index>
1810

> <i_lp_mmshare_version>
43012

> <i_f3d_flags>
0

> <s_epik_input>
TiNDYyhjMVtDSDNdKWMoPU8pbihuYzFbQ0gzXSlbQ0gyXVtDSDJdT2MyW2NIXVtjSF1jKFMoPU8pKD1PKVtOSDJdKVtjSF1bY0hdMg==

> <s_epik_cmdline>
J2VwaWtfcHl0aG9uJywgJy1waCcsICc3LjAnLCAnLXRuJywgJzgnLCAnLW1hJywgJzIwMCcsICctbWV0YWxfYmluZGluZycsICctaW1hZScsICc8aW5maWxlLm1hZT4nLCAnLW9tYWUnLCAnPG91dGZpbGUubWFlPic=

> <r_lp_tautomer_probability>
1

> <r_epik_Ionization_Penalty>
4.40921

> <r_epik_Ionization_Penalty_Charging>
4.40921

> <r_epik_Ionization_Penalty_Neutral>
1.83918e-13

> <r_epik_State_Penalty>
4.40908

> <r_epik_Charging_Adjusted_Penalty>
8.81829

> <i_epik_Tot_Q>
-1

> <i_epik_Tot_abs_Q>
1

> <r_epik_Metal_State_Penalty>
0.775711

> <b_epik_Metal_Only>
1

> <s_lp_Force_Field>
OPLS_2005

> <r_lp_Energy>
29.6197

> <b_lp_Chiralities_Consistent>
1

> <s_lp_Variant>
AV-unprocessed.smi:1810-2

> <Gold.Version>
5.8.1

> <Gold.Id.Protein>
6NUR|6NUR_protein|mol2

> <Gold.PLP.Fitness>
43.6315

> <Gold.PLP.PLP>
-35.9585

> <Gold.PLP.part.hbond>
-2.0000

> <Gold.PLP.part.metal>
0.0000

> <Gold.PLP.part.buried>
-6.9987

> <Gold.PLP.part.nonpolar>
-25.5868

> <Gold.PLP.part.repulsive>
0.1244

> <Gold.PLP.ligand.clash>
0.0000

> <Gold.PLP.ligand.torsion>
1.6654

> <Gold.PLP.Chemscore.Hbond>
2.9516

> <Gold.PLP.Chemscore.CHOScore>
0.0000

> <Gold.PLP.Chemscore.Metal>
0.0000

> <Gold.Chemscore.Hbonds>
donor molecule, donor type, donor heavy atom, donor atom, acceptor molecule, acceptor atom, score
      P1  H  6896  6909       L1    13  2.00
      P1  H  7997  8010       L1    19  0.89

> <Gold.PLP.Chemscore.Internal.Correction>
2.1489

> <Gold.Rescore>
     Score         DG    S(hbond)    S(metal)    S(lipo)     H(rot)  DE(clash)    DE(int)     intcor
     13.40     -16.16       1.89        0.00      79.70       1.94       1.11       1.65       ----

> <Gold.Chemscore.Fitness>
13.3983

> <Gold.Chemscore.DG>
-16.1632

> <Gold.Chemscore.ZeroCoef>
-5.4800

> <Gold.Chemscore.Hbond>
1.8923

> <Gold.Chemscore.Metal>
0.0000

> <Gold.Chemscore.Lipo>
79.7022

> <Gold.Chemscore.Internal_Hbond>
0.0000

> <Gold.Chemscore.DEClash>
1.1109

> <Gold.Chemscore.DEInternal>
1.6541

> <Gold.Chemscore.Rot>
1.9384

> <Gold.Chemscore.Internal.Correction>
   9.000000E+99

> <Gold.Chemscore.Hbonds>
donor molecule, donor type, donor heavy atom, donor atom, acceptor molecule, acceptor atom, score
      P1  H  6896  6909       L1    13  0.78
      P1  H  7997  8010       L1    19  0.30

> <Gold.Chemscore.Hbond.Weighted>
-6.3203

> <Gold.Chemscore.Metal.Weighted>
-0.0000

> <Gold.Chemscore.Lipo.Weighted>
-9.3252

> <Gold.Chemscore.Internal_Hbond.Weighted>
0.0000

> <Gold.Chemscore.DEClash.Weighted>
1.1109

> <Gold.Chemscore.DEInternal.Weighted>
1.6541

> <Gold.Chemscore.Rot.Weighted>
4.9622

> <Gold.Chemscore.Internal.Correction.Weighted>
   9.000000E+99

> <Gold.Protein.RotatedTorsions>
[ 6907 6896 6895 6894 ] final   30.18 input  -60.11 | X-H torsion
[ 7974 7965 7964 7962 ] final -151.73 input  175.53 | X-H torsion
[ 8008 7997 7996 7995 ] final   31.40 input   59.86 | X-H torsion
[ 10167 10162 10161 10158 ] final  131.28 input  -65.29 | X-H torsion
[ 10718 10713 10712 10709 ] final  -39.91 input   66.30 | X-H torsion
[ 10763 10752 10751 10750 ] final -163.32 input  -60.55 | X-H torsion
[ 11005 11000 10999 10996 ] final   81.30 input  -57.11 | X-H torsion

> <Gold.Protein.ActiveResidues>
 VAL166  LYS551  ARG553  GLY616  TRP617  ASP618  TYR619  PRO620  LYS621  CYS622 
 ASP623  PHE694  ASN695  SER759  ASP760  ASP761  ALA762  ILE779  LEU786  VAL792 
 PHE793  MET794  SER795  GLU796  ALA797  LYS798  CYS799  TRP800  GLU811  SER814 

> <Gold.Protein.RotatedAtoms>
  152.0423  134.9704  160.0573 H   0  0  0  0  0  0  0  0  0  0  0  0  # atno 6907 bound_to 6896
  152.1137  133.4310  159.4651 H   0  0  0  0  0  0  0  0  0  0  0  0  # atno 6908 bound_to 6896
  150.6845  134.2536  159.4564 H   0  0  0  0  0  0  0  0  0  0  0  0  # atno 6909 bound_to 6896
  144.7833  140.4758  143.5823 H   0  0  0  0  0  0  0  0  0  0  0  0  # atno 7974 bound_to 7965
  155.1058  140.3234  155.4535 H   0  0  0  0  0  0  0  0  0  0  0  0  # atno 8008 bound_to 7997
  156.2704  140.2053  156.6131 H   0  0  0  0  0  0  0  0  0  0  0  0  # atno 8009 bound_to 7997
  154.6794  140.0528  157.0237 H   0  0  0  0  0  0  0  0  0  0  0  0  # atno 8010 bound_to 7997
  139.5391  144.6712  151.4685 H   0  0  0  0  0  0  0  0  0  0  0  0  # atno 10167 bound_to 10162
  156.2872  130.4224  149.8275 H   0  0  0  0  0  0  0  0  0  0  0  0  # atno 10718 bound_to 10713
  154.7133  135.3010  154.9163 H   0  0  0  0  0  0  0  0  0  0  0  0  # atno 10763 bound_to 10752
  154.0057  135.6701  153.4766 H   0  0  0  0  0  0  0  0  0  0  0  0  # atno 10764 bound_to 10752
  153.0773  135.5028  154.8345 H   0  0  0  0  0  0  0  0  0  0  0  0  # atno 10765 bound_to 10752
  139.9103  134.7986  156.2022 H   0  0  0  0  0  0  0  0  0  0  0  0  # atno 11005 bound_to 11000
  145.5989  139.1502  143.3140 LP  0  0  0  0  0  0  0  0  0  0  0  0  # atno 17320 bound_to 7965
  146.2053  140.6111  142.9084 LP  0  0  0  0  0  0  0  0  0  0  0  0  # atno 17321 bound_to 7965
  140.6612  143.8494  150.6890 LP  0  0  0  0  0  0  0  0  0  0  0  0  # atno 17342 bound_to 10162
  140.1889  143.4053  152.1878 LP  0  0  0  0  0  0  0  0  0  0  0  0  # atno 17343 bound_to 10162
  156.5701  130.8421  151.3354 LP  0  0  0  0  0  0  0  0  0  0  0  0  # atno 17370 bound_to 10713
  157.7332  130.9727  150.1966 LP  0  0  0  0  0  0  0  0  0  0  0  0  # atno 17371 bound_to 10713
  141.0517  133.6885  156.1785 LP  0  0  0  0  0  0  0  0  0  0  0  0  # atno 17394 bound_to 11000
  140.6799  134.4778  157.5589 LP  0  0  0  0  0  0  0  0  0  0  0  0  # atno 17395 bound_to 11000

$$$$
