AV-unprocessed.smi:878|AV-procd|sdf|4031|dock3
  -GOLD-   22720 1523D 1   1.00000     0.00000
 Structure written by MMmdl.
 33 34  0  0  0  0  0  0  0  0  1 V2000
  150.0497  145.2705  159.9943 C   0  0  0  0  0  0  0  0  0  0  0  0
  151.8305  145.0784  160.2765 S   0  0  0  0  0  0  0  0  0  0  0  0
  152.2981  143.4501  159.7638 C   0  0  0  0  0  0  0  0  0  0  0  0
  152.9402  142.5544  160.6443 C   0  0  0  0  0  0  0  0  0  0  0  0
  153.3002  141.2653  160.2042 C   0  0  0  0  0  0  0  0  0  0  0  0
  153.0204  140.8539  158.8770 C   0  0  0  0  0  0  0  0  0  0  0  0
  153.3309  139.6120  158.3674 O   0  0  0  0  0  0  0  0  0  0  0  0
  153.9771  138.6742  159.2172 C   0  0  0  0  0  0  0  0  0  0  0  0
  153.0121  138.2245  160.3267 C   0  0  0  0  0  0  0  0  0  0  0  0
  153.6399  137.3868  161.3205 N   0  0  0  0  0  0  0  0  0  0  0  0
  153.8626  137.8240  162.6170 C   0  0  0  0  0  0  0  0  0  0  0  0
  154.4637  137.0650  163.5648 C   0  0  0  0  0  0  0  0  0  0  0  0
  154.7061  137.6823  165.1596 Cl  0  0  0  0  0  0  0  0  0  0  0  0
  154.9157  135.7125  163.2410 C   0  0  0  0  0  0  0  0  0  0  0  0
  155.4667  134.9394  164.0222 O   0  0  0  0  0  0  0  0  0  0  0  0
  154.6789  135.3168  161.9211 N   0  0  0  0  0  0  0  0  0  0  0  0
  154.0638  136.0924  160.9378 C   0  0  0  0  0  0  0  0  0  0  0  0
  153.9171  135.6368  159.8037 O   0  0  0  0  0  0  0  0  0  0  0  0
  152.3801  141.7587  158.0065 C   0  0  0  0  0  0  0  0  0  0  0  0
  152.0229  143.0486  158.4430 C   0  0  0  0  0  0  0  0  0  0  0  0
  154.9807  134.3906  161.6556 H   0  0  0  0  0  0  0  0  0  0  0  0
  149.7421  146.2878  160.2362 H   0  0  0  0  0  0  0  0  0  0  0  0
  149.4832  144.5840  160.6234 H   0  0  0  0  0  0  0  0  0  0  0  0
  149.8057  145.0773  158.9495 H   0  0  0  0  0  0  0  0  0  0  0  0
  153.1670  142.8372  161.6602 H   0  0  0  0  0  0  0  0  0  0  0  0
  153.7887  140.6085  160.9076 H   0  0  0  0  0  0  0  0  0  0  0  0
  154.3188  137.8092  158.6460 H   0  0  0  0  0  0  0  0  0  0  0  0
  154.8505  139.1388  159.6768 H   0  0  0  0  0  0  0  0  0  0  0  0
  152.6375  139.0916  160.8728 H   0  0  0  0  0  0  0  0  0  0  0  0
  152.1292  137.7123  159.9388 H   0  0  0  0  0  0  0  0  0  0  0  0
  153.5438  138.8207  162.8880 H   0  0  0  0  0  0  0  0  0  0  0  0
  152.1613  141.4602  156.9918 H   0  0  0  0  0  0  0  0  0  0  0  0
  151.5339  143.7282  157.7605 H   0  0  0  0  0  0  0  0  0  0  0  0
  1  2  1  0  0  0  0
  1 22  1  0  0  0  0
  1 23  1  0  0  0  0
  1 24  1  0  0  0  0
  2  3  1  0  0  0  0
  3 20  1  0  0  0  0
  3  4  2  0  0  0  0
  4  5  1  0  0  0  0
  4 25  1  0  0  0  0
  5  6  2  0  0  0  0
  5 26  1  0  0  0  0
  6  7  1  0  0  0  0
  6 19  1  0  0  0  0
  7  8  1  0  0  0  0
  8  9  1  0  0  0  0
  8 27  1  0  0  0  0
  8 28  1  0  0  0  0
  9 10  1  0  0  0  0
  9 29  1  0  0  0  0
  9 30  1  0  0  0  0
 10 17  1  0  0  0  0
 10 11  1  0  0  0  0
 11 12  2  0  0  0  0
 11 31  1  0  0  0  0
 12 13  1  0  0  0  0
 12 14  1  0  0  0  0
 14 15  2  0  0  0  0
 14 16  1  0  0  0  0
 16 21  1  0  0  0  0
 16 17  1  0  0  0  0
 17 18  2  0  0  0  0
 19 20  2  0  0  0  0
 19 32  1  0  0  0  0
 20 33  1  0  0  0  0
M  END
> <s_m_source_file>
AV-unprocessed.smi

> <i_m_source_file_index>
878

> <i_lp_mmshare_version>
43012

> <i_f3d_flags>
0

> <s_epik_input>
W0NIM11TYzFbY0hdW2NIXWMoW2NIXVtjSF0xKU9bQ0gyXVtDSDJdbjJbY0hdYyhDbCljKD1PKVtuSF1jMj1P

> <s_epik_cmdline>
J2VwaWtfcHl0aG9uJywgJy1waCcsICc3LjAnLCAnLXRuJywgJzgnLCAnLW1hJywgJzIwMCcsICctbWV0YWxfYmluZGluZycsICctaW1hZScsICc8aW5maWxlLm1hZT4nLCAnLW9tYWUnLCAnPG91dGZpbGUubWFlPic=

> <r_lp_tautomer_probability>
0.999537

> <r_epik_Ionization_Penalty>
0.037527

> <r_epik_Ionization_Penalty_Charging>
0.037527

> <r_epik_Ionization_Penalty_Neutral>
0

> <r_epik_State_Penalty>
0.0314158

> <r_epik_Charging_Adjusted_Penalty>
0.0689428

> <i_epik_Tot_Q>
0

> <i_epik_Tot_abs_Q>
0

> <r_epik_Metal_State_Penalty>
2.37917

> <b_epik_Metal_Only>
0

> <s_lp_Force_Field>
OPLS_2005

> <r_lp_Energy>
14.7844

> <b_lp_Chiralities_Consistent>
1

> <s_lp_Variant>
AV-unprocessed.smi:878-1

> <Gold.Version>
5.8.1

> <Gold.Id.Protein>
6NUR|6NUR_protein|mol2

> <Gold.PLP.Fitness>
45.0070

> <Gold.PLP.PLP>
-39.2166

> <Gold.PLP.part.hbond>
-2.0000

> <Gold.PLP.part.metal>
0.0000

> <Gold.PLP.part.buried>
-5.2630

> <Gold.PLP.part.nonpolar>
-32.5399

> <Gold.PLP.part.repulsive>
0.0945

> <Gold.PLP.ligand.clash>
0.0000

> <Gold.PLP.ligand.torsion>
0.1161

> <Gold.PLP.Chemscore.Hbond>
2.0000

> <Gold.PLP.Chemscore.CHOScore>
0.0000

> <Gold.PLP.Chemscore.Metal>
0.0000

> <Gold.Chemscore.Hbonds>
donor molecule, donor type, donor heavy atom, donor atom, acceptor molecule, acceptor atom, score
      P1  H  6896  6907       L1    18  1.00
      P1  H  7997  8009       L1     7  1.00

> <Gold.PLP.Chemscore.Internal.Correction>
0.0226

> <Gold.Rescore>
     Score         DG    S(hbond)    S(metal)    S(lipo)     H(rot)  DE(clash)    DE(int)     intcor
     16.45     -16.62       1.00        0.00     110.00       1.98       0.01       0.16       ----

> <Gold.Chemscore.Fitness>
16.4491

> <Gold.Chemscore.DG>
-16.6189

> <Gold.Chemscore.ZeroCoef>
-5.4800

> <Gold.Chemscore.Hbond>
0.9958

> <Gold.Chemscore.Metal>
0.0000

> <Gold.Chemscore.Lipo>
110.0022

> <Gold.Chemscore.Internal_Hbond>
0.0000

> <Gold.Chemscore.DEClash>
0.0135

> <Gold.Chemscore.DEInternal>
0.1563

> <Gold.Chemscore.Rot>
1.9755

> <Gold.Chemscore.Internal.Correction>
   9.000000E+99

> <Gold.Chemscore.Hbonds>
donor molecule, donor type, donor heavy atom, donor atom, acceptor molecule, acceptor atom, score
      P1  H  6896  6907       L1    18  0.45
      P1  H  7997  8009       L1     7  0.22

> <Gold.Chemscore.Hbond.Weighted>
-3.3261

> <Gold.Chemscore.Metal.Weighted>
-0.0000

> <Gold.Chemscore.Lipo.Weighted>
-12.8703

> <Gold.Chemscore.Internal_Hbond.Weighted>
0.0000

> <Gold.Chemscore.DEClash.Weighted>
0.0135

> <Gold.Chemscore.DEInternal.Weighted>
0.1563

> <Gold.Chemscore.Rot.Weighted>
5.0574

> <Gold.Chemscore.Internal.Correction.Weighted>
   9.000000E+99

> <Gold.Protein.RotatedTorsions>
[ 6907 6896 6895 6894 ] final   71.86 input  -60.11 | X-H torsion
[ 7974 7965 7964 7962 ] final  109.58 input  175.53 | X-H torsion
[ 8008 7997 7996 7995 ] final  161.74 input   59.86 | X-H torsion
[ 10167 10162 10161 10158 ] final  136.30 input  -65.29 | X-H torsion
[ 10718 10713 10712 10709 ] final -157.40 input   66.30 | X-H torsion
[ 10763 10752 10751 10750 ] final  -49.36 input  -60.55 | X-H torsion
[ 11005 11000 10999 10996 ] final -138.14 input  -57.11 | X-H torsion

> <Gold.Protein.ActiveResidues>
 VAL166  LYS551  ARG553  GLY616  TRP617  ASP618  TYR619  PRO620  LYS621  CYS622 
 ASP623  PHE694  ASN695  SER759  ASP760  ASP761  ALA762  ILE779  LEU786  VAL792 
 PHE793  MET794  SER795  GLU796  ALA797  LYS798  CYS799  TRP800  GLU811  SER814 

> <Gold.Protein.RotatedAtoms>
  152.4835  134.4657  159.9619 H   0  0  0  0  0  0  0  0  0  0  0  0  # atno 6907 bound_to 6896
  151.4658  133.3575  159.2824 H   0  0  0  0  0  0  0  0  0  0  0  0  # atno 6908 bound_to 6896
  150.8926  134.8356  159.7364 H   0  0  0  0  0  0  0  0  0  0  0  0  # atno 6909 bound_to 6896
  145.2659  139.2685  143.3992 H   0  0  0  0  0  0  0  0  0  0  0  0  # atno 7974 bound_to 7965
  156.2081  140.1769  156.7755 H   0  0  0  0  0  0  0  0  0  0  0  0  # atno 8008 bound_to 7997
  154.5684  140.0687  156.8956 H   0  0  0  0  0  0  0  0  0  0  0  0  # atno 8009 bound_to 7997
  155.2719  140.3343  155.4267 H   0  0  0  0  0  0  0  0  0  0  0  0  # atno 8010 bound_to 7997
  139.5185  144.6472  151.5406 H   0  0  0  0  0  0  0  0  0  0  0  0  # atno 10167 bound_to 10162
  156.5398  130.8558  151.2745 H   0  0  0  0  0  0  0  0  0  0  0  0  # atno 10718 bound_to 10713
  154.0928  135.6575  153.4855 H   0  0  0  0  0  0  0  0  0  0  0  0  # atno 10763 bound_to 10752
  153.0315  135.5206  154.7363 H   0  0  0  0  0  0  0  0  0  0  0  0  # atno 10764 bound_to 10752
  154.6492  135.2999  154.9977 H   0  0  0  0  0  0  0  0  0  0  0  0  # atno 10765 bound_to 10752
  140.8644  134.2129  157.4688 H   0  0  0  0  0  0  0  0  0  0  0  0  # atno 11005 bound_to 11000
  146.3261  140.3089  142.8625 LP  0  0  0  0  0  0  0  0  0  0  0  0  # atno 17320 bound_to 7965
  144.9377  140.8045  143.5650 LP  0  0  0  0  0  0  0  0  0  0  0  0  # atno 17321 bound_to 7965
  140.6262  143.9165  150.6566 LP  0  0  0  0  0  0  0  0  0  0  0  0  # atno 17342 bound_to 10162
  140.2454  143.3632  152.1451 LP  0  0  0  0  0  0  0  0  0  0  0  0  # atno 17343 bound_to 10162
  157.7407  130.9856  150.2397 LP  0  0  0  0  0  0  0  0  0  0  0  0  # atno 17370 bound_to 10713
  156.2982  130.3755  149.7775 LP  0  0  0  0  0  0  0  0  0  0  0  0  # atno 17371 bound_to 10713
  139.8708  134.9745  156.4847 LP  0  0  0  0  0  0  0  0  0  0  0  0  # atno 17394 bound_to 11000
  140.8646  133.8034  155.9300 LP  0  0  0  0  0  0  0  0  0  0  0  0  # atno 17395 bound_to 11000

$$$$
