AV-unprocessed.smi:2724|AV-procd|sdf|10507|dock1
  -GOLD-   2272014553D 1   1.00000     0.00000
 Structure written by MMmdl.
 25 26  0  0  0  0  0  0  0  0  1 V2000
  151.1830  143.2886  161.8835 O   0  0  0  0  0  0  0  0  0  0  0  0
  152.0146  143.7793  160.8526 C   0  0  2  0  0  0  0  0  0  0  0  0
  151.5396  145.1446  160.3583 C   0  0  0  0  0  0  0  0  0  0  0  0
  152.1603  145.2708  158.9678 C   0  0  0  0  0  0  0  0  0  0  0  0
  152.2340  143.8411  158.4122 C   0  0  0  0  0  0  0  0  0  0  0  0
  151.9687  142.8912  159.5982 C   0  0  1  0  0  0  0  0  0  0  0  0
  152.9202  141.7027  159.6475 C   0  0  0  0  0  0  0  0  0  0  0  0
  153.7968  141.5023  160.7363 C   0  0  0  0  0  0  0  0  0  0  0  0
  154.6530  140.3848  160.7258 C   0  0  0  0  0  0  0  0  0  0  0  0
  154.5979  139.5087  159.6240 C   0  0  0  0  0  0  0  0  0  0  0  0
  153.7651  139.6875  158.5765 N   0  0  0  0  0  0  0  0  0  0  0  0
  152.9480  140.7626  158.5945 C   0  0  0  0  0  0  0  0  0  0  0  0
  151.0968  143.9600  162.5431 H   0  0  0  0  0  0  0  0  0  0  0  0
  153.0347  143.8796  161.2245 H   0  0  0  0  0  0  0  0  0  0  0  0
  150.4519  145.1558  160.2705 H   0  0  0  0  0  0  0  0  0  0  0  0
  151.8288  145.9586  161.0239 H   0  0  0  0  0  0  0  0  0  0  0  0
  151.5921  145.9401  158.3212 H   0  0  0  0  0  0  0  0  0  0  0  0
  153.1683  145.6779  159.0567 H   0  0  0  0  0  0  0  0  0  0  0  0
  151.4928  143.6818  157.6283 H   0  0  0  0  0  0  0  0  0  0  0  0
  153.2123  143.6770  157.9590 H   0  0  0  0  0  0  0  0  0  0  0  0
  150.9493  142.5169  159.4855 H   0  0  0  0  0  0  0  0  0  0  0  0
  153.8164  142.1930  161.5666 H   0  0  0  0  0  0  0  0  0  0  0  0
  155.3360  140.2038  161.5425 H   0  0  0  0  0  0  0  0  0  0  0  0
  155.2408  138.6418  159.5829 H   0  0  0  0  0  0  0  0  0  0  0  0
  152.2971  140.8731  157.7396 H   0  0  0  0  0  0  0  0  0  0  0  0
  1  2  1  0  0  0  0
  1 13  1  0  0  0  0
  2  6  1  0  0  0  0
  2  3  1  0  0  0  0
  2 14  1  0  0  0  0
  3  4  1  0  0  0  0
  3 15  1  0  0  0  0
  3 16  1  0  0  0  0
  4  5  1  0  0  0  0
  4 17  1  0  0  0  0
  4 18  1  0  0  0  0
  5  6  1  0  0  0  0
  5 19  1  0  0  0  0
  5 20  1  0  0  0  0
  6  7  1  0  0  0  0
  6 21  1  0  0  0  0
  7 12  1  0  0  0  0
  7  8  2  0  0  0  0
  8  9  1  0  0  0  0
  8 22  1  0  0  0  0
  9 10  2  0  0  0  0
  9 23  1  0  0  0  0
 10 11  1  0  0  0  0
 10 24  1  0  0  0  0
 11 12  2  0  0  0  0
 12 25  1  0  0  0  0
M  END
> <s_m_source_file>
AV-unprocessed.smi

> <i_m_source_file_index>
2724

> <i_lp_mmshare_version>
43012

> <i_f3d_flags>
0

> <s_epik_input>
W09IXVtDQEBIXTFbQ0gyXVtDSDJdW0NIMl1bQ0BIXTFjMltjSF1bY0hdW2NIXW5bY0hdMg==

> <s_epik_cmdline>
J2VwaWtfcHl0aG9uJywgJy1waCcsICc3LjAnLCAnLXRuJywgJzgnLCAnLW1hJywgJzIwMCcsICctbWV0YWxfYmluZGluZycsICctaW1hZScsICc8aW5maWxlLm1hZT4nLCAnLW9tYWUnLCAnPG91dGZpbGUubWFlPic=

> <r_epik_Ionization_Penalty>
0.0175299

> <r_epik_Ionization_Penalty_Charging>
0

> <r_epik_Ionization_Penalty_Neutral>
0.0175299

> <r_epik_State_Penalty>
0.0138989

> <r_epik_Charging_Adjusted_Penalty>
0.0138989

> <i_epik_Tot_Q>
0

> <i_epik_Tot_abs_Q>
0

> <r_epik_Metal_State_Penalty>
1.40631e-05

> <b_epik_Metal_Only>
0

> <s_lp_Force_Field>
OPLS_2005

> <r_lp_Energy>
19.5065

> <b_lp_Chiralities_Consistent>
1

> <s_lp_Variant>
AV-unprocessed.smi:2724-1

> <Gold.Version>
5.8.1

> <Gold.Id.Protein>
6NUR|6NUR_protein|mol2

> <Gold.PLP.Fitness>
40.7963

> <Gold.PLP.PLP>
-36.2925

> <Gold.PLP.part.hbond>
-3.0000

> <Gold.PLP.part.metal>
0.0000

> <Gold.PLP.part.buried>
-3.8442

> <Gold.PLP.part.nonpolar>
-29.5732

> <Gold.PLP.part.repulsive>
0.0000

> <Gold.PLP.ligand.clash>
0.0000

> <Gold.PLP.ligand.torsion>
0.0132

> <Gold.PLP.Chemscore.Hbond>
1.5099

> <Gold.PLP.Chemscore.CHOScore>
0.0000

> <Gold.PLP.Chemscore.Metal>
0.0000

> <Gold.Chemscore.Hbonds>
donor molecule, donor type, donor heavy atom, donor atom, acceptor molecule, acceptor atom, score
      P1  H  6933  6945       L1     1  0.53
      P1  H  7997  8010       L1    11  1.00

> <Gold.PLP.Chemscore.Internal.Correction>
0.0005

> <Gold.Rescore>
     Score         DG    S(hbond)    S(metal)    S(lipo)     H(rot)  DE(clash)    DE(int)     intcor
     16.36     -18.17       1.28        0.00     100.89       1.32       1.80       0.01       ----

> <Gold.Chemscore.Fitness>
16.3618

> <Gold.Chemscore.DG>
-18.1664

> <Gold.Chemscore.ZeroCoef>
-5.4800

> <Gold.Chemscore.Hbond>
1.2751

> <Gold.Chemscore.Metal>
0.0000

> <Gold.Chemscore.Lipo>
100.8949

> <Gold.Chemscore.Internal_Hbond>
0.0000

> <Gold.Chemscore.DEClash>
1.7978

> <Gold.Chemscore.DEInternal>
0.0068

> <Gold.Chemscore.Rot>
1.3192

> <Gold.Chemscore.Internal.Correction>
   9.000000E+99

> <Gold.Chemscore.Hbonds>
donor molecule, donor type, donor heavy atom, donor atom, acceptor molecule, acceptor atom, score
      P1  H  6933  6945       L1     1  0.43
      P1  H  7997  8010       L1    11  0.20

> <Gold.Chemscore.Hbond.Weighted>
-4.2589

> <Gold.Chemscore.Metal.Weighted>
-0.0000

> <Gold.Chemscore.Lipo.Weighted>
-11.8047

> <Gold.Chemscore.Internal_Hbond.Weighted>
0.0000

> <Gold.Chemscore.DEClash.Weighted>
1.7978

> <Gold.Chemscore.DEInternal.Weighted>
0.0068

> <Gold.Chemscore.Rot.Weighted>
3.3772

> <Gold.Chemscore.Internal.Correction.Weighted>
   9.000000E+99

> <Gold.Protein.RotatedTorsions>
[ 6907 6896 6895 6894 ] final  -93.24 input  -60.11 | X-H torsion
[ 7974 7965 7964 7962 ] final -132.85 input  175.53 | X-H torsion
[ 8008 7997 7996 7995 ] final   18.11 input   59.86 | X-H torsion
[ 10167 10162 10161 10158 ] final  124.63 input  -65.29 | X-H torsion
[ 10718 10713 10712 10709 ] final   35.17 input   66.30 | X-H torsion
[ 10763 10752 10751 10750 ] final  -92.57 input  -60.55 | X-H torsion
[ 11005 11000 10999 10996 ] final  -92.45 input  -57.11 | X-H torsion

> <Gold.Protein.ActiveResidues>
 VAL166  LYS551  ARG553  GLY616  TRP617  ASP618  TYR619  PRO620  LYS621  CYS622 
 ASP623  PHE694  ASN695  SER759  ASP760  ASP761  ALA762  ILE779  LEU786  VAL792 
 PHE793  MET794  SER795  GLU796  ALA797  LYS798  CYS799  TRP800  GLU811  SER814 

> <Gold.Protein.RotatedAtoms>
  150.6919  134.1998  159.4317 H   0  0  0  0  0  0  0  0  0  0  0  0  # atno 6907 bound_to 6896
  151.9964  134.9949  160.0573 H   0  0  0  0  0  0  0  0  0  0  0  0  # atno 6908 bound_to 6896
  152.1619  133.4552  159.4902 H   0  0  0  0  0  0  0  0  0  0  0  0  # atno 6909 bound_to 6896
  144.9247  140.7057  143.4943 H   0  0  0  0  0  0  0  0  0  0  0  0  # atno 7974 bound_to 7965
  154.9013  140.3001  155.5316 H   0  0  0  0  0  0  0  0  0  0  0  0  # atno 8008 bound_to 7997
  156.3018  140.2406  156.3976 H   0  0  0  0  0  0  0  0  0  0  0  0  # atno 8009 bound_to 7997
  154.8519  140.0409  157.1598 H   0  0  0  0  0  0  0  0  0  0  0  0  # atno 8010 bound_to 7997
  139.5731  144.6949  151.3726 H   0  0  0  0  0  0  0  0  0  0  0  0  # atno 10167 bound_to 10162
  157.3193  130.7440  149.6775 H   0  0  0  0  0  0  0  0  0  0  0  0  # atno 10718 bound_to 10713
  154.6874  135.5226  153.8345 H   0  0  0  0  0  0  0  0  0  0  0  0  # atno 10763 bound_to 10752
  153.0607  135.6567  154.0478 H   0  0  0  0  0  0  0  0  0  0  0  0  # atno 10764 bound_to 10752
  154.0357  135.2981  155.3342 H   0  0  0  0  0  0  0  0  0  0  0  0  # atno 10765 bound_to 10752
  141.1521  133.7822  157.0022 H   0  0  0  0  0  0  0  0  0  0  0  0  # atno 11005 bound_to 11000
  145.3238  139.1780  143.4573 LP  0  0  0  0  0  0  0  0  0  0  0  0  # atno 17320 bound_to 7965
  146.3221  140.3259  142.8636 LP  0  0  0  0  0  0  0  0  0  0  0  0  # atno 17321 bound_to 7965
  140.7014  143.7621  150.7410 LP  0  0  0  0  0  0  0  0  0  0  0  0  # atno 17342 bound_to 10162
  140.1133  143.4679  152.2357 LP  0  0  0  0  0  0  0  0  0  0  0  0  # atno 17343 bound_to 10162
  155.9684  130.4228  150.4532 LP  0  0  0  0  0  0  0  0  0  0  0  0  # atno 17370 bound_to 10713
  157.2544  131.0553  151.2359 LP  0  0  0  0  0  0  0  0  0  0  0  0  # atno 17371 bound_to 10713
  140.0933  134.9580  157.1809 LP  0  0  0  0  0  0  0  0  0  0  0  0  # atno 17394 bound_to 11000
  140.3417  134.2697  155.7211 LP  0  0  0  0  0  0  0  0  0  0  0  0  # atno 17395 bound_to 11000

$$$$
