AV-unprocessed.smi:2923|AV-procd|sdf|11210|dock1
  -GOLD-   2272016103D 1   1.00000     0.00000
 Structure written by MMmdl.
 46 48  0  0  0  0  0  0  0  0  1 V2000
  152.1978  140.5232  157.9116 C   0  0  0  0  0  0  0  0  0  0  0  0
  151.2281  141.0636  156.9716 N   0  0  0  0  0  0  0  0  0  0  0  0
  150.4197  142.1759  157.4477 C   0  0  0  0  0  0  0  0  0  0  0  0
  150.4722  140.0697  156.3367 C   0  0  0  0  0  0  0  0  0  0  0  0
  149.5077  139.3156  157.0429 C   0  0  0  0  0  0  0  0  0  0  0  0
  148.7768  138.3309  156.3510 C   0  0  0  0  0  0  0  0  0  0  0  0
  149.0385  138.1262  154.9755 C   0  0  0  0  0  0  0  0  0  0  0  0
  148.3532  137.1843  154.1622 N   0  0  0  0  0  0  0  0  0  0  0  0
  147.2130  136.5238  154.4249 C   0  0  0  0  0  0  0  0  0  0  0  0
  146.5666  136.6016  155.4694 O   0  0  0  0  0  0  0  0  0  0  0  0
  146.8632  135.7398  153.3970 N   0  0  0  0  0  0  0  0  0  0  0  0
  145.6823  134.8701  153.3739 C   0  0  2  0  0  0  0  0  0  0  0  0
  146.0485  133.3849  153.4337 C   0  0  2  0  0  0  0  0  0  0  0  0
  147.2488  132.5993  153.8220 C   0  0  0  0  0  0  0  0  0  0  0  0
  147.1901  131.5689  152.6617 C   0  0  0  0  0  0  0  0  0  0  0  0
  146.1907  132.0668  151.7352 O   0  0  0  0  0  0  0  0  0  0  0  0
  146.2148  133.4671  151.9300 C   0  0  1  0  0  0  0  0  0  0  0  0
  145.1024  134.5393  151.9408 C   0  0  0  0  0  0  0  0  0  0  0  0
  143.6477  134.0410  151.8663 C   0  0  0  0  0  0  0  0  0  0  0  0
  145.2253  135.6258  150.8667 C   0  0  0  0  0  0  0  0  0  0  0  0
  150.0137  138.9410  154.3644 C   0  0  0  0  0  0  0  0  0  0  0  0
  150.7190  139.8855  155.0218 N   0  0  0  0  0  0  0  0  0  0  0  0
  152.7508  139.6950  157.4665 H   0  0  0  0  0  0  0  0  0  0  0  0
  151.7074  140.1636  158.8167 H   0  0  0  0  0  0  0  0  0  0  0  0
  152.9159  141.2931  158.1947 H   0  0  0  0  0  0  0  0  0  0  0  0
  149.7379  142.5212  156.6693 H   0  0  0  0  0  0  0  0  0  0  0  0
  151.0596  143.0124  157.7291 H   0  0  0  0  0  0  0  0  0  0  0  0
  149.8310  141.8886  158.3194 H   0  0  0  0  0  0  0  0  0  0  0  0
  149.3247  139.4886  158.0934 H   0  0  0  0  0  0  0  0  0  0  0  0
  148.0255  137.7684  156.8830 H   0  0  0  0  0  0  0  0  0  0  0  0
  148.8124  136.9490  153.2944 H   0  0  0  0  0  0  0  0  0  0  0  0
  147.4528  135.7327  152.5777 H   0  0  0  0  0  0  0  0  0  0  0  0
  144.9154  135.1464  154.0996 H   0  0  0  0  0  0  0  0  0  0  0  0
  145.1584  132.8254  153.7311 H   0  0  0  0  0  0  0  0  0  0  0  0
  148.1613  133.1962  153.7947 H   0  0  0  0  0  0  0  0  0  0  0  0
  147.1536  132.1332  154.8030 H   0  0  0  0  0  0  0  0  0  0  0  0
  148.1589  131.4858  152.1671 H   0  0  0  0  0  0  0  0  0  0  0  0
  146.9024  130.5769  153.0112 H   0  0  0  0  0  0  0  0  0  0  0  0
  147.1771  133.8784  151.6081 H   0  0  0  0  0  0  0  0  0  0  0  0
  143.4452  133.5604  150.9086 H   0  0  0  0  0  0  0  0  0  0  0  0
  142.9412  134.8650  151.9718 H   0  0  0  0  0  0  0  0  0  0  0  0
  143.3940  133.3176  152.6391 H   0  0  0  0  0  0  0  0  0  0  0  0
  144.9004  135.2639  149.8907 H   0  0  0  0  0  0  0  0  0  0  0  0
  146.2529  135.9689  150.7469 H   0  0  0  0  0  0  0  0  0  0  0  0
  144.6199  136.4985  151.1133 H   0  0  0  0  0  0  0  0  0  0  0  0
  150.2400  138.8308  153.3139 H   0  0  0  0  0  0  0  0  0  0  0  0
  1  2  1  0  0  0  0
  1 23  1  0  0  0  0
  1 24  1  0  0  0  0
  1 25  1  0  0  0  0
  2  3  1  0  0  0  0
  2  4  1  0  0  0  0
  3 26  1  0  0  0  0
  3 27  1  0  0  0  0
  3 28  1  0  0  0  0
  4 22  1  0  0  0  0
  4  5  2  0  0  0  0
  5  6  1  0  0  0  0
  5 29  1  0  0  0  0
  6  7  2  0  0  0  0
  6 30  1  0  0  0  0
  7  8  1  0  0  0  0
  7 21  1  0  0  0  0
  8  9  1  0  0  0  0
  8 31  1  0  0  0  0
  9 10  2  0  0  0  0
  9 11  1  0  0  0  0
 11 12  1  0  0  0  0
 11 32  1  0  0  0  0
 12 18  1  0  0  0  0
 12 13  1  0  0  0  0
 12 33  1  0  0  0  0
 13 17  1  0  0  0  0
 13 14  1  0  0  0  0
 13 34  1  0  0  0  0
 14 15  1  0  0  0  0
 14 35  1  0  0  0  0
 14 36  1  0  0  0  0
 15 16  1  0  0  0  0
 15 37  1  0  0  0  0
 15 38  1  0  0  0  0
 16 17  1  0  0  0  0
 17 18  1  0  0  0  0
 17 39  1  0  0  0  0
 18 19  1  0  0  0  0
 18 20  1  0  0  0  0
 19 40  1  0  0  0  0
 19 41  1  0  0  0  0
 19 42  1  0  0  0  0
 20 43  1  0  0  0  0
 20 44  1  0  0  0  0
 20 45  1  0  0  0  0
 21 22  2  0  0  0  0
 21 46  1  0  0  0  0
M  END
> <s_m_source_file>
AV-unprocessed.smi

> <i_m_source_file_index>
2923

> <i_lp_mmshare_version>
43012

> <i_f3d_flags>
0

> <s_epik_input>
W0NIM11OKFtDSDNdKWMxW2NIXVtjSF1jKFtjSF1uMSlbTkhdQyg9TylbTkhdW0NASF0yQyhbQ0gzXSkoW0NIM10pW0NAQEhdKFtDQEhdMjMpT1tDSDJdW0NIMl0z

> <s_epik_cmdline>
J2VwaWtfcHl0aG9uJywgJy1waCcsICc3LjAnLCAnLXRuJywgJzgnLCAnLW1hJywgJzIwMCcsICctbWV0YWxfYmluZGluZycsICctaW1hZScsICc8aW5maWxlLm1hZT4nLCAnLW9tYWUnLCAnPG91dGZpbGUubWFlPic=

> <r_lp_tautomer_probability>
1

> <r_epik_Ionization_Penalty>
0.628785

> <r_epik_Ionization_Penalty_Charging>
0

> <r_epik_Ionization_Penalty_Neutral>
0.628785

> <r_epik_State_Penalty>
0.644286

> <r_epik_Charging_Adjusted_Penalty>
0.644286

> <i_epik_Tot_Q>
0

> <i_epik_Tot_abs_Q>
0

> <r_epik_Metal_State_Penalty>
0.308404

> <b_epik_Metal_Only>
0

> <s_lp_Force_Field>
OPLS_2005

> <r_lp_Energy>
70.0189

> <b_lp_Chiralities_Consistent>
1

> <s_lp_Variant>
AV-unprocessed.smi:2923-9

> <Gold.Version>
5.8.1

> <Gold.Id.Protein>
6NUR|6NUR_protein|mol2

> <Gold.PLP.Fitness>
37.8099

> <Gold.PLP.PLP>
-26.2415

> <Gold.PLP.part.hbond>
-3.0000

> <Gold.PLP.part.metal>
0.0000

> <Gold.PLP.part.buried>
-4.8260

> <Gold.PLP.part.nonpolar>
-19.6351

> <Gold.PLP.part.repulsive>
0.2327

> <Gold.PLP.ligand.clash>
0.0000

> <Gold.PLP.ligand.torsion>
0.3918

> <Gold.PLP.Chemscore.Hbond>
2.9600

> <Gold.PLP.Chemscore.CHOScore>
1.0000

> <Gold.PLP.Chemscore.Metal>
0.0000

> <Gold.Chemscore.Hbonds>
donor molecule, donor type, donor heavy atom, donor atom, acceptor molecule, acceptor atom, score
      L1  H     8    31       P1  7948  1.00
      L1  H    11    32       P1  7948  0.96
      P1  H  7989  7998       L1    22  1.00
      L1  C    21    46       P1  7957  0.99

> <Gold.PLP.Chemscore.Internal.Correction>
0.4720

> <Gold.Rescore>
     Score         DG    S(hbond)    S(metal)    S(lipo)     H(rot)  DE(clash)    DE(int)     intcor
     16.46     -18.23       2.56        0.00      61.91       1.19       0.16       1.61       ----

> <Gold.Chemscore.Fitness>
16.4569

> <Gold.Chemscore.DG>
-18.2251

> <Gold.Chemscore.ZeroCoef>
-5.4800

> <Gold.Chemscore.Hbond>
2.5621

> <Gold.Chemscore.Metal>
0.0000

> <Gold.Chemscore.Lipo>
61.9108

> <Gold.Chemscore.Internal_Hbond>
0.0000

> <Gold.Chemscore.DEClash>
0.1590

> <Gold.Chemscore.DEInternal>
1.6093

> <Gold.Chemscore.Rot>
1.1937

> <Gold.Chemscore.Internal.Correction>
   9.000000E+99

> <Gold.Chemscore.Hbonds>
donor molecule, donor type, donor heavy atom, donor atom, acceptor molecule, acceptor atom, score
      L1  H     8    31       P1  7948  0.97
      L1  H    11    32       P1  7948  0.92
      P1  H  7989  7998       L1    22  0.32

> <Gold.Chemscore.Hbond.Weighted>
-8.5575

> <Gold.Chemscore.Metal.Weighted>
-0.0000

> <Gold.Chemscore.Lipo.Weighted>
-7.2436

> <Gold.Chemscore.Internal_Hbond.Weighted>
0.0000

> <Gold.Chemscore.DEClash.Weighted>
0.1590

> <Gold.Chemscore.DEInternal.Weighted>
1.6093

> <Gold.Chemscore.Rot.Weighted>
3.0559

> <Gold.Chemscore.Internal.Correction.Weighted>
   9.000000E+99

> <Gold.Protein.RotatedTorsions>
[ 6907 6896 6895 6894 ] final   -7.46 input  -60.11 | X-H torsion
[ 7974 7965 7964 7962 ] final   55.71 input  175.53 | X-H torsion
[ 8008 7997 7996 7995 ] final   54.01 input   59.86 | X-H torsion
[ 10167 10162 10161 10158 ] final -145.34 input  -65.29 | X-H torsion
[ 10718 10713 10712 10709 ] final   26.29 input   66.30 | X-H torsion
[ 10763 10752 10751 10750 ] final -162.57 input  -60.55 | X-H torsion
[ 11005 11000 10999 10996 ] final  107.87 input  -57.11 | X-H torsion

> <Gold.Protein.ActiveResidues>
 VAL166  LYS551  ARG553  GLY616  TRP617  ASP618  TYR619  PRO620  LYS621  CYS622 
 ASP623  PHE694  ASN695  SER759  ASP760  ASP761  ALA762  ILE779  LEU786  VAL792 
 PHE793  MET794  SER795  GLU796  ALA797  LYS798  CYS799  TRP800  GLU811  SER814 

> <Gold.Protein.RotatedAtoms>
  151.4493  135.1028  159.9692 H   0  0  0  0  0  0  0  0  0  0  0  0  # atno 6907 bound_to 6896
  152.4894  133.8455  159.7185 H   0  0  0  0  0  0  0  0  0  0  0  0  # atno 6908 bound_to 6896
  150.9033  133.7031  159.2900 H   0  0  0  0  0  0  0  0  0  0  0  0  # atno 6909 bound_to 6896
  145.9475  139.3942  143.0326 H   0  0  0  0  0  0  0  0  0  0  0  0  # atno 7974 bound_to 7965
  155.4777  140.3467  155.4335 H   0  0  0  0  0  0  0  0  0  0  0  0  # atno 8008 bound_to 7997
  156.1059  140.1448  156.9433 H   0  0  0  0  0  0  0  0  0  0  0  0  # atno 8009 bound_to 7997
  154.4724  140.0896  156.7157 H   0  0  0  0  0  0  0  0  0  0  0  0  # atno 8010 bound_to 7997
  139.7815  143.8095  152.2639 H   0  0  0  0  0  0  0  0  0  0  0  0  # atno 10167 bound_to 10162
  157.2049  130.6907  149.6204 H   0  0  0  0  0  0  0  0  0  0  0  0  # atno 10718 bound_to 10713
  154.7202  135.3024  154.9059 H   0  0  0  0  0  0  0  0  0  0  0  0  # atno 10763 bound_to 10752
  153.9934  135.6716  153.4759 H   0  0  0  0  0  0  0  0  0  0  0  0  # atno 10764 bound_to 10752
  153.0827  135.5000  154.8453 H   0  0  0  0  0  0  0  0  0  0  0  0  # atno 10765 bound_to 10752
  139.8835  134.9414  156.5886 H   0  0  0  0  0  0  0  0  0  0  0  0  # atno 11005 bound_to 11000
  145.8216  140.9676  143.0896 LP  0  0  0  0  0  0  0  0  0  0  0  0  # atno 17320 bound_to 7965
  144.6790  140.0049  143.7484 LP  0  0  0  0  0  0  0  0  0  0  0  0  # atno 17321 bound_to 7965
  139.8159  144.7316  150.9636 LP  0  0  0  0  0  0  0  0  0  0  0  0  # atno 17342 bound_to 10162
  140.7818  143.4206  151.0848 LP  0  0  0  0  0  0  0  0  0  0  0  0  # atno 17343 bound_to 10162
  155.9696  130.4570  150.5947 LP  0  0  0  0  0  0  0  0  0  0  0  0  # atno 17370 bound_to 10713
  157.3730  131.0768  151.1541 LP  0  0  0  0  0  0  0  0  0  0  0  0  # atno 17371 bound_to 10713
  140.7973  133.8534  155.8696 LP  0  0  0  0  0  0  0  0  0  0  0  0  # atno 17394 bound_to 11000
  140.9624  134.1638  157.4643 LP  0  0  0  0  0  0  0  0  0  0  0  0  # atno 17395 bound_to 11000

$$$$
