AV-unprocessed.smi:1313|AV-procd|sdf|5451|dock7
  -GOLD-   22720 5 23D 1   1.00000     0.00000
 Structure written by MMmdl.
 37 38  0  0  0  0  0  0  0  0  1 V2000
  146.2145  137.9759  152.6982 C   0  0  0  0  0  0  0  0  0  0  0  0
  147.1259  139.0305  153.2873 C   0  0  0  0  0  0  0  0  0  0  0  0
  146.4982  140.2442  153.5128 N   0  0  0  0  0  0  0  0  0  0  0  0
  147.2524  141.2741  154.0468 C   0  0  0  0  0  0  0  0  0  0  0  0
  146.4879  142.5695  154.2590 C   0  0  0  0  0  0  0  0  0  0  0  0
  148.5655  141.1017  154.3453 C   0  0  0  0  0  0  0  0  0  0  0  0
  149.4312  142.2127  154.9363 C   0  0  0  0  0  0  0  0  0  0  0  0
  149.9716  141.9383  156.3408 C   0  0  0  0  0  0  0  0  0  0  0  0
  150.0748  140.7803  156.7448 O   0  0  0  0  0  0  0  0  0  0  0  0
  150.3030  143.0102  157.0767 N   0  0  0  0  0  0  0  0  0  0  0  0
  150.8025  142.9674  158.4483 C   0  0  0  0  0  0  0  0  0  0  0  0
  150.0850  144.0131  159.3238 C   0  0  0  0  0  0  0  0  0  0  0  0
  151.1854  144.7657  160.0741 C   0  0  0  0  0  0  0  0  0  0  0  0
  152.3902  144.7020  159.1410 C   0  0  0  0  0  0  0  0  0  0  0  0
  152.3044  143.3098  158.5154 C   0  0  0  0  0  0  0  0  0  0  0  0
  149.1795  139.7770  154.0894 C   0  0  0  0  0  0  0  0  0  0  0  0
  150.3604  139.5523  154.3514 O   0  0  0  0  0  0  0  0  0  0  0  0
  148.3721  138.7683  153.5390 N   0  0  0  0  0  0  0  0  0  0  0  0
  145.5244  140.4145  153.3070 H   0  0  0  0  0  0  0  0  0  0  0  0
  146.7558  137.0450  152.5249 H   0  0  0  0  0  0  0  0  0  0  0  0
  145.8062  138.3148  151.7457 H   0  0  0  0  0  0  0  0  0  0  0  0
  145.3867  137.7676  153.3766 H   0  0  0  0  0  0  0  0  0  0  0  0
  146.9376  143.3776  153.6821 H   0  0  0  0  0  0  0  0  0  0  0  0
  146.4961  142.8495  155.3123 H   0  0  0  0  0  0  0  0  0  0  0  0
  145.4468  142.4768  153.9478 H   0  0  0  0  0  0  0  0  0  0  0  0
  148.8480  143.1342  154.9487 H   0  0  0  0  0  0  0  0  0  0  0  0
  150.2761  142.4337  154.2836 H   0  0  0  0  0  0  0  0  0  0  0  0
  150.1877  143.9236  156.6622 H   0  0  0  0  0  0  0  0  0  0  0  0
  150.6376  141.9722  158.8656 H   0  0  0  0  0  0  0  0  0  0  0  0
  149.5312  144.7206  158.7046 H   0  0  0  0  0  0  0  0  0  0  0  0
  149.3682  143.5555  160.0063 H   0  0  0  0  0  0  0  0  0  0  0  0
  150.9001  145.7881  160.3239 H   0  0  0  0  0  0  0  0  0  0  0  0
  151.4162  144.2474  161.0056 H   0  0  0  0  0  0  0  0  0  0  0  0
  152.2934  145.4612  158.3639 H   0  0  0  0  0  0  0  0  0  0  0  0
  153.3344  144.8723  159.6591 H   0  0  0  0  0  0  0  0  0  0  0  0
  152.8053  142.5925  159.1669 H   0  0  0  0  0  0  0  0  0  0  0  0
  152.8063  143.2653  157.5480 H   0  0  0  0  0  0  0  0  0  0  0  0
  1 20  1  0  0  0  0
  1 21  1  0  0  0  0
  1 22  1  0  0  0  0
  1  2  1  0  0  0  0
  2  3  1  0  0  0  0
  2 18  2  0  0  0  0
  3  4  1  0  0  0  0
  3 19  1  0  0  0  0
  4  6  2  0  0  0  0
  4  5  1  0  0  0  0
  5 23  1  0  0  0  0
  5 24  1  0  0  0  0
  5 25  1  0  0  0  0
  6 16  1  0  0  0  0
  6  7  1  0  0  0  0
  7  8  1  0  0  0  0
  7 26  1  0  0  0  0
  7 27  1  0  0  0  0
  8  9  2  0  0  0  0
  8 10  1  0  0  0  0
 10 11  1  0  0  0  0
 10 28  1  0  0  0  0
 11 15  1  0  0  0  0
 11 12  1  0  0  0  0
 11 29  1  0  0  0  0
 12 13  1  0  0  0  0
 12 30  1  0  0  0  0
 12 31  1  0  0  0  0
 13 14  1  0  0  0  0
 13 32  1  0  0  0  0
 13 33  1  0  0  0  0
 14 15  1  0  0  0  0
 14 34  1  0  0  0  0
 14 35  1  0  0  0  0
 15 36  1  0  0  0  0
 15 37  1  0  0  0  0
 16 17  2  0  0  0  0
 16 18  1  0  0  0  0
M  END
> <s_m_source_file>
AV-unprocessed.smi

> <i_m_source_file_index>
1313

> <i_lp_mmshare_version>
43012

> <i_f3d_flags>
0

> <s_epik_input>
W0NIM11jMW5jKFtDSDNdKWMoYyg9TylbbkhdMSlbQ0gyXUMoPU8pW05IXVtDSF0yW0NIMl1bQ0gyXVtDSDJdW0NIMl0y

> <s_epik_cmdline>
J2VwaWtfcHl0aG9uJywgJy1waCcsICc3LjAnLCAnLXRuJywgJzgnLCAnLW1hJywgJzIwMCcsICctbWV0YWxfYmluZGluZycsICctaW1hZScsICc8aW5maWxlLm1hZT4nLCAnLW9tYWUnLCAnPG91dGZpbGUubWFlPic=

> <r_lp_tautomer_probability>
0.156392

> <r_epik_Ionization_Penalty>
0.0140409

> <r_epik_Ionization_Penalty_Charging>
0.0139177

> <r_epik_Ionization_Penalty_Neutral>
0.000123229

> <r_epik_State_Penalty>
1.53066

> <r_epik_Charging_Adjusted_Penalty>
1.54458

> <i_epik_Tot_Q>
0

> <i_epik_Tot_abs_Q>
0

> <r_epik_Metal_State_Penalty>
1.70649

> <b_epik_Metal_Only>
0

> <s_lp_Force_Field>
OPLS_2005

> <r_lp_Energy>
23.2441

> <b_lp_Chiralities_Consistent>
1

> <s_lp_Variant>
AV-unprocessed.smi:1313-2

> <Gold.Version>
5.8.1

> <Gold.Id.Protein>
6NUR|6NUR_protein|mol2

> <Gold.PLP.Fitness>
41.2208

> <Gold.PLP.PLP>
-34.1009

> <Gold.PLP.part.hbond>
-3.0000

> <Gold.PLP.part.metal>
0.0000

> <Gold.PLP.part.buried>
0.2288

> <Gold.PLP.part.nonpolar>
-33.4529

> <Gold.PLP.part.repulsive>
1.7484

> <Gold.PLP.ligand.clash>
0.0000

> <Gold.PLP.ligand.torsion>
0.4975

> <Gold.PLP.Chemscore.Hbond>
2.7040

> <Gold.PLP.Chemscore.CHOScore>
0.0000

> <Gold.PLP.Chemscore.Metal>
0.0000

> <Gold.Chemscore.Hbonds>
donor molecule, donor type, donor heavy atom, donor atom, acceptor molecule, acceptor atom, score
      L1  H     3    19       P1 10175  1.00
      L1  H    10    28       P1  8028  0.72
      P1  H  7989  7998       L1    17  1.00

> <Gold.PLP.Chemscore.Internal.Correction>
0.0028

> <Gold.Rescore>
     Score         DG    S(hbond)    S(metal)    S(lipo)     H(rot)  DE(clash)    DE(int)     intcor
     14.77     -20.25       2.56        0.00      86.41       1.51       2.41       3.07       ----

> <Gold.Chemscore.Fitness>
14.7702

> <Gold.Chemscore.DG>
-20.2549

> <Gold.Chemscore.ZeroCoef>
-5.4800

> <Gold.Chemscore.Hbond>
2.5561

> <Gold.Chemscore.Metal>
0.0000

> <Gold.Chemscore.Lipo>
86.4129

> <Gold.Chemscore.Internal_Hbond>
0.0000

> <Gold.Chemscore.DEClash>
2.4118

> <Gold.Chemscore.DEInternal>
3.0729

> <Gold.Chemscore.Rot>
1.5128

> <Gold.Chemscore.Internal.Correction>
   9.000000E+99

> <Gold.Chemscore.Hbonds>
donor molecule, donor type, donor heavy atom, donor atom, acceptor molecule, acceptor atom, score
      L1  H     3    19       P1 10175  0.91
      L1  H    10    28       P1  8028  0.72
      P1  H  7989  7998       L1    17  0.80

> <Gold.Chemscore.Hbond.Weighted>
-8.5373

> <Gold.Chemscore.Metal.Weighted>
-0.0000

> <Gold.Chemscore.Lipo.Weighted>
-10.1103

> <Gold.Chemscore.Internal_Hbond.Weighted>
0.0000

> <Gold.Chemscore.DEClash.Weighted>
2.4118

> <Gold.Chemscore.DEInternal.Weighted>
3.0729

> <Gold.Chemscore.Rot.Weighted>
3.8727

> <Gold.Chemscore.Internal.Correction.Weighted>
   9.000000E+99

> <Gold.Protein.RotatedTorsions>
[ 6907 6896 6895 6894 ] final    6.26 input  -60.11 | X-H torsion
[ 7974 7965 7964 7962 ] final  -79.28 input  175.53 | X-H torsion
[ 8008 7997 7996 7995 ] final -163.55 input   59.86 | X-H torsion
[ 10167 10162 10161 10158 ] final  -90.67 input  -65.29 | X-H torsion
[ 10718 10713 10712 10709 ] final   15.08 input   66.30 | X-H torsion
[ 10763 10752 10751 10750 ] final  -92.55 input  -60.55 | X-H torsion
[ 11005 11000 10999 10996 ] final   69.59 input  -57.11 | X-H torsion

> <Gold.Protein.ActiveResidues>
 VAL166  LYS551  ARG553  GLY616  TRP617  ASP618  TYR619  PRO620  LYS621  CYS622 
 ASP623  PHE694  ASN695  SER759  ASP760  ASP761  ALA762  ILE779  LEU786  VAL792 
 PHE793  MET794  SER795  GLU796  ALA797  LYS798  CYS799  TRP800  GLU811  SER814 

> <Gold.Protein.RotatedAtoms>
  151.6709  135.0976  160.0197 H   0  0  0  0  0  0  0  0  0  0  0  0  # atno 6907 bound_to 6896
  152.3892  133.6650  159.6232 H   0  0  0  0  0  0  0  0  0  0  0  0  # atno 6908 bound_to 6896
  150.7811  133.8900  159.3351 H   0  0  0  0  0  0  0  0  0  0  0  0  # atno 6909 bound_to 6896
  145.5754  140.9458  143.1373 H   0  0  0  0  0  0  0  0  0  0  0  0  # atno 7974 bound_to 7965
  155.8228  140.0922  157.1839 H   0  0  0  0  0  0  0  0  0  0  0  0  # atno 8008 bound_to 7997
  154.3979  140.1433  156.3581 H   0  0  0  0  0  0  0  0  0  0  0  0  # atno 8009 bound_to 7997
  155.8248  140.3445  155.5538 H   0  0  0  0  0  0  0  0  0  0  0  0  # atno 8010 bound_to 7997
  140.3526  143.2883  151.9709 H   0  0  0  0  0  0  0  0  0  0  0  0  # atno 10167 bound_to 10162
  157.0484  130.6260  149.5763 H   0  0  0  0  0  0  0  0  0  0  0  0  # atno 10718 bound_to 10713
  154.6872  135.5227  153.8343 H   0  0  0  0  0  0  0  0  0  0  0  0  # atno 10763 bound_to 10752
  153.0606  135.6567  154.0481 H   0  0  0  0  0  0  0  0  0  0  0  0  # atno 10764 bound_to 10752
  154.0360  135.2981  155.3341 H   0  0  0  0  0  0  0  0  0  0  0  0  # atno 10765 bound_to 10752
  139.9645  134.7004  156.0574 H   0  0  0  0  0  0  0  0  0  0  0  0  # atno 11005 bound_to 11000
  144.7418  139.7427  143.7307 LP  0  0  0  0  0  0  0  0  0  0  0  0  # atno 17320 bound_to 7965
  146.1755  139.4923  142.9900 LP  0  0  0  0  0  0  0  0  0  0  0  0  # atno 17321 bound_to 7965
  139.4824  144.6063  151.7515 LP  0  0  0  0  0  0  0  0  0  0  0  0  # atno 17342 bound_to 10162
  140.5204  144.0887  150.6021 LP  0  0  0  0  0  0  0  0  0  0  0  0  # atno 17343 bound_to 10162
  156.0015  130.5095  150.7681 LP  0  0  0  0  0  0  0  0  0  0  0  0  # atno 17370 bound_to 10713
  157.5049  131.0921  151.0269 LP  0  0  0  0  0  0  0  0  0  0  0  0  # atno 17371 bound_to 10713
  141.1324  133.6583  156.3501 LP  0  0  0  0  0  0  0  0  0  0  0  0  # atno 17394 bound_to 11000
  140.5426  134.6105  157.5384 LP  0  0  0  0  0  0  0  0  0  0  0  0  # atno 17395 bound_to 11000

$$$$
