#       Name:                AV-unprocessed.smi:726
#       Creating user name   scv26
#       Creation time:       Fri Mar 27 00:50:56 2020


#       File generated by GOLD software.
#

@<TRIPOS>MOLECULE
AV-unprocessed.smi:726
    32    32     1
SMALL
NO_CHARGES


@<TRIPOS>ATOM
      1 ****         0.1731   2.2805   0.2473 C.3            1 S1                 0.0000
      2 ****        -0.6066   0.9784   0.1024 C.2            1 S1                 0.0000
      3 ****        -1.9513   1.0056   0.0564 C.2            1 S1                 0.0000
      4 ****        -2.6939  -0.2238  -0.0366 C.2            1 S1                 0.0000
      5 ****        -4.0306  -0.1995  -0.1081 O.3            1 S1                 0.0000
      6 ****        -2.0351  -1.3946  -0.0392 C.2            1 S1                 0.0000
      7 ****        -0.5746  -1.4653   0.0375 C.2            1 S1                 0.0000
      8 ****        -0.0092  -2.5576   0.0831 O.2            1 S1                 0.0000
      9 ****         0.1038  -0.2658   0.0595 N.am           1 S1                 0.0000
     10 ****         1.5975  -0.2641  -0.0131 C.3            1 S1                 0.0000
     11 ****         2.1580  -1.0122  -1.2490 C.3            1 S1                 0.0000
     12 ****         2.2501  -0.6519   1.3264 C.2            1 S1                 0.0000
     13 ****         2.7933  -1.7755   1.4109 O.co2          1 S1                 0.0000
     14 ****         2.1918   0.1891   2.2504 O.co2          1 S1                -1.0000
     15 ****        -0.4969   3.1116   0.4699 H              1 S1                 0.0000
     16 ****         0.6957   2.5244  -0.6781 H              1 S1                 0.0000
     17 ****         0.8901   2.2306   1.0666 H              1 S1                 0.0000
     18 ****        -2.4796   1.9468   0.1049 H              1 S1                 0.0000
     19 ****        -4.2995   0.7058  -0.0781 H              1 S1                 0.0000
     20 ****        -2.5943  -2.3172  -0.1024 H              1 S1                 0.0000
     21 ****         1.9740   0.7377  -0.1926 H              1 S1                 0.0000
     22 ****         3.2266  -0.8230  -1.3565 H              1 S1                 0.0000
     23 ****         1.6767  -0.6658  -2.1638 H              1 S1                 0.0000
     24 ****         2.0398  -2.0936  -1.1982 H              1 S1                 0.0000
     25 ****        -4.4231  -0.6983   0.6647 LP             1 S1                 0.0000
     26 ****        -4.3345  -0.6180  -0.9639 LP             1 S1                 0.0000
     27 ****        -0.5474  -3.4003   0.0678 LP             1 S1                 0.0000
     28 ****         0.9885  -2.6024   0.1355 LP             1 S1                 0.0000
     29 ****         3.2250  -2.0591   2.2672 LP             1 S1                 0.0000
     30 ****         2.7960  -2.3902   0.6222 LP             1 S1                 0.0000
     31 ****         2.5996  -0.0165   3.1401 LP             1 S1                 0.0000
     32 ****         1.7375   1.0670   2.0995 LP             1 S1                 0.0000
@<TRIPOS>BOND
    1    1    2 1     
    2    1   15 1     
    3    1   16 1     
    4    1   17 1     
    5    2    9 1     
    6    2    3 2     
    7    3    4 1     
    8    3   18 1     
    9    4    5 1     
   10    4    6 2     
   11    5   19 1     
   12    6    7 1     
   13    6   20 1     
   14    7    8 2     
   15    7    9 am    
   16    9   10 1     
   17   10   11 1     
   18   10   12 1     
   19   10   21 1     
   20   11   22 1     
   21   11   23 1     
   22   11   24 1     
   23   12   13 ar    
   24   12   14 ar    
   25    5   25 1     
   26    5   26 1     
   27    8   27 1     
   28    8   28 1     
   29   13   29 1     
   30   13   30 1     
   31   14   31 1     
   32   14   32 1     
@<TRIPOS>SUBSTRUCTURE
      1 S1             1
@<TRIPOS>SET
LONE_PAIRS      STATIC     ATOMS    <user>   **** ""
8 25 26 27 28 29 30 31 32
DONOR_HYDROGENS      STATIC     ATOMS    <user>   **** ""
1 19
ATOM$BLUE        STATIC     ATOMS    COLORGROUP SYSTEM
8 25 26 27 28 29 30 31 32
ATOM$RED        STATIC     ATOMS    COLORGROUP SYSTEM
1 19
