AV-unprocessed.smi:2243|AV-procd|sdf|9062|dock5
  -GOLD-   2272012273D 1   1.00000     0.00000
 Structure written by MMmdl.
 34 35  0  0  0  0  0  0  0  0  1 V2000
  145.7199  138.4008  154.4243 C   0  0  0  0  0  0  0  0  0  0  0  0
  146.4733  138.7275  153.1233 C   0  0  2  0  0  0  0  0  0  0  0  0
  146.7280  137.4690  152.4212 N   0  0  0  0  0  0  0  0  0  0  0  0
  145.8020  136.5752  152.0410 C   0  0  0  0  0  0  0  0  0  0  0  0
  144.5942  136.7150  152.2357 O   0  0  0  0  0  0  0  0  0  0  0  0
  146.3679  135.5242  151.4247 N   0  0  0  0  0  0  0  0  0  0  0  0
  145.7169  134.3870  150.8833 C   0  0  0  0  0  0  0  0  0  0  0  0
  146.2961  133.2531  150.4855 N   0  0  0  0  0  0  0  0  0  0  0  0
  145.2471  132.4624  150.0393 C   0  0  0  0  0  0  0  0  0  0  0  0
  144.0826  133.1698  150.1941 C   0  0  0  0  0  0  0  0  0  0  0  0
  144.3664  134.3973  150.7300 O   0  0  0  0  0  0  0  0  0  0  0  0
  147.8005  139.4974  153.3569 C   0  0  0  0  0  0  0  0  0  0  0  0
  148.8357  138.6680  154.1440 C   0  0  0  0  0  0  0  0  0  0  0  0
  150.1067  139.4840  154.4300 C   0  0  0  0  0  0  0  0  0  0  0  0
  149.7754  140.6717  155.1381 O   0  0  0  0  0  0  0  0  0  0  0  0
  148.9247  141.5332  154.3924 C   0  0  0  0  0  0  0  0  0  0  0  0
  147.5875  140.8321  154.1038 C   0  0  0  0  0  0  0  0  0  0  0  0
  145.3782  139.3022  154.9319 H   0  0  0  0  0  0  0  0  0  0  0  0
  146.3478  137.8410  155.1182 H   0  0  0  0  0  0  0  0  0  0  0  0
  144.8330  137.7992  154.2207 H   0  0  0  0  0  0  0  0  0  0  0  0
  145.8206  139.3612  152.5200 H   0  0  0  0  0  0  0  0  0  0  0  0
  147.6936  137.2623  152.2112 H   0  0  0  0  0  0  0  0  0  0  0  0
  147.3727  135.5377  151.3316 H   0  0  0  0  0  0  0  0  0  0  0  0
  145.4094  131.4680  149.6505 H   0  0  0  0  0  0  0  0  0  0  0  0
  143.0439  132.9590  149.9869 H   0  0  0  0  0  0  0  0  0  0  0  0
  148.2323  139.7297  152.3819 H   0  0  0  0  0  0  0  0  0  0  0  0
  148.4016  138.3328  155.0869 H   0  0  0  0  0  0  0  0  0  0  0  0
  149.1139  137.7712  153.5912 H   0  0  0  0  0  0  0  0  0  0  0  0
  150.7991  138.8971  155.0336 H   0  0  0  0  0  0  0  0  0  0  0  0
  150.6258  139.7331  153.5032 H   0  0  0  0  0  0  0  0  0  0  0  0
  148.7526  142.4422  154.9691 H   0  0  0  0  0  0  0  0  0  0  0  0
  149.4150  141.8334  153.4651 H   0  0  0  0  0  0  0  0  0  0  0  0
  146.9558  141.5055  153.5242 H   0  0  0  0  0  0  0  0  0  0  0  0
  147.0650  140.6491  155.0437 H   0  0  0  0  0  0  0  0  0  0  0  0
  1  2  1  0  0  0  0
  1 18  1  0  0  0  0
  1 19  1  0  0  0  0
  1 20  1  0  0  0  0
  2  3  1  0  0  0  0
  2 12  1  0  0  0  0
  2 21  1  0  0  0  0
  3  4  1  0  0  0  0
  3 22  1  0  0  0  0
  4  5  2  0  0  0  0
  4  6  1  0  0  0  0
  6  7  1  0  0  0  0
  6 23  1  0  0  0  0
  7 11  1  0  0  0  0
  7  8  2  0  0  0  0
  8  9  1  0  0  0  0
  9 10  2  0  0  0  0
  9 24  1  0  0  0  0
 10 11  1  0  0  0  0
 10 25  1  0  0  0  0
 12 17  1  0  0  0  0
 12 13  1  0  0  0  0
 12 26  1  0  0  0  0
 13 14  1  0  0  0  0
 13 27  1  0  0  0  0
 13 28  1  0  0  0  0
 14 15  1  0  0  0  0
 14 29  1  0  0  0  0
 14 30  1  0  0  0  0
 15 16  1  0  0  0  0
 16 17  1  0  0  0  0
 16 31  1  0  0  0  0
 16 32  1  0  0  0  0
 17 33  1  0  0  0  0
 17 34  1  0  0  0  0
M  END
> <s_m_source_file>
AV-unprocessed.smi

> <i_m_source_file_index>
2243

> <i_lp_mmshare_version>
43012

> <i_f3d_flags>
0

> <s_epik_input>
W0NIMl0xW0NIMl1PW0NIMl1bQ0gyXVtDSF0xW0NASF0oW0NIM10pW05IXUMoPU8pW05IXWMybltjSF1bY0hdbzI=

> <s_epik_cmdline>
J2VwaWtfcHl0aG9uJywgJy1waCcsICc3LjAnLCAnLXRuJywgJzgnLCAnLW1hJywgJzIwMCcsICctbWV0YWxfYmluZGluZycsICctaW1hZScsICc8aW5maWxlLm1hZT4nLCAnLW9tYWUnLCAnPG91dGZpbGUubWFlPic=

> <r_lp_tautomer_probability>
0.785861

> <r_epik_Ionization_Penalty>
5.17761e-05

> <r_epik_Ionization_Penalty_Charging>
0

> <r_epik_Ionization_Penalty_Neutral>
5.17761e-05

> <r_epik_State_Penalty>
0.0447104

> <r_epik_Charging_Adjusted_Penalty>
0.0447104

> <i_epik_Tot_Q>
0

> <i_epik_Tot_abs_Q>
0

> <r_epik_Metal_State_Penalty>
0.0593601

> <b_epik_Metal_Only>
0

> <s_lp_Force_Field>
OPLS_2005

> <r_lp_Energy>
10.6877

> <b_lp_Chiralities_Consistent>
1

> <s_lp_Variant>
AV-unprocessed.smi:2243-1

> <Gold.Version>
5.8.1

> <Gold.Id.Protein>
6NUR|6NUR_protein|mol2

> <Gold.PLP.Fitness>
34.6166

> <Gold.PLP.PLP>
-25.6975

> <Gold.PLP.part.hbond>
-2.0000

> <Gold.PLP.part.metal>
0.0000

> <Gold.PLP.part.buried>
-1.5341

> <Gold.PLP.part.nonpolar>
-22.4996

> <Gold.PLP.part.repulsive>
0.9017

> <Gold.PLP.ligand.clash>
0.0000

> <Gold.PLP.ligand.torsion>
0.0480

> <Gold.PLP.Chemscore.Hbond>
2.0000

> <Gold.PLP.Chemscore.CHOScore>
1.0000

> <Gold.PLP.Chemscore.Metal>
0.0000

> <Gold.Chemscore.Hbonds>
donor molecule, donor type, donor heavy atom, donor atom, acceptor molecule, acceptor atom, score
      L1  H     3    22       P1  7948  1.00
      L1  H     6    23       P1  7948  1.00
      L1  C    10    25       P1 10186  0.97

> <Gold.PLP.Chemscore.Internal.Correction>
0.0151

> <Gold.Rescore>
     Score         DG    S(hbond)    S(metal)    S(lipo)     H(rot)  DE(clash)    DE(int)     intcor
     12.70     -15.31       1.93        0.00      57.87       1.32       0.18       2.44       ----

> <Gold.Chemscore.Fitness>
12.6980

> <Gold.Chemscore.DG>
-15.3112

> <Gold.Chemscore.ZeroCoef>
-5.4800

> <Gold.Chemscore.Hbond>
1.9279

> <Gold.Chemscore.Metal>
0.0000

> <Gold.Chemscore.Lipo>
57.8743

> <Gold.Chemscore.Internal_Hbond>
0.0000

> <Gold.Chemscore.DEClash>
0.1778

> <Gold.Chemscore.DEInternal>
2.4354

> <Gold.Chemscore.Rot>
1.3201

> <Gold.Chemscore.Internal.Correction>
   9.000000E+99

> <Gold.Chemscore.Hbonds>
donor molecule, donor type, donor heavy atom, donor atom, acceptor molecule, acceptor atom, score
      L1  H     3    22       P1  7948  0.97
      L1  H     6    23       P1  7948  0.86

> <Gold.Chemscore.Hbond.Weighted>
-6.4393

> <Gold.Chemscore.Metal.Weighted>
-0.0000

> <Gold.Chemscore.Lipo.Weighted>
-6.7713

> <Gold.Chemscore.Internal_Hbond.Weighted>
0.0000

> <Gold.Chemscore.DEClash.Weighted>
0.1778

> <Gold.Chemscore.DEInternal.Weighted>
2.4354

> <Gold.Chemscore.Rot.Weighted>
3.3794

> <Gold.Chemscore.Internal.Correction.Weighted>
   9.000000E+99

> <Gold.Protein.RotatedTorsions>
[ 6907 6896 6895 6894 ] final -164.47 input  -60.11 | X-H torsion
[ 7974 7965 7964 7962 ] final -112.29 input  175.53 | X-H torsion
[ 8008 7997 7996 7995 ] final  176.03 input   59.86 | X-H torsion
[ 10167 10162 10161 10158 ] final -163.98 input  -65.29 | X-H torsion
[ 10718 10713 10712 10709 ] final -169.84 input   66.30 | X-H torsion
[ 10763 10752 10751 10750 ] final -162.03 input  -60.55 | X-H torsion
[ 11005 11000 10999 10996 ] final -165.21 input  -57.11 | X-H torsion

> <Gold.Protein.ActiveResidues>
 VAL166  LYS551  ARG553  GLY616  TRP617  ASP618  TYR619  PRO620  LYS621  CYS622 
 ASP623  PHE694  ASN695  SER759  ASP760  ASP761  ALA762  ILE779  LEU786  VAL792 
 PHE793  MET794  SER795  GLU796  ALA797  LYS798  CYS799  TRP800  GLU811  SER814 

> <Gold.Protein.RotatedAtoms>
  151.4123  133.3723  159.2745 H   0  0  0  0  0  0  0  0  0  0  0  0  # atno 6907 bound_to 6896
  150.9353  134.8768  159.7588 H   0  0  0  0  0  0  0  0  0  0  0  0  # atno 6908 bound_to 6896
  152.5047  134.4071  159.9488 H   0  0  0  0  0  0  0  0  0  0  0  0  # atno 6909 bound_to 6896
  145.1458  140.8802  143.3675 H   0  0  0  0  0  0  0  0  0  0  0  0  # atno 7974 bound_to 7965
  156.0808  140.1394  156.9715 H   0  0  0  0  0  0  0  0  0  0  0  0  # atno 8008 bound_to 7997
  154.4584  140.0952  156.6872 H   0  0  0  0  0  0  0  0  0  0  0  0  # atno 8009 bound_to 7997
  155.5079  140.3453  155.4385 H   0  0  0  0  0  0  0  0  0  0  0  0  # atno 8010 bound_to 7997
  139.6282  144.0491  152.1993 H   0  0  0  0  0  0  0  0  0  0  0  0  # atno 10167 bound_to 10162
  156.7174  130.9257  151.3094 H   0  0  0  0  0  0  0  0  0  0  0  0  # atno 10718 bound_to 10713
  154.7251  135.3034  154.8985 H   0  0  0  0  0  0  0  0  0  0  0  0  # atno 10763 bound_to 10752
  153.9845  135.6726  153.4755 H   0  0  0  0  0  0  0  0  0  0  0  0  # atno 10764 bound_to 10752
  153.0867  135.4980  154.8530 H   0  0  0  0  0  0  0  0  0  0  0  0  # atno 10765 bound_to 10752
  140.5783  134.5168  157.5174 H   0  0  0  0  0  0  0  0  0  0  0  0  # atno 11005 bound_to 11000
  145.0484  139.3202  143.5941 LP  0  0  0  0  0  0  0  0  0  0  0  0  # atno 17320 bound_to 7965
  146.3500  139.9883  142.8688 LP  0  0  0  0  0  0  0  0  0  0  0  0  # atno 17321 bound_to 7965
  140.0149  144.6196  150.7615 LP  0  0  0  0  0  0  0  0  0  0  0  0  # atno 17342 bound_to 10162
  140.7423  143.2831  151.3542 LP  0  0  0  0  0  0  0  0  0  0  0  0  # atno 17343 bound_to 10162
  157.6912  130.9235  150.0518 LP  0  0  0  0  0  0  0  0  0  0  0  0  # atno 17370 bound_to 10713
  156.1618  130.3644  149.9288 LP  0  0  0  0  0  0  0  0  0  0  0  0  # atno 17371 bound_to 10713
  139.9329  134.7929  156.0881 LP  0  0  0  0  0  0  0  0  0  0  0  0  # atno 17394 bound_to 11000
  141.1012  133.6676  156.2760 LP  0  0  0  0  0  0  0  0  0  0  0  0  # atno 17395 bound_to 11000

$$$$
