AV-unprocessed.smi:16|AV-procd|sdf|87|dock5
  -GOLD-   2262015223D 1   1.00000     0.00000
 Structure written by MMmdl.
 60 64  0  0  0  0  0  0  0  0  2 V2000
  147.2593  138.9662  151.8559 C   0  0  0  0  0  0  0  0  0  0  0  0
  147.1226  139.6528  153.2213 C   0  0  0  0  0  0  0  0  0  0  0  0
  148.4393  140.0113  153.8116 N   0  3  1  0  0  0  0  0  0  0  0  0
  148.4215  141.1927  154.7150 C   0  0  0  0  0  0  0  0  0  0  0  0
  147.8359  140.8545  156.0952 C   0  0  0  0  0  0  0  0  0  0  0  0
  148.6053  139.6862  156.7430 C   0  0  1  0  0  0  0  0  0  0  0  0
  148.0977  139.3452  158.0332 O   0  0  0  0  0  0  0  0  0  0  0  0
  146.8232  138.7091  158.0186 C   0  0  0  0  0  0  0  0  0  0  0  0
  146.8838  137.4395  157.1600 C   0  0  0  0  0  0  0  0  0  0  0  0
  147.3709  137.7449  155.8193 N   0  0  0  0  0  0  0  0  0  0  0  0
  147.2431  136.6591  155.0201 C   0  0  0  0  0  0  0  0  0  0  0  0
  148.0024  135.5522  155.2341 N   0  0  0  0  0  0  0  0  0  0  0  0
  147.8610  134.4828  154.4452 C   0  0  0  0  0  0  0  0  0  0  0  0
  147.0350  134.3125  153.4104 N   0  0  0  0  0  0  0  0  0  0  0  0
  146.2635  135.4182  153.2014 C   0  0  0  0  0  0  0  0  0  0  0  0
  146.3034  136.6232  153.9565 C   0  0  0  0  0  0  0  0  0  0  0  0
  145.3843  137.5345  153.4543 N   0  0  0  0  0  0  0  0  0  0  0  0
  144.8291  136.9028  152.4560 C   0  0  0  0  0  0  0  0  0  0  0  0
  145.2927  135.6241  152.2356 N   0  0  0  0  0  0  0  0  0  0  0  0
  144.8652  134.7206  151.2054 C   0  0  0  0  0  0  0  0  0  0  0  0
  144.0582  133.4680  151.5479 C   0  0  0  0  0  0  0  0  0  0  0  0
  144.7264  132.7250  150.3689 C   0  0  0  0  0  0  0  0  0  0  0  0
  145.1366  131.2721  150.6600 C   0  0  0  0  0  0  0  0  0  0  0  0
  146.2847  131.2197  151.4825 O   0  0  0  0  0  0  0  0  0  0  0  0
  143.9477  132.7738  149.0384 C   0  0  0  0  0  0  0  0  0  0  0  0
  142.6993  132.1198  149.1456 O   0  0  0  0  0  0  0  0  0  0  0  0
  145.8510  133.7768  150.5135 C   0  0  0  0  0  0  0  0  0  0  0  0
  148.6613  138.4465  155.8189 C   0  0  1  0  0  0  0  0  0  0  0  0
  149.1717  138.8602  154.4081 C   0  0  0  0  0  0  0  0  0  0  0  0
  149.6290  140.0261  156.9052 H   0  0  0  0  0  0  0  0  0  0  0  0
  149.3908  137.7565  156.2463 H   0  0  0  0  0  0  0  0  0  0  0  0
  146.2853  138.6305  151.4993 H   0  0  0  0  0  0  0  0  0  0  0  0
  147.9071  138.0912  151.9170 H   0  0  0  0  0  0  0  0  0  0  0  0
  147.6661  139.6359  151.0989 H   0  0  0  0  0  0  0  0  0  0  0  0
  146.4781  140.5277  153.1406 H   0  0  0  0  0  0  0  0  0  0  0  0
  146.6129  138.9563  153.8880 H   0  0  0  0  0  0  0  0  0  0  0  0
  149.4477  141.5419  154.8367 H   0  0  0  0  0  0  0  0  0  0  0  0
  147.8764  142.0208  154.2635 H   0  0  0  0  0  0  0  0  0  0  0  0
  147.8894  141.7309  156.7414 H   0  0  0  0  0  0  0  0  0  0  0  0
  146.7776  140.6222  155.9875 H   0  0  0  0  0  0  0  0  0  0  0  0
  146.5525  138.4507  159.0423 H   0  0  0  0  0  0  0  0  0  0  0  0
  146.0493  139.3869  157.6596 H   0  0  0  0  0  0  0  0  0  0  0  0
  147.5471  136.7093  157.6266 H   0  0  0  0  0  0  0  0  0  0  0  0
  145.8928  136.9856  157.1118 H   0  0  0  0  0  0  0  0  0  0  0  0
  148.5002  133.6433  154.6762 H   0  0  0  0  0  0  0  0  0  0  0  0
  144.0612  137.3582  151.8475 H   0  0  0  0  0  0  0  0  0  0  0  0
  144.3374  135.3171  150.4595 H   0  0  0  0  0  0  0  0  0  0  0  0
  144.3251  133.0487  152.5199 H   0  0  0  0  0  0  0  0  0  0  0  0
  142.9781  133.5891  151.4597 H   0  0  0  0  0  0  0  0  0  0  0  0
  144.3311  130.7135  151.1369 H   0  0  0  0  0  0  0  0  0  0  0  0
  145.3681  130.7431  149.7351 H   0  0  0  0  0  0  0  0  0  0  0  0
  147.0348  131.0336  150.9387 H   0  0  0  0  0  0  0  0  0  0  0  0
  143.7786  133.8001  148.7118 H   0  0  0  0  0  0  0  0  0  0  0  0
  144.5071  132.2917  148.2368 H   0  0  0  0  0  0  0  0  0  0  0  0
  142.0168  132.7735  149.1401 H   0  0  0  0  0  0  0  0  0  0  0  0
  146.2505  134.1585  149.5734 H   0  0  0  0  0  0  0  0  0  0  0  0
  146.6581  133.4474  151.1697 H   0  0  0  0  0  0  0  0  0  0  0  0
  149.1917  138.0235  153.7101 H   0  0  0  0  0  0  0  0  0  0  0  0
  150.2137  139.1677  154.5050 H   0  0  0  0  0  0  0  0  0  0  0  0
  148.9989  140.2862  153.0169 H   0  0  0  0  0  0  0  0  0  0  0  0
  1  2  1  0  0  0  0
  1 32  1  0  0  0  0
  1 33  1  0  0  0  0
  1 34  1  0  0  0  0
  2  3  1  0  0  0  0
  2 35  1  0  0  0  0
  2 36  1  0  0  0  0
  3 29  1  0  0  0  0
  3  4  1  0  0  0  0
  3 60  1  0  0  0  0
  4  5  1  0  0  0  0
  4 37  1  0  0  0  0
  4 38  1  0  0  0  0
  5  6  1  0  0  0  0
  5 39  1  0  0  0  0
  5 40  1  0  0  0  0
  6 30  1  0  0  0  0
  6 28  1  0  0  0  0
  6  7  1  0  0  0  0
  7  8  1  0  0  0  0
  8  9  1  0  0  0  0
  8 41  1  0  0  0  0
  8 42  1  0  0  0  0
  9 10  1  0  0  0  0
  9 43  1  0  0  0  0
  9 44  1  0  0  0  0
 10 11  1  0  0  0  0
 10 28  1  0  0  0  0
 11 16  1  0  0  0  0
 11 12  2  0  0  0  0
 12 13  1  0  0  0  0
 13 14  2  0  0  0  0
 13 45  1  0  0  0  0
 14 15  1  0  0  0  0
 15 19  1  0  0  0  0
 15 16  2  0  0  0  0
 16 17  1  0  0  0  0
 17 18  2  0  0  0  0
 18 19  1  0  0  0  0
 18 46  1  0  0  0  0
 19 20  1  0  0  0  0
 20 27  1  0  0  0  0
 20 21  1  0  0  0  0
 20 47  1  0  0  0  0
 21 22  1  0  0  0  0
 21 48  1  0  0  0  0
 21 49  1  0  0  0  0
 22 23  1  0  0  0  0
 22 25  1  0  0  0  0
 22 27  1  0  0  0  0
 23 24  1  0  0  0  0
 23 50  1  0  0  0  0
 23 51  1  0  0  0  0
 24 52  1  0  0  0  0
 25 26  1  0  0  0  0
 25 53  1  0  0  0  0
 25 54  1  0  0  0  0
 26 55  1  0  0  0  0
 27 56  1  0  0  0  0
 27 57  1  0  0  0  0
 28 31  1  0  0  0  0
 28 29  1  0  0  0  0
 29 58  1  0  0  0  0
 29 59  1  0  0  0  0
M  CHG  1   3   1
M  END
> <s_m_source_file>
AV-unprocessed.smi

> <i_m_source_file_index>
16

> <i_lp_mmshare_version>
43012

> <i_f3d_flags>
0

> <s_epik_input>
W0NIM11bQ0gyXU4oW0NIMl1bQ0gyXTEpW0NIMl1bQ0BASF0oW0NAQEhdMTIpTihbQ0gyXVtDSDJdTzIpYyhuW2NIXW4zKWMoYzM0KW5bY0hdbjRbQ0hdKFtDSDJdNSlbQ0gyXUM1KFtDSDJdW09IXSlbQ0gyXVtPSF0=

> <s_epik_cmdline>
J2VwaWtfcHl0aG9uJywgJy1waCcsICc3LjAnLCAnLXRuJywgJzgnLCAnLW1hJywgJzIwMCcsICctbWV0YWxfYmluZGluZycsICctaW1hZScsICc8aW5maWxlLm1hZT4nLCAnLW9tYWUnLCAnPG91dGZpbGUubWFlPic=

> <r_lp_tautomer_probability>
1

> <r_epik_Ionization_Penalty>
0.0135603

> <r_epik_Ionization_Penalty_Charging>
0.0131385

> <r_epik_Ionization_Penalty_Neutral>
0.000421734

> <r_epik_State_Penalty>
0.0102091

> <r_epik_Charging_Adjusted_Penalty>
0.0233476

> <i_epik_Tot_Q>
1

> <i_epik_Tot_abs_Q>
1

> <r_epik_Metal_State_Penalty>
0.0103746

> <b_epik_Metal_Only>
0

> <s_lp_Force_Field>
OPLS_2005

> <r_lp_Energy>
65.3073

> <b_lp_Chiralities_Consistent>
1

> <s_lp_Variant>
AV-unprocessed.smi:16-1

> <Gold.Version>
5.8.1

> <Gold.Id.Protein>
6NUR|6NUR_protein|mol2

> <Gold.PLP.Fitness>
50.4149

> <Gold.PLP.PLP>
-37.3758

> <Gold.PLP.part.hbond>
-5.8191

> <Gold.PLP.part.metal>
0.0000

> <Gold.PLP.part.buried>
-2.2283

> <Gold.PLP.part.nonpolar>
-30.9566

> <Gold.PLP.part.repulsive>
0.8373

> <Gold.PLP.ligand.clash>
0.0000

> <Gold.PLP.ligand.torsion>
1.3185

> <Gold.PLP.Chemscore.Hbond>
4.0000

> <Gold.PLP.Chemscore.CHOScore>
1.0000

> <Gold.PLP.Chemscore.Metal>
0.0000

> <Gold.Chemscore.Hbonds>
donor molecule, donor type, donor heavy atom, donor atom, acceptor molecule, acceptor atom, score
      L1  H     3    60       P1  7957  1.00
      L1  H    24    52       P1 10747  0.94
      L1  H    26    55       P1 10186  1.00
      P1  H 10785 10796       L1    26  0.89
      L1  C    18    46       P1 10171  1.00

> <Gold.PLP.Chemscore.Internal.Correction>
0.6760

> <Gold.Rescore>
     Score         DG    S(hbond)    S(metal)    S(lipo)     H(rot)  DE(clash)    DE(int)     intcor
     13.61     -18.37       3.36        0.00      87.05       3.33       2.02       2.74       ----

> <Gold.Chemscore.Fitness>
13.6110

> <Gold.Chemscore.DG>
-18.3748

> <Gold.Chemscore.ZeroCoef>
-5.4800

> <Gold.Chemscore.Hbond>
3.3599

> <Gold.Chemscore.Metal>
0.0000

> <Gold.Chemscore.Lipo>
87.0517

> <Gold.Chemscore.Internal_Hbond>
0.0000

> <Gold.Chemscore.DEClash>
2.0193

> <Gold.Chemscore.DEInternal>
2.7445

> <Gold.Chemscore.Rot>
3.3251

> <Gold.Chemscore.Internal.Correction>
   9.000000E+99

> <Gold.Chemscore.Hbonds>
donor molecule, donor type, donor heavy atom, donor atom, acceptor molecule, acceptor atom, score
      L1  H     3    60       P1  7957  0.95
      L1  H    24    52       P1 10747  0.90
      L1  H    26    55       P1 10186  0.98
      P1  H 10785 10796       L1    26  0.34

> <Gold.Chemscore.Hbond.Weighted>
-11.2219

> <Gold.Chemscore.Metal.Weighted>
-0.0000

> <Gold.Chemscore.Lipo.Weighted>
-10.1850

> <Gold.Chemscore.Internal_Hbond.Weighted>
0.0000

> <Gold.Chemscore.DEClash.Weighted>
2.0193

> <Gold.Chemscore.DEInternal.Weighted>
2.7445

> <Gold.Chemscore.Rot.Weighted>
8.5122

> <Gold.Chemscore.Internal.Correction.Weighted>
   9.000000E+99

> <Gold.Protein.RotatedTorsions>
[ 6907 6896 6895 6894 ] final -177.14 input  -60.11 | X-H torsion
[ 7974 7965 7964 7962 ] final -153.22 input  175.53 | X-H torsion
[ 8008 7997 7996 7995 ] final   50.90 input   59.86 | X-H torsion
[ 10167 10162 10161 10158 ] final   55.20 input  -65.29 | X-H torsion
[ 10718 10713 10712 10709 ] final -154.27 input   66.30 | X-H torsion
[ 10763 10752 10751 10750 ] final -118.91 input  -60.55 | X-H torsion
[ 11005 11000 10999 10996 ] final   67.04 input  -57.11 | X-H torsion

> <Gold.Protein.ActiveResidues>
 VAL166  LYS551  ARG553  GLY616  TRP617  ASP618  TYR619  PRO620  LYS621  CYS622 
 ASP623  PHE694  ASN695  SER759  ASP760  ASP761  ALA762  ILE779  LEU786  VAL792 
 PHE793  MET794  SER795  GLU796  ALA797  LYS798  CYS799  TRP800  GLU811  SER814 

> <Gold.Protein.RotatedAtoms>
  151.6161  133.3343  159.3077 H   0  0  0  0  0  0  0  0  0  0  0  0  # atno 6907 bound_to 6896
  150.8130  134.7300  159.6717 H   0  0  0  0  0  0  0  0  0  0  0  0  # atno 6908 bound_to 6896
  152.4227  134.5931  160.0031 H   0  0  0  0  0  0  0  0  0  0  0  0  # atno 6909 bound_to 6896
  144.7752  140.4556  143.5878 H   0  0  0  0  0  0  0  0  0  0  0  0  # atno 7974 bound_to 7965
  155.4264  140.3448  155.4276 H   0  0  0  0  0  0  0  0  0  0  0  0  # atno 8008 bound_to 7997
  156.1362  140.1528  156.9021 H   0  0  0  0  0  0  0  0  0  0  0  0  # atno 8009 bound_to 7997
  154.4934  140.0834  156.7624 H   0  0  0  0  0  0  0  0  0  0  0  0  # atno 8010 bound_to 7997
  140.2220  144.3779  150.6447 H   0  0  0  0  0  0  0  0  0  0  0  0  # atno 10167 bound_to 10162
  156.4970  130.8374  151.2594 H   0  0  0  0  0  0  0  0  0  0  0  0  # atno 10718 bound_to 10713
  154.8602  135.4257  154.2215 H   0  0  0  0  0  0  0  0  0  0  0  0  # atno 10763 bound_to 10752
  153.3219  135.6982  153.7029 H   0  0  0  0  0  0  0  0  0  0  0  0  # atno 10764 bound_to 10752
  153.6080  135.3524  155.2942 H   0  0  0  0  0  0  0  0  0  0  0  0  # atno 10765 bound_to 10752
  139.9795  134.6768  156.0290 H   0  0  0  0  0  0  0  0  0  0  0  0  # atno 11005 bound_to 11000
  145.6206  139.1524  143.3024 LP  0  0  0  0  0  0  0  0  0  0  0  0  # atno 17320 bound_to 7965
  146.1927  140.6317  142.9138 LP  0  0  0  0  0  0  0  0  0  0  0  0  # atno 17321 bound_to 7965
  140.6248  143.2180  151.6619 LP  0  0  0  0  0  0  0  0  0  0  0  0  # atno 17342 bound_to 10162
  139.5141  144.3422  152.0730 LP  0  0  0  0  0  0  0  0  0  0  0  0  # atno 17343 bound_to 10162
  157.7467  130.9994  150.2889 LP  0  0  0  0  0  0  0  0  0  0  0  0  # atno 17370 bound_to 10713
  156.3370  130.3809  149.7442 LP  0  0  0  0  0  0  0  0  0  0  0  0  # atno 17371 bound_to 10713
  141.1468  133.6554  156.3893 LP  0  0  0  0  0  0  0  0  0  0  0  0  # atno 17394 bound_to 11000
  140.5126  134.6380  157.5290 LP  0  0  0  0  0  0  0  0  0  0  0  0  # atno 17395 bound_to 11000

$$$$
