AV-unprocessed.smi:3158|AV-procd|sdf|12046|dock10
  -GOLD-   2272017473D 1   1.00000     0.00000
 Structure written by MMmdl.
 39 39  0  0  0  0  0  0  0  0  1 V2000
  151.1433  137.5059  154.7118 C   0  0  0  0  0  0  0  0  0  0  0  0
  150.4935  138.8076  154.2197 C   0  0  0  0  0  0  0  0  0  0  0  0
  148.9974  138.9356  154.5826 C   0  0  1  0  0  0  0  0  0  0  0  0
  148.3943  140.2762  154.1263 C   0  0  0  0  0  0  0  0  0  0  0  0
  148.1978  137.7997  154.1166 N   0  0  0  0  0  0  0  0  0  0  0  0
  147.0863  137.2969  154.6814 C   0  0  0  0  0  0  0  0  0  0  0  0
  146.5764  137.7484  155.7071 O   0  0  0  0  0  0  0  0  0  0  0  0
  146.4683  136.0681  153.9945 C   0  0  2  0  0  0  0  0  0  0  0  0
  145.3360  135.4855  154.8549 C   0  0  0  0  0  0  0  0  0  0  0  0
  147.4561  135.0174  153.6935 N   0  0  0  0  0  0  0  0  0  0  0  0
  146.8760  133.7452  153.2726 C   0  0  0  0  0  0  0  0  0  0  0  0
  147.2723  133.4380  151.8194 C   0  0  0  0  0  0  0  0  0  0  0  0
  146.1188  133.1324  150.9913 N   0  0  0  0  0  0  0  0  0  0  0  0
  145.8756  131.9947  150.2507 C   0  0  0  0  0  0  0  0  0  0  0  0
  144.6610  132.1542  149.6475 C   0  0  0  0  0  0  0  0  0  0  0  0
  144.2333  133.4391  150.0842 C   0  0  0  0  0  0  0  0  0  0  0  0
  145.1078  134.0221  150.8882 N   0  0  0  0  0  0  0  0  0  0  0  0
  152.2086  137.4955  154.4807 H   0  0  0  0  0  0  0  0  0  0  0  0
  150.6973  136.6305  154.2389 H   0  0  0  0  0  0  0  0  0  0  0  0
  151.0365  137.3963  155.7913 H   0  0  0  0  0  0  0  0  0  0  0  0
  151.0340  139.6487  154.6553 H   0  0  0  0  0  0  0  0  0  0  0  0
  150.6324  138.8943  153.1417 H   0  0  0  0  0  0  0  0  0  0  0  0
  148.9253  138.9106  155.6705 H   0  0  0  0  0  0  0  0  0  0  0  0
  148.9183  141.1144  154.5862 H   0  0  0  0  0  0  0  0  0  0  0  0
  147.3437  140.3513  154.4088 H   0  0  0  0  0  0  0  0  0  0  0  0
  148.4589  140.4049  153.0456 H   0  0  0  0  0  0  0  0  0  0  0  0
  148.5287  137.3433  153.2789 H   0  0  0  0  0  0  0  0  0  0  0  0
  146.0258  136.3901  153.0499 H   0  0  0  0  0  0  0  0  0  0  0  0
  144.5816  136.2403  155.0806 H   0  0  0  0  0  0  0  0  0  0  0  0
  145.7098  135.0943  155.8022 H   0  0  0  0  0  0  0  0  0  0  0  0
  144.8335  134.6682  154.3366 H   0  0  0  0  0  0  0  0  0  0  0  0
  148.1315  135.3280  153.0088 H   0  0  0  0  0  0  0  0  0  0  0  0
  147.2403  132.9537  153.9284 H   0  0  0  0  0  0  0  0  0  0  0  0
  145.7885  133.7546  153.3521 H   0  0  0  0  0  0  0  0  0  0  0  0
  147.8263  134.2706  151.3820 H   0  0  0  0  0  0  0  0  0  0  0  0
  147.9387  132.5751  151.7953 H   0  0  0  0  0  0  0  0  0  0  0  0
  146.5778  131.1747  150.2186 H   0  0  0  0  0  0  0  0  0  0  0  0
  144.1549  131.4589  148.9944 H   0  0  0  0  0  0  0  0  0  0  0  0
  143.3194  133.9619  149.8428 H   0  0  0  0  0  0  0  0  0  0  0  0
  1  2  1  0  0  0  0
  1 18  1  0  0  0  0
  1 19  1  0  0  0  0
  1 20  1  0  0  0  0
  2  3  1  0  0  0  0
  2 21  1  0  0  0  0
  2 22  1  0  0  0  0
  3  4  1  0  0  0  0
  3  5  1  0  0  0  0
  3 23  1  0  0  0  0
  4 24  1  0  0  0  0
  4 25  1  0  0  0  0
  4 26  1  0  0  0  0
  5  6  1  0  0  0  0
  5 27  1  0  0  0  0
  6  7  2  0  0  0  0
  6  8  1  0  0  0  0
  8  9  1  0  0  0  0
  8 10  1  0  0  0  0
  8 28  1  0  0  0  0
  9 29  1  0  0  0  0
  9 30  1  0  0  0  0
  9 31  1  0  0  0  0
 10 11  1  0  0  0  0
 10 32  1  0  0  0  0
 11 12  1  0  0  0  0
 11 33  1  0  0  0  0
 11 34  1  0  0  0  0
 12 13  1  0  0  0  0
 12 35  1  0  0  0  0
 12 36  1  0  0  0  0
 13 17  1  0  0  0  0
 13 14  1  0  0  0  0
 14 15  2  0  0  0  0
 14 37  1  0  0  0  0
 15 16  1  0  0  0  0
 15 38  1  0  0  0  0
 16 17  2  0  0  0  0
 16 39  1  0  0  0  0
M  END
> <s_m_source_file>
AV-unprocessed.smi

> <i_m_source_file_index>
3158

> <i_lp_mmshare_version>
43012

> <i_f3d_flags>
0

> <s_epik_input>
W0NIM11bQ0gyXVtDQEhdKFtDSDNdKVtOSF1DKD1PKVtDQEhdKFtDSDNdKVtOSF1bQ0gyXVtDSDJdbjFbY0hdW2NIXVtjSF1uMQ==

> <s_epik_cmdline>
J2VwaWtfcHl0aG9uJywgJy1waCcsICc3LjAnLCAnLXRuJywgJzgnLCAnLW1hJywgJzIwMCcsICctbWV0YWxfYmluZGluZycsICctaW1hZScsICc8aW5maWxlLm1hZT4nLCAnLW9tYWUnLCAnPG91dGZpbGUubWFlPic=

> <r_lp_tautomer_probability>
1

> <r_epik_Ionization_Penalty>
0.724013

> <r_epik_Ionization_Penalty_Charging>
0

> <r_epik_Ionization_Penalty_Neutral>
0.724013

> <r_epik_State_Penalty>
0.74758

> <r_epik_Charging_Adjusted_Penalty>
0.74758

> <i_epik_Tot_Q>
0

> <i_epik_Tot_abs_Q>
0

> <r_epik_Metal_State_Penalty>
0.746846

> <b_epik_Metal_Only>
0

> <s_lp_Force_Field>
OPLS_2005

> <r_lp_Energy>
6.38515

> <b_lp_Chiralities_Consistent>
1

> <s_lp_Variant>
AV-unprocessed.smi:3158-6

> <Gold.Version>
5.8.1

> <Gold.Id.Protein>
6NUR|6NUR_protein|mol2

> <Gold.PLP.Fitness>
37.6197

> <Gold.PLP.PLP>
-28.1623

> <Gold.PLP.part.hbond>
-2.0000

> <Gold.PLP.part.metal>
0.0000

> <Gold.PLP.part.buried>
-3.7296

> <Gold.PLP.part.nonpolar>
-22.8441

> <Gold.PLP.part.repulsive>
0.1369

> <Gold.PLP.ligand.clash>
0.0000

> <Gold.PLP.ligand.torsion>
1.3359

> <Gold.PLP.Chemscore.Hbond>
2.0000

> <Gold.PLP.Chemscore.CHOScore>
2.0000

> <Gold.PLP.Chemscore.Metal>
0.0000

> <Gold.Chemscore.Hbonds>
donor molecule, donor type, donor heavy atom, donor atom, acceptor molecule, acceptor atom, score
      L1  H     5    27       P1  7948  1.00
      L1  H    10    32       P1  7948  1.00
      L1  C    14    37       P1 10747  1.00
      L1  C    16    39       P1 10186  1.00

> <Gold.PLP.Chemscore.Internal.Correction>
0.1292

> <Gold.Rescore>
     Score         DG    S(hbond)    S(metal)    S(lipo)     H(rot)  DE(clash)    DE(int)     intcor
     13.86     -15.25       1.99        0.00      73.22       2.12       0.16       1.23       ----

> <Gold.Chemscore.Fitness>
13.8581

> <Gold.Chemscore.DG>
-15.2472

> <Gold.Chemscore.ZeroCoef>
-5.4800

> <Gold.Chemscore.Hbond>
1.9869

> <Gold.Chemscore.Metal>
0.0000

> <Gold.Chemscore.Lipo>
73.2217

> <Gold.Chemscore.Internal_Hbond>
0.0000

> <Gold.Chemscore.DEClash>
0.1634

> <Gold.Chemscore.DEInternal>
1.2257

> <Gold.Chemscore.Rot>
2.1234

> <Gold.Chemscore.Internal.Correction>
   9.000000E+99

> <Gold.Chemscore.Hbonds>
donor molecule, donor type, donor heavy atom, donor atom, acceptor molecule, acceptor atom, score
      L1  H     5    27       P1  7948  1.00
      L1  H    10    32       P1  7948  0.99

> <Gold.Chemscore.Hbond.Weighted>
-6.6361

> <Gold.Chemscore.Metal.Weighted>
-0.0000

> <Gold.Chemscore.Lipo.Weighted>
-8.5669

> <Gold.Chemscore.Internal_Hbond.Weighted>
0.0000

> <Gold.Chemscore.DEClash.Weighted>
0.1634

> <Gold.Chemscore.DEInternal.Weighted>
1.2257

> <Gold.Chemscore.Rot.Weighted>
5.4359

> <Gold.Chemscore.Internal.Correction.Weighted>
   9.000000E+99

> <Gold.Protein.RotatedTorsions>
[ 6907 6896 6895 6894 ] final    1.83 input  -60.11 | X-H torsion
[ 7974 7965 7964 7962 ] final  -85.60 input  175.53 | X-H torsion
[ 8008 7997 7996 7995 ] final  -55.16 input   59.86 | X-H torsion
[ 10167 10162 10161 10158 ] final  101.24 input  -65.29 | X-H torsion
[ 10718 10713 10712 10709 ] final -176.86 input   66.30 | X-H torsion
[ 10763 10752 10751 10750 ] final  179.27 input  -60.55 | X-H torsion
[ 11005 11000 10999 10996 ] final  -33.58 input  -57.11 | X-H torsion

> <Gold.Protein.ActiveResidues>
 VAL166  LYS551  ARG553  GLY616  TRP617  ASP618  TYR619  PRO620  LYS621  CYS622 
 ASP623  PHE694  ASN695  SER759  ASP760  ASP761  ALA762  ILE779  LEU786  VAL792 
 PHE793  MET794  SER795  GLU796  ALA797  LYS798  CYS799  TRP800  GLU811  SER814 

> <Gold.Protein.RotatedAtoms>
  151.5991  135.1048  160.0055 H   0  0  0  0  0  0  0  0  0  0  0  0  # atno 6907 bound_to 6896
  152.4267  133.7203  159.6540 H   0  0  0  0  0  0  0  0  0  0  0  0  # atno 6908 bound_to 6896
  150.8157  133.8270  159.3184 H   0  0  0  0  0  0  0  0  0  0  0  0  # atno 6909 bound_to 6896
  145.4911  140.9552  143.1812 H   0  0  0  0  0  0  0  0  0  0  0  0  # atno 7974 bound_to 7965
  154.4186  140.1159  156.5433 H   0  0  0  0  0  0  0  0  0  0  0  0  # atno 8008 bound_to 7997
  155.6486  140.3496  155.4721 H   0  0  0  0  0  0  0  0  0  0  0  0  # atno 8009 bound_to 7997
  155.9811  140.1160  157.0715 H   0  0  0  0  0  0  0  0  0  0  0  0  # atno 8010 bound_to 7997
  139.7456  144.6999  151.0509 H   0  0  0  0  0  0  0  0  0  0  0  0  # atno 10167 bound_to 10162
  156.8209  130.9619  151.3112 H   0  0  0  0  0  0  0  0  0  0  0  0  # atno 10718 bound_to 10713
  154.5185  135.2792  155.1283 H   0  0  0  0  0  0  0  0  0  0  0  0  # atno 10763 bound_to 10752
  154.2850  135.6278  153.5366 H   0  0  0  0  0  0  0  0  0  0  0  0  # atno 10764 bound_to 10752
  152.9932  135.5660  154.5668 H   0  0  0  0  0  0  0  0  0  0  0  0  # atno 10765 bound_to 10752
  140.9646  133.7144  156.1424 H   0  0  0  0  0  0  0  0  0  0  0  0  # atno 11005 bound_to 11000
  144.7833  139.6479  143.7145 LP  0  0  0  0  0  0  0  0  0  0  0  0  # atno 17320 bound_to 7965
  146.2284  139.5766  142.9572 LP  0  0  0  0  0  0  0  0  0  0  0  0  # atno 17321 bound_to 7965
  140.7791  143.4871  150.9941 LP  0  0  0  0  0  0  0  0  0  0  0  0  # atno 17342 bound_to 10162
  139.8559  143.7377  152.3176 LP  0  0  0  0  0  0  0  0  0  0  0  0  # atno 17343 bound_to 10162
  157.6457  130.8842  149.9534 LP  0  0  0  0  0  0  0  0  0  0  0  0  # atno 17370 bound_to 10713
  156.0989  130.3657  150.0254 LP  0  0  0  0  0  0  0  0  0  0  0  0  # atno 17371 bound_to 10713
  140.7418  134.4142  157.5553 LP  0  0  0  0  0  0  0  0  0  0  0  0  # atno 17394 bound_to 11000
  139.8890  134.8842  156.2444 LP  0  0  0  0  0  0  0  0  0  0  0  0  # atno 17395 bound_to 11000

$$$$
