#       Name:                AV-unprocessed.smi:862
#       Creating user name   scv26
#       Creation time:       Fri Mar 27 01:45:31 2020


#       File generated by GOLD software.
#

@<TRIPOS>MOLECULE
AV-unprocessed.smi:862
    47    49     1
SMALL
NO_CHARGES


@<TRIPOS>ATOM
      1 ****        -4.4228  -2.8702   0.9540 N.am           1 S1                 0.0000
      2 ****        -4.0843  -2.4712  -0.2759 C.2            1 S1                 0.0000
      3 ****        -4.2301  -3.2147  -1.2445 O.2            1 S1                 0.0000
      4 ****        -3.6138  -1.2013  -0.3652 N.am           1 S1                 0.0000
      5 ****        -3.1978  -0.3462   0.7590 C.3            1 S1                 0.0000
      6 ****        -1.6602  -0.2646   0.7794 C.3            1 S1                 0.0000
      7 ****        -1.1102   0.2604  -0.5672 C.3            1 S1                 0.0000
      8 ****         0.3670   0.1874  -0.6131 N.4            1 S1                 1.0000
      9 ****         1.0991   1.4235  -0.2450 C.3            1 S1                 0.0000
     10 ****         0.9991   1.8042   1.2358 C.3            1 S1                 0.0000
     11 ****         2.2104   2.7098   1.4974 C.3            1 S1                 0.0000
     12 ****         3.1953   2.4772   0.3380 C.3            1 S1                 0.0000
     13 ****         2.6123   1.3389  -0.5169 C.3            1 S1                 0.0000
     14 ****         3.1884   0.0370  -0.1825 N.pl3          1 S1                 0.0000
     15 ****         3.5010  -0.9733  -1.0848 C.2            1 S1                 0.0000
     16 ****         3.9795  -2.0330  -0.3487 C.2            1 S1                 0.0000
     17 ****         3.9598  -1.7076   1.0043 N.2            1 S1                 0.0000
     18 ****         3.4813  -0.4712   1.0262 C.2            1 S1                 0.0000
     19 ****        -1.7072  -0.5371  -1.7455 C.3            1 S1                 0.0000
     20 ****        -3.2420  -0.6024  -1.6527 C.3            1 S1                 0.0000
     21 ****        -4.7860  -3.8020   1.0933 H              1 S1                 0.0000
     22 ****        -4.3208  -2.2410   1.7365 H              1 S1                 0.0000
     23 ****        -3.6206   0.6507   0.6250 H              1 S1                 0.0000
     24 ****        -3.5616  -0.6847   1.7290 H              1 S1                 0.0000
     25 ****        -1.3469   0.3770   1.6016 H              1 S1                 0.0000
     26 ****        -1.2501  -1.2543   0.9873 H              1 S1                 0.0000
     27 ****        -1.4193   1.2998  -0.6896 H              1 S1                 0.0000
     28 ****         0.6826  -0.5801  -0.0372 H              1 S1                 0.0000
     29 ****         0.7046   2.2479  -0.8416 H              1 S1                 0.0000
     30 ****         0.0596   2.3042   1.4728 H              1 S1                 0.0000
     31 ****         1.0656   0.9142   1.8626 H              1 S1                 0.0000
     32 ****         1.9075   3.7572   1.5242 H              1 S1                 0.0000
     33 ****         2.6658   2.4809   2.4616 H              1 S1                 0.0000
     34 ****         3.2537   3.3846  -0.2643 H              1 S1                 0.0000
     35 ****         4.2075   2.2691   0.6880 H              1 S1                 0.0000
     36 ****         2.8173   1.5230  -1.5727 H              1 S1                 0.0000
     37 ****         3.3624  -0.8595  -2.1501 H              1 S1                 0.0000
     38 ****         4.3281  -2.9982  -0.6856 H              1 S1                 0.0000
     39 ****         3.3382   0.0715   1.9488 H              1 S1                 0.0000
     40 ****        -1.4132  -0.0826  -2.6922 H              1 S1                 0.0000
     41 ****        -1.3049  -1.5516  -1.7513 H              1 S1                 0.0000
     42 ****        -3.6439  -1.1536  -2.5042 H              1 S1                 0.0000
     43 ****        -3.6677   0.3997  -1.7236 H              1 S1                 0.0000
     44 ****         0.6179  -0.0165  -1.5700 H              1 S1                 0.0000
     45 ****        -4.6067  -4.1325  -1.1182 LP             1 S1                 0.0000
     46 ****        -3.9721  -2.9016  -2.1585 LP             1 S1                 0.0000
     47 ****         4.2409  -2.2740   1.7790 LP             1 S1                 0.0000
@<TRIPOS>BOND
    1    1    2 am    
    2    1   21 1     
    3    1   22 1     
    4    2    3 2     
    5    2    4 am    
    6    4   20 1     
    7    4    5 1     
    8    5    6 1     
    9    5   23 1     
   10    5   24 1     
   11    6    7 1     
   12    6   25 1     
   13    6   26 1     
   14    7    8 1     
   15    7   19 1     
   16    7   27 1     
   17    8    9 1     
   18    8   28 1     
   19    8   44 1     
   20    9   13 1     
   21    9   10 1     
   22    9   29 1     
   23   10   11 1     
   24   10   30 1     
   25   10   31 1     
   26   11   12 1     
   27   11   32 1     
   28   11   33 1     
   29   12   13 1     
   30   12   34 1     
   31   12   35 1     
   32   13   14 1     
   33   13   36 1     
   34   14   18 1     
   35   14   15 1     
   36   15   16 2     
   37   15   37 1     
   38   16   17 1     
   39   16   38 1     
   40   17   18 2     
   41   18   39 1     
   42   19   20 1     
   43   19   40 1     
   44   19   41 1     
   45   20   42 1     
   46   20   43 1     
   47    3   45 1     
   48    3   46 1     
   49   17   47 1     
@<TRIPOS>SUBSTRUCTURE
      1 S1             1
@<TRIPOS>SET
LONE_PAIRS      STATIC     ATOMS    <user>   **** ""
3 45 46 47
DONOR_HYDROGENS      STATIC     ATOMS    <user>   **** ""
4 21 22 28 44
ATOM$BLUE        STATIC     ATOMS    COLORGROUP SYSTEM
3 45 46 47
ATOM$RED        STATIC     ATOMS    COLORGROUP SYSTEM
4 21 22 28 44
