AV-unprocessed.smi:2306|AV-procd|sdf|9248|dock3
  -GOLD-   2272012463D 1   1.00000     0.00000
 Structure written by MMmdl.
 41 42  0  0  0  0  0  0  0  0  1 V2000
  145.0425  143.9077  154.3789 C   0  0  0  0  0  0  0  0  0  0  0  0
  146.1206  142.8877  154.6995 C   0  0  0  0  0  0  0  0  0  0  0  0
  146.7236  142.2788  153.5948 N   0  0  0  0  0  0  0  0  0  0  0  0
  147.6436  141.3879  153.7719 C   0  0  0  0  0  0  0  0  0  0  0  0
  148.0624  141.0064  155.0564 N   0  0  0  0  0  0  0  0  0  0  0  0
  149.1159  139.9812  155.1208 C   0  0  0  0  0  0  0  0  0  0  0  0
  150.4902  140.5862  155.4907 C   0  0  2  0  0  0  0  0  0  0  0  0
  151.4928  139.9440  154.7292 O   0  0  0  0  0  0  0  0  0  0  0  0
  150.8369  140.3788  156.9727 C   0  0  0  0  0  0  0  0  0  0  0  0
  150.9816  141.6514  157.5800 O   0  0  0  0  0  0  0  0  0  0  0  0
  152.1477  141.7620  158.3789 C   0  0  0  0  0  0  0  0  0  0  0  0
  152.0887  142.9534  159.3177 C   0  0  0  0  0  0  0  0  0  0  0  0
  152.1664  142.7742  160.7164 C   0  0  0  0  0  0  0  0  0  0  0  0
  152.0954  143.8861  161.5782 C   0  0  0  0  0  0  0  0  0  0  0  0
  151.9397  145.1811  161.0473 C   0  0  0  0  0  0  0  0  0  0  0  0
  151.8523  145.3636  159.6538 C   0  0  0  0  0  0  0  0  0  0  0  0
  151.9238  144.2520  158.7913 C   0  0  0  0  0  0  0  0  0  0  0  0
  147.5419  141.5647  156.1878 C   0  0  0  0  0  0  0  0  0  0  0  0
  147.9367  141.2413  157.3101 O   0  0  0  0  0  0  0  0  0  0  0  0
  146.4898  142.5708  155.9707 C   0  0  0  0  0  0  0  0  0  0  0  0
  145.8658  143.1976  157.2113 C   0  0  0  0  0  0  0  0  0  0  0  0
  145.3186  144.8891  154.7651 H   0  0  0  0  0  0  0  0  0  0  0  0
  144.0922  143.6117  154.8238 H   0  0  0  0  0  0  0  0  0  0  0  0
  144.8920  144.0027  153.3027 H   0  0  0  0  0  0  0  0  0  0  0  0
  148.1478  140.8856  152.9444 H   0  0  0  0  0  0  0  0  0  0  0  0
  148.8232  139.2432  155.8699 H   0  0  0  0  0  0  0  0  0  0  0  0
  149.1830  139.3985  154.1993 H   0  0  0  0  0  0  0  0  0  0  0  0
  150.5246  141.6545  155.2719 H   0  0  0  0  0  0  0  0  0  0  0  0
  151.1025  139.2156  154.2708 H   0  0  0  0  0  0  0  0  0  0  0  0
  150.0606  139.7983  157.4739 H   0  0  0  0  0  0  0  0  0  0  0  0
  151.7743  139.8275  157.0664 H   0  0  0  0  0  0  0  0  0  0  0  0
  152.2753  140.8510  158.9660 H   0  0  0  0  0  0  0  0  0  0  0  0
  153.0272  141.8675  157.7422 H   0  0  0  0  0  0  0  0  0  0  0  0
  152.2809  141.7856  161.1368 H   0  0  0  0  0  0  0  0  0  0  0  0
  152.1585  143.7446  162.6471 H   0  0  0  0  0  0  0  0  0  0  0  0
  151.8843  146.0331  161.7087 H   0  0  0  0  0  0  0  0  0  0  0  0
  151.7291  146.3562  159.2463 H   0  0  0  0  0  0  0  0  0  0  0  0
  151.8525  144.3997  157.7236 H   0  0  0  0  0  0  0  0  0  0  0  0
  145.3718  142.4314  157.8095 H   0  0  0  0  0  0  0  0  0  0  0  0
  145.1258  143.9622  156.9808 H   0  0  0  0  0  0  0  0  0  0  0  0
  146.6359  143.6636  157.8269 H   0  0  0  0  0  0  0  0  0  0  0  0
  1  2  1  0  0  0  0
  1 22  1  0  0  0  0
  1 23  1  0  0  0  0
  1 24  1  0  0  0  0
  2 20  2  0  0  0  0
  2  3  1  0  0  0  0
  3  4  2  0  0  0  0
  4  5  1  0  0  0  0
  4 25  1  0  0  0  0
  5  6  1  0  0  0  0
  5 18  1  0  0  0  0
  6  7  1  0  0  0  0
  6 26  1  0  0  0  0
  6 27  1  0  0  0  0
  7  8  1  0  0  0  0
  7  9  1  0  0  0  0
  7 28  1  0  0  0  0
  8 29  1  0  0  0  0
  9 10  1  0  0  0  0
  9 30  1  0  0  0  0
  9 31  1  0  0  0  0
 10 11  1  0  0  0  0
 11 12  1  0  0  0  0
 11 32  1  0  0  0  0
 11 33  1  0  0  0  0
 12 17  1  0  0  0  0
 12 13  2  0  0  0  0
 13 14  1  0  0  0  0
 13 34  1  0  0  0  0
 14 15  2  0  0  0  0
 14 35  1  0  0  0  0
 15 16  1  0  0  0  0
 15 36  1  0  0  0  0
 16 17  2  0  0  0  0
 16 37  1  0  0  0  0
 17 38  1  0  0  0  0
 18 19  2  0  0  0  0
 18 20  1  0  0  0  0
 20 21  1  0  0  0  0
 21 39  1  0  0  0  0
 21 40  1  0  0  0  0
 21 41  1  0  0  0  0
M  END
> <s_m_source_file>
AV-unprocessed.smi

> <i_m_source_file_index>
2306

> <i_lp_mmshare_version>
43012

> <i_f3d_flags>
0

> <s_epik_input>
W0NIM11jMW5bY0hdbihjKD1PKWMxW0NIM10pW0NIMl1bQ0BIXShbT0hdKVtDSDJdT1tDSDJdYzJbY0hdW2NIXVtjSF1bY0hdW2NIXTI=

> <s_epik_cmdline>
J2VwaWtfcHl0aG9uJywgJy1waCcsICc3LjAnLCAnLXRuJywgJzgnLCAnLW1hJywgJzIwMCcsICctbWV0YWxfYmluZGluZycsICctaW1hZScsICc8aW5maWxlLm1hZT4nLCAnLW9tYWUnLCAnPG91dGZpbGUubWFlPic=

> <r_lp_tautomer_probability>
1

> <r_epik_Ionization_Penalty>
5.35985e-05

> <r_epik_Ionization_Penalty_Charging>
1.17753e-07

> <r_epik_Ionization_Penalty_Neutral>
5.34808e-05

> <r_epik_State_Penalty>
-0

> <r_epik_Charging_Adjusted_Penalty>
1.17753e-07

> <i_epik_Tot_Q>
0

> <i_epik_Tot_abs_Q>
0

> <r_epik_Metal_State_Penalty>
-0

> <b_epik_Metal_Only>
0

> <s_lp_Force_Field>
OPLS_2005

> <r_lp_Energy>
22.2439

> <b_lp_Chiralities_Consistent>
1

> <s_lp_Variant>
AV-unprocessed.smi:2306-1

> <Gold.Version>
5.8.1

> <Gold.Id.Protein>
6NUR|6NUR_protein|mol2

> <Gold.PLP.Fitness>
46.5860

> <Gold.PLP.PLP>
-44.2264

> <Gold.PLP.part.hbond>
-1.0000

> <Gold.PLP.part.metal>
0.0000

> <Gold.PLP.part.buried>
-4.2335

> <Gold.PLP.part.nonpolar>
-38.4787

> <Gold.PLP.part.repulsive>
0.3147

> <Gold.PLP.ligand.clash>
0.0000

> <Gold.PLP.ligand.torsion>
1.8893

> <Gold.PLP.Chemscore.Hbond>
1.0000

> <Gold.PLP.Chemscore.CHOScore>
1.0000

> <Gold.PLP.Chemscore.Metal>
0.0000

> <Gold.Chemscore.Hbonds>
donor molecule, donor type, donor heavy atom, donor atom, acceptor molecule, acceptor atom, score
      P1  H  7989  7998       L1     8  0.85
      L1  C     4    25       P1  7957  1.00

> <Gold.PLP.Chemscore.Internal.Correction>
0.1382

> <Gold.Rescore>
     Score         DG    S(hbond)    S(metal)    S(lipo)     H(rot)  DE(clash)    DE(int)     intcor
     11.59     -13.67       0.55        0.00     109.43       2.52       0.02       2.06       ----

> <Gold.Chemscore.Fitness>
11.5914

> <Gold.Chemscore.DG>
-13.6714

> <Gold.Chemscore.ZeroCoef>
-5.4800

> <Gold.Chemscore.Hbond>
0.5478

> <Gold.Chemscore.Metal>
0.0000

> <Gold.Chemscore.Lipo>
109.4271

> <Gold.Chemscore.Internal_Hbond>
0.0000

> <Gold.Chemscore.DEClash>
0.0175

> <Gold.Chemscore.DEInternal>
2.0624

> <Gold.Chemscore.Rot>
2.5162

> <Gold.Chemscore.Internal.Correction>
   9.000000E+99

> <Gold.Chemscore.Hbonds>
donor molecule, donor type, donor heavy atom, donor atom, acceptor molecule, acceptor atom, score
      P1  H  7989  7998       L1     8  0.06

> <Gold.Chemscore.Hbond.Weighted>
-1.8298

> <Gold.Chemscore.Metal.Weighted>
-0.0000

> <Gold.Chemscore.Lipo.Weighted>
-12.8030

> <Gold.Chemscore.Internal_Hbond.Weighted>
0.0000

> <Gold.Chemscore.DEClash.Weighted>
0.0175

> <Gold.Chemscore.DEInternal.Weighted>
2.0624

> <Gold.Chemscore.Rot.Weighted>
6.4414

> <Gold.Chemscore.Internal.Correction.Weighted>
   9.000000E+99

> <Gold.Protein.RotatedTorsions>
[ 6907 6896 6895 6894 ] final -137.22 input  -60.11 | X-H torsion
[ 7974 7965 7964 7962 ] final  120.99 input  175.53 | X-H torsion
[ 8008 7997 7996 7995 ] final   57.36 input   59.86 | X-H torsion
[ 10167 10162 10161 10158 ] final -148.78 input  -65.29 | X-H torsion
[ 10718 10713 10712 10709 ] final  -57.26 input   66.30 | X-H torsion
[ 10763 10752 10751 10750 ] final  151.42 input  -60.55 | X-H torsion
[ 11005 11000 10999 10996 ] final -100.37 input  -57.11 | X-H torsion

> <Gold.Protein.ActiveResidues>
 VAL166  LYS551  ARG553  GLY616  TRP617  ASP618  TYR619  PRO620  LYS621  CYS622 
 ASP623  PHE694  ASN695  SER759  ASP760  ASP761  ALA762  ILE779  LEU786  VAL792 
 PHE793  MET794  SER795  GLU796  ALA797  LYS798  CYS799  TRP800  GLU811  SER814 

> <Gold.Protein.RotatedAtoms>
  151.0198  133.5887  159.2672 H   0  0  0  0  0  0  0  0  0  0  0  0  # atno 6907 bound_to 6896
  151.3008  135.0767  159.9247 H   0  0  0  0  0  0  0  0  0  0  0  0  # atno 6908 bound_to 6896
  152.5320  133.9880  159.7891 H   0  0  0  0  0  0  0  0  0  0  0  0  # atno 6909 bound_to 6896
  145.1245  139.3367  143.4697 H   0  0  0  0  0  0  0  0  0  0  0  0  # atno 7974 bound_to 7965
  155.5325  140.3482  155.4429 H   0  0  0  0  0  0  0  0  0  0  0  0  # atno 8008 bound_to 7997
  156.0708  140.1362  156.9857 H   0  0  0  0  0  0  0  0  0  0  0  0  # atno 8009 bound_to 7997
  154.4527  140.0966  156.6641 H   0  0  0  0  0  0  0  0  0  0  0  0  # atno 8010 bound_to 7997
  139.7501  143.8531  152.2584 H   0  0  0  0  0  0  0  0  0  0  0  0  # atno 10167 bound_to 10162
  156.1224  130.4165  150.0417 H   0  0  0  0  0  0  0  0  0  0  0  0  # atno 10718 bound_to 10713
  154.1036  135.2844  155.3246 H   0  0  0  0  0  0  0  0  0  0  0  0  # atno 10763 bound_to 10752
  154.6539  135.5359  153.7938 H   0  0  0  0  0  0  0  0  0  0  0  0  # atno 10764 bound_to 10752
  153.0370  135.6517  154.1198 H   0  0  0  0  0  0  0  0  0  0  0  0  # atno 10765 bound_to 10752
  141.1273  133.8394  157.1094 H   0  0  0  0  0  0  0  0  0  0  0  0  # atno 11005 bound_to 11000
  146.3518  140.1219  142.8600 LP  0  0  0  0  0  0  0  0  0  0  0  0  # atno 17320 bound_to 7965
  145.0703  140.9150  143.4886 LP  0  0  0  0  0  0  0  0  0  0  0  0  # atno 17321 bound_to 7965
  139.8507  144.7166  150.9217 LP  0  0  0  0  0  0  0  0  0  0  0  0  # atno 17342 bound_to 10162
  140.7797  143.3902  151.1324 LP  0  0  0  0  0  0  0  0  0  0  0  0  # atno 17343 bound_to 10162
  156.8352  130.9406  151.3635 LP  0  0  0  0  0  0  0  0  0  0  0  0  # atno 17370 bound_to 10713
  157.6407  130.8803  149.9443 LP  0  0  0  0  0  0  0  0  0  0  0  0  # atno 17371 bound_to 10713
  140.0284  134.9913  157.0733 LP  0  0  0  0  0  0  0  0  0  0  0  0  # atno 17394 bound_to 11000
  140.4324  134.1766  155.7169 LP  0  0  0  0  0  0  0  0  0  0  0  0  # atno 17395 bound_to 11000

$$$$
