#       Name:                AV-unprocessed.smi:2129
#       Creating user name   scv26
#       Creation time:       Fri Mar 27 11:43:47 2020


#       File generated by GOLD software.
#

@<TRIPOS>MOLECULE
AV-unprocessed.smi:2129
    40    40     1
SMALL
NO_CHARGES


@<TRIPOS>ATOM
      1 ****        -1.4652   2.2032  -1.0933 C.3            1 S1                 0.0000
      2 ****        -2.3622   1.0786  -0.5457 C.3            1 S1                 0.0000
      3 ****        -2.0482  -0.3512  -1.0674 C.3            1 S1                 0.0000
      4 ****        -2.9339  -1.3828  -0.3344 C.3            1 S1                 0.0000
      5 ****        -2.3542  -0.4450  -2.5751 C.3            1 S1                 0.0000
      6 ****        -0.6297  -0.6912  -0.8966 N.am           1 S1                 0.0000
      7 ****         0.0863  -0.7442   0.2405 C.2            1 S1                 0.0000
      8 ****        -0.3843  -0.5357   1.3591 O.2            1 S1                 0.0000
      9 ****         1.5671  -1.1116   0.0809 C.3            1 S1                 0.0000
     10 ****         2.4415  -0.3306   0.9702 N.am           1 S1                 0.0000
     11 ****         2.8794  -0.9389   2.1598 C.2            1 S1                 0.0000
     12 ****         3.6780  -0.2969   3.0336 C.2            1 S1                 0.0000
     13 ****         4.0890   1.0662   2.7204 C.2            1 S1                 0.0000
     14 ****         4.8212   1.6664   3.5048 O.2            1 S1                 0.0000
     15 ****         3.6344   1.6145   1.5558 N.pl3          1 S1                -1.0000
     16 ****         2.8217   0.9498   0.6769 C.2            1 S1                 0.0000
     17 ****         2.4229   1.4635  -0.3691 O.2            1 S1                 0.0000
     18 ****        -1.7533   3.1626  -0.6639 H              1 S1                 0.0000
     19 ****        -1.5463   2.2956  -2.1758 H              1 S1                 0.0000
     20 ****        -0.4158   2.0420  -0.8461 H              1 S1                 0.0000
     21 ****        -2.2975   1.0951   0.5427 H              1 S1                 0.0000
     22 ****        -3.4010   1.3218  -0.7723 H              1 S1                 0.0000
     23 ****        -3.9912  -1.2033  -0.5327 H              1 S1                 0.0000
     24 ****        -2.8024  -1.3438   0.7469 H              1 S1                 0.0000
     25 ****        -2.7095  -2.4007  -0.6556 H              1 S1                 0.0000
     26 ****        -3.3875  -0.1701  -2.7888 H              1 S1                 0.0000
     27 ****        -2.2030  -1.4591  -2.9473 H              1 S1                 0.0000
     28 ****        -1.7114   0.2102  -3.1634 H              1 S1                 0.0000
     29 ****        -0.1253  -0.8841  -1.7496 H              1 S1                 0.0000
     30 ****         1.6740  -2.1789   0.2775 H              1 S1                 0.0000
     31 ****         1.8777  -0.9786  -0.9573 H              1 S1                 0.0000
     32 ****         2.5248  -1.9466   2.3194 H              1 S1                 0.0000
     33 ****         4.0038  -0.7774   3.9443 H              1 S1                 0.0000
     34 ****        -1.3536  -0.3113   1.4599 LP             1 S1                 0.0000
     35 ****         0.2028  -0.5907   2.1668 LP             1 S1                 0.0000
     36 ****         5.1272   1.2191   4.3452 LP             1 S1                 0.0000
     37 ****         5.1108   2.6019   3.3024 LP             1 S1                 0.0000
     38 ****         3.9091   2.5499   1.3331 LP             1 S1                 0.0000
     39 ****         1.8316   0.9453  -0.9869 LP             1 S1                 0.0000
     40 ****         2.6905   2.3989  -0.6005 LP             1 S1                 0.0000
@<TRIPOS>BOND
    1    1    2 1     
    2    1   18 1     
    3    1   19 1     
    4    1   20 1     
    5    2    3 1     
    6    2   21 1     
    7    2   22 1     
    8    3    4 1     
    9    3    5 1     
   10    3    6 1     
   11    4   23 1     
   12    4   24 1     
   13    4   25 1     
   14    5   26 1     
   15    5   27 1     
   16    5   28 1     
   17    6    7 am    
   18    6   29 1     
   19    7    8 2     
   20    7    9 1     
   21    9   10 1     
   22    9   30 1     
   23    9   31 1     
   24   10   16 am    
   25   10   11 1     
   26   11   12 2     
   27   11   32 1     
   28   12   13 1     
   29   12   33 1     
   30   13   14 2     
   31   13   15 1     
   32   15   16 1     
   33   16   17 2     
   34    8   34 1     
   35    8   35 1     
   36   14   36 1     
   37   14   37 1     
   38   15   38 1     
   39   17   39 1     
   40   17   40 1     
@<TRIPOS>SUBSTRUCTURE
      1 S1             1
@<TRIPOS>SET
LONE_PAIRS      STATIC     ATOMS    <user>   **** ""
7 34 35 36 37 38 39 40
DONOR_HYDROGENS      STATIC     ATOMS    <user>   **** ""
1 29
ATOM$BLUE        STATIC     ATOMS    COLORGROUP SYSTEM
7 34 35 36 37 38 39 40
ATOM$RED        STATIC     ATOMS    COLORGROUP SYSTEM
1 29
