AV-unprocessed.smi:281|AV-procd|sdf|2102|dock9
  -GOLD-   2262021393D 1   1.00000     0.00000
 Structure written by MMmdl.
 55 59  0  0  0  0  0  0  0  0  1 V2000
  148.3961  141.6149  153.8345 C   0  0  0  0  0  0  0  0  0  0  0  0
  148.6839  140.3582  154.6612 C   0  0  1  0  0  0  0  0  0  0  0  0
  147.8951  139.1409  154.1571 C   0  0  0  0  0  0  0  0  0  0  0  0
  148.2686  137.9709  154.9363 N   0  0  0  0  0  0  0  0  0  0  0  0
  147.5041  136.8796  154.7264 C   0  0  0  0  0  0  0  0  0  0  0  0
  147.7187  135.8146  155.5364 N   0  0  0  0  0  0  0  0  0  0  0  0
  146.9946  134.7019  155.3817 C   0  0  0  0  0  0  0  0  0  0  0  0
  146.0286  134.4502  154.4954 N   0  0  0  0  0  0  0  0  0  0  0  0
  145.8193  135.5178  153.6720 C   0  0  0  0  0  0  0  0  0  0  0  0
  146.5078  136.7626  153.7163 C   0  0  0  0  0  0  0  0  0  0  0  0
  146.0288  137.6048  152.7200 N   0  0  0  0  0  0  0  0  0  0  0  0
  145.1041  136.9007  152.1263 C   0  0  0  0  0  0  0  0  0  0  0  0
  144.9150  135.6337  152.6307 N   0  0  0  0  0  0  0  0  0  0  0  0
  143.9567  134.6445  152.1618 C   0  0  0  0  0  0  0  0  0  0  0  0
  144.3996  133.9256  150.8665 C   0  0  1  0  0  0  0  0  0  0  0  0
  144.3438  134.8442  149.7885 O   0  0  0  0  0  0  0  0  0  0  0  0
  145.8049  133.3348  150.9287 C   0  0  0  0  0  0  0  0  0  0  0  0
  145.7012  132.1203  150.0172 C   0  0  0  0  0  0  0  0  0  0  0  0
  144.4145  131.6113  150.3245 O   0  0  0  0  0  0  0  0  0  0  0  0
  143.5241  132.7070  150.5130 C   0  0  0  0  0  0  0  0  0  0  0  0
  149.6966  137.6967  154.8811 C   0  0  0  0  0  0  0  0  0  0  0  0
  150.5167  138.9369  155.3191 C   0  0  2  0  0  0  0  0  0  0  0  0
  151.9960  138.7191  155.0455 C   0  0  0  0  0  0  0  0  0  0  0  0
  152.4523  137.9221  156.2628 C   0  0  0  0  0  0  0  0  0  0  0  0
  151.6032  138.3277  157.3315 O   0  0  0  0  0  0  0  0  0  0  0  0
  150.5341  139.1420  156.8515 C   0  0  1  0  0  0  0  0  0  0  0  0
  150.8557  140.5762  157.3140 C   0  0  0  0  0  0  0  0  0  0  0  0
  150.0843  140.0843  154.5790 O   0  0  0  0  0  0  0  0  0  0  0  0
  147.3377  141.8741  153.8692 H   0  0  0  0  0  0  0  0  0  0  0  0
  148.6725  141.4711  152.7896 H   0  0  0  0  0  0  0  0  0  0  0  0
  148.9598  142.4671  154.2144 H   0  0  0  0  0  0  0  0  0  0  0  0
  148.4039  140.5547  155.6963 H   0  0  0  0  0  0  0  0  0  0  0  0
  146.8231  139.3211  154.2490 H   0  0  0  0  0  0  0  0  0  0  0  0
  148.1085  138.9743  153.1009 H   0  0  0  0  0  0  0  0  0  0  0  0
  147.2220  133.8979  156.0662 H   0  0  0  0  0  0  0  0  0  0  0  0
  144.5329  137.2869  151.2945 H   0  0  0  0  0  0  0  0  0  0  0  0
  143.8010  133.9166  152.9590 H   0  0  0  0  0  0  0  0  0  0  0  0
  142.9969  135.1404  152.0112 H   0  0  0  0  0  0  0  0  0  0  0  0
  145.0099  134.6086  149.1607 H   0  0  0  0  0  0  0  0  0  0  0  0
  146.5910  134.0315  150.6348 H   0  0  0  0  0  0  0  0  0  0  0  0
  146.0256  132.9925  151.9403 H   0  0  0  0  0  0  0  0  0  0  0  0
  145.7428  132.4114  148.9665 H   0  0  0  0  0  0  0  0  0  0  0  0
  146.4819  131.3829  150.2045 H   0  0  0  0  0  0  0  0  0  0  0  0
  142.8220  132.4571  151.3090 H   0  0  0  0  0  0  0  0  0  0  0  0
  142.9408  132.8676  149.6047 H   0  0  0  0  0  0  0  0  0  0  0  0
  149.9329  136.8374  155.5104 H   0  0  0  0  0  0  0  0  0  0  0  0
  149.9595  137.4223  153.8585 H   0  0  0  0  0  0  0  0  0  0  0  0
  152.1970  138.2097  154.1026 H   0  0  0  0  0  0  0  0  0  0  0  0
  152.5194  139.6756  155.0181 H   0  0  0  0  0  0  0  0  0  0  0  0
  152.3169  136.8532  156.0956 H   0  0  0  0  0  0  0  0  0  0  0  0
  153.5016  138.0958  156.5014 H   0  0  0  0  0  0  0  0  0  0  0  0
  149.5945  138.8255  157.3056 H   0  0  0  0  0  0  0  0  0  0  0  0
  150.0882  141.2869  157.0120 H   0  0  0  0  0  0  0  0  0  0  0  0
  151.8061  140.9277  156.9127 H   0  0  0  0  0  0  0  0  0  0  0  0
  150.9244  140.6209  158.4011 H   0  0  0  0  0  0  0  0  0  0  0  0
  1  2  1  0  0  0  0
  1 29  1  0  0  0  0
  1 30  1  0  0  0  0
  1 31  1  0  0  0  0
  2 28  1  0  0  0  0
  2  3  1  0  0  0  0
  2 32  1  0  0  0  0
  3  4  1  0  0  0  0
  3 33  1  0  0  0  0
  3 34  1  0  0  0  0
  4  5  1  0  0  0  0
  4 21  1  0  0  0  0
  5 10  1  0  0  0  0
  5  6  2  0  0  0  0
  6  7  1  0  0  0  0
  7  8  2  0  0  0  0
  7 35  1  0  0  0  0
  8  9  1  0  0  0  0
  9 13  1  0  0  0  0
  9 10  2  0  0  0  0
 10 11  1  0  0  0  0
 11 12  2  0  0  0  0
 12 13  1  0  0  0  0
 12 36  1  0  0  0  0
 13 14  1  0  0  0  0
 14 15  1  0  0  0  0
 14 37  1  0  0  0  0
 14 38  1  0  0  0  0
 15 20  1  0  0  0  0
 15 16  1  0  0  0  0
 15 17  1  0  0  0  0
 16 39  1  0  0  0  0
 17 18  1  0  0  0  0
 17 40  1  0  0  0  0
 17 41  1  0  0  0  0
 18 19  1  0  0  0  0
 18 42  1  0  0  0  0
 18 43  1  0  0  0  0
 19 20  1  0  0  0  0
 20 44  1  0  0  0  0
 20 45  1  0  0  0  0
 21 22  1  0  0  0  0
 21 46  1  0  0  0  0
 21 47  1  0  0  0  0
 22 26  1  0  0  0  0
 22 23  1  0  0  0  0
 22 28  1  0  0  0  0
 23 24  1  0  0  0  0
 23 48  1  0  0  0  0
 23 49  1  0  0  0  0
 24 25  1  0  0  0  0
 24 50  1  0  0  0  0
 24 51  1  0  0  0  0
 25 26  1  0  0  0  0
 26 27  1  0  0  0  0
 26 52  1  0  0  0  0
 27 53  1  0  0  0  0
 27 54  1  0  0  0  0
 27 55  1  0  0  0  0
M  END
> <s_m_source_file>
AV-unprocessed.smi

> <i_m_source_file_index>
281

> <i_lp_mmshare_version>
43012

> <i_f3d_flags>
0

> <s_epik_input>
W0NIM11bQ0BASF0xT1tDSDJdW0NIMl1bQ0BAXTEyW0NIMl1OKFtDSDJdW0NASF0oTzIpW0NIM10pYyhuW2NIXW4zKWMoYzM0KW5bY0hdbjRbQ0gyXVtDQEBdNShbT0hdKVtDSDJdW0NIMl1PW0NIMl01

> <s_epik_cmdline>
J2VwaWtfcHl0aG9uJywgJy1waCcsICc3LjAnLCAnLXRuJywgJzgnLCAnLW1hJywgJzIwMCcsICctbWV0YWxfYmluZGluZycsICctaW1hZScsICc8aW5maWxlLm1hZT4nLCAnLW9tYWUnLCAnPG91dGZpbGUubWFlPic=

> <r_lp_tautomer_probability>
1

> <r_epik_Ionization_Penalty>
0.00571331

> <r_epik_Ionization_Penalty_Charging>
0

> <r_epik_Ionization_Penalty_Neutral>
0.00571331

> <r_epik_State_Penalty>
0.00399586

> <r_epik_Charging_Adjusted_Penalty>
0.00399586

> <i_epik_Tot_Q>
0

> <i_epik_Tot_abs_Q>
0

> <r_epik_Metal_State_Penalty>
-0

> <b_epik_Metal_Only>
0

> <s_lp_Force_Field>
OPLS_2005

> <r_lp_Energy>
56.2514

> <b_lp_Chiralities_Consistent>
1

> <s_lp_Variant>
AV-unprocessed.smi:281-2

> <Gold.Version>
5.8.1

> <Gold.Id.Protein>
6NUR|6NUR_protein|mol2

> <Gold.PLP.Fitness>
44.9787

> <Gold.PLP.PLP>
-36.6008

> <Gold.PLP.part.hbond>
-2.4260

> <Gold.PLP.part.metal>
0.0000

> <Gold.PLP.part.buried>
-3.7039

> <Gold.PLP.part.nonpolar>
-31.2654

> <Gold.PLP.part.repulsive>
0.7149

> <Gold.PLP.ligand.clash>
0.0000

> <Gold.PLP.ligand.torsion>
0.3796

> <Gold.PLP.Chemscore.Hbond>
2.0000

> <Gold.PLP.Chemscore.CHOScore>
1.0000

> <Gold.PLP.Chemscore.Metal>
0.0000

> <Gold.Chemscore.Hbonds>
donor molecule, donor type, donor heavy atom, donor atom, acceptor molecule, acceptor atom, score
      L1  H    16    39       P1  7921  1.00
      P1  H  7989  7998       L1    28  0.98
      L1  C    12    36       P1 10171  1.00

> <Gold.PLP.Chemscore.Internal.Correction>
0.1371

> <Gold.Rescore>
     Score         DG    S(hbond)    S(metal)    S(lipo)     H(rot)  DE(clash)    DE(int)     intcor
     15.08     -17.95       2.11        0.00      92.20       2.09       1.14       1.73       ----

> <Gold.Chemscore.Fitness>
15.0771

> <Gold.Chemscore.DG>
-17.9507

> <Gold.Chemscore.ZeroCoef>
-5.4800

> <Gold.Chemscore.Hbond>
2.1078

> <Gold.Chemscore.Metal>
0.0000

> <Gold.Chemscore.Lipo>
92.2045

> <Gold.Chemscore.Internal_Hbond>
0.0000

> <Gold.Chemscore.DEClash>
1.1439

> <Gold.Chemscore.DEInternal>
1.7297

> <Gold.Chemscore.Rot>
2.0927

> <Gold.Chemscore.Internal.Correction>
   9.000000E+99

> <Gold.Chemscore.Hbonds>
donor molecule, donor type, donor heavy atom, donor atom, acceptor molecule, acceptor atom, score
      L1  H    16    39       P1  7921  0.99
      P1  H  7989  7998       L1    28  0.70
      P1  H 10785 10796       L1    19  0.01

> <Gold.Chemscore.Hbond.Weighted>
-7.0401

> <Gold.Chemscore.Metal.Weighted>
-0.0000

> <Gold.Chemscore.Lipo.Weighted>
-10.7879

> <Gold.Chemscore.Internal_Hbond.Weighted>
0.0000

> <Gold.Chemscore.DEClash.Weighted>
1.1439

> <Gold.Chemscore.DEInternal.Weighted>
1.7297

> <Gold.Chemscore.Rot.Weighted>
5.3573

> <Gold.Chemscore.Internal.Correction.Weighted>
   9.000000E+99

> <Gold.Protein.RotatedTorsions>
[ 6907 6896 6895 6894 ] final -124.73 input  -60.11 | X-H torsion
[ 7974 7965 7964 7962 ] final   78.01 input  175.53 | X-H torsion
[ 8008 7997 7996 7995 ] final   12.67 input   59.86 | X-H torsion
[ 10167 10162 10161 10158 ] final  174.18 input  -65.29 | X-H torsion
[ 10718 10713 10712 10709 ] final -115.85 input   66.30 | X-H torsion
[ 10763 10752 10751 10750 ] final  102.19 input  -60.55 | X-H torsion
[ 11005 11000 10999 10996 ] final   -0.77 input  -57.11 | X-H torsion

> <Gold.Protein.ActiveResidues>
 VAL166  LYS551  ARG553  GLY616  TRP617  ASP618  TYR619  PRO620  LYS621  CYS622 
 ASP623  PHE694  ASN695  SER759  ASP760  ASP761  ALA762  ILE779  LEU786  VAL792 
 PHE793  MET794  SER795  GLU796  ALA797  LYS798  CYS799  TRP800  GLU811  SER814 

> <Gold.Protein.RotatedAtoms>
  150.8797  133.7389  159.2935 H   0  0  0  0  0  0  0  0  0  0  0  0  # atno 6907 bound_to 6896
  151.4974  135.1059  159.9829 H   0  0  0  0  0  0  0  0  0  0  0  0  # atno 6908 bound_to 6896
  152.4752  133.8075  159.7041 H   0  0  0  0  0  0  0  0  0  0  0  0  # atno 6909 bound_to 6896
  145.6827  139.2528  143.1805 H   0  0  0  0  0  0  0  0  0  0  0  0  # atno 7974 bound_to 7965
  154.8238  140.2888  155.5769 H   0  0  0  0  0  0  0  0  0  0  0  0  # atno 8008 bound_to 7997
  156.3000  140.2545  156.3081 H   0  0  0  0  0  0  0  0  0  0  0  0  # atno 8009 bound_to 7997
  154.9308  140.0383  157.2036 H   0  0  0  0  0  0  0  0  0  0  0  0  # atno 8010 bound_to 7997
  139.5133  144.3176  152.0233 H   0  0  0  0  0  0  0  0  0  0  0  0  # atno 10167 bound_to 10162
  156.0923  130.6103  150.8960 H   0  0  0  0  0  0  0  0  0  0  0  0  # atno 10718 bound_to 10713
  153.3364  135.4019  155.1537 H   0  0  0  0  0  0  0  0  0  0  0  0  # atno 10763 bound_to 10752
  154.8634  135.3623  154.5403 H   0  0  0  0  0  0  0  0  0  0  0  0  # atno 10764 bound_to 10752
  153.5845  135.7075  153.5508 H   0  0  0  0  0  0  0  0  0  0  0  0  # atno 10765 bound_to 10752
  140.6400  133.9498  155.8321 H   0  0  0  0  0  0  0  0  0  0  0  0  # atno 11005 bound_to 11000
  146.0950  140.7611  142.9577 LP  0  0  0  0  0  0  0  0  0  0  0  0  # atno 17320 bound_to 7965
  144.7021  140.3697  143.7148 LP  0  0  0  0  0  0  0  0  0  0  0  0  # atno 17321 bound_to 7965
  140.2618  144.4058  150.6182 LP  0  0  0  0  0  0  0  0  0  0  0  0  # atno 17342 bound_to 10162
  140.6151  143.2172  151.6807 LP  0  0  0  0  0  0  0  0  0  0  0  0  # atno 17343 bound_to 10162
  157.6076  131.0938  150.8852 LP  0  0  0  0  0  0  0  0  0  0  0  0  # atno 17370 bound_to 10713
  156.8998  130.5242  149.5283 LP  0  0  0  0  0  0  0  0  0  0  0  0  # atno 17371 bound_to 10713
  141.0614  134.0341  157.3654 LP  0  0  0  0  0  0  0  0  0  0  0  0  # atno 17394 bound_to 11000
  139.9084  135.0185  156.7585 LP  0  0  0  0  0  0  0  0  0  0  0  0  # atno 17395 bound_to 11000

$$$$
