AV-unprocessed.smi:348|AV-procd|sdf|2395|dock3
  -GOLD-   2262022323D 1   1.00000     0.00000
 Structure written by MMmdl.
 39 40  0  0  0  0  0  0  0  0  1 V2000
  148.8474  136.9029  159.5236 C   0  0  0  0  0  0  0  0  0  0  0  0
  149.8844  136.1801  158.8794 O   0  0  0  0  0  0  0  0  0  0  0  0
  149.6433  135.9225  157.5037 C   0  0  0  0  0  0  0  0  0  0  0  0
  150.8069  135.1469  156.8584 C   0  0  0  0  0  0  0  0  0  0  0  0
  150.3481  134.0958  155.9719 N   0  0  0  0  0  0  0  0  0  0  0  0
  149.6398  134.3326  154.7904 C   0  0  0  0  0  0  0  0  0  0  0  0
  149.3816  135.6504  154.4408 N   0  0  0  0  0  0  0  0  0  0  0  0
  149.2165  133.3207  153.9767 C   0  0  0  0  0  0  0  0  0  0  0  0
  148.5123  133.6004  152.8045 N   0  0  0  0  0  0  0  0  0  0  0  0
  147.9639  132.7132  151.7894 C   0  0  0  0  0  0  0  0  0  0  0  0
  146.5167  133.0173  151.4511 C   0  0  0  0  0  0  0  0  0  0  0  0
  146.1246  134.3348  151.1308 C   0  0  0  0  0  0  0  0  0  0  0  0
  144.7814  134.6177  150.8147 C   0  0  0  0  0  0  0  0  0  0  0  0
  143.8247  133.5843  150.8155 C   0  0  0  0  0  0  0  0  0  0  0  0
  144.2121  132.2678  151.1316 C   0  0  0  0  0  0  0  0  0  0  0  0
  145.5552  131.9843  151.4474 C   0  0  0  0  0  0  0  0  0  0  0  0
  149.5130  131.9213  154.3332 C   0  0  0  0  0  0  0  0  0  0  0  0
  149.1868  130.9162  153.7038 O   0  0  0  0  0  0  0  0  0  0  0  0
  150.2459  131.7551  155.5059 N   0  0  0  0  0  0  0  0  0  0  0  0
  150.6911  132.7739  156.3379 C   0  0  0  0  0  0  0  0  0  0  0  0
  151.3527  132.4925  157.3377 O   0  0  0  0  0  0  0  0  0  0  0  0
  150.4794  130.8096  155.7718 H   0  0  0  0  0  0  0  0  0  0  0  0
  149.1282  137.0918  160.5597 H   0  0  0  0  0  0  0  0  0  0  0  0
  147.9091  136.3489  159.5323 H   0  0  0  0  0  0  0  0  0  0  0  0
  148.6808  137.8671  159.0420 H   0  0  0  0  0  0  0  0  0  0  0  0
  148.6950  135.3999  157.3674 H   0  0  0  0  0  0  0  0  0  0  0  0
  149.5358  136.8886  157.0100 H   0  0  0  0  0  0  0  0  0  0  0  0
  151.4695  135.8049  156.2938 H   0  0  0  0  0  0  0  0  0  0  0  0
  151.4485  134.6723  157.5995 H   0  0  0  0  0  0  0  0  0  0  0  0
  149.6895  136.4239  155.0122 H   0  0  0  0  0  0  0  0  0  0  0  0
  148.8949  135.8900  153.5891 H   0  0  0  0  0  0  0  0  0  0  0  0
  148.3148  134.5757  152.6363 H   0  0  0  0  0  0  0  0  0  0  0  0
  148.5512  132.8033  150.8750 H   0  0  0  0  0  0  0  0  0  0  0  0
  148.0511  131.6814  152.1327 H   0  0  0  0  0  0  0  0  0  0  0  0
  146.8541  135.1317  151.1255 H   0  0  0  0  0  0  0  0  0  0  0  0
  144.4856  135.6273  150.5709 H   0  0  0  0  0  0  0  0  0  0  0  0
  142.7949  133.8013  150.5728 H   0  0  0  0  0  0  0  0  0  0  0  0
  143.4787  131.4750  151.1318 H   0  0  0  0  0  0  0  0  0  0  0  0
  145.8424  130.9712  151.6883 H   0  0  0  0  0  0  0  0  0  0  0  0
  1  2  1  0  0  0  0
  1 23  1  0  0  0  0
  1 24  1  0  0  0  0
  1 25  1  0  0  0  0
  2  3  1  0  0  0  0
  3  4  1  0  0  0  0
  3 26  1  0  0  0  0
  3 27  1  0  0  0  0
  4  5  1  0  0  0  0
  4 28  1  0  0  0  0
  4 29  1  0  0  0  0
  5 20  1  0  0  0  0
  5  6  1  0  0  0  0
  6  7  1  0  0  0  0
  6  8  2  0  0  0  0
  7 30  1  0  0  0  0
  7 31  1  0  0  0  0
  8  9  1  0  0  0  0
  8 17  1  0  0  0  0
  9 10  1  0  0  0  0
  9 32  1  0  0  0  0
 10 11  1  0  0  0  0
 10 33  1  0  0  0  0
 10 34  1  0  0  0  0
 11 16  1  0  0  0  0
 11 12  2  0  0  0  0
 12 13  1  0  0  0  0
 12 35  1  0  0  0  0
 13 14  2  0  0  0  0
 13 36  1  0  0  0  0
 14 15  1  0  0  0  0
 14 37  1  0  0  0  0
 15 16  2  0  0  0  0
 15 38  1  0  0  0  0
 16 39  1  0  0  0  0
 17 18  2  0  0  0  0
 17 19  1  0  0  0  0
 19 22  1  0  0  0  0
 19 20  1  0  0  0  0
 20 21  2  0  0  0  0
M  END
> <s_m_source_file>
AV-unprocessed.smi

> <i_m_source_file_index>
348

> <i_lp_mmshare_version>
43012

> <i_f3d_flags>
0

> <s_epik_input>
W0NIM11PW0NIMl1bQ0gyXW4xYyhbTkgyXSljKGMoPU8pW25IXWMxPU8pW05IXVtDSDJdYzJbY0hdW2NIXVtjSF1bY0hdW2NIXTI=

> <s_epik_cmdline>
J2VwaWtfcHl0aG9uJywgJy1waCcsICc3LjAnLCAnLXRuJywgJzgnLCAnLW1hJywgJzIwMCcsICctbWV0YWxfYmluZGluZycsICctaW1hZScsICc8aW5maWxlLm1hZT4nLCAnLW9tYWUnLCAnPG91dGZpbGUubWFlPic=

> <r_lp_tautomer_probability>
1

> <r_epik_Ionization_Penalty>
5.85579e-06

> <r_epik_Ionization_Penalty_Charging>
2.30036e-06

> <r_epik_Ionization_Penalty_Neutral>
3.55543e-06

> <r_epik_State_Penalty>
-0

> <r_epik_Charging_Adjusted_Penalty>
2.30036e-06

> <i_epik_Tot_Q>
0

> <i_epik_Tot_abs_Q>
0

> <r_epik_Metal_State_Penalty>
-0

> <b_epik_Metal_Only>
0

> <s_epik_Chemistry_Notes>
This compound has an imine and may undergo hydrolysis.

> <s_lp_Force_Field>
OPLS_2005

> <r_lp_Energy>
18.6076

> <b_lp_Chiralities_Consistent>
1

> <s_lp_Variant>
AV-unprocessed.smi:348-1

> <Gold.Version>
5.8.1

> <Gold.Id.Protein>
6NUR|6NUR_protein|mol2

> <Gold.PLP.Fitness>
43.9643

> <Gold.PLP.PLP>
-33.1082

> <Gold.PLP.part.hbond>
-4.0000

> <Gold.PLP.part.metal>
0.0000

> <Gold.PLP.part.buried>
-0.3994

> <Gold.PLP.part.nonpolar>
-28.9236

> <Gold.PLP.part.repulsive>
0.1170

> <Gold.PLP.ligand.clash>
0.0000

> <Gold.PLP.ligand.torsion>
0.4518

> <Gold.PLP.Chemscore.Hbond>
3.9040

> <Gold.PLP.Chemscore.CHOScore>
0.0000

> <Gold.PLP.Chemscore.Metal>
0.0000

> <Gold.Chemscore.Hbonds>
donor molecule, donor type, donor heavy atom, donor atom, acceptor molecule, acceptor atom, score
      L1  H     7    31       P1  7948  0.94
      L1  H     9    32       P1  7948  0.88
      P1  H  6896  6907       L1    21  0.93
      P1  H  6896  6908       L1     2  1.00

> <Gold.PLP.Chemscore.Internal.Correction>
0.0476

> <Gold.Rescore>
     Score         DG    S(hbond)    S(metal)    S(lipo)     H(rot)  DE(clash)    DE(int)     intcor
     14.55     -18.32       3.03        0.00      69.16       2.10       1.85       1.92       ----

> <Gold.Chemscore.Fitness>
14.5549

> <Gold.Chemscore.DG>
-18.3203

> <Gold.Chemscore.ZeroCoef>
-5.4800

> <Gold.Chemscore.Hbond>
3.0290

> <Gold.Chemscore.Metal>
0.0000

> <Gold.Chemscore.Lipo>
69.1554

> <Gold.Chemscore.Internal_Hbond>
0.0000

> <Gold.Chemscore.DEClash>
1.8452

> <Gold.Chemscore.DEInternal>
1.9201

> <Gold.Chemscore.Rot>
2.0968

> <Gold.Chemscore.Internal.Correction>
   9.000000E+99

> <Gold.Chemscore.Hbonds>
donor molecule, donor type, donor heavy atom, donor atom, acceptor molecule, acceptor atom, score
      L1  H     7    31       P1  7948  0.89
      L1  H     9    32       P1  7948  0.26
      P1  H  6896  6907       L1    21  0.88
      P1  H  6896  6908       L1     2  0.88

> <Gold.Chemscore.Hbond.Weighted>
-10.1168

> <Gold.Chemscore.Metal.Weighted>
-0.0000

> <Gold.Chemscore.Lipo.Weighted>
-8.0912

> <Gold.Chemscore.Internal_Hbond.Weighted>
0.0000

> <Gold.Chemscore.DEClash.Weighted>
1.8452

> <Gold.Chemscore.DEInternal.Weighted>
1.9201

> <Gold.Chemscore.Rot.Weighted>
5.3677

> <Gold.Chemscore.Internal.Correction.Weighted>
   9.000000E+99

> <Gold.Protein.RotatedTorsions>
[ 6907 6896 6895 6894 ] final -167.50 input  -60.11 | X-H torsion
[ 7974 7965 7964 7962 ] final  127.93 input  175.53 | X-H torsion
[ 8008 7997 7996 7995 ] final   26.67 input   59.86 | X-H torsion
[ 10167 10162 10161 10158 ] final   74.18 input  -65.29 | X-H torsion
[ 10718 10713 10712 10709 ] final -107.50 input   66.30 | X-H torsion
[ 10763 10752 10751 10750 ] final  -95.61 input  -60.55 | X-H torsion
[ 11005 11000 10999 10996 ] final  -75.13 input  -57.11 | X-H torsion

> <Gold.Protein.ActiveResidues>
 VAL166  LYS551  ARG553  GLY616  TRP617  ASP618  TYR619  PRO620  LYS621  CYS622 
 ASP623  PHE694  ASN695  SER759  ASP760  ASP761  ALA762  ILE779  LEU786  VAL792 
 PHE793  MET794  SER795  GLU796  ALA797  LYS798  CYS799  TRP800  GLU811  SER814 

> <Gold.Protein.RotatedAtoms>
  151.4606  133.3594  159.2808 H   0  0  0  0  0  0  0  0  0  0  0  0  # atno 6907 bound_to 6896
  150.9028  134.8443  159.7382 H   0  0  0  0  0  0  0  0  0  0  0  0  # atno 6908 bound_to 6896
  152.4889  134.4528  159.9632 H   0  0  0  0  0  0  0  0  0  0  0  0  # atno 6909 bound_to 6896
  145.0451  139.3930  143.5082 H   0  0  0  0  0  0  0  0  0  0  0  0  # atno 7974 bound_to 7965
  155.0309  140.3158  155.4759 H   0  0  0  0  0  0  0  0  0  0  0  0  # atno 8008 bound_to 7997
  156.2874  140.2180  156.5373 H   0  0  0  0  0  0  0  0  0  0  0  0  # atno 8009 bound_to 7997
  154.7371  140.0476  157.0766 H   0  0  0  0  0  0  0  0  0  0  0  0  # atno 8010 bound_to 7997
  140.0164  144.5574  150.7617 H   0  0  0  0  0  0  0  0  0  0  0  0  # atno 10167 bound_to 10162
  156.0440  130.5666  150.7830 H   0  0  0  0  0  0  0  0  0  0  0  0  # atno 10718 bound_to 10713
  154.7164  135.5114  153.8744 H   0  0  0  0  0  0  0  0  0  0  0  0  # atno 10763 bound_to 10752
  153.0824  135.6635  154.0027 H   0  0  0  0  0  0  0  0  0  0  0  0  # atno 10764 bound_to 10752
  153.9859  135.3024  155.3395 H   0  0  0  0  0  0  0  0  0  0  0  0  # atno 10765 bound_to 10752
  141.1642  133.6936  156.7470 H   0  0  0  0  0  0  0  0  0  0  0  0  # atno 11005 bound_to 11000
  146.3513  140.0072  142.8670 LP  0  0  0  0  0  0  0  0  0  0  0  0  # atno 17320 bound_to 7965
  145.1598  140.9667  143.4384 LP  0  0  0  0  0  0  0  0  0  0  0  0  # atno 17321 bound_to 7965
  140.7360  143.2748  151.3776 LP  0  0  0  0  0  0  0  0  0  0  0  0  # atno 17342 bound_to 10162
  139.6169  144.0984  152.2354 LP  0  0  0  0  0  0  0  0  0  0  0  0  # atno 17343 bound_to 10162
  157.5292  131.0936  150.9977 LP  0  0  0  0  0  0  0  0  0  0  0  0  # atno 17370 bound_to 10713
  157.0288  130.5703  149.5340 LP  0  0  0  0  0  0  0  0  0  0  0  0  # atno 17371 bound_to 10713
  140.2632  134.8450  157.3778 LP  0  0  0  0  0  0  0  0  0  0  0  0  # atno 17394 bound_to 11000
  140.1591  134.4751  155.7907 LP  0  0  0  0  0  0  0  0  0  0  0  0  # atno 17395 bound_to 11000

$$$$
