AV-unprocessed.smi:815|AV-procd|sdf|3825|dock3
  -GOLD-   22720 1263D 1   1.00000     0.00000
 Structure written by MMmdl.
 39 40  0  0  0  0  0  0  0  0  1 V2000
  144.1863  136.1046  151.8091 C   0  0  0  0  0  0  0  0  0  0  0  0
  145.6746  136.4735  151.7358 C   0  0  0  0  0  0  0  0  0  0  0  0
  145.9514  137.9723  151.9521 C   0  0  0  0  0  0  0  0  0  0  0  0
  147.3227  138.2293  152.3811 N   0  0  0  0  0  0  0  0  0  0  0  0
  147.6727  138.9948  153.4241 C   0  0  0  0  0  0  0  0  0  0  0  0
  146.8599  139.5726  154.1456 O   0  0  0  0  0  0  0  0  0  0  0  0
  149.0090  139.0593  153.5527 N   0  0  0  0  0  0  0  0  0  0  0  0
  149.7675  139.7372  154.5446 C   0  0  0  0  0  0  0  0  0  0  0  0
  150.9672  139.2384  155.1058 C   0  0  0  0  0  0  0  0  0  0  0  0
  151.6432  140.0148  156.0662 C   0  0  0  0  0  0  0  0  0  0  0  0
  151.1063  141.2663  156.4306 C   0  0  0  0  0  0  0  0  0  0  0  0
  151.7785  142.0413  157.3862 N   0  0  0  0  0  0  0  0  0  0  0  0
  151.3478  143.4337  157.4165 C   0  0  0  0  0  0  0  0  0  0  0  0
  152.2225  144.2332  158.3979 C   0  0  0  0  0  0  0  0  0  0  0  0
  152.1782  143.6227  159.6847 O   0  0  0  0  0  0  0  0  0  0  0  0
  152.6696  142.2853  159.6595 C   0  0  0  0  0  0  0  0  0  0  0  0
  151.8048  141.4361  158.7119 C   0  0  0  0  0  0  0  0  0  0  0  0
  149.9654  141.7553  155.8894 N   0  0  0  0  0  0  0  0  0  0  0  0
  149.3227  141.0063  154.9686 C   0  0  0  0  0  0  0  0  0  0  0  0
  144.0412  135.0432  151.6074 H   0  0  0  0  0  0  0  0  0  0  0  0
  143.6053  136.6646  151.0761 H   0  0  0  0  0  0  0  0  0  0  0  0
  143.7714  136.3104  152.7963 H   0  0  0  0  0  0  0  0  0  0  0  0
  146.2300  135.8849  152.4669 H   0  0  0  0  0  0  0  0  0  0  0  0
  146.0621  136.1817  150.7590 H   0  0  0  0  0  0  0  0  0  0  0  0
  145.7373  138.5289  151.0381 H   0  0  0  0  0  0  0  0  0  0  0  0
  145.2783  138.3657  152.7141 H   0  0  0  0  0  0  0  0  0  0  0  0
  148.0567  137.7957  151.8406 H   0  0  0  0  0  0  0  0  0  0  0  0
  149.5483  138.6099  152.8271 H   0  0  0  0  0  0  0  0  0  0  0  0
  151.3881  138.2901  154.8099 H   0  0  0  0  0  0  0  0  0  0  0  0
  152.5605  139.6559  156.5100 H   0  0  0  0  0  0  0  0  0  0  0  0
  151.4171  143.8637  156.4165 H   0  0  0  0  0  0  0  0  0  0  0  0
  150.3020  143.4914  157.7218 H   0  0  0  0  0  0  0  0  0  0  0  0
  153.2537  144.2880  158.0449 H   0  0  0  0  0  0  0  0  0  0  0  0
  151.8584  145.2575  158.4778 H   0  0  0  0  0  0  0  0  0  0  0  0
  153.7148  142.2765  159.3458 H   0  0  0  0  0  0  0  0  0  0  0  0
  152.6362  141.8748  160.6687 H   0  0  0  0  0  0  0  0  0  0  0  0
  150.7899  141.3610  159.1050 H   0  0  0  0  0  0  0  0  0  0  0  0
  152.2026  140.4226  158.6479 H   0  0  0  0  0  0  0  0  0  0  0  0
  148.4193  141.4350  154.5598 H   0  0  0  0  0  0  0  0  0  0  0  0
  1  2  1  0  0  0  0
  1 20  1  0  0  0  0
  1 21  1  0  0  0  0
  1 22  1  0  0  0  0
  2  3  1  0  0  0  0
  2 23  1  0  0  0  0
  2 24  1  0  0  0  0
  3  4  1  0  0  0  0
  3 25  1  0  0  0  0
  3 26  1  0  0  0  0
  4  5  1  0  0  0  0
  4 27  1  0  0  0  0
  5  6  2  0  0  0  0
  5  7  1  0  0  0  0
  7  8  1  0  0  0  0
  7 28  1  0  0  0  0
  8 19  1  0  0  0  0
  8  9  2  0  0  0  0
  9 10  1  0  0  0  0
  9 29  1  0  0  0  0
 10 11  2  0  0  0  0
 10 30  1  0  0  0  0
 11 12  1  0  0  0  0
 11 18  1  0  0  0  0
 12 17  1  0  0  0  0
 12 13  1  0  0  0  0
 13 14  1  0  0  0  0
 13 31  1  0  0  0  0
 13 32  1  0  0  0  0
 14 15  1  0  0  0  0
 14 33  1  0  0  0  0
 14 34  1  0  0  0  0
 15 16  1  0  0  0  0
 16 17  1  0  0  0  0
 16 35  1  0  0  0  0
 16 36  1  0  0  0  0
 17 37  1  0  0  0  0
 17 38  1  0  0  0  0
 18 19  2  0  0  0  0
 19 39  1  0  0  0  0
M  END
> <s_m_source_file>
AV-unprocessed.smi

> <i_m_source_file_index>
815

> <i_lp_mmshare_version>
43012

> <i_f3d_flags>
0

> <s_epik_input>
W0NIM11bQ0gyXVtDSDJdW05IXUMoPU8pW05IXWMxW2NIXVtjSF1jKG5bY0hdMSlOMltDSDJdW0NIMl1PW0NIMl1bQ0gyXTI=

> <s_epik_cmdline>
J2VwaWtfcHl0aG9uJywgJy1waCcsICc3LjAnLCAnLXRuJywgJzgnLCAnLW1hJywgJzIwMCcsICctbWV0YWxfYmluZGluZycsICctaW1hZScsICc8aW5maWxlLm1hZT4nLCAnLW9tYWUnLCAnPG91dGZpbGUubWFlPic=

> <r_lp_tautomer_probability>
1

> <r_epik_Ionization_Penalty>
0.00208635

> <r_epik_Ionization_Penalty_Charging>
0

> <r_epik_Ionization_Penalty_Neutral>
0.00208635

> <r_epik_State_Penalty>
0.00140033

> <r_epik_Charging_Adjusted_Penalty>
0.00140033

> <i_epik_Tot_Q>
0

> <i_epik_Tot_abs_Q>
0

> <r_epik_Metal_State_Penalty>
-0

> <b_epik_Metal_Only>
0

> <s_lp_Force_Field>
OPLS_2005

> <r_lp_Energy>
21.8572

> <b_lp_Chiralities_Consistent>
1

> <s_lp_Variant>
AV-unprocessed.smi:815-1

> <Gold.Version>
5.8.1

> <Gold.Id.Protein>
6NUR|6NUR_protein|mol2

> <Gold.PLP.Fitness>
38.7038

> <Gold.PLP.PLP>
-37.3197

> <Gold.PLP.part.hbond>
-2.8879

> <Gold.PLP.part.metal>
0.0000

> <Gold.PLP.part.buried>
-0.6408

> <Gold.PLP.part.nonpolar>
-34.8411

> <Gold.PLP.part.repulsive>
0.4467

> <Gold.PLP.ligand.clash>
0.0000

> <Gold.PLP.ligand.torsion>
0.6778

> <Gold.PLP.Chemscore.Hbond>
0.8740

> <Gold.PLP.Chemscore.CHOScore>
0.0000

> <Gold.PLP.Chemscore.Metal>
0.0000

> <Gold.Chemscore.Hbonds>
donor molecule, donor type, donor heavy atom, donor atom, acceptor molecule, acceptor atom, score
      L1  H     4    27       P1  7948  0.77
      L1  H     7    28       P1  7957  0.08

> <Gold.PLP.Chemscore.Internal.Correction>
0.1177

> <Gold.Rescore>
     Score         DG    S(hbond)    S(metal)    S(lipo)     H(rot)  DE(clash)    DE(int)     intcor
     13.50     -15.46       0.94        0.00      88.40       1.37       0.13       1.83       ----

> <Gold.Chemscore.Fitness>
13.4974

> <Gold.Chemscore.DG>
-15.4560

> <Gold.Chemscore.ZeroCoef>
-5.4800

> <Gold.Chemscore.Hbond>
0.9430

> <Gold.Chemscore.Metal>
0.0000

> <Gold.Chemscore.Lipo>
88.3967

> <Gold.Chemscore.Internal_Hbond>
0.0000

> <Gold.Chemscore.DEClash>
0.1320

> <Gold.Chemscore.DEInternal>
1.8266

> <Gold.Chemscore.Rot>
1.3734

> <Gold.Chemscore.Internal.Correction>
   9.000000E+99

> <Gold.Chemscore.Hbonds>
donor molecule, donor type, donor heavy atom, donor atom, acceptor molecule, acceptor atom, score
      L1  H     4    27       P1  7948  0.78
      L1  H     7    28       P1  7957  0.07

> <Gold.Chemscore.Hbond.Weighted>
-3.1495

> <Gold.Chemscore.Metal.Weighted>
-0.0000

> <Gold.Chemscore.Lipo.Weighted>
-10.3424

> <Gold.Chemscore.Internal_Hbond.Weighted>
0.0000

> <Gold.Chemscore.DEClash.Weighted>
0.1320

> <Gold.Chemscore.DEInternal.Weighted>
1.8266

> <Gold.Chemscore.Rot.Weighted>
3.5159

> <Gold.Chemscore.Internal.Correction.Weighted>
   9.000000E+99

> <Gold.Protein.RotatedTorsions>
[ 6907 6896 6895 6894 ] final  177.52 input  -60.11 | X-H torsion
[ 7974 7965 7964 7962 ] final -164.93 input  175.53 | X-H torsion
[ 8008 7997 7996 7995 ] final  -17.49 input   59.86 | X-H torsion
[ 10167 10162 10161 10158 ] final   48.43 input  -65.29 | X-H torsion
[ 10718 10713 10712 10709 ] final  -65.83 input   66.30 | X-H torsion
[ 10763 10752 10751 10750 ] final -166.27 input  -60.55 | X-H torsion
[ 11005 11000 10999 10996 ] final  137.99 input  -57.11 | X-H torsion

> <Gold.Protein.ActiveResidues>
 VAL166  LYS551  ARG553  GLY616  TRP617  ASP618  TYR619  PRO620  LYS621  CYS622 
 ASP623  PHE694  ASN695  SER759  ASP760  ASP761  ALA762  ILE779  LEU786  VAL792 
 PHE793  MET794  SER795  GLU796  ALA797  LYS798  CYS799  TRP800  GLU811  SER814 

> <Gold.Protein.RotatedAtoms>
  151.7026  133.3311  159.3270 H   0  0  0  0  0  0  0  0  0  0  0  0  # atno 6907 bound_to 6896
  150.7729  134.6602  159.6345 H   0  0  0  0  0  0  0  0  0  0  0  0  # atno 6908 bound_to 6896
  152.3760  134.6665  160.0211 H   0  0  0  0  0  0  0  0  0  0  0  0  # atno 6909 bound_to 6896
  144.7283  140.2888  143.6224 H   0  0  0  0  0  0  0  0  0  0  0  0  # atno 7974 bound_to 7965
  154.4975  140.2141  155.9417 H   0  0  0  0  0  0  0  0  0  0  0  0  # atno 8008 bound_to 7997
  156.1389  140.3183  155.8432 H   0  0  0  0  0  0  0  0  0  0  0  0  # atno 8009 bound_to 7997
  155.4157  140.0493  157.3019 H   0  0  0  0  0  0  0  0  0  0  0  0  # atno 8010 bound_to 7997
  140.2934  144.3020  150.6235 H   0  0  0  0  0  0  0  0  0  0  0  0  # atno 10167 bound_to 10162
  156.0647  130.4253  150.1620 H   0  0  0  0  0  0  0  0  0  0  0  0  # atno 10718 bound_to 10713
  154.6850  135.2961  154.9560 H   0  0  0  0  0  0  0  0  0  0  0  0  # atno 10763 bound_to 10752
  154.0542  135.6640  153.4808 H   0  0  0  0  0  0  0  0  0  0  0  0  # atno 10764 bound_to 10752
  153.0573  135.5137  154.7912 H   0  0  0  0  0  0  0  0  0  0  0  0  # atno 10765 bound_to 10752
  140.0152  134.9421  157.0361 H   0  0  0  0  0  0  0  0  0  0  0  0  # atno 11005 bound_to 11000
  145.7876  139.1914  143.2122 LP  0  0  0  0  0  0  0  0  0  0  0  0  # atno 17320 bound_to 7965
  146.0783  140.7793  142.9654 LP  0  0  0  0  0  0  0  0  0  0  0  0  # atno 17321 bound_to 7965
  140.5713  143.2180  151.7594 LP  0  0  0  0  0  0  0  0  0  0  0  0  # atno 17342 bound_to 10162
  139.4932  144.4212  151.9975 LP  0  0  0  0  0  0  0  0  0  0  0  0  # atno 17343 bound_to 10162
  156.9682  130.9826  151.3464 LP  0  0  0  0  0  0  0  0  0  0  0  0  # atno 17370 bound_to 10713
  157.5681  130.8291  149.8354 LP  0  0  0  0  0  0  0  0  0  0  0  0  # atno 17371 bound_to 10713
  140.4483  134.1609  155.7179 LP  0  0  0  0  0  0  0  0  0  0  0  0  # atno 17394 bound_to 11000
  141.1738  133.8555  157.1487 LP  0  0  0  0  0  0  0  0  0  0  0  0  # atno 17395 bound_to 11000

$$$$
