AV-unprocessed.smi:1661|AV-procd|sdf|6656|dock10
  -GOLD-   22720 7363D 1   1.00000     0.00000
 Structure written by MMmdl.
 37 38  0  0  0  0  0  0  0  0  3 V2000
  144.2497  132.7605  150.8010 C   0  0  0  0  0  0  0  0  0  0  0  0
  145.3055  133.8155  150.4268 C   0  0  2  0  0  0  0  0  0  0  0  0
  146.7420  133.3569  150.7360 C   0  0  0  0  0  0  0  0  0  0  0  0
  147.0505  133.3821  152.2438 C   0  0  0  0  0  0  0  0  0  0  0  0
  146.7961  134.7256  152.8252 N   0  3  2  0  0  0  0  0  0  0  0  0
  147.2107  134.8066  154.2480 C   0  0  0  0  0  0  0  0  0  0  0  0
  148.6574  134.3247  154.4652 C   0  0  0  0  0  0  0  0  0  0  0  0
  149.6018  135.4325  154.3866 N   0  0  0  0  0  0  0  0  0  0  0  0
  150.5218  135.7428  155.3110 C   0  0  0  0  0  0  0  0  0  0  0  0
  150.6220  135.0581  156.3318 O   0  0  0  0  0  0  0  0  0  0  0  0
  151.2626  136.8290  154.9974 N   0  5  0  0  0  0  0  0  0  0  0  0
  150.6883  138.0425  154.9508 C   0  0  0  0  0  0  0  0  0  0  0  0
  151.4004  139.1678  154.7794 N   0  0  0  0  0  0  0  0  0  0  0  0
  150.6153  140.3126  154.7555 N   0  0  0  0  0  0  0  0  0  0  0  0
  149.3235  140.0188  154.9022 C   0  0  0  0  0  0  0  0  0  0  0  0
  148.9489  138.3176  155.0802 S   0  0  0  0  0  0  0  0  0  0  0  0
  145.3935  135.1640  152.5973 C   0  0  0  0  0  0  0  0  0  0  0  0
  145.0492  135.1773  151.0970 C   0  0  0  0  0  0  0  0  0  0  0  0
  144.2444  132.5431  151.8686 H   0  0  0  0  0  0  0  0  0  0  0  0
  144.4318  131.8230  150.2750 H   0  0  0  0  0  0  0  0  0  0  0  0
  143.2490  133.0973  150.5287 H   0  0  0  0  0  0  0  0  0  0  0  0
  145.2294  133.9585  149.3481 H   0  0  0  0  0  0  0  0  0  0  0  0
  146.9148  132.3577  150.3347 H   0  0  0  0  0  0  0  0  0  0  0  0
  147.4448  134.0138  150.2218 H   0  0  0  0  0  0  0  0  0  0  0  0
  146.4551  132.6354  152.7709 H   0  0  0  0  0  0  0  0  0  0  0  0
  148.0962  133.1106  152.3930 H   0  0  0  0  0  0  0  0  0  0  0  0
  147.0810  135.8256  154.6161 H   0  0  0  0  0  0  0  0  0  0  0  0
  146.5472  134.1794  154.8451 H   0  0  0  0  0  0  0  0  0  0  0  0
  148.7546  133.8186  155.4272 H   0  0  0  0  0  0  0  0  0  0  0  0
  148.9467  133.6019  153.7039 H   0  0  0  0  0  0  0  0  0  0  0  0
  149.5581  136.0157  153.5635 H   0  0  0  0  0  0  0  0  0  0  0  0
  148.5865  140.8078  154.9020 H   0  0  0  0  0  0  0  0  0  0  0  0
  144.7118  134.5073  153.1393 H   0  0  0  0  0  0  0  0  0  0  0  0
  145.2416  136.1659  152.9966 H   0  0  0  0  0  0  0  0  0  0  0  0
  145.6547  135.9384  150.6028 H   0  0  0  0  0  0  0  0  0  0  0  0
  144.0109  135.4788  150.9541 H   0  0  0  0  0  0  0  0  0  0  0  0
  147.3924  135.3657  152.3204 H   0  0  0  0  0  0  0  0  0  0  0  0
  1  2  1  0  0  0  0
  1 19  1  0  0  0  0
  1 20  1  0  0  0  0
  1 21  1  0  0  0  0
  2 18  1  0  0  0  0
  2  3  1  0  0  0  0
  2 22  1  0  0  0  0
  3  4  1  0  0  0  0
  3 23  1  0  0  0  0
  3 24  1  0  0  0  0
  4  5  1  0  0  0  0
  4 25  1  0  0  0  0
  4 26  1  0  0  0  0
  5  6  1  0  0  0  0
  5 17  1  0  0  0  0
  5 37  1  0  0  0  0
  6  7  1  0  0  0  0
  6 27  1  0  0  0  0
  6 28  1  0  0  0  0
  7  8  1  0  0  0  0
  7 29  1  0  0  0  0
  7 30  1  0  0  0  0
  8  9  1  0  0  0  0
  8 31  1  0  0  0  0
  9 10  2  0  0  0  0
  9 11  1  0  0  0  0
 11 12  1  0  0  0  0
 12 16  1  0  0  0  0
 12 13  2  0  0  0  0
 13 14  1  0  0  0  0
 14 15  2  0  0  0  0
 15 16  1  0  0  0  0
 15 32  1  0  0  0  0
 17 18  1  0  0  0  0
 17 33  1  0  0  0  0
 17 34  1  0  0  0  0
 18 35  1  0  0  0  0
 18 36  1  0  0  0  0
M  CHG  1   5   1
M  CHG  1  11  -1
M  END
> <s_m_source_file>
AV-unprocessed.smi

> <i_m_source_file_index>
1661

> <i_lp_mmshare_version>
43012

> <i_f3d_flags>
0

> <s_epik_input>
W0NIM11bQ0hdMVtDSDJdW0NIMl1OKFtDSDJdW0NIMl0xKVtDSDJdW0NIMl1bTkhdQyg9TylbTkhdYzJubltjSF1zMg==

> <s_epik_cmdline>
J2VwaWtfcHl0aG9uJywgJy1waCcsICc3LjAnLCAnLXRuJywgJzgnLCAnLW1hJywgJzIwMCcsICctbWV0YWxfYmluZGluZycsICctaW1hZScsICc8aW5maWxlLm1hZT4nLCAnLW9tYWUnLCAnPG91dGZpbGUubWFlPic=

> <r_lp_tautomer_probability>
1

> <r_epik_Ionization_Penalty>
3.04466

> <r_epik_Ionization_Penalty_Charging>
3.01305

> <r_epik_Ionization_Penalty_Neutral>
0.0316037

> <r_epik_State_Penalty>
3.00821

> <r_epik_Charging_Adjusted_Penalty>
6.02127

> <i_epik_Tot_Q>
0

> <i_epik_Tot_abs_Q>
2

> <r_epik_Metal_State_Penalty>
0.454395

> <b_epik_Metal_Only>
1

> <s_lp_Force_Field>
OPLS_2005

> <r_lp_Energy>
9.834

> <b_lp_Chiralities_Consistent>
1

> <s_lp_Variant>
AV-unprocessed.smi:1661-4

> <Gold.Version>
5.8.1

> <Gold.Id.Protein>
6NUR|6NUR_protein|mol2

> <Gold.PLP.Fitness>
45.4654

> <Gold.PLP.PLP>
-29.8149

> <Gold.PLP.part.hbond>
-4.0000

> <Gold.PLP.part.metal>
0.0000

> <Gold.PLP.part.buried>
-5.2360

> <Gold.PLP.part.nonpolar>
-21.0779

> <Gold.PLP.part.repulsive>
0.3413

> <Gold.PLP.ligand.clash>
0.0000

> <Gold.PLP.ligand.torsion>
0.9002

> <Gold.PLP.Chemscore.Hbond>
5.8000

> <Gold.PLP.Chemscore.CHOScore>
0.0000

> <Gold.PLP.Chemscore.Metal>
0.0000

> <Gold.Chemscore.Hbonds>
donor molecule, donor type, donor heavy atom, donor atom, acceptor molecule, acceptor atom, score
      L1  H     5    37       P1  7948  2.00
      L1  H     8    31       P1  7948  0.96
      P1  H  7989  7998       L1    14  0.35
      P1  H 10752 10763       L1    11  0.57

> <Gold.PLP.Chemscore.Internal.Correction>
0.0509

> <Gold.Rescore>
     Score         DG    S(hbond)    S(metal)    S(lipo)     H(rot)  DE(clash)    DE(int)     intcor
     16.10     -17.22       2.92        0.00      53.81       1.68       0.18       0.94       ----

> <Gold.Chemscore.Fitness>
16.0950

> <Gold.Chemscore.DG>
-17.2195

> <Gold.Chemscore.ZeroCoef>
-5.4800

> <Gold.Chemscore.Hbond>
2.9159

> <Gold.Chemscore.Metal>
0.0000

> <Gold.Chemscore.Lipo>
53.8056

> <Gold.Chemscore.Internal_Hbond>
0.0000

> <Gold.Chemscore.DEClash>
0.1845

> <Gold.Chemscore.DEInternal>
0.9400

> <Gold.Chemscore.Rot>
1.6777

> <Gold.Chemscore.Internal.Correction>
   9.000000E+99

> <Gold.Chemscore.Hbonds>
donor molecule, donor type, donor heavy atom, donor atom, acceptor molecule, acceptor atom, score
      L1  H     5    37       P1  7948  0.99
      L1  H     8    31       P1  7948  0.37
      P1  H  7989  7998       L1    14  0.01
      P1  H 10752 10763       L1    11  0.01

> <Gold.Chemscore.Hbond.Weighted>
-9.7392

> <Gold.Chemscore.Metal.Weighted>
-0.0000

> <Gold.Chemscore.Lipo.Weighted>
-6.2953

> <Gold.Chemscore.Internal_Hbond.Weighted>
0.0000

> <Gold.Chemscore.DEClash.Weighted>
0.1845

> <Gold.Chemscore.DEInternal.Weighted>
0.9400

> <Gold.Chemscore.Rot.Weighted>
4.2950

> <Gold.Chemscore.Internal.Correction.Weighted>
   9.000000E+99

> <Gold.Protein.RotatedTorsions>
[ 6907 6896 6895 6894 ] final -136.85 input  -60.11 | X-H torsion
[ 7974 7965 7964 7962 ] final  -70.93 input  175.53 | X-H torsion
[ 8008 7997 7996 7995 ] final  162.48 input   59.86 | X-H torsion
[ 10167 10162 10161 10158 ] final  -57.31 input  -65.29 | X-H torsion
[ 10718 10713 10712 10709 ] final  163.93 input   66.30 | X-H torsion
[ 10763 10752 10751 10750 ] final   74.88 input  -60.55 | X-H torsion
[ 11005 11000 10999 10996 ] final -124.45 input  -57.11 | X-H torsion

> <Gold.Protein.ActiveResidues>
 VAL166  LYS551  ARG553  GLY616  TRP617  ASP618  TYR619  PRO620  LYS621  CYS622 
 ASP623  PHE694  ASN695  SER759  ASP760  ASP761  ALA762  ILE779  LEU786  VAL792 
 PHE793  MET794  SER795  GLU796  ALA797  LYS798  CYS799  TRP800  GLU811  SER814 

> <Gold.Protein.RotatedAtoms>
  151.0151  133.5928  159.2677 H   0  0  0  0  0  0  0  0  0  0  0  0  # atno 6907 bound_to 6896
  151.3066  135.0782  159.9267 H   0  0  0  0  0  0  0  0  0  0  0  0  # atno 6908 bound_to 6896
  152.5309  133.9823  159.7866 H   0  0  0  0  0  0  0  0  0  0  0  0  # atno 6909 bound_to 6896
  145.6846  140.9175  143.0814 H   0  0  0  0  0  0  0  0  0  0  0  0  # atno 7974 bound_to 7965
  156.2028  140.1749  156.7863 H   0  0  0  0  0  0  0  0  0  0  0  0  # atno 8008 bound_to 7997
  154.5615  140.0699  156.8856 H   0  0  0  0  0  0  0  0  0  0  0  0  # atno 8009 bound_to 7997
  155.2840  140.3351  155.4259 H   0  0  0  0  0  0  0  0  0  0  0  0  # atno 8010 bound_to 7997
  140.6265  143.2440  151.5349 H   0  0  0  0  0  0  0  0  0  0  0  0  # atno 10167 bound_to 10162
  157.1015  131.0444  151.2496 H   0  0  0  0  0  0  0  0  0  0  0  0  # atno 10718 bound_to 10713
  153.0616  135.5009  154.8107 H   0  0  0  0  0  0  0  0  0  0  0  0  # atno 10763 bound_to 10752
  154.6892  135.2981  154.9507 H   0  0  0  0  0  0  0  0  0  0  0  0  # atno 10764 bound_to 10752
  154.0267  135.6735  153.4830 H   0  0  0  0  0  0  0  0  0  0  0  0  # atno 10765 bound_to 10752
  140.9840  134.0633  157.3732 H   0  0  0  0  0  0  0  0  0  0  0  0  # atno 11005 bound_to 11000
  144.7015  139.8742  143.7442 LP  0  0  0  0  0  0  0  0  0  0  0  0  # atno 17320 bound_to 7965
  146.0934  139.3925  143.0391 LP  0  0  0  0  0  0  0  0  0  0  0  0  # atno 17321 bound_to 7965
  139.5485  144.2458  152.1487 LP  0  0  0  0  0  0  0  0  0  0  0  0  # atno 17342 bound_to 10162
  140.1691  144.4953  150.6590 LP  0  0  0  0  0  0  0  0  0  0  0  0  # atno 17343 bound_to 10162
  157.4636  130.7668  149.7259 LP  0  0  0  0  0  0  0  0  0  0  0  0  # atno 17370 bound_to 10713
  155.9872  130.3968  150.3174 LP  0  0  0  0  0  0  0  0  0  0  0  0  # atno 17371 bound_to 10713
  139.8962  135.0145  156.7042 LP  0  0  0  0  0  0  0  0  0  0  0  0  # atno 17394 bound_to 11000
  140.7143  133.9196  155.8104 LP  0  0  0  0  0  0  0  0  0  0  0  0  # atno 17395 bound_to 11000

$$$$
