AV-unprocessed.smi:64|AV-procd|sdf|610|dock3
  -GOLD-   2262016503D 1   1.00000     0.00000
 Structure written by MMmdl.
 31 32  0  0  0  0  0  0  0  0  2 V2000
  149.7578  145.0897  160.1177 C   0  0  0  0  0  0  0  0  0  0  0  0
  151.1883  144.8864  159.6341 C   0  0  0  0  0  0  0  0  0  0  0  0
  151.8918  145.8388  159.2968 O   0  0  0  0  0  0  0  0  0  0  0  0
  151.5530  143.5945  159.6258 O   0  0  0  0  0  0  0  0  0  0  0  0
  152.7702  143.2146  159.0036 C   0  0  0  0  0  0  0  0  0  0  0  0
  153.2145  141.8475  159.5321 C   0  0  0  0  0  0  0  0  0  0  0  0
  152.1139  140.9545  159.4900 O   0  0  0  0  0  0  0  0  0  0  0  0
  151.8301  140.5113  158.2054 C   0  0  0  0  0  0  0  0  0  0  0  0
  151.7441  139.0654  158.2452 N   0  0  0  0  0  0  0  0  0  0  0  0
  151.8092  138.2762  159.3350 C   0  0  0  0  0  0  0  0  0  0  0  0
  151.7067  136.9687  159.0997 N   0  0  0  0  0  0  0  0  0  0  0  0
  151.5596  136.9330  157.7173 C   0  0  0  0  0  0  0  0  0  0  0  0
  151.3943  135.8028  156.7710 C   0  0  0  0  0  0  0  0  0  0  0  0
  151.3743  134.6537  157.2081 O   0  0  0  0  0  0  0  0  0  0  0  0
  151.2760  136.1521  155.4535 N   0  5  0  0  0  0  0  0  0  0  0  0
  151.3123  137.5002  155.0697 C   0  0  0  0  0  0  0  0  0  0  0  0
  151.1756  137.6714  153.7094 N   0  0  0  0  0  0  0  0  0  0  0  0
  151.4565  138.5455  155.8474 N   0  0  0  0  0  0  0  0  0  0  0  0
  151.5776  138.1909  157.1783 C   0  0  0  0  0  0  0  0  0  0  0  0
  149.2815  144.1348  160.3418 H   0  0  0  0  0  0  0  0  0  0  0  0
  149.1708  145.5954  159.3510 H   0  0  0  0  0  0  0  0  0  0  0  0
  149.7482  145.7013  161.0199 H   0  0  0  0  0  0  0  0  0  0  0  0
  152.6577  143.1862  157.9189 H   0  0  0  0  0  0  0  0  0  0  0  0
  153.5313  143.9610  159.2353 H   0  0  0  0  0  0  0  0  0  0  0  0
  154.0145  141.4612  158.8992 H   0  0  0  0  0  0  0  0  0  0  0  0
  153.6114  141.9363  160.5447 H   0  0  0  0  0  0  0  0  0  0  0  0
  150.8770  140.9118  157.8557 H   0  0  0  0  0  0  0  0  0  0  0  0
  152.6227  140.7982  157.5126 H   0  0  0  0  0  0  0  0  0  0  0  0
  151.9366  138.6728  160.3316 H   0  0  0  0  0  0  0  0  0  0  0  0
  151.0617  136.9077  153.0597 H   0  0  0  0  0  0  0  0  0  0  0  0
  151.1837  138.5778  153.2651 H   0  0  0  0  0  0  0  0  0  0  0  0
  1  2  1  0  0  0  0
  1 20  1  0  0  0  0
  1 21  1  0  0  0  0
  1 22  1  0  0  0  0
  2  3  2  0  0  0  0
  2  4  1  0  0  0  0
  4  5  1  0  0  0  0
  5  6  1  0  0  0  0
  5 23  1  0  0  0  0
  5 24  1  0  0  0  0
  6  7  1  0  0  0  0
  6 25  1  0  0  0  0
  6 26  1  0  0  0  0
  7  8  1  0  0  0  0
  8  9  1  0  0  0  0
  8 27  1  0  0  0  0
  8 28  1  0  0  0  0
  9 19  1  0  0  0  0
  9 10  1  0  0  0  0
 10 11  2  0  0  0  0
 10 29  1  0  0  0  0
 11 12  1  0  0  0  0
 12 19  2  0  0  0  0
 12 13  1  0  0  0  0
 13 14  2  0  0  0  0
 13 15  1  0  0  0  0
 15 16  1  0  0  0  0
 16 17  1  0  0  0  0
 16 18  2  0  0  0  0
 17 30  1  0  0  0  0
 17 31  1  0  0  0  0
 18 19  1  0  0  0  0
M  CHG  1  15  -1
M  END
> <s_m_source_file>
AV-unprocessed.smi

> <i_m_source_file_index>
64

> <i_lp_mmshare_version>
43012

> <i_f3d_flags>
0

> <s_epik_input>
W0NIM11DKD1PKU9bQ0gyXVtDSDJdT1tDSDJdbihbY0hdbjEpYyhjMTIpbmMoW05IMl0pW25IXWMyPU8=

> <s_epik_cmdline>
J2VwaWtfcHl0aG9uJywgJy1waCcsICc3LjAnLCAnLXRuJywgJzgnLCAnLW1hJywgJzIwMCcsICctbWV0YWxfYmluZGluZycsICctaW1hZScsICc8aW5maWxlLm1hZT4nLCAnLW9tYWUnLCAnPG91dGZpbGUubWFlPic=

> <r_lp_tautomer_probability>
1

> <r_epik_Ionization_Penalty>
3.5586

> <r_epik_Ionization_Penalty_Charging>
1.23364e-10

> <r_epik_Ionization_Penalty_Neutral>
3.5586

> <r_epik_State_Penalty>
3.54828

> <r_epik_Charging_Adjusted_Penalty>
3.54828

> <i_epik_Tot_Q>
-1

> <i_epik_Tot_abs_Q>
1

> <r_epik_Metal_State_Penalty>
0.517613

> <b_epik_Metal_Only>
1

> <s_epik_Chemistry_Notes>
This compound has an ester and may undergo hydrolysis at high or low pH. This compound contains an acetal/aminal-like group ( X-CH(R)-Y where X, Y are N, S, or O) that may be acid/base labile, releasing an aldehyde.

> <s_lp_Force_Field>
OPLS_2005

> <r_lp_Energy>
20.1337

> <b_lp_Chiralities_Consistent>
1

> <s_lp_Variant>
AV-unprocessed.smi:64-2

> <Gold.Version>
5.8.1

> <Gold.Id.Protein>
6NUR|6NUR_protein|mol2

> <Gold.PLP.Fitness>
41.5313

> <Gold.PLP.PLP>
-30.7155

> <Gold.PLP.part.hbond>
-5.5686

> <Gold.PLP.part.metal>
0.0000

> <Gold.PLP.part.buried>
-7.2891

> <Gold.PLP.part.nonpolar>
-19.5984

> <Gold.PLP.part.repulsive>
0.3526

> <Gold.PLP.ligand.clash>
0.0000

> <Gold.PLP.ligand.torsion>
0.6598

> <Gold.PLP.Chemscore.Hbond>
4.0232

> <Gold.PLP.Chemscore.CHOScore>
0.0000

> <Gold.PLP.Chemscore.Metal>
0.0000

> <Gold.Chemscore.Hbonds>
donor molecule, donor type, donor heavy atom, donor atom, acceptor molecule, acceptor atom, score
      L1  H    17    30       P1  7949  1.00
      P1  H  6896  6908       L1    14  0.06
      P1  H  6896  6909       L1    11  0.96
      P1  H 10752 10763       L1    15  2.00

> <Gold.PLP.Chemscore.Internal.Correction>
0.0658

> <Gold.Rescore>
     Score         DG    S(hbond)    S(metal)    S(lipo)     H(rot)  DE(clash)    DE(int)     intcor
      4.90      -6.38       2.12        0.00      33.15       3.93       0.69       0.79       ----

> <Gold.Chemscore.Fitness>
4.8994

> <Gold.Chemscore.DG>
-6.3793

> <Gold.Chemscore.ZeroCoef>
-5.4800

> <Gold.Chemscore.Hbond>
2.1235

> <Gold.Chemscore.Metal>
0.0000

> <Gold.Chemscore.Lipo>
33.1497

> <Gold.Chemscore.Internal_Hbond>
0.0000

> <Gold.Chemscore.DEClash>
0.6877

> <Gold.Chemscore.DEInternal>
0.7923

> <Gold.Chemscore.Rot>
3.9343

> <Gold.Chemscore.Internal.Correction>
   9.000000E+99

> <Gold.Chemscore.Hbonds>
donor molecule, donor type, donor heavy atom, donor atom, acceptor molecule, acceptor atom, score
      L1  H    17    30       P1  7949  0.34
      P1  H  6896  6908       L1    14  0.07
      P1  H  6896  6909       L1    11  0.68
      P1  H 10752 10763       L1    15  0.09

> <Gold.Chemscore.Hbond.Weighted>
-7.0925

> <Gold.Chemscore.Metal.Weighted>
-0.0000

> <Gold.Chemscore.Lipo.Weighted>
-3.8785

> <Gold.Chemscore.Internal_Hbond.Weighted>
0.0000

> <Gold.Chemscore.DEClash.Weighted>
0.6877

> <Gold.Chemscore.DEInternal.Weighted>
0.7923

> <Gold.Chemscore.Rot.Weighted>
10.0717

> <Gold.Chemscore.Internal.Correction.Weighted>
   9.000000E+99

> <Gold.Protein.RotatedTorsions>
[ 6907 6896 6895 6894 ] final  104.36 input  -60.11 | X-H torsion
[ 7974 7965 7964 7962 ] final   69.93 input  175.53 | X-H torsion
[ 8008 7997 7996 7995 ] final  155.31 input   59.86 | X-H torsion
[ 10167 10162 10161 10158 ] final -127.16 input  -65.29 | X-H torsion
[ 10718 10713 10712 10709 ] final  -37.77 input   66.30 | X-H torsion
[ 10763 10752 10751 10750 ] final   67.90 input  -60.55 | X-H torsion
[ 11005 11000 10999 10996 ] final   88.00 input  -57.11 | X-H torsion

> <Gold.Protein.ActiveResidues>
 VAL166  LYS551  ARG553  GLY616  TRP617  ASP618  TYR619  PRO620  LYS621  CYS622 
 ASP623  PHE694  ASN695  SER759  ASP760  ASP761  ALA762  ILE779  LEU786  VAL792 
 PHE793  MET794  SER795  GLU796  ALA797  LYS798  CYS799  TRP800  GLU811  SER814 

> <Gold.Protein.RotatedAtoms>
  152.5267  133.9689  159.7752 H   0  0  0  0  0  0  0  0  0  0  0  0  # atno 6907 bound_to 6896
  150.9965  133.6090  159.2708 H   0  0  0  0  0  0  0  0  0  0  0  0  # atno 6908 bound_to 6896
  151.3215  135.0826  159.9360 H   0  0  0  0  0  0  0  0  0  0  0  0  # atno 6909 bound_to 6896
  145.7844  139.2903  143.1247 H   0  0  0  0  0  0  0  0  0  0  0  0  # atno 7974 bound_to 7965
  156.2485  140.1943  156.6781 H   0  0  0  0  0  0  0  0  0  0  0  0  # atno 8008 bound_to 7997
  154.6342  140.0592  156.9795 H   0  0  0  0  0  0  0  0  0  0  0  0  # atno 8009 bound_to 7997
  155.1663  140.3264  155.4404 H   0  0  0  0  0  0  0  0  0  0  0  0  # atno 8010 bound_to 7997
  139.9638  143.5920  152.2436 H   0  0  0  0  0  0  0  0  0  0  0  0  # atno 10167 bound_to 10162
  156.3114  130.4253  149.8046 H   0  0  0  0  0  0  0  0  0  0  0  0  # atno 10718 bound_to 10713
  153.0209  135.5267  154.7052 H   0  0  0  0  0  0  0  0  0  0  0  0  # atno 10763 bound_to 10752
  154.6149  135.2882  155.0393 H   0  0  0  0  0  0  0  0  0  0  0  0  # atno 10764 bound_to 10752
  154.1401  135.6579  153.4993 H   0  0  0  0  0  0  0  0  0  0  0  0  # atno 10765 bound_to 10752
  139.8906  134.8459  156.2939 H   0  0  0  0  0  0  0  0  0  0  0  0  # atno 11005 bound_to 11000
  146.0041  140.8494  143.0004 LP  0  0  0  0  0  0  0  0  0  0  0  0  # atno 17320 bound_to 7965
  144.6791  140.2394  143.7345 LP  0  0  0  0  0  0  0  0  0  0  0  0  # atno 17321 bound_to 7965
  139.6533  144.7661  151.2104 LP  0  0  0  0  0  0  0  0  0  0  0  0  # atno 17342 bound_to 10162
  140.7544  143.6125  150.8591 LP  0  0  0  0  0  0  0  0  0  0  0  0  # atno 17343 bound_to 10162
  156.5388  130.8290  151.3262 LP  0  0  0  0  0  0  0  0  0  0  0  0  # atno 17370 bound_to 10713
  157.7392  130.9827  150.2298 LP  0  0  0  0  0  0  0  0  0  0  0  0  # atno 17371 bound_to 10713
  140.9958  133.7181  156.0884 LP  0  0  0  0  0  0  0  0  0  0  0  0  # atno 17394 bound_to 11000
  140.7564  134.3988  157.5533 LP  0  0  0  0  0  0  0  0  0  0  0  0  # atno 17395 bound_to 11000

$$$$
