AV-unprocessed.smi:3091|AV-procd|sdf|11779|dock7
  -GOLD-   2272017163D 1   1.00000     0.00000
 Structure written by MMmdl.
 29 30  0  0  0  0  0  0  0  0  2 V2000
  147.0966  138.4060  151.4451 N   0  3  0  0  0  0  0  0  0  0  0  0
  146.5190  138.7274  152.7598 C   0  0  0  0  0  0  0  0  0  0  0  0
  147.3506  139.7766  153.4685 C   0  0  0  0  0  0  0  0  0  0  0  0
  146.8279  141.0615  153.7178 C   0  0  0  0  0  0  0  0  0  0  0  0
  147.6456  142.0005  154.3765 C   0  0  0  0  0  0  0  0  0  0  0  0
  148.9058  141.7313  154.7780 N   0  0  0  0  0  0  0  0  0  0  0  0
  149.4088  140.4948  154.5384 C   0  0  0  0  0  0  0  0  0  0  0  0
  150.6967  140.2025  154.9418 O   0  0  0  0  0  0  0  0  0  0  0  0
  151.1086  140.5311  156.2695 C   0  0  1  0  0  0  0  0  0  0  0  0
  151.0142  142.0325  156.5342 C   0  0  0  0  0  0  0  0  0  0  0  0
  150.3366  142.1117  157.8955 C   0  0  0  0  0  0  0  0  0  0  0  0
  149.4300  141.0248  157.8504 O   0  0  0  0  0  0  0  0  0  0  0  0
  150.1228  139.9241  157.2781 C   0  0  0  0  0  0  0  0  0  0  0  0
  148.6666  139.4895  153.8850 C   0  0  0  0  0  0  0  0  0  0  0  0
  147.5852  137.5237  151.4964 H   0  0  0  0  0  0  0  0  0  0  0  0
  147.7423  139.1345  151.1760 H   0  0  0  0  0  0  0  0  0  0  0  0
  145.4976  139.0861  152.6283 H   0  0  0  0  0  0  0  0  0  0  0  0
  146.4682  137.8210  153.3641 H   0  0  0  0  0  0  0  0  0  0  0  0
  145.8250  141.3258  153.4157 H   0  0  0  0  0  0  0  0  0  0  0  0
  147.2782  142.9943  154.5849 H   0  0  0  0  0  0  0  0  0  0  0  0
  152.1062  140.1445  156.4855 H   0  0  0  0  0  0  0  0  0  0  0  0
  151.9837  142.5312  156.5163 H   0  0  0  0  0  0  0  0  0  0  0  0
  150.3776  142.5078  155.7867 H   0  0  0  0  0  0  0  0  0  0  0  0
  151.0555  141.9615  158.7027 H   0  0  0  0  0  0  0  0  0  0  0  0
  149.8238  143.0600  158.0580 H   0  0  0  0  0  0  0  0  0  0  0  0
  149.4270  139.2183  156.8234 H   0  0  0  0  0  0  0  0  0  0  0  0
  150.6628  139.3993  158.0676 H   0  0  0  0  0  0  0  0  0  0  0  0
  149.1035  138.5168  153.7111 H   0  0  0  0  0  0  0  0  0  0  0  0
  146.3570  138.3436  150.7601 H   0  0  0  0  0  0  0  0  0  0  0  0
  1  2  1  0  0  0  0
  1 15  1  0  0  0  0
  1 16  1  0  0  0  0
  1 29  1  0  0  0  0
  2  3  1  0  0  0  0
  2 17  1  0  0  0  0
  2 18  1  0  0  0  0
  3 14  1  0  0  0  0
  3  4  2  0  0  0  0
  4  5  1  0  0  0  0
  4 19  1  0  0  0  0
  5  6  2  0  0  0  0
  5 20  1  0  0  0  0
  6  7  1  0  0  0  0
  7  8  1  0  0  0  0
  7 14  2  0  0  0  0
  8  9  1  0  0  0  0
  9 13  1  0  0  0  0
  9 10  1  0  0  0  0
  9 21  1  0  0  0  0
 10 11  1  0  0  0  0
 10 22  1  0  0  0  0
 10 23  1  0  0  0  0
 11 12  1  0  0  0  0
 11 24  1  0  0  0  0
 11 25  1  0  0  0  0
 12 13  1  0  0  0  0
 13 26  1  0  0  0  0
 13 27  1  0  0  0  0
 14 28  1  0  0  0  0
M  CHG  1   1   1
M  END
> <s_m_source_file>
AV-unprocessed.smi

> <i_m_source_file_index>
3091

> <i_lp_mmshare_version>
43012

> <i_f3d_flags>
0

> <s_epik_input>
W05IMl1bQ0gyXWMxW2NIXVtjSF1uYyhbY0hdMSlPW0NAQEhdMltDSDJdW0NIMl1PW0NIMl0y

> <s_epik_cmdline>
J2VwaWtfcHl0aG9uJywgJy1waCcsICc3LjAnLCAnLXRuJywgJzgnLCAnLW1hJywgJzIwMCcsICctbWV0YWxfYmluZGluZycsICctaW1hZScsICc8aW5maWxlLm1hZT4nLCAnLW9tYWUnLCAnPG91dGZpbGUubWFlPic=

> <r_lp_tautomer_probability>
1

> <r_epik_Ionization_Penalty>
0.0773124

> <r_epik_Ionization_Penalty_Charging>
0.0773118

> <r_epik_Ionization_Penalty_Neutral>
5.92883e-07

> <r_epik_State_Penalty>
0.0682686

> <r_epik_Charging_Adjusted_Penalty>
0.14558

> <i_epik_Tot_Q>
1

> <i_epik_Tot_abs_Q>
1

> <r_epik_Metal_State_Penalty>
0.0682821

> <b_epik_Metal_Only>
0

> <s_lp_Force_Field>
OPLS_2005

> <r_lp_Energy>
12.8261

> <b_lp_Chiralities_Consistent>
1

> <s_lp_Variant>
AV-unprocessed.smi:3091-2

> <Gold.Version>
5.8.1

> <Gold.Id.Protein>
6NUR|6NUR_protein|mol2

> <Gold.PLP.Fitness>
39.6839

> <Gold.PLP.PLP>
-25.7067

> <Gold.PLP.part.hbond>
-3.0005

> <Gold.PLP.part.metal>
0.0000

> <Gold.PLP.part.buried>
-3.1701

> <Gold.PLP.part.nonpolar>
-21.5637

> <Gold.PLP.part.repulsive>
1.8021

> <Gold.PLP.ligand.clash>
0.0000

> <Gold.PLP.ligand.torsion>
0.1770

> <Gold.PLP.Chemscore.Hbond>
4.0000

> <Gold.PLP.Chemscore.CHOScore>
0.7740

> <Gold.PLP.Chemscore.Metal>
0.0000

> <Gold.Chemscore.Hbonds>
donor molecule, donor type, donor heavy atom, donor atom, acceptor molecule, acceptor atom, score
      L1  H     1    15       P1  7948  2.00
      L1  H     1    16       P1  7957  1.00
      P1  H  7989  7998       L1     8  1.00
      L1  C     5    20       P1  8028  0.77

> <Gold.PLP.Chemscore.Internal.Correction>
0.0094

> <Gold.Rescore>
     Score         DG    S(hbond)    S(metal)    S(lipo)     H(rot)  DE(clash)    DE(int)     intcor
     12.69     -14.66       2.08        0.00      53.92       1.59       0.43       1.54       ----

> <Gold.Chemscore.Fitness>
12.6889

> <Gold.Chemscore.DG>
-14.6577

> <Gold.Chemscore.ZeroCoef>
-5.4800

> <Gold.Chemscore.Hbond>
2.0795

> <Gold.Chemscore.Metal>
0.0000

> <Gold.Chemscore.Lipo>
53.9215

> <Gold.Chemscore.Internal_Hbond>
0.0000

> <Gold.Chemscore.DEClash>
0.4304

> <Gold.Chemscore.DEInternal>
1.5384

> <Gold.Chemscore.Rot>
1.5924

> <Gold.Chemscore.Internal.Correction>
   9.000000E+99

> <Gold.Chemscore.Hbonds>
donor molecule, donor type, donor heavy atom, donor atom, acceptor molecule, acceptor atom, score
      L1  H     1    15       P1  7948  1.00
      L1  H     1    16       P1  7957  0.60
      P1  H  7989  7998       L1     8  0.25

> <Gold.Chemscore.Hbond.Weighted>
-6.9455

> <Gold.Chemscore.Metal.Weighted>
-0.0000

> <Gold.Chemscore.Lipo.Weighted>
-6.3088

> <Gold.Chemscore.Internal_Hbond.Weighted>
0.0000

> <Gold.Chemscore.DEClash.Weighted>
0.4304

> <Gold.Chemscore.DEInternal.Weighted>
1.5384

> <Gold.Chemscore.Rot.Weighted>
4.0765

> <Gold.Chemscore.Internal.Correction.Weighted>
   9.000000E+99

> <Gold.Protein.RotatedTorsions>
[ 6907 6896 6895 6894 ] final  127.97 input  -60.11 | X-H torsion
[ 7974 7965 7964 7962 ] final   33.96 input  175.53 | X-H torsion
[ 8008 7997 7996 7995 ] final   69.13 input   59.86 | X-H torsion
[ 10167 10162 10161 10158 ] final  -19.19 input  -65.29 | X-H torsion
[ 10718 10713 10712 10709 ] final  152.43 input   66.30 | X-H torsion
[ 10763 10752 10751 10750 ] final   93.41 input  -60.55 | X-H torsion
[ 11005 11000 10999 10996 ] final   82.73 input  -57.11 | X-H torsion

> <Gold.Protein.ActiveResidues>
 VAL166  LYS551  ARG553  GLY616  TRP617  ASP618  TYR619  PRO620  LYS621  CYS622 
 ASP623  PHE694  ASN695  SER759  ASP760  ASP761  ALA762  ILE779  LEU786  VAL792 
 PHE793  MET794  SER795  GLU796  ALA797  LYS798  CYS799  TRP800  GLU811  SER814 

> <Gold.Protein.RotatedAtoms>
  152.3763  133.6486  159.6125 H   0  0  0  0  0  0  0  0  0  0  0  0  # atno 6907 bound_to 6896
  150.7706  133.9188  159.3400 H   0  0  0  0  0  0  0  0  0  0  0  0  # atno 6908 bound_to 6896
  151.7001  135.0933  160.0300 H   0  0  0  0  0  0  0  0  0  0  0  0  # atno 6909 bound_to 6896
  146.1385  139.6330  142.9179 H   0  0  0  0  0  0  0  0  0  0  0  0  # atno 7974 bound_to 7965
  155.7189  140.3493  155.5007 H   0  0  0  0  0  0  0  0  0  0  0  0  # atno 8008 bound_to 7997
  155.9288  140.1080  157.1171 H   0  0  0  0  0  0  0  0  0  0  0  0  # atno 8009 bound_to 7997
  154.4082  140.1235  156.4762 H   0  0  0  0  0  0  0  0  0  0  0  0  # atno 8010 bound_to 7997
  140.7266  143.4843  151.0076 H   0  0  0  0  0  0  0  0  0  0  0  0  # atno 10167 bound_to 10162
  157.2578  131.0792  151.1686 H   0  0  0  0  0  0  0  0  0  0  0  0  # atno 10718 bound_to 10713
  153.2300  135.4326  155.0585 H   0  0  0  0  0  0  0  0  0  0  0  0  # atno 10763 bound_to 10752
  154.8292  135.3377  154.6801 H   0  0  0  0  0  0  0  0  0  0  0  0  # atno 10764 bound_to 10752
  153.7228  135.7016  153.5065 H   0  0  0  0  0  0  0  0  0  0  0  0  # atno 10765 bound_to 10752
  139.9054  134.8093  156.2214 H   0  0  0  0  0  0  0  0  0  0  0  0  # atno 11005 bound_to 11000
  145.5100  141.0435  143.2493 LP  0  0  0  0  0  0  0  0  0  0  0  0  # atno 17320 bound_to 7965
  144.7766  139.6616  143.7172 LP  0  0  0  0  0  0  0  0  0  0  0  0  # atno 17321 bound_to 7965
  139.8543  143.7397  152.3176 LP  0  0  0  0  0  0  0  0  0  0  0  0  # atno 17342 bound_to 10162
  139.7590  144.7512  151.0392 LP  0  0  0  0  0  0  0  0  0  0  0  0  # atno 17343 bound_to 10162
  157.3208  130.6936  149.6268 LP  0  0  0  0  0  0  0  0  0  0  0  0  # atno 17370 bound_to 10713
  155.9664  130.4336  150.5013 LP  0  0  0  0  0  0  0  0  0  0  0  0  # atno 17371 bound_to 10713
  141.0403  133.6941  156.1586 LP  0  0  0  0  0  0  0  0  0  0  0  0  # atno 17394 bound_to 11000
  140.6965  134.4610  157.5587 LP  0  0  0  0  0  0  0  0  0  0  0  0  # atno 17395 bound_to 11000

$$$$
