AV-unprocessed.smi:1990|AV-procd|sdf|8064|dock8
  -GOLD-   2272010273D 1   1.00000     0.00000
 Structure written by MMmdl.
 46 47  0  0  0  0  0  0  0  0  1 V2000
  153.5712  141.4586  161.0556 C   0  0  0  0  0  0  0  0  0  0  0  0
  153.2010  141.6972  159.5881 C   0  0  1  0  0  0  0  0  0  0  0  0
  152.4606  140.4937  158.9747 C   0  0  0  0  0  0  0  0  0  0  0  0
  152.0131  140.7998  157.6187 N   0  0  0  0  0  0  0  0  0  0  0  0
  151.5879  139.7396  156.7852 C   0  0  0  0  0  0  0  0  0  0  0  0
  151.6055  139.8345  155.3703 C   0  0  0  0  0  0  0  0  0  0  0  0
  151.1614  138.7437  154.5981 C   0  0  0  0  0  0  0  0  0  0  0  0
  150.7121  137.5748  155.2547 C   0  0  0  0  0  0  0  0  0  0  0  0
  150.2248  136.4117  154.5992 N   0  0  0  0  0  0  0  0  0  0  0  0
  150.2505  135.1300  155.0102 C   0  0  0  0  0  0  0  0  0  0  0  0
  150.7282  134.7476  156.0780 O   0  0  0  0  0  0  0  0  0  0  0  0
  149.6136  134.1145  154.0513 C   0  0  1  0  0  0  0  0  0  0  0  0
  150.1792  132.7002  154.2595 C   0  0  0  0  0  0  0  0  0  0  0  0
  147.7724  134.0969  154.2725 S   0  0  0  0  0  0  0  0  0  0  0  0
  147.1925  133.0452  152.8751 C   0  0  0  0  0  0  0  0  0  0  0  0
  147.4732  133.3947  155.5299 O   0  0  0  0  0  0  0  0  0  0  0  0
  147.2518  135.4571  154.0662 O   0  0  0  0  0  0  0  0  0  0  0  0
  150.7179  137.5786  156.6629 C   0  0  0  0  0  0  0  0  0  0  0  0
  151.1432  138.6204  157.4058 N   0  0  0  0  0  0  0  0  0  0  0  0
  151.2753  142.0584  157.5096 C   0  0  0  0  0  0  0  0  0  0  0  0
  152.0538  143.2079  158.1763 C   0  0  1  0  0  0  0  0  0  0  0  0
  151.2451  144.5092  158.2010 C   0  0  0  0  0  0  0  0  0  0  0  0
  152.3653  142.8483  159.5188 O   0  0  0  0  0  0  0  0  0  0  0  0
  154.2197  140.5885  161.1605 H   0  0  0  0  0  0  0  0  0  0  0  0
  152.6826  141.2900  161.6645 H   0  0  0  0  0  0  0  0  0  0  0  0
  154.0999  142.3184  161.4680 H   0  0  0  0  0  0  0  0  0  0  0  0
  154.1184  141.8867  159.0278 H   0  0  0  0  0  0  0  0  0  0  0  0
  153.1365  139.6382  158.9658 H   0  0  0  0  0  0  0  0  0  0  0  0
  151.5966  140.2273  159.5850 H   0  0  0  0  0  0  0  0  0  0  0  0
  151.9548  140.7171  154.8565 H   0  0  0  0  0  0  0  0  0  0  0  0
  151.1665  138.8358  153.5237 H   0  0  0  0  0  0  0  0  0  0  0  0
  149.7464  136.5826  153.7264 H   0  0  0  0  0  0  0  0  0  0  0  0
  149.8089  134.4173  153.0220 H   0  0  0  0  0  0  0  0  0  0  0  0
  151.2653  132.6893  154.1621 H   0  0  0  0  0  0  0  0  0  0  0  0
  149.7773  132.0090  153.5186 H   0  0  0  0  0  0  0  0  0  0  0  0
  149.9260  132.3077  155.2453 H   0  0  0  0  0  0  0  0  0  0  0  0
  146.1167  132.8944  152.9626 H   0  0  0  0  0  0  0  0  0  0  0  0
  147.6952  132.0790  152.9093 H   0  0  0  0  0  0  0  0  0  0  0  0
  147.4051  133.5365  151.9260 H   0  0  0  0  0  0  0  0  0  0  0  0
  150.3734  136.7163  157.2150 H   0  0  0  0  0  0  0  0  0  0  0  0
  151.0868  142.3257  156.4699 H   0  0  0  0  0  0  0  0  0  0  0  0
  150.3030  141.9337  157.9878 H   0  0  0  0  0  0  0  0  0  0  0  0
  152.9808  143.3883  157.6291 H   0  0  0  0  0  0  0  0  0  0  0  0
  150.9932  144.8332  157.1909 H   0  0  0  0  0  0  0  0  0  0  0  0
  151.8111  145.3112  158.6754 H   0  0  0  0  0  0  0  0  0  0  0  0
  150.3143  144.3853  158.7553 H   0  0  0  0  0  0  0  0  0  0  0  0
  1  2  1  0  0  0  0
  1 24  1  0  0  0  0
  1 25  1  0  0  0  0
  1 26  1  0  0  0  0
  2 23  1  0  0  0  0
  2  3  1  0  0  0  0
  2 27  1  0  0  0  0
  3  4  1  0  0  0  0
  3 28  1  0  0  0  0
  3 29  1  0  0  0  0
  4  5  1  0  0  0  0
  4 20  1  0  0  0  0
  5 19  1  0  0  0  0
  5  6  2  0  0  0  0
  6  7  1  0  0  0  0
  6 30  1  0  0  0  0
  7  8  2  0  0  0  0
  7 31  1  0  0  0  0
  8  9  1  0  0  0  0
  8 18  1  0  0  0  0
  9 10  1  0  0  0  0
  9 32  1  0  0  0  0
 10 11  2  0  0  0  0
 10 12  1  0  0  0  0
 12 13  1  0  0  0  0
 12 14  1  0  0  0  0
 12 33  1  0  0  0  0
 13 34  1  0  0  0  0
 13 35  1  0  0  0  0
 13 36  1  0  0  0  0
 14 15  1  0  0  0  0
 14 16  2  0  0  0  0
 14 17  2  0  0  0  0
 15 37  1  0  0  0  0
 15 38  1  0  0  0  0
 15 39  1  0  0  0  0
 18 19  2  0  0  0  0
 18 40  1  0  0  0  0
 20 21  1  0  0  0  0
 20 41  1  0  0  0  0
 20 42  1  0  0  0  0
 21 22  1  0  0  0  0
 21 23  1  0  0  0  0
 21 43  1  0  0  0  0
 22 44  1  0  0  0  0
 22 45  1  0  0  0  0
 22 46  1  0  0  0  0
M  END
> <s_m_source_file>
AV-unprocessed.smi

> <i_m_source_file_index>
1990

> <i_lp_mmshare_version>
43012

> <i_f3d_flags>
0

> <s_epik_input>
W0NIM11bQ0BASF0xW0NIMl1OKFtDSDJdW0NASF0oTzEpW0NIM10pYzJbY0hdW2NIXWMoW2NIXW4yKVtOSF1DKD1PKVtDQEhdKFtDSDNdKVMoPU8pKD1PKVtDSDNd

> <s_epik_cmdline>
J2VwaWtfcHl0aG9uJywgJy1waCcsICc3LjAnLCAnLXRuJywgJzgnLCAnLW1hJywgJzIwMCcsICctbWV0YWxfYmluZGluZycsICctaW1hZScsICc8aW5maWxlLm1hZT4nLCAnLW9tYWUnLCAnPG91dGZpbGUubWFlPic=

> <r_lp_tautomer_probability>
1

> <r_epik_Ionization_Penalty>
0.000334888

> <r_epik_Ionization_Penalty_Charging>
0

> <r_epik_Ionization_Penalty_Neutral>
0.000334888

> <r_epik_State_Penalty>
0.000200905

> <r_epik_Charging_Adjusted_Penalty>
0.000200905

> <i_epik_Tot_Q>
0

> <i_epik_Tot_abs_Q>
0

> <r_epik_Metal_State_Penalty>
-0

> <b_epik_Metal_Only>
0

> <s_lp_Force_Field>
OPLS_2005

> <r_lp_Energy>
18.0691

> <b_lp_Chiralities_Consistent>
1

> <s_lp_Variant>
AV-unprocessed.smi:1990-4

> <Gold.Version>
5.8.1

> <Gold.Id.Protein>
6NUR|6NUR_protein|mol2

> <Gold.PLP.Fitness>
38.3464

> <Gold.PLP.PLP>
-37.5109

> <Gold.PLP.part.hbond>
-1.0000

> <Gold.PLP.part.metal>
0.0000

> <Gold.PLP.part.buried>
-4.5334

> <Gold.PLP.part.nonpolar>
-32.0827

> <Gold.PLP.part.repulsive>
0.9628

> <Gold.PLP.ligand.clash>
0.0000

> <Gold.PLP.ligand.torsion>
1.3753

> <Gold.PLP.Chemscore.Hbond>
0.9913

> <Gold.PLP.Chemscore.CHOScore>
0.0000

> <Gold.PLP.Chemscore.Metal>
0.0000

> <Gold.Chemscore.Hbonds>
donor molecule, donor type, donor heavy atom, donor atom, acceptor molecule, acceptor atom, score
      L1  H     9    32       P1  7948  1.00

> <Gold.PLP.Chemscore.Internal.Correction>
0.6123

> <Gold.Rescore>
     Score         DG    S(hbond)    S(metal)    S(lipo)     H(rot)  DE(clash)    DE(int)     intcor
     13.06     -15.64       0.92        0.00      93.68       1.52       0.02       2.56       ----

> <Gold.Chemscore.Fitness>
13.0618

> <Gold.Chemscore.DG>
-15.6393

> <Gold.Chemscore.ZeroCoef>
-5.4800

> <Gold.Chemscore.Hbond>
0.9232

> <Gold.Chemscore.Metal>
0.0000

> <Gold.Chemscore.Lipo>
93.6835

> <Gold.Chemscore.Internal_Hbond>
0.0000

> <Gold.Chemscore.DEClash>
0.0177

> <Gold.Chemscore.DEInternal>
2.5597

> <Gold.Chemscore.Rot>
1.5177

> <Gold.Chemscore.Internal.Correction>
   9.000000E+99

> <Gold.Chemscore.Hbonds>
donor molecule, donor type, donor heavy atom, donor atom, acceptor molecule, acceptor atom, score
      L1  H     9    32       P1  7948  0.47

> <Gold.Chemscore.Hbond.Weighted>
-3.0836

> <Gold.Chemscore.Metal.Weighted>
-0.0000

> <Gold.Chemscore.Lipo.Weighted>
-10.9610

> <Gold.Chemscore.Internal_Hbond.Weighted>
0.0000

> <Gold.Chemscore.DEClash.Weighted>
0.0177

> <Gold.Chemscore.DEInternal.Weighted>
2.5597

> <Gold.Chemscore.Rot.Weighted>
3.8853

> <Gold.Chemscore.Internal.Correction.Weighted>
   9.000000E+99

> <Gold.Protein.RotatedTorsions>
[ 6907 6896 6895 6894 ] final  118.74 input  -60.11 | X-H torsion
[ 7974 7965 7964 7962 ] final -145.34 input  175.53 | X-H torsion
[ 8008 7997 7996 7995 ] final -103.47 input   59.86 | X-H torsion
[ 10167 10162 10161 10158 ] final -155.33 input  -65.29 | X-H torsion
[ 10718 10713 10712 10709 ] final  135.91 input   66.30 | X-H torsion
[ 10763 10752 10751 10750 ] final  117.24 input  -60.55 | X-H torsion
[ 11005 11000 10999 10996 ] final  170.38 input  -57.11 | X-H torsion

> <Gold.Protein.ActiveResidues>
 VAL166  LYS551  ARG553  GLY616  TRP617  ASP618  TYR619  PRO620  LYS621  CYS622 
 ASP623  PHE694  ASN695  SER759  ASP760  ASP761  ALA762  ILE779  LEU786  VAL792 
 PHE793  MET794  SER795  GLU796  ALA797  LYS798  CYS799  TRP800  GLU811  SER814 

> <Gold.Protein.RotatedAtoms>
  152.4522  133.7651  159.6767 H   0  0  0  0  0  0  0  0  0  0  0  0  # atno 6907 bound_to 6896
  150.8437  133.7885  159.3057 H   0  0  0  0  0  0  0  0  0  0  0  0  # atno 6908 bound_to 6896
  151.5502  135.1070  160.0000 H   0  0  0  0  0  0  0  0  0  0  0  0  # atno 6909 bound_to 6896
  144.8234  140.5596  143.5563 H   0  0  0  0  0  0  0  0  0  0  0  0  # atno 7974 bound_to 7965
  154.8713  140.0423  157.1726 H   0  0  0  0  0  0  0  0  0  0  0  0  # atno 8008 bound_to 7997
  154.8735  140.2962  155.5446 H   0  0  0  0  0  0  0  0  0  0  0  0  # atno 8009 bound_to 7997
  156.2999  140.2424  156.3728 H   0  0  0  0  0  0  0  0  0  0  0  0  # atno 8010 bound_to 7997
  139.6940  143.9373  152.2398 H   0  0  0  0  0  0  0  0  0  0  0  0  # atno 10167 bound_to 10162
  157.4521  131.1067  151.0020 H   0  0  0  0  0  0  0  0  0  0  0  0  # atno 10718 bound_to 10713
  153.5494  135.3543  155.2753 H   0  0  0  0  0  0  0  0  0  0  0  0  # atno 10763 bound_to 10752
  154.8708  135.4110  154.2954 H   0  0  0  0  0  0  0  0  0  0  0  0  # atno 10764 bound_to 10752
  153.3677  135.7063  153.6730 H   0  0  0  0  0  0  0  0  0  0  0  0  # atno 10765 bound_to 10752
  140.3077  134.7543  157.3966 H   0  0  0  0  0  0  0  0  0  0  0  0  # atno 11005 bound_to 11000
  145.5054  139.1481  143.3634 LP  0  0  0  0  0  0  0  0  0  0  0  0  # atno 17320 bound_to 7965
  146.2540  140.5194  142.8881 LP  0  0  0  0  0  0  0  0  0  0  0  0  # atno 17321 bound_to 7965
  139.9197  144.6807  150.8475 LP  0  0  0  0  0  0  0  0  0  0  0  0  # atno 17342 bound_to 10162
  140.7691  143.3384  151.2260 LP  0  0  0  0  0  0  0  0  0  0  0  0  # atno 17343 bound_to 10162
  157.0847  130.5917  149.5427 LP  0  0  0  0  0  0  0  0  0  0  0  0  # atno 17370 bound_to 10713
  155.9992  130.5067  150.7597 LP  0  0  0  0  0  0  0  0  0  0  0  0  # atno 17371 bound_to 10713
  140.1052  134.5418  155.8315 LP  0  0  0  0  0  0  0  0  0  0  0  0  # atno 17394 bound_to 11000
  141.2115  133.6707  156.6586 LP  0  0  0  0  0  0  0  0  0  0  0  0  # atno 17395 bound_to 11000

$$$$
