AV-unprocessed.smi:2024|AV-procd|sdf|8192|dock1
  -GOLD-   2272010443D 1   1.00000     0.00000
 Structure written by MMmdl.
 44 45  0  0  0  0  0  0  0  0  2 V2000
  145.6741  142.6324  157.1729 C   0  0  0  0  0  0  0  0  0  0  0  0
  144.8698  142.4490  155.9697 N   0  0  0  0  0  0  0  0  0  0  0  0
  145.6321  142.6037  154.7315 C   0  0  0  0  0  0  0  0  0  0  0  0
  146.6032  141.4285  154.4978 C   0  0  0  0  0  0  0  0  0  0  0  0
  145.8686  140.1301  154.4518 N   0  3  0  0  0  0  0  0  0  0  0  0
  146.6865  138.9386  154.0118 C   0  0  0  0  0  0  0  0  0  0  0  0
  148.1877  139.1483  154.3296 C   0  0  0  0  0  0  0  0  0  0  0  0
  146.2253  137.6471  154.7389 C   0  0  0  0  0  0  0  0  0  0  0  0
  146.4656  138.7228  152.4815 C   0  0  0  0  0  0  0  0  0  0  0  0
  146.6397  137.3400  152.0354 N   0  0  0  0  0  0  0  0  0  0  0  0
  145.6519  136.4934  151.7094 C   0  0  0  0  0  0  0  0  0  0  0  0
  144.4595  136.7988  151.7409 O   0  0  0  0  0  0  0  0  0  0  0  0
  146.1390  135.2942  151.3460 N   0  0  0  0  0  0  0  0  0  0  0  0
  145.4193  134.1501  150.9124 C   0  0  0  0  0  0  0  0  0  0  0  0
  144.1765  134.1834  150.4175 N   0  0  0  0  0  0  0  0  0  0  0  0
  143.7167  132.9107  150.0701 C   0  0  0  0  0  0  0  0  0  0  0  0
  144.6294  131.9133  150.3075 C   0  0  0  0  0  0  0  0  0  0  0  0
  146.1118  132.5362  150.9808 S   0  0  0  0  0  0  0  0  0  0  0  0
  145.0926  139.9709  155.7163 C   0  0  0  0  0  0  0  0  0  0  0  0
  144.1539  141.1751  155.9459 C   0  0  0  0  0  0  0  0  0  0  0  0
  146.1419  143.6174  157.1672 H   0  0  0  0  0  0  0  0  0  0  0  0
  146.4611  141.8856  157.2715 H   0  0  0  0  0  0  0  0  0  0  0  0
  145.0427  142.5730  158.0602 H   0  0  0  0  0  0  0  0  0  0  0  0
  144.9334  142.6717  153.8964 H   0  0  0  0  0  0  0  0  0  0  0  0
  146.1775  143.5479  154.7556 H   0  0  0  0  0  0  0  0  0  0  0  0
  147.1275  141.6206  153.5650 H   0  0  0  0  0  0  0  0  0  0  0  0
  147.3649  141.4125  155.2772 H   0  0  0  0  0  0  0  0  0  0  0  0
  148.7659  138.2434  154.1404 H   0  0  0  0  0  0  0  0  0  0  0  0
  148.3486  139.4076  155.3759 H   0  0  0  0  0  0  0  0  0  0  0  0
  148.6306  139.9355  153.7188 H   0  0  0  0  0  0  0  0  0  0  0  0
  146.7283  136.7589  154.3571 H   0  0  0  0  0  0  0  0  0  0  0  0
  145.1529  137.4848  154.6245 H   0  0  0  0  0  0  0  0  0  0  0  0
  146.4548  137.6686  155.8043 H   0  0  0  0  0  0  0  0  0  0  0  0
  145.4498  139.0182  152.2169 H   0  0  0  0  0  0  0  0  0  0  0  0
  147.1165  139.3576  151.8826 H   0  0  0  0  0  0  0  0  0  0  0  0
  147.5888  136.9999  151.9783 H   0  0  0  0  0  0  0  0  0  0  0  0
  147.1421  135.1874  151.3769 H   0  0  0  0  0  0  0  0  0  0  0  0
  142.7238  132.8058  149.6583 H   0  0  0  0  0  0  0  0  0  0  0  0
  144.5198  130.8543  150.1272 H   0  0  0  0  0  0  0  0  0  0  0  0
  144.4488  139.0946  155.6763 H   0  0  0  0  0  0  0  0  0  0  0  0
  145.7649  139.8301  156.5629 H   0  0  0  0  0  0  0  0  0  0  0  0
  143.5989  141.0520  156.8766 H   0  0  0  0  0  0  0  0  0  0  0  0
  143.4106  141.2125  155.1484 H   0  0  0  0  0  0  0  0  0  0  0  0
  145.1674  140.2402  153.7333 H   0  0  0  0  0  0  0  0  0  0  0  0
  1  2  1  0  0  0  0
  1 21  1  0  0  0  0
  1 22  1  0  0  0  0
  1 23  1  0  0  0  0
  2 20  1  0  0  0  0
  2  3  1  0  0  0  0
  3  4  1  0  0  0  0
  3 24  1  0  0  0  0
  3 25  1  0  0  0  0
  4  5  1  0  0  0  0
  4 26  1  0  0  0  0
  4 27  1  0  0  0  0
  5  6  1  0  0  0  0
  5 19  1  0  0  0  0
  5 44  1  0  0  0  0
  6  7  1  0  0  0  0
  6  8  1  0  0  0  0
  6  9  1  0  0  0  0
  7 28  1  0  0  0  0
  7 29  1  0  0  0  0
  7 30  1  0  0  0  0
  8 31  1  0  0  0  0
  8 32  1  0  0  0  0
  8 33  1  0  0  0  0
  9 10  1  0  0  0  0
  9 34  1  0  0  0  0
  9 35  1  0  0  0  0
 10 11  1  0  0  0  0
 10 36  1  0  0  0  0
 11 12  2  0  0  0  0
 11 13  1  0  0  0  0
 13 14  1  0  0  0  0
 13 37  1  0  0  0  0
 14 18  1  0  0  0  0
 14 15  2  0  0  0  0
 15 16  1  0  0  0  0
 16 17  2  0  0  0  0
 16 38  1  0  0  0  0
 17 18  1  0  0  0  0
 17 39  1  0  0  0  0
 19 20  1  0  0  0  0
 19 40  1  0  0  0  0
 19 41  1  0  0  0  0
 20 42  1  0  0  0  0
 20 43  1  0  0  0  0
M  CHG  1   5   1
M  END
> <s_m_source_file>
AV-unprocessed.smi

> <i_m_source_file_index>
2024

> <i_lp_mmshare_version>
43012

> <i_f3d_flags>
0

> <s_epik_input>
W0NIM11OMVtDSDJdW0NIMl1OKFtDSDJdW0NIMl0xKUMoW0NIM10pKFtDSDNdKVtDSDJdW05IXUMoPU8pW05IXWMybltjSF1bY0hdczI=

> <s_epik_cmdline>
J2VwaWtfcHl0aG9uJywgJy1waCcsICc3LjAnLCAnLXRuJywgJzgnLCAnLW1hJywgJzIwMCcsICctbWV0YWxfYmluZGluZycsICctaW1hZScsICc8aW5maWxlLm1hZT4nLCAnLW9tYWUnLCAnPG91dGZpbGUubWFlPic=

> <r_epik_Ionization_Penalty>
0.100627

> <r_epik_Ionization_Penalty_Charging>
0.0985296

> <r_epik_Ionization_Penalty_Neutral>
0.00209722

> <r_epik_State_Penalty>
1.056

> <r_epik_Charging_Adjusted_Penalty>
1.15453

> <i_epik_Tot_Q>
1

> <i_epik_Tot_abs_Q>
1

> <r_epik_Metal_State_Penalty>
1.08856

> <b_epik_Metal_Only>
0

> <s_lp_Force_Field>
OPLS_2005

> <r_lp_Energy>
25.1468

> <b_lp_Chiralities_Consistent>
1

> <s_lp_Variant>
AV-unprocessed.smi:2024-2

> <Gold.Version>
5.8.1

> <Gold.Id.Protein>
6NUR|6NUR_protein|mol2

> <Gold.PLP.Fitness>
40.0116

> <Gold.PLP.PLP>
-29.9885

> <Gold.PLP.part.hbond>
-2.9578

> <Gold.PLP.part.metal>
0.0000

> <Gold.PLP.part.buried>
-5.7080

> <Gold.PLP.part.nonpolar>
-25.1936

> <Gold.PLP.part.repulsive>
2.8810

> <Gold.PLP.ligand.clash>
0.0000

> <Gold.PLP.ligand.torsion>
2.2686

> <Gold.PLP.Chemscore.Hbond>
3.8640

> <Gold.PLP.Chemscore.CHOScore>
0.9557

> <Gold.PLP.Chemscore.Metal>
0.0000

> <Gold.Chemscore.Hbonds>
donor molecule, donor type, donor heavy atom, donor atom, acceptor molecule, acceptor atom, score
      L1  H     5    44       P1 10175  2.00
      L1  H    10    36       P1  7948  1.00
      L1  H    13    37       P1  7948  0.74
      L1  C    16    38       P1 10186  0.98

> <Gold.PLP.Chemscore.Internal.Correction>
0.1012

> <Gold.Rescore>
     Score         DG    S(hbond)    S(metal)    S(lipo)     H(rot)  DE(clash)    DE(int)     intcor
     13.78     -18.72       2.91        0.00      65.07       1.60       1.71       3.23       ----

> <Gold.Chemscore.Fitness>
13.7773

> <Gold.Chemscore.DG>
-18.7247

> <Gold.Chemscore.ZeroCoef>
-5.4800

> <Gold.Chemscore.Hbond>
2.9116

> <Gold.Chemscore.Metal>
0.0000

> <Gold.Chemscore.Lipo>
65.0747

> <Gold.Chemscore.Internal_Hbond>
0.0000

> <Gold.Chemscore.DEClash>
1.7150

> <Gold.Chemscore.DEInternal>
3.2324

> <Gold.Chemscore.Rot>
1.5991

> <Gold.Chemscore.Internal.Correction>
   9.000000E+99

> <Gold.Chemscore.Hbonds>
donor molecule, donor type, donor heavy atom, donor atom, acceptor molecule, acceptor atom, score
      L1  H     5    44       P1 10175  0.99
      L1  H    10    36       P1  7948  0.95
      L1  H    13    37       P1  7948  0.61

> <Gold.Chemscore.Hbond.Weighted>
-9.7246

> <Gold.Chemscore.Metal.Weighted>
-0.0000

> <Gold.Chemscore.Lipo.Weighted>
-7.6137

> <Gold.Chemscore.Internal_Hbond.Weighted>
0.0000

> <Gold.Chemscore.DEClash.Weighted>
1.7150

> <Gold.Chemscore.DEInternal.Weighted>
3.2324

> <Gold.Chemscore.Rot.Weighted>
4.0936

> <Gold.Chemscore.Internal.Correction.Weighted>
   9.000000E+99

> <Gold.Protein.RotatedTorsions>
[ 6907 6896 6895 6894 ] final  -18.67 input  -60.11 | X-H torsion
[ 7974 7965 7964 7962 ] final -138.41 input  175.53 | X-H torsion
[ 8008 7997 7996 7995 ] final  -31.82 input   59.86 | X-H torsion
[ 10167 10162 10161 10158 ] final   94.47 input  -65.29 | X-H torsion
[ 10718 10713 10712 10709 ] final    7.77 input   66.30 | X-H torsion
[ 10763 10752 10751 10750 ] final  -44.47 input  -60.55 | X-H torsion
[ 11005 11000 10999 10996 ] final -140.40 input  -57.11 | X-H torsion

> <Gold.Protein.ActiveResidues>
 VAL166  LYS551  ARG553  GLY616  TRP617  ASP618  TYR619  PRO620  LYS621  CYS622 
 ASP623  PHE694  ASN695  SER759  ASP760  ASP761  ALA762  ILE779  LEU786  VAL792 
 PHE793  MET794  SER795  GLU796  ALA797  LYS798  CYS799  TRP800  GLU811  SER814 

> <Gold.Protein.RotatedAtoms>
  151.2747  135.0695  159.9146 H   0  0  0  0  0  0  0  0  0  0  0  0  # atno 6907 bound_to 6896
  152.5344  134.0094  159.7941 H   0  0  0  0  0  0  0  0  0  0  0  0  # atno 6908 bound_to 6896
  151.0338  133.5716  159.2689 H   0  0  0  0  0  0  0  0  0  0  0  0  # atno 6909 bound_to 6896
  144.8761  140.6439  143.5236 H   0  0  0  0  0  0  0  0  0  0  0  0  # atno 7974 bound_to 7965
  154.4200  140.1754  156.1629 H   0  0  0  0  0  0  0  0  0  0  0  0  # atno 8008 bound_to 7997
  155.9824  140.3376  155.6651 H   0  0  0  0  0  0  0  0  0  0  0  0  # atno 8009 bound_to 7997
  155.6483  140.0687  157.2586 H   0  0  0  0  0  0  0  0  0  0  0  0  # atno 8010 bound_to 7997
  139.8081  144.6785  150.9677 H   0  0  0  0  0  0  0  0  0  0  0  0  # atno 10167 bound_to 10162
  156.9418  130.5864  149.5653 H   0  0  0  0  0  0  0  0  0  0  0  0  # atno 10718 bound_to 10713
  154.0126  135.6679  153.4766 H   0  0  0  0  0  0  0  0  0  0  0  0  # atno 10763 bound_to 10752
  153.0614  135.5026  154.8098 H   0  0  0  0  0  0  0  0  0  0  0  0  # atno 10764 bound_to 10752
  154.6986  135.3074  154.9339 H   0  0  0  0  0  0  0  0  0  0  0  0  # atno 10765 bound_to 10752
  140.8426  134.2383  157.4802 H   0  0  0  0  0  0  0  0  0  0  0  0  # atno 11005 bound_to 11000
  145.4040  139.1592  143.4162 LP  0  0  0  0  0  0  0  0  0  0  0  0  # atno 17320 bound_to 7965
  146.2963  140.4139  142.8720 LP  0  0  0  0  0  0  0  0  0  0  0  0  # atno 17321 bound_to 7965
  140.7818  143.4213  151.0837 LP  0  0  0  0  0  0  0  0  0  0  0  0  # atno 17342 bound_to 10162
  139.7881  143.8258  152.3148 LP  0  0  0  0  0  0  0  0  0  0  0  0  # atno 17343 bound_to 10162
  156.0401  130.5484  150.8750 LP  0  0  0  0  0  0  0  0  0  0  0  0  # atno 17370 bound_to 10713
  157.5780  131.0946  150.9315 LP  0  0  0  0  0  0  0  0  0  0  0  0  # atno 17371 bound_to 10713
  139.8703  134.9643  156.4491 LP  0  0  0  0  0  0  0  0  0  0  0  0  # atno 17394 bound_to 11000
  140.8878  133.7870  155.9538 LP  0  0  0  0  0  0  0  0  0  0  0  0  # atno 17395 bound_to 11000

$$$$
