#       Name:                AV-unprocessed.smi:3287
#       Creating user name   scv26
#       Creation time:       Fri Mar 27 18:51:19 2020


#       File generated by GOLD software.
#

@<TRIPOS>MOLECULE
AV-unprocessed.smi:3287
    46    47     1
SMALL
NO_CHARGES


@<TRIPOS>ATOM
      1 ****        -3.5946   3.7897  -0.4998 C.3            1 S1                 0.0000
      2 ****        -2.9501   2.3948  -0.5883 C.3            1 S1                 0.0000
      3 ****        -3.1803   1.6287   0.7301 C.3            1 S1                 0.0000
      4 ****        -2.5639   0.2238   0.6947 C.3            1 S1                 0.0000
      5 ****        -1.0594   0.2863   0.3905 C.3            1 S1                 0.0000
      6 ****        -0.4997  -1.0828   0.3542 N.4            1 S1                 1.0000
      7 ****         0.9693  -1.1696   0.5026 C.3            1 S1                 0.0000
      8 ****         1.4462  -2.6322   0.5357 C.3            1 S1                 0.0000
      9 ****         0.8653  -3.2779   1.6522 O.3            1 S1                 0.0000
     10 ****         2.9644  -2.7125   0.5651 C.ar           1 S1                 0.0000
     11 ****         3.6870  -3.0283  -0.6045 C.ar           1 S1                 0.0000
     12 ****         5.0936  -3.0838  -0.5334 C.ar           1 S1                 0.0000
     13 ****         5.7885  -2.8475   0.5998 N.ar           1 S1                 0.0000
     14 ****         5.0928  -2.5438   1.7161 C.ar           1 S1                 0.0000
     15 ****         3.6864  -2.4623   1.7523 C.ar           1 S1                 0.0000
     16 ****        -0.8252   1.0316  -0.9386 C.3            1 S1                 0.0000
     17 ****        -1.4378   2.4484  -0.9319 C.3            1 S1                 0.0000
     18 ****        -1.1535   3.1462  -2.2744 C.3            1 S1                 0.0000
     19 ****        -3.0815   4.4177   0.2290 H              1 S1                 0.0000
     20 ****        -4.6398   3.7190  -0.1972 H              1 S1                 0.0000
     21 ****        -3.5789   4.3058  -1.4593 H              1 S1                 0.0000
     22 ****        -3.4598   1.8473  -1.3828 H              1 S1                 0.0000
     23 ****        -2.7533   2.1906   1.5622 H              1 S1                 0.0000
     24 ****        -4.2491   1.5476   0.9321 H              1 S1                 0.0000
     25 ****        -2.7320  -0.2717   1.6518 H              1 S1                 0.0000
     26 ****        -3.0737  -0.3780  -0.0593 H              1 S1                 0.0000
     27 ****        -0.5733   0.8332   1.2003 H              1 S1                 0.0000
     28 ****        -0.9013  -1.5975   1.1251 H              1 S1                 0.0000
     29 ****         1.4438  -0.6557  -0.3336 H              1 S1                 0.0000
     30 ****         1.2772  -0.6519   1.4125 H              1 S1                 0.0000
     31 ****         1.0908  -3.1470  -0.3583 H              1 S1                 0.0000
     32 ****         1.1324  -4.1850   1.6462 H              1 S1                 0.0000
     33 ****         3.1808  -3.2247  -1.5383 H              1 S1                 0.0000
     34 ****         5.6761  -3.3229  -1.4108 H              1 S1                 0.0000
     35 ****         5.6740  -2.3581   2.6072 H              1 S1                 0.0000
     36 ****         3.1790  -2.2120   2.6727 H              1 S1                 0.0000
     37 ****         0.2432   1.1093  -1.1404 H              1 S1                 0.0000
     38 ****        -1.2511   0.4551  -1.7612 H              1 S1                 0.0000
     39 ****        -0.9338   3.0220  -0.1523 H              1 S1                 0.0000
     40 ****        -1.6935   2.6685  -3.0925 H              1 S1                 0.0000
     41 ****        -0.0908   3.1130  -2.5158 H              1 S1                 0.0000
     42 ****        -1.4382   4.1977  -2.2527 H              1 S1                 0.0000
     43 ****        -0.7783  -1.5306  -0.5070 H              1 S1                 0.0000
     44 ****        -0.1313  -3.2192   1.5951 LP             1 S1                 0.0000
     45 ****         1.1773  -2.8399   2.4953 LP             1 S1                 0.0000
     46 ****         6.7873  -2.8959   0.6118 LP             1 S1                 0.0000
@<TRIPOS>BOND
    1    1    2 1     
    2    1   19 1     
    3    1   20 1     
    4    1   21 1     
    5    2   17 1     
    6    2    3 1     
    7    2   22 1     
    8    3    4 1     
    9    3   23 1     
   10    3   24 1     
   11    4    5 1     
   12    4   25 1     
   13    4   26 1     
   14    5    6 1     
   15    5   16 1     
   16    5   27 1     
   17    6    7 1     
   18    6   28 1     
   19    6   43 1     
   20    7    8 1     
   21    7   29 1     
   22    7   30 1     
   23    8    9 1     
   24    8   10 1     
   25    8   31 1     
   26    9   32 1     
   27   10   15 ar    
   28   10   11 ar    
   29   11   12 ar    
   30   11   33 1     
   31   12   13 ar    
   32   12   34 1     
   33   13   14 ar    
   34   14   15 ar    
   35   14   35 1     
   36   15   36 1     
   37   16   17 1     
   38   16   37 1     
   39   16   38 1     
   40   17   18 1     
   41   17   39 1     
   42   18   40 1     
   43   18   41 1     
   44   18   42 1     
   45    9   44 1     
   46    9   45 1     
   47   13   46 1     
@<TRIPOS>SUBSTRUCTURE
      1 S1             1
@<TRIPOS>SET
LONE_PAIRS      STATIC     ATOMS    <user>   **** ""
3 44 45 46
DONOR_HYDROGENS      STATIC     ATOMS    <user>   **** ""
3 28 43 32
ATOM$BLUE        STATIC     ATOMS    COLORGROUP SYSTEM
3 44 45 46
ATOM$RED        STATIC     ATOMS    COLORGROUP SYSTEM
3 28 43 32
