#       Name:                AV-unprocessed.smi:511
#       Creating user name   scv26
#       Creation time:       Thu Mar 26 23:23:23 2020


#       File generated by GOLD software.
#

@<TRIPOS>MOLECULE
AV-unprocessed.smi:511
    53    55     1
SMALL
NO_CHARGES


@<TRIPOS>ATOM
      1 ****        -2.5016   2.4589   0.1192 C.3            1 S1                 0.0000
      2 ****        -1.8386   1.2107   0.0412 O.3            1 S1                 0.0000
      3 ****        -2.3254   0.3983  -1.0144 C.3            1 S1                 0.0000
      4 ****        -1.5596  -0.9315  -1.0311 C.3            1 S1                 0.0000
      5 ****        -0.1300  -0.7371  -1.2720 N.pl3          1 S1                 0.0000
      6 ****         0.8767  -0.5859  -0.3665 C.2            1 S1                 0.0000
      7 ****         0.6646  -0.6328   1.0124 N.pl3          1 S1                 0.0000
      8 ****         0.0776  -1.7269   1.7825 C.3            1 S1                 0.0000
      9 ****        -1.0114  -1.2025   2.7387 C.3            1 S1                 0.0000
     10 ****        -0.4081  -0.2664   3.6870 N.3            1 S1                 0.0000
     11 ****        -1.4320   0.2457   4.5858 C.3            1 S1                 0.0000
     12 ****         0.1866   0.8419   2.9395 C.3            1 S1                 0.0000
     13 ****         1.2544   0.3002   1.9679 C.3            1 S1                 0.0000
     14 ****         2.0745  -0.3448  -0.9032 N.2            1 S1                 0.0000
     15 ****         1.8189  -0.3710  -2.2648 C.2            1 S1                 0.0000
     16 ****         0.5010  -0.5952  -2.5131 C.2            1 S1                 0.0000
     17 ****        -0.0821  -0.6384  -3.8732 C.2            1 S1                 0.0000
     18 ****        -1.2879  -0.8073  -4.0437 O.2            1 S1                 0.0000
     19 ****         0.8659  -0.4679  -4.8484 N.pl3          1 S1                -1.0000
     20 ****         2.2114  -0.2525  -4.6416 C.2            1 S1                 0.0000
     21 ****         2.9993  -0.1155  -5.5785 O.2            1 S1                 0.0000
     22 ****         2.7018  -0.1876  -3.3639 N.am           1 S1                 0.0000
     23 ****         4.1262   0.0500  -3.1130 C.3            1 S1                 0.0000
     24 ****        -2.0946   3.0369   0.9489 H              1 S1                 0.0000
     25 ****        -3.5705   2.3275   0.2923 H              1 S1                 0.0000
     26 ****        -2.3620   3.0367  -0.7952 H              1 S1                 0.0000
     27 ****        -3.3901   0.2069  -0.8747 H              1 S1                 0.0000
     28 ****        -2.2088   0.9135  -1.9690 H              1 S1                 0.0000
     29 ****        -1.7232  -1.4505  -0.0929 H              1 S1                 0.0000
     30 ****        -1.9646  -1.5986  -1.7902 H              1 S1                 0.0000
     31 ****        -0.3246  -2.4889   1.1163 H              1 S1                 0.0000
     32 ****         0.8648  -2.2242   2.3512 H              1 S1                 0.0000
     33 ****        -1.8132  -0.7179   2.1790 H              1 S1                 0.0000
     34 ****        -1.4551  -2.0362   3.2839 H              1 S1                 0.0000
     35 ****        -0.9983   0.9479   5.2985 H              1 S1                 0.0000
     36 ****        -1.8833  -0.5685   5.1539 H              1 S1                 0.0000
     37 ****        -2.2230   0.7596   4.0373 H              1 S1                 0.0000
     38 ****        -0.5821   1.3884   2.3913 H              1 S1                 0.0000
     39 ****         0.6456   1.5446   3.6358 H              1 S1                 0.0000
     40 ****         2.0600  -0.1921   2.5148 H              1 S1                 0.0000
     41 ****         1.7072   1.1325   1.4280 H              1 S1                 0.0000
     42 ****         4.4543   0.9711  -3.5975 H              1 S1                 0.0000
     43 ****         4.7233  -0.7739  -3.5062 H              1 S1                 0.0000
     44 ****         4.3561   0.1442  -2.0518 H              1 S1                 0.0000
     45 ****        -1.9688   0.7246   0.9053 LP             1 S1                 0.0000
     46 ****        -0.8631   1.3750  -0.1051 LP             1 S1                 0.0000
     47 ****         0.2954  -0.7318   4.2241 LP             1 S1                 0.0000
     48 ****         2.9443  -0.1844  -0.4366 LP             1 S1                 0.0000
     49 ****        -1.8936  -0.9185  -3.2558 LP             1 S1                 0.0000
     50 ****        -1.6630  -0.8336  -4.9703 LP             1 S1                 0.0000
     51 ****         0.5524  -0.5031  -5.7973 LP             1 S1                 0.0000
     52 ****         2.6679  -0.1594  -6.5210 LP             1 S1                 0.0000
     53 ****         3.9703   0.0396  -5.3966 LP             1 S1                 0.0000
@<TRIPOS>BOND
    1    1    2 1     
    2    1   24 1     
    3    1   25 1     
    4    1   26 1     
    5    2    3 1     
    6    3    4 1     
    7    3   27 1     
    8    3   28 1     
    9    4    5 1     
   10    4   29 1     
   11    4   30 1     
   12    5   16 1     
   13    5    6 1     
   14    6    7 1     
   15    6   14 2     
   16    7   13 1     
   17    7    8 1     
   18    8    9 1     
   19    8   31 1     
   20    8   32 1     
   21    9   10 1     
   22    9   33 1     
   23    9   34 1     
   24   10   11 1     
   25   10   12 1     
   26   11   35 1     
   27   11   36 1     
   28   11   37 1     
   29   12   13 1     
   30   12   38 1     
   31   12   39 1     
   32   13   40 1     
   33   13   41 1     
   34   14   15 1     
   35   15   22 1     
   36   15   16 2     
   37   16   17 1     
   38   17   18 2     
   39   17   19 1     
   40   19   20 1     
   41   20   21 2     
   42   20   22 am    
   43   22   23 1     
   44   23   42 1     
   45   23   43 1     
   46   23   44 1     
   47    2   45 1     
   48    2   46 1     
   49   10   47 1     
   50   14   48 1     
   51   18   49 1     
   52   18   50 1     
   53   19   51 1     
   54   21   52 1     
   55   21   53 1     
@<TRIPOS>SUBSTRUCTURE
      1 S1             1
@<TRIPOS>SET
LONE_PAIRS      STATIC     ATOMS    <user>   **** ""
9 45 46 47 48 49 50 51 52 53
ATOM$BLUE        STATIC     ATOMS    COLORGROUP SYSTEM
9 45 46 47 48 49 50 51 52 53
