AV-unprocessed.smi:1060|AV-procd|sdf|4659|dock7
  -GOLD-   22720 3173D 1   1.00000     0.00000
 Structure written by MMmdl.
 36 37  0  0  0  0  0  0  0  0  2 V2000
  148.6266  132.5227  153.3506 O   0  0  0  0  0  0  0  0  0  0  0  0
  148.5422  133.6375  153.8644 C   0  0  0  0  0  0  0  0  0  0  0  0
  149.5167  134.0204  154.9757 C   0  0  0  0  0  0  0  0  0  0  0  0
  150.3061  135.1143  154.5372 O   0  0  0  0  0  0  0  0  0  0  0  0
  149.8918  136.3454  155.1056 C   0  0  0  0  0  0  0  0  0  0  0  0
  150.8670  137.4501  154.6798 C   0  0  1  0  0  0  0  0  0  0  0  0
  150.5017  138.8305  155.2163 C   0  0  0  0  0  0  0  0  0  0  0  0
  151.8190  139.5764  155.1243 C   0  0  0  0  0  0  0  0  0  0  0  0
  152.8702  138.4668  155.2276 C   0  0  0  0  0  0  0  0  0  0  0  0
  152.1472  137.2402  155.2566 O   0  0  0  0  0  0  0  0  0  0  0  0
  147.6241  134.5747  153.5558 N   0  0  0  0  0  0  0  0  0  0  0  0
  146.5901  134.5350  152.6044 C   0  0  0  0  0  0  0  0  0  0  0  0
  146.2693  133.4481  151.8490 C   0  0  0  0  0  0  0  0  0  0  0  0
  145.1866  133.4676  150.8734 C   0  0  0  0  0  0  0  0  0  0  0  0
  144.8521  132.2980  149.9642 C   0  0  0  0  0  0  0  0  0  0  0  0
  143.8493  132.6011  149.1396 F   0  0  0  0  0  0  0  0  0  0  0  0
  145.9081  131.9470  149.2303 F   0  0  0  0  0  0  0  0  0  0  0  0
  144.4862  131.2459  150.6947 F   0  0  0  0  0  0  0  0  0  0  0  0
  144.5722  134.7026  150.7967 C   0  0  0  0  0  0  0  0  0  0  0  0
  144.8236  135.8233  151.5079 N   0  5  0  0  0  0  0  0  0  0  0  0
  145.8333  135.7913  152.4231 C   0  0  0  0  0  0  0  0  0  0  0  0
  146.1230  136.7807  153.0967 O   0  0  0  0  0  0  0  0  0  0  0  0
  148.9535  134.2861  155.8720 H   0  0  0  0  0  0  0  0  0  0  0  0
  150.1524  133.1681  155.2222 H   0  0  0  0  0  0  0  0  0  0  0  0
  148.8899  136.5813  154.7432 H   0  0  0  0  0  0  0  0  0  0  0  0
  149.8407  136.2785  156.1936 H   0  0  0  0  0  0  0  0  0  0  0  0
  150.9559  137.4899  153.5925 H   0  0  0  0  0  0  0  0  0  0  0  0
  149.7006  139.3089  154.6519 H   0  0  0  0  0  0  0  0  0  0  0  0
  150.1887  138.7601  156.2592 H   0  0  0  0  0  0  0  0  0  0  0  0
  151.9021  140.0802  154.1604 H   0  0  0  0  0  0  0  0  0  0  0  0
  151.9229  140.3274  155.9081 H   0  0  0  0  0  0  0  0  0  0  0  0
  153.5378  138.4838  154.3654 H   0  0  0  0  0  0  0  0  0  0  0  0
  153.4770  138.5606  156.1284 H   0  0  0  0  0  0  0  0  0  0  0  0
  147.6430  135.4164  154.1134 H   0  0  0  0  0  0  0  0  0  0  0  0
  146.8224  132.5281  151.9403 H   0  0  0  0  0  0  0  0  0  0  0  0
  143.7586  134.8073  150.0475 H   0  0  0  0  0  0  0  0  0  0  0  0
  1  2  2  0  0  0  0
  2  3  1  0  0  0  0
  2 11  1  0  0  0  0
  3  4  1  0  0  0  0
  3 23  1  0  0  0  0
  3 24  1  0  0  0  0
  4  5  1  0  0  0  0
  5  6  1  0  0  0  0
  5 25  1  0  0  0  0
  5 26  1  0  0  0  0
  6 10  1  0  0  0  0
  6  7  1  0  0  0  0
  6 27  1  0  0  0  0
  7  8  1  0  0  0  0
  7 28  1  0  0  0  0
  7 29  1  0  0  0  0
  8  9  1  0  0  0  0
  8 30  1  0  0  0  0
  8 31  1  0  0  0  0
  9 10  1  0  0  0  0
  9 32  1  0  0  0  0
  9 33  1  0  0  0  0
 11 12  1  0  0  0  0
 11 34  1  0  0  0  0
 12 21  1  0  0  0  0
 12 13  2  0  0  0  0
 13 14  1  0  0  0  0
 13 35  1  0  0  0  0
 14 15  1  0  0  0  0
 14 19  2  0  0  0  0
 15 16  1  0  0  0  0
 15 17  1  0  0  0  0
 15 18  1  0  0  0  0
 19 20  1  0  0  0  0
 19 36  1  0  0  0  0
 20 21  1  0  0  0  0
 21 22  2  0  0  0  0
M  CHG  1  20  -1
M  END
> <s_m_source_file>
AV-unprocessed.smi

> <i_m_source_file_index>
1060

> <i_lp_mmshare_version>
43012

> <i_f3d_flags>
0

> <s_epik_input>
Tz1jMVtuSF1bY0hdYyhDKEYpKEYpRilbY0hdYzFbTkhdQyg9TylbQ0gyXU9bQ0gyXVtDQEBIXTJbQ0gyXVtDSDJdW0NIMl1PMg==

> <s_epik_cmdline>
J2VwaWtfcHl0aG9uJywgJy1waCcsICc3LjAnLCAnLXRuJywgJzgnLCAnLW1hJywgJzIwMCcsICctbWV0YWxfYmluZGluZycsICctaW1hZScsICc8aW5maWxlLm1hZT4nLCAnLW9tYWUnLCAnPG91dGZpbGUubWFlPic=

> <r_epik_Ionization_Penalty>
2.50578

> <r_epik_Ionization_Penalty_Charging>
0.0523173

> <r_epik_Ionization_Penalty_Neutral>
2.45346

> <r_epik_State_Penalty>
2.61512

> <r_epik_Charging_Adjusted_Penalty>
2.66744

> <i_epik_Tot_Q>
-1

> <i_epik_Tot_abs_Q>
1

> <r_epik_Metal_State_Penalty>
0.513209

> <b_epik_Metal_Only>
0

> <s_lp_Force_Field>
OPLS_2005

> <r_lp_Energy>
36.6163

> <b_lp_Chiralities_Consistent>
1

> <s_lp_Variant>
AV-unprocessed.smi:1060-4

> <Gold.Version>
5.8.1

> <Gold.Id.Protein>
6NUR|6NUR_protein|mol2

> <Gold.PLP.Fitness>
42.4770

> <Gold.PLP.PLP>
-40.5378

> <Gold.PLP.part.hbond>
-2.0000

> <Gold.PLP.part.metal>
0.0000

> <Gold.PLP.part.buried>
-3.4408

> <Gold.PLP.part.nonpolar>
-37.0211

> <Gold.PLP.part.repulsive>
1.1015

> <Gold.PLP.ligand.clash>
0.0000

> <Gold.PLP.ligand.torsion>
0.3696

> <Gold.PLP.Chemscore.Hbond>
0.8480

> <Gold.PLP.Chemscore.CHOScore>
0.0000

> <Gold.PLP.Chemscore.Metal>
0.0000

> <Gold.Chemscore.Hbonds>
donor molecule, donor type, donor heavy atom, donor atom, acceptor molecule, acceptor atom, score
      P1  H 10752 10765       L1    10  0.85

> <Gold.PLP.Chemscore.Internal.Correction>
0.1344

> <Gold.Rescore>
     Score         DG    S(hbond)    S(metal)    S(lipo)     H(rot)  DE(clash)    DE(int)     intcor
      9.57     -11.22       0.77        0.00      69.22       1.92       0.03       1.62       ----

> <Gold.Chemscore.Fitness>
9.5655

> <Gold.Chemscore.DG>
-11.2248

> <Gold.Chemscore.ZeroCoef>
-5.4800

> <Gold.Chemscore.Hbond>
0.7661

> <Gold.Chemscore.Metal>
0.0000

> <Gold.Chemscore.Lipo>
69.2196

> <Gold.Chemscore.Internal_Hbond>
0.0000

> <Gold.Chemscore.DEClash>
0.0347

> <Gold.Chemscore.DEInternal>
1.6246

> <Gold.Chemscore.Rot>
1.9190

> <Gold.Chemscore.Internal.Correction>
   9.000000E+99

> <Gold.Chemscore.Hbonds>
donor molecule, donor type, donor heavy atom, donor atom, acceptor molecule, acceptor atom, score
      P1  H 10752 10765       L1    10  0.71

> <Gold.Chemscore.Hbond.Weighted>
-2.5587

> <Gold.Chemscore.Metal.Weighted>
-0.0000

> <Gold.Chemscore.Lipo.Weighted>
-8.0987

> <Gold.Chemscore.Internal_Hbond.Weighted>
0.0000

> <Gold.Chemscore.DEClash.Weighted>
0.0347

> <Gold.Chemscore.DEInternal.Weighted>
1.6246

> <Gold.Chemscore.Rot.Weighted>
4.9126

> <Gold.Chemscore.Internal.Correction.Weighted>
   9.000000E+99

> <Gold.Protein.RotatedTorsions>
[ 6907 6896 6895 6894 ] final -154.98 input  -60.11 | X-H torsion
[ 7974 7965 7964 7962 ] final  123.27 input  175.53 | X-H torsion
[ 8008 7997 7996 7995 ] final   43.38 input   59.86 | X-H torsion
[ 10167 10162 10161 10158 ] final  142.07 input  -65.29 | X-H torsion
[ 10718 10713 10712 10709 ] final   47.84 input   66.30 | X-H torsion
[ 10763 10752 10751 10750 ] final -173.42 input  -60.55 | X-H torsion
[ 11005 11000 10999 10996 ] final  110.87 input  -57.11 | X-H torsion

> <Gold.Protein.ActiveResidues>
 VAL166  LYS551  ARG553  GLY616  TRP617  ASP618  TYR619  PRO620  LYS621  CYS622 
 ASP623  PHE694  ASN695  SER759  ASP760  ASP761  ALA762  ILE779  LEU786  VAL792 
 PHE793  MET794  SER795  GLU796  ALA797  LYS798  CYS799  TRP800  GLU811  SER814 

> <Gold.Protein.RotatedAtoms>
  151.2656  133.4280  159.2618 H   0  0  0  0  0  0  0  0  0  0  0  0  # atno 6907 bound_to 6896
  151.0491  134.9661  159.8212 H   0  0  0  0  0  0  0  0  0  0  0  0  # atno 6908 bound_to 6896
  152.5379  134.2611  159.8988 H   0  0  0  0  0  0  0  0  0  0  0  0  # atno 6909 bound_to 6896
  145.0979  139.3540  143.4827 H   0  0  0  0  0  0  0  0  0  0  0  0  # atno 7974 bound_to 7965
  155.3017  140.3385  155.4247 H   0  0  0  0  0  0  0  0  0  0  0  0  # atno 8008 bound_to 7997
  156.1998  140.1728  156.7962 H   0  0  0  0  0  0  0  0  0  0  0  0  # atno 8009 bound_to 7997
  154.5544  140.0699  156.8704 H   0  0  0  0  0  0  0  0  0  0  0  0  # atno 8010 bound_to 7997
  139.5004  144.6131  151.6226 H   0  0  0  0  0  0  0  0  0  0  0  0  # atno 10167 bound_to 10162
  157.4626  130.8206  149.7902 H   0  0  0  0  0  0  0  0  0  0  0  0  # atno 10718 bound_to 10713
  154.6080  135.2861  155.0463 H   0  0  0  0  0  0  0  0  0  0  0  0  # atno 10763 bound_to 10752
  154.1703  135.6473  153.5012 H   0  0  0  0  0  0  0  0  0  0  0  0  # atno 10764 bound_to 10752
  153.0183  135.5399  154.6823 H   0  0  0  0  0  0  0  0  0  0  0  0  # atno 10765 bound_to 10752
  139.8891  134.9494  156.6345 H   0  0  0  0  0  0  0  0  0  0  0  0  # atno 11005 bound_to 11000
  146.3530  140.0843  142.8616 LP  0  0  0  0  0  0  0  0  0  0  0  0  # atno 17320 bound_to 7965
  145.0990  140.9333  143.4724 LP  0  0  0  0  0  0  0  0  0  0  0  0  # atno 17321 bound_to 7965
  140.5811  143.9944  150.6269 LP  0  0  0  0  0  0  0  0  0  0  0  0  # atno 17342 bound_to 10162
  140.3094  143.3208  152.0894 LP  0  0  0  0  0  0  0  0  0  0  0  0  # atno 17343 bound_to 10162
  156.0035  130.3867  150.2515 LP  0  0  0  0  0  0  0  0  0  0  0  0  # atno 17370 bound_to 10713
  157.0693  131.0112  151.3195 LP  0  0  0  0  0  0  0  0  0  0  0  0  # atno 17371 bound_to 10713
  140.7641  133.8793  155.8441 LP  0  0  0  0  0  0  0  0  0  0  0  0  # atno 17394 bound_to 11000
  140.9897  134.1295  157.4419 LP  0  0  0  0  0  0  0  0  0  0  0  0  # atno 17395 bound_to 11000

$$$$
