AV-unprocessed.smi:92|AV-procd|sdf|842|dock1
  -GOLD-   2262017273D 1   1.00000     0.00000
 Structure written by MMmdl.
 61 64  0  0  0  0  0  0  0  0  2 V2000
  153.8311  142.1111  160.5526 C   0  0  0  0  0  0  0  0  0  0  0  0
  153.0615  142.3612  159.2474 C   0  0  0  0  0  0  0  0  0  0  0  0
  151.9470  141.4006  159.0457 N   0  3  1  0  0  0  0  0  0  0  0  0
  151.0073  141.8539  157.9882 C   0  0  0  0  0  0  0  0  0  0  0  0
  149.7947  140.9135  157.8507 C   0  0  0  0  0  0  0  0  0  0  0  0
  150.1568  139.4181  157.7326 C   0  0  1  0  0  0  0  0  0  0  0  0
  150.4473  138.9858  156.3536 N   0  0  0  0  0  0  0  0  0  0  0  0
  151.6924  139.2834  155.6478 C   0  0  0  0  0  0  0  0  0  0  0  0
  149.6836  137.9877  155.8384 C   0  0  0  0  0  0  0  0  0  0  0  0
  148.4063  138.2628  155.4636 N   0  0  0  0  0  0  0  0  0  0  0  0
  147.6369  137.3065  154.9363 C   0  0  0  0  0  0  0  0  0  0  0  0
  147.9367  136.0271  154.7066 N   0  0  0  0  0  0  0  0  0  0  0  0
  149.2114  135.7382  155.0963 C   0  0  0  0  0  0  0  0  0  0  0  0
  150.1457  136.6518  155.6619 C   0  0  0  0  0  0  0  0  0  0  0  0
  151.3435  135.9977  155.9273 N   0  0  0  0  0  0  0  0  0  0  0  0
  151.1345  134.7737  155.5257 C   0  0  0  0  0  0  0  0  0  0  0  0
  149.8711  134.5222  155.0407 N   0  0  0  0  0  0  0  0  0  0  0  0
  149.3935  133.2826  154.5001 C   0  0  0  0  0  0  0  0  0  0  0  0
  149.0398  133.1464  153.0164 C   0  0  0  0  0  0  0  0  0  0  0  0
  147.8631  132.2098  153.3684 C   0  0  0  0  0  0  0  0  0  0  0  0
  146.5402  132.5311  152.6565 C   0  0  0  0  0  0  0  0  0  0  0  0
  146.6635  132.3957  151.2552 O   0  0  0  0  0  0  0  0  0  0  0  0
  148.1008  130.6901  153.2201 C   0  0  0  0  0  0  0  0  0  0  0  0
  147.9271  130.2218  151.8983 O   0  0  0  0  0  0  0  0  0  0  0  0
  147.9756  132.7838  154.7989 C   0  0  0  0  0  0  0  0  0  0  0  0
  151.2212  139.0247  158.7862 C   0  0  1  0  0  0  0  0  0  0  0  0
  151.6658  137.5547  158.6978 C   0  0  0  0  0  0  0  0  0  0  0  0
  152.4094  140.0056  158.8187 C   0  0  0  0  0  0  0  0  0  0  0  0
  154.5764  142.8906  160.7114 H   0  0  0  0  0  0  0  0  0  0  0  0
  154.3611  141.1592  160.5431 H   0  0  0  0  0  0  0  0  0  0  0  0
  153.1607  142.1169  161.4126 H   0  0  0  0  0  0  0  0  0  0  0  0
  152.6579  143.3736  159.2933 H   0  0  0  0  0  0  0  0  0  0  0  0
  153.7365  142.3376  158.3906 H   0  0  0  0  0  0  0  0  0  0  0  0
  150.6410  142.8501  158.2389 H   0  0  0  0  0  0  0  0  0  0  0  0
  151.5361  141.9642  157.0440 H   0  0  0  0  0  0  0  0  0  0  0  0
  149.1779  141.0383  158.7416 H   0  0  0  0  0  0  0  0  0  0  0  0
  149.1666  141.2212  157.0140 H   0  0  0  0  0  0  0  0  0  0  0  0
  149.2613  138.8806  158.0444 H   0  0  0  0  0  0  0  0  0  0  0  0
  151.5481  139.2103  154.5691 H   0  0  0  0  0  0  0  0  0  0  0  0
  152.4754  138.5794  155.9289 H   0  0  0  0  0  0  0  0  0  0  0  0
  152.0509  140.2875  155.8480 H   0  0  0  0  0  0  0  0  0  0  0  0
  146.6379  137.6096  154.6591 H   0  0  0  0  0  0  0  0  0  0  0  0
  151.9012  134.0143  155.5790 H   0  0  0  0  0  0  0  0  0  0  0  0
  150.1328  132.5339  154.7868 H   0  0  0  0  0  0  0  0  0  0  0  0
  148.7117  134.0920  152.5811 H   0  0  0  0  0  0  0  0  0  0  0  0
  149.8225  132.6904  152.4092 H   0  0  0  0  0  0  0  0  0  0  0  0
  145.7354  131.8831  153.0055 H   0  0  0  0  0  0  0  0  0  0  0  0
  146.2236  133.5538  152.8637 H   0  0  0  0  0  0  0  0  0  0  0  0
  147.5238  132.0552  151.0619 H   0  0  0  0  0  0  0  0  0  0  0  0
  149.1111  130.4256  153.5338 H   0  0  0  0  0  0  0  0  0  0  0  0
  147.4195  130.1241  153.8560 H   0  0  0  0  0  0  0  0  0  0  0  0
  148.3604  130.8197  151.3084 H   0  0  0  0  0  0  0  0  0  0  0  0
  147.9195  132.0427  155.5971 H   0  0  0  0  0  0  0  0  0  0  0  0
  147.2788  133.6033  154.9834 H   0  0  0  0  0  0  0  0  0  0  0  0
  150.7302  139.1239  159.7558 H   0  0  0  0  0  0  0  0  0  0  0  0
  152.2384  137.3561  157.7923 H   0  0  0  0  0  0  0  0  0  0  0  0
  150.8058  136.8843  158.7007 H   0  0  0  0  0  0  0  0  0  0  0  0
  152.2946  137.2853  159.5468 H   0  0  0  0  0  0  0  0  0  0  0  0
  152.9947  139.9523  157.9014 H   0  0  0  0  0  0  0  0  0  0  0  0
  153.0788  139.7066  159.6243 H   0  0  0  0  0  0  0  0  0  0  0  0
  151.4168  141.3950  159.9056 H   0  0  0  0  0  0  0  0  0  0  0  0
  1  2  1  0  0  0  0
  1 29  1  0  0  0  0
  1 30  1  0  0  0  0
  1 31  1  0  0  0  0
  2  3  1  0  0  0  0
  2 32  1  0  0  0  0
  2 33  1  0  0  0  0
  3 28  1  0  0  0  0
  3  4  1  0  0  0  0
  3 61  1  0  0  0  0
  4  5  1  0  0  0  0
  4 34  1  0  0  0  0
  4 35  1  0  0  0  0
  5  6  1  0  0  0  0
  5 36  1  0  0  0  0
  5 37  1  0  0  0  0
  6  7  1  0  0  0  0
  6 26  1  0  0  0  0
  6 38  1  0  0  0  0
  7  8  1  0  0  0  0
  7  9  1  0  0  0  0
  8 39  1  0  0  0  0
  8 40  1  0  0  0  0
  8 41  1  0  0  0  0
  9 14  1  0  0  0  0
  9 10  2  0  0  0  0
 10 11  1  0  0  0  0
 11 12  2  0  0  0  0
 11 42  1  0  0  0  0
 12 13  1  0  0  0  0
 13 17  1  0  0  0  0
 13 14  2  0  0  0  0
 14 15  1  0  0  0  0
 15 16  2  0  0  0  0
 16 17  1  0  0  0  0
 16 43  1  0  0  0  0
 17 18  1  0  0  0  0
 18 25  1  0  0  0  0
 18 19  1  0  0  0  0
 18 44  1  0  0  0  0
 19 20  1  0  0  0  0
 19 45  1  0  0  0  0
 19 46  1  0  0  0  0
 20 21  1  0  0  0  0
 20 23  1  0  0  0  0
 20 25  1  0  0  0  0
 21 22  1  0  0  0  0
 21 47  1  0  0  0  0
 21 48  1  0  0  0  0
 22 49  1  0  0  0  0
 23 24  1  0  0  0  0
 23 50  1  0  0  0  0
 23 51  1  0  0  0  0
 24 52  1  0  0  0  0
 25 53  1  0  0  0  0
 25 54  1  0  0  0  0
 26 27  1  0  0  0  0
 26 28  1  0  0  0  0
 26 55  1  0  0  0  0
 27 56  1  0  0  0  0
 27 57  1  0  0  0  0
 27 58  1  0  0  0  0
 28 59  1  0  0  0  0
 28 60  1  0  0  0  0
M  CHG  1   3   1
M  END
> <s_m_source_file>
AV-unprocessed.smi

> <i_m_source_file_index>
92

> <i_lp_mmshare_version>
43012

> <i_f3d_flags>
0

> <s_epik_input>
W0NIM11bQ0gyXU4xW0NIMl1bQ0gyXVtDQEhdKFtDQEBIXShbQ0gzXSlbQ0gyXTEpTihbQ0gzXSljKG5bY0hdbjIpYyhjMjMpbltjSF1uM1tDSF0oW0NIMl00KVtDSDJdQzQoW0NIMl1bT0hdKVtDSDJdW09IXQ==

> <s_epik_cmdline>
J2VwaWtfcHl0aG9uJywgJy1waCcsICc3LjAnLCAnLXRuJywgJzgnLCAnLW1hJywgJzIwMCcsICctbWV0YWxfYmluZGluZycsICctaW1hZScsICc8aW5maWxlLm1hZT4nLCAnLW9tYWUnLCAnPG91dGZpbGUubWFlPic=

> <r_lp_tautomer_probability>
1

> <r_epik_Ionization_Penalty>
0.00235514

> <r_epik_Ionization_Penalty_Charging>
0.00137877

> <r_epik_Ionization_Penalty_Neutral>
0.000976366

> <r_epik_State_Penalty>
-0

> <r_epik_Charging_Adjusted_Penalty>
0.00137877

> <i_epik_Tot_Q>
1

> <i_epik_Tot_abs_Q>
1

> <r_epik_Metal_State_Penalty>
-0

> <b_epik_Metal_Only>
0

> <s_lp_Force_Field>
OPLS_2005

> <r_lp_Energy>
58.3953

> <b_lp_Chiralities_Consistent>
1

> <s_lp_Variant>
AV-unprocessed.smi:92-2

> <Gold.Version>
5.8.1

> <Gold.Id.Protein>
6NUR|6NUR_protein|mol2

> <Gold.PLP.Fitness>
41.6032

> <Gold.PLP.PLP>
-38.6766

> <Gold.PLP.part.hbond>
-1.8199

> <Gold.PLP.part.metal>
0.0000

> <Gold.PLP.part.buried>
-6.3077

> <Gold.PLP.part.nonpolar>
-31.4836

> <Gold.PLP.part.repulsive>
1.1040

> <Gold.PLP.ligand.clash>
0.0000

> <Gold.PLP.ligand.torsion>
2.0358

> <Gold.PLP.Chemscore.Hbond>
2.0000

> <Gold.PLP.Chemscore.CHOScore>
0.0000

> <Gold.PLP.Chemscore.Metal>
0.0000

> <Gold.Chemscore.Hbonds>
donor molecule, donor type, donor heavy atom, donor atom, acceptor molecule, acceptor atom, score
      L1  H    22    49       P1 10747  0.98
      L1  H    24    52       P1 10747  0.13

> <Gold.PLP.Chemscore.Internal.Correction>
0.9981

> <Gold.Rescore>
     Score         DG    S(hbond)    S(metal)    S(lipo)     H(rot)  DE(clash)    DE(int)     intcor
     12.03     -14.03       1.87        0.00      90.15       3.22       0.03       1.97       ----

> <Gold.Chemscore.Fitness>
12.0263

> <Gold.Chemscore.DG>
-14.0298

> <Gold.Chemscore.ZeroCoef>
-5.4800

> <Gold.Chemscore.Hbond>
1.8715

> <Gold.Chemscore.Metal>
0.0000

> <Gold.Chemscore.Lipo>
90.1463

> <Gold.Chemscore.Internal_Hbond>
0.0000

> <Gold.Chemscore.DEClash>
0.0310

> <Gold.Chemscore.DEInternal>
1.9725

> <Gold.Chemscore.Rot>
3.2219

> <Gold.Chemscore.Internal.Correction>
   9.000000E+99

> <Gold.Chemscore.Hbonds>
donor molecule, donor type, donor heavy atom, donor atom, acceptor molecule, acceptor atom, score
      L1  H    22    49       P1 10747  0.92
      L1  H    24    52       P1 10747  0.14

> <Gold.Chemscore.Hbond.Weighted>
-6.2509

> <Gold.Chemscore.Metal.Weighted>
-0.0000

> <Gold.Chemscore.Lipo.Weighted>
-10.5471

> <Gold.Chemscore.Internal_Hbond.Weighted>
0.0000

> <Gold.Chemscore.DEClash.Weighted>
0.0310

> <Gold.Chemscore.DEInternal.Weighted>
1.9725

> <Gold.Chemscore.Rot.Weighted>
8.2482

> <Gold.Chemscore.Internal.Correction.Weighted>
   9.000000E+99

> <Gold.Protein.RotatedTorsions>
[ 6907 6896 6895 6894 ] final  103.87 input  -60.11 | X-H torsion
[ 7974 7965 7964 7962 ] final  -49.05 input  175.53 | X-H torsion
[ 8008 7997 7996 7995 ] final   47.52 input   59.86 | X-H torsion
[ 10167 10162 10161 10158 ] final  -45.70 input  -65.29 | X-H torsion
[ 10718 10713 10712 10709 ] final  -16.64 input   66.30 | X-H torsion
[ 10763 10752 10751 10750 ] final -129.47 input  -60.55 | X-H torsion
[ 11005 11000 10999 10996 ] final -179.80 input  -57.11 | X-H torsion

> <Gold.Protein.ActiveResidues>
 VAL166  LYS551  ARG553  GLY616  TRP617  ASP618  TYR619  PRO620  LYS621  CYS622 
 ASP623  PHE694  ASN695  SER759  ASP760  ASP761  ALA762  ILE779  LEU786  VAL792 
 PHE793  MET794  SER795  GLU796  ALA797  LYS798  CYS799  TRP800  GLU811  SER814 

> <Gold.Protein.RotatedAtoms>
  152.5282  133.9761  159.7784 H   0  0  0  0  0  0  0  0  0  0  0  0  # atno 6907 bound_to 6896
  151.0023  133.6036  159.2700 H   0  0  0  0  0  0  0  0  0  0  0  0  # atno 6908 bound_to 6896
  151.3140  135.0808  159.9336 H   0  0  0  0  0  0  0  0  0  0  0  0  # atno 6909 bound_to 6896
  145.9447  140.7629  142.9534 H   0  0  0  0  0  0  0  0  0  0  0  0  # atno 7974 bound_to 7965
  155.3704  140.3423  155.4243 H   0  0  0  0  0  0  0  0  0  0  0  0  # atno 8008 bound_to 7997
  156.1665  140.1618  156.8556 H   0  0  0  0  0  0  0  0  0  0  0  0  # atno 8009 bound_to 7997
  154.5190  140.0771  156.8119 H   0  0  0  0  0  0  0  0  0  0  0  0  # atno 8010 bound_to 7997
  140.6847  143.2867  151.3676 H   0  0  0  0  0  0  0  0  0  0  0  0  # atno 10167 bound_to 10162
  156.5847  130.4783  149.6305 H   0  0  0  0  0  0  0  0  0  0  0  0  # atno 10718 bound_to 10713
  154.8757  135.3894  154.3925 H   0  0  0  0  0  0  0  0  0  0  0  0  # atno 10763 bound_to 10752
  153.4659  135.7029  153.6027 H   0  0  0  0  0  0  0  0  0  0  0  0  # atno 10764 bound_to 10752
  153.4506  135.3835  155.2249 H   0  0  0  0  0  0  0  0  0  0  0  0  # atno 10765 bound_to 10752
  140.4146  134.6661  157.4632 H   0  0  0  0  0  0  0  0  0  0  0  0  # atno 11005 bound_to 11000
  144.6785  140.2337  143.7352 LP  0  0  0  0  0  0  0  0  0  0  0  0  # atno 17320 bound_to 7965
  145.8252  139.2061  143.1914 LP  0  0  0  0  0  0  0  0  0  0  0  0  # atno 17321 bound_to 7965
  139.6197  144.0932  152.2379 LP  0  0  0  0  0  0  0  0  0  0  0  0  # atno 17342 bound_to 10162
  140.0372  144.6035  150.7440 LP  0  0  0  0  0  0  0  0  0  0  0  0  # atno 17343 bound_to 10162
  156.2601  130.6957  151.1723 LP  0  0  0  0  0  0  0  0  0  0  0  0  # atno 17370 bound_to 10713
  157.7318  131.0605  150.5660 LP  0  0  0  0  0  0  0  0  0  0  0  0  # atno 17371 bound_to 10713
  140.0243  134.6500  155.9195 LP  0  0  0  0  0  0  0  0  0  0  0  0  # atno 17394 bound_to 11000
  141.1808  133.6546  156.5012 LP  0  0  0  0  0  0  0  0  0  0  0  0  # atno 17395 bound_to 11000

$$$$
