AV-unprocessed.smi:1792|AV-procd|sdf|7223|dock3
  -GOLD-   22720 8463D 1   1.00000     0.00000
 Structure written by MMmdl.
 43 44  0  0  0  0  0  0  0  0  2 V2000
  148.0000  139.8726  152.6653 C   0  0  0  0  0  0  0  0  0  0  0  0
  147.8443  139.0437  153.9643 C   0  0  0  0  0  0  0  0  0  0  0  0
  147.6027  140.0339  155.1270 C   0  0  0  0  0  0  0  0  0  0  0  0
  146.5756  138.1519  153.8092 C   0  0  0  0  0  0  0  0  0  0  0  0
  146.7465  137.0329  152.8809 N   0  0  0  0  0  0  0  0  0  0  0  0
  145.7931  136.1565  152.5328 C   0  0  0  0  0  0  0  0  0  0  0  0
  144.6358  136.2147  152.9480 O   0  0  0  0  0  0  0  0  0  0  0  0
  146.2698  135.2288  151.6839 N   0  0  0  0  0  0  0  0  0  0  0  0
  145.5709  134.1460  151.0864 C   0  0  0  0  0  0  0  0  0  0  0  0
  146.3864  133.0860  150.6292 C   0  0  0  0  0  0  0  0  0  0  0  0
  145.7888  131.9636  150.0237 C   0  0  0  0  0  0  0  0  0  0  0  0
  144.3893  131.9308  149.8893 C   0  0  0  0  0  0  0  0  0  0  0  0
  143.6513  133.0289  150.3678 C   0  0  0  0  0  0  0  0  0  0  0  0
  144.2221  134.1055  150.9486 N   0  0  0  0  0  0  0  0  0  0  0  0
  149.0704  138.1976  154.1979 N   0  3  0  0  0  0  0  0  0  0  0  0
  150.3646  138.9320  154.2814 C   0  0  0  0  0  0  0  0  0  0  0  0
  151.5435  137.9461  154.3498 C   0  0  0  0  0  0  0  0  0  0  0  0
  151.3805  137.0721  155.4577 O   0  0  0  0  0  0  0  0  0  0  0  0
  150.1946  136.2985  155.3459 C   0  0  0  0  0  0  0  0  0  0  0  0
  148.9733  137.2318  155.3284 C   0  0  0  0  0  0  0  0  0  0  0  0
  147.0567  140.3368  152.3754 H   0  0  0  0  0  0  0  0  0  0  0  0
  148.3305  139.2571  151.8282 H   0  0  0  0  0  0  0  0  0  0  0  0
  148.7139  140.6884  152.7782 H   0  0  0  0  0  0  0  0  0  0  0  0
  146.7315  140.6591  154.9284 H   0  0  0  0  0  0  0  0  0  0  0  0
  148.4470  140.7069  155.2765 H   0  0  0  0  0  0  0  0  0  0  0  0
  147.4130  139.5246  156.0715 H   0  0  0  0  0  0  0  0  0  0  0  0
  146.2912  137.7259  154.7712 H   0  0  0  0  0  0  0  0  0  0  0  0
  145.7157  138.7582  153.5183 H   0  0  0  0  0  0  0  0  0  0  0  0
  147.6718  136.8970  152.5008 H   0  0  0  0  0  0  0  0  0  0  0  0
  147.2467  135.2993  151.4405 H   0  0  0  0  0  0  0  0  0  0  0  0
  147.4602  133.1260  150.7413 H   0  0  0  0  0  0  0  0  0  0  0  0
  146.3940  131.1424  149.6692 H   0  0  0  0  0  0  0  0  0  0  0  0
  143.8949  131.0869  149.4315 H   0  0  0  0  0  0  0  0  0  0  0  0
  142.5748  133.0440  150.2822 H   0  0  0  0  0  0  0  0  0  0  0  0
  150.5218  139.5687  153.4129 H   0  0  0  0  0  0  0  0  0  0  0  0
  150.3755  139.5761  155.1611 H   0  0  0  0  0  0  0  0  0  0  0  0
  151.6243  137.3713  153.4257 H   0  0  0  0  0  0  0  0  0  0  0  0
  152.4806  138.4906  154.4668 H   0  0  0  0  0  0  0  0  0  0  0  0
  150.2274  135.6805  154.4470 H   0  0  0  0  0  0  0  0  0  0  0  0
  150.1358  135.6195  156.1968 H   0  0  0  0  0  0  0  0  0  0  0  0
  148.9174  137.7664  156.2771 H   0  0  0  0  0  0  0  0  0  0  0  0
  148.0783  136.6172  155.2535 H   0  0  0  0  0  0  0  0  0  0  0  0
  149.1462  137.6294  153.3665 H   0  0  0  0  0  0  0  0  0  0  0  0
  1  2  1  0  0  0  0
  1 21  1  0  0  0  0
  1 22  1  0  0  0  0
  1 23  1  0  0  0  0
  2  3  1  0  0  0  0
  2  4  1  0  0  0  0
  2 15  1  0  0  0  0
  3 24  1  0  0  0  0
  3 25  1  0  0  0  0
  3 26  1  0  0  0  0
  4  5  1  0  0  0  0
  4 27  1  0  0  0  0
  4 28  1  0  0  0  0
  5  6  1  0  0  0  0
  5 29  1  0  0  0  0
  6  7  2  0  0  0  0
  6  8  1  0  0  0  0
  8  9  1  0  0  0  0
  8 30  1  0  0  0  0
  9 14  1  0  0  0  0
  9 10  2  0  0  0  0
 10 11  1  0  0  0  0
 10 31  1  0  0  0  0
 11 12  2  0  0  0  0
 11 32  1  0  0  0  0
 12 13  1  0  0  0  0
 12 33  1  0  0  0  0
 13 14  2  0  0  0  0
 13 34  1  0  0  0  0
 15 20  1  0  0  0  0
 15 16  1  0  0  0  0
 15 43  1  0  0  0  0
 16 17  1  0  0  0  0
 16 35  1  0  0  0  0
 16 36  1  0  0  0  0
 17 18  1  0  0  0  0
 17 37  1  0  0  0  0
 17 38  1  0  0  0  0
 18 19  1  0  0  0  0
 19 20  1  0  0  0  0
 19 39  1  0  0  0  0
 19 40  1  0  0  0  0
 20 41  1  0  0  0  0
 20 42  1  0  0  0  0
M  CHG  1  15   1
M  END
> <s_m_source_file>
AV-unprocessed.smi

> <i_m_source_file_index>
1792

> <i_lp_mmshare_version>
43012

> <i_f3d_flags>
0

> <s_epik_input>
W0NIMl0xW0NIMl1PW0NIMl1bQ0gyXU4xQyhbQ0gzXSkoW0NIM10pW0NIMl1bTkhdQyg9TylbTkhdYzJbY0hdW2NIXVtjSF1bY0hdbjI=

> <s_epik_cmdline>
J2VwaWtfcHl0aG9uJywgJy1waCcsICc3LjAnLCAnLXRuJywgJzgnLCAnLW1hJywgJzIwMCcsICctbWV0YWxfYmluZGluZycsICctaW1hZScsICc8aW5maWxlLm1hZT4nLCAnLW9tYWUnLCAnPG91dGZpbGUubWFlPic=

> <r_epik_Ionization_Penalty>
0.602565

> <r_epik_Ionization_Penalty_Charging>
0.602531

> <r_epik_Ionization_Penalty_Neutral>
3.47415e-05

> <r_epik_State_Penalty>
0.617039

> <r_epik_Charging_Adjusted_Penalty>
1.21957

> <i_epik_Tot_Q>
1

> <i_epik_Tot_abs_Q>
1

> <r_epik_Metal_State_Penalty>
0.617041

> <b_epik_Metal_Only>
0

> <s_lp_Force_Field>
OPLS_2005

> <r_lp_Energy>
32.7628

> <b_lp_Chiralities_Consistent>
1

> <s_lp_Variant>
AV-unprocessed.smi:1792-2

> <Gold.Version>
5.8.1

> <Gold.Id.Protein>
6NUR|6NUR_protein|mol2

> <Gold.PLP.Fitness>
46.9584

> <Gold.PLP.PLP>
-29.6870

> <Gold.PLP.part.hbond>
-3.9988

> <Gold.PLP.part.metal>
0.0000

> <Gold.PLP.part.buried>
-0.7339

> <Gold.PLP.part.nonpolar>
-26.1535

> <Gold.PLP.part.repulsive>
0.3656

> <Gold.PLP.ligand.clash>
0.0000

> <Gold.PLP.ligand.torsion>
0.2400

> <Gold.PLP.Chemscore.Hbond>
4.9105

> <Gold.PLP.Chemscore.CHOScore>
0.9709

> <Gold.PLP.Chemscore.Metal>
0.0000

> <Gold.Chemscore.Hbonds>
donor molecule, donor type, donor heavy atom, donor atom, acceptor molecule, acceptor atom, score
      L1  H     5    29       P1  7948  1.00
      L1  H     8    30       P1  7948  0.93
      L1  H    15    43       P1  7948  1.95
      P1  H 10752 10764       L1    18  0.22
      L1  C    13    34       P1 10186  1.00

> <Gold.PLP.Chemscore.Internal.Correction>
0.1071

> <Gold.Rescore>
     Score         DG    S(hbond)    S(metal)    S(lipo)     H(rot)  DE(clash)    DE(int)     intcor
     18.80     -20.70       3.08        0.00      76.13       1.55       0.49       1.41       ----

> <Gold.Chemscore.Fitness>
18.7951

> <Gold.Chemscore.DG>
-20.6973

> <Gold.Chemscore.ZeroCoef>
-5.4800

> <Gold.Chemscore.Hbond>
3.0755

> <Gold.Chemscore.Metal>
0.0000

> <Gold.Chemscore.Lipo>
76.1287

> <Gold.Chemscore.Internal_Hbond>
0.0000

> <Gold.Chemscore.DEClash>
0.4918

> <Gold.Chemscore.DEInternal>
1.4105

> <Gold.Chemscore.Rot>
1.5476

> <Gold.Chemscore.Internal.Correction>
   9.000000E+99

> <Gold.Chemscore.Hbonds>
donor molecule, donor type, donor heavy atom, donor atom, acceptor molecule, acceptor atom, score
      L1  H     5    29       P1  7948  0.97
      L1  H     8    30       P1  7948  0.78
      L1  H    15    43       P1  7948  0.92
      P1  H 10752 10764       L1    18  0.01

> <Gold.Chemscore.Hbond.Weighted>
-10.2722

> <Gold.Chemscore.Metal.Weighted>
-0.0000

> <Gold.Chemscore.Lipo.Weighted>
-8.9071

> <Gold.Chemscore.Internal_Hbond.Weighted>
0.0000

> <Gold.Chemscore.DEClash.Weighted>
0.4918

> <Gold.Chemscore.DEInternal.Weighted>
1.4105

> <Gold.Chemscore.Rot.Weighted>
3.9619

> <Gold.Chemscore.Internal.Correction.Weighted>
   9.000000E+99

> <Gold.Protein.RotatedTorsions>
[ 6907 6896 6895 6894 ] final  121.85 input  -60.11 | X-H torsion
[ 7974 7965 7964 7962 ] final  161.56 input  175.53 | X-H torsion
[ 8008 7997 7996 7995 ] final -133.65 input   59.86 | X-H torsion
[ 10167 10162 10161 10158 ] final  -79.06 input  -65.29 | X-H torsion
[ 10718 10713 10712 10709 ] final   47.05 input   66.30 | X-H torsion
[ 10763 10752 10751 10750 ] final  -41.78 input  -60.55 | X-H torsion
[ 11005 11000 10999 10996 ] final   -8.20 input  -57.11 | X-H torsion

> <Gold.Protein.ActiveResidues>
 VAL166  LYS551  ARG553  GLY616  TRP617  ASP618  TYR619  PRO620  LYS621  CYS622 
 ASP623  PHE694  ASN695  SER759  ASP760  ASP761  ALA762  ILE779  LEU786  VAL792 
 PHE793  MET794  SER795  GLU796  ALA797  LYS798  CYS799  TRP800  GLU811  SER814 

> <Gold.Protein.RotatedAtoms>
  152.4289  133.7243  159.6550 H   0  0  0  0  0  0  0  0  0  0  0  0  # atno 6907 bound_to 6896
  150.8167  133.8314  159.3163 H   0  0  0  0  0  0  0  0  0  0  0  0  # atno 6908 bound_to 6896
  151.6008  135.1049  160.0111 H   0  0  0  0  0  0  0  0  0  0  0  0  # atno 6909 bound_to 6896
  144.7679  139.7916  143.6308 H   0  0  0  0  0  0  0  0  0  0  0  0  # atno 7974 bound_to 7965
  155.3491  140.0476  157.3046 H   0  0  0  0  0  0  0  0  0  0  0  0  # atno 8008 bound_to 7997
  154.5237  140.2233  155.8894 H   0  0  0  0  0  0  0  0  0  0  0  0  # atno 8009 bound_to 7997
  156.1716  140.3094  155.8991 H   0  0  0  0  0  0  0  0  0  0  0  0  # atno 8010 bound_to 7997
  140.4627  143.2449  151.8324 H   0  0  0  0  0  0  0  0  0  0  0  0  # atno 10167 bound_to 10162
  157.4545  130.8158  149.7822 H   0  0  0  0  0  0  0  0  0  0  0  0  # atno 10718 bound_to 10713
  153.9681  135.6731  153.4746 H   0  0  0  0  0  0  0  0  0  0  0  0  # atno 10763 bound_to 10752
  153.0806  135.4925  154.8491 H   0  0  0  0  0  0  0  0  0  0  0  0  # atno 10764 bound_to 10752
  154.7235  135.3122  154.8970 H   0  0  0  0  0  0  0  0  0  0  0  0  # atno 10765 bound_to 10752
  140.7209  133.8829  155.8820 H   0  0  0  0  0  0  0  0  0  0  0  0  # atno 11005 bound_to 11000
  146.1803  139.4992  142.9871 LP  0  0  0  0  0  0  0  0  0  0  0  0  # atno 17320 bound_to 7965
  145.6412  141.0284  143.1811 LP  0  0  0  0  0  0  0  0  0  0  0  0  # atno 17321 bound_to 7965
  139.4808  144.4988  151.9088 LP  0  0  0  0  0  0  0  0  0  0  0  0  # atno 17342 bound_to 10162
  140.4074  144.2414  150.5890 LP  0  0  0  0  0  0  0  0  0  0  0  0  # atno 17343 bound_to 10162
  156.0001  130.3885  150.2639 LP  0  0  0  0  0  0  0  0  0  0  0  0  # atno 17370 bound_to 10713
  157.0813  131.0144  151.3155 LP  0  0  0  0  0  0  0  0  0  0  0  0  # atno 17371 bound_to 10713
  141.0004  134.1158  157.4323 LP  0  0  0  0  0  0  0  0  0  0  0  0  # atno 17394 bound_to 11000
  139.8848  135.0066  156.6395 LP  0  0  0  0  0  0  0  0  0  0  0  0  # atno 17395 bound_to 11000

$$$$
