AV-unprocessed.smi:2881|AV-procd|sdf|11070|dock5
  -GOLD-   2272015543D 1   1.00000     0.00000
 Structure written by MMmdl.
 40 42  0  0  0  0  0  0  0  0  1 V2000
  143.8089  132.3595  150.7130 C   0  0  0  0  0  0  0  0  0  0  0  0
  144.6437  133.5859  150.9365 C   0  0  0  0  0  0  0  0  0  0  0  0
  144.3007  134.9442  150.6726 C   0  0  0  0  0  0  0  0  0  0  0  0
  145.4037  135.6531  151.0588 C   0  0  0  0  0  0  0  0  0  0  0  0
  145.6859  137.1212  151.0510 C   0  0  0  0  0  0  0  0  0  0  0  0
  145.9204  137.6361  152.4708 C   0  0  0  0  0  0  0  0  0  0  0  0
  145.4564  137.0237  153.4321 O   0  0  0  0  0  0  0  0  0  0  0  0
  146.6437  138.7603  152.5879 N   0  0  0  0  0  0  0  0  0  0  0  0
  146.9949  139.4048  153.8504 C   0  0  1  0  0  0  0  0  0  0  0  0
  147.8068  138.4411  154.7435 C   0  0  2  0  0  0  0  0  0  0  0  0
  147.8056  138.9828  156.1843 C   0  0  0  0  0  0  0  0  0  0  0  0
  148.7445  140.1996  156.0831 C   0  0  0  0  0  0  0  0  0  0  0  0
  149.1477  140.2038  154.5926 C   0  0  1  0  0  0  0  0  0  0  0  0
  149.2473  138.7090  154.3156 C   0  0  0  0  0  0  0  0  0  0  0  0
  147.9677  140.5983  153.6694 C   0  0  2  0  0  0  0  0  0  0  0  0
  147.3283  141.9756  153.9330 C   0  0  0  0  0  0  0  0  0  0  0  0
  148.3246  142.9709  154.0317 O   0  0  0  0  0  0  0  0  0  0  0  0
  146.3169  134.7256  151.5076 N   0  0  0  0  0  0  0  0  0  0  0  0
  145.8630  133.4606  151.4390 N   0  0  0  0  0  0  0  0  0  0  0  0
  147.2396  134.9379  151.8594 H   0  0  0  0  0  0  0  0  0  0  0  0
  142.7908  132.6232  150.4256 H   0  0  0  0  0  0  0  0  0  0  0  0
  143.7506  131.7521  151.6167 H   0  0  0  0  0  0  0  0  0  0  0  0
  144.2275  131.7398  149.9197 H   0  0  0  0  0  0  0  0  0  0  0  0
  143.3811  135.3391  150.2663 H   0  0  0  0  0  0  0  0  0  0  0  0
  144.8473  137.6578  150.6058 H   0  0  0  0  0  0  0  0  0  0  0  0
  146.5583  137.3412  150.4340 H   0  0  0  0  0  0  0  0  0  0  0  0
  146.9848  139.1962  151.7437 H   0  0  0  0  0  0  0  0  0  0  0  0
  146.0776  139.7036  154.3618 H   0  0  0  0  0  0  0  0  0  0  0  0
  147.4905  137.3994  154.6776 H   0  0  0  0  0  0  0  0  0  0  0  0
  146.8068  139.2531  156.5290 H   0  0  0  0  0  0  0  0  0  0  0  0
  148.2099  138.2449  156.8783 H   0  0  0  0  0  0  0  0  0  0  0  0
  148.2736  141.1258  156.4089 H   0  0  0  0  0  0  0  0  0  0  0  0
  149.6229  140.0487  156.7119 H   0  0  0  0  0  0  0  0  0  0  0  0
  150.0623  140.7621  154.3910 H   0  0  0  0  0  0  0  0  0  0  0  0
  149.9856  138.1995  154.9376 H   0  0  0  0  0  0  0  0  0  0  0  0
  149.4413  138.4723  153.2680 H   0  0  0  0  0  0  0  0  0  0  0  0
  148.3437  140.6027  152.6440 H   0  0  0  0  0  0  0  0  0  0  0  0
  146.6651  142.2400  153.1096 H   0  0  0  0  0  0  0  0  0  0  0  0
  146.7172  141.9773  154.8349 H   0  0  0  0  0  0  0  0  0  0  0  0
  148.6255  143.0067  154.9270 H   0  0  0  0  0  0  0  0  0  0  0  0
  1 21  1  0  0  0  0
  1 22  1  0  0  0  0
  1 23  1  0  0  0  0
  1  2  1  0  0  0  0
  2 19  2  0  0  0  0
  2  3  1  0  0  0  0
  3  4  2  0  0  0  0
  3 24  1  0  0  0  0
  4 18  1  0  0  0  0
  4  5  1  0  0  0  0
  5  6  1  0  0  0  0
  5 25  1  0  0  0  0
  5 26  1  0  0  0  0
  6  7  2  0  0  0  0
  6  8  1  0  0  0  0
  8  9  1  0  0  0  0
  8 27  1  0  0  0  0
  9 15  1  0  0  0  0
  9 10  1  0  0  0  0
  9 28  1  0  0  0  0
 10 14  1  0  0  0  0
 10 11  1  0  0  0  0
 10 29  1  0  0  0  0
 11 12  1  0  0  0  0
 11 30  1  0  0  0  0
 11 31  1  0  0  0  0
 12 13  1  0  0  0  0
 12 32  1  0  0  0  0
 12 33  1  0  0  0  0
 13 14  1  0  0  0  0
 13 15  1  0  0  0  0
 13 34  1  0  0  0  0
 14 35  1  0  0  0  0
 14 36  1  0  0  0  0
 15 16  1  0  0  0  0
 15 37  1  0  0  0  0
 16 17  1  0  0  0  0
 16 38  1  0  0  0  0
 16 39  1  0  0  0  0
 17 40  1  0  0  0  0
 18 19  1  0  0  0  0
 18 20  1  0  0  0  0
M  END
> <s_m_source_file>
AV-unprocessed.smi

> <i_m_source_file_index>
2881

> <i_lp_mmshare_version>
43012

> <i_f3d_flags>
0

> <s_epik_input>
W0NIM11jMVtjSF1jKG5bbkhdMSlbQ0gyXUMoPU8pW05IXVtDQEhdKFtDQEBIXTIzKVtDQEhdKFtDSDJdW09IXSlbQ0BASF0oW0NIMl0zKVtDSDJdW0NIMl0y

> <s_epik_cmdline>
J2VwaWtfcHl0aG9uJywgJy1waCcsICc3LjAnLCAnLXRuJywgJzgnLCAnLW1hJywgJzIwMCcsICctbWV0YWxfYmluZGluZycsICctaW1hZScsICc8aW5maWxlLm1hZT4nLCAnLW9tYWUnLCAnPG91dGZpbGUubWFlPic=

> <r_lp_tautomer_probability>
0.5

> <r_epik_Ionization_Penalty>
0.00013396

> <r_epik_Ionization_Penalty_Charging>
0

> <r_epik_Ionization_Penalty_Neutral>
0.00013396

> <r_epik_State_Penalty>
0.41068

> <r_epik_Charging_Adjusted_Penalty>
0.41068

> <i_epik_Tot_Q>
0

> <i_epik_Tot_abs_Q>
0

> <r_epik_Metal_State_Penalty>
0.41066

> <b_epik_Metal_Only>
0

> <s_lp_Force_Field>
OPLS_2005

> <r_lp_Energy>
46.6194

> <b_lp_Chiralities_Consistent>
1

> <s_lp_Variant>
AV-unprocessed.smi:2881-16

> <Gold.Version>
5.8.1

> <Gold.Id.Protein>
6NUR|6NUR_protein|mol2

> <Gold.PLP.Fitness>
36.5713

> <Gold.PLP.PLP>
-30.6653

> <Gold.PLP.part.hbond>
-3.5908

> <Gold.PLP.part.metal>
0.0000

> <Gold.PLP.part.buried>
1.2118

> <Gold.PLP.part.nonpolar>
-27.9128

> <Gold.PLP.part.repulsive>
0.4469

> <Gold.PLP.ligand.clash>
0.0000

> <Gold.PLP.ligand.torsion>
0.4308

> <Gold.PLP.Chemscore.Hbond>
2.2480

> <Gold.PLP.Chemscore.CHOScore>
0.0000

> <Gold.PLP.Chemscore.Metal>
0.0000

> <Gold.Chemscore.Hbonds>
donor molecule, donor type, donor heavy atom, donor atom, acceptor molecule, acceptor atom, score
      L1  H    17    40       P1  8028  0.30
      L1  H    18    20       P1  7948  0.79
      P1  H  8022  8030       L1    17  0.90

> <Gold.PLP.Chemscore.Internal.Correction>
0.0235

> <Gold.Rescore>
     Score         DG    S(hbond)    S(metal)    S(lipo)     H(rot)  DE(clash)    DE(int)     intcor
     12.16     -14.88       1.99        0.00      73.34       2.28       1.53       1.19       ----

> <Gold.Chemscore.Fitness>
12.1611

> <Gold.Chemscore.DG>
-14.8824

> <Gold.Chemscore.ZeroCoef>
-5.4800

> <Gold.Chemscore.Hbond>
1.9902

> <Gold.Chemscore.Metal>
0.0000

> <Gold.Chemscore.Lipo>
73.3366

> <Gold.Chemscore.Internal_Hbond>
0.0000

> <Gold.Chemscore.DEClash>
1.5305

> <Gold.Chemscore.DEInternal>
1.1909

> <Gold.Chemscore.Rot>
2.2755

> <Gold.Chemscore.Internal.Correction>
   9.000000E+99

> <Gold.Chemscore.Hbonds>
donor molecule, donor type, donor heavy atom, donor atom, acceptor molecule, acceptor atom, score
      L1  H    17    40       P1  8028  0.30
      L1  H    18    20       P1  7948  0.68
      P1  H  8022  8030       L1    17  0.17

> <Gold.Chemscore.Hbond.Weighted>
-6.6473

> <Gold.Chemscore.Metal.Weighted>
-0.0000

> <Gold.Chemscore.Lipo.Weighted>
-8.5804

> <Gold.Chemscore.Internal_Hbond.Weighted>
0.0000

> <Gold.Chemscore.DEClash.Weighted>
1.5305

> <Gold.Chemscore.DEInternal.Weighted>
1.1909

> <Gold.Chemscore.Rot.Weighted>
5.8252

> <Gold.Chemscore.Internal.Correction.Weighted>
   9.000000E+99

> <Gold.Protein.RotatedTorsions>
[ 6907 6896 6895 6894 ] final  -26.81 input  -60.11 | X-H torsion
[ 7974 7965 7964 7962 ] final   88.78 input  175.53 | X-H torsion
[ 8008 7997 7996 7995 ] final -160.63 input   59.86 | X-H torsion
[ 10167 10162 10161 10158 ] final   75.40 input  -65.29 | X-H torsion
[ 10718 10713 10712 10709 ] final   27.98 input   66.30 | X-H torsion
[ 10763 10752 10751 10750 ] final  -87.57 input  -60.55 | X-H torsion
[ 11005 11000 10999 10996 ] final -160.24 input  -57.11 | X-H torsion

> <Gold.Protein.ActiveResidues>
 VAL166  LYS551  ARG553  GLY616  TRP617  ASP618  TYR619  PRO620  LYS621  CYS622 
 ASP623  PHE694  ASN695  SER759  ASP760  ASP761  ALA762  ILE779  LEU786  VAL792 
 PHE793  MET794  SER795  GLU796  ALA797  LYS798  CYS799  TRP800  GLU811  SER814 

> <Gold.Protein.RotatedAtoms>
  151.1557  135.0249  159.8687 H   0  0  0  0  0  0  0  0  0  0  0  0  # atno 6907 bound_to 6896
  152.5452  134.1337  159.8460 H   0  0  0  0  0  0  0  0  0  0  0  0  # atno 6908 bound_to 6896
  151.1427  133.4914  159.2629 H   0  0  0  0  0  0  0  0  0  0  0  0  # atno 6909 bound_to 6896
  145.5410  139.2288  143.2565 H   0  0  0  0  0  0  0  0  0  0  0  0  # atno 7974 bound_to 7965
  155.7803  140.0864  157.2063 H   0  0  0  0  0  0  0  0  0  0  0  0  # atno 8008 bound_to 7997
  154.3990  140.1509  156.3101 H   0  0  0  0  0  0  0  0  0  0  0  0  # atno 8009 bound_to 7997
  155.8660  140.3428  155.5791 H   0  0  0  0  0  0  0  0  0  0  0  0  # atno 8010 bound_to 7997
  140.0034  144.5669  150.7718 H   0  0  0  0  0  0  0  0  0  0  0  0  # atno 10167 bound_to 10162
  157.2274  130.7007  149.6297 H   0  0  0  0  0  0  0  0  0  0  0  0  # atno 10718 bound_to 10713
  154.6350  135.5408  153.7724 H   0  0  0  0  0  0  0  0  0  0  0  0  # atno 10763 bound_to 10752
  153.0304  135.6445  154.1244 H   0  0  0  0  0  0  0  0  0  0  0  0  # atno 10764 bound_to 10752
  154.1172  135.2923  155.3197 H   0  0  0  0  0  0  0  0  0  0  0  0  # atno 10765 bound_to 10752
  140.6337  134.4624  157.5230 H   0  0  0  0  0  0  0  0  0  0  0  0  # atno 11005 bound_to 11000
  146.1981  140.6230  142.9115 LP  0  0  0  0  0  0  0  0  0  0  0  0  # atno 17320 bound_to 7965
  144.7577  140.5346  143.6757 LP  0  0  0  0  0  0  0  0  0  0  0  0  # atno 17321 bound_to 7965
  140.7410  143.2812  151.3594 LP  0  0  0  0  0  0  0  0  0  0  0  0  # atno 17342 bound_to 10162
  139.6256  144.0822  152.2431 LP  0  0  0  0  0  0  0  0  0  0  0  0  # atno 17343 bound_to 10162
  155.9678  130.4500  150.5680 LP  0  0  0  0  0  0  0  0  0  0  0  0  # atno 17370 bound_to 10713
  157.3514  131.0734  151.1710 LP  0  0  0  0  0  0  0  0  0  0  0  0  # atno 17371 bound_to 10713
  139.9106  134.8353  156.1542 LP  0  0  0  0  0  0  0  0  0  0  0  0  # atno 17394 bound_to 11000
  141.0657  133.6820  156.2039 LP  0  0  0  0  0  0  0  0  0  0  0  0  # atno 17395 bound_to 11000

$$$$
