#       Name:                AV-unprocessed.smi:2568
#       Creating user name   scv26
#       Creation time:       Fri Mar 27 14:11:48 2020


#       File generated by GOLD software.
#

@<TRIPOS>MOLECULE
AV-unprocessed.smi:2568
    29    30     1
SMALL
NO_CHARGES


@<TRIPOS>ATOM
      1 ****        -3.9276   1.8411   0.3378 C.3            1 S1                 0.0000
      2 ****        -2.4178   1.7827   0.3678 C.2            1 S1                 0.0000
      3 ****        -1.5883   2.8385   0.4406 N.pl3          1 S1                -1.0000
      4 ****        -0.3382   2.4223   0.4481 N.2            1 S1                 0.0000
      5 ****        -0.4060   1.0830   0.3885 C.2            1 S1                 0.0000
      6 ****         0.8004   0.1659   0.3385 C.3            1 S1                 0.0000
      7 ****         1.2546  -0.0745  -1.1155 C.3            1 S1                 0.0000
      8 ****         2.4134  -0.9670  -1.1540 N.3            1 S1                 0.0000
      9 ****         2.1420  -2.2183  -0.4499 C.3            1 S1                 0.0000
     10 ****         1.6714  -1.9306   0.9859 C.3            1 S1                 0.0000
     11 ****         0.5218  -1.0931   0.9485 O.3            1 S1                 0.0000
     12 ****        -1.6829   0.6763   0.3261 N.2            1 S1                 0.0000
     13 ****        -4.2733   2.8750   0.3310 H              1 S1                 0.0000
     14 ****        -4.3407   1.3439   1.2153 H              1 S1                 0.0000
     15 ****        -4.3077   1.3433  -0.5542 H              1 S1                 0.0000
     16 ****         1.6005   0.6565   0.8964 H              1 S1                 0.0000
     17 ****         0.4340  -0.5075  -1.6890 H              1 S1                 0.0000
     18 ****         1.5019   0.8748  -1.5912 H              1 S1                 0.0000
     19 ****         2.6559  -1.1649  -2.1192 H              1 S1                 0.0000
     20 ****         1.3749  -2.7843  -0.9799 H              1 S1                 0.0000
     21 ****         3.0370  -2.8403  -0.4339 H              1 S1                 0.0000
     22 ****         1.4123  -2.8622   1.4890 H              1 S1                 0.0000
     23 ****         2.4630  -1.4614   1.5725 H              1 S1                 0.0000
     24 ****        -1.8767   3.7951   0.4827 LP             1 S1                 0.0000
     25 ****         0.4871   2.9855   0.4895 LP             1 S1                 0.0000
     26 ****         3.1766  -0.5109  -0.6962 LP             1 S1                 0.0000
     27 ****        -0.1966  -1.5532   0.4268 LP             1 S1                 0.0000
     28 ****         0.2056  -0.9361   1.8842 LP             1 S1                 0.0000
     29 ****        -2.0135  -0.2652   0.2616 LP             1 S1                 0.0000
@<TRIPOS>BOND
    1    1   13 1     
    2    1   14 1     
    3    1   15 1     
    4    1    2 1     
    5    2   12 2     
    6    2    3 1     
    7    3    4 1     
    8    4    5 2     
    9    5   12 1     
   10    5    6 1     
   11    6   11 1     
   12    6    7 1     
   13    6   16 1     
   14    7    8 1     
   15    7   17 1     
   16    7   18 1     
   17    8    9 1     
   18    8   19 1     
   19    9   10 1     
   20    9   20 1     
   21    9   21 1     
   22   10   11 1     
   23   10   22 1     
   24   10   23 1     
   25    3   24 1     
   26    4   25 1     
   27    8   26 1     
   28   11   27 1     
   29   11   28 1     
   30   12   29 1     
@<TRIPOS>SUBSTRUCTURE
      1 S1             1
@<TRIPOS>SET
LONE_PAIRS      STATIC     ATOMS    <user>   **** ""
6 24 25 26 27 28 29
DONOR_HYDROGENS      STATIC     ATOMS    <user>   **** ""
1 19
ATOM$BLUE        STATIC     ATOMS    COLORGROUP SYSTEM
6 24 25 26 27 28 29
ATOM$RED        STATIC     ATOMS    COLORGROUP SYSTEM
1 19
