AV-unprocessed.smi:2477|AV-procd|sdf|9760|dock5
  -GOLD-   2272013403D 1   1.00000     0.00000
 Structure written by MMmdl.
 51 53  0  0  0  0  0  0  0  0  1 V2000
  147.1701  132.3993  161.0771 C   0  0  0  0  0  0  0  0  0  0  0  0
  147.4026  133.8088  161.4024 N   0  0  0  0  0  0  0  0  0  0  0  0
  147.1956  134.2118  162.7325 C   0  0  0  0  0  0  0  0  0  0  0  0
  147.3838  135.4808  163.1200 C   0  0  0  0  0  0  0  0  0  0  0  0
  147.8097  136.4438  162.1331 C   0  0  0  0  0  0  0  0  0  0  0  0
  148.0241  136.0746  160.8449 C   0  0  0  0  0  0  0  0  0  0  0  0
  148.4307  136.9480  159.8209 N   0  0  0  0  0  0  0  0  0  0  0  0
  149.3197  136.7461  158.8309 C   0  0  0  0  0  0  0  0  0  0  0  0
  149.9371  135.7030  158.6175 O   0  0  0  0  0  0  0  0  0  0  0  0
  149.4472  137.8434  158.0719 N   0  0  0  0  0  0  0  0  0  0  0  0
  150.3309  137.9736  156.9154 C   0  0  1  0  0  0  0  0  0  0  0  0
  149.5161  138.3887  155.6752 C   0  0  0  0  0  0  0  0  0  0  0  0
  150.4168  138.5517  154.4407 C   0  0  0  0  0  0  0  0  0  0  0  0
  151.5592  139.5432  154.7096 C   0  0  0  0  0  0  0  0  0  0  0  0
  152.3720  139.1337  155.9486 C   0  0  0  0  0  0  0  0  0  0  0  0
  151.4763  138.9742  157.1956 C   0  0  1  0  0  0  0  0  0  0  0  0
  150.8957  140.2171  157.5815 O   0  0  0  0  0  0  0  0  0  0  0  0
  151.8152  141.2387  157.9437 C   0  0  0  0  0  0  0  0  0  0  0  0
  152.5420  140.8668  159.2345 C   0  0  0  0  0  0  0  0  0  0  0  0
  153.0075  142.2045  159.8201 C   0  0  0  0  0  0  0  0  0  0  0  0
  152.0799  143.2781  159.2276 C   0  0  0  0  0  0  0  0  0  0  0  0
  151.0989  142.5386  158.3111 C   0  0  0  0  0  0  0  0  0  0  0  0
  147.8033  134.6766  160.4257 C   0  0  0  0  0  0  0  0  0  0  0  0
  147.9688  134.2968  159.2638 O   0  0  0  0  0  0  0  0  0  0  0  0
  146.8871  131.8070  161.9480 H   0  0  0  0  0  0  0  0  0  0  0  0
  148.0708  131.9482  160.6584 H   0  0  0  0  0  0  0  0  0  0  0  0
  146.3687  132.3032  160.3432 H   0  0  0  0  0  0  0  0  0  0  0  0
  146.8780  133.4330  163.4107 H   0  0  0  0  0  0  0  0  0  0  0  0
  147.2215  135.7763  164.1461 H   0  0  0  0  0  0  0  0  0  0  0  0
  147.9327  137.4627  162.4621 H   0  0  0  0  0  0  0  0  0  0  0  0
  147.9558  137.8391  159.8190 H   0  0  0  0  0  0  0  0  0  0  0  0
  148.9036  138.6575  158.3181 H   0  0  0  0  0  0  0  0  0  0  0  0
  150.7689  136.9948  156.7092 H   0  0  0  0  0  0  0  0  0  0  0  0
  148.7454  137.6451  155.4691 H   0  0  0  0  0  0  0  0  0  0  0  0
  148.9947  139.3272  155.8688 H   0  0  0  0  0  0  0  0  0  0  0  0
  150.8325  137.5824  154.1624 H   0  0  0  0  0  0  0  0  0  0  0  0
  149.8241  138.8894  153.5900 H   0  0  0  0  0  0  0  0  0  0  0  0
  152.2136  139.5993  153.8394 H   0  0  0  0  0  0  0  0  0  0  0  0
  151.1504  140.5442  154.8529 H   0  0  0  0  0  0  0  0  0  0  0  0
  152.8716  138.1855  155.7475 H   0  0  0  0  0  0  0  0  0  0  0  0
  153.1683  139.8546  156.1314 H   0  0  0  0  0  0  0  0  0  0  0  0
  152.0782  138.5904  158.0211 H   0  0  0  0  0  0  0  0  0  0  0  0
  152.5573  141.4323  157.1663 H   0  0  0  0  0  0  0  0  0  0  0  0
  151.8429  140.3940  159.9260 H   0  0  0  0  0  0  0  0  0  0  0  0
  153.3633  140.1691  159.0677 H   0  0  0  0  0  0  0  0  0  0  0  0
  152.9763  142.1932  160.9102 H   0  0  0  0  0  0  0  0  0  0  0  0
  154.0385  142.4050  159.5255 H   0  0  0  0  0  0  0  0  0  0  0  0
  151.5556  143.8385  160.0021 H   0  0  0  0  0  0  0  0  0  0  0  0
  152.6669  143.9924  158.6491 H   0  0  0  0  0  0  0  0  0  0  0  0
  150.8134  143.1286  157.4403 H   0  0  0  0  0  0  0  0  0  0  0  0
  150.1880  142.3094  158.8660 H   0  0  0  0  0  0  0  0  0  0  0  0
  1  2  1  0  0  0  0
  1 25  1  0  0  0  0
  1 26  1  0  0  0  0
  1 27  1  0  0  0  0
  2 23  1  0  0  0  0
  2  3  1  0  0  0  0
  3  4  2  0  0  0  0
  3 28  1  0  0  0  0
  4  5  1  0  0  0  0
  4 29  1  0  0  0  0
  5  6  2  0  0  0  0
  5 30  1  0  0  0  0
  6  7  1  0  0  0  0
  6 23  1  0  0  0  0
  7  8  1  0  0  0  0
  7 31  1  0  0  0  0
  8  9  2  0  0  0  0
  8 10  1  0  0  0  0
 10 11  1  0  0  0  0
 10 32  1  0  0  0  0
 11 16  1  0  0  0  0
 11 12  1  0  0  0  0
 11 33  1  0  0  0  0
 12 13  1  0  0  0  0
 12 34  1  0  0  0  0
 12 35  1  0  0  0  0
 13 14  1  0  0  0  0
 13 36  1  0  0  0  0
 13 37  1  0  0  0  0
 14 15  1  0  0  0  0
 14 38  1  0  0  0  0
 14 39  1  0  0  0  0
 15 16  1  0  0  0  0
 15 40  1  0  0  0  0
 15 41  1  0  0  0  0
 16 17  1  0  0  0  0
 16 42  1  0  0  0  0
 17 18  1  0  0  0  0
 18 22  1  0  0  0  0
 18 19  1  0  0  0  0
 18 43  1  0  0  0  0
 19 20  1  0  0  0  0
 19 44  1  0  0  0  0
 19 45  1  0  0  0  0
 20 21  1  0  0  0  0
 20 46  1  0  0  0  0
 20 47  1  0  0  0  0
 21 22  1  0  0  0  0
 21 48  1  0  0  0  0
 21 49  1  0  0  0  0
 22 50  1  0  0  0  0
 22 51  1  0  0  0  0
 23 24  2  0  0  0  0
M  END
> <s_m_source_file>
AV-unprocessed.smi

> <i_m_source_file_index>
2477

> <i_lp_mmshare_version>
43012

> <i_f3d_flags>
0

> <s_epik_input>
W0NIM11uMVtjSF1bY0hdW2NIXWMoYzE9TylbTkhdQyg9TylbTkhdW0NAQEhdMltDSDJdW0NIMl1bQ0gyXVtDSDJdW0NASF0yT1tDSF0zW0NIMl1bQ0gyXVtDSDJdW0NIMl0z

> <s_epik_cmdline>
J2VwaWtfcHl0aG9uJywgJy1waCcsICc3LjAnLCAnLXRuJywgJzgnLCAnLW1hJywgJzIwMCcsICctbWV0YWxfYmluZGluZycsICctaW1hZScsICc8aW5maWxlLm1hZT4nLCAnLW9tYWUnLCAnPG91dGZpbGUubWFlPic=

> <r_lp_tautomer_probability>
1

> <r_epik_Ionization_Penalty>
2.40753e-05

> <r_epik_Ionization_Penalty_Charging>
4.84018e-06

> <r_epik_Ionization_Penalty_Neutral>
1.92352e-05

> <r_epik_State_Penalty>
-0

> <r_epik_Charging_Adjusted_Penalty>
4.84018e-06

> <i_epik_Tot_Q>
0

> <i_epik_Tot_abs_Q>
0

> <r_epik_Metal_State_Penalty>
-0

> <b_epik_Metal_Only>
0

> <s_lp_Force_Field>
OPLS_2005

> <r_lp_Energy>
43.088

> <b_lp_Chiralities_Consistent>
1

> <s_lp_Variant>
AV-unprocessed.smi:2477-2

> <Gold.Version>
5.8.1

> <Gold.Id.Protein>
6NUR|6NUR_protein|mol2

> <Gold.PLP.Fitness>
46.7479

> <Gold.PLP.PLP>
-44.4560

> <Gold.PLP.part.hbond>
-1.0000

> <Gold.PLP.part.metal>
0.0000

> <Gold.PLP.part.buried>
-2.0062

> <Gold.PLP.part.nonpolar>
-42.1211

> <Gold.PLP.part.repulsive>
0.3259

> <Gold.PLP.ligand.clash>
0.0000

> <Gold.PLP.ligand.torsion>
0.3798

> <Gold.PLP.Chemscore.Hbond>
1.0000

> <Gold.PLP.Chemscore.CHOScore>
0.0000

> <Gold.PLP.Chemscore.Metal>
0.0000

> <Gold.Chemscore.Hbonds>
donor molecule, donor type, donor heavy atom, donor atom, acceptor molecule, acceptor atom, score
      P1  H  6896  6909       L1     9  1.00

> <Gold.PLP.Chemscore.Internal.Correction>
0.0515

> <Gold.Rescore>
     Score         DG    S(hbond)    S(metal)    S(lipo)     H(rot)  DE(clash)    DE(int)     intcor
     16.04     -19.75       0.98        0.00     123.72       1.36       0.51       3.20       ----

> <Gold.Chemscore.Fitness>
16.0390

> <Gold.Chemscore.DG>
-19.7492

> <Gold.Chemscore.ZeroCoef>
-5.4800

> <Gold.Chemscore.Hbond>
0.9780

> <Gold.Chemscore.Metal>
0.0000

> <Gold.Chemscore.Lipo>
123.7174

> <Gold.Chemscore.Internal_Hbond>
0.0000

> <Gold.Chemscore.DEClash>
0.5112

> <Gold.Chemscore.DEInternal>
3.1990

> <Gold.Chemscore.Rot>
1.3564

> <Gold.Chemscore.Internal.Correction>
   9.000000E+99

> <Gold.Chemscore.Hbonds>
donor molecule, donor type, donor heavy atom, donor atom, acceptor molecule, acceptor atom, score
      P1  H  6896  6909       L1     9  0.98

> <Gold.Chemscore.Hbond.Weighted>
-3.2667

> <Gold.Chemscore.Metal.Weighted>
-0.0000

> <Gold.Chemscore.Lipo.Weighted>
-14.4749

> <Gold.Chemscore.Internal_Hbond.Weighted>
0.0000

> <Gold.Chemscore.DEClash.Weighted>
0.5112

> <Gold.Chemscore.DEInternal.Weighted>
3.1990

> <Gold.Chemscore.Rot.Weighted>
3.4724

> <Gold.Chemscore.Internal.Correction.Weighted>
   9.000000E+99

> <Gold.Protein.RotatedTorsions>
[ 6907 6896 6895 6894 ] final   57.15 input  -60.11 | X-H torsion
[ 7974 7965 7964 7962 ] final -119.86 input  175.53 | X-H torsion
[ 8008 7997 7996 7995 ] final  -37.00 input   59.86 | X-H torsion
[ 10167 10162 10161 10158 ] final  -47.09 input  -65.29 | X-H torsion
[ 10718 10713 10712 10709 ] final   34.26 input   66.30 | X-H torsion
[ 10763 10752 10751 10750 ] final   -9.51 input  -60.55 | X-H torsion
[ 11005 11000 10999 10996 ] final  141.18 input  -57.11 | X-H torsion

> <Gold.Protein.ActiveResidues>
 VAL166  LYS551  ARG553  GLY616  TRP617  ASP618  TYR619  PRO620  LYS621  CYS622 
 ASP623  PHE694  ASN695  SER759  ASP760  ASP761  ALA762  ILE779  LEU786  VAL792 
 PHE793  MET794  SER795  GLU796  ALA797  LYS798  CYS799  TRP800  GLU811  SER814 

> <Gold.Protein.RotatedAtoms>
  152.3704  134.6742  160.0177 H   0  0  0  0  0  0  0  0  0  0  0  0  # atno 6907 bound_to 6896
  151.7037  133.3306  159.3281 H   0  0  0  0  0  0  0  0  0  0  0  0  # atno 6908 bound_to 6896
  150.7669  134.6528  159.6342 H   0  0  0  0  0  0  0  0  0  0  0  0  # atno 6909 bound_to 6896
  145.0578  140.8267  143.4171 H   0  0  0  0  0  0  0  0  0  0  0  0  # atno 7974 bound_to 7965
  154.4062  140.1616  156.2465 H   0  0  0  0  0  0  0  0  0  0  0  0  # atno 8008 bound_to 7997
  155.9156  140.3424  155.6110 H   0  0  0  0  0  0  0  0  0  0  0  0  # atno 8009 bound_to 7997
  155.7284  140.0777  157.2290 H   0  0  0  0  0  0  0  0  0  0  0  0  # atno 8010 bound_to 7997
  140.6790  143.2800  151.3876 H   0  0  0  0  0  0  0  0  0  0  0  0  # atno 10167 bound_to 10162
  157.3082  130.7385  149.6708 H   0  0  0  0  0  0  0  0  0  0  0  0  # atno 10718 bound_to 10713
  153.4559  135.7015  153.6080 H   0  0  0  0  0  0  0  0  0  0  0  0  # atno 10763 bound_to 10752
  153.4395  135.3783  155.2220 H   0  0  0  0  0  0  0  0  0  0  0  0  # atno 10764 bound_to 10752
  154.8728  135.3970  154.3977 H   0  0  0  0  0  0  0  0  0  0  0  0  # atno 10765 bound_to 10752
  140.0382  134.9318  157.0793 H   0  0  0  0  0  0  0  0  0  0  0  0  # atno 11005 bound_to 11000
  145.1447  139.2551  143.5472 LP  0  0  0  0  0  0  0  0  0  0  0  0  # atno 17320 bound_to 7965
  146.3522  140.1133  142.8603 LP  0  0  0  0  0  0  0  0  0  0  0  0  # atno 17321 bound_to 7965
  139.6100  144.1118  152.2289 LP  0  0  0  0  0  0  0  0  0  0  0  0  # atno 17342 bound_to 10162
  140.0529  144.5918  150.7322 LP  0  0  0  0  0  0  0  0  0  0  0  0  # atno 17343 bound_to 10162
  155.9676  130.4259  150.4676 LP  0  0  0  0  0  0  0  0  0  0  0  0  # atno 17370 bound_to 10713
  157.2670  131.0579  151.2284 LP  0  0  0  0  0  0  0  0  0  0  0  0  # atno 17371 bound_to 10713
  140.4113  134.1978  155.7163 LP  0  0  0  0  0  0  0  0  0  0  0  0  # atno 17394 bound_to 11000
  141.1869  133.8293  157.1053 LP  0  0  0  0  0  0  0  0  0  0  0  0  # atno 17395 bound_to 11000

$$$$
