AV-unprocessed.smi:2999|AV-procd|sdf|11424|dock4
  -GOLD-   2272016343D 1   1.00000     0.00000
 Structure written by MMmdl.
 36 38  0  0  0  0  0  0  0  0  2 V2000
  152.3981  139.9368  154.8771 O   0  0  0  0  0  0  0  0  0  0  0  0
  151.3421  139.3567  155.1407 C   0  0  0  0  0  0  0  0  0  0  0  0
  151.0618  139.0281  156.4086 N   0  0  0  0  0  0  0  0  0  0  0  0
  151.9204  139.3028  157.5535 C   0  0  0  0  0  0  0  0  0  0  0  0
  151.4022  140.5082  158.3504 C   0  0  1  0  0  0  0  0  0  0  0  0
  152.4987  141.1146  159.2483 C   0  0  0  0  0  0  0  0  0  0  0  0
  152.0279  142.2958  159.9615 N   0  0  0  0  0  0  0  0  0  0  0  0
  153.0837  142.8608  160.7885 C   0  0  0  0  0  0  0  0  0  0  0  0
  153.6779  142.0334  161.8989 C   0  0  0  0  0  0  0  0  0  0  0  0
  152.7887  143.2203  162.2218 C   0  0  0  0  0  0  0  0  0  0  0  0
  151.5464  143.2687  158.9888 C   0  0  0  0  0  0  0  0  0  0  0  0
  150.4553  142.6745  158.0823 C   0  0  0  0  0  0  0  0  0  0  0  0
  150.9589  141.5097  157.4359 O   0  0  0  0  0  0  0  0  0  0  0  0
  150.3850  138.9929  154.2569 N   0  5  0  0  0  0  0  0  0  0  0  0
  149.2818  139.7459  154.1157 C   0  0  0  0  0  0  0  0  0  0  0  0
  149.2510  141.0549  154.3917 N   0  0  0  0  0  0  0  0  0  0  0  0
  148.0011  141.6383  154.1762 C   0  0  0  0  0  0  0  0  0  0  0  0
  147.0551  140.7506  153.7362 C   0  0  0  0  0  0  0  0  0  0  0  0
  147.7106  139.1458  153.5771 S   0  0  0  0  0  0  0  0  0  0  0  0
  150.1873  138.5576  156.5906 H   0  0  0  0  0  0  0  0  0  0  0  0
  151.9467  138.4219  158.1971 H   0  0  0  0  0  0  0  0  0  0  0  0
  152.9403  139.4825  157.2102 H   0  0  0  0  0  0  0  0  0  0  0  0
  150.5618  140.1919  158.9717 H   0  0  0  0  0  0  0  0  0  0  0  0
  152.8344  140.3646  159.9653 H   0  0  0  0  0  0  0  0  0  0  0  0
  153.3664  141.3715  158.6381 H   0  0  0  0  0  0  0  0  0  0  0  0
  153.7504  143.5107  160.2236 H   0  0  0  0  0  0  0  0  0  0  0  0
  153.2687  141.0393  162.0684 H   0  0  0  0  0  0  0  0  0  0  0  0
  154.7446  142.1382  162.0865 H   0  0  0  0  0  0  0  0  0  0  0  0
  153.2659  144.1113  162.6246 H   0  0  0  0  0  0  0  0  0  0  0  0
  151.7920  143.0097  162.6054 H   0  0  0  0  0  0  0  0  0  0  0  0
  151.1525  144.1444  159.5060 H   0  0  0  0  0  0  0  0  0  0  0  0
  152.3753  143.6184  158.3711 H   0  0  0  0  0  0  0  0  0  0  0  0
  149.5655  142.4221  158.6609 H   0  0  0  0  0  0  0  0  0  0  0  0
  150.1521  143.3995  157.3269 H   0  0  0  0  0  0  0  0  0  0  0  0
  147.8743  142.6943  154.3634 H   0  0  0  0  0  0  0  0  0  0  0  0
  146.0194  140.9403  153.4977 H   0  0  0  0  0  0  0  0  0  0  0  0
  1  2  2  0  0  0  0
  2  3  1  0  0  0  0
  2 14  1  0  0  0  0
  3  4  1  0  0  0  0
  3 20  1  0  0  0  0
  4  5  1  0  0  0  0
  4 21  1  0  0  0  0
  4 22  1  0  0  0  0
  5 13  1  0  0  0  0
  5  6  1  0  0  0  0
  5 23  1  0  0  0  0
  6  7  1  0  0  0  0
  6 24  1  0  0  0  0
  6 25  1  0  0  0  0
  7  8  1  0  0  0  0
  7 11  1  0  0  0  0
  8 10  1  0  0  0  0
  8  9  1  0  0  0  0
  8 26  1  0  0  0  0
  9 10  1  0  0  0  0
  9 27  1  0  0  0  0
  9 28  1  0  0  0  0
 10 29  1  0  0  0  0
 10 30  1  0  0  0  0
 11 12  1  0  0  0  0
 11 31  1  0  0  0  0
 11 32  1  0  0  0  0
 12 13  1  0  0  0  0
 12 33  1  0  0  0  0
 12 34  1  0  0  0  0
 14 15  1  0  0  0  0
 15 19  1  0  0  0  0
 15 16  2  0  0  0  0
 16 17  1  0  0  0  0
 17 18  2  0  0  0  0
 17 35  1  0  0  0  0
 18 19  1  0  0  0  0
 18 36  1  0  0  0  0
M  CHG  1  14  -1
M  END
> <s_m_source_file>
AV-unprocessed.smi

> <i_m_source_file_index>
2999

> <i_lp_mmshare_version>
43012

> <i_f3d_flags>
0

> <s_epik_input>
czFbY0hdW2NIXW5jMVtOSF1DKD1PKVtOSF1bQ0gyXVtDQEBIXTJbQ0gyXU4oW0NIMl1bQ0gyXU8yKVtDSF0zW0NIMl1bQ0gyXTM=

> <s_epik_cmdline>
J2VwaWtfcHl0aG9uJywgJy1waCcsICc3LjAnLCAnLXRuJywgJzgnLCAnLW1hJywgJzIwMCcsICctbWV0YWxfYmluZGluZycsICctaW1hZScsICc8aW5maWxlLm1hZT4nLCAnLW9tYWUnLCAnPG91dGZpbGUubWFlPic=

> <r_lp_tautomer_probability>
0.999

> <r_epik_Ionization_Penalty>
6.67591

> <r_epik_Ionization_Penalty_Charging>
5.6519

> <r_epik_Ionization_Penalty_Neutral>
1.024

> <r_epik_State_Penalty>
5.68985

> <r_epik_Charging_Adjusted_Penalty>
11.3418

> <i_epik_Tot_Q>
-1

> <i_epik_Tot_abs_Q>
1

> <r_epik_Metal_State_Penalty>
1.67789

> <b_epik_Metal_Only>
1

> <s_lp_Force_Field>
OPLS_2005

> <r_lp_Energy>
26.9989

> <b_lp_Chiralities_Consistent>
1

> <s_lp_Variant>
AV-unprocessed.smi:2999-8

> <Gold.Version>
5.8.1

> <Gold.Id.Protein>
6NUR|6NUR_protein|mol2

> <Gold.PLP.Fitness>
43.7468

> <Gold.PLP.PLP>
-38.6415

> <Gold.PLP.part.hbond>
-1.7938

> <Gold.PLP.part.metal>
0.0000

> <Gold.PLP.part.buried>
-4.6366

> <Gold.PLP.part.nonpolar>
-31.9670

> <Gold.PLP.part.repulsive>
0.4523

> <Gold.PLP.ligand.clash>
0.0000

> <Gold.PLP.ligand.torsion>
1.8400

> <Gold.PLP.Chemscore.Hbond>
0.7954

> <Gold.PLP.Chemscore.CHOScore>
1.7525

> <Gold.PLP.Chemscore.Metal>
0.0000

> <Gold.Chemscore.Hbonds>
donor molecule, donor type, donor heavy atom, donor atom, acceptor molecule, acceptor atom, score
      P1  H  7989  7998       L1     1  0.44
      P1  H  7997  8009       L1     1  0.32
      L1  C    17    35       P1  8028  0.89
      L1  C    18    36       P1 10175  0.87

> <Gold.PLP.Chemscore.Internal.Correction>
1.1417

> <Gold.Rescore>
     Score         DG    S(hbond)    S(metal)    S(lipo)     H(rot)  DE(clash)    DE(int)     intcor
     14.18     -15.95       1.00        0.00      94.05       1.52       0.04       1.73       ----

> <Gold.Chemscore.Fitness>
14.1827

> <Gold.Chemscore.DG>
-15.9519

> <Gold.Chemscore.ZeroCoef>
-5.4800

> <Gold.Chemscore.Hbond>
1.0033

> <Gold.Chemscore.Metal>
0.0000

> <Gold.Chemscore.Lipo>
94.0468

> <Gold.Chemscore.Internal_Hbond>
0.0000

> <Gold.Chemscore.DEClash>
0.0421

> <Gold.Chemscore.DEInternal>
1.7271

> <Gold.Chemscore.Rot>
1.5167

> <Gold.Chemscore.Internal.Correction>
   9.000000E+99

> <Gold.Chemscore.Hbonds>
donor molecule, donor type, donor heavy atom, donor atom, acceptor molecule, acceptor atom, score
      P1  H  7989  7998       L1     1  0.05
      P1  H  7997  8009       L1     1  0.33

> <Gold.Chemscore.Hbond.Weighted>
-3.3511

> <Gold.Chemscore.Metal.Weighted>
-0.0000

> <Gold.Chemscore.Lipo.Weighted>
-11.0035

> <Gold.Chemscore.Internal_Hbond.Weighted>
0.0000

> <Gold.Chemscore.DEClash.Weighted>
0.0421

> <Gold.Chemscore.DEInternal.Weighted>
1.7271

> <Gold.Chemscore.Rot.Weighted>
3.8827

> <Gold.Chemscore.Internal.Correction.Weighted>
   9.000000E+99

> <Gold.Protein.RotatedTorsions>
[ 6907 6896 6895 6894 ] final  -82.05 input  -60.11 | X-H torsion
[ 7974 7965 7964 7962 ] final -128.85 input  175.53 | X-H torsion
[ 8008 7997 7996 7995 ] final -142.26 input   59.86 | X-H torsion
[ 10167 10162 10161 10158 ] final   68.29 input  -65.29 | X-H torsion
[ 10718 10713 10712 10709 ] final   59.84 input   66.30 | X-H torsion
[ 10763 10752 10751 10750 ] final -110.95 input  -60.55 | X-H torsion
[ 11005 11000 10999 10996 ] final   82.55 input  -57.11 | X-H torsion

> <Gold.Protein.ActiveResidues>
 VAL166  LYS551  ARG553  GLY616  TRP617  ASP618  TYR619  PRO620  LYS621  CYS622 
 ASP623  PHE694  ASN695  SER759  ASP760  ASP761  ALA762  ILE779  LEU786  VAL792 
 PHE793  MET794  SER795  GLU796  ALA797  LYS798  CYS799  TRP800  GLU811  SER814 

> <Gold.Protein.RotatedAtoms>
  150.6903  134.3724  159.4997 H   0  0  0  0  0  0  0  0  0  0  0  0  # atno 6907 bound_to 6896
  152.1538  134.8964  160.0555 H   0  0  0  0  0  0  0  0  0  0  0  0  # atno 6908 bound_to 6896
  152.0052  133.3805  159.4234 H   0  0  0  0  0  0  0  0  0  0  0  0  # atno 6909 bound_to 6896
  144.9630  140.7466  143.4717 H   0  0  0  0  0  0  0  0  0  0  0  0  # atno 7974 bound_to 7965
  155.4912  140.0568  157.2953 H   0  0  0  0  0  0  0  0  0  0  0  0  # atno 8008 bound_to 7997
  154.4622  140.2002  156.0164 H   0  0  0  0  0  0  0  0  0  0  0  0  # atno 8009 bound_to 7997
  156.0911  140.3233  155.7821 H   0  0  0  0  0  0  0  0  0  0  0  0  # atno 8010 bound_to 7997
  140.0803  144.5076  150.7166 H   0  0  0  0  0  0  0  0  0  0  0  0  # atno 10167 bound_to 10162
  157.5707  130.8905  149.9261 H   0  0  0  0  0  0  0  0  0  0  0  0  # atno 10718 bound_to 10713
  154.8275  135.4545  154.0964 H   0  0  0  0  0  0  0  0  0  0  0  0  # atno 10763 bound_to 10752
  153.2266  135.6900  153.7945 H   0  0  0  0  0  0  0  0  0  0  0  0  # atno 10764 bound_to 10752
  153.7343  135.3322  155.3268 H   0  0  0  0  0  0  0  0  0  0  0  0  # atno 10765 bound_to 10752
  139.9060  134.8079  156.2190 H   0  0  0  0  0  0  0  0  0  0  0  0  # atno 11005 bound_to 11000
  145.2672  139.1969  143.4861 LP  0  0  0  0  0  0  0  0  0  0  0  0  # atno 17320 bound_to 7965
  146.3359  140.2612  142.8602 LP  0  0  0  0  0  0  0  0  0  0  0  0  # atno 17321 bound_to 7965
  140.7081  143.2483  151.4665 LP  0  0  0  0  0  0  0  0  0  0  0  0  # atno 17342 bound_to 10162
  139.5783  144.1767  152.1934 LP  0  0  0  0  0  0  0  0  0  0  0  0  # atno 17343 bound_to 10162
  156.0752  130.3680  150.0692 LP  0  0  0  0  0  0  0  0  0  0  0  0  # atno 17370 bound_to 10713
  156.8845  130.9568  151.3595 LP  0  0  0  0  0  0  0  0  0  0  0  0  # atno 17371 bound_to 10713
  141.0418  133.6934  156.1611 LP  0  0  0  0  0  0  0  0  0  0  0  0  # atno 17394 bound_to 11000
  140.6944  134.4631  157.5588 LP  0  0  0  0  0  0  0  0  0  0  0  0  # atno 17395 bound_to 11000

$$$$
