AV-unprocessed.smi:1534|AV-procd|sdf|6169|dock6
  -GOLD-   22720 6313D 1   1.00000     0.00000
 Structure written by MMmdl.
 37 38  0  0  0  0  0  0  0  0  2 V2000
  147.1377  138.0534  155.3935 O   0  0  0  0  0  0  0  0  0  0  0  0
  147.6825  137.4926  154.4454 C   0  0  0  0  0  0  0  0  0  0  0  0
  147.0047  136.8979  153.4499 N   0  0  0  0  0  0  0  0  0  0  0  0
  145.5550  136.7418  153.3959 C   0  0  0  0  0  0  0  0  0  0  0  0
  145.0392  136.4537  151.9711 C   0  0  0  0  0  0  0  0  0  0  0  0
  145.2475  135.0153  151.5261 C   0  0  0  0  0  0  0  0  0  0  0  0
  144.1713  134.1871  151.1401 C   0  0  0  0  0  0  0  0  0  0  0  0
  144.4348  132.8686  150.7136 C   0  0  0  0  0  0  0  0  0  0  0  0
  145.7670  132.4069  150.6791 C   0  0  0  0  0  0  0  0  0  0  0  0
  146.8040  133.2756  151.0759 C   0  0  0  0  0  0  0  0  0  0  0  0
  146.5105  134.5306  151.4806 N   0  3  0  0  0  0  0  0  0  0  0  0
  149.0207  137.4258  154.3306 N   0  0  0  0  0  0  0  0  0  0  0  0
  150.0281  137.9707  155.2419 C   0  0  1  0  0  0  0  0  0  0  0  0
  151.0025  136.8896  155.7532 C   0  0  0  0  0  0  0  0  0  0  0  0
  152.2311  137.5747  156.3690 C   0  0  0  0  0  0  0  0  0  0  0  0
  152.3804  139.2095  155.5498 S   0  0  0  0  0  0  0  0  0  0  0  0
  152.1810  140.2614  156.5584 O   0  0  0  0  0  0  0  0  0  0  0  0
  153.5531  139.2207  154.6626 O   0  0  0  0  0  0  0  0  0  0  0  0
  150.8605  139.0513  154.5435 C   0  0  0  0  0  0  0  0  0  0  0  0
  147.5346  136.4840  152.6968 H   0  0  0  0  0  0  0  0  0  0  0  0
  145.2300  135.9601  154.0845 H   0  0  0  0  0  0  0  0  0  0  0  0
  145.1153  137.6716  153.7577 H   0  0  0  0  0  0  0  0  0  0  0  0
  143.9749  136.6872  151.9123 H   0  0  0  0  0  0  0  0  0  0  0  0
  145.5312  137.1205  151.2622 H   0  0  0  0  0  0  0  0  0  0  0  0
  143.1564  134.5570  151.1661 H   0  0  0  0  0  0  0  0  0  0  0  0
  143.6246  132.2199  150.4136 H   0  0  0  0  0  0  0  0  0  0  0  0
  145.9898  131.4013  150.3531 H   0  0  0  0  0  0  0  0  0  0  0  0
  147.8504  133.0075  151.0809 H   0  0  0  0  0  0  0  0  0  0  0  0
  149.3768  137.0103  153.4815 H   0  0  0  0  0  0  0  0  0  0  0  0
  149.5449  138.4411  156.1007 H   0  0  0  0  0  0  0  0  0  0  0  0
  150.5271  136.2143  156.4653 H   0  0  0  0  0  0  0  0  0  0  0  0
  151.3312  136.2790  154.9109 H   0  0  0  0  0  0  0  0  0  0  0  0
  152.0901  137.7454  157.4364 H   0  0  0  0  0  0  0  0  0  0  0  0
  153.1467  136.9999  156.2280 H   0  0  0  0  0  0  0  0  0  0  0  0
  151.1566  138.7376  153.5417 H   0  0  0  0  0  0  0  0  0  0  0  0
  150.3524  140.0132  154.4740 H   0  0  0  0  0  0  0  0  0  0  0  0
  147.2763  135.1437  151.7619 H   0  0  0  0  0  0  0  0  0  0  0  0
  1  2  2  0  0  0  0
  2  3  1  0  0  0  0
  2 12  1  0  0  0  0
  3  4  1  0  0  0  0
  3 20  1  0  0  0  0
  4  5  1  0  0  0  0
  4 21  1  0  0  0  0
  4 22  1  0  0  0  0
  5  6  1  0  0  0  0
  5 23  1  0  0  0  0
  5 24  1  0  0  0  0
  6 11  1  0  0  0  0
  6  7  2  0  0  0  0
  7  8  1  0  0  0  0
  7 25  1  0  0  0  0
  8  9  2  0  0  0  0
  8 26  1  0  0  0  0
  9 10  1  0  0  0  0
  9 27  1  0  0  0  0
 10 11  2  0  0  0  0
 10 28  1  0  0  0  0
 11 37  1  0  0  0  0
 12 13  1  0  0  0  0
 12 29  1  0  0  0  0
 13 19  1  0  0  0  0
 13 14  1  0  0  0  0
 13 30  1  0  0  0  0
 14 15  1  0  0  0  0
 14 31  1  0  0  0  0
 14 32  1  0  0  0  0
 15 16  1  0  0  0  0
 15 33  1  0  0  0  0
 15 34  1  0  0  0  0
 16 17  2  0  0  0  0
 16 18  2  0  0  0  0
 16 19  1  0  0  0  0
 19 35  1  0  0  0  0
 19 36  1  0  0  0  0
M  CHG  1  11   1
M  END
> <s_m_source_file>
AV-unprocessed.smi

> <i_m_source_file_index>
1534

> <i_lp_mmshare_version>
43012

> <i_f3d_flags>
0

> <s_epik_input>
Tz1TMSg9TylbQ0gyXVtDSDJdW0NASF0oW0NIMl0xKVtOSF1DKD1PKVtOSF1bQ0gyXVtDSDJdYzJbY0hdW2NIXVtjSF1bY0hdbjI=

> <s_epik_cmdline>
J2VwaWtfcHl0aG9uJywgJy1waCcsICc3LjAnLCAnLXRuJywgJzgnLCAnLW1hJywgJzIwMCcsICctbWV0YWxfYmluZGluZycsICctaW1hZScsICc8aW5maWxlLm1hZT4nLCAnLW9tYWUnLCAnPG91dGZpbGUubWFlPic=

> <r_epik_Ionization_Penalty>
1.58466

> <r_epik_Ionization_Penalty_Charging>
1.58462

> <r_epik_Ionization_Penalty_Neutral>
3.4911e-05

> <r_epik_State_Penalty>
1.6815

> <r_epik_Charging_Adjusted_Penalty>
3.26612

> <i_epik_Tot_Q>
1

> <i_epik_Tot_abs_Q>
1

> <r_epik_Metal_State_Penalty>
1.72144

> <b_epik_Metal_Only>
0

> <s_lp_Force_Field>
OPLS_2005

> <r_lp_Energy>
19.4727

> <b_lp_Chiralities_Consistent>
1

> <s_lp_Variant>
AV-unprocessed.smi:1534-4

> <Gold.Version>
5.8.1

> <Gold.Id.Protein>
6NUR|6NUR_protein|mol2

> <Gold.PLP.Fitness>
44.2663

> <Gold.PLP.PLP>
-29.8099

> <Gold.PLP.part.hbond>
-4.8201

> <Gold.PLP.part.metal>
0.0000

> <Gold.PLP.part.buried>
-4.0472

> <Gold.PLP.part.nonpolar>
-20.9429

> <Gold.PLP.part.repulsive>
0.1150

> <Gold.PLP.ligand.clash>
0.0000

> <Gold.PLP.ligand.torsion>
0.2195

> <Gold.PLP.Chemscore.Hbond>
4.9600

> <Gold.PLP.Chemscore.CHOScore>
0.0000

> <Gold.PLP.Chemscore.Metal>
0.0000

> <Gold.Chemscore.Hbonds>
donor molecule, donor type, donor heavy atom, donor atom, acceptor molecule, acceptor atom, score
      L1  H     3    20       P1  7948  1.00
      L1  H    11    37       P1  7948  2.00
      L1  H    12    29       P1  7948  0.96
      P1  H  7997  8008       L1    18  1.00

> <Gold.PLP.Chemscore.Internal.Correction>
0.0154

> <Gold.Rescore>
     Score         DG    S(hbond)    S(metal)    S(lipo)     H(rot)  DE(clash)    DE(int)     intcor
     20.65     -20.93       3.75        0.00      64.97       1.82       0.00       0.28       ----

> <Gold.Chemscore.Fitness>
20.6492

> <Gold.Chemscore.DG>
-20.9263

> <Gold.Chemscore.ZeroCoef>
-5.4800

> <Gold.Chemscore.Hbond>
3.7453

> <Gold.Chemscore.Metal>
0.0000

> <Gold.Chemscore.Lipo>
64.9668

> <Gold.Chemscore.Internal_Hbond>
0.0000

> <Gold.Chemscore.DEClash>
0.0000

> <Gold.Chemscore.DEInternal>
0.2771

> <Gold.Chemscore.Rot>
1.8220

> <Gold.Chemscore.Internal.Correction>
   9.000000E+99

> <Gold.Chemscore.Hbonds>
donor molecule, donor type, donor heavy atom, donor atom, acceptor molecule, acceptor atom, score
      L1  H     3    20       P1  7948  0.97
      L1  H    11    37       P1  7948  0.93
      L1  H    12    29       P1  7948  0.87
      P1  H  7997  8008       L1    18  0.30

> <Gold.Chemscore.Hbond.Weighted>
-12.5094

> <Gold.Chemscore.Metal.Weighted>
-0.0000

> <Gold.Chemscore.Lipo.Weighted>
-7.6011

> <Gold.Chemscore.Internal_Hbond.Weighted>
0.0000

> <Gold.Chemscore.DEClash.Weighted>
0.0000

> <Gold.Chemscore.DEInternal.Weighted>
0.2771

> <Gold.Chemscore.Rot.Weighted>
4.6642

> <Gold.Chemscore.Internal.Correction.Weighted>
   9.000000E+99

> <Gold.Protein.RotatedTorsions>
[ 6907 6896 6895 6894 ] final   18.98 input  -60.11 | X-H torsion
[ 7974 7965 7964 7962 ] final   18.08 input  175.53 | X-H torsion
[ 8008 7997 7996 7995 ] final    5.75 input   59.86 | X-H torsion
[ 10167 10162 10161 10158 ] final   15.84 input  -65.29 | X-H torsion
[ 10718 10713 10712 10709 ] final   95.77 input   66.30 | X-H torsion
[ 10763 10752 10751 10750 ] final   51.78 input  -60.55 | X-H torsion
[ 11005 11000 10999 10996 ] final -154.14 input  -57.11 | X-H torsion

> <Gold.Protein.ActiveResidues>
 VAL166  LYS551  ARG553  GLY616  TRP617  ASP618  TYR619  PRO620  LYS621  CYS622 
 ASP623  PHE694  ASN695  SER759  ASP760  ASP761  ALA762  ILE779  LEU786  VAL792 
 PHE793  MET794  SER795  GLU796  ALA797  LYS798  CYS799  TRP800  GLU811  SER814 

> <Gold.Protein.RotatedAtoms>
  151.8737  135.0480  160.0481 H   0  0  0  0  0  0  0  0  0  0  0  0  # atno 6907 bound_to 6896
  152.2568  133.5258  159.5366 H   0  0  0  0  0  0  0  0  0  0  0  0  # atno 6908 bound_to 6896
  150.7102  134.0801  159.3937 H   0  0  0  0  0  0  0  0  0  0  0  0  # atno 6909 bound_to 6896
  146.2197  139.8508  142.8623 H   0  0  0  0  0  0  0  0  0  0  0  0  # atno 7974 bound_to 7965
  154.7323  140.2733  155.6445 H   0  0  0  0  0  0  0  0  0  0  0  0  # atno 8008 bound_to 7997
  156.2853  140.2713  156.1952 H   0  0  0  0  0  0  0  0  0  0  0  0  # atno 8009 bound_to 7997
  155.0365  140.0371  157.2483 H   0  0  0  0  0  0  0  0  0  0  0  0  # atno 8010 bound_to 7997
  140.5839  143.8927  150.6813 H   0  0  0  0  0  0  0  0  0  0  0  0  # atno 10167 bound_to 10162
  157.6935  131.0556  150.4390 H   0  0  0  0  0  0  0  0  0  0  0  0  # atno 10718 bound_to 10713
  152.9786  135.5834  154.4471 H   0  0  0  0  0  0  0  0  0  0  0  0  # atno 10763 bound_to 10752
  154.4065  135.2769  155.2066 H   0  0  0  0  0  0  0  0  0  0  0  0  # atno 10764 bound_to 10752
  154.3874  135.6133  153.5878 H   0  0  0  0  0  0  0  0  0  0  0  0  # atno 10765 bound_to 10752
  140.7006  134.3942  157.5210 H   0  0  0  0  0  0  0  0  0  0  0  0  # atno 11005 bound_to 11000
  145.2803  141.0136  143.3721 LP  0  0  0  0  0  0  0  0  0  0  0  0  # atno 17320 bound_to 7965
  144.9155  139.4475  143.6566 LP  0  0  0  0  0  0  0  0  0  0  0  0  # atno 17321 bound_to 7965
  140.2433  143.3647  152.1468 LP  0  0  0  0  0  0  0  0  0  0  0  0  # atno 17342 bound_to 10162
  139.5186  144.7008  151.5499 LP  0  0  0  0  0  0  0  0  0  0  0  0  # atno 17343 bound_to 10162
  156.4750  130.4061  149.6495 LP  0  0  0  0  0  0  0  0  0  0  0  0  # atno 17370 bound_to 10713
  156.3561  130.7457  151.2423 LP  0  0  0  0  0  0  0  0  0  0  0  0  # atno 17371 bound_to 10713
  139.8898  134.8821  156.2403 LP  0  0  0  0  0  0  0  0  0  0  0  0  # atno 17394 bound_to 11000
  141.0167  133.7064  156.1200 LP  0  0  0  0  0  0  0  0  0  0  0  0  # atno 17395 bound_to 11000

$$$$
