AV-unprocessed.smi:283|AV-procd|sdf|2128|dock6
  -GOLD-   2262021433D 1   1.00000     0.00000
 Structure written by MMmdl.
 48 51  0  0  0  0  0  0  0  0  1 V2000
  149.2822  135.6636  158.5031 C   0  0  0  0  0  0  0  0  0  0  0  0
  148.0702  134.7821  158.8332 C   0  0  1  0  0  0  0  0  0  0  0  0
  148.2981  133.4274  158.3353 N   0  0  0  0  0  0  0  0  0  0  0  0
  148.4300  133.1734  157.0143 C   0  0  0  0  0  0  0  0  0  0  0  0
  149.7036  133.1084  156.5610 N   0  0  0  0  0  0  0  0  0  0  0  0
  149.9429  132.8450  155.2750 C   0  0  0  0  0  0  0  0  0  0  0  0
  149.0677  132.6193  154.2955 N   0  0  0  0  0  0  0  0  0  0  0  0
  147.7773  132.6868  154.7349 C   0  0  0  0  0  0  0  0  0  0  0  0
  147.3763  132.9717  156.0736 C   0  0  0  0  0  0  0  0  0  0  0  0
  145.9896  132.9940  156.1426 N   0  0  0  0  0  0  0  0  0  0  0  0
  145.6013  132.7173  154.9301 C   0  0  0  0  0  0  0  0  0  0  0  0
  146.6079  132.4975  154.0169 N   0  0  0  0  0  0  0  0  0  0  0  0
  146.4256  132.1524  152.5619 C   0  0  1  0  0  0  0  0  0  0  0  0
  145.1412  131.6473  152.3484 O   0  0  0  0  0  0  0  0  0  0  0  0
  144.3174  132.6057  151.6785 C   0  0  2  0  0  0  0  0  0  0  0  0
  143.7803  131.9742  150.3798 C   0  0  0  0  0  0  0  0  0  0  0  0
  142.9830  132.8722  149.6347 O   0  0  0  0  0  0  0  0  0  0  0  0
  145.1531  133.8847  151.4967 C   0  0  1  0  0  0  0  0  0  0  0  0
  144.8045  134.8283  152.4943 O   0  0  0  0  0  0  0  0  0  0  0  0
  146.5830  133.3798  151.6469 C   0  0  1  0  0  0  0  0  0  0  0  0
  147.4881  134.3744  152.0967 O   0  0  0  0  0  0  0  0  0  0  0  0
  147.7365  134.8736  160.3254 C   0  0  0  0  0  0  0  0  0  0  0  0
  148.2581  135.9334  161.1041 C   0  0  0  0  0  0  0  0  0  0  0  0
  147.9657  136.0277  162.4776 C   0  0  0  0  0  0  0  0  0  0  0  0
  147.1400  135.0667  163.0875 C   0  0  0  0  0  0  0  0  0  0  0  0
  146.6028  134.0168  162.3205 C   0  0  0  0  0  0  0  0  0  0  0  0
  146.8920  133.9176  160.9448 C   0  0  0  0  0  0  0  0  0  0  0  0
  146.1920  132.6138  160.0501 Cl  0  0  0  0  0  0  0  0  0  0  0  0
  147.1777  131.3828  152.3844 H   0  0  0  0  0  0  0  0  0  0  0  0
  143.4517  132.8047  152.3116 H   0  0  0  0  0  0  0  0  0  0  0  0
  144.9930  134.3568  150.5268 H   0  0  0  0  0  0  0  0  0  0  0  0
  146.9308  133.0127  150.6807 H   0  0  0  0  0  0  0  0  0  0  0  0
  149.1006  136.7017  158.7831 H   0  0  0  0  0  0  0  0  0  0  0  0
  149.5017  135.6460  157.4352 H   0  0  0  0  0  0  0  0  0  0  0  0
  150.1741  135.3273  159.0330 H   0  0  0  0  0  0  0  0  0  0  0  0
  147.2320  135.1734  158.2591 H   0  0  0  0  0  0  0  0  0  0  0  0
  148.0892  132.6948  158.9978 H   0  0  0  0  0  0  0  0  0  0  0  0
  150.9838  132.8045  154.9900 H   0  0  0  0  0  0  0  0  0  0  0  0
  144.5555  132.6544  154.6671 H   0  0  0  0  0  0  0  0  0  0  0  0
  144.6021  131.6145  149.7600 H   0  0  0  0  0  0  0  0  0  0  0  0
  143.1638  131.1083  150.6228 H   0  0  0  0  0  0  0  0  0  0  0  0
  142.1171  132.5030  149.5486 H   0  0  0  0  0  0  0  0  0  0  0  0
  144.6976  134.3683  153.3130 H   0  0  0  0  0  0  0  0  0  0  0  0
  148.3616  134.1241  151.8385 H   0  0  0  0  0  0  0  0  0  0  0  0
  148.8924  136.6819  160.6525 H   0  0  0  0  0  0  0  0  0  0  0  0
  148.3745  136.8384  163.0625 H   0  0  0  0  0  0  0  0  0  0  0  0
  146.9146  135.1370  164.1415 H   0  0  0  0  0  0  0  0  0  0  0  0
  145.9634  133.2843  162.7908 H   0  0  0  0  0  0  0  0  0  0  0  0
  1  2  1  0  0  0  0
  1 33  1  0  0  0  0
  1 34  1  0  0  0  0
  1 35  1  0  0  0  0
  2  3  1  0  0  0  0
  2 22  1  0  0  0  0
  2 36  1  0  0  0  0
  3  4  1  0  0  0  0
  3 37  1  0  0  0  0
  4  9  1  0  0  0  0
  4  5  2  0  0  0  0
  5  6  1  0  0  0  0
  6  7  2  0  0  0  0
  6 38  1  0  0  0  0
  7  8  1  0  0  0  0
  8 12  1  0  0  0  0
  8  9  2  0  0  0  0
  9 10  1  0  0  0  0
 10 11  2  0  0  0  0
 11 12  1  0  0  0  0
 11 39  1  0  0  0  0
 12 13  1  0  0  0  0
 13 29  1  0  0  0  0
 13 20  1  0  0  0  0
 13 14  1  0  0  0  0
 14 15  1  0  0  0  0
 15 30  1  0  0  0  0
 15 16  1  0  0  0  0
 15 18  1  0  0  0  0
 16 17  1  0  0  0  0
 16 40  1  0  0  0  0
 16 41  1  0  0  0  0
 17 42  1  0  0  0  0
 18 31  1  0  0  0  0
 18 19  1  0  0  0  0
 18 20  1  0  0  0  0
 19 43  1  0  0  0  0
 20 32  1  0  0  0  0
 20 21  1  0  0  0  0
 21 44  1  0  0  0  0
 22 27  1  0  0  0  0
 22 23  2  0  0  0  0
 23 24  1  0  0  0  0
 23 45  1  0  0  0  0
 24 25  2  0  0  0  0
 24 46  1  0  0  0  0
 25 26  1  0  0  0  0
 25 47  1  0  0  0  0
 26 27  2  0  0  0  0
 26 48  1  0  0  0  0
 27 28  1  0  0  0  0
M  END
> <s_m_source_file>
AV-unprocessed.smi

> <i_m_source_file_index>
283

> <i_lp_mmshare_version>
43012

> <i_f3d_flags>
0

> <s_epik_input>
Q2xjMVtjSF1bY0hdW2NIXVtjSF1jMVtDQEhdKFtDSDNdKVtOSF1jKG5bY0hdbjIpYyhjMjMpbltjSF1uM1tDQEBIXTRPW0NASF0oW0NIMl1bT0hdKVtDQEBIXShbT0hdKVtDQEhdNFtPSF0=

> <s_epik_cmdline>
J2VwaWtfcHl0aG9uJywgJy1waCcsICc3LjAnLCAnLXRuJywgJzgnLCAnLW1hJywgJzIwMCcsICctbWV0YWxfYmluZGluZycsICctaW1hZScsICc8aW5maWxlLm1hZT4nLCAnLW9tYWUnLCAnPG91dGZpbGUubWFlPic=

> <r_lp_tautomer_probability>
1

> <r_epik_Ionization_Penalty>
0.000266407

> <r_epik_Ionization_Penalty_Charging>
0

> <r_epik_Ionization_Penalty_Neutral>
0.000266407

> <r_epik_State_Penalty>
-0

> <r_epik_Charging_Adjusted_Penalty>
0

> <i_epik_Tot_Q>
0

> <i_epik_Tot_abs_Q>
0

> <r_epik_Metal_State_Penalty>
-0

> <b_epik_Metal_Only>
0

> <s_epik_Chemistry_Notes>
This compound contains an acetal/aminal-like group ( X-CH(R)-Y where X, Y are N, S, or O) that may be acid/base labile, releasing an aldehyde.

> <s_lp_Force_Field>
OPLS_2005

> <r_lp_Energy>
53.7739

> <b_lp_Chiralities_Consistent>
1

> <s_lp_Variant>
AV-unprocessed.smi:283-4

> <Gold.Version>
5.8.1

> <Gold.Id.Protein>
6NUR|6NUR_protein|mol2

> <Gold.PLP.Fitness>
47.1937

> <Gold.PLP.PLP>
-41.6867

> <Gold.PLP.part.hbond>
-2.4867

> <Gold.PLP.part.metal>
0.0000

> <Gold.PLP.part.buried>
-8.0378

> <Gold.PLP.part.nonpolar>
-33.0593

> <Gold.PLP.part.repulsive>
1.5901

> <Gold.PLP.ligand.clash>
0.0000

> <Gold.PLP.ligand.torsion>
1.8551

> <Gold.PLP.Chemscore.Hbond>
1.9440

> <Gold.PLP.Chemscore.CHOScore>
1.0000

> <Gold.PLP.Chemscore.Metal>
0.0000

> <Gold.Chemscore.Hbonds>
donor molecule, donor type, donor heavy atom, donor atom, acceptor molecule, acceptor atom, score
      L1  C    11    39       P1 10957  1.00

> <Gold.PLP.Chemscore.Internal.Correction>
0.3851

> <Gold.Rescore>
     Score         DG    S(hbond)    S(metal)    S(lipo)     H(rot)  DE(clash)    DE(int)     intcor
      9.87     -11.28       1.90        0.00      84.94       4.10       0.01       1.40       ----

> <Gold.Chemscore.Fitness>
9.8651

> <Gold.Chemscore.DG>
-11.2788

> <Gold.Chemscore.ZeroCoef>
-5.4800

> <Gold.Chemscore.Hbond>
1.9009

> <Gold.Chemscore.Metal>
0.0000

> <Gold.Chemscore.Lipo>
84.9369

> <Gold.Chemscore.Internal_Hbond>
0.0000

> <Gold.Chemscore.DEClash>
0.0098

> <Gold.Chemscore.DEInternal>
1.4040

> <Gold.Chemscore.Rot>
4.0968

> <Gold.Chemscore.Internal.Correction>
   9.000000E+99

> <Gold.Chemscore.Hbonds>
donor molecule, donor type, donor heavy atom, donor atom, acceptor molecule, acceptor atom, score
      L1  H    17    42       P1 10186  0.02

> <Gold.Chemscore.Hbond.Weighted>
-6.3492

> <Gold.Chemscore.Metal.Weighted>
-0.0000

> <Gold.Chemscore.Lipo.Weighted>
-9.9376

> <Gold.Chemscore.Internal_Hbond.Weighted>
0.0000

> <Gold.Chemscore.DEClash.Weighted>
0.0098

> <Gold.Chemscore.DEInternal.Weighted>
1.4040

> <Gold.Chemscore.Rot.Weighted>
10.4879

> <Gold.Chemscore.Internal.Correction.Weighted>
   9.000000E+99

> <Gold.Protein.RotatedTorsions>
[ 6907 6896 6895 6894 ] final  178.39 input  -60.11 | X-H torsion
[ 7974 7965 7964 7962 ] final   43.09 input  175.53 | X-H torsion
[ 8008 7997 7996 7995 ] final  -25.36 input   59.86 | X-H torsion
[ 10167 10162 10161 10158 ] final  -19.50 input  -65.29 | X-H torsion
[ 10718 10713 10712 10709 ] final   14.06 input   66.30 | X-H torsion
[ 10763 10752 10751 10750 ] final  -49.53 input  -60.55 | X-H torsion
[ 11005 11000 10999 10996 ] final  -88.57 input  -57.11 | X-H torsion

> <Gold.Protein.ActiveResidues>
 VAL166  LYS551  ARG553  GLY616  TRP617  ASP618  TYR619  PRO620  LYS621  CYS622 
 ASP623  PHE694  ASN695  SER759  ASP760  ASP761  ALA762  ILE779  LEU786  VAL792 
 PHE793  MET794  SER795  GLU796  ALA797  LYS798  CYS799  TRP800  GLU811  SER814 

> <Gold.Protein.RotatedAtoms>
  151.6887  133.3311  159.3237 H   0  0  0  0  0  0  0  0  0  0  0  0  # atno 6907 bound_to 6896
  150.7789  134.6718  159.6405 H   0  0  0  0  0  0  0  0  0  0  0  0  # atno 6908 bound_to 6896
  152.3840  134.6549  160.0184 H   0  0  0  0  0  0  0  0  0  0  0  0  # atno 6909 bound_to 6896
  146.0685  139.5226  142.9613 H   0  0  0  0  0  0  0  0  0  0  0  0  # atno 7974 bound_to 7965
  154.4480  140.1929  156.0607 H   0  0  0  0  0  0  0  0  0  0  0  0  # atno 8008 bound_to 7997
  156.0585  140.3299  155.7407 H   0  0  0  0  0  0  0  0  0  0  0  0  # atno 8009 bound_to 7997
  155.5448  140.0589  157.2853 H   0  0  0  0  0  0  0  0  0  0  0  0  # atno 8010 bound_to 7997
  140.7269  143.4812  151.0115 H   0  0  0  0  0  0  0  0  0  0  0  0  # atno 10167 bound_to 10162
  157.0337  130.6203  149.5739 H   0  0  0  0  0  0  0  0  0  0  0  0  # atno 10718 bound_to 10713
  154.0956  135.6571  153.4859 H   0  0  0  0  0  0  0  0  0  0  0  0  # atno 10763 bound_to 10752
  153.0306  135.5213  154.7337 H   0  0  0  0  0  0  0  0  0  0  0  0  # atno 10764 bound_to 10752
  154.6474  135.2996  154.9998 H   0  0  0  0  0  0  0  0  0  0  0  0  # atno 10765 bound_to 10752
  141.1599  133.7578  156.9471 H   0  0  0  0  0  0  0  0  0  0  0  0  # atno 11005 bound_to 11000
  145.6433  141.0279  143.1800 LP  0  0  0  0  0  0  0  0  0  0  0  0  # atno 17320 bound_to 7965
  144.7217  139.8008  143.7379 LP  0  0  0  0  0  0  0  0  0  0  0  0  # atno 17321 bound_to 7965
  139.8511  143.7437  152.3178 LP  0  0  0  0  0  0  0  0  0  0  0  0  # atno 17342 bound_to 10162
  139.7619  144.7504  151.0351 LP  0  0  0  0  0  0  0  0  0  0  0  0  # atno 17343 bound_to 10162
  156.0061  130.5148  150.7834 LP  0  0  0  0  0  0  0  0  0  0  0  0  # atno 17370 bound_to 10713
  157.5158  131.0928  151.0141 LP  0  0  0  0  0  0  0  0  0  0  0  0  # atno 17371 bound_to 10713
  140.1282  134.9373  157.2300 LP  0  0  0  0  0  0  0  0  0  0  0  0  # atno 17394 bound_to 11000
  140.2986  134.3158  155.7296 LP  0  0  0  0  0  0  0  0  0  0  0  0  # atno 17395 bound_to 11000

$$$$
