#       Name:                AV-unprocessed.smi:247
#       Creating user name   scv26
#       Creation time:       Thu Mar 26 20:55:48 2020


#       File generated by GOLD software.
#

@<TRIPOS>MOLECULE
AV-unprocessed.smi:247
    73    77     1
SMALL
NO_CHARGES


@<TRIPOS>ATOM
      1 ****        -3.8748   2.7164  -0.8424 O.3            1 S1                 0.0000
      2 ****        -3.4028   1.3951  -0.6647 C.3            1 S1                 0.0000
      3 ****        -3.9194   0.7229   0.6381 C.3            1 S1                 0.0000
      4 ****        -3.4191  -0.7564   0.6665 C.3            1 S1                 0.0000
      5 ****        -1.9720  -0.9195   0.6635 N.pl3          1 S1                 0.0000
      6 ****        -1.1439  -0.9597   1.7631 C.2            1 S1                 0.0000
      7 ****         0.1248  -1.1144   1.5012 N.2            1 S1                 0.0000
      8 ****         0.1744  -1.2128   0.1165 C.ar           1 S1                 0.0000
      9 ****         1.2273  -1.3764  -0.8256 C.ar           1 S1                 0.0000
     10 ****         2.5241  -1.4738  -0.4416 N.3            1 S1                 0.0000
     11 ****         2.8141  -2.6761   0.3260 C.3            1 S1                 0.0000
     12 ****         4.3293  -2.8220   0.3009 C.3            1 S1                 0.0000
     13 ****         4.7065  -2.2480  -1.0621 C.3            1 S1                 0.0000
     14 ****         3.6228  -1.1958  -1.3762 C.3            1 S1                 0.0000
     15 ****         4.1629   0.2702  -1.3162 C.3            1 S1                 0.0000
     16 ****         4.5704   0.7411   0.0988 C.3            1 S1                 0.0000
     17 ****         3.4228   1.0879   0.8677 O.3            1 S1                 0.0000
     18 ****         2.7263   2.2116   0.3401 C.3            1 S1                 0.0000
     19 ****         2.1832   1.8969  -1.0623 C.3            1 S1                 0.0000
     20 ****         3.3022   1.3760  -1.9786 C.3            1 S1                 0.0000
     21 ****         2.7835   0.9789  -3.2316 O.3            1 S1                 0.0000
     22 ****         0.8882  -1.4262  -2.1406 N.ar           1 S1                 0.0000
     23 ****        -0.3902  -1.3171  -2.5126 C.ar           1 S1                 0.0000
     24 ****        -1.4706  -1.1537  -1.7469 N.ar           1 S1                 0.0000
     25 ****        -1.1366  -1.1014  -0.4256 C.ar           1 S1                 0.0000
     26 ****        -3.4309   1.5260   1.8716 C.3            1 S1                 0.0000
     27 ****        -4.0928   1.0520   3.1775 C.3            1 S1                 0.0000
     28 ****        -5.5075   1.1471   3.0630 O.3            1 S1                 0.0000
     29 ****        -6.0417   0.3180   2.0377 C.3            1 S1                 0.0000
     30 ****        -5.4700   0.7302   0.6672 C.3            1 S1                 0.0000
     31 ****        -3.5222   3.0546  -1.6514 H              1 S1                 0.0000
     32 ****        -3.7009   0.8116  -1.5365 H              1 S1                 0.0000
     33 ****        -2.3139   1.4412  -0.6715 H              1 S1                 0.0000
     34 ****        -3.7984  -1.2891   1.5369 H              1 S1                 0.0000
     35 ****        -3.8168  -1.2954  -0.1944 H              1 S1                 0.0000
     36 ****        -1.5111  -0.8601   2.7740 H              1 S1                 0.0000
     37 ****         2.4438  -2.6013   1.3485 H              1 S1                 0.0000
     38 ****         2.3416  -3.5394  -0.1457 H              1 S1                 0.0000
     39 ****         4.7722  -2.2266   1.0994 H              1 S1                 0.0000
     40 ****         4.6555  -3.8537   0.4339 H              1 S1                 0.0000
     41 ****         5.7227  -1.8531  -1.0802 H              1 S1                 0.0000
     42 ****         4.6584  -3.0434  -1.8073 H              1 S1                 0.0000
     43 ****         3.3158  -1.3922  -2.4026 H              1 S1                 0.0000
     44 ****         5.0814   0.2445  -1.9044 H              1 S1                 0.0000
     45 ****         5.1364  -0.0259   0.6236 H              1 S1                 0.0000
     46 ****         5.2324   1.6059   0.0324 H              1 S1                 0.0000
     47 ****         1.9038   2.4623   1.0103 H              1 S1                 0.0000
     48 ****         3.3875   3.0791   0.3129 H              1 S1                 0.0000
     49 ****         1.3722   1.1794  -0.9852 H              1 S1                 0.0000
     50 ****         1.7382   2.7943  -1.4931 H              1 S1                 0.0000
     51 ****         3.9624   2.2210  -2.1798 H              1 S1                 0.0000
     52 ****         3.5038   0.7330  -3.7916 H              1 S1                 0.0000
     53 ****        -0.5720  -1.3634  -3.5761 H              1 S1                 0.0000
     54 ****        -2.3457   1.4919   1.9615 H              1 S1                 0.0000
     55 ****        -3.6771   2.5808   1.7465 H              1 S1                 0.0000
     56 ****        -3.8017   0.0325   3.4313 H              1 S1                 0.0000
     57 ****        -3.7693   1.6826   4.0057 H              1 S1                 0.0000
     58 ****        -5.8449  -0.7305   2.2611 H              1 S1                 0.0000
     59 ****        -7.1257   0.4319   2.0327 H              1 S1                 0.0000
     60 ****        -5.8468   1.7296   0.4480 H              1 S1                 0.0000
     61 ****        -5.8691   0.0822  -0.1140 H              1 S1                 0.0000
     62 ****        -3.5743   3.2875  -0.0785 LP             1 S1                 0.0000
     63 ****        -4.8740   2.7149  -0.8844 LP             1 S1                 0.0000
     64 ****         0.8862  -1.1532   2.1483 LP             1 S1                 0.0000
     65 ****         2.5374  -0.6524   0.1286 LP             1 S1                 0.0000
     66 ****         3.7150   1.3016   1.7999 LP             1 S1                 0.0000
     67 ****         2.8007   0.3051   0.8847 LP             1 S1                 0.0000
     68 ****         2.2801   1.7383  -3.6439 LP             1 S1                 0.0000
     69 ****         2.1695   0.1989  -3.1102 LP             1 S1                 0.0000
     70 ****         1.5993  -1.5452  -2.8334 LP             1 S1                 0.0000
     71 ****        -2.4045  -1.0792  -2.0966 LP             1 S1                 0.0000
     72 ****        -5.7474   2.0968   2.8616 LP             1 S1                 0.0000
     73 ****        -5.9162   0.8779   3.9351 LP             1 S1                 0.0000
@<TRIPOS>BOND
    1    1    2 1     
    2    1   31 1     
    3    2    3 1     
    4    2   32 1     
    5    2   33 1     
    6    3   30 1     
    7    3    4 1     
    8    3   26 1     
    9    4    5 1     
   10    4   34 1     
   11    4   35 1     
   12    5   25 1     
   13    5    6 1     
   14    6    7 2     
   15    6   36 1     
   16    7    8 1     
   17    8   25 ar    
   18    8    9 ar    
   19    9   10 1     
   20    9   22 ar    
   21   10   14 1     
   22   10   11 1     
   23   11   12 1     
   24   11   37 1     
   25   11   38 1     
   26   12   13 1     
   27   12   39 1     
   28   12   40 1     
   29   13   14 1     
   30   13   41 1     
   31   13   42 1     
   32   14   15 1     
   33   14   43 1     
   34   15   20 1     
   35   15   16 1     
   36   15   44 1     
   37   16   17 1     
   38   16   45 1     
   39   16   46 1     
   40   17   18 1     
   41   18   19 1     
   42   18   47 1     
   43   18   48 1     
   44   19   20 1     
   45   19   49 1     
   46   19   50 1     
   47   20   21 1     
   48   20   51 1     
   49   21   52 1     
   50   22   23 ar    
   51   23   24 ar    
   52   23   53 1     
   53   24   25 ar    
   54   26   27 1     
   55   26   54 1     
   56   26   55 1     
   57   27   28 1     
   58   27   56 1     
   59   27   57 1     
   60   28   29 1     
   61   29   30 1     
   62   29   58 1     
   63   29   59 1     
   64   30   60 1     
   65   30   61 1     
   66    1   62 1     
   67    1   63 1     
   68    7   64 1     
   69   10   65 1     
   70   17   66 1     
   71   17   67 1     
   72   21   68 1     
   73   21   69 1     
   74   22   70 1     
   75   24   71 1     
   76   28   72 1     
   77   28   73 1     
@<TRIPOS>SUBSTRUCTURE
      1 S1             1
@<TRIPOS>SET
LONE_PAIRS      STATIC     ATOMS    <user>   **** ""
12 62 63 64 65 66 67 68 69 70 71 72 73
DONOR_HYDROGENS      STATIC     ATOMS    <user>   **** ""
2 31 52
ATOM$BLUE        STATIC     ATOMS    COLORGROUP SYSTEM
12 62 63 64 65 66 67 68 69 70 71 72 73
ATOM$RED        STATIC     ATOMS    COLORGROUP SYSTEM
2 31 52
