AV-unprocessed.smi:3204|AV-procd|sdf|12251|dock4
  -GOLD-   2272018 83D 1   1.00000     0.00000
 Structure written by MMmdl.
 30 31  0  0  0  0  0  0  0  0  1 V2000
  153.6518  140.4957  159.8121 C   0  0  0  0  0  0  0  0  0  0  0  0
  152.6034  141.5343  159.3971 C   0  0  0  0  0  0  0  0  0  0  0  0
  151.9555  141.2007  158.0659 C   0  0  0  0  0  0  0  0  0  0  0  0
  152.4851  140.1660  157.3752 N   0  0  0  0  0  0  0  0  0  0  0  0
  151.9193  139.8736  156.2017 C   0  0  0  0  0  0  0  0  0  0  0  0
  150.8833  140.4991  155.6368 N   0  0  0  0  0  0  0  0  0  0  0  0
  150.3439  141.5407  156.3141 C   0  0  0  0  0  0  0  0  0  0  0  0
  149.2560  142.2346  155.7655 N   0  0  0  0  0  0  0  0  0  0  0  0
  148.1198  141.5313  155.1771 C   0  0  1  0  0  0  0  0  0  0  0  0
  147.1412  142.4462  154.4528 C   0  0  0  0  0  0  0  0  0  0  0  0
  146.3563  141.5352  153.6967 O   0  0  0  0  0  0  0  0  0  0  0  0
  147.1670  140.4346  153.2849 C   0  0  0  0  0  0  0  0  0  0  0  0
  148.4744  140.5263  154.0856 C   0  0  1  0  0  0  0  0  0  0  0  0
  149.5028  141.0000  153.2332 O   0  0  0  0  0  0  0  0  0  0  0  0
  150.8609  141.9393  157.5655 C   0  0  0  0  0  0  0  0  0  0  0  0
  150.3321  142.9826  158.2507 F   0  0  0  0  0  0  0  0  0  0  0  0
  154.1005  140.7589  160.7701 H   0  0  0  0  0  0  0  0  0  0  0  0
  154.4530  140.4307  159.0752 H   0  0  0  0  0  0  0  0  0  0  0  0
  153.2076  139.5052  159.9138 H   0  0  0  0  0  0  0  0  0  0  0  0
  151.8283  141.6018  160.1615 H   0  0  0  0  0  0  0  0  0  0  0  0
  153.0637  142.5215  159.3433 H   0  0  0  0  0  0  0  0  0  0  0  0
  152.3434  139.0470  155.6515 H   0  0  0  0  0  0  0  0  0  0  0  0
  149.2766  143.2435  155.7287 H   0  0  0  0  0  0  0  0  0  0  0  0
  147.5707  141.0178  155.9679 H   0  0  0  0  0  0  0  0  0  0  0  0
  146.5280  143.0362  155.1343 H   0  0  0  0  0  0  0  0  0  0  0  0
  147.6586  143.1267  153.7744 H   0  0  0  0  0  0  0  0  0  0  0  0
  146.6346  139.5114  153.5149 H   0  0  0  0  0  0  0  0  0  0  0  0
  147.3312  140.4597  152.2065 H   0  0  0  0  0  0  0  0  0  0  0  0
  148.7718  139.5606  154.4951 H   0  0  0  0  0  0  0  0  0  0  0  0
  149.6676  140.3438  152.5735 H   0  0  0  0  0  0  0  0  0  0  0  0
  1  2  1  0  0  0  0
  1 17  1  0  0  0  0
  1 18  1  0  0  0  0
  1 19  1  0  0  0  0
  2  3  1  0  0  0  0
  2 20  1  0  0  0  0
  2 21  1  0  0  0  0
  3 15  1  0  0  0  0
  3  4  2  0  0  0  0
  4  5  1  0  0  0  0
  5  6  2  0  0  0  0
  5 22  1  0  0  0  0
  6  7  1  0  0  0  0
  7  8  1  0  0  0  0
  7 15  2  0  0  0  0
  8  9  1  0  0  0  0
  8 23  1  0  0  0  0
  9 13  1  0  0  0  0
  9 10  1  0  0  0  0
  9 24  1  0  0  0  0
 10 11  1  0  0  0  0
 10 25  1  0  0  0  0
 10 26  1  0  0  0  0
 11 12  1  0  0  0  0
 12 13  1  0  0  0  0
 12 27  1  0  0  0  0
 12 28  1  0  0  0  0
 13 14  1  0  0  0  0
 13 29  1  0  0  0  0
 14 30  1  0  0  0  0
 15 16  1  0  0  0  0
M  END
> <s_m_source_file>
AV-unprocessed.smi

> <i_m_source_file_index>
3204

> <i_lp_mmshare_version>
43012

> <i_f3d_flags>
0

> <s_epik_input>
W0NIM11bQ0gyXWMxbltjSF1uYyhjMUYpW05IXVtDQEBIXTJbQ0gyXU9bQ0gyXVtDQEhdMltPSF0=

> <s_epik_cmdline>
J2VwaWtfcHl0aG9uJywgJy1waCcsICc3LjAnLCAnLXRuJywgJzgnLCAnLW1hJywgJzIwMCcsICctbWV0YWxfYmluZGluZycsICctaW1hZScsICc8aW5maWxlLm1hZT4nLCAnLW9tYWUnLCAnPG91dGZpbGUubWFlPic=

> <r_lp_tautomer_probability>
1

> <r_epik_Ionization_Penalty>
0.000484964

> <r_epik_Ionization_Penalty_Charging>
0

> <r_epik_Ionization_Penalty_Neutral>
0.000484964

> <r_epik_State_Penalty>
-0

> <r_epik_Charging_Adjusted_Penalty>
0

> <i_epik_Tot_Q>
0

> <i_epik_Tot_abs_Q>
0

> <r_epik_Metal_State_Penalty>
-0

> <b_epik_Metal_Only>
0

> <s_lp_Force_Field>
OPLS_2005

> <r_lp_Energy>
19.2614

> <b_lp_Chiralities_Consistent>
1

> <s_lp_Variant>
AV-unprocessed.smi:3204-2

> <Gold.Version>
5.8.1

> <Gold.Id.Protein>
6NUR|6NUR_protein|mol2

> <Gold.PLP.Fitness>
41.7826

> <Gold.PLP.PLP>
-30.8162

> <Gold.PLP.part.hbond>
-4.6518

> <Gold.PLP.part.metal>
0.0000

> <Gold.PLP.part.buried>
-2.5856

> <Gold.PLP.part.nonpolar>
-24.5897

> <Gold.PLP.part.repulsive>
0.5248

> <Gold.PLP.ligand.clash>
0.0000

> <Gold.PLP.ligand.torsion>
0.4824

> <Gold.PLP.Chemscore.Hbond>
3.9754

> <Gold.PLP.Chemscore.CHOScore>
0.0000

> <Gold.PLP.Chemscore.Metal>
0.0000

> <Gold.Chemscore.Hbonds>
donor molecule, donor type, donor heavy atom, donor atom, acceptor molecule, acceptor atom, score
      L1  H     8    23       P1  8028  0.99
      L1  H    14    30       P1  7957  0.70
      P1  H  7989  7998       L1     6  0.33
      P1  H  7997  8009       L1     4  0.86
      P1  H  8011  8017       L1    14  1.00

> <Gold.PLP.Chemscore.Internal.Correction>
0.0052

> <Gold.Rescore>
     Score         DG    S(hbond)    S(metal)    S(lipo)     H(rot)  DE(clash)    DE(int)     intcor
     14.27     -16.13       2.53        0.00      58.78       1.83       0.05       1.81       ----

> <Gold.Chemscore.Fitness>
14.2707

> <Gold.Chemscore.DG>
-16.1266

> <Gold.Chemscore.ZeroCoef>
-5.4800

> <Gold.Chemscore.Hbond>
2.5340

> <Gold.Chemscore.Metal>
0.0000

> <Gold.Chemscore.Lipo>
58.7792

> <Gold.Chemscore.Internal_Hbond>
0.0000

> <Gold.Chemscore.DEClash>
0.0486

> <Gold.Chemscore.DEInternal>
1.8073

> <Gold.Chemscore.Rot>
1.8337

> <Gold.Chemscore.Internal.Correction>
   9.000000E+99

> <Gold.Chemscore.Hbonds>
donor molecule, donor type, donor heavy atom, donor atom, acceptor molecule, acceptor atom, score
      L1  H     8    23       P1  8028  0.92
      L1  H    14    30       P1  7957  0.68
      P1  H  7989  7998       L1     6  0.11
      P1  H  7997  8009       L1     4  0.24
      P1  H  8011  8017       L1    14  0.25

> <Gold.Chemscore.Hbond.Weighted>
-8.4637

> <Gold.Chemscore.Metal.Weighted>
-0.0000

> <Gold.Chemscore.Lipo.Weighted>
-6.8772

> <Gold.Chemscore.Internal_Hbond.Weighted>
0.0000

> <Gold.Chemscore.DEClash.Weighted>
0.0486

> <Gold.Chemscore.DEInternal.Weighted>
1.8073

> <Gold.Chemscore.Rot.Weighted>
4.6942

> <Gold.Chemscore.Internal.Correction.Weighted>
   9.000000E+99

> <Gold.Protein.RotatedTorsions>
[ 6907 6896 6895 6894 ] final  -91.82 input  -60.11 | X-H torsion
[ 7974 7965 7964 7962 ] final  -62.80 input  175.53 | X-H torsion
[ 8008 7997 7996 7995 ] final  163.40 input   59.86 | X-H torsion
[ 10167 10162 10161 10158 ] final  -99.42 input  -65.29 | X-H torsion
[ 10718 10713 10712 10709 ] final  -53.86 input   66.30 | X-H torsion
[ 10763 10752 10751 10750 ] final   38.51 input  -60.55 | X-H torsion
[ 11005 11000 10999 10996 ] final -124.92 input  -57.11 | X-H torsion

> <Gold.Protein.ActiveResidues>
 VAL166  LYS551  ARG553  GLY616  TRP617  ASP618  TYR619  PRO620  LYS621  CYS622 
 ASP623  PHE694  ASN695  SER759  ASP760  ASP761  ALA762  ILE779  LEU786  VAL792 
 PHE793  MET794  SER795  GLU796  ALA797  LYS798  CYS799  TRP800  GLU811  SER814 

> <Gold.Protein.RotatedAtoms>
  150.6897  134.2217  159.4399 H   0  0  0  0  0  0  0  0  0  0  0  0  # atno 6907 bound_to 6896
  152.0173  134.9840  160.0579 H   0  0  0  0  0  0  0  0  0  0  0  0  # atno 6908 bound_to 6896
  152.1431  133.4441  159.4813 H   0  0  0  0  0  0  0  0  0  0  0  0  # atno 6909 bound_to 6896
  145.7868  140.8731  143.0301 H   0  0  0  0  0  0  0  0  0  0  0  0  # atno 7974 bound_to 7965
  156.1959  140.1724  156.7998 H   0  0  0  0  0  0  0  0  0  0  0  0  # atno 8008 bound_to 7997
  154.5530  140.0714  156.8729 H   0  0  0  0  0  0  0  0  0  0  0  0  # atno 8009 bound_to 7997
  155.2993  140.3360  155.4251 H   0  0  0  0  0  0  0  0  0  0  0  0  # atno 8010 bound_to 7997
  140.2626  143.3397  152.0611 H   0  0  0  0  0  0  0  0  0  0  0  0  # atno 10167 bound_to 10162
  156.1499  130.4151  149.9962 H   0  0  0  0  0  0  0  0  0  0  0  0  # atno 10718 bound_to 10713
  152.9999  135.6247  154.2315 H   0  0  0  0  0  0  0  0  0  0  0  0  # atno 10763 bound_to 10752
  154.2057  135.2802  155.2977 H   0  0  0  0  0  0  0  0  0  0  0  0  # atno 10764 bound_to 10752
  154.5647  135.5694  153.7098 H   0  0  0  0  0  0  0  0  0  0  0  0  # atno 10765 bound_to 10752
  140.9803  134.0683  157.3772 H   0  0  0  0  0  0  0  0  0  0  0  0  # atno 11005 bound_to 11000
  144.6788  140.0067  143.7484 LP  0  0  0  0  0  0  0  0  0  0  0  0  # atno 17320 bound_to 7965
  146.0017  139.3097  143.0923 LP  0  0  0  0  0  0  0  0  0  0  0  0  # atno 17321 bound_to 7965
  139.5012  144.6709  151.6245 LP  0  0  0  0  0  0  0  0  0  0  0  0  # atno 17342 bound_to 10162
  140.5954  143.9706  150.6351 LP  0  0  0  0  0  0  0  0  0  0  0  0  # atno 17343 bound_to 10162
  156.7823  130.9226  151.3646 LP  0  0  0  0  0  0  0  0  0  0  0  0  # atno 17370 bound_to 10713
  157.6648  130.8998  149.9908 LP  0  0  0  0  0  0  0  0  0  0  0  0  # atno 17371 bound_to 10713
  139.8947  135.0137  156.6966 LP  0  0  0  0  0  0  0  0  0  0  0  0  # atno 17394 bound_to 11000
  140.7197  133.9151  155.8138 LP  0  0  0  0  0  0  0  0  0  0  0  0  # atno 17395 bound_to 11000

$$$$
