#       Name:                AV-unprocessed.smi:3305
#       Creating user name   scv26
#       Creation time:       Fri Mar 27 19:03:28 2020


#       File generated by GOLD software.
#

@<TRIPOS>MOLECULE
AV-unprocessed.smi:3305
    37    38     1
SMALL
NO_CHARGES


@<TRIPOS>ATOM
      1 ****        -1.9710   2.7220   4.0460 C.3            1 S1                 0.0000
      2 ****        -1.9474   1.8482   2.8312 C.2            1 S1                 0.0000
      3 ****        -2.2636   2.2125   1.5460 C.2            1 S1                 0.0000
      4 ****        -2.0965   0.8823   0.4338 S.3            1 S1                 0.0000
      5 ****        -1.6032  -0.1404   1.7801 C.2            1 S1                 0.0000
      6 ****        -1.2166  -1.5763   1.6243 C.3            1 S1                 0.0000
      7 ****         0.3016  -1.8032   1.4860 C.3            1 S1                 0.0000
      8 ****         0.9039  -0.9954   0.4297 N.am           1 S1                 0.0000
      9 ****         0.8064  -1.2478  -0.8843 C.2            1 S1                 0.0000
     10 ****         0.2057  -2.2218  -1.3397 O.2            1 S1                 0.0000
     11 ****         1.4812  -0.2366  -1.8248 C.3            1 S1                 0.0000
     12 ****         2.4993  -0.8993  -2.7594 C.3            1 S1                 0.0000
     13 ****         1.8959  -0.7580  -4.1596 C.3            1 S1                 0.0000
     14 ****         0.5263  -0.4676  -3.9350 O.3            1 S1                 0.0000
     15 ****         0.4721   0.3817  -2.8013 C.3            1 S1                 0.0000
     16 ****        -1.5676   0.5079   2.9474 N.2            1 S1                 0.0000
     17 ****        -2.4529   3.6781   3.8404 H              1 S1                 0.0000
     18 ****        -0.9609   2.9312   4.3990 H              1 S1                 0.0000
     19 ****        -2.5164   2.2486   4.8629 H              1 S1                 0.0000
     20 ****        -2.5821   3.1797   1.1863 H              1 S1                 0.0000
     21 ****        -1.5954  -2.1355   2.4804 H              1 S1                 0.0000
     22 ****        -1.7318  -1.9758   0.7500 H              1 S1                 0.0000
     23 ****         0.7928  -1.5355   2.4218 H              1 S1                 0.0000
     24 ****         0.5136  -2.8603   1.3195 H              1 S1                 0.0000
     25 ****         1.4146  -0.1738   0.7192 H              1 S1                 0.0000
     26 ****         1.9536   0.5487  -1.2323 H              1 S1                 0.0000
     27 ****         3.4727  -0.4106  -2.7051 H              1 S1                 0.0000
     28 ****         2.6578  -1.9519  -2.5190 H              1 S1                 0.0000
     29 ****         2.3556   0.0754  -4.6932 H              1 S1                 0.0000
     30 ****         2.0178  -1.6576  -4.7631 H              1 S1                 0.0000
     31 ****        -0.5425   0.4398  -2.4043 H              1 S1                 0.0000
     32 ****         0.7772   1.3908  -3.0832 H              1 S1                 0.0000
     33 ****        -0.2386  -2.8695  -0.7207 LP             1 S1                 0.0000
     34 ****         0.1622  -2.3649  -2.3284 LP             1 S1                 0.0000
     35 ****         0.0193  -1.3113  -3.7585 LP             1 S1                 0.0000
     36 ****         0.1367  -0.0050  -4.7314 LP             1 S1                 0.0000
     37 ****        -1.2985   0.0809   3.8107 LP             1 S1                 0.0000
@<TRIPOS>BOND
    1    1    2 1     
    2    1   17 1     
    3    1   18 1     
    4    1   19 1     
    5    2   16 1     
    6    2    3 2     
    7    3    4 1     
    8    3   20 1     
    9    4    5 1     
   10    5    6 1     
   11    5   16 2     
   12    6    7 1     
   13    6   21 1     
   14    6   22 1     
   15    7    8 1     
   16    7   23 1     
   17    7   24 1     
   18    8    9 am    
   19    8   25 1     
   20    9   10 2     
   21    9   11 1     
   22   11   15 1     
   23   11   12 1     
   24   11   26 1     
   25   12   13 1     
   26   12   27 1     
   27   12   28 1     
   28   13   14 1     
   29   13   29 1     
   30   13   30 1     
   31   14   15 1     
   32   15   31 1     
   33   15   32 1     
   34   10   33 1     
   35   10   34 1     
   36   14   35 1     
   37   14   36 1     
   38   16   37 1     
@<TRIPOS>SUBSTRUCTURE
      1 S1             1
@<TRIPOS>SET
LONE_PAIRS      STATIC     ATOMS    <user>   **** ""
5 33 34 35 36 37
DONOR_HYDROGENS      STATIC     ATOMS    <user>   **** ""
1 25
ATOM$BLUE        STATIC     ATOMS    COLORGROUP SYSTEM
5 33 34 35 36 37
ATOM$RED        STATIC     ATOMS    COLORGROUP SYSTEM
1 25
