AV-unprocessed.smi:1228|AV-procd|sdf|5148|dock2
  -GOLD-   22720 4213D 1   1.00000     0.00000
 Structure written by MMmdl.
 44 46  0  0  0  0  0  0  0  0  2 V2000
  150.9381  141.0589  156.5547 C   0  0  0  0  0  0  0  0  0  0  0  0
  149.9360  140.5322  155.5705 C   0  0  0  0  0  0  0  0  0  0  0  0
  149.7714  139.1903  155.1194 C   0  0  0  0  0  0  0  0  0  0  0  0
  148.7261  139.2937  154.2427 C   0  0  0  0  0  0  0  0  0  0  0  0
  148.1261  138.3195  153.5080 N   0  0  0  0  0  0  0  0  0  0  0  0
  146.8157  138.1320  153.2730 C   0  0  0  0  0  0  0  0  0  0  0  0
  145.9028  138.8291  153.7162 O   0  0  0  0  0  0  0  0  0  0  0  0
  146.6120  137.0666  152.4840 N   0  0  0  0  0  0  0  0  0  0  0  0
  145.3058  136.5932  152.0348 C   0  0  2  0  0  0  0  0  0  0  0  0
  144.7381  135.5422  153.0069 C   0  0  0  0  0  0  0  0  0  0  0  0
  143.4073  134.9653  152.4881 C   0  0  0  0  0  0  0  0  0  0  0  0
  143.5344  134.4092  151.1164 N   0  3  2  0  0  0  0  0  0  0  0  0
  144.2418  133.1079  151.0739 C   0  0  0  0  0  0  0  0  0  0  0  0
  144.6920  132.7092  149.6879 C   0  0  0  0  0  0  0  0  0  0  0  0
  143.4936  132.0352  150.3173 C   0  0  0  0  0  0  0  0  0  0  0  0
  144.0767  135.4057  150.1567 C   0  0  0  0  0  0  0  0  0  0  0  0
  145.4227  135.9904  150.6251 C   0  0  0  0  0  0  0  0  0  0  0  0
  148.3141  140.6068  154.1943 N   0  0  0  0  0  0  0  0  0  0  0  0
  147.2478  141.2093  153.4184 C   0  0  0  0  0  0  0  0  0  0  0  0
  149.0670  141.3699  155.0159 N   0  0  0  0  0  0  0  0  0  0  0  0
  151.4940  140.2467  157.0236 H   0  0  0  0  0  0  0  0  0  0  0  0
  150.4509  141.6274  157.3474 H   0  0  0  0  0  0  0  0  0  0  0  0
  151.6584  141.7154  156.0664 H   0  0  0  0  0  0  0  0  0  0  0  0
  150.3355  138.3155  155.4056 H   0  0  0  0  0  0  0  0  0  0  0  0
  148.7550  137.6510  153.0886 H   0  0  0  0  0  0  0  0  0  0  0  0
  147.4191  136.5495  152.1666 H   0  0  0  0  0  0  0  0  0  0  0  0
  144.6172  137.4391  151.9855 H   0  0  0  0  0  0  0  0  0  0  0  0
  145.4603  134.7372  153.1491 H   0  0  0  0  0  0  0  0  0  0  0  0
  144.5812  135.9862  153.9907 H   0  0  0  0  0  0  0  0  0  0  0  0
  143.0343  134.1984  153.1680 H   0  0  0  0  0  0  0  0  0  0  0  0
  142.6525  135.7525  152.4706 H   0  0  0  0  0  0  0  0  0  0  0  0
  144.8427  132.8460  151.9424 H   0  0  0  0  0  0  0  0  0  0  0  0
  144.5057  133.3985  148.8662 H   0  0  0  0  0  0  0  0  0  0  0  0
  145.6061  132.1247  149.6051 H   0  0  0  0  0  0  0  0  0  0  0  0
  143.6181  131.0069  150.6505 H   0  0  0  0  0  0  0  0  0  0  0  0
  142.5125  132.2766  149.9122 H   0  0  0  0  0  0  0  0  0  0  0  0
  144.1810  134.9543  149.1694 H   0  0  0  0  0  0  0  0  0  0  0  0
  143.3485  136.2109  150.0501 H   0  0  0  0  0  0  0  0  0  0  0  0
  145.7529  136.7545  149.9204 H   0  0  0  0  0  0  0  0  0  0  0  0
  146.1881  135.2132  150.6120 H   0  0  0  0  0  0  0  0  0  0  0  0
  147.4389  141.0592  152.3556 H   0  0  0  0  0  0  0  0  0  0  0  0
  147.1840  142.2798  153.6190 H   0  0  0  0  0  0  0  0  0  0  0  0
  146.2968  140.7441  153.6796 H   0  0  0  0  0  0  0  0  0  0  0  0
  142.5936  134.2084  150.8082 H   0  0  0  0  0  0  0  0  0  0  0  0
  1  2  1  0  0  0  0
  1 21  1  0  0  0  0
  1 22  1  0  0  0  0
  1 23  1  0  0  0  0
  2 20  2  0  0  0  0
  2  3  1  0  0  0  0
  3  4  2  0  0  0  0
  3 24  1  0  0  0  0
  4  5  1  0  0  0  0
  4 18  1  0  0  0  0
  5  6  1  0  0  0  0
  5 25  1  0  0  0  0
  6  7  2  0  0  0  0
  6  8  1  0  0  0  0
  8  9  1  0  0  0  0
  8 26  1  0  0  0  0
  9 17  1  0  0  0  0
  9 10  1  0  0  0  0
  9 27  1  0  0  0  0
 10 11  1  0  0  0  0
 10 28  1  0  0  0  0
 10 29  1  0  0  0  0
 11 12  1  0  0  0  0
 11 30  1  0  0  0  0
 11 31  1  0  0  0  0
 12 13  1  0  0  0  0
 12 16  1  0  0  0  0
 12 44  1  0  0  0  0
 13 15  1  0  0  0  0
 13 14  1  0  0  0  0
 13 32  1  0  0  0  0
 14 15  1  0  0  0  0
 14 33  1  0  0  0  0
 14 34  1  0  0  0  0
 15 35  1  0  0  0  0
 15 36  1  0  0  0  0
 16 17  1  0  0  0  0
 16 37  1  0  0  0  0
 16 38  1  0  0  0  0
 17 39  1  0  0  0  0
 17 40  1  0  0  0  0
 18 19  1  0  0  0  0
 18 20  1  0  0  0  0
 19 41  1  0  0  0  0
 19 42  1  0  0  0  0
 19 43  1  0  0  0  0
M  CHG  1  12   1
M  END
> <s_m_source_file>
AV-unprocessed.smi

> <i_m_source_file_index>
1228

> <i_lp_mmshare_version>
43012

> <i_f3d_flags>
0

> <s_epik_input>
W0NIM11jMVtjSF1jKG4objEpW0NIM10pW05IXUMoPU8pW05IXVtDSF0yW0NIMl1bQ0gyXU4oW0NIMl1bQ0gyXTIpW0NIXTNbQ0gyXVtDSDJdMw==

> <s_epik_cmdline>
J2VwaWtfcHl0aG9uJywgJy1waCcsICc3LjAnLCAnLXRuJywgJzgnLCAnLW1hJywgJzIwMCcsICctbWV0YWxfYmluZGluZycsICctaW1hZScsICc8aW5maWxlLm1hZT4nLCAnLW9tYWUnLCAnPG91dGZpbGUubWFlPic=

> <r_lp_tautomer_probability>
1

> <r_epik_Ionization_Penalty>
0.11882

> <r_epik_Ionization_Penalty_Charging>
0.11874

> <r_epik_Ionization_Penalty_Neutral>
8.03064e-05

> <r_epik_State_Penalty>
0.108313

> <r_epik_Charging_Adjusted_Penalty>
0.227053

> <i_epik_Tot_Q>
1

> <i_epik_Tot_abs_Q>
1

> <r_epik_Metal_State_Penalty>
0.108316

> <b_epik_Metal_Only>
0

> <s_lp_Force_Field>
OPLS_2005

> <r_lp_Energy>
29.8379

> <b_lp_Chiralities_Consistent>
1

> <s_lp_Variant>
AV-unprocessed.smi:1228-2

> <Gold.Version>
5.8.1

> <Gold.Id.Protein>
6NUR|6NUR_protein|mol2

> <Gold.PLP.Fitness>
43.8864

> <Gold.PLP.PLP>
-33.9027

> <Gold.PLP.part.hbond>
-3.4426

> <Gold.PLP.part.metal>
0.0000

> <Gold.PLP.part.buried>
-2.6838

> <Gold.PLP.part.nonpolar>
-30.0380

> <Gold.PLP.part.repulsive>
1.1763

> <Gold.PLP.ligand.clash>
0.0000

> <Gold.PLP.ligand.torsion>
1.5358

> <Gold.PLP.Chemscore.Hbond>
3.9265

> <Gold.PLP.Chemscore.CHOScore>
0.0000

> <Gold.PLP.Chemscore.Metal>
0.0000

> <Gold.Chemscore.Hbonds>
donor molecule, donor type, donor heavy atom, donor atom, acceptor molecule, acceptor atom, score
      L1  H     5    25       P1  7948  0.94
      L1  H     8    26       P1  7948  1.00
      L1  H    12    44       P1 10186  2.00

> <Gold.PLP.Chemscore.Internal.Correction>
1.2758

> <Gold.Rescore>
     Score         DG    S(hbond)    S(metal)    S(lipo)     H(rot)  DE(clash)    DE(int)     intcor
     18.63     -20.70       2.70        0.00      79.58       1.21       0.36       1.70       ----

> <Gold.Chemscore.Fitness>
18.6346

> <Gold.Chemscore.DG>
-20.6999

> <Gold.Chemscore.ZeroCoef>
-5.4800

> <Gold.Chemscore.Hbond>
2.6964

> <Gold.Chemscore.Metal>
0.0000

> <Gold.Chemscore.Lipo>
79.5786

> <Gold.Chemscore.Internal_Hbond>
0.0000

> <Gold.Chemscore.DEClash>
0.3619

> <Gold.Chemscore.DEInternal>
1.7033

> <Gold.Chemscore.Rot>
1.2097

> <Gold.Chemscore.Internal.Correction>
   9.000000E+99

> <Gold.Chemscore.Hbonds>
donor molecule, donor type, donor heavy atom, donor atom, acceptor molecule, acceptor atom, score
      L1  H     5    25       P1  7948  0.91
      L1  H     8    26       P1  7948  0.97
      L1  H    12    44       P1 10186  0.41

> <Gold.Chemscore.Hbond.Weighted>
-9.0060

> <Gold.Chemscore.Metal.Weighted>
-0.0000

> <Gold.Chemscore.Lipo.Weighted>
-9.3107

> <Gold.Chemscore.Internal_Hbond.Weighted>
0.0000

> <Gold.Chemscore.DEClash.Weighted>
0.3619

> <Gold.Chemscore.DEInternal.Weighted>
1.7033

> <Gold.Chemscore.Rot.Weighted>
3.0969

> <Gold.Chemscore.Internal.Correction.Weighted>
   9.000000E+99

> <Gold.Protein.RotatedTorsions>
[ 6907 6896 6895 6894 ] final  150.72 input  -60.11 | X-H torsion
[ 7974 7965 7964 7962 ] final  113.46 input  175.53 | X-H torsion
[ 8008 7997 7996 7995 ] final  -95.69 input   59.86 | X-H torsion
[ 10167 10162 10161 10158 ] final -101.13 input  -65.29 | X-H torsion
[ 10718 10713 10712 10709 ] final  -78.80 input   66.30 | X-H torsion
[ 10763 10752 10751 10750 ] final -135.14 input  -60.55 | X-H torsion
[ 11005 11000 10999 10996 ] final   20.53 input  -57.11 | X-H torsion

> <Gold.Protein.ActiveResidues>
 VAL166  LYS551  ARG553  GLY616  TRP617  ASP618  TYR619  PRO620  LYS621  CYS622 
 ASP623  PHE694  ASN695  SER759  ASP760  ASP761  ALA762  ILE779  LEU786  VAL792 
 PHE793  MET794  SER795  GLU796  ALA797  LYS798  CYS799  TRP800  GLU811  SER814 

> <Gold.Protein.RotatedAtoms>
  152.1106  133.4298  159.4628 H   0  0  0  0  0  0  0  0  0  0  0  0  # atno 6907 bound_to 6896
  150.6867  134.2653  159.4575 H   0  0  0  0  0  0  0  0  0  0  0  0  # atno 6908 bound_to 6896
  152.0521  134.9646  160.0625 H   0  0  0  0  0  0  0  0  0  0  0  0  # atno 6909 bound_to 6896
  145.2167  139.2881  143.4240 H   0  0  0  0  0  0  0  0  0  0  0  0  # atno 7974 bound_to 7965
  154.7647  140.0478  157.1002 H   0  0  0  0  0  0  0  0  0  0  0  0  # atno 8008 bound_to 7997
  154.9894  140.3111  155.4893 H   0  0  0  0  0  0  0  0  0  0  0  0  # atno 8009 bound_to 7997
  156.2910  140.2221  156.4998 H   0  0  0  0  0  0  0  0  0  0  0  0  # atno 8010 bound_to 7997
  140.2445  143.3515  152.0771 H   0  0  0  0  0  0  0  0  0  0  0  0  # atno 10167 bound_to 10162
  156.0108  130.4528  150.3551 H   0  0  0  0  0  0  0  0  0  0  0  0  # atno 10718 bound_to 10713
  154.8708  135.3712  154.4850 H   0  0  0  0  0  0  0  0  0  0  0  0  # atno 10763 bound_to 10752
  153.5501  135.7025  153.5600 H   0  0  0  0  0  0  0  0  0  0  0  0  # atno 10764 bound_to 10752
  153.3723  135.4018  155.1761 H   0  0  0  0  0  0  0  0  0  0  0  0  # atno 10765 bound_to 10752
  140.4016  134.1713  155.7664 H   0  0  0  0  0  0  0  0  0  0  0  0  # atno 11005 bound_to 11000
  146.3385  140.2460  142.8597 LP  0  0  0  0  0  0  0  0  0  0  0  0  # atno 17320 bound_to 7965
  144.9804  140.8454  143.5400 LP  0  0  0  0  0  0  0  0  0  0  0  0  # atno 17321 bound_to 7965
  139.5066  144.6817  151.5992 LP  0  0  0  0  0  0  0  0  0  0  0  0  # atno 17342 bound_to 10162
  140.6088  143.9475  150.6438 LP  0  0  0  0  0  0  0  0  0  0  0  0  # atno 17343 bound_to 10162
  157.1642  131.0352  151.2826 LP  0  0  0  0  0  0  0  0  0  0  0  0  # atno 17370 bound_to 10713
  157.4285  130.7477  149.6970 LP  0  0  0  0  0  0  0  0  0  0  0  0  # atno 17371 bound_to 10713
  141.1855  133.8323  157.1103 LP  0  0  0  0  0  0  0  0  0  0  0  0  # atno 17394 bound_to 11000
  140.0332  134.9891  157.0821 LP  0  0  0  0  0  0  0  0  0  0  0  0  # atno 17395 bound_to 11000

$$$$
