AV-unprocessed.smi:571|AV-procd|sdf|2963|dock2
  -GOLD-   2262023463D 1   1.00000     0.00000
 Structure written by MMmdl.
 44 45  0  0  0  0  0  0  0  0  2 V2000
  150.3330  138.4215  154.1678 C   0  0  0  0  0  0  0  0  0  0  0  0
  149.3523  139.5148  154.6226 C   0  0  2  0  0  0  0  0  0  0  0  0
  148.3056  139.8593  153.5311 C   0  0  0  0  0  0  0  0  0  0  0  0
  147.5552  138.6738  153.0409 N   0  3  0  0  0  0  0  0  0  0  0  0
  146.7454  138.0253  154.1035 C   0  0  0  0  0  0  0  0  0  0  0  0
  146.1362  136.7061  153.6002 C   0  0  0  0  0  0  0  0  0  0  0  0
  145.2965  136.9364  152.3367 C   0  0  0  0  0  0  0  0  0  0  0  0
  146.1398  137.6445  151.2679 C   0  0  0  0  0  0  0  0  0  0  0  0
  146.7530  138.9430  151.8190 C   0  0  0  0  0  0  0  0  0  0  0  0
  150.0631  140.6891  155.1400 N   0  0  0  0  0  0  0  0  0  0  0  0
  150.1387  141.0905  156.4202 C   0  0  0  0  0  0  0  0  0  0  0  0
  149.5569  140.5199  157.3431 O   0  0  0  0  0  0  0  0  0  0  0  0
  151.0194  142.3172  156.6891 C   0  0  0  0  0  0  0  0  0  0  0  0
  151.6262  142.2860  158.0293 N   0  0  0  0  0  0  0  0  0  0  0  0
  151.4467  143.4327  158.8295 C   0  0  0  0  0  0  0  0  0  0  0  0
  151.9676  143.5267  160.0628 C   0  0  0  0  0  0  0  0  0  0  0  0
  152.7303  142.4096  160.5679 C   0  0  0  0  0  0  0  0  0  0  0  0
  152.9123  141.3105  159.8091 C   0  0  0  0  0  0  0  0  0  0  0  0
  152.3506  141.2060  158.4573 C   0  0  0  0  0  0  0  0  0  0  0  0
  152.5244  140.2115  157.7529 O   0  0  0  0  0  0  0  0  0  0  0  0
  149.7999  137.5137  153.8840 H   0  0  0  0  0  0  0  0  0  0  0  0
  151.0269  138.1588  154.9669 H   0  0  0  0  0  0  0  0  0  0  0  0
  150.9222  138.7395  153.3073 H   0  0  0  0  0  0  0  0  0  0  0  0
  148.8115  139.1134  155.4797 H   0  0  0  0  0  0  0  0  0  0  0  0
  147.5945  140.5711  153.9529 H   0  0  0  0  0  0  0  0  0  0  0  0
  148.7781  140.3746  152.6934 H   0  0  0  0  0  0  0  0  0  0  0  0
  147.3729  137.8173  154.9711 H   0  0  0  0  0  0  0  0  0  0  0  0
  145.9601  138.7072  154.4334 H   0  0  0  0  0  0  0  0  0  0  0  0
  146.9340  135.9933  153.3862 H   0  0  0  0  0  0  0  0  0  0  0  0
  145.5214  136.2565  154.3807 H   0  0  0  0  0  0  0  0  0  0  0  0
  144.9206  135.9870  151.9538 H   0  0  0  0  0  0  0  0  0  0  0  0
  144.4234  137.5435  152.5796 H   0  0  0  0  0  0  0  0  0  0  0  0
  146.9355  136.9791  150.9297 H   0  0  0  0  0  0  0  0  0  0  0  0
  145.5264  137.8632  150.3930 H   0  0  0  0  0  0  0  0  0  0  0  0
  145.9672  139.6646  152.0478 H   0  0  0  0  0  0  0  0  0  0  0  0
  147.3798  139.3915  151.0487 H   0  0  0  0  0  0  0  0  0  0  0  0
  150.5621  141.2410  154.4567 H   0  0  0  0  0  0  0  0  0  0  0  0
  151.8087  142.3731  155.9372 H   0  0  0  0  0  0  0  0  0  0  0  0
  150.4199  143.2163  156.5388 H   0  0  0  0  0  0  0  0  0  0  0  0
  150.8688  144.2241  158.3741 H   0  0  0  0  0  0  0  0  0  0  0  0
  151.8227  144.4147  160.6605 H   0  0  0  0  0  0  0  0  0  0  0  0
  153.1570  142.4551  161.5591 H   0  0  0  0  0  0  0  0  0  0  0  0
  153.4862  140.4848  160.2038 H   0  0  0  0  0  0  0  0  0  0  0  0
  148.2575  137.9955  152.7821 H   0  0  0  0  0  0  0  0  0  0  0  0
  1  2  1  0  0  0  0
  1 21  1  0  0  0  0
  1 22  1  0  0  0  0
  1 23  1  0  0  0  0
  2  3  1  0  0  0  0
  2 10  1  0  0  0  0
  2 24  1  0  0  0  0
  3  4  1  0  0  0  0
  3 25  1  0  0  0  0
  3 26  1  0  0  0  0
  4  9  1  0  0  0  0
  4  5  1  0  0  0  0
  4 44  1  0  0  0  0
  5  6  1  0  0  0  0
  5 27  1  0  0  0  0
  5 28  1  0  0  0  0
  6  7  1  0  0  0  0
  6 29  1  0  0  0  0
  6 30  1  0  0  0  0
  7  8  1  0  0  0  0
  7 31  1  0  0  0  0
  7 32  1  0  0  0  0
  8  9  1  0  0  0  0
  8 33  1  0  0  0  0
  8 34  1  0  0  0  0
  9 35  1  0  0  0  0
  9 36  1  0  0  0  0
 10 11  1  0  0  0  0
 10 37  1  0  0  0  0
 11 12  2  0  0  0  0
 11 13  1  0  0  0  0
 13 14  1  0  0  0  0
 13 38  1  0  0  0  0
 13 39  1  0  0  0  0
 14 19  1  0  0  0  0
 14 15  1  0  0  0  0
 15 16  2  0  0  0  0
 15 40  1  0  0  0  0
 16 17  1  0  0  0  0
 16 41  1  0  0  0  0
 17 18  2  0  0  0  0
 17 42  1  0  0  0  0
 18 19  1  0  0  0  0
 18 43  1  0  0  0  0
 19 20  2  0  0  0  0
M  CHG  1   4   1
M  END
> <s_m_source_file>
AV-unprocessed.smi

> <i_m_source_file_index>
571

> <i_lp_mmshare_version>
43012

> <i_f3d_flags>
0

> <s_epik_input>
W0NIMl0xW0NIMl1bQ0gyXVtDSDJdW0NIMl1OMVtDSDJdW0NAQEhdKFtDSDNdKVtOSF1DKD1PKVtDSDJdbjJbY0hdW2NIXVtjSF1bY0hdYzI9Tw==

> <s_epik_cmdline>
J2VwaWtfcHl0aG9uJywgJy1waCcsICc3LjAnLCAnLXRuJywgJzgnLCAnLW1hJywgJzIwMCcsICctbWV0YWxfYmluZGluZycsICctaW1hZScsICc8aW5maWxlLm1hZT4nLCAnLW9tYWUnLCAnPG91dGZpbGUubWFlPic=

> <r_lp_tautomer_probability>
1

> <r_epik_Ionization_Penalty>
0.00237248

> <r_epik_Ionization_Penalty_Charging>
0.0023724

> <r_epik_Ionization_Penalty_Neutral>
8.2065e-08

> <r_epik_State_Penalty>
0.00163922

> <r_epik_Charging_Adjusted_Penalty>
0.00401161

> <i_epik_Tot_Q>
1

> <i_epik_Tot_abs_Q>
1

> <r_epik_Metal_State_Penalty>
-0

> <b_epik_Metal_Only>
0

> <s_lp_Force_Field>
OPLS_2005

> <r_lp_Energy>
32.5109

> <b_lp_Chiralities_Consistent>
1

> <s_lp_Variant>
AV-unprocessed.smi:571-1

> <Gold.Version>
5.8.1

> <Gold.Id.Protein>
6NUR|6NUR_protein|mol2

> <Gold.PLP.Fitness>
45.1554

> <Gold.PLP.PLP>
-37.0760

> <Gold.PLP.part.hbond>
-3.0000

> <Gold.PLP.part.metal>
0.0000

> <Gold.PLP.part.buried>
3.5835

> <Gold.PLP.part.nonpolar>
-37.9747

> <Gold.PLP.part.repulsive>
0.5988

> <Gold.PLP.ligand.clash>
0.0000

> <Gold.PLP.ligand.torsion>
0.5318

> <Gold.PLP.Chemscore.Hbond>
3.0000

> <Gold.PLP.Chemscore.CHOScore>
0.0000

> <Gold.PLP.Chemscore.Metal>
0.0000

> <Gold.Chemscore.Hbonds>
donor molecule, donor type, donor heavy atom, donor atom, acceptor molecule, acceptor atom, score
      L1  H     4    44       P1  7948  1.72
      P1  H  7997  8009       L1    20  0.73

> <Gold.PLP.Chemscore.Internal.Correction>
0.1430

> <Gold.Rescore>
     Score         DG    S(hbond)    S(metal)    S(lipo)     H(rot)  DE(clash)    DE(int)     intcor
     15.42     -17.79       1.91        0.00      91.15       1.84       0.70       1.67       ----

> <Gold.Chemscore.Fitness>
15.4250

> <Gold.Chemscore.DG>
-17.7942

> <Gold.Chemscore.ZeroCoef>
-5.4800

> <Gold.Chemscore.Hbond>
1.9052

> <Gold.Chemscore.Metal>
0.0000

> <Gold.Chemscore.Lipo>
91.1510

> <Gold.Chemscore.Internal_Hbond>
0.0000

> <Gold.Chemscore.DEClash>
0.6956

> <Gold.Chemscore.DEInternal>
1.6736

> <Gold.Chemscore.Rot>
1.8413

> <Gold.Chemscore.Internal.Correction>
   9.000000E+99

> <Gold.Chemscore.Hbonds>
donor molecule, donor type, donor heavy atom, donor atom, acceptor molecule, acceptor atom, score
      L1  H     4    44       P1  7948  0.82
      P1  H  7997  8009       L1    20  0.63

> <Gold.Chemscore.Hbond.Weighted>
-6.3633

> <Gold.Chemscore.Metal.Weighted>
-0.0000

> <Gold.Chemscore.Lipo.Weighted>
-10.6647

> <Gold.Chemscore.Internal_Hbond.Weighted>
0.0000

> <Gold.Chemscore.DEClash.Weighted>
0.6956

> <Gold.Chemscore.DEInternal.Weighted>
1.6736

> <Gold.Chemscore.Rot.Weighted>
4.7137

> <Gold.Chemscore.Internal.Correction.Weighted>
   9.000000E+99

> <Gold.Protein.RotatedTorsions>
[ 6907 6896 6895 6894 ] final  158.14 input  -60.11 | X-H torsion
[ 7974 7965 7964 7962 ] final  -85.10 input  175.53 | X-H torsion
[ 8008 7997 7996 7995 ] final  171.09 input   59.86 | X-H torsion
[ 10167 10162 10161 10158 ] final -101.86 input  -65.29 | X-H torsion
[ 10718 10713 10712 10709 ] final  -40.03 input   66.30 | X-H torsion
[ 10763 10752 10751 10750 ] final   31.21 input  -60.55 | X-H torsion
[ 11005 11000 10999 10996 ] final   -6.44 input  -57.11 | X-H torsion

> <Gold.Protein.ActiveResidues>
 VAL166  LYS551  ARG553  GLY616  TRP617  ASP618  TYR619  PRO620  LYS621  CYS622 
 ASP623  PHE694  ASN695  SER759  ASP760  ASP761  ALA762  ILE779  LEU786  VAL792 
 PHE793  MET794  SER795  GLU796  ALA797  LYS798  CYS799  TRP800  GLU811  SER814 

> <Gold.Protein.RotatedAtoms>
  152.0048  133.3839  159.4195 H   0  0  0  0  0  0  0  0  0  0  0  0  # atno 6907 bound_to 6896
  150.6906  134.3794  159.5036 H   0  0  0  0  0  0  0  0  0  0  0  0  # atno 6908 bound_to 6896
  152.1547  134.8960  160.0596 H   0  0  0  0  0  0  0  0  0  0  0  0  # atno 6909 bound_to 6896
  145.4977  140.9549  143.1777 H   0  0  0  0  0  0  0  0  0  0  0  0  # atno 7974 bound_to 7965
  156.1304  140.1521  156.9073 H   0  0  0  0  0  0  0  0  0  0  0  0  # atno 8008 bound_to 7997
  154.4905  140.0853  156.7623 H   0  0  0  0  0  0  0  0  0  0  0  0  # atno 8009 bound_to 7997
  155.4266  140.3425  155.4278 H   0  0  0  0  0  0  0  0  0  0  0  0  # atno 8010 bound_to 7997
  140.2368  143.3567  152.0838 H   0  0  0  0  0  0  0  0  0  0  0  0  # atno 10167 bound_to 10162
  156.2858  130.4222  149.8289 H   0  0  0  0  0  0  0  0  0  0  0  0  # atno 10718 bound_to 10713
  153.0328  135.6445  154.1164 H   0  0  0  0  0  0  0  0  0  0  0  0  # atno 10763 bound_to 10752
  154.0883  135.2868  155.3278 H   0  0  0  0  0  0  0  0  0  0  0  0  # atno 10764 bound_to 10752
  154.6482  135.5435  153.7934 H   0  0  0  0  0  0  0  0  0  0  0  0  # atno 10765 bound_to 10752
  140.7020  133.8981  155.8690 H   0  0  0  0  0  0  0  0  0  0  0  0  # atno 11005 bound_to 11000
  144.7797  139.6552  143.7159 LP  0  0  0  0  0  0  0  0  0  0  0  0  # atno 17320 bound_to 7965
  146.2245  139.5697  142.9596 LP  0  0  0  0  0  0  0  0  0  0  0  0  # atno 17321 bound_to 7965
  139.5091  144.6861  151.5883 LP  0  0  0  0  0  0  0  0  0  0  0  0  # atno 17342 bound_to 10162
  140.6144  143.9376  150.6477 LP  0  0  0  0  0  0  0  0  0  0  0  0  # atno 17343 bound_to 10162
  156.5720  130.8428  151.3359 LP  0  0  0  0  0  0  0  0  0  0  0  0  # atno 17370 bound_to 10713
  157.7328  130.9721  150.1947 LP  0  0  0  0  0  0  0  0  0  0  0  0  # atno 17371 bound_to 10713
  141.0155  134.0961  157.4176 LP  0  0  0  0  0  0  0  0  0  0  0  0  # atno 17394 bound_to 11000
  139.8894  135.0105  156.6677 LP  0  0  0  0  0  0  0  0  0  0  0  0  # atno 17395 bound_to 11000

$$$$
