AV-unprocessed.smi:2023|AV-procd|sdf|8190|dock8
  -GOLD-   2272010443D 1   1.00000     0.00000
 Structure written by MMmdl.
 34 35  0  0  0  0  0  0  0  0  2 V2000
  154.0321  136.5985  156.9191 O   0  0  0  0  0  0  0  0  0  0  0  0
  153.2083  137.4046  157.8348 S   0  0  0  0  0  0  0  0  0  0  0  0
  152.5200  136.7068  158.9334 O   0  0  0  0  0  0  0  0  0  0  0  0
  153.9162  138.7811  158.3117 N   0  5  0  0  0  0  0  0  0  0  0  0
  153.5477  139.3630  159.5900 C   0  0  0  0  0  0  0  0  0  0  0  0
  154.4327  140.5920  159.8915 C   0  0  0  0  0  0  0  0  0  0  0  0
  153.6637  141.8800  160.1681 C   0  0  0  0  0  0  0  0  0  0  0  0
  153.1001  142.6315  159.1141 C   0  0  0  0  0  0  0  0  0  0  0  0
  152.3891  143.8077  159.4199 C   0  0  0  0  0  0  0  0  0  0  0  0
  152.2672  144.1844  160.7720 C   0  0  0  0  0  0  0  0  0  0  0  0
  152.7937  143.4728  161.7913 N   0  0  0  0  0  0  0  0  0  0  0  0
  153.4761  142.3469  161.4891 C   0  0  0  0  0  0  0  0  0  0  0  0
  151.9666  138.1206  156.8531 N   0  0  0  0  0  0  0  0  0  0  0  0
  150.5835  138.0120  157.3473 C   0  0  0  0  0  0  0  0  0  0  0  0
  149.6287  138.8935  156.5260 C   0  0  0  0  0  0  0  0  0  0  0  0
  149.7381  138.5832  155.1458 O   0  0  0  0  0  0  0  0  0  0  0  0
  151.0451  138.8497  154.6616 C   0  0  0  0  0  0  0  0  0  0  0  0
  152.0691  137.9635  155.3877 C   0  0  0  0  0  0  0  0  0  0  0  0
  152.4988  139.6601  159.6161 H   0  0  0  0  0  0  0  0  0  0  0  0
  153.6726  138.6426  160.3987 H   0  0  0  0  0  0  0  0  0  0  0  0
  155.0545  140.3754  160.7607 H   0  0  0  0  0  0  0  0  0  0  0  0
  155.1267  140.7623  159.0670 H   0  0  0  0  0  0  0  0  0  0  0  0
  153.2118  142.3130  158.0882 H   0  0  0  0  0  0  0  0  0  0  0  0
  151.9482  144.4064  158.6370 H   0  0  0  0  0  0  0  0  0  0  0  0
  151.7284  145.0805  161.0420 H   0  0  0  0  0  0  0  0  0  0  0  0
  153.8856  141.8019  162.3270 H   0  0  0  0  0  0  0  0  0  0  0  0
  150.2726  136.9679  157.2946 H   0  0  0  0  0  0  0  0  0  0  0  0
  150.5385  138.3078  158.3951 H   0  0  0  0  0  0  0  0  0  0  0  0
  148.6000  138.7258  156.8445 H   0  0  0  0  0  0  0  0  0  0  0  0
  149.8418  139.9510  156.6902 H   0  0  0  0  0  0  0  0  0  0  0  0
  151.0724  138.6489  153.5906 H   0  0  0  0  0  0  0  0  0  0  0  0
  151.2868  139.9059  154.7911 H   0  0  0  0  0  0  0  0  0  0  0  0
  153.0711  138.2169  155.0437 H   0  0  0  0  0  0  0  0  0  0  0  0
  151.9027  136.9160  155.1343 H   0  0  0  0  0  0  0  0  0  0  0  0
  1  2  2  0  0  0  0
  2  3  2  0  0  0  0
  2  4  1  0  0  0  0
  2 13  1  0  0  0  0
  4  5  1  0  0  0  0
  5  6  1  0  0  0  0
  5 19  1  0  0  0  0
  5 20  1  0  0  0  0
  6  7  1  0  0  0  0
  6 21  1  0  0  0  0
  6 22  1  0  0  0  0
  7 12  1  0  0  0  0
  7  8  2  0  0  0  0
  8  9  1  0  0  0  0
  8 23  1  0  0  0  0
  9 10  2  0  0  0  0
  9 24  1  0  0  0  0
 10 11  1  0  0  0  0
 10 25  1  0  0  0  0
 11 12  2  0  0  0  0
 12 26  1  0  0  0  0
 13 18  1  0  0  0  0
 13 14  1  0  0  0  0
 14 15  1  0  0  0  0
 14 27  1  0  0  0  0
 14 28  1  0  0  0  0
 15 16  1  0  0  0  0
 15 29  1  0  0  0  0
 15 30  1  0  0  0  0
 16 17  1  0  0  0  0
 17 18  1  0  0  0  0
 17 31  1  0  0  0  0
 17 32  1  0  0  0  0
 18 33  1  0  0  0  0
 18 34  1  0  0  0  0
M  CHG  1   4  -1
M  END
> <s_m_source_file>
AV-unprocessed.smi

> <i_m_source_file_index>
2023

> <i_lp_mmshare_version>
43012

> <i_f3d_flags>
0

> <s_epik_input>
W0NIMl0xW0NIMl1PW0NIMl1bQ0gyXU4xUyg9TykoPU8pW05IXVtDSDJdW0NIMl1jMltjSF1bY0hdW2NIXW5bY0hdMg==

> <s_epik_cmdline>
J2VwaWtfcHl0aG9uJywgJy1waCcsICc3LjAnLCAnLXRuJywgJzgnLCAnLW1hJywgJzIwMCcsICctbWV0YWxfYmluZGluZycsICctaW1hZScsICc8aW5maWxlLm1hZT4nLCAnLW9tYWUnLCAnPG91dGZpbGUubWFlPic=

> <r_epik_Ionization_Penalty>
1.23471

> <r_epik_Ionization_Penalty_Charging>
1.20871

> <r_epik_Ionization_Penalty_Neutral>
0.025996

> <r_epik_State_Penalty>
1.46261

> <r_epik_Charging_Adjusted_Penalty>
2.67132

> <i_epik_Tot_Q>
-1

> <i_epik_Tot_abs_Q>
1

> <r_epik_Metal_State_Penalty>
0.521406

> <b_epik_Metal_Only>
0

> <s_lp_Force_Field>
OPLS_2005

> <r_lp_Energy>
4.19534

> <b_lp_Chiralities_Consistent>
1

> <s_lp_Variant>
AV-unprocessed.smi:2023-2

> <Gold.Version>
5.8.1

> <Gold.Id.Protein>
6NUR|6NUR_protein|mol2

> <Gold.PLP.Fitness>
44.1410

> <Gold.PLP.PLP>
-34.1453

> <Gold.PLP.part.hbond>
-3.0000

> <Gold.PLP.part.metal>
0.0000

> <Gold.PLP.part.buried>
-5.3578

> <Gold.PLP.part.nonpolar>
-26.9541

> <Gold.PLP.part.repulsive>
0.2072

> <Gold.PLP.ligand.clash>
0.0000

> <Gold.PLP.ligand.torsion>
1.3895

> <Gold.PLP.Chemscore.Hbond>
3.7440

> <Gold.PLP.Chemscore.CHOScore>
0.0000

> <Gold.PLP.Chemscore.Metal>
0.0000

> <Gold.Chemscore.Hbonds>
donor molecule, donor type, donor heavy atom, donor atom, acceptor molecule, acceptor atom, score
      P1  H  6896  6909       L1     3  0.83
      P1  H  7997  8009       L1     4  2.00
      P1  H 10752 10765       L1     1  0.98

> <Gold.PLP.Chemscore.Internal.Correction>
1.5428

> <Gold.Rescore>
     Score         DG    S(hbond)    S(metal)    S(lipo)     H(rot)  DE(clash)    DE(int)     intcor
     19.67     -21.02       2.65        0.00      91.51       1.56       0.00       1.36       ----

> <Gold.Chemscore.Fitness>
19.6652

> <Gold.Chemscore.DG>
-21.0237

> <Gold.Chemscore.ZeroCoef>
-5.4800

> <Gold.Chemscore.Hbond>
2.6462

> <Gold.Chemscore.Metal>
0.0000

> <Gold.Chemscore.Lipo>
91.5092

> <Gold.Chemscore.Internal_Hbond>
0.0000

> <Gold.Chemscore.DEClash>
0.0000

> <Gold.Chemscore.DEInternal>
1.3585

> <Gold.Chemscore.Rot>
1.5630

> <Gold.Chemscore.Internal.Correction>
   9.000000E+99

> <Gold.Chemscore.Hbonds>
donor molecule, donor type, donor heavy atom, donor atom, acceptor molecule, acceptor atom, score
      P1  H  6896  6909       L1     3  0.77
      P1  H  7997  8009       L1     4  0.88
      P1  H 10752 10765       L1     1  0.91

> <Gold.Chemscore.Hbond.Weighted>
-8.8384

> <Gold.Chemscore.Metal.Weighted>
-0.0000

> <Gold.Chemscore.Lipo.Weighted>
-10.7066

> <Gold.Chemscore.Internal_Hbond.Weighted>
0.0000

> <Gold.Chemscore.DEClash.Weighted>
0.0000

> <Gold.Chemscore.DEInternal.Weighted>
1.3585

> <Gold.Chemscore.Rot.Weighted>
4.0013

> <Gold.Chemscore.Internal.Correction.Weighted>
   9.000000E+99

> <Gold.Protein.RotatedTorsions>
[ 6907 6896 6895 6894 ] final  142.68 input  -60.11 | X-H torsion
[ 7974 7965 7964 7962 ] final  -95.35 input  175.53 | X-H torsion
[ 8008 7997 7996 7995 ] final  153.52 input   59.86 | X-H torsion
[ 10167 10162 10161 10158 ] final -177.64 input  -65.29 | X-H torsion
[ 10718 10713 10712 10709 ] final  -33.52 input   66.30 | X-H torsion
[ 10763 10752 10751 10750 ] final -104.84 input  -60.55 | X-H torsion
[ 11005 11000 10999 10996 ] final   63.55 input  -57.11 | X-H torsion

> <Gold.Protein.ActiveResidues>
 VAL166  LYS551  ARG553  GLY616  TRP617  ASP618  TYR619  PRO620  LYS621  CYS622 
 ASP623  PHE694  ASN695  SER759  ASP760  ASP761  ALA762  ILE779  LEU786  VAL792 
 PHE793  MET794  SER795  GLU796  ALA797  LYS798  CYS799  TRP800  GLU811  SER814 

> <Gold.Protein.RotatedAtoms>
  152.2157  133.4944  159.5134 H   0  0  0  0  0  0  0  0  0  0  0  0  # atno 6907 bound_to 6896
  150.7000  134.1409  159.4113 H   0  0  0  0  0  0  0  0  0  0  0  0  # atno 6908 bound_to 6896
  151.9329  135.0248  160.0581 H   0  0  0  0  0  0  0  0  0  0  0  0  # atno 6909 bound_to 6896
  145.3612  140.9492  143.2500 H   0  0  0  0  0  0  0  0  0  0  0  0  # atno 7974 bound_to 7965
  156.2577  140.1991  156.6503 H   0  0  0  0  0  0  0  0  0  0  0  0  # atno 8008 bound_to 7997
  154.6542  140.0568  157.0014 H   0  0  0  0  0  0  0  0  0  0  0  0  # atno 8009 bound_to 7997
  155.1373  140.3239  155.4463 H   0  0  0  0  0  0  0  0  0  0  0  0  # atno 8010 bound_to 7997
  139.5470  144.2208  152.1007 H   0  0  0  0  0  0  0  0  0  0  0  0  # atno 10167 bound_to 10162
  156.3617  130.4325  149.7618 H   0  0  0  0  0  0  0  0  0  0  0  0  # atno 10718 bound_to 10713
  154.7906  135.4771  154.0043 H   0  0  0  0  0  0  0  0  0  0  0  0  # atno 10763 bound_to 10752
  153.1625  135.6811  153.8730 H   0  0  0  0  0  0  0  0  0  0  0  0  # atno 10764 bound_to 10752
  153.8339  135.3188  155.3399 H   0  0  0  0  0  0  0  0  0  0  0  0  # atno 10765 bound_to 10752
  140.0017  134.6432  155.9920 H   0  0  0  0  0  0  0  0  0  0  0  0  # atno 11005 bound_to 11000
  144.8645  139.5128  143.6796 LP  0  0  0  0  0  0  0  0  0  0  0  0  # atno 17320 bound_to 7965
  146.2926  139.7185  142.9149 LP  0  0  0  0  0  0  0  0  0  0  0  0  # atno 17321 bound_to 7965
  140.1697  144.4948  150.6586 LP  0  0  0  0  0  0  0  0  0  0  0  0  # atno 17342 bound_to 10162
  140.6722  143.2290  151.5598 LP  0  0  0  0  0  0  0  0  0  0  0  0  # atno 17343 bound_to 10162
  156.4779  130.8027  151.3043 LP  0  0  0  0  0  0  0  0  0  0  0  0  # atno 17370 bound_to 10713
  157.7474  131.0015  150.2965 LP  0  0  0  0  0  0  0  0  0  0  0  0  # atno 17371 bound_to 10713
  141.1647  133.6537  156.4437 LP  0  0  0  0  0  0  0  0  0  0  0  0  # atno 17394 bound_to 11000
  140.4716  134.6748  157.5131 LP  0  0  0  0  0  0  0  0  0  0  0  0  # atno 17395 bound_to 11000

$$$$
