AV-unprocessed.smi:422|AV-procd|sdf|2537|dock8
  -GOLD-   2262022493D 1   1.00000     0.00000
 Structure written by MMmdl.
 43 45  0  0  0  0  0  0  0  0  1 V2000
  150.6635  141.2627  156.2949 C   0  0  0  0  0  0  0  0  0  0  0  0
  151.3513  141.3983  157.5732 N   0  0  0  0  0  0  0  0  0  0  0  0
  151.8931  140.4022  158.3122 C   0  0  0  0  0  0  0  0  0  0  0  0
  151.8917  139.2049  158.0262 O   0  0  0  0  0  0  0  0  0  0  0  0
  152.4209  140.9504  159.4318 N   0  0  0  0  0  0  0  0  0  0  0  0
  153.0897  140.2365  160.5172 C   0  0  0  0  0  0  0  0  0  0  0  0
  154.4432  139.6527  160.0637 C   0  0  1  0  0  0  0  0  0  0  0  0
  155.1704  140.6135  159.3248 O   0  0  0  0  0  0  0  0  0  0  0  0
  155.3278  139.1966  161.2363 C   0  0  0  0  0  0  0  0  0  0  0  0
  155.6109  140.2936  162.0912 O   0  0  0  0  0  0  0  0  0  0  0  0
  154.6250  140.4828  163.0908 C   0  0  0  0  0  0  0  0  0  0  0  0
  154.8380  141.7892  163.8292 C   0  0  0  0  0  0  0  0  0  0  0  0
  153.9691  142.8772  163.6017 C   0  0  0  0  0  0  0  0  0  0  0  0
  154.1602  144.0920  164.2886 C   0  0  0  0  0  0  0  0  0  0  0  0
  155.2196  144.2230  165.2070 C   0  0  0  0  0  0  0  0  0  0  0  0
  156.0872  143.1382  165.4388 C   0  0  0  0  0  0  0  0  0  0  0  0
  155.8976  141.9224  164.7529 C   0  0  0  0  0  0  0  0  0  0  0  0
  156.7365  140.8845  164.9863 F   0  0  0  0  0  0  0  0  0  0  0  0
  152.1870  142.3331  159.4204 C   0  0  0  0  0  0  0  0  0  0  0  0
  152.5101  143.3351  160.3522 C   0  0  0  0  0  0  0  0  0  0  0  0
  152.1205  144.6585  160.0391 C   0  0  0  0  0  0  0  0  0  0  0  0
  151.4303  144.9474  158.8329 C   0  0  0  0  0  0  0  0  0  0  0  0
  151.1142  143.9190  157.9144 C   0  0  0  0  0  0  0  0  0  0  0  0
  151.5147  142.6142  158.2496 C   0  0  0  0  0  0  0  0  0  0  0  0
  150.9036  140.3187  155.8042 H   0  0  0  0  0  0  0  0  0  0  0  0
  150.9480  142.0687  155.6181 H   0  0  0  0  0  0  0  0  0  0  0  0
  149.5842  141.3048  156.4436 H   0  0  0  0  0  0  0  0  0  0  0  0
  153.2114  140.8794  161.3910 H   0  0  0  0  0  0  0  0  0  0  0  0
  152.4301  139.4298  160.8390 H   0  0  0  0  0  0  0  0  0  0  0  0
  154.2807  138.7925  159.4125 H   0  0  0  0  0  0  0  0  0  0  0  0
  156.0613  140.6253  159.6404 H   0  0  0  0  0  0  0  0  0  0  0  0
  154.7937  138.4367  161.8091 H   0  0  0  0  0  0  0  0  0  0  0  0
  156.2476  138.7351  160.8724 H   0  0  0  0  0  0  0  0  0  0  0  0
  153.6296  140.4826  162.6433 H   0  0  0  0  0  0  0  0  0  0  0  0
  154.6533  139.6552  163.8017 H   0  0  0  0  0  0  0  0  0  0  0  0
  153.1523  142.7825  162.9011 H   0  0  0  0  0  0  0  0  0  0  0  0
  153.4931  144.9228  164.1115 H   0  0  0  0  0  0  0  0  0  0  0  0
  155.3662  145.1541  165.7341 H   0  0  0  0  0  0  0  0  0  0  0  0
  156.8990  143.2383  166.1442 H   0  0  0  0  0  0  0  0  0  0  0  0
  153.0317  143.1092  161.2707 H   0  0  0  0  0  0  0  0  0  0  0  0
  152.3498  145.4586  160.7275 H   0  0  0  0  0  0  0  0  0  0  0  0
  151.1406  145.9646  158.6141 H   0  0  0  0  0  0  0  0  0  0  0  0
  150.5858  144.1313  156.9968 H   0  0  0  0  0  0  0  0  0  0  0  0
  1  2  1  0  0  0  0
  1 25  1  0  0  0  0
  1 26  1  0  0  0  0
  1 27  1  0  0  0  0
  2 24  1  0  0  0  0
  2  3  1  0  0  0  0
  3  4  2  0  0  0  0
  3  5  1  0  0  0  0
  5  6  1  0  0  0  0
  5 19  1  0  0  0  0
  6  7  1  0  0  0  0
  6 28  1  0  0  0  0
  6 29  1  0  0  0  0
  7  8  1  0  0  0  0
  7  9  1  0  0  0  0
  7 30  1  0  0  0  0
  8 31  1  0  0  0  0
  9 10  1  0  0  0  0
  9 32  1  0  0  0  0
  9 33  1  0  0  0  0
 10 11  1  0  0  0  0
 11 12  1  0  0  0  0
 11 34  1  0  0  0  0
 11 35  1  0  0  0  0
 12 17  1  0  0  0  0
 12 13  2  0  0  0  0
 13 14  1  0  0  0  0
 13 36  1  0  0  0  0
 14 15  2  0  0  0  0
 14 37  1  0  0  0  0
 15 16  1  0  0  0  0
 15 38  1  0  0  0  0
 16 17  2  0  0  0  0
 16 39  1  0  0  0  0
 17 18  1  0  0  0  0
 19 24  2  0  0  0  0
 19 20  1  0  0  0  0
 20 21  2  0  0  0  0
 20 40  1  0  0  0  0
 21 22  1  0  0  0  0
 21 41  1  0  0  0  0
 22 23  2  0  0  0  0
 22 42  1  0  0  0  0
 23 24  1  0  0  0  0
 23 43  1  0  0  0  0
M  END
> <s_m_source_file>
AV-unprocessed.smi

> <i_m_source_file_index>
422

> <i_lp_mmshare_version>
43012

> <i_f3d_flags>
0

> <s_epik_input>
W2NIXTFbY0hdW2NIXVtjSF1jKGMxMiluKFtDSDNdKWMoPU8pbjJbQ0gyXVtDQEhdKFtPSF0pW0NIMl1PW0NIMl1jM1tjSF1bY0hdW2NIXVtjSF1jM0Y=

> <s_epik_cmdline>
J2VwaWtfcHl0aG9uJywgJy1waCcsICc3LjAnLCAnLXRuJywgJzgnLCAnLW1hJywgJzIwMCcsICctbWV0YWxfYmluZGluZycsICctaW1hZScsICc8aW5maWxlLm1hZT4nLCAnLW9tYWUnLCAnPG91dGZpbGUubWFlPic=

> <r_lp_tautomer_probability>
1

> <r_epik_Ionization_Penalty>
1.0795e-06

> <r_epik_Ionization_Penalty_Charging>
2.82452e-09

> <r_epik_Ionization_Penalty_Neutral>
1.07667e-06

> <r_epik_State_Penalty>
-0

> <r_epik_Charging_Adjusted_Penalty>
2.82452e-09

> <i_epik_Tot_Q>
0

> <i_epik_Tot_abs_Q>
0

> <r_epik_Metal_State_Penalty>
-0

> <b_epik_Metal_Only>
0

> <s_lp_Force_Field>
OPLS_2005

> <r_lp_Energy>
48.6782

> <b_lp_Chiralities_Consistent>
1

> <s_lp_Variant>
AV-unprocessed.smi:422-2

> <Gold.Version>
5.8.1

> <Gold.Id.Protein>
6NUR|6NUR_protein|mol2

> <Gold.PLP.Fitness>
51.2984

> <Gold.PLP.PLP>
-50.8774

> <Gold.PLP.part.hbond>
-2.0000

> <Gold.PLP.part.metal>
0.0000

> <Gold.PLP.part.buried>
-3.0857

> <Gold.PLP.part.nonpolar>
-45.1167

> <Gold.PLP.part.repulsive>
0.0000

> <Gold.PLP.ligand.clash>
0.0000

> <Gold.PLP.ligand.torsion>
0.4941

> <Gold.PLP.Chemscore.Hbond>
0.4233

> <Gold.PLP.Chemscore.CHOScore>
0.0000

> <Gold.PLP.Chemscore.Metal>
0.0000

> <Gold.Chemscore.Hbonds>
donor molecule, donor type, donor heavy atom, donor atom, acceptor molecule, acceptor atom, score
      P1  H  7997  8010       L1     8  0.71

> <Gold.PLP.Chemscore.Internal.Correction>
0.1393

> <Gold.Rescore>
     Score         DG    S(hbond)    S(metal)    S(lipo)     H(rot)  DE(clash)    DE(int)     intcor
     17.98     -20.11       0.56        0.00     161.10       2.38       1.61       0.52       ----

> <Gold.Chemscore.Fitness>
17.9758

> <Gold.Chemscore.DG>
-20.1058

> <Gold.Chemscore.ZeroCoef>
-5.4800

> <Gold.Chemscore.Hbond>
0.5607

> <Gold.Chemscore.Metal>
0.0000

> <Gold.Chemscore.Lipo>
161.0952

> <Gold.Chemscore.Internal_Hbond>
0.0000

> <Gold.Chemscore.DEClash>
1.6149

> <Gold.Chemscore.DEInternal>
0.5151

> <Gold.Chemscore.Rot>
2.3809

> <Gold.Chemscore.Internal.Correction>
   9.000000E+99

> <Gold.Chemscore.Hbonds>
donor molecule, donor type, donor heavy atom, donor atom, acceptor molecule, acceptor atom, score
      P1  H  7997  8010       L1     8  0.26

> <Gold.Chemscore.Hbond.Weighted>
-1.8728

> <Gold.Chemscore.Metal.Weighted>
-0.0000

> <Gold.Chemscore.Lipo.Weighted>
-18.8481

> <Gold.Chemscore.Internal_Hbond.Weighted>
0.0000

> <Gold.Chemscore.DEClash.Weighted>
1.6149

> <Gold.Chemscore.DEInternal.Weighted>
0.5151

> <Gold.Chemscore.Rot.Weighted>
6.0951

> <Gold.Chemscore.Internal.Correction.Weighted>
   9.000000E+99

> <Gold.Protein.RotatedTorsions>
[ 6907 6896 6895 6894 ] final   58.90 input  -60.11 | X-H torsion
[ 7974 7965 7964 7962 ] final  -95.75 input  175.53 | X-H torsion
[ 8008 7997 7996 7995 ] final  -11.74 input   59.86 | X-H torsion
[ 10167 10162 10161 10158 ] final   16.47 input  -65.29 | X-H torsion
[ 10718 10713 10712 10709 ] final   76.68 input   66.30 | X-H torsion
[ 10763 10752 10751 10750 ] final  -56.54 input  -60.55 | X-H torsion
[ 11005 11000 10999 10996 ] final   -1.47 input  -57.11 | X-H torsion

> <Gold.Protein.ActiveResidues>
 VAL166  LYS551  ARG553  GLY616  TRP617  ASP618  TYR619  PRO620  LYS621  CYS622 
 ASP623  PHE694  ASN695  SER759  ASP760  ASP761  ALA762  ILE779  LEU786  VAL792 
 PHE793  MET794  SER795  GLU796  ALA797  LYS798  CYS799  TRP800  GLU811  SER814 

> <Gold.Protein.RotatedAtoms>
  152.3866  134.6508  160.0123 H   0  0  0  0  0  0  0  0  0  0  0  0  # atno 6907 bound_to 6896
  151.6754  133.3307  159.3214 H   0  0  0  0  0  0  0  0  0  0  0  0  # atno 6908 bound_to 6896
  150.7791  134.6763  159.6464 H   0  0  0  0  0  0  0  0  0  0  0  0  # atno 6909 bound_to 6896
  145.3559  140.9484  143.2528 H   0  0  0  0  0  0  0  0  0  0  0  0  # atno 7974 bound_to 7965
  154.5438  140.2294  155.8597 H   0  0  0  0  0  0  0  0  0  0  0  0  # atno 8008 bound_to 7997
  156.1883  140.3083  155.9244 H   0  0  0  0  0  0  0  0  0  0  0  0  # atno 8009 bound_to 7997
  155.3205  140.0440  157.3029 H   0  0  0  0  0  0  0  0  0  0  0  0  # atno 8010 bound_to 7997
  140.5795  143.9008  150.6778 H   0  0  0  0  0  0  0  0  0  0  0  0  # atno 10167 bound_to 10162
  157.6682  130.9785  150.1531 H   0  0  0  0  0  0  0  0  0  0  0  0  # atno 10718 bound_to 10713
  154.2083  135.6399  153.5107 H   0  0  0  0  0  0  0  0  0  0  0  0  # atno 10763 bound_to 10752
  152.9996  135.5468  154.6242 H   0  0  0  0  0  0  0  0  0  0  0  0  # atno 10764 bound_to 10752
  154.5672  135.2914  155.0836 H   0  0  0  0  0  0  0  0  0  0  0  0  # atno 10765 bound_to 10752
  140.6477  133.9432  155.8362 H   0  0  0  0  0  0  0  0  0  0  0  0  # atno 11005 bound_to 11000
  144.8682  139.5076  143.6780 LP  0  0  0  0  0  0  0  0  0  0  0  0  # atno 17320 bound_to 7965
  146.2948  139.7245  142.9135 LP  0  0  0  0  0  0  0  0  0  0  0  0  # atno 17321 bound_to 7965
  140.2504  143.3597  152.1411 LP  0  0  0  0  0  0  0  0  0  0  0  0  # atno 17342 bound_to 10162
  139.5161  144.6973  151.5593 LP  0  0  0  0  0  0  0  0  0  0  0  0  # atno 17343 bound_to 10162
  156.2325  130.3683  149.8428 LP  0  0  0  0  0  0  0  0  0  0  0  0  # atno 17370 bound_to 10713
  156.6251  130.8642  151.3483 LP  0  0  0  0  0  0  0  0  0  0  0  0  # atno 17371 bound_to 10713
  141.0560  134.0416  157.3722 LP  0  0  0  0  0  0  0  0  0  0  0  0  # atno 17394 bound_to 11000
  139.9057  135.0178  156.7474 LP  0  0  0  0  0  0  0  0  0  0  0  0  # atno 17395 bound_to 11000

$$$$
