AV-unprocessed.smi:1827|AV-procd|sdf|7419|dock6
  -GOLD-   22720 9103D 1   1.00000     0.00000
 Structure written by MMmdl.
 43 44  0  0  0  0  0  0  0  0  1 V2000
  140.5262  137.5927  154.2116 C   0  0  0  0  0  0  0  0  0  0  0  0
  141.5097  136.4705  154.0249 C   0  0  0  0  0  0  0  0  0  0  0  0
  141.0794  135.2206  154.1382 N   0  0  0  0  0  0  0  0  0  0  0  0
  142.1585  134.4592  153.8567 N   0  0  0  0  0  0  0  0  0  0  0  0
  143.2860  135.1917  153.5612 C   0  0  0  0  0  0  0  0  0  0  0  0
  144.5868  134.5533  153.2043 C   0  0  0  0  0  0  0  0  0  0  0  0
  142.9002  136.4943  153.6919 C   0  0  0  0  0  0  0  0  0  0  0  0
  143.7437  137.6071  153.4506 N   0  0  0  0  0  0  0  0  0  0  0  0
  145.0319  137.7316  153.8035 C   0  0  0  0  0  0  0  0  0  0  0  0
  145.6961  136.8601  154.3642 O   0  0  0  0  0  0  0  0  0  0  0  0
  145.5223  138.9278  153.4493 N   0  0  0  0  0  0  0  0  0  0  0  0
  146.8885  139.3814  153.6906 C   0  0  0  0  0  0  0  0  0  0  0  0
  147.3163  139.0959  155.1397 C   0  0  0  0  0  0  0  0  0  0  0  0
  148.7013  139.6956  155.4364 C   0  0  0  0  0  0  0  0  0  0  0  0
  148.6993  141.1433  155.2024 N   0  0  0  0  0  0  0  0  0  0  0  0
  150.0035  141.7061  155.6211 C   0  0  0  0  0  0  0  0  0  0  0  0
  150.2107  141.7678  157.1393 C   0  0  0  0  0  0  0  0  0  0  0  0
  150.1384  142.9695  157.7170 N   0  0  0  0  0  0  0  0  0  0  0  0
  150.4281  140.7425  157.7813 O   0  0  0  0  0  0  0  0  0  0  0  0
  148.3857  141.4301  153.7948 C   0  0  0  0  0  0  0  0  0  0  0  0
  146.9909  140.8909  153.4306 C   0  0  0  0  0  0  0  0  0  0  0  0
  142.1082  133.4503  153.8630 H   0  0  0  0  0  0  0  0  0  0  0  0
  140.7669  138.4403  153.5701 H   0  0  0  0  0  0  0  0  0  0  0  0
  140.5221  137.9417  155.2443 H   0  0  0  0  0  0  0  0  0  0  0  0
  139.5112  137.2789  153.9657 H   0  0  0  0  0  0  0  0  0  0  0  0
  145.3051  135.2931  152.8511 H   0  0  0  0  0  0  0  0  0  0  0  0
  144.4518  133.8137  152.4150 H   0  0  0  0  0  0  0  0  0  0  0  0
  145.0199  134.0508  154.0693 H   0  0  0  0  0  0  0  0  0  0  0  0
  143.3539  138.3439  152.8816 H   0  0  0  0  0  0  0  0  0  0  0  0
  144.9036  139.5773  152.9864 H   0  0  0  0  0  0  0  0  0  0  0  0
  147.5655  138.8650  153.0071 H   0  0  0  0  0  0  0  0  0  0  0  0
  146.5847  139.5122  155.8342 H   0  0  0  0  0  0  0  0  0  0  0  0
  147.3375  138.0209  155.3219 H   0  0  0  0  0  0  0  0  0  0  0  0
  148.9565  139.4895  156.4767 H   0  0  0  0  0  0  0  0  0  0  0  0
  149.4623  139.2111  154.8218 H   0  0  0  0  0  0  0  0  0  0  0  0
  150.8086  141.0902  155.2177 H   0  0  0  0  0  0  0  0  0  0  0  0
  150.1303  142.7010  155.1895 H   0  0  0  0  0  0  0  0  0  0  0  0
  150.2687  143.0593  158.7140 H   0  0  0  0  0  0  0  0  0  0  0  0
  149.9536  143.7855  157.1516 H   0  0  0  0  0  0  0  0  0  0  0  0
  148.3910  142.5032  153.6052 H   0  0  0  0  0  0  0  0  0  0  0  0
  149.1436  140.9906  153.1441 H   0  0  0  0  0  0  0  0  0  0  0  0
  146.7771  141.1037  152.3826 H   0  0  0  0  0  0  0  0  0  0  0  0
  146.2368  141.4222  154.0136 H   0  0  0  0  0  0  0  0  0  0  0  0
  1  2  1  0  0  0  0
  1 23  1  0  0  0  0
  1 24  1  0  0  0  0
  1 25  1  0  0  0  0
  2  7  1  0  0  0  0
  2  3  2  0  0  0  0
  3  4  1  0  0  0  0
  4 22  1  0  0  0  0
  4  5  1  0  0  0  0
  5  6  1  0  0  0  0
  5  7  2  0  0  0  0
  6 26  1  0  0  0  0
  6 27  1  0  0  0  0
  6 28  1  0  0  0  0
  7  8  1  0  0  0  0
  8  9  1  0  0  0  0
  8 29  1  0  0  0  0
  9 10  2  0  0  0  0
  9 11  1  0  0  0  0
 11 12  1  0  0  0  0
 11 30  1  0  0  0  0
 12 21  1  0  0  0  0
 12 13  1  0  0  0  0
 12 31  1  0  0  0  0
 13 14  1  0  0  0  0
 13 32  1  0  0  0  0
 13 33  1  0  0  0  0
 14 15  1  0  0  0  0
 14 34  1  0  0  0  0
 14 35  1  0  0  0  0
 15 16  1  0  0  0  0
 15 20  1  0  0  0  0
 16 17  1  0  0  0  0
 16 36  1  0  0  0  0
 16 37  1  0  0  0  0
 17 18  1  0  0  0  0
 17 19  2  0  0  0  0
 18 38  1  0  0  0  0
 18 39  1  0  0  0  0
 20 21  1  0  0  0  0
 20 40  1  0  0  0  0
 20 41  1  0  0  0  0
 21 42  1  0  0  0  0
 21 43  1  0  0  0  0
M  END
> <s_m_source_file>
AV-unprocessed.smi

> <i_m_source_file_index>
1827

> <i_lp_mmshare_version>
43012

> <i_f3d_flags>
0

> <s_epik_input>
W0NIM11jMW5bbkhdYyhbQ0gzXSljMVtOSF1DKD1PKVtOSF1bQ0hdMltDSDJdW0NIMl1OKFtDSDJdW0NIMl0yKVtDSDJdQyg9TylbTkgyXQ==

> <s_epik_cmdline>
J2VwaWtfcHl0aG9uJywgJy1waCcsICc3LjAnLCAnLXRuJywgJzgnLCAnLW1hJywgJzIwMCcsICctbWV0YWxfYmluZGluZycsICctaW1hZScsICc8aW5maWxlLm1hZT4nLCAnLW9tYWUnLCAnPG91dGZpbGUubWFlPic=

> <r_lp_tautomer_probability>
0.5

> <r_epik_Ionization_Penalty>
0.165173

> <r_epik_Ionization_Penalty_Charging>
0

> <r_epik_Ionization_Penalty_Neutral>
0.165173

> <r_epik_State_Penalty>
0.154069

> <r_epik_Charging_Adjusted_Penalty>
0.154069

> <i_epik_Tot_Q>
0

> <i_epik_Tot_abs_Q>
0

> <r_epik_Metal_State_Penalty>
0.171338

> <b_epik_Metal_Only>
0

> <s_lp_Force_Field>
OPLS_2005

> <r_lp_Energy>
14.0389

> <b_lp_Chiralities_Consistent>
1

> <s_lp_Variant>
AV-unprocessed.smi:1827-1

> <Gold.Version>
5.8.1

> <Gold.Id.Protein>
6NUR|6NUR_protein|mol2

> <Gold.PLP.Fitness>
39.4696

> <Gold.PLP.PLP>
-26.8612

> <Gold.PLP.part.hbond>
-5.0243

> <Gold.PLP.part.metal>
0.0000

> <Gold.PLP.part.buried>
-4.5900

> <Gold.PLP.part.nonpolar>
-16.8612

> <Gold.PLP.part.repulsive>
0.4057

> <Gold.PLP.ligand.clash>
0.0000

> <Gold.PLP.ligand.torsion>
0.6983

> <Gold.PLP.Chemscore.Hbond>
4.5700

> <Gold.PLP.Chemscore.CHOScore>
0.0000

> <Gold.PLP.Chemscore.Metal>
0.0000

> <Gold.Chemscore.Hbonds>
donor molecule, donor type, donor heavy atom, donor atom, acceptor molecule, acceptor atom, score
      L1  H     4    22       P1 10957  0.94
      L1  H     8    29       P1 10175  0.57
      L1  H    11    30       P1 10175  1.00
      L1  H    18    39       P1  8028  0.98
      P1  H 11000 11005       L1     3  1.00

> <Gold.PLP.Chemscore.Internal.Correction>
0.2952

> <Gold.Rescore>
     Score         DG    S(hbond)    S(metal)    S(lipo)     H(rot)  DE(clash)    DE(int)     intcor
     16.37     -19.60       3.88        0.00      52.81       1.96       0.11       3.12       ----

> <Gold.Chemscore.Fitness>
16.3746

> <Gold.Chemscore.DG>
-19.6035

> <Gold.Chemscore.ZeroCoef>
-5.4800

> <Gold.Chemscore.Hbond>
3.8822

> <Gold.Chemscore.Metal>
0.0000

> <Gold.Chemscore.Lipo>
52.8072

> <Gold.Chemscore.Internal_Hbond>
0.0000

> <Gold.Chemscore.DEClash>
0.1123

> <Gold.Chemscore.DEInternal>
3.1166

> <Gold.Chemscore.Rot>
1.9616

> <Gold.Chemscore.Internal.Correction>
   9.000000E+99

> <Gold.Chemscore.Hbonds>
donor molecule, donor type, donor heavy atom, donor atom, acceptor molecule, acceptor atom, score
      L1  H     4    22       P1 10957  0.88
      L1  H     8    29       P1 10175  0.58
      L1  H    11    30       P1 10175  0.99
      L1  H    18    39       P1  8028  0.81
      P1  H 11000 11005       L1     3  0.32

> <Gold.Chemscore.Hbond.Weighted>
-12.9667

> <Gold.Chemscore.Metal.Weighted>
-0.0000

> <Gold.Chemscore.Lipo.Weighted>
-6.1784

> <Gold.Chemscore.Internal_Hbond.Weighted>
0.0000

> <Gold.Chemscore.DEClash.Weighted>
0.1123

> <Gold.Chemscore.DEInternal.Weighted>
3.1166

> <Gold.Chemscore.Rot.Weighted>
5.0216

> <Gold.Chemscore.Internal.Correction.Weighted>
   9.000000E+99

> <Gold.Protein.RotatedTorsions>
[ 6907 6896 6895 6894 ] final  116.98 input  -60.11 | X-H torsion
[ 7974 7965 7964 7962 ] final  -99.66 input  175.53 | X-H torsion
[ 8008 7997 7996 7995 ] final   88.24 input   59.86 | X-H torsion
[ 10167 10162 10161 10158 ] final   -6.51 input  -65.29 | X-H torsion
[ 10718 10713 10712 10709 ] final   34.78 input   66.30 | X-H torsion
[ 10763 10752 10751 10750 ] final   67.84 input  -60.55 | X-H torsion
[ 11005 11000 10999 10996 ] final   28.78 input  -57.11 | X-H torsion

> <Gold.Protein.ActiveResidues>
 VAL166  LYS551  ARG553  GLY616  TRP617  ASP618  TYR619  PRO620  LYS621  CYS622 
 ASP623  PHE694  ASN695  SER759  ASP760  ASP761  ALA762  ILE779  LEU786  VAL792 
 PHE793  MET794  SER795  GLU796  ALA797  LYS798  CYS799  TRP800  GLU811  SER814 

> <Gold.Protein.RotatedAtoms>
  152.4642  133.7887  159.6889 H   0  0  0  0  0  0  0  0  0  0  0  0  # atno 6907 bound_to 6896
  150.8599  133.7650  159.3002 H   0  0  0  0  0  0  0  0  0  0  0  0  # atno 6908 bound_to 6896
  151.5218  135.1070  159.9932 H   0  0  0  0  0  0  0  0  0  0  0  0  # atno 6909 bound_to 6896
  145.3046  140.9386  143.2804 H   0  0  0  0  0  0  0  0  0  0  0  0  # atno 7974 bound_to 7965
  155.9854  140.3373  155.6702 H   0  0  0  0  0  0  0  0  0  0  0  0  # atno 8008 bound_to 7997
  155.6493  140.0704  157.2610 H   0  0  0  0  0  0  0  0  0  0  0  0  # atno 8009 bound_to 7997
  154.4203  140.1728  156.1644 H   0  0  0  0  0  0  0  0  0  0  0  0  # atno 8010 bound_to 7997
  140.6999  143.6185  150.8635 H   0  0  0  0  0  0  0  0  0  0  0  0  # atno 10167 bound_to 10162
  157.3146  130.7417  149.6746 H   0  0  0  0  0  0  0  0  0  0  0  0  # atno 10718 bound_to 10713
  153.0206  135.5269  154.7042 H   0  0  0  0  0  0  0  0  0  0  0  0  # atno 10763 bound_to 10752
  154.6142  135.2881  155.0400 H   0  0  0  0  0  0  0  0  0  0  0  0  # atno 10764 bound_to 10752
  154.1410  135.6578  153.4995 H   0  0  0  0  0  0  0  0  0  0  0  0  # atno 10765 bound_to 10752
  140.3120  134.2639  155.7732 H   0  0  0  0  0  0  0  0  0  0  0  0  # atno 11005 bound_to 11000
  144.9065  139.4582  143.6607 LP  0  0  0  0  0  0  0  0  0  0  0  0  # atno 17320 bound_to 7965
  146.3140  139.7849  142.8998 LP  0  0  0  0  0  0  0  0  0  0  0  0  # atno 17321 bound_to 7965
  139.9907  143.5850  152.2911 LP  0  0  0  0  0  0  0  0  0  0  0  0  # atno 17342 bound_to 10162
  139.6504  144.7660  151.2159 LP  0  0  0  0  0  0  0  0  0  0  0  0  # atno 17343 bound_to 10162
  155.9680  130.4241  150.4593 LP  0  0  0  0  0  0  0  0  0  0  0  0  # atno 17370 bound_to 10713
  157.2598  131.0564  151.2327 LP  0  0  0  0  0  0  0  0  0  0  0  0  # atno 17371 bound_to 10713
  141.2106  133.7714  156.9921 LP  0  0  0  0  0  0  0  0  0  0  0  0  # atno 17394 bound_to 11000
  140.1017  134.9531  157.1932 LP  0  0  0  0  0  0  0  0  0  0  0  0  # atno 17395 bound_to 11000

$$$$
