AV-unprocessed.smi:1036|AV-procd|sdf|4518|dock9
  -GOLD-   22720 2533D 1   1.00000     0.00000
 Structure written by MMmdl.
 41 43  0  0  0  0  0  0  0  0  1 V2000
  147.7266  138.2386  151.4339 O   0  0  0  0  0  0  0  0  0  0  0  0
  146.4362  138.6763  151.7989 C   0  0  0  0  0  0  0  0  0  0  0  0
  145.9854  137.9604  153.0801 C   0  0  0  0  0  0  0  0  0  0  0  0
  146.1789  136.5235  153.0058 N   0  0  0  0  0  0  0  0  0  0  0  0
  145.6936  135.5658  152.1230 C   0  0  0  0  0  0  0  0  0  0  0  0
  144.8927  135.8453  151.0963 N   0  0  0  0  0  0  0  0  0  0  0  0
  144.6922  134.5997  150.5320 C   0  0  0  0  0  0  0  0  0  0  0  0
  143.9338  134.2146  149.4032 C   0  0  0  0  0  0  0  0  0  0  0  0
  143.8768  132.8615  149.0094 C   0  0  0  0  0  0  0  0  0  0  0  0
  144.5750  131.8758  149.7368 C   0  0  0  0  0  0  0  0  0  0  0  0
  145.3372  132.2373  150.8641 C   0  0  0  0  0  0  0  0  0  0  0  0
  145.3914  133.5889  151.2531 C   0  0  0  0  0  0  0  0  0  0  0  0
  146.0371  134.2649  152.2840 N   0  0  0  0  0  0  0  0  0  0  0  0
  146.8988  133.6668  153.2956 C   0  0  0  0  0  0  0  0  0  0  0  0
  146.3072  132.3622  153.8640 C   0  0  2  0  0  0  0  0  0  0  0  0
  146.0839  132.5484  155.2471 O   0  0  0  0  0  0  0  0  0  0  0  0
  147.1860  131.1498  153.5759 C   0  0  0  0  0  0  0  0  0  0  0  0
  146.7021  130.0927  152.7730 C   0  0  0  0  0  0  0  0  0  0  0  0
  147.5099  128.9699  152.5110 C   0  0  0  0  0  0  0  0  0  0  0  0
  147.0379  127.9620  151.7406 F   0  0  0  0  0  0  0  0  0  0  0  0
  148.8057  128.8922  153.0549 C   0  0  0  0  0  0  0  0  0  0  0  0
  149.2906  129.9358  153.8653 C   0  0  0  0  0  0  0  0  0  0  0  0
  148.4855  131.0615  154.1262 C   0  0  0  0  0  0  0  0  0  0  0  0
  148.9665  132.0528  154.9143 F   0  0  0  0  0  0  0  0  0  0  0  0
  148.3422  138.9281  151.6305 H   0  0  0  0  0  0  0  0  0  0  0  0
  146.4982  139.7490  151.9834 H   0  0  0  0  0  0  0  0  0  0  0  0
  145.7336  138.5332  150.9769 H   0  0  0  0  0  0  0  0  0  0  0  0
  146.4898  138.3626  153.9592 H   0  0  0  0  0  0  0  0  0  0  0  0
  144.9190  138.1332  153.2287 H   0  0  0  0  0  0  0  0  0  0  0  0
  146.7702  136.1576  153.7378 H   0  0  0  0  0  0  0  0  0  0  0  0
  143.3949  134.9615  148.8392 H   0  0  0  0  0  0  0  0  0  0  0  0
  143.2945  132.5784  148.1449 H   0  0  0  0  0  0  0  0  0  0  0  0
  144.5253  130.8417  149.4283 H   0  0  0  0  0  0  0  0  0  0  0  0
  145.8744  131.4851  151.4225 H   0  0  0  0  0  0  0  0  0  0  0  0
  147.8950  133.4969  152.8860 H   0  0  0  0  0  0  0  0  0  0  0  0
  147.0231  134.3981  154.0955 H   0  0  0  0  0  0  0  0  0  0  0  0
  145.3234  132.1971  153.4239 H   0  0  0  0  0  0  0  0  0  0  0  0
  145.7079  133.4058  155.3769 H   0  0  0  0  0  0  0  0  0  0  0  0
  145.7068  130.1373  152.3560 H   0  0  0  0  0  0  0  0  0  0  0  0
  149.4243  128.0294  152.8569 H   0  0  0  0  0  0  0  0  0  0  0  0
  150.2820  129.8723  154.2890 H   0  0  0  0  0  0  0  0  0  0  0  0
  1  2  1  0  0  0  0
  1 25  1  0  0  0  0
  2  3  1  0  0  0  0
  2 26  1  0  0  0  0
  2 27  1  0  0  0  0
  3  4  1  0  0  0  0
  3 28  1  0  0  0  0
  3 29  1  0  0  0  0
  4  5  1  0  0  0  0
  4 30  1  0  0  0  0
  5 13  1  0  0  0  0
  5  6  2  0  0  0  0
  6  7  1  0  0  0  0
  7 12  2  0  0  0  0
  7  8  1  0  0  0  0
  8  9  2  0  0  0  0
  8 31  1  0  0  0  0
  9 10  1  0  0  0  0
  9 32  1  0  0  0  0
 10 11  2  0  0  0  0
 10 33  1  0  0  0  0
 11 12  1  0  0  0  0
 11 34  1  0  0  0  0
 12 13  1  0  0  0  0
 13 14  1  0  0  0  0
 14 15  1  0  0  0  0
 14 35  1  0  0  0  0
 14 36  1  0  0  0  0
 15 16  1  0  0  0  0
 15 17  1  0  0  0  0
 15 37  1  0  0  0  0
 16 38  1  0  0  0  0
 17 23  1  0  0  0  0
 17 18  2  0  0  0  0
 18 19  1  0  0  0  0
 18 39  1  0  0  0  0
 19 20  1  0  0  0  0
 19 21  2  0  0  0  0
 21 22  1  0  0  0  0
 21 40  1  0  0  0  0
 22 23  2  0  0  0  0
 22 41  1  0  0  0  0
 23 24  1  0  0  0  0
M  END
> <s_m_source_file>
AV-unprocessed.smi

> <i_m_source_file_index>
1036

> <i_lp_mmshare_version>
43012

> <i_f3d_flags>
0

> <s_epik_input>
W09IXVtDSDJdW0NIMl1bTkhdYyhuMSluKGMoYzEyKVtjSF1bY0hdW2NIXVtjSF0yKVtDSDJdW0NASF0oW09IXSljM1tjSF1jKEYpW2NIXVtjSF1jM0Y=

> <s_epik_cmdline>
J2VwaWtfcHl0aG9uJywgJy1waCcsICc3LjAnLCAnLXRuJywgJzgnLCAnLW1hJywgJzIwMCcsICctbWV0YWxfYmluZGluZycsICctaW1hZScsICc8aW5maWxlLm1hZT4nLCAnLW9tYWUnLCAnPG91dGZpbGUubWFlPic=

> <r_epik_Ionization_Penalty>
1.30972

> <r_epik_Ionization_Penalty_Charging>
0

> <r_epik_Ionization_Penalty_Neutral>
1.30972

> <r_epik_State_Penalty>
1.38438

> <r_epik_Charging_Adjusted_Penalty>
1.38438

> <i_epik_Tot_Q>
0

> <i_epik_Tot_abs_Q>
0

> <r_epik_Metal_State_Penalty>
0.00551145

> <b_epik_Metal_Only>
0

> <s_lp_Force_Field>
OPLS_2005

> <r_lp_Energy>
9.11105

> <b_lp_Chiralities_Consistent>
1

> <s_lp_Variant>
AV-unprocessed.smi:1036-3

> <Gold.Version>
5.8.1

> <Gold.Id.Protein>
6NUR|6NUR_protein|mol2

> <Gold.PLP.Fitness>
44.6772

> <Gold.PLP.PLP>
-40.6618

> <Gold.PLP.part.hbond>
-3.4831

> <Gold.PLP.part.metal>
0.0000

> <Gold.PLP.part.buried>
2.9218

> <Gold.PLP.part.nonpolar>
-40.0448

> <Gold.PLP.part.repulsive>
0.2360

> <Gold.PLP.ligand.clash>
0.0000

> <Gold.PLP.ligand.torsion>
1.0022

> <Gold.PLP.Chemscore.Hbond>
2.0000

> <Gold.PLP.Chemscore.CHOScore>
0.0000

> <Gold.PLP.Chemscore.Metal>
0.0000

> <Gold.Chemscore.Hbonds>
donor molecule, donor type, donor heavy atom, donor atom, acceptor molecule, acceptor atom, score
      L1  H     1    25       P1  7957  0.99
      P1  H  7954  7966       L1     1  1.00

> <Gold.PLP.Chemscore.Internal.Correction>
0.0197

> <Gold.Rescore>
     Score         DG    S(hbond)    S(metal)    S(lipo)     H(rot)  DE(clash)    DE(int)     intcor
     10.40     -14.37       1.29        0.00     109.50       3.22       1.72       2.24       ----

> <Gold.Chemscore.Fitness>
10.4018

> <Gold.Chemscore.DG>
-14.3653

> <Gold.Chemscore.ZeroCoef>
-5.4800

> <Gold.Chemscore.Hbond>
1.2922

> <Gold.Chemscore.Metal>
0.0000

> <Gold.Chemscore.Lipo>
109.4958

> <Gold.Chemscore.Internal_Hbond>
0.0000

> <Gold.Chemscore.DEClash>
1.7208

> <Gold.Chemscore.DEInternal>
2.2427

> <Gold.Chemscore.Rot>
3.2194

> <Gold.Chemscore.Internal.Correction>
   9.000000E+99

> <Gold.Chemscore.Hbonds>
donor molecule, donor type, donor heavy atom, donor atom, acceptor molecule, acceptor atom, score
      L1  H     1    25       P1  7957  0.70
      P1  H  7954  7966       L1     1  0.25

> <Gold.Chemscore.Hbond.Weighted>
-4.3159

> <Gold.Chemscore.Metal.Weighted>
-0.0000

> <Gold.Chemscore.Lipo.Weighted>
-12.8110

> <Gold.Chemscore.Internal_Hbond.Weighted>
0.0000

> <Gold.Chemscore.DEClash.Weighted>
1.7208

> <Gold.Chemscore.DEInternal.Weighted>
2.2427

> <Gold.Chemscore.Rot.Weighted>
8.2416

> <Gold.Chemscore.Internal.Correction.Weighted>
   9.000000E+99

> <Gold.Protein.RotatedTorsions>
[ 6907 6896 6895 6894 ] final -159.25 input  -60.11 | X-H torsion
[ 7974 7965 7964 7962 ] final  -14.31 input  175.53 | X-H torsion
[ 8008 7997 7996 7995 ] final  118.42 input   59.86 | X-H torsion
[ 10167 10162 10161 10158 ] final   37.22 input  -65.29 | X-H torsion
[ 10718 10713 10712 10709 ] final  141.21 input   66.30 | X-H torsion
[ 10763 10752 10751 10750 ] final  -88.15 input  -60.55 | X-H torsion
[ 11005 11000 10999 10996 ] final -115.53 input  -57.11 | X-H torsion

> <Gold.Protein.ActiveResidues>
 VAL166  LYS551  ARG553  GLY616  TRP617  ASP618  TYR619  PRO620  LYS621  CYS622 
 ASP623  PHE694  ASN695  SER759  ASP760  ASP761  ALA762  ILE779  LEU786  VAL792 
 PHE793  MET794  SER795  GLU796  ALA797  LYS798  CYS799  TRP800  GLU811  SER814 

> <Gold.Protein.RotatedAtoms>
  151.3306  133.4002  159.2662 H   0  0  0  0  0  0  0  0  0  0  0  0  # atno 6907 bound_to 6896
  150.9959  134.9283  159.7936 H   0  0  0  0  0  0  0  0  0  0  0  0  # atno 6908 bound_to 6896
  152.5261  134.3271  159.9222 H   0  0  0  0  0  0  0  0  0  0  0  0  # atno 6909 bound_to 6896
  146.2079  140.3329  142.8401 H   0  0  0  0  0  0  0  0  0  0  0  0  # atno 7974 bound_to 7965
  156.2545  140.2875  156.0831 H   0  0  0  0  0  0  0  0  0  0  0  0  # atno 8008 bound_to 7997
  155.1544  140.0398  157.2846 H   0  0  0  0  0  0  0  0  0  0  0  0  # atno 8009 bound_to 7997
  154.6437  140.2528  155.7299 H   0  0  0  0  0  0  0  0  0  0  0  0  # atno 8010 bound_to 7997
  140.4053  144.1667  150.6136 H   0  0  0  0  0  0  0  0  0  0  0  0  # atno 10167 bound_to 10162
  157.3946  131.1009  151.0613 H   0  0  0  0  0  0  0  0  0  0  0  0  # atno 10718 bound_to 10713
  154.6414  135.5387  153.7793 H   0  0  0  0  0  0  0  0  0  0  0  0  # atno 10763 bound_to 10752
  153.0335  135.6460  154.1155 H   0  0  0  0  0  0  0  0  0  0  0  0  # atno 10764 bound_to 10752
  154.1079  135.2929  155.3217 H   0  0  0  0  0  0  0  0  0  0  0  0  # atno 10765 bound_to 10752
  141.0482  133.9729  157.2882 H   0  0  0  0  0  0  0  0  0  0  0  0  # atno 11005 bound_to 11000
  144.8839  140.7437  143.5969 LP  0  0  0  0  0  0  0  0  0  0  0  0  # atno 17320 bound_to 7965
  145.3250  139.1777  143.4567 LP  0  0  0  0  0  0  0  0  0  0  0  0  # atno 17321 bound_to 7965
  140.4696  143.2418  151.9108 LP  0  0  0  0  0  0  0  0  0  0  0  0  # atno 17342 bound_to 10162
  139.4783  144.5384  151.8565 LP  0  0  0  0  0  0  0  0  0  0  0  0  # atno 17343 bound_to 10162
  157.1634  130.6235  149.5618 LP  0  0  0  0  0  0  0  0  0  0  0  0  # atno 17370 bound_to 10713
  155.9807  130.4809  150.6787 LP  0  0  0  0  0  0  0  0  0  0  0  0  # atno 17371 bound_to 10713
  139.9328  135.0199  156.8459 LP  0  0  0  0  0  0  0  0  0  0  0  0  # atno 17394 bound_to 11000
  140.6107  134.0085  155.7575 LP  0  0  0  0  0  0  0  0  0  0  0  0  # atno 17395 bound_to 11000

$$$$
