AV-unprocessed.smi:1905|AV-procd|sdf|7726|dock6
  -GOLD-   22720 9463D 1   1.00000     0.00000
 Structure written by MMmdl.
 38 39  0  0  0  0  0  0  0  0  1 V2000
  152.5794  138.5640  154.6865 C   0  0  0  0  0  0  0  0  0  0  0  0
  151.2359  138.0447  155.2036 C   0  0  0  0  0  0  0  0  0  0  0  0
  150.2560  138.2265  154.1863 O   0  0  0  0  0  0  0  0  0  0  0  0
  149.4966  139.3814  154.1926 C   0  0  0  0  0  0  0  0  0  0  0  0
  150.0483  140.5135  154.6969 N   0  0  0  0  0  0  0  0  0  0  0  0
  149.3099  141.6418  154.7000 C   0  0  0  0  0  0  0  0  0  0  0  0
  147.9967  141.7036  154.1998 C   0  0  0  0  0  0  0  0  0  0  0  0
  147.4219  140.5307  153.6760 C   0  0  0  0  0  0  0  0  0  0  0  0
  148.1802  139.3339  153.6765 C   0  0  0  0  0  0  0  0  0  0  0  0
  147.7147  138.0903  153.1635 N   0  0  0  0  0  0  0  0  0  0  0  0
  146.4750  137.5716  153.1751 C   0  0  0  0  0  0  0  0  0  0  0  0
  145.4789  138.1036  153.6635 O   0  0  0  0  0  0  0  0  0  0  0  0
  146.4544  136.3671  152.5876 N   0  0  0  0  0  0  0  0  0  0  0  0
  145.2712  135.5281  152.4287 C   0  0  0  0  0  0  0  0  0  0  0  0
  145.2627  134.7722  151.0854 C   0  0  1  0  0  0  0  0  0  0  0  0
  146.4894  133.8947  150.8621 C   0  0  0  0  0  0  0  0  0  0  0  0
  145.9401  132.6370  150.1799 C   0  0  0  0  0  0  0  0  0  0  0  0
  144.5799  132.9268  149.8910 O   0  0  0  0  0  0  0  0  0  0  0  0
  144.1073  133.7876  150.9122 C   0  0  0  0  0  0  0  0  0  0  0  0
  153.3589  138.4471  155.4397 H   0  0  0  0  0  0  0  0  0  0  0  0
  152.5174  139.6219  154.4305 H   0  0  0  0  0  0  0  0  0  0  0  0
  152.8913  138.0203  153.7944 H   0  0  0  0  0  0  0  0  0  0  0  0
  151.3280  136.9888  155.4633 H   0  0  0  0  0  0  0  0  0  0  0  0
  150.9538  138.5924  156.1044 H   0  0  0  0  0  0  0  0  0  0  0  0
  149.7817  142.5225  155.1099 H   0  0  0  0  0  0  0  0  0  0  0  0
  147.4435  142.6310  154.2147 H   0  0  0  0  0  0  0  0  0  0  0  0
  146.4211  140.5825  153.2784 H   0  0  0  0  0  0  0  0  0  0  0  0
  148.4329  137.4986  152.7721 H   0  0  0  0  0  0  0  0  0  0  0  0
  147.3208  136.0055  152.2164 H   0  0  0  0  0  0  0  0  0  0  0  0
  145.2043  134.8232  153.2588 H   0  0  0  0  0  0  0  0  0  0  0  0
  144.3947  136.1727  152.5000 H   0  0  0  0  0  0  0  0  0  0  0  0
  145.2154  135.4905  150.2651 H   0  0  0  0  0  0  0  0  0  0  0  0
  147.2246  134.4051  150.2390 H   0  0  0  0  0  0  0  0  0  0  0  0
  146.9785  133.6289  151.8001 H   0  0  0  0  0  0  0  0  0  0  0  0
  146.4860  132.3810  149.2718 H   0  0  0  0  0  0  0  0  0  0  0  0
  145.9877  131.7832  150.8572 H   0  0  0  0  0  0  0  0  0  0  0  0
  143.9311  133.2140  151.8238 H   0  0  0  0  0  0  0  0  0  0  0  0
  143.1761  134.2765  150.6249 H   0  0  0  0  0  0  0  0  0  0  0  0
  1  2  1  0  0  0  0
  1 20  1  0  0  0  0
  1 21  1  0  0  0  0
  1 22  1  0  0  0  0
  2  3  1  0  0  0  0
  2 23  1  0  0  0  0
  2 24  1  0  0  0  0
  3  4  1  0  0  0  0
  4  9  1  0  0  0  0
  4  5  2  0  0  0  0
  5  6  1  0  0  0  0
  6  7  2  0  0  0  0
  6 25  1  0  0  0  0
  7  8  1  0  0  0  0
  7 26  1  0  0  0  0
  8  9  2  0  0  0  0
  8 27  1  0  0  0  0
  9 10  1  0  0  0  0
 10 11  1  0  0  0  0
 10 28  1  0  0  0  0
 11 12  2  0  0  0  0
 11 13  1  0  0  0  0
 13 14  1  0  0  0  0
 13 29  1  0  0  0  0
 14 15  1  0  0  0  0
 14 30  1  0  0  0  0
 14 31  1  0  0  0  0
 15 19  1  0  0  0  0
 15 16  1  0  0  0  0
 15 32  1  0  0  0  0
 16 17  1  0  0  0  0
 16 33  1  0  0  0  0
 16 34  1  0  0  0  0
 17 18  1  0  0  0  0
 17 35  1  0  0  0  0
 17 36  1  0  0  0  0
 18 19  1  0  0  0  0
 19 37  1  0  0  0  0
 19 38  1  0  0  0  0
M  END
> <s_m_source_file>
AV-unprocessed.smi

> <i_m_source_file_index>
1905

> <i_lp_mmshare_version>
43012

> <i_f3d_flags>
0

> <s_epik_input>
W0NIM11bQ0gyXU9jMW5bY0hdW2NIXVtjSF1jMVtOSF1DKD1PKVtOSF1bQ0gyXVtDQEBIXTJbQ0gyXVtDSDJdT1tDSDJdMg==

> <s_epik_cmdline>
J2VwaWtfcHl0aG9uJywgJy1waCcsICc3LjAnLCAnLXRuJywgJzgnLCAnLW1hJywgJzIwMCcsICctbWV0YWxfYmluZGluZycsICctaW1hZScsICc8aW5maWxlLm1hZT4nLCAnLW9tYWUnLCAnPG91dGZpbGUubWFlPic=

> <r_lp_tautomer_probability>
1

> <r_epik_Ionization_Penalty>
0.000115153

> <r_epik_Ionization_Penalty_Charging>
0

> <r_epik_Ionization_Penalty_Neutral>
0.000115153

> <r_epik_State_Penalty>
-0

> <r_epik_Charging_Adjusted_Penalty>
0

> <i_epik_Tot_Q>
0

> <i_epik_Tot_abs_Q>
0

> <r_epik_Metal_State_Penalty>
-0

> <b_epik_Metal_Only>
0

> <s_lp_Force_Field>
OPLS_2005

> <r_lp_Energy>
21.5364

> <b_lp_Chiralities_Consistent>
1

> <s_lp_Variant>
AV-unprocessed.smi:1905-2

> <Gold.Version>
5.8.1

> <Gold.Id.Protein>
6NUR|6NUR_protein|mol2

> <Gold.PLP.Fitness>
43.1913

> <Gold.PLP.PLP>
-33.4418

> <Gold.PLP.part.hbond>
-3.0000

> <Gold.PLP.part.metal>
0.0000

> <Gold.PLP.part.buried>
-2.4380

> <Gold.PLP.part.nonpolar>
-27.8226

> <Gold.PLP.part.repulsive>
0.7450

> <Gold.PLP.ligand.clash>
0.0000

> <Gold.PLP.ligand.torsion>
0.9960

> <Gold.PLP.Chemscore.Hbond>
2.9120

> <Gold.PLP.Chemscore.CHOScore>
1.0000

> <Gold.PLP.Chemscore.Metal>
0.0000

> <Gold.Chemscore.Hbonds>
donor molecule, donor type, donor heavy atom, donor atom, acceptor molecule, acceptor atom, score
      L1  H    10    28       P1  7948  1.00
      L1  H    13    29       P1  7948  1.00
      P1  H  7989  7998       L1     5  0.90
      L1  C     6    25       P1  8028  1.00

> <Gold.PLP.Chemscore.Internal.Correction>
0.0055

> <Gold.Rescore>
     Score         DG    S(hbond)    S(metal)    S(lipo)     H(rot)  DE(clash)    DE(int)     intcor
     16.20     -17.33       2.15        0.00      75.18       1.61       0.14       0.99       ----

> <Gold.Chemscore.Fitness>
16.2024

> <Gold.Chemscore.DG>
-17.3321

> <Gold.Chemscore.ZeroCoef>
-5.4800

> <Gold.Chemscore.Hbond>
2.1513

> <Gold.Chemscore.Metal>
0.0000

> <Gold.Chemscore.Lipo>
75.1840

> <Gold.Chemscore.Internal_Hbond>
0.0000

> <Gold.Chemscore.DEClash>
0.1381

> <Gold.Chemscore.DEInternal>
0.9917

> <Gold.Chemscore.Rot>
1.6131

> <Gold.Chemscore.Internal.Correction>
   9.000000E+99

> <Gold.Chemscore.Hbonds>
donor molecule, donor type, donor heavy atom, donor atom, acceptor molecule, acceptor atom, score
      L1  H    10    28       P1  7948  0.97
      L1  H    13    29       P1  7948  0.95
      P1  H  7989  7998       L1     5  0.21

> <Gold.Chemscore.Hbond.Weighted>
-7.1853

> <Gold.Chemscore.Metal.Weighted>
-0.0000

> <Gold.Chemscore.Lipo.Weighted>
-8.7965

> <Gold.Chemscore.Internal_Hbond.Weighted>
0.0000

> <Gold.Chemscore.DEClash.Weighted>
0.1381

> <Gold.Chemscore.DEInternal.Weighted>
0.9917

> <Gold.Chemscore.Rot.Weighted>
4.1296

> <Gold.Chemscore.Internal.Correction.Weighted>
   9.000000E+99

> <Gold.Protein.RotatedTorsions>
[ 6907 6896 6895 6894 ] final   74.68 input  -60.11 | X-H torsion
[ 7974 7965 7964 7962 ] final  -41.87 input  175.53 | X-H torsion
[ 8008 7997 7996 7995 ] final -134.04 input   59.86 | X-H torsion
[ 10167 10162 10161 10158 ] final -142.70 input  -65.29 | X-H torsion
[ 10718 10713 10712 10709 ] final   15.46 input   66.30 | X-H torsion
[ 10763 10752 10751 10750 ] final   37.79 input  -60.55 | X-H torsion
[ 11005 11000 10999 10996 ] final  163.16 input  -57.11 | X-H torsion

> <Gold.Protein.ActiveResidues>
 VAL166  LYS551  ARG553  GLY616  TRP617  ASP618  TYR619  PRO620  LYS621  CYS622 
 ASP623  PHE694  ASN695  SER759  ASP760  ASP761  ALA762  ILE779  LEU786  VAL792 
 PHE793  MET794  SER795  GLU796  ALA797  LYS798  CYS799  TRP800  GLU811  SER814 

> <Gold.Protein.RotatedAtoms>
  152.4988  134.4234  159.9487 H   0  0  0  0  0  0  0  0  0  0  0  0  # atno 6907 bound_to 6896
  151.4208  133.3692  159.2764 H   0  0  0  0  0  0  0  0  0  0  0  0  # atno 6908 bound_to 6896
  150.9224  134.8663  159.7557 H   0  0  0  0  0  0  0  0  0  0  0  0  # atno 6909 bound_to 6896
  146.0170  140.6896  142.9196 H   0  0  0  0  0  0  0  0  0  0  0  0  # atno 7974 bound_to 7965
  155.3555  140.0480  157.3046 H   0  0  0  0  0  0  0  0  0  0  0  0  # atno 8008 bound_to 7997
  154.5205  140.2223  155.8949 H   0  0  0  0  0  0  0  0  0  0  0  0  # atno 8009 bound_to 7997
  156.1684  140.3101  155.8935 H   0  0  0  0  0  0  0  0  0  0  0  0  # atno 8010 bound_to 7997
  139.8064  143.7763  152.2661 H   0  0  0  0  0  0  0  0  0  0  0  0  # atno 10167 bound_to 10162
  157.0538  130.6281  149.5773 H   0  0  0  0  0  0  0  0  0  0  0  0  # atno 10718 bound_to 10713
  153.0024  135.6268  154.2201 H   0  0  0  0  0  0  0  0  0  0  0  0  # atno 10763 bound_to 10752
  154.1944  135.2807  155.3013 H   0  0  0  0  0  0  0  0  0  0  0  0  # atno 10764 bound_to 10752
  154.5734  135.5669  153.7175 H   0  0  0  0  0  0  0  0  0  0  0  0  # atno 10765 bound_to 10752
  140.2330  134.8109  157.3336 H   0  0  0  0  0  0  0  0  0  0  0  0  # atno 11005 bound_to 11000
  144.6975  140.3499  143.7184 LP  0  0  0  0  0  0  0  0  0  0  0  0  # atno 17320 bound_to 7965
  145.7253  139.1721  143.2461 LP  0  0  0  0  0  0  0  0  0  0  0  0  # atno 17321 bound_to 7965
  139.7899  144.7414  150.9970 LP  0  0  0  0  0  0  0  0  0  0  0  0  # atno 17342 bound_to 10162
  140.7819  143.4453  151.0491 LP  0  0  0  0  0  0  0  0  0  0  0  0  # atno 17343 bound_to 10162
  155.9999  130.5076  150.7624 LP  0  0  0  0  0  0  0  0  0  0  0  0  # atno 17370 bound_to 10713
  157.5009  131.0918  151.0316 LP  0  0  0  0  0  0  0  0  0  0  0  0  # atno 17371 bound_to 10713
  140.1730  134.4584  155.7819 LP  0  0  0  0  0  0  0  0  0  0  0  0  # atno 17394 bound_to 11000
  141.2216  133.6950  156.7740 LP  0  0  0  0  0  0  0  0  0  0  0  0  # atno 17395 bound_to 11000

$$$$
