#       Name:                AV-unprocessed.smi:2751
#       Creating user name   scv26
#       Creation time:       Fri Mar 27 15:05:05 2020


#       File generated by GOLD software.
#

@<TRIPOS>MOLECULE
AV-unprocessed.smi:2751
    41    42     1
SMALL
NO_CHARGES


@<TRIPOS>ATOM
      1 ****        -1.5491   1.5783   0.5435 O.2            1 S1                 0.0000
      2 ****        -2.0222   0.5598   1.0491 C.2            1 S1                 0.0000
      3 ****        -1.2812  -0.4897   1.4352 N.am           1 S1                 0.0000
      4 ****         0.1693  -0.5793   1.3074 C.3            1 S1                 0.0000
      5 ****         0.5873  -0.9881  -0.1157 C.3            1 S1                 0.0000
      6 ****         2.1094  -1.1273  -0.2764 C.3            1 S1                 0.0000
      7 ****         2.4914  -1.6760  -1.6650 C.3            1 S1                 0.0000
      8 ****         4.0146  -1.7243  -1.8277 C.3            1 S1                 0.0000
      9 ****         4.6113  -0.3493  -1.5107 C.3            1 S1                 0.0000
     10 ****         4.1250   0.1393  -0.1373 C.3            1 S1                 0.0000
     11 ****         2.7011   0.1593  -0.1047 O.3            1 S1                 0.0000
     12 ****        -3.3297   0.3541   1.2813 N.am           1 S1                 0.0000
     13 ****        -4.3993   1.2398   0.9944 C.2            1 S1                 0.0000
     14 ****        -4.3155   2.4487   0.4341 N.pl3          1 S1                 1.0000
     15 ****        -5.5765   2.9797   0.3303 C.2            1 S1                 0.0000
     16 ****        -6.4224   2.0323   0.8541 C.2            1 S1                 0.0000
     17 ****        -5.6968   0.9349   1.2748 O.3            1 S1                 0.0000
     18 ****        -1.7493  -1.2862   1.8428 H              1 S1                 0.0000
     19 ****         0.6287   0.3701   1.5875 H              1 S1                 0.0000
     20 ****         0.5260  -1.3186   2.0250 H              1 S1                 0.0000
     21 ****         0.1132  -1.9386  -0.3640 H              1 S1                 0.0000
     22 ****         0.2142  -0.2610  -0.8382 H              1 S1                 0.0000
     23 ****         2.4859  -1.8021   0.4947 H              1 S1                 0.0000
     24 ****         2.0714  -2.6720  -1.8079 H              1 S1                 0.0000
     25 ****         2.0629  -1.0414  -2.4419 H              1 S1                 0.0000
     26 ****         4.4334  -2.4714  -1.1525 H              1 S1                 0.0000
     27 ****         4.2802  -2.0309  -2.8397 H              1 S1                 0.0000
     28 ****         5.7004  -0.3956  -1.5324 H              1 S1                 0.0000
     29 ****         4.3126   0.3660  -2.2781 H              1 S1                 0.0000
     30 ****         4.5087  -0.4976   0.6611 H              1 S1                 0.0000
     31 ****         4.4955   1.1464   0.0542 H              1 S1                 0.0000
     32 ****        -3.4777   2.9263   0.1240 H              1 S1                 0.0000
     33 ****        -5.7422   3.9583  -0.0971 H              1 S1                 0.0000
     34 ****        -7.4928   1.9835   0.9931 H              1 S1                 0.0000
     35 ****        -3.5872  -0.5258   1.7035 H              1 S1                 0.0000
     36 ****        -2.1522   2.3287   0.2731 LP             1 S1                 0.0000
     37 ****        -0.5619   1.6548   0.4034 LP             1 S1                 0.0000
     38 ****         2.4099   0.5261   0.7788 LP             1 S1                 0.0000
     39 ****         2.3762   0.7573  -0.8374 LP             1 S1                 0.0000
     40 ****        -5.8189   0.7884   2.2564 LP             1 S1                 0.0000
     41 ****        -5.9802   0.1148   0.7776 LP             1 S1                 0.0000
@<TRIPOS>BOND
    1    1    2 2     
    2    2   12 am    
    3    2    3 am    
    4    3    4 1     
    5    3   18 1     
    6    4    5 1     
    7    4   19 1     
    8    4   20 1     
    9    5    6 1     
   10    5   21 1     
   11    5   22 1     
   12    6   11 1     
   13    6    7 1     
   14    6   23 1     
   15    7    8 1     
   16    7   24 1     
   17    7   25 1     
   18    8    9 1     
   19    8   26 1     
   20    8   27 1     
   21    9   10 1     
   22    9   28 1     
   23    9   29 1     
   24   10   11 1     
   25   10   30 1     
   26   10   31 1     
   27   12   13 1     
   28   12   35 1     
   29   13   17 1     
   30   13   14 2     
   31   14   32 1     
   32   14   15 1     
   33   15   33 1     
   34   15   16 2     
   35   16   34 1     
   36   16   17 1     
   37    1   36 1     
   38    1   37 1     
   39   11   38 1     
   40   11   39 1     
   41   17   40 1     
   42   17   41 1     
@<TRIPOS>SUBSTRUCTURE
      1 S1             1
@<TRIPOS>SET
LONE_PAIRS      STATIC     ATOMS    <user>   **** ""
6 36 37 38 39 40 41
DONOR_HYDROGENS      STATIC     ATOMS    <user>   **** ""
3 18 35 32
ATOM$BLUE        STATIC     ATOMS    COLORGROUP SYSTEM
6 36 37 38 39 40 41
ATOM$RED        STATIC     ATOMS    COLORGROUP SYSTEM
3 18 35 32
