AV-unprocessed.smi:686|AV-procd|sdf|3339|dock5
  -GOLD-   22720 0313D 1   1.00000     0.00000
 Structure written by MMmdl.
 41 42  0  0  0  0  0  0  0  0  2 V2000
  147.1136  140.9418  152.9633 C   0  0  0  0  0  0  0  0  0  0  0  0
  147.4717  139.4496  152.9462 C   0  0  2  0  0  0  0  0  0  0  0  0
  146.5111  138.5947  152.1196 C   0  0  0  0  0  0  0  0  0  0  0  0
  146.6541  137.2279  152.6600 N   0  3  2  0  0  0  0  0  0  0  0  0
  145.5844  136.2683  152.2640 C   0  0  0  0  0  0  0  0  0  0  0  0
  145.5979  136.0114  150.7453 C   0  0  0  0  0  0  0  0  0  0  0  0
  144.1902  136.7640  152.6917 C   0  0  0  0  0  0  0  0  0  0  0  0
  146.8340  137.3990  154.1195 C   0  0  0  0  0  0  0  0  0  0  0  0
  147.4665  138.7868  154.3337 C   0  0  1  0  0  0  0  0  0  0  0  0
  148.8339  138.6763  154.8495 N   0  0  0  0  0  0  0  0  0  0  0  0
  149.5820  140.0931  155.4900 S   0  0  0  0  0  0  0  0  0  0  0  0
  150.9734  140.1073  155.0144 O   0  0  0  0  0  0  0  0  0  0  0  0
  148.6982  141.2339  155.2038 O   0  0  0  0  0  0  0  0  0  0  0  0
  149.5634  139.7722  157.3039 C   0  0  0  0  0  0  0  0  0  0  0  0
  150.9564  139.8953  157.8516 C   0  0  0  0  0  0  0  0  0  0  0  0
  151.4224  140.7334  158.9024 C   0  0  0  0  0  0  0  0  0  0  0  0
  152.7523  140.4356  158.9812 C   0  0  0  0  0  0  0  0  0  0  0  0
  153.0835  139.4942  158.0615 O   0  0  0  0  0  0  0  0  0  0  0  0
  151.9298  139.1545  157.3461 N   0  0  0  0  0  0  0  0  0  0  0  0
  146.1194  141.1081  153.3792 H   0  0  0  0  0  0  0  0  0  0  0  0
  147.1280  141.3591  151.9561 H   0  0  0  0  0  0  0  0  0  0  0  0
  147.8254  141.5061  153.5664 H   0  0  0  0  0  0  0  0  0  0  0  0
  148.4623  139.3398  152.5003 H   0  0  0  0  0  0  0  0  0  0  0  0
  145.4831  138.9346  152.2587 H   0  0  0  0  0  0  0  0  0  0  0  0
  146.7449  138.6428  151.0556 H   0  0  0  0  0  0  0  0  0  0  0  0
  145.7730  135.3197  152.7693 H   0  0  0  0  0  0  0  0  0  0  0  0
  144.7881  135.3412  150.4553 H   0  0  0  0  0  0  0  0  0  0  0  0
  146.5261  135.5434  150.4172 H   0  0  0  0  0  0  0  0  0  0  0  0
  145.4742  136.9387  150.1850 H   0  0  0  0  0  0  0  0  0  0  0  0
  143.4117  136.0802  152.3516 H   0  0  0  0  0  0  0  0  0  0  0  0
  143.9720  137.7468  152.2723 H   0  0  0  0  0  0  0  0  0  0  0  0
  144.0948  136.8317  153.7753 H   0  0  0  0  0  0  0  0  0  0  0  0
  145.8641  137.3680  154.6187 H   0  0  0  0  0  0  0  0  0  0  0  0
  147.4386  136.5878  154.5268 H   0  0  0  0  0  0  0  0  0  0  0  0
  146.8623  139.3646  155.0354 H   0  0  0  0  0  0  0  0  0  0  0  0
  149.4441  138.2221  154.1698 H   0  0  0  0  0  0  0  0  0  0  0  0
  148.8954  140.4933  157.7744 H   0  0  0  0  0  0  0  0  0  0  0  0
  149.1536  138.7762  157.4751 H   0  0  0  0  0  0  0  0  0  0  0  0
  150.8696  141.4417  159.5015 H   0  0  0  0  0  0  0  0  0  0  0  0
  153.5566  140.7906  159.6085 H   0  0  0  0  0  0  0  0  0  0  0  0
  147.5299  136.8724  152.3039 H   0  0  0  0  0  0  0  0  0  0  0  0
  1  2  1  0  0  0  0
  1 20  1  0  0  0  0
  1 21  1  0  0  0  0
  1 22  1  0  0  0  0
  2  9  1  0  0  0  0
  2  3  1  0  0  0  0
  2 23  1  0  0  0  0
  3  4  1  0  0  0  0
  3 24  1  0  0  0  0
  3 25  1  0  0  0  0
  4  5  1  0  0  0  0
  4  8  1  0  0  0  0
  4 41  1  0  0  0  0
  5  6  1  0  0  0  0
  5  7  1  0  0  0  0
  5 26  1  0  0  0  0
  6 27  1  0  0  0  0
  6 28  1  0  0  0  0
  6 29  1  0  0  0  0
  7 30  1  0  0  0  0
  7 31  1  0  0  0  0
  7 32  1  0  0  0  0
  8  9  1  0  0  0  0
  8 33  1  0  0  0  0
  8 34  1  0  0  0  0
  9 10  1  0  0  0  0
  9 35  1  0  0  0  0
 10 11  1  0  0  0  0
 10 36  1  0  0  0  0
 11 12  2  0  0  0  0
 11 13  2  0  0  0  0
 11 14  1  0  0  0  0
 14 15  1  0  0  0  0
 14 37  1  0  0  0  0
 14 38  1  0  0  0  0
 15 19  2  0  0  0  0
 15 16  1  0  0  0  0
 16 17  2  0  0  0  0
 16 39  1  0  0  0  0
 17 18  1  0  0  0  0
 17 40  1  0  0  0  0
 18 19  1  0  0  0  0
M  CHG  1   4   1
M  END
> <s_m_source_file>
AV-unprocessed.smi

> <i_m_source_file_index>
686

> <i_lp_mmshare_version>
43012

> <i_f3d_flags>
0

> <s_epik_input>
W0NIM11bQ0BASF0xW0NIMl1OKFtDSF0oW0NIM10pW0NIM10pW0NIMl1bQ0BIXTFbTkhdUyg9TykoPU8pW0NIMl1jMltjSF1bY0hdb24y

> <s_epik_cmdline>
J2VwaWtfcHl0aG9uJywgJy1waCcsICc3LjAnLCAnLXRuJywgJzgnLCAnLW1hJywgJzIwMCcsICctbWV0YWxfYmluZGluZycsICctaW1hZScsICc8aW5maWxlLm1hZT4nLCAnLW9tYWUnLCAnPG91dGZpbGUubWFlPic=

> <r_epik_Ionization_Penalty>
0.00200818

> <r_epik_Ionization_Penalty_Charging>
0.000701289

> <r_epik_Ionization_Penalty_Neutral>
0.00130689

> <r_epik_State_Penalty>
0.00131314

> <r_epik_Charging_Adjusted_Penalty>
0.00201443

> <i_epik_Tot_Q>
1

> <i_epik_Tot_abs_Q>
1

> <r_epik_Metal_State_Penalty>
0.310831

> <b_epik_Metal_Only>
0

> <s_lp_Force_Field>
OPLS_2005

> <r_lp_Energy>
20.8584

> <b_lp_Chiralities_Consistent>
1

> <s_lp_Variant>
AV-unprocessed.smi:686-3

> <Gold.Version>
5.8.1

> <Gold.Id.Protein>
6NUR|6NUR_protein|mol2

> <Gold.PLP.Fitness>
37.8430

> <Gold.PLP.PLP>
-26.5794

> <Gold.PLP.part.hbond>
-3.0000

> <Gold.PLP.part.metal>
0.0000

> <Gold.PLP.part.buried>
-2.6957

> <Gold.PLP.part.nonpolar>
-20.4808

> <Gold.PLP.part.repulsive>
0.2092

> <Gold.PLP.ligand.clash>
0.0000

> <Gold.PLP.ligand.torsion>
0.4667

> <Gold.PLP.Chemscore.Hbond>
4.0000

> <Gold.PLP.Chemscore.CHOScore>
0.0000

> <Gold.PLP.Chemscore.Metal>
0.0000

> <Gold.Chemscore.Hbonds>
donor molecule, donor type, donor heavy atom, donor atom, acceptor molecule, acceptor atom, score
      L1  H     4    41       P1  7948  2.00
      P1  H  7989  7998       L1    12  1.00
      P1  H  7997  8009       L1    18  1.00

> <Gold.PLP.Chemscore.Internal.Correction>
0.1970

> <Gold.Rescore>
     Score         DG    S(hbond)    S(metal)    S(lipo)     H(rot)  DE(clash)    DE(int)     intcor
     13.91     -17.58       2.93        0.00      61.72       1.91       0.21       3.45       ----

> <Gold.Chemscore.Fitness>
13.9147

> <Gold.Chemscore.DG>
-17.5775

> <Gold.Chemscore.ZeroCoef>
-5.4800

> <Gold.Chemscore.Hbond>
2.9252

> <Gold.Chemscore.Metal>
0.0000

> <Gold.Chemscore.Lipo>
61.7162

> <Gold.Chemscore.Internal_Hbond>
0.0000

> <Gold.Chemscore.DEClash>
0.2086

> <Gold.Chemscore.DEInternal>
3.4541

> <Gold.Chemscore.Rot>
1.9115

> <Gold.Chemscore.Internal.Correction>
   9.000000E+99

> <Gold.Chemscore.Hbonds>
donor molecule, donor type, donor heavy atom, donor atom, acceptor molecule, acceptor atom, score
      L1  H     4    41       P1  7948  0.99
      P1  H  7989  7998       L1    12  1.00
      P1  H  7997  8009       L1    18  0.72

> <Gold.Chemscore.Hbond.Weighted>
-9.7702

> <Gold.Chemscore.Metal.Weighted>
-0.0000

> <Gold.Chemscore.Lipo.Weighted>
-7.2208

> <Gold.Chemscore.Internal_Hbond.Weighted>
0.0000

> <Gold.Chemscore.DEClash.Weighted>
0.2086

> <Gold.Chemscore.DEInternal.Weighted>
3.4541

> <Gold.Chemscore.Rot.Weighted>
4.8935

> <Gold.Chemscore.Internal.Correction.Weighted>
   9.000000E+99

> <Gold.Protein.RotatedTorsions>
[ 6907 6896 6895 6894 ] final  -83.63 input  -60.11 | X-H torsion
[ 7974 7965 7964 7962 ] final   -4.24 input  175.53 | X-H torsion
[ 8008 7997 7996 7995 ] final  159.52 input   59.86 | X-H torsion
[ 10167 10162 10161 10158 ] final -102.20 input  -65.29 | X-H torsion
[ 10718 10713 10712 10709 ] final  -90.98 input   66.30 | X-H torsion
[ 10763 10752 10751 10750 ] final  -19.31 input  -60.55 | X-H torsion
[ 11005 11000 10999 10996 ] final   47.16 input  -57.11 | X-H torsion

> <Gold.Protein.ActiveResidues>
 VAL166  LYS551  ARG553  GLY616  TRP617  ASP618  TYR619  PRO620  LYS621  CYS622 
 ASP623  PHE694  ASN695  SER759  ASP760  ASP761  ALA762  ILE779  LEU786  VAL792 
 PHE793  MET794  SER795  GLU796  ALA797  LYS798  CYS799  TRP800  GLU811  SER814 

> <Gold.Protein.RotatedAtoms>
  150.6883  134.3483  159.4897 H   0  0  0  0  0  0  0  0  0  0  0  0  # atno 6907 bound_to 6896
  152.1327  134.9120  160.0567 H   0  0  0  0  0  0  0  0  0  0  0  0  # atno 6908 bound_to 6896
  152.0283  133.3892  159.4324 H   0  0  0  0  0  0  0  0  0  0  0  0  # atno 6909 bound_to 6896
  146.2376  140.1842  142.8332 H   0  0  0  0  0  0  0  0  0  0  0  0  # atno 7974 bound_to 7965
  156.2233  140.1829  156.7424 H   0  0  0  0  0  0  0  0  0  0  0  0  # atno 8008 bound_to 7997
  154.5900  140.0652  156.9254 H   0  0  0  0  0  0  0  0  0  0  0  0  # atno 8009 bound_to 7997
  155.2352  140.3318  155.4301 H   0  0  0  0  0  0  0  0  0  0  0  0  # atno 8010 bound_to 7997
  140.2332  143.3591  152.0868 H   0  0  0  0  0  0  0  0  0  0  0  0  # atno 10167 bound_to 10162
  155.9991  130.4930  150.5405 H   0  0  0  0  0  0  0  0  0  0  0  0  # atno 10718 bound_to 10713
  153.6027  135.6999  153.5378 H   0  0  0  0  0  0  0  0  0  0  0  0  # atno 10763 bound_to 10752
  153.3083  135.4108  155.1313 H   0  0  0  0  0  0  0  0  0  0  0  0  # atno 10764 bound_to 10752
  154.8579  135.3666  154.5563 H   0  0  0  0  0  0  0  0  0  0  0  0  # atno 10765 bound_to 10752
  140.1304  134.4714  155.8526 H   0  0  0  0  0  0  0  0  0  0  0  0  # atno 11005 bound_to 11000
  144.9910  140.8547  143.5339 LP  0  0  0  0  0  0  0  0  0  0  0  0  # atno 17320 bound_to 7965
  145.1848  139.2332  143.5274 LP  0  0  0  0  0  0  0  0  0  0  0  0  # atno 17321 bound_to 7965
  139.5102  144.6881  151.5833 LP  0  0  0  0  0  0  0  0  0  0  0  0  # atno 17342 bound_to 10162
  140.6169  143.9331  150.6496 LP  0  0  0  0  0  0  0  0  0  0  0  0  # atno 17343 bound_to 10162
  157.3342  131.0705  151.1837 LP  0  0  0  0  0  0  0  0  0  0  0  0  # atno 17370 bound_to 10713
  157.2708  130.6703  149.6018 LP  0  0  0  0  0  0  0  0  0  0  0  0  # atno 17371 bound_to 10713
  141.2169  133.6793  156.7057 LP  0  0  0  0  0  0  0  0  0  0  0  0  # atno 17394 bound_to 11000
  140.2850  134.8286  157.3967 LP  0  0  0  0  0  0  0  0  0  0  0  0  # atno 17395 bound_to 11000

$$$$
