AV-unprocessed.smi:965|AV-procd|sdf|4282|dock2
  -GOLD-   22720 2183D 1   1.00000     0.00000
 Structure written by MMmdl.
 29 30  0  0  0  0  0  0  0  0  2 V2000
  150.8763  138.3968  154.8813 C   0  0  0  0  0  0  0  0  0  0  0  0
  152.2498  138.9379  155.2915 C   0  0  0  0  0  0  0  0  0  0  0  0
  152.2014  139.7161  156.5637 C   0  0  0  0  0  0  0  0  0  0  0  0
  151.4941  140.8171  156.8060 N   0  0  0  0  0  0  0  0  0  0  0  0
  151.8878  141.1079  158.0776 C   0  0  0  0  0  0  0  0  0  0  0  0
  151.3677  142.2857  158.8432 C   0  0  1  0  0  0  0  0  0  0  0  0
  152.5024  143.1942  159.3534 C   0  0  0  0  0  0  0  0  0  0  0  0
  151.9248  144.3930  160.1217 C   0  0  0  0  0  0  0  0  0  0  0  0
  150.8900  145.1460  159.2689 C   0  0  0  0  0  0  0  0  0  0  0  0
  149.8152  144.2327  158.8223 N   0  3  0  0  0  0  0  0  0  0  0  0
  150.3201  143.0827  158.0397 C   0  0  0  0  0  0  0  0  0  0  0  0
  152.7762  140.2781  158.6113 N   0  0  0  0  0  0  0  0  0  0  0  0
  153.0025  139.3438  157.5905 O   0  0  0  0  0  0  0  0  0  0  0  0
  150.9419  137.8361  153.9488 H   0  0  0  0  0  0  0  0  0  0  0  0
  150.1626  139.2078  154.7333 H   0  0  0  0  0  0  0  0  0  0  0  0
  150.4731  137.7298  155.6439 H   0  0  0  0  0  0  0  0  0  0  0  0
  152.9539  138.1138  155.4104 H   0  0  0  0  0  0  0  0  0  0  0  0
  152.6473  139.5787  154.5038 H   0  0  0  0  0  0  0  0  0  0  0  0
  150.8573  141.8945  159.7258 H   0  0  0  0  0  0  0  0  0  0  0  0
  153.1801  142.6304  159.9958 H   0  0  0  0  0  0  0  0  0  0  0  0
  153.0968  143.5560  158.5132 H   0  0  0  0  0  0  0  0  0  0  0  0
  151.4575  144.0465  161.0445 H   0  0  0  0  0  0  0  0  0  0  0  0
  152.7281  145.0685  160.4170 H   0  0  0  0  0  0  0  0  0  0  0  0
  150.4487  145.9616  159.8424 H   0  0  0  0  0  0  0  0  0  0  0  0
  151.3687  145.5921  158.3961 H   0  0  0  0  0  0  0  0  0  0  0  0
  149.3344  143.8809  159.6378 H   0  0  0  0  0  0  0  0  0  0  0  0
  150.7511  143.4527  157.1082 H   0  0  0  0  0  0  0  0  0  0  0  0
  149.4790  142.4432  157.7706 H   0  0  0  0  0  0  0  0  0  0  0  0
  149.1586  144.7507  158.2558 H   0  0  0  0  0  0  0  0  0  0  0  0
  1  2  1  0  0  0  0
  1 14  1  0  0  0  0
  1 15  1  0  0  0  0
  1 16  1  0  0  0  0
  2  3  1  0  0  0  0
  2 17  1  0  0  0  0
  2 18  1  0  0  0  0
  3 13  1  0  0  0  0
  3  4  2  0  0  0  0
  4  5  1  0  0  0  0
  5  6  1  0  0  0  0
  5 12  2  0  0  0  0
  6 11  1  0  0  0  0
  6  7  1  0  0  0  0
  6 19  1  0  0  0  0
  7  8  1  0  0  0  0
  7 20  1  0  0  0  0
  7 21  1  0  0  0  0
  8  9  1  0  0  0  0
  8 22  1  0  0  0  0
  8 23  1  0  0  0  0
  9 10  1  0  0  0  0
  9 24  1  0  0  0  0
  9 25  1  0  0  0  0
 10 11  1  0  0  0  0
 10 26  1  0  0  0  0
 10 29  1  0  0  0  0
 11 27  1  0  0  0  0
 11 28  1  0  0  0  0
 12 13  1  0  0  0  0
M  CHG  1  10   1
M  END
> <s_m_source_file>
AV-unprocessed.smi

> <i_m_source_file_index>
965

> <i_lp_mmshare_version>
43012

> <i_f3d_flags>
0

> <s_epik_input>
W0NIM11bQ0gyXWMxbmMobm8xKVtDQEBIXTJbQ0gyXVtDSDJdW0NIMl1bTkhdW0NIMl0y

> <s_epik_cmdline>
J2VwaWtfcHl0aG9uJywgJy1waCcsICc3LjAnLCAnLXRuJywgJzgnLCAnLW1hJywgJzIwMCcsICctbWV0YWxfYmluZGluZycsICctaW1hZScsICc8aW5maWxlLm1hZT4nLCAnLW9tYWUnLCAnPG91dGZpbGUubWFlPic=

> <r_lp_tautomer_probability>
1

> <r_epik_Ionization_Penalty>
0.000532935

> <r_epik_Ionization_Penalty_Charging>
0.000532935

> <r_epik_Ionization_Penalty_Neutral>
3.47051e-13

> <r_epik_State_Penalty>
0.000332992

> <r_epik_Charging_Adjusted_Penalty>
0.000865928

> <i_epik_Tot_Q>
1

> <i_epik_Tot_abs_Q>
1

> <r_epik_Metal_State_Penalty>
-0

> <b_epik_Metal_Only>
0

> <s_lp_Force_Field>
OPLS_2005

> <r_lp_Energy>
5.49554

> <b_lp_Chiralities_Consistent>
1

> <s_lp_Variant>
AV-unprocessed.smi:965-2

> <Gold.Version>
5.8.1

> <Gold.Id.Protein>
6NUR|6NUR_protein|mol2

> <Gold.PLP.Fitness>
36.1454

> <Gold.PLP.PLP>
-27.3116

> <Gold.PLP.part.hbond>
-2.4921

> <Gold.PLP.part.metal>
0.0000

> <Gold.PLP.part.buried>
-1.9975

> <Gold.PLP.part.nonpolar>
-22.8791

> <Gold.PLP.part.repulsive>
0.1400

> <Gold.PLP.ligand.clash>
0.0000

> <Gold.PLP.ligand.torsion>
0.0334

> <Gold.PLP.Chemscore.Hbond>
2.9500

> <Gold.PLP.Chemscore.CHOScore>
0.0000

> <Gold.PLP.Chemscore.Metal>
0.0000

> <Gold.Chemscore.Hbonds>
donor molecule, donor type, donor heavy atom, donor atom, acceptor molecule, acceptor atom, score
      L1  H    10    29       P1  8029  2.00
      P1  H  7997  8010       L1    13  0.71

> <Gold.PLP.Chemscore.Internal.Correction>
0.0507

> <Gold.Rescore>
     Score         DG    S(hbond)    S(metal)    S(lipo)     H(rot)  DE(clash)    DE(int)     intcor
     12.83     -12.93       0.84        0.00      66.74       1.24       0.03       0.06       ----

> <Gold.Chemscore.Fitness>
12.8318

> <Gold.Chemscore.DG>
-12.9262

> <Gold.Chemscore.ZeroCoef>
-5.4800

> <Gold.Chemscore.Hbond>
0.8413

> <Gold.Chemscore.Metal>
0.0000

> <Gold.Chemscore.Lipo>
66.7410

> <Gold.Chemscore.Internal_Hbond>
0.0000

> <Gold.Chemscore.DEClash>
0.0324

> <Gold.Chemscore.DEInternal>
0.0620

> <Gold.Chemscore.Rot>
1.2392

> <Gold.Chemscore.Internal.Correction>
   9.000000E+99

> <Gold.Chemscore.Hbonds>
donor molecule, donor type, donor heavy atom, donor atom, acceptor molecule, acceptor atom, score
      L1  H    10    29       P1  8029  0.38
      P1  H  7997  8010       L1    13  0.02

> <Gold.Chemscore.Hbond.Weighted>
-2.8099

> <Gold.Chemscore.Metal.Weighted>
-0.0000

> <Gold.Chemscore.Lipo.Weighted>
-7.8087

> <Gold.Chemscore.Internal_Hbond.Weighted>
0.0000

> <Gold.Chemscore.DEClash.Weighted>
0.0324

> <Gold.Chemscore.DEInternal.Weighted>
0.0620

> <Gold.Chemscore.Rot.Weighted>
3.1723

> <Gold.Chemscore.Internal.Correction.Weighted>
   9.000000E+99

> <Gold.Protein.RotatedTorsions>
[ 6907 6896 6895 6894 ] final   82.57 input  -60.11 | X-H torsion
[ 7974 7965 7964 7962 ] final  121.10 input  175.53 | X-H torsion
[ 8008 7997 7996 7995 ] final   44.43 input   59.86 | X-H torsion
[ 10167 10162 10161 10158 ] final  107.63 input  -65.29 | X-H torsion
[ 10718 10713 10712 10709 ] final  124.90 input   66.30 | X-H torsion
[ 10763 10752 10751 10750 ] final    2.18 input  -60.55 | X-H torsion
[ 11005 11000 10999 10996 ] final -163.49 input  -57.11 | X-H torsion

> <Gold.Protein.ActiveResidues>
 VAL166  LYS551  ARG553  GLY616  TRP617  ASP618  TYR619  PRO620  LYS621  CYS622 
 ASP623  PHE694  ASN695  SER759  ASP760  ASP761  ALA762  ILE779  LEU786  VAL792 
 PHE793  MET794  SER795  GLU796  ALA797  LYS798  CYS799  TRP800  GLU811  SER814 

> <Gold.Protein.RotatedAtoms>
  152.5303  134.3029  159.9084 H   0  0  0  0  0  0  0  0  0  0  0  0  # atno 6907 bound_to 6896
  151.2979  133.4129  159.2645 H   0  0  0  0  0  0  0  0  0  0  0  0  # atno 6908 bound_to 6896
  151.0144  134.9438  159.8082 H   0  0  0  0  0  0  0  0  0  0  0  0  # atno 6909 bound_to 6896
  145.1234  139.3374  143.4702 H   0  0  0  0  0  0  0  0  0  0  0  0  # atno 7974 bound_to 7965
  155.3192  140.3396  155.4241 H   0  0  0  0  0  0  0  0  0  0  0  0  # atno 8008 bound_to 7997
  156.1917  140.1700  156.8116 H   0  0  0  0  0  0  0  0  0  0  0  0  # atno 8009 bound_to 7997
  154.5450  140.0717  156.8557 H   0  0  0  0  0  0  0  0  0  0  0  0  # atno 8010 bound_to 7997
  139.6912  144.7107  151.1346 H   0  0  0  0  0  0  0  0  0  0  0  0  # atno 10167 bound_to 10162
  157.5547  131.1092  150.8642 H   0  0  0  0  0  0  0  0  0  0  0  0  # atno 10718 bound_to 10713
  153.2988  135.6954  153.7223 H   0  0  0  0  0  0  0  0  0  0  0  0  # atno 10763 bound_to 10752
  153.6145  135.3438  155.2991 H   0  0  0  0  0  0  0  0  0  0  0  0  # atno 10764 bound_to 10752
  154.8545  135.4371  154.2093 H   0  0  0  0  0  0  0  0  0  0  0  0  # atno 10765 bound_to 10752
  140.5975  134.4981  157.5201 H   0  0  0  0  0  0  0  0  0  0  0  0  # atno 11005 bound_to 11000
  146.3519  140.1202  142.8600 LP  0  0  0  0  0  0  0  0  0  0  0  0  # atno 17320 bound_to 7965
  145.0715  140.9159  143.4879 LP  0  0  0  0  0  0  0  0  0  0  0  0  # atno 17321 bound_to 7965
  140.7683  143.5557  150.9154 LP  0  0  0  0  0  0  0  0  0  0  0  0  # atno 17342 bound_to 10162
  139.9235  143.6578  152.3092 LP  0  0  0  0  0  0  0  0  0  0  0  0  # atno 17343 bound_to 10162
  156.9156  130.5296  149.5279 LP  0  0  0  0  0  0  0  0  0  0  0  0  # atno 17370 bound_to 10713
  156.0608  130.5661  150.9188 LP  0  0  0  0  0  0  0  0  0  0  0  0  # atno 17371 bound_to 10713
  139.9247  134.8080  156.1105 LP  0  0  0  0  0  0  0  0  0  0  0  0  # atno 17394 bound_to 11000
  141.0894  133.6720  156.2507 LP  0  0  0  0  0  0  0  0  0  0  0  0  # atno 17395 bound_to 11000

$$$$
