AV-unprocessed.smi:683|AV-procd|sdf|3331|dock4
  -GOLD-   22720 0303D 1   1.00000     0.00000
 Structure written by MMmdl.
 29 30  0  0  0  0  0  0  0  0  2 V2000
  153.8619  141.7584  162.0838 N   0  0  0  0  0  0  0  0  0  0  0  0
  153.3452  142.3404  161.2275 C   0  0  0  0  0  0  0  0  0  0  0  0
  152.6963  143.0713  160.1519 C   0  0  0  0  0  0  0  0  0  0  0  0
  152.4696  144.4562  160.2775 C   0  0  0  0  0  0  0  0  0  0  0  0
  151.8412  145.1609  159.2341 C   0  0  0  0  0  0  0  0  0  0  0  0
  151.4413  144.4829  158.0670 C   0  0  0  0  0  0  0  0  0  0  0  0
  151.6619  143.0976  157.9250 C   0  0  0  0  0  0  0  0  0  0  0  0
  151.2402  142.5150  156.7489 O   0  0  0  0  0  0  0  0  0  0  0  0
  151.3155  141.1007  156.6362 C   0  0  0  0  0  0  0  0  0  0  0  0
  150.5256  140.6616  155.3951 C   0  0  0  0  0  0  0  0  0  0  0  0
  150.5800  139.2049  155.2162 N   0  0  0  0  0  0  0  0  0  0  0  0
  149.3602  138.5100  155.1584 C   0  0  0  0  0  0  0  0  0  0  0  0
  149.3059  137.1728  155.0054 C   0  0  0  0  0  0  0  0  0  0  0  0
  147.7909  136.3449  154.9386 Cl  0  0  0  0  0  0  0  0  0  0  0  0
  150.5677  136.4425  154.9009 C   0  0  0  0  0  0  0  0  0  0  0  0
  150.5545  135.2208  154.7566 O   0  0  0  0  0  0  0  0  0  0  0  0
  151.7251  137.1634  154.9713 N   0  5  0  0  0  0  0  0  0  0  0  0
  151.7600  138.5224  155.1303 C   0  0  0  0  0  0  0  0  0  0  0  0
  152.8169  139.1499  155.2015 O   0  0  0  0  0  0  0  0  0  0  0  0
  152.2944  142.3940  158.9818 C   0  0  0  0  0  0  0  0  0  0  0  0
  152.7751  144.9836  161.1700 H   0  0  0  0  0  0  0  0  0  0  0  0
  151.6665  146.2223  159.3287 H   0  0  0  0  0  0  0  0  0  0  0  0
  150.9608  145.0325  157.2707 H   0  0  0  0  0  0  0  0  0  0  0  0
  152.3564  140.7867  156.5440 H   0  0  0  0  0  0  0  0  0  0  0  0
  150.8941  140.6304  157.5262 H   0  0  0  0  0  0  0  0  0  0  0  0
  149.4893  140.9904  155.4879 H   0  0  0  0  0  0  0  0  0  0  0  0
  150.9079  141.1707  154.5088 H   0  0  0  0  0  0  0  0  0  0  0  0
  148.4776  139.1262  155.2497 H   0  0  0  0  0  0  0  0  0  0  0  0
  152.4806  141.3323  158.9123 H   0  0  0  0  0  0  0  0  0  0  0  0
  1  2  3  0  0  0  0
  2  3  1  0  0  0  0
  3 20  1  0  0  0  0
  3  4  2  0  0  0  0
  4  5  1  0  0  0  0
  4 21  1  0  0  0  0
  5  6  2  0  0  0  0
  5 22  1  0  0  0  0
  6  7  1  0  0  0  0
  6 23  1  0  0  0  0
  7  8  1  0  0  0  0
  7 20  2  0  0  0  0
  8  9  1  0  0  0  0
  9 10  1  0  0  0  0
  9 24  1  0  0  0  0
  9 25  1  0  0  0  0
 10 11  1  0  0  0  0
 10 26  1  0  0  0  0
 10 27  1  0  0  0  0
 11 18  1  0  0  0  0
 11 12  1  0  0  0  0
 12 13  2  0  0  0  0
 12 28  1  0  0  0  0
 13 14  1  0  0  0  0
 13 15  1  0  0  0  0
 15 16  2  0  0  0  0
 15 17  1  0  0  0  0
 17 18  1  0  0  0  0
 18 19  2  0  0  0  0
 20 29  1  0  0  0  0
M  CHG  1  17  -1
M  END
> <s_m_source_file>
AV-unprocessed.smi

> <i_m_source_file_index>
683

> <i_lp_mmshare_version>
43012

> <i_f3d_flags>
0

> <s_epik_input>
TiNDYzFbY0hdW2NIXVtjSF1jKFtjSF0xKU9bQ0gyXVtDSDJdbjJbY0hdYyhDbCljKD1PKVtuSF1jMj1P

> <s_epik_cmdline>
J2VwaWtfcHl0aG9uJywgJy1waCcsICc3LjAnLCAnLXRuJywgJzgnLCAnLW1hJywgJzIwMCcsICctbWV0YWxfYmluZGluZycsICctaW1hZScsICc8aW5maWxlLm1hZT4nLCAnLW9tYWUnLCAnPG91dGZpbGUubWFlPic=

> <r_epik_Ionization_Penalty>
1.49102

> <r_epik_Ionization_Penalty_Charging>
6.47896e-09

> <r_epik_Ionization_Penalty_Neutral>
1.49102

> <r_epik_State_Penalty>
1.58045

> <r_epik_Charging_Adjusted_Penalty>
1.58045

> <i_epik_Tot_Q>
-1

> <i_epik_Tot_abs_Q>
1

> <r_epik_Metal_State_Penalty>
0.00788874

> <b_epik_Metal_Only>
0

> <s_lp_Force_Field>
OPLS_2005

> <r_lp_Energy>
20.1006

> <b_lp_Chiralities_Consistent>
1

> <s_lp_Variant>
AV-unprocessed.smi:683-2

> <Gold.Version>
5.8.1

> <Gold.Id.Protein>
6NUR|6NUR_protein|mol2

> <Gold.PLP.Fitness>
48.1486

> <Gold.PLP.PLP>
-40.3304

> <Gold.PLP.part.hbond>
-2.1294

> <Gold.PLP.part.metal>
0.0000

> <Gold.PLP.part.buried>
-5.8198

> <Gold.PLP.part.nonpolar>
-33.4247

> <Gold.PLP.part.repulsive>
0.3744

> <Gold.PLP.ligand.clash>
0.0000

> <Gold.PLP.ligand.torsion>
0.0966

> <Gold.PLP.Chemscore.Hbond>
2.6613

> <Gold.PLP.Chemscore.CHOScore>
0.0000

> <Gold.PLP.Chemscore.Metal>
0.0000

> <Gold.Chemscore.Hbonds>
donor molecule, donor type, donor heavy atom, donor atom, acceptor molecule, acceptor atom, score
      P1  H  7997  8010       L1    19  0.89
      P1  H 10752 10765       L1    17  1.60

> <Gold.PLP.Chemscore.Internal.Correction>
0.0276

> <Gold.Rescore>
     Score         DG    S(hbond)    S(metal)    S(lipo)     H(rot)  DE(clash)    DE(int)     intcor
     13.33     -14.79       1.01        0.00      93.75       1.97       0.05       1.40       ----

> <Gold.Chemscore.Fitness>
13.3321

> <Gold.Chemscore.DG>
-14.7868

> <Gold.Chemscore.ZeroCoef>
-5.4800

> <Gold.Chemscore.Hbond>
1.0135

> <Gold.Chemscore.Metal>
0.0000

> <Gold.Chemscore.Lipo>
93.7548

> <Gold.Chemscore.Internal_Hbond>
0.0000

> <Gold.Chemscore.DEClash>
0.0530

> <Gold.Chemscore.DEInternal>
1.4017

> <Gold.Chemscore.Rot>
1.9717

> <Gold.Chemscore.Internal.Correction>
   9.000000E+99

> <Gold.Chemscore.Hbonds>
donor molecule, donor type, donor heavy atom, donor atom, acceptor molecule, acceptor atom, score
      P1  H  7997  8010       L1    19  0.87
      P1  H 10752 10765       L1    17  0.11

> <Gold.Chemscore.Hbond.Weighted>
-3.3850

> <Gold.Chemscore.Metal.Weighted>
-0.0000

> <Gold.Chemscore.Lipo.Weighted>
-10.9693

> <Gold.Chemscore.Internal_Hbond.Weighted>
0.0000

> <Gold.Chemscore.DEClash.Weighted>
0.0530

> <Gold.Chemscore.DEInternal.Weighted>
1.4017

> <Gold.Chemscore.Rot.Weighted>
5.0475

> <Gold.Chemscore.Internal.Correction.Weighted>
   9.000000E+99

> <Gold.Protein.RotatedTorsions>
[ 6907 6896 6895 6894 ] final   16.39 input  -60.11 | X-H torsion
[ 7974 7965 7964 7962 ] final  -15.29 input  175.53 | X-H torsion
[ 8008 7997 7996 7995 ] final   85.81 input   59.86 | X-H torsion
[ 10167 10162 10161 10158 ] final -120.40 input  -65.29 | X-H torsion
[ 10718 10713 10712 10709 ] final   58.07 input   66.30 | X-H torsion
[ 10763 10752 10751 10750 ] final  177.35 input  -60.55 | X-H torsion
[ 11005 11000 10999 10996 ] final  103.50 input  -57.11 | X-H torsion

> <Gold.Protein.ActiveResidues>
 VAL166  LYS551  ARG553  GLY616  TRP617  ASP618  TYR619  PRO620  LYS621  CYS622 
 ASP623  PHE694  ASN695  SER759  ASP760  ASP761  ALA762  ILE779  LEU786  VAL792 
 PHE793  MET794  SER795  GLU796  ALA797  LYS798  CYS799  TRP800  GLU811  SER814 

> <Gold.Protein.RotatedAtoms>
  151.8331  135.0615  160.0438 H   0  0  0  0  0  0  0  0  0  0  0  0  # atno 6907 bound_to 6896
  152.2866  133.5516  159.5539 H   0  0  0  0  0  0  0  0  0  0  0  0  # atno 6908 bound_to 6896
  150.7212  134.0405  159.3806 H   0  0  0  0  0  0  0  0  0  0  0  0  # atno 6909 bound_to 6896
  146.2038  140.3471  142.8414 H   0  0  0  0  0  0  0  0  0  0  0  0  # atno 7974 bound_to 7965
  155.9548  140.3398  155.6439 H   0  0  0  0  0  0  0  0  0  0  0  0  # atno 8008 bound_to 7997
  155.6873  140.0745  157.2480 H   0  0  0  0  0  0  0  0  0  0  0  0  # atno 8009 bound_to 7997
  154.4130  140.1663  156.2035 H   0  0  0  0  0  0  0  0  0  0  0  0  # atno 8010 bound_to 7997
  140.0362  143.5198  152.2152 H   0  0  0  0  0  0  0  0  0  0  0  0  # atno 10167 bound_to 10162
  157.5566  130.8805  149.9045 H   0  0  0  0  0  0  0  0  0  0  0  0  # atno 10718 bound_to 10713
  154.4933  135.2780  155.1479 H   0  0  0  0  0  0  0  0  0  0  0  0  # atno 10763 bound_to 10752
  154.3142  135.6223  153.5483 H   0  0  0  0  0  0  0  0  0  0  0  0  # atno 10764 bound_to 10752
  152.9891  135.5727  154.5359 H   0  0  0  0  0  0  0  0  0  0  0  0  # atno 10765 bound_to 10752
  139.8784  134.9265  156.5219 H   0  0  0  0  0  0  0  0  0  0  0  0  # atno 11005 bound_to 11000
  144.8745  140.7317  143.6026 LP  0  0  0  0  0  0  0  0  0  0  0  0  # atno 17320 bound_to 7965
  145.3390  139.1737  143.4496 LP  0  0  0  0  0  0  0  0  0  0  0  0  # atno 17321 bound_to 7965
  139.6043  144.7592  151.3098 LP  0  0  0  0  0  0  0  0  0  0  0  0  # atno 17342 bound_to 10162
  140.7280  143.6947  150.7893 LP  0  0  0  0  0  0  0  0  0  0  0  0  # atno 17343 bound_to 10162
  156.0624  130.3697  150.0952 LP  0  0  0  0  0  0  0  0  0  0  0  0  # atno 17370 bound_to 10713
  156.9120  130.9655  151.3561 LP  0  0  0  0  0  0  0  0  0  0  0  0  # atno 17371 bound_to 10713
  140.8444  133.8180  155.9107 LP  0  0  0  0  0  0  0  0  0  0  0  0  # atno 17394 bound_to 11000
  140.9205  134.2147  157.4929 LP  0  0  0  0  0  0  0  0  0  0  0  0  # atno 17395 bound_to 11000

$$$$
