AV-unprocessed.smi:247|AV-procd|sdf|1894|dock6
  -GOLD-   2262020563D 1   1.00000     0.00000
 Structure written by MMmdl.
 61 65  0  0  0  0  0  0  0  0  1 V2000
  147.9999  137.2416  163.1047 O   0  0  0  0  0  0  0  0  0  0  0  0
  147.7730  136.9117  161.7482 C   0  0  0  0  0  0  0  0  0  0  0  0
  146.8399  135.6834  161.5579 C   0  0  0  0  0  0  0  0  0  0  0  0
  146.6307  135.4511  160.0278 C   0  0  0  0  0  0  0  0  0  0  0  0
  147.5391  136.1883  159.1606 N   0  0  0  0  0  0  0  0  0  0  0  0
  148.7226  135.7306  158.6258 C   0  0  0  0  0  0  0  0  0  0  0  0
  149.3587  136.5817  157.8688 N   0  0  0  0  0  0  0  0  0  0  0  0
  148.5451  137.7085  157.8657 C   0  0  0  0  0  0  0  0  0  0  0  0
  148.6263  138.9876  157.2455 C   0  0  0  0  0  0  0  0  0  0  0  0
  149.6771  139.3578  156.4683 N   0  0  0  0  0  0  0  0  0  0  0  0
  149.8489  138.6228  155.2195 C   0  0  0  0  0  0  0  0  0  0  0  0
  151.3585  138.4644  155.0164 C   0  0  0  0  0  0  0  0  0  0  0  0
  151.9548  139.5936  155.8501 C   0  0  0  0  0  0  0  0  0  0  0  0
  150.9880  139.6710  157.0389 C   0  0  1  0  0  0  0  0  0  0  0  0
  151.0369  140.9848  157.8756 C   0  0  1  0  0  0  0  0  0  0  0  0
  152.3332  141.0371  158.7136 C   0  0  0  0  0  0  0  0  0  0  0  0
  152.3495  142.1859  159.5539 O   0  0  0  0  0  0  0  0  0  0  0  0
  152.3415  143.4062  158.8237 C   0  0  0  0  0  0  0  0  0  0  0  0
  151.0426  143.5085  158.0131 C   0  0  0  0  0  0  0  0  0  0  0  0
  150.8964  142.3034  157.0728 C   0  0  2  0  0  0  0  0  0  0  0  0
  149.6339  142.4001  156.4442 O   0  0  0  0  0  0  0  0  0  0  0  0
  147.6000  139.8519  157.4637 N   0  0  0  0  0  0  0  0  0  0  0  0
  146.5674  139.4962  158.2330 C   0  0  0  0  0  0  0  0  0  0  0  0
  146.3635  138.3448  158.8752 N   0  0  0  0  0  0  0  0  0  0  0  0
  147.3890  137.4715  158.6619 C   0  0  0  0  0  0  0  0  0  0  0  0
  147.4554  134.4425  162.2555 C   0  0  0  0  0  0  0  0  0  0  0  0
  146.4784  133.2543  162.3056 C   0  0  0  0  0  0  0  0  0  0  0  0
  145.2802  133.6426  162.9667 O   0  0  0  0  0  0  0  0  0  0  0  0
  144.5844  134.6855  162.2946 C   0  0  0  0  0  0  0  0  0  0  0  0
  145.4627  135.9494  162.2195 C   0  0  0  0  0  0  0  0  0  0  0  0
  147.2692  136.9291  163.6159 H   0  0  0  0  0  0  0  0  0  0  0  0
  147.3509  137.7880  161.2549 H   0  0  0  0  0  0  0  0  0  0  0  0
  148.7477  136.7322  161.2948 H   0  0  0  0  0  0  0  0  0  0  0  0
  146.7242  134.3978  159.7680 H   0  0  0  0  0  0  0  0  0  0  0  0
  145.6114  135.7242  159.7512 H   0  0  0  0  0  0  0  0  0  0  0  0
  149.1055  134.7394  158.8204 H   0  0  0  0  0  0  0  0  0  0  0  0
  149.3515  137.6516  155.2328 H   0  0  0  0  0  0  0  0  0  0  0  0
  149.4171  139.2114  154.4095 H   0  0  0  0  0  0  0  0  0  0  0  0
  151.6838  137.5037  155.4175 H   0  0  0  0  0  0  0  0  0  0  0  0
  151.6518  138.5071  153.9672 H   0  0  0  0  0  0  0  0  0  0  0  0
  152.9839  139.3952  156.1503 H   0  0  0  0  0  0  0  0  0  0  0  0
  151.9439  140.5101  155.2620 H   0  0  0  0  0  0  0  0  0  0  0  0
  151.2457  138.8449  157.7040 H   0  0  0  0  0  0  0  0  0  0  0  0
  150.2159  140.9568  158.5925 H   0  0  0  0  0  0  0  0  0  0  0  0
  152.4053  140.1525  159.3470 H   0  0  0  0  0  0  0  0  0  0  0  0
  153.2174  141.0397  158.0746 H   0  0  0  0  0  0  0  0  0  0  0  0
  152.4118  144.2376  159.5253 H   0  0  0  0  0  0  0  0  0  0  0  0
  153.2151  143.4627  158.1726 H   0  0  0  0  0  0  0  0  0  0  0  0
  150.1959  143.5513  158.6999 H   0  0  0  0  0  0  0  0  0  0  0  0
  151.0306  144.4383  157.4430 H   0  0  0  0  0  0  0  0  0  0  0  0
  151.6678  142.3695  156.3067 H   0  0  0  0  0  0  0  0  0  0  0  0
  149.5034  143.2959  156.1721 H   0  0  0  0  0  0  0  0  0  0  0  0
  145.7954  140.2421  158.3532 H   0  0  0  0  0  0  0  0  0  0  0  0
  148.3904  134.1457  161.7821 H   0  0  0  0  0  0  0  0  0  0  0  0
  147.7189  134.6900  163.2842 H   0  0  0  0  0  0  0  0  0  0  0  0
  146.2539  132.8735  161.3091 H   0  0  0  0  0  0  0  0  0  0  0  0
  146.9276  132.4298  162.8591 H   0  0  0  0  0  0  0  0  0  0  0  0
  144.2684  134.3517  161.3061 H   0  0  0  0  0  0  0  0  0  0  0  0
  143.6724  134.9048  162.8499 H   0  0  0  0  0  0  0  0  0  0  0  0
  145.5977  136.3097  163.2395 H   0  0  0  0  0  0  0  0  0  0  0  0
  144.9320  136.7420  161.6908 H   0  0  0  0  0  0  0  0  0  0  0  0
  1  2  1  0  0  0  0
  1 31  1  0  0  0  0
  2  3  1  0  0  0  0
  2 32  1  0  0  0  0
  2 33  1  0  0  0  0
  3 30  1  0  0  0  0
  3  4  1  0  0  0  0
  3 26  1  0  0  0  0
  4  5  1  0  0  0  0
  4 34  1  0  0  0  0
  4 35  1  0  0  0  0
  5 25  1  0  0  0  0
  5  6  1  0  0  0  0
  6  7  2  0  0  0  0
  6 36  1  0  0  0  0
  7  8  1  0  0  0  0
  8 25  2  0  0  0  0
  8  9  1  0  0  0  0
  9 10  1  0  0  0  0
  9 22  2  0  0  0  0
 10 14  1  0  0  0  0
 10 11  1  0  0  0  0
 11 12  1  0  0  0  0
 11 37  1  0  0  0  0
 11 38  1  0  0  0  0
 12 13  1  0  0  0  0
 12 39  1  0  0  0  0
 12 40  1  0  0  0  0
 13 14  1  0  0  0  0
 13 41  1  0  0  0  0
 13 42  1  0  0  0  0
 14 15  1  0  0  0  0
 14 43  1  0  0  0  0
 15 20  1  0  0  0  0
 15 16  1  0  0  0  0
 15 44  1  0  0  0  0
 16 17  1  0  0  0  0
 16 45  1  0  0  0  0
 16 46  1  0  0  0  0
 17 18  1  0  0  0  0
 18 19  1  0  0  0  0
 18 47  1  0  0  0  0
 18 48  1  0  0  0  0
 19 20  1  0  0  0  0
 19 49  1  0  0  0  0
 19 50  1  0  0  0  0
 20 21  1  0  0  0  0
 20 51  1  0  0  0  0
 21 52  1  0  0  0  0
 22 23  1  0  0  0  0
 23 24  2  0  0  0  0
 23 53  1  0  0  0  0
 24 25  1  0  0  0  0
 26 27  1  0  0  0  0
 26 54  1  0  0  0  0
 26 55  1  0  0  0  0
 27 28  1  0  0  0  0
 27 56  1  0  0  0  0
 27 57  1  0  0  0  0
 28 29  1  0  0  0  0
 29 30  1  0  0  0  0
 29 58  1  0  0  0  0
 29 59  1  0  0  0  0
 30 60  1  0  0  0  0
 30 61  1  0  0  0  0
M  END
> <s_m_source_file>
AV-unprocessed.smi

> <i_m_source_file_index>
247

> <i_lp_mmshare_version>
43012

> <i_f3d_flags>
0

> <s_epik_input>
W0NIMl0xW0NIMl1PW0NIMl1bQ0gyXUMxKFtDSDJdW09IXSlbQ0gyXW4oW2NIXW4yKWMoYzIzKW5bY0hdbmMzTjRbQ0gyXVtDSDJdW0NIMl1bQ0BIXTRbQ0BASF01W0NIMl1PW0NIMl1bQ0gyXVtDQEhdNVtPSF0=

> <s_epik_cmdline>
J2VwaWtfcHl0aG9uJywgJy1waCcsICc3LjAnLCAnLXRuJywgJzgnLCAnLW1hJywgJzIwMCcsICctbWV0YWxfYmluZGluZycsICctaW1hZScsICc8aW5maWxlLm1hZT4nLCAnLW9tYWUnLCAnPG91dGZpbGUubWFlPic=

> <r_lp_tautomer_probability>
1

> <r_epik_Ionization_Penalty>
0.00362597

> <r_epik_Ionization_Penalty_Charging>
0

> <r_epik_Ionization_Penalty_Neutral>
0.00362597

> <r_epik_State_Penalty>
0.00241433

> <r_epik_Charging_Adjusted_Penalty>
0.00241433

> <i_epik_Tot_Q>
0

> <i_epik_Tot_abs_Q>
0

> <r_epik_Metal_State_Penalty>
-0

> <b_epik_Metal_Only>
0

> <s_lp_Force_Field>
OPLS_2005

> <r_lp_Energy>
58.3113

> <b_lp_Chiralities_Consistent>
1

> <s_lp_Variant>
AV-unprocessed.smi:247-7

> <Gold.Version>
5.8.1

> <Gold.Id.Protein>
6NUR|6NUR_protein|mol2

> <Gold.PLP.Fitness>
42.6277

> <Gold.PLP.PLP>
-42.2428

> <Gold.PLP.part.hbond>
-3.5815

> <Gold.PLP.part.metal>
0.0000

> <Gold.PLP.part.buried>
-2.9311

> <Gold.PLP.part.nonpolar>
-36.0780

> <Gold.PLP.part.repulsive>
0.0690

> <Gold.PLP.ligand.clash>
0.0000

> <Gold.PLP.ligand.torsion>
1.6754

> <Gold.PLP.Chemscore.Hbond>
1.1125

> <Gold.PLP.Chemscore.CHOScore>
0.0000

> <Gold.PLP.Chemscore.Metal>
0.0000

> <Gold.Chemscore.Hbonds>
donor molecule, donor type, donor heavy atom, donor atom, acceptor molecule, acceptor atom, score
      L1  H    21    52       P1  8028  1.00
      P1  H  6934  6947       L1    24  0.10

> <Gold.PLP.Chemscore.Internal.Correction>
0.3982

> <Gold.Rescore>
     Score         DG    S(hbond)    S(metal)    S(lipo)     H(rot)  DE(clash)    DE(int)     intcor
     12.35     -14.15       1.00        0.00     116.15       3.23       0.20       1.59       ----

> <Gold.Chemscore.Fitness>
12.3513

> <Gold.Chemscore.DG>
-14.1459

> <Gold.Chemscore.ZeroCoef>
-5.4800

> <Gold.Chemscore.Hbond>
0.9997

> <Gold.Chemscore.Metal>
0.0000

> <Gold.Chemscore.Lipo>
116.1542

> <Gold.Chemscore.Internal_Hbond>
0.0000

> <Gold.Chemscore.DEClash>
0.2024

> <Gold.Chemscore.DEInternal>
1.5922

> <Gold.Chemscore.Rot>
3.2278

> <Gold.Chemscore.Internal.Correction>
   9.000000E+99

> <Gold.Chemscore.Hbonds>
donor molecule, donor type, donor heavy atom, donor atom, acceptor molecule, acceptor atom, score
      L1  H    21    52       P1  8028  1.00

> <Gold.Chemscore.Hbond.Weighted>
-3.3391

> <Gold.Chemscore.Metal.Weighted>
-0.0000

> <Gold.Chemscore.Lipo.Weighted>
-13.5900

> <Gold.Chemscore.Internal_Hbond.Weighted>
0.0000

> <Gold.Chemscore.DEClash.Weighted>
0.2024

> <Gold.Chemscore.DEInternal.Weighted>
1.5922

> <Gold.Chemscore.Rot.Weighted>
8.2633

> <Gold.Chemscore.Internal.Correction.Weighted>
   9.000000E+99

> <Gold.Protein.RotatedTorsions>
[ 6907 6896 6895 6894 ] final   77.22 input  -60.11 | X-H torsion
[ 7974 7965 7964 7962 ] final -126.47 input  175.53 | X-H torsion
[ 8008 7997 7996 7995 ] final   32.05 input   59.86 | X-H torsion
[ 10167 10162 10161 10158 ] final  122.94 input  -65.29 | X-H torsion
[ 10718 10713 10712 10709 ] final -169.24 input   66.30 | X-H torsion
[ 10763 10752 10751 10750 ] final  101.23 input  -60.55 | X-H torsion
[ 11005 11000 10999 10996 ] final -174.92 input  -57.11 | X-H torsion

> <Gold.Protein.ActiveResidues>
 VAL166  LYS551  ARG553  GLY616  TRP617  ASP618  TYR619  PRO620  LYS621  CYS622 
 ASP623  PHE694  ASN695  SER759  ASP760  ASP761  ALA762  ILE779  LEU786  VAL792 
 PHE793  MET794  SER795  GLU796  ALA797  LYS798  CYS799  TRP800  GLU811  SER814 

> <Gold.Protein.RotatedAtoms>
  152.5108  134.3850  159.9364 H   0  0  0  0  0  0  0  0  0  0  0  0  # atno 6907 bound_to 6896
  151.3808  133.3816  159.2717 H   0  0  0  0  0  0  0  0  0  0  0  0  # atno 6908 bound_to 6896
  150.9506  134.8926  159.7728 H   0  0  0  0  0  0  0  0  0  0  0  0  # atno 6909 bound_to 6896
  144.9869  140.7695  143.4578 H   0  0  0  0  0  0  0  0  0  0  0  0  # atno 7974 bound_to 7965
  155.1162  140.3244  155.4509 H   0  0  0  0  0  0  0  0  0  0  0  0  # atno 8008 bound_to 7997
  156.2676  140.2035  156.6234 H   0  0  0  0  0  0  0  0  0  0  0  0  # atno 8009 bound_to 7997
  154.6718  140.0535  157.0160 H   0  0  0  0  0  0  0  0  0  0  0  0  # atno 8010 bound_to 7997
  139.5829  144.6994  151.3483 H   0  0  0  0  0  0  0  0  0  0  0  0  # atno 10167 bound_to 10162
  156.7087  130.9225  151.3087 H   0  0  0  0  0  0  0  0  0  0  0  0  # atno 10718 bound_to 10713
  153.3241  135.4051  155.1441 H   0  0  0  0  0  0  0  0  0  0  0  0  # atno 10763 bound_to 10752
  154.8607  135.3594  154.5558 H   0  0  0  0  0  0  0  0  0  0  0  0  # atno 10764 bound_to 10752
  153.5993  135.7071  153.5450 H   0  0  0  0  0  0  0  0  0  0  0  0  # atno 10765 bound_to 10752
  140.4691  134.6182  157.4874 H   0  0  0  0  0  0  0  0  0  0  0  0  # atno 11005 bound_to 11000
  145.2341  139.2102  143.5027 LP  0  0  0  0  0  0  0  0  0  0  0  0  # atno 17320 bound_to 7965
  146.3422  140.2223  142.8591 LP  0  0  0  0  0  0  0  0  0  0  0  0  # atno 17321 bound_to 7965
  140.7105  143.7404  150.7558 LP  0  0  0  0  0  0  0  0  0  0  0  0  # atno 17342 bound_to 10162
  140.0941  143.4850  152.2462 LP  0  0  0  0  0  0  0  0  0  0  0  0  # atno 17343 bound_to 10162
  157.6945  130.9267  150.0605 LP  0  0  0  0  0  0  0  0  0  0  0  0  # atno 17370 bound_to 10713
  156.1677  130.3645  149.9209 LP  0  0  0  0  0  0  0  0  0  0  0  0  # atno 17371 bound_to 10713
  139.9897  134.7005  155.9712 LP  0  0  0  0  0  0  0  0  0  0  0  0  # atno 17394 bound_to 11000
  141.1585  133.6540  156.4241 LP  0  0  0  0  0  0  0  0  0  0  0  0  # atno 17395 bound_to 11000

$$$$
