AV-unprocessed.smi:123|AV-procd|sdf|1144|dock9
  -GOLD-   2262018273D 1   1.00000     0.00000
 Structure written by MMmdl.
 43 45  0  0  0  0  0  0  0  0  1 V2000
  153.0679  142.2889  161.8965 C   0  0  0  0  0  0  0  0  0  0  0  0
  153.3112  142.0384  160.4016 C   0  0  1  0  0  0  0  0  0  0  0  0
  152.9430  140.6688  160.0683 N   0  0  0  0  0  0  0  0  0  0  0  0
  153.7369  139.7261  159.5334 C   0  0  0  0  0  0  0  0  0  0  0  0
  154.9328  139.9057  159.3078 O   0  0  0  0  0  0  0  0  0  0  0  0
  153.0985  138.3687  159.1818 C   0  0  0  0  0  0  0  0  0  0  0  0
  151.8035  138.4689  158.4676 N   0  0  0  0  0  0  0  0  0  0  0  0
  151.7374  139.2333  157.2763 C   0  0  0  0  0  0  0  0  0  0  0  0
  152.7238  139.8316  156.8452 O   0  0  0  0  0  0  0  0  0  0  0  0
  150.4420  139.2437  156.6059 C   0  0  0  0  0  0  0  0  0  0  0  0
  150.2809  139.9619  155.4816 F   0  0  0  0  0  0  0  0  0  0  0  0
  149.4013  138.5364  157.0923 C   0  0  0  0  0  0  0  0  0  0  0  0
  149.4887  137.7680  158.2402 N   0  0  0  0  0  0  0  0  0  0  0  0
  148.3203  136.9533  158.7583 C   0  0  2  0  0  0  0  0  0  0  0  0
  148.6930  135.4578  158.8366 C   0  0  0  0  0  0  0  0  0  0  0  0
  147.6020  134.7897  158.0227 C   0  0  0  0  0  0  0  0  0  0  0  0
  147.2063  135.8925  157.0528 C   0  0  0  0  0  0  0  0  0  0  0  0
  147.2412  137.0525  157.8731 O   0  0  0  0  0  0  0  0  0  0  0  0
  150.6968  137.7430  158.9699 C   0  0  0  0  0  0  0  0  0  0  0  0
  150.7889  137.0858  160.0091 O   0  0  0  0  0  0  0  0  0  0  0  0
  152.5503  142.9894  159.5342 C   0  0  0  0  0  0  0  0  0  0  0  0
  152.5168  144.3533  159.4397 C   0  0  0  0  0  0  0  0  0  0  0  0
  151.5806  144.6627  158.4143 C   0  0  0  0  0  0  0  0  0  0  0  0
  151.1053  143.4645  157.9635 C   0  0  0  0  0  0  0  0  0  0  0  0
  151.6834  142.4338  158.6377 O   0  0  0  0  0  0  0  0  0  0  0  0
  153.3578  143.3025  162.1746 H   0  0  0  0  0  0  0  0  0  0  0  0
  153.6489  141.6005  162.5111 H   0  0  0  0  0  0  0  0  0  0  0  0
  152.0162  142.1604  162.1555 H   0  0  0  0  0  0  0  0  0  0  0  0
  154.3744  142.1828  160.2019 H   0  0  0  0  0  0  0  0  0  0  0  0
  151.9758  140.4231  160.2211 H   0  0  0  0  0  0  0  0  0  0  0  0
  153.8158  137.7988  158.5892 H   0  0  0  0  0  0  0  0  0  0  0  0
  153.0024  137.7908  160.1021 H   0  0  0  0  0  0  0  0  0  0  0  0
  148.4715  138.5872  156.5466 H   0  0  0  0  0  0  0  0  0  0  0  0
  148.0562  137.4015  159.7178 H   0  0  0  0  0  0  0  0  0  0  0  0
  149.6681  135.2841  158.3798 H   0  0  0  0  0  0  0  0  0  0  0  0
  148.7226  135.1163  159.8716 H   0  0  0  0  0  0  0  0  0  0  0  0
  147.9380  133.8810  157.5225 H   0  0  0  0  0  0  0  0  0  0  0  0
  146.7572  134.5363  158.6644 H   0  0  0  0  0  0  0  0  0  0  0  0
  147.9329  135.9780  156.2435 H   0  0  0  0  0  0  0  0  0  0  0  0
  146.2193  135.7385  156.6168 H   0  0  0  0  0  0  0  0  0  0  0  0
  153.0982  145.0434  160.0332 H   0  0  0  0  0  0  0  0  0  0  0  0
  151.2906  145.6384  158.0535 H   0  0  0  0  0  0  0  0  0  0  0  0
  150.3905  143.1775  157.2062 H   0  0  0  0  0  0  0  0  0  0  0  0
  1  2  1  0  0  0  0
  1 26  1  0  0  0  0
  1 27  1  0  0  0  0
  1 28  1  0  0  0  0
  2  3  1  0  0  0  0
  2 21  1  0  0  0  0
  2 29  1  0  0  0  0
  3  4  1  0  0  0  0
  3 30  1  0  0  0  0
  4  5  2  0  0  0  0
  4  6  1  0  0  0  0
  6  7  1  0  0  0  0
  6 31  1  0  0  0  0
  6 32  1  0  0  0  0
  7 19  1  0  0  0  0
  7  8  1  0  0  0  0
  8  9  2  0  0  0  0
  8 10  1  0  0  0  0
 10 11  1  0  0  0  0
 10 12  2  0  0  0  0
 12 13  1  0  0  0  0
 12 33  1  0  0  0  0
 13 14  1  0  0  0  0
 13 19  1  0  0  0  0
 14 18  1  0  0  0  0
 14 15  1  0  0  0  0
 14 34  1  0  0  0  0
 15 16  1  0  0  0  0
 15 35  1  0  0  0  0
 15 36  1  0  0  0  0
 16 17  1  0  0  0  0
 16 37  1  0  0  0  0
 16 38  1  0  0  0  0
 17 18  1  0  0  0  0
 17 39  1  0  0  0  0
 17 40  1  0  0  0  0
 19 20  2  0  0  0  0
 21 25  1  0  0  0  0
 21 22  2  0  0  0  0
 22 23  1  0  0  0  0
 22 41  1  0  0  0  0
 23 24  2  0  0  0  0
 23 42  1  0  0  0  0
 24 25  1  0  0  0  0
 24 43  1  0  0  0  0
M  END
> <s_m_source_file>
AV-unprocessed.smi

> <i_m_source_file_index>
123

> <i_lp_mmshare_version>
43012

> <i_f3d_flags>
0

> <s_epik_input>
bzFbY0hdW2NIXVtjSF1jMVtDQEhdKFtDSDNdKVtOSF1DKD1PKVtDSDJdbjJjKD1PKWMoRilbY0hdbihjMj1PKVtDQEBIXTNbQ0gyXVtDSDJdW0NIMl1PMw==

> <s_epik_cmdline>
J2VwaWtfcHl0aG9uJywgJy1waCcsICc3LjAnLCAnLXRuJywgJzgnLCAnLW1hJywgJzIwMCcsICctbWV0YWxfYmluZGluZycsICctaW1hZScsICc8aW5maWxlLm1hZT4nLCAnLW9tYWUnLCAnPG91dGZpbGUubWFlPic=

> <r_lp_tautomer_probability>
1

> <r_epik_Ionization_Penalty>
2.31906e-08

> <r_epik_Ionization_Penalty_Charging>
3.85846e-09

> <r_epik_Ionization_Penalty_Neutral>
1.93321e-08

> <r_epik_State_Penalty>
-0

> <r_epik_Charging_Adjusted_Penalty>
3.85846e-09

> <i_epik_Tot_Q>
0

> <i_epik_Tot_abs_Q>
0

> <r_epik_Metal_State_Penalty>
-0

> <b_epik_Metal_Only>
0

> <s_epik_Chemistry_Notes>
This compound contains an acetal/aminal-like group ( X-CH(R)-Y where X, Y are N, S, or O) that may be acid/base labile, releasing an aldehyde.

> <s_lp_Force_Field>
OPLS_2005

> <r_lp_Energy>
20.7844

> <b_lp_Chiralities_Consistent>
1

> <s_lp_Variant>
AV-unprocessed.smi:123-2

> <Gold.Version>
5.8.1

> <Gold.Id.Protein>
6NUR|6NUR_protein|mol2

> <Gold.PLP.Fitness>
49.9106

> <Gold.PLP.PLP>
-40.3560

> <Gold.PLP.part.hbond>
-3.1421

> <Gold.PLP.part.metal>
0.0000

> <Gold.PLP.part.buried>
-4.3658

> <Gold.PLP.part.nonpolar>
-31.8286

> <Gold.PLP.part.repulsive>
0.1388

> <Gold.PLP.ligand.clash>
0.0000

> <Gold.PLP.ligand.torsion>
0.2462

> <Gold.PLP.Chemscore.Hbond>
2.4435

> <Gold.PLP.Chemscore.CHOScore>
0.8941

> <Gold.PLP.Chemscore.Metal>
0.0000

> <Gold.Chemscore.Hbonds>
donor molecule, donor type, donor heavy atom, donor atom, acceptor molecule, acceptor atom, score
      P1  H  6896  6908       L1    20  1.00
      P1  H  7997  8008       L1     5  0.64
      P1  H  7997  8009       L1     9  0.83
      L1  C    24    43       P1  8028  0.69

> <Gold.PLP.Chemscore.Internal.Correction>
0.0342

> <Gold.Rescore>
     Score         DG    S(hbond)    S(metal)    S(lipo)     H(rot)  DE(clash)    DE(int)     intcor
     16.44     -19.28       2.83        0.00      86.20       2.23       0.06       2.78       ----

> <Gold.Chemscore.Fitness>
16.4393

> <Gold.Chemscore.DG>
-19.2837

> <Gold.Chemscore.ZeroCoef>
-5.4800

> <Gold.Chemscore.Hbond>
2.8259

> <Gold.Chemscore.Metal>
0.0000

> <Gold.Chemscore.Lipo>
86.2049

> <Gold.Chemscore.Internal_Hbond>
0.0000

> <Gold.Chemscore.DEClash>
0.0618

> <Gold.Chemscore.DEInternal>
2.7826

> <Gold.Chemscore.Rot>
2.2347

> <Gold.Chemscore.Internal.Correction>
   9.000000E+99

> <Gold.Chemscore.Hbonds>
donor molecule, donor type, donor heavy atom, donor atom, acceptor molecule, acceptor atom, score
      P1  H  6896  6908       L1    20  0.90
      P1  H  7997  8008       L1     5  0.59
      P1  H  7997  8009       L1     9  0.81

> <Gold.Chemscore.Hbond.Weighted>
-9.4385

> <Gold.Chemscore.Metal.Weighted>
-0.0000

> <Gold.Chemscore.Lipo.Weighted>
-10.0860

> <Gold.Chemscore.Internal_Hbond.Weighted>
0.0000

> <Gold.Chemscore.DEClash.Weighted>
0.0618

> <Gold.Chemscore.DEInternal.Weighted>
2.7826

> <Gold.Chemscore.Rot.Weighted>
5.7208

> <Gold.Chemscore.Internal.Correction.Weighted>
   9.000000E+99

> <Gold.Protein.RotatedTorsions>
[ 6907 6896 6895 6894 ] final -146.97 input  -60.11 | X-H torsion
[ 7974 7965 7964 7962 ] final   76.66 input  175.53 | X-H torsion
[ 8008 7997 7996 7995 ] final -150.52 input   59.86 | X-H torsion
[ 10167 10162 10161 10158 ] final   45.09 input  -65.29 | X-H torsion
[ 10718 10713 10712 10709 ] final   38.63 input   66.30 | X-H torsion
[ 10763 10752 10751 10750 ] final  128.99 input  -60.55 | X-H torsion
[ 11005 11000 10999 10996 ] final -170.42 input  -57.11 | X-H torsion

> <Gold.Protein.ActiveResidues>
 VAL166  LYS551  ARG553  GLY616  TRP617  ASP618  TYR619  PRO620  LYS621  CYS622 
 ASP623  PHE694  ASN695  SER759  ASP760  ASP761  ALA762  ILE779  LEU786  VAL792 
 PHE793  MET794  SER795  GLU796  ALA797  LYS798  CYS799  TRP800  GLU811  SER814 

> <Gold.Protein.RotatedAtoms>
  151.1491  133.4920  159.2595 H   0  0  0  0  0  0  0  0  0  0  0  0  # atno 6907 bound_to 6896
  151.1573  135.0256  159.8705 H   0  0  0  0  0  0  0  0  0  0  0  0  # atno 6908 bound_to 6896
  152.5463  134.1368  159.8515 H   0  0  0  0  0  0  0  0  0  0  0  0  # atno 6909 bound_to 6896
  145.7000  139.2579  143.1711 H   0  0  0  0  0  0  0  0  0  0  0  0  # atno 7974 bound_to 7965
  155.6248  140.0685  157.2667 H   0  0  0  0  0  0  0  0  0  0  0  0  # atno 8008 bound_to 7997
  154.4220  140.1778  156.1459 H   0  0  0  0  0  0  0  0  0  0  0  0  # atno 8009 bound_to 7997
  155.9980  140.3339  155.6821 H   0  0  0  0  0  0  0  0  0  0  0  0  # atno 8010 bound_to 7997
  140.3276  144.2628  150.6173 H   0  0  0  0  0  0  0  0  0  0  0  0  # atno 10167 bound_to 10162
  157.3610  130.7650  149.7048 H   0  0  0  0  0  0  0  0  0  0  0  0  # atno 10718 bound_to 10713
  153.7346  135.3233  155.3292 H   0  0  0  0  0  0  0  0  0  0  0  0  # atno 10763 bound_to 10752
  154.8315  135.4530  154.1088 H   0  0  0  0  0  0  0  0  0  0  0  0  # atno 10764 bound_to 10752
  153.2245  135.6952  153.8043 H   0  0  0  0  0  0  0  0  0  0  0  0  # atno 10765 bound_to 10752
  140.5197  134.5721  157.5044 H   0  0  0  0  0  0  0  0  0  0  0  0  # atno 11005 bound_to 11000
  146.0806  140.7768  142.9643 LP  0  0  0  0  0  0  0  0  0  0  0  0  # atno 17320 bound_to 7965
  144.6971  140.3483  143.7186 LP  0  0  0  0  0  0  0  0  0  0  0  0  # atno 17321 bound_to 7965
  140.5426  143.2220  151.8059 LP  0  0  0  0  0  0  0  0  0  0  0  0  # atno 17342 bound_to 10162
  139.4862  144.4580  151.9575 LP  0  0  0  0  0  0  0  0  0  0  0  0  # atno 17343 bound_to 10162
  155.9737  130.4114  150.3977 LP  0  0  0  0  0  0  0  0  0  0  0  0  # atno 17370 bound_to 10713
  157.2055  131.0448  151.2628 LP  0  0  0  0  0  0  0  0  0  0  0  0  # atno 17371 bound_to 10713
  139.9613  134.7448  156.0232 LP  0  0  0  0  0  0  0  0  0  0  0  0  # atno 17394 bound_to 11000
  141.1341  133.6579  156.3545 LP  0  0  0  0  0  0  0  0  0  0  0  0  # atno 17395 bound_to 11000

$$$$
