AV-unprocessed.smi:423|AV-procd|sdf|2538|dock2
  -GOLD-   2262022503D 1   1.00000     0.00000
 Structure written by MMmdl.
 47 48  0  0  0  0  0  0  0  0  1 V2000
  153.2167  138.6464  154.7806 C   0  0  0  0  0  0  0  0  0  0  0  0
  152.1609  139.1131  155.7411 C   0  0  0  0  0  0  0  0  0  0  0  0
  152.5049  139.8917  156.7524 N   0  0  0  0  0  0  0  0  0  0  0  0
  151.3562  140.1191  157.4228 N   0  0  0  0  0  0  0  0  0  0  0  0
  151.3889  140.9462  158.6201 C   0  0  0  0  0  0  0  0  0  0  0  0
  152.8051  141.4460  158.9800 C   0  0  0  0  0  0  0  0  0  0  0  0
  153.6563  140.3003  159.5469 C   0  0  0  0  0  0  0  0  0  0  0  0
  152.7944  142.6474  159.9414 C   0  0  0  0  0  0  0  0  0  0  0  0
  150.2801  139.4916  156.8210 C   0  0  0  0  0  0  0  0  0  0  0  0
  148.8880  139.5784  157.3605 C   0  0  0  0  0  0  0  0  0  0  0  0
  150.7647  138.8267  155.7262 C   0  0  0  0  0  0  0  0  0  0  0  0
  150.0119  137.9793  154.7287 C   0  0  0  0  0  0  0  0  0  0  0  0
  149.4827  136.6816  155.3660 C   0  0  0  0  0  0  0  0  0  0  0  0
  149.4335  136.5589  156.5895 O   0  0  0  0  0  0  0  0  0  0  0  0
  149.0788  135.6822  154.5638 N   0  0  0  0  0  0  0  0  0  0  0  0
  148.5488  134.3810  154.9676 C   0  0  0  0  0  0  0  0  0  0  0  0
  149.5438  133.2399  154.6646 C   0  0  0  0  0  0  0  0  0  0  0  0
  148.7624  132.1873  153.8753 C   0  0  0  0  0  0  0  0  0  0  0  0
  147.6751  132.9804  153.1585 C   0  0  0  0  0  0  0  0  0  0  0  0
  147.2739  134.0544  154.1691 C   0  0  0  0  0  0  0  0  0  0  0  0
  153.0207  137.6268  154.4483 H   0  0  0  0  0  0  0  0  0  0  0  0
  154.2077  138.6575  155.2362 H   0  0  0  0  0  0  0  0  0  0  0  0
  153.2488  139.2842  153.8975 H   0  0  0  0  0  0  0  0  0  0  0  0
  150.7211  141.7973  158.4744 H   0  0  0  0  0  0  0  0  0  0  0  0
  150.9689  140.3715  159.4459 H   0  0  0  0  0  0  0  0  0  0  0  0
  153.2866  141.7766  158.0595 H   0  0  0  0  0  0  0  0  0  0  0  0
  153.2354  139.9177  160.4772 H   0  0  0  0  0  0  0  0  0  0  0  0
  154.6746  140.6308  159.7537 H   0  0  0  0  0  0  0  0  0  0  0  0
  153.7176  139.4701  158.8426 H   0  0  0  0  0  0  0  0  0  0  0  0
  152.2854  142.4024  160.8741 H   0  0  0  0  0  0  0  0  0  0  0  0
  152.2910  143.5092  159.5024 H   0  0  0  0  0  0  0  0  0  0  0  0
  153.8091  142.9607  160.1882 H   0  0  0  0  0  0  0  0  0  0  0  0
  148.1608  139.2150  156.6345 H   0  0  0  0  0  0  0  0  0  0  0  0
  148.6224  140.6063  157.6058 H   0  0  0  0  0  0  0  0  0  0  0  0
  148.7852  138.9744  158.2615 H   0  0  0  0  0  0  0  0  0  0  0  0
  149.1786  138.5416  154.3091 H   0  0  0  0  0  0  0  0  0  0  0  0
  150.6511  137.7122  153.8869 H   0  0  0  0  0  0  0  0  0  0  0  0
  149.1453  135.8427  153.5691 H   0  0  0  0  0  0  0  0  0  0  0  0
  148.2955  134.3958  156.0287 H   0  0  0  0  0  0  0  0  0  0  0  0
  150.3719  133.6019  154.0532 H   0  0  0  0  0  0  0  0  0  0  0  0
  149.9759  132.8207  155.5736 H   0  0  0  0  0  0  0  0  0  0  0  0
  149.3940  131.6232  153.1884 H   0  0  0  0  0  0  0  0  0  0  0  0
  148.3030  131.4773  154.5645 H   0  0  0  0  0  0  0  0  0  0  0  0
  148.0901  133.4500  152.2654 H   0  0  0  0  0  0  0  0  0  0  0  0
  146.8342  132.3584  152.8501 H   0  0  0  0  0  0  0  0  0  0  0  0
  146.5231  133.6434  154.8457 H   0  0  0  0  0  0  0  0  0  0  0  0
  146.8263  134.9258  153.6888 H   0  0  0  0  0  0  0  0  0  0  0  0
  1  2  1  0  0  0  0
  1 21  1  0  0  0  0
  1 22  1  0  0  0  0
  1 23  1  0  0  0  0
  2 11  1  0  0  0  0
  2  3  2  0  0  0  0
  3  4  1  0  0  0  0
  4  5  1  0  0  0  0
  4  9  1  0  0  0  0
  5  6  1  0  0  0  0
  5 24  1  0  0  0  0
  5 25  1  0  0  0  0
  6  7  1  0  0  0  0
  6  8  1  0  0  0  0
  6 26  1  0  0  0  0
  7 27  1  0  0  0  0
  7 28  1  0  0  0  0
  7 29  1  0  0  0  0
  8 30  1  0  0  0  0
  8 31  1  0  0  0  0
  8 32  1  0  0  0  0
  9 10  1  0  0  0  0
  9 11  2  0  0  0  0
 10 33  1  0  0  0  0
 10 34  1  0  0  0  0
 10 35  1  0  0  0  0
 11 12  1  0  0  0  0
 12 13  1  0  0  0  0
 12 36  1  0  0  0  0
 12 37  1  0  0  0  0
 13 14  2  0  0  0  0
 13 15  1  0  0  0  0
 15 16  1  0  0  0  0
 15 38  1  0  0  0  0
 16 20  1  0  0  0  0
 16 17  1  0  0  0  0
 16 39  1  0  0  0  0
 17 18  1  0  0  0  0
 17 40  1  0  0  0  0
 17 41  1  0  0  0  0
 18 19  1  0  0  0  0
 18 42  1  0  0  0  0
 18 43  1  0  0  0  0
 19 20  1  0  0  0  0
 19 44  1  0  0  0  0
 19 45  1  0  0  0  0
 20 46  1  0  0  0  0
 20 47  1  0  0  0  0
M  END
> <s_m_source_file>
AV-unprocessed.smi

> <i_m_source_file_index>
423

> <i_lp_mmshare_version>
43012

> <i_f3d_flags>
0

> <s_epik_input>
W0NIM11jMW5uKFtDSDJdW0NIXShbQ0gzXSlbQ0gzXSljKFtDSDNdKWMxW0NIMl1DKD1PKVtOSF1bQ0hdMltDSDJdW0NIMl1bQ0gyXVtDSDJdMg==

> <s_epik_cmdline>
J2VwaWtfcHl0aG9uJywgJy1waCcsICc3LjAnLCAnLXRuJywgJzgnLCAnLW1hJywgJzIwMCcsICctbWV0YWxfYmluZGluZycsICctaW1hZScsICc8aW5maWxlLm1hZT4nLCAnLW9tYWUnLCAnPG91dGZpbGUubWFlPic=

> <r_lp_tautomer_probability>
1

> <r_epik_Ionization_Penalty>
0.00323157

> <r_epik_Ionization_Penalty_Charging>
0

> <r_epik_Ionization_Penalty_Neutral>
0.00323157

> <r_epik_State_Penalty>
0.00228044

> <r_epik_Charging_Adjusted_Penalty>
0.00228044

> <i_epik_Tot_Q>
0

> <i_epik_Tot_abs_Q>
0

> <r_epik_Metal_State_Penalty>
-0

> <b_epik_Metal_Only>
0

> <s_lp_Force_Field>
OPLS_2005

> <r_lp_Energy>
20.2574

> <b_lp_Chiralities_Consistent>
1

> <s_lp_Variant>
AV-unprocessed.smi:423-1

> <Gold.Version>
5.8.1

> <Gold.Id.Protein>
6NUR|6NUR_protein|mol2

> <Gold.PLP.Fitness>
40.8872

> <Gold.PLP.PLP>
-35.7463

> <Gold.PLP.part.hbond>
-2.0000

> <Gold.PLP.part.metal>
0.0000

> <Gold.PLP.part.buried>
-4.3506

> <Gold.PLP.part.nonpolar>
-29.8609

> <Gold.PLP.part.repulsive>
0.0336

> <Gold.PLP.ligand.clash>
0.0000

> <Gold.PLP.ligand.torsion>
0.5053

> <Gold.PLP.Chemscore.Hbond>
2.0000

> <Gold.PLP.Chemscore.CHOScore>
0.0000

> <Gold.PLP.Chemscore.Metal>
0.0000

> <Gold.Chemscore.Hbonds>
donor molecule, donor type, donor heavy atom, donor atom, acceptor molecule, acceptor atom, score
      L1  H    15    38       P1  7948  1.00
      P1  H  7997  8010       L1     3  0.90

> <Gold.PLP.Chemscore.Internal.Correction>
0.1515

> <Gold.Rescore>
     Score         DG    S(hbond)    S(metal)    S(lipo)     H(rot)  DE(clash)    DE(int)     intcor
     18.04     -18.77       1.86        0.00      91.69       1.43       0.07       0.67       ----

> <Gold.Chemscore.Fitness>
18.0369

> <Gold.Chemscore.DG>
-18.7707

> <Gold.Chemscore.ZeroCoef>
-5.4800

> <Gold.Chemscore.Hbond>
1.8645

> <Gold.Chemscore.Metal>
0.0000

> <Gold.Chemscore.Lipo>
91.6936

> <Gold.Chemscore.Internal_Hbond>
0.0000

> <Gold.Chemscore.DEClash>
0.0677

> <Gold.Chemscore.DEInternal>
0.6661

> <Gold.Chemscore.Rot>
1.4316

> <Gold.Chemscore.Internal.Correction>
   9.000000E+99

> <Gold.Chemscore.Hbonds>
donor molecule, donor type, donor heavy atom, donor atom, acceptor molecule, acceptor atom, score
      L1  H    15    38       P1  7948  0.78
      P1  H  7997  8010       L1     3  0.18

> <Gold.Chemscore.Hbond.Weighted>
-6.2275

> <Gold.Chemscore.Metal.Weighted>
-0.0000

> <Gold.Chemscore.Lipo.Weighted>
-10.7282

> <Gold.Chemscore.Internal_Hbond.Weighted>
0.0000

> <Gold.Chemscore.DEClash.Weighted>
0.0677

> <Gold.Chemscore.DEInternal.Weighted>
0.6661

> <Gold.Chemscore.Rot.Weighted>
3.6649

> <Gold.Chemscore.Internal.Correction.Weighted>
   9.000000E+99

> <Gold.Protein.RotatedTorsions>
[ 6907 6896 6895 6894 ] final  -41.52 input  -60.11 | X-H torsion
[ 7974 7965 7964 7962 ] final  -34.85 input  175.53 | X-H torsion
[ 8008 7997 7996 7995 ] final   80.86 input   59.86 | X-H torsion
[ 10167 10162 10161 10158 ] final   89.93 input  -65.29 | X-H torsion
[ 10718 10713 10712 10709 ] final  -45.21 input   66.30 | X-H torsion
[ 10763 10752 10751 10750 ] final  -31.98 input  -60.55 | X-H torsion
[ 11005 11000 10999 10996 ] final -121.42 input  -57.11 | X-H torsion

> <Gold.Protein.ActiveResidues>
 VAL166  LYS551  ARG553  GLY616  TRP617  ASP618  TYR619  PRO620  LYS621  CYS622 
 ASP623  PHE694  ASN695  SER759  ASP760  ASP761  ALA762  ILE779  LEU786  VAL792 
 PHE793  MET794  SER795  GLU796  ALA797  LYS798  CYS799  TRP800  GLU811  SER814 

> <Gold.Protein.RotatedAtoms>
  150.9658  134.9039  159.7757 H   0  0  0  0  0  0  0  0  0  0  0  0  # atno 6907 bound_to 6896
  152.5172  134.3610  159.9294 H   0  0  0  0  0  0  0  0  0  0  0  0  # atno 6908 bound_to 6896
  151.3620  133.3845  159.2725 H   0  0  0  0  0  0  0  0  0  0  0  0  # atno 6909 bound_to 6896
  146.0795  140.6088  142.8915 H   0  0  0  0  0  0  0  0  0  0  0  0  # atno 7974 bound_to 7965
  155.8893  140.3440  155.5944 H   0  0  0  0  0  0  0  0  0  0  0  0  # atno 8008 bound_to 7997
  155.7630  140.0835  157.2165 H   0  0  0  0  0  0  0  0  0  0  0  0  # atno 8009 bound_to 7997
  154.4032  140.1532  156.2841 H   0  0  0  0  0  0  0  0  0  0  0  0  # atno 8010 bound_to 7997
  139.8524  144.6587  150.9154 H   0  0  0  0  0  0  0  0  0  0  0  0  # atno 10167 bound_to 10162
  156.2307  130.4172  149.8879 H   0  0  0  0  0  0  0  0  0  0  0  0  # atno 10718 bound_to 10713
  153.8062  135.6886  153.4848 H   0  0  0  0  0  0  0  0  0  0  0  0  # atno 10763 bound_to 10752
  153.1657  135.4562  154.9832 H   0  0  0  0  0  0  0  0  0  0  0  0  # atno 10764 bound_to 10752
  154.7986  135.3329  154.7547 H   0  0  0  0  0  0  0  0  0  0  0  0  # atno 10765 bound_to 10752
  141.0071  134.0318  157.3462 H   0  0  0  0  0  0  0  0  0  0  0  0  # atno 11005 bound_to 11000
  144.7284  140.4596  143.6956 LP  0  0  0  0  0  0  0  0  0  0  0  0  # atno 17320 bound_to 7965
  145.6243  139.1528  143.3004 LP  0  0  0  0  0  0  0  0  0  0  0  0  # atno 17321 bound_to 7965
  140.7786  143.3816  151.1467 LP  0  0  0  0  0  0  0  0  0  0  0  0  # atno 17342 bound_to 10162
  139.7453  143.8862  152.3061 LP  0  0  0  0  0  0  0  0  0  0  0  0  # atno 17343 bound_to 10162
  156.6494  130.8737  151.3528 LP  0  0  0  0  0  0  0  0  0  0  0  0  # atno 17370 bound_to 10713
  157.7131  130.9464  150.1160 LP  0  0  0  0  0  0  0  0  0  0  0  0  # atno 17371 bound_to 10713
  139.9069  135.0182  156.7527 LP  0  0  0  0  0  0  0  0  0  0  0  0  # atno 17394 bound_to 11000
  140.6794  133.9488  155.7901 LP  0  0  0  0  0  0  0  0  0  0  0  0  # atno 17395 bound_to 11000

$$$$
