#       Name:                AV-unprocessed.smi:200
#       Creating user name   scv26
#       Creation time:       Thu Mar 26 19:46:28 2020


#       File generated by GOLD software.
#

@<TRIPOS>MOLECULE
AV-unprocessed.smi:200
    66    69     1
SMALL
NO_CHARGES


@<TRIPOS>ATOM
      1 ****        -1.4525  -4.2399  -3.5281 C.3            1 S1                 0.0000
      2 ****        -2.0004  -3.0947  -2.8998 O.3            1 S1                 0.0000
      3 ****        -1.7352  -3.0592  -1.5075 C.3            1 S1                 0.0000
      4 ****        -2.3402  -1.7742  -0.9151 C.3            1 S1                 0.0000
      5 ****        -1.6952  -0.5460  -1.3939 N.3            1 S1                 0.0000
      6 ****        -0.3506  -0.4738  -1.2535 C.ar           1 S1                 0.0000
      7 ****         0.3662  -0.1114  -2.3462 N.ar           1 S1                 0.0000
      8 ****         1.6976  -0.0264  -2.2750 C.ar           1 S1                 0.0000
      9 ****         2.4932  -0.2477  -1.2266 N.ar           1 S1                 0.0000
     10 ****         1.7747  -0.5959  -0.1212 C.ar           1 S1                 0.0000
     11 ****         0.3596  -0.7341  -0.0467 C.ar           1 S1                 0.0000
     12 ****        -0.0121  -1.0986   1.2416 N.2            1 S1                 0.0000
     13 ****         1.1174  -1.1777   1.8893 C.2            1 S1                 0.0000
     14 ****         2.2407  -0.8821   1.1503 N.pl3          1 S1                 0.0000
     15 ****         3.6157  -0.8888   1.6266 C.3            1 S1                 0.0000
     16 ****         4.1901   0.5110   1.9309 C.3            1 S1                 0.0000
     17 ****         3.2332   1.3179   2.8270 C.3            1 S1                 0.0000
     18 ****         3.0076   0.6671   4.0613 O.3            1 S1                 0.0000
     19 ****         5.6612   0.5448   2.3678 C.3            1 S1                 0.0000
     20 ****         5.9871   1.5539   1.3890 O.3            1 S1                 0.0000
     21 ****         4.7334   1.2914   0.7248 C.3            1 S1                 0.0000
     22 ****        -2.3415   0.7561  -1.1977 C.3            1 S1                 0.0000
     23 ****        -3.7006   0.9198  -1.8829 C.3            1 S1                 0.0000
     24 ****        -4.2657   2.1667  -1.2065 C.3            1 S1                 0.0000
     25 ****        -3.8422   2.0394   0.2659 C.3            1 S1                 0.0000
     26 ****        -3.6504   3.3927   0.9635 C.3            1 S1                 0.0000
     27 ****        -2.5797   1.1550   0.2691 C.3            1 S1                 0.0000
     28 ****        -1.6903  -4.2230  -4.5916 H              1 S1                 0.0000
     29 ****        -1.8639  -5.1573  -3.1050 H              1 S1                 0.0000
     30 ****        -0.3668  -4.2625  -3.4262 H              1 S1                 0.0000
     31 ****        -2.1989  -3.9250  -1.0328 H              1 S1                 0.0000
     32 ****        -0.6641  -3.1281  -1.3125 H              1 S1                 0.0000
     33 ****        -3.4015  -1.7543  -1.1549 H              1 S1                 0.0000
     34 ****        -2.2842  -1.8178   0.1714 H              1 S1                 0.0000
     35 ****         2.1969   0.2606  -3.1887 H              1 S1                 0.0000
     36 ****         1.1622  -1.4464   2.9349 H              1 S1                 0.0000
     37 ****         3.6627  -1.5178   2.5164 H              1 S1                 0.0000
     38 ****         4.2240  -1.3992   0.8790 H              1 S1                 0.0000
     39 ****         3.6504   2.3023   3.0421 H              1 S1                 0.0000
     40 ****         2.2768   1.4996   2.3364 H              1 S1                 0.0000
     41 ****         2.4464   1.2137   4.5901 H              1 S1                 0.0000
     42 ****         5.8158   0.8867   3.3918 H              1 S1                 0.0000
     43 ****         6.1994  -0.3865   2.1834 H              1 S1                 0.0000
     44 ****         4.8783   0.6880  -0.1723 H              1 S1                 0.0000
     45 ****         4.1776   2.2012   0.4956 H              1 S1                 0.0000
     46 ****        -1.6965   1.5223  -1.6330 H              1 S1                 0.0000
     47 ****        -3.6134   1.0314  -2.9639 H              1 S1                 0.0000
     48 ****        -4.3622   0.0777  -1.6841 H              1 S1                 0.0000
     49 ****        -3.8157   3.0541  -1.6544 H              1 S1                 0.0000
     50 ****        -5.3466   2.2516  -1.3235 H              1 S1                 0.0000
     51 ****        -4.6279   1.4941   0.7910 H              1 S1                 0.0000
     52 ****        -2.8672   3.9793   0.4825 H              1 S1                 0.0000
     53 ****        -3.3714   3.2572   2.0088 H              1 S1                 0.0000
     54 ****        -4.5697   3.9785   0.9388 H              1 S1                 0.0000
     55 ****        -2.7563   0.2857   0.9025 H              1 S1                 0.0000
     56 ****        -1.7073   1.6698   0.6736 H              1 S1                 0.0000
     57 ****        -2.9908  -3.0965  -3.0375 LP             1 S1                 0.0000
     58 ****        -1.6066  -2.2782  -3.3221 LP             1 S1                 0.0000
     59 ****        -1.8887  -0.7242  -2.3587 LP             1 S1                 0.0000
     60 ****        -0.1021   0.0923  -3.2059 LP             1 S1                 0.0000
     61 ****         3.4898  -0.1683  -1.2489 LP             1 S1                 0.0000
     62 ****        -0.9342  -1.2627   1.5919 LP             1 S1                 0.0000
     63 ****         3.8786   0.5234   4.5311 LP             1 S1                 0.0000
     64 ****         2.5656  -0.2156   3.9015 LP             1 S1                 0.0000
     65 ****         6.7952   1.3455   0.8379 LP             1 S1                 0.0000
     66 ****         6.0680   2.4777   1.7631 LP             1 S1                 0.0000
@<TRIPOS>BOND
    1    1    2 1     
    2    1   28 1     
    3    1   29 1     
    4    1   30 1     
    5    2    3 1     
    6    3    4 1     
    7    3   31 1     
    8    3   32 1     
    9    4    5 1     
   10    4   33 1     
   11    4   34 1     
   12    5    6 1     
   13    5   22 1     
   14    6   11 ar    
   15    6    7 ar    
   16    7    8 ar    
   17    8    9 ar    
   18    8   35 1     
   19    9   10 ar    
   20   10   14 1     
   21   10   11 ar    
   22   11   12 1     
   23   12   13 2     
   24   13   14 1     
   25   13   36 1     
   26   14   15 1     
   27   15   16 1     
   28   15   37 1     
   29   15   38 1     
   30   16   21 1     
   31   16   17 1     
   32   16   19 1     
   33   17   18 1     
   34   17   39 1     
   35   17   40 1     
   36   18   41 1     
   37   19   20 1     
   38   19   42 1     
   39   19   43 1     
   40   20   21 1     
   41   21   44 1     
   42   21   45 1     
   43   22   27 1     
   44   22   23 1     
   45   22   46 1     
   46   23   24 1     
   47   23   47 1     
   48   23   48 1     
   49   24   25 1     
   50   24   49 1     
   51   24   50 1     
   52   25   26 1     
   53   25   27 1     
   54   25   51 1     
   55   26   52 1     
   56   26   53 1     
   57   26   54 1     
   58   27   55 1     
   59   27   56 1     
   60    2   57 1     
   61    2   58 1     
   62    5   59 1     
   63    7   60 1     
   64    9   61 1     
   65   12   62 1     
   66   18   63 1     
   67   18   64 1     
   68   20   65 1     
   69   20   66 1     
@<TRIPOS>SUBSTRUCTURE
      1 S1             1
@<TRIPOS>SET
LONE_PAIRS      STATIC     ATOMS    <user>   **** ""
10 57 58 59 60 61 62 63 64 65 66
DONOR_HYDROGENS      STATIC     ATOMS    <user>   **** ""
1 41
ATOM$BLUE        STATIC     ATOMS    COLORGROUP SYSTEM
10 57 58 59 60 61 62 63 64 65 66
ATOM$RED        STATIC     ATOMS    COLORGROUP SYSTEM
1 41
