AV-unprocessed.smi:518|AV-procd|sdf|2792|dock1
  -GOLD-   2262023263D 1   1.00000     0.00000
 Structure written by MMmdl.
 41 43  0  0  0  0  0  0  0  0  2 V2000
  153.3943  138.8812  155.0982 O   0  0  0  0  0  0  0  0  0  0  0  0
  151.9941  139.0462  155.1209 C   0  0  0  0  0  0  0  0  0  0  0  0
  151.5161  139.1837  156.5730 C   0  0  0  0  0  0  0  0  0  0  0  0
  151.3550  140.5773  156.9595 N   0  0  0  0  0  0  0  0  0  0  0  0
  150.6275  141.5479  156.3485 C   0  0  0  0  0  0  0  0  0  0  0  0
  149.8217  141.2903  155.1010 C   0  0  0  0  0  0  0  0  0  0  0  0
  148.5389  142.0138  155.3014 N   0  3  0  0  0  0  0  0  0  0  0  0
  147.6947  142.0020  154.0794 C   0  0  0  0  0  0  0  0  0  0  0  0
  146.4446  142.8796  154.2592 C   0  0  0  0  0  0  0  0  0  0  0  0
  145.6350  142.4400  155.4861 C   0  0  0  0  0  0  0  0  0  0  0  0
  146.5341  142.4271  156.7293 C   0  0  0  0  0  0  0  0  0  0  0  0
  147.7805  141.5569  156.4983 C   0  0  0  0  0  0  0  0  0  0  0  0
  150.6846  142.7543  156.9193 N   0  0  0  0  0  0  0  0  0  0  0  0
  151.5060  142.5417  158.0085 C   0  0  0  0  0  0  0  0  0  0  0  0
  151.9459  143.4316  159.0141 C   0  0  0  0  0  0  0  0  0  0  0  0
  152.7945  142.9788  160.0454 C   0  0  0  0  0  0  0  0  0  0  0  0
  153.2140  141.6331  160.0856 C   0  0  0  0  0  0  0  0  0  0  0  0
  154.2512  141.0908  161.3528 Cl  0  0  0  0  0  0  0  0  0  0  0  0
  152.7875  140.7308  159.0921 C   0  0  0  0  0  0  0  0  0  0  0  0
  151.9408  141.1877  158.0647 C   0  0  0  0  0  0  0  0  0  0  0  0
  153.6168  138.1081  155.5944 H   0  0  0  0  0  0  0  0  0  0  0  0
  151.7348  139.9287  154.5370 H   0  0  0  0  0  0  0  0  0  0  0  0
  151.5263  138.1859  154.6413 H   0  0  0  0  0  0  0  0  0  0  0  0
  150.5582  138.6775  156.6982 H   0  0  0  0  0  0  0  0  0  0  0  0
  152.2031  138.6937  157.2631 H   0  0  0  0  0  0  0  0  0  0  0  0
  150.3725  141.6899  154.2485 H   0  0  0  0  0  0  0  0  0  0  0  0
  149.6391  140.2315  154.9216 H   0  0  0  0  0  0  0  0  0  0  0  0
  148.2715  142.3715  153.2305 H   0  0  0  0  0  0  0  0  0  0  0  0
  147.4062  140.9758  153.8452 H   0  0  0  0  0  0  0  0  0  0  0  0
  146.7430  143.9228  154.3720 H   0  0  0  0  0  0  0  0  0  0  0  0
  145.8228  142.8309  153.3646 H   0  0  0  0  0  0  0  0  0  0  0  0
  144.7877  143.1091  155.6396 H   0  0  0  0  0  0  0  0  0  0  0  0
  145.2213  141.4445  155.3188 H   0  0  0  0  0  0  0  0  0  0  0  0
  146.8389  143.4459  156.9730 H   0  0  0  0  0  0  0  0  0  0  0  0
  145.9753  142.0570  157.5894 H   0  0  0  0  0  0  0  0  0  0  0  0
  147.4891  140.5134  156.3675 H   0  0  0  0  0  0  0  0  0  0  0  0
  148.4101  141.5993  157.3875 H   0  0  0  0  0  0  0  0  0  0  0  0
  151.6309  144.4644  158.9935 H   0  0  0  0  0  0  0  0  0  0  0  0
  153.1251  143.6683  160.8086 H   0  0  0  0  0  0  0  0  0  0  0  0
  153.1078  139.6998  159.1207 H   0  0  0  0  0  0  0  0  0  0  0  0
  148.7881  142.9796  155.4631 H   0  0  0  0  0  0  0  0  0  0  0  0
  1  2  1  0  0  0  0
  1 21  1  0  0  0  0
  2  3  1  0  0  0  0
  2 22  1  0  0  0  0
  2 23  1  0  0  0  0
  3  4  1  0  0  0  0
  3 24  1  0  0  0  0
  3 25  1  0  0  0  0
  4 20  1  0  0  0  0
  4  5  1  0  0  0  0
  5  6  1  0  0  0  0
  5 13  2  0  0  0  0
  6  7  1  0  0  0  0
  6 26  1  0  0  0  0
  6 27  1  0  0  0  0
  7 12  1  0  0  0  0
  7  8  1  0  0  0  0
  7 41  1  0  0  0  0
  8  9  1  0  0  0  0
  8 28  1  0  0  0  0
  8 29  1  0  0  0  0
  9 10  1  0  0  0  0
  9 30  1  0  0  0  0
  9 31  1  0  0  0  0
 10 11  1  0  0  0  0
 10 32  1  0  0  0  0
 10 33  1  0  0  0  0
 11 12  1  0  0  0  0
 11 34  1  0  0  0  0
 11 35  1  0  0  0  0
 12 36  1  0  0  0  0
 12 37  1  0  0  0  0
 13 14  1  0  0  0  0
 14 20  2  0  0  0  0
 14 15  1  0  0  0  0
 15 16  2  0  0  0  0
 15 38  1  0  0  0  0
 16 17  1  0  0  0  0
 16 39  1  0  0  0  0
 17 18  1  0  0  0  0
 17 19  2  0  0  0  0
 19 20  1  0  0  0  0
 19 40  1  0  0  0  0
M  CHG  1   7   1
M  END
> <s_m_source_file>
AV-unprocessed.smi

> <i_m_source_file_index>
518

> <i_lp_mmshare_version>
43012

> <i_f3d_flags>
0

> <s_epik_input>
W2NIXTFbY0hdYyhDbClbY0hdYyhjMTIpbihbQ0gyXVtDSDJdW09IXSljKG4yKVtDSDJdTjNbQ0gyXVtDSDJdW0NIMl1bQ0gyXVtDSDJdMw==

> <s_epik_cmdline>
J2VwaWtfcHl0aG9uJywgJy1waCcsICc3LjAnLCAnLXRuJywgJzgnLCAnLW1hJywgJzIwMCcsICctbWV0YWxfYmluZGluZycsICctaW1hZScsICc8aW5maWxlLm1hZT4nLCAnLW9tYWUnLCAnPG91dGZpbGUubWFlPic=

> <r_epik_Ionization_Penalty>
0.173682

> <r_epik_Ionization_Penalty_Charging>
0.172202

> <r_epik_Ionization_Penalty_Neutral>
0.00148029

> <r_epik_State_Penalty>
0.185703

> <r_epik_Charging_Adjusted_Penalty>
0.357905

> <i_epik_Tot_Q>
1

> <i_epik_Tot_abs_Q>
1

> <r_epik_Metal_State_Penalty>
0.188036

> <b_epik_Metal_Only>
0

> <s_lp_Force_Field>
OPLS_2005

> <r_lp_Energy>
19.9694

> <b_lp_Chiralities_Consistent>
1

> <s_lp_Variant>
AV-unprocessed.smi:518-1

> <Gold.Version>
5.8.1

> <Gold.Id.Protein>
6NUR|6NUR_protein|mol2

> <Gold.PLP.Fitness>
53.4666

> <Gold.PLP.PLP>
-45.5229

> <Gold.PLP.part.hbond>
-2.0000

> <Gold.PLP.part.metal>
0.0000

> <Gold.PLP.part.buried>
-6.2976

> <Gold.PLP.part.nonpolar>
-39.0638

> <Gold.PLP.part.repulsive>
1.4535

> <Gold.PLP.ligand.clash>
0.0000

> <Gold.PLP.ligand.torsion>
0.5434

> <Gold.PLP.Chemscore.Hbond>
3.0000

> <Gold.PLP.Chemscore.CHOScore>
0.0000

> <Gold.PLP.Chemscore.Metal>
0.0000

> <Gold.Chemscore.Hbonds>
donor molecule, donor type, donor heavy atom, donor atom, acceptor molecule, acceptor atom, score
      L1  H     7    41       P1  8028  2.00
      P1  H  7997  8010       L1     1  1.00

> <Gold.PLP.Chemscore.Internal.Correction>
0.0305

> <Gold.Rescore>
     Score         DG    S(hbond)    S(metal)    S(lipo)     H(rot)  DE(clash)    DE(int)     intcor
     17.08     -18.93       1.84        0.00     108.38       2.09       1.32       0.53       ----

> <Gold.Chemscore.Fitness>
17.0802

> <Gold.Chemscore.DG>
-18.9320

> <Gold.Chemscore.ZeroCoef>
-5.4800

> <Gold.Chemscore.Hbond>
1.8353

> <Gold.Chemscore.Metal>
0.0000

> <Gold.Chemscore.Lipo>
108.3806

> <Gold.Chemscore.Internal_Hbond>
0.0000

> <Gold.Chemscore.DEClash>
1.3186

> <Gold.Chemscore.DEInternal>
0.5332

> <Gold.Chemscore.Rot>
2.0931

> <Gold.Chemscore.Internal.Correction>
   9.000000E+99

> <Gold.Chemscore.Hbonds>
donor molecule, donor type, donor heavy atom, donor atom, acceptor molecule, acceptor atom, score
      L1  H     7    41       P1  8028  1.00
      P1  H  7997  8010       L1     1  0.42

> <Gold.Chemscore.Hbond.Weighted>
-6.1297

> <Gold.Chemscore.Metal.Weighted>
-0.0000

> <Gold.Chemscore.Lipo.Weighted>
-12.6805

> <Gold.Chemscore.Internal_Hbond.Weighted>
0.0000

> <Gold.Chemscore.DEClash.Weighted>
1.3186

> <Gold.Chemscore.DEInternal.Weighted>
0.5332

> <Gold.Chemscore.Rot.Weighted>
5.3583

> <Gold.Chemscore.Internal.Correction.Weighted>
   9.000000E+99

> <Gold.Protein.RotatedTorsions>
[ 6907 6896 6895 6894 ] final  -23.84 input  -60.11 | X-H torsion
[ 7974 7965 7964 7962 ] final -145.11 input  175.53 | X-H torsion
[ 8008 7997 7996 7995 ] final  113.54 input   59.86 | X-H torsion
[ 10167 10162 10161 10158 ] final  124.60 input  -65.29 | X-H torsion
[ 10718 10713 10712 10709 ] final -140.07 input   66.30 | X-H torsion
[ 10763 10752 10751 10750 ] final  -50.82 input  -60.55 | X-H torsion
[ 11005 11000 10999 10996 ] final  -95.99 input  -57.11 | X-H torsion

> <Gold.Protein.ActiveResidues>
 VAL166  LYS551  ARG553  GLY616  TRP617  ASP618  TYR619  PRO620  LYS621  CYS622 
 ASP623  PHE694  ASN695  SER759  ASP760  ASP761  ALA762  ILE779  LEU786  VAL792 
 PHE793  MET794  SER795  GLU796  ALA797  LYS798  CYS799  TRP800  GLU811  SER814 

> <Gold.Protein.RotatedAtoms>
  151.1982  135.0431  159.8860 H   0  0  0  0  0  0  0  0  0  0  0  0  # atno 6907 bound_to 6896
  152.5434  134.0880  159.8274 H   0  0  0  0  0  0  0  0  0  0  0  0  # atno 6908 bound_to 6896
  151.1017  133.5191  159.2641 H   0  0  0  0  0  0  0  0  0  0  0  0  # atno 6909 bound_to 6896
  144.8250  140.5626  143.5553 H   0  0  0  0  0  0  0  0  0  0  0  0  # atno 7974 bound_to 7965
  156.2264  140.2977  156.0079 H   0  0  0  0  0  0  0  0  0  0  0  0  # atno 8008 bound_to 7997
  155.2343  140.0420  157.2983 H   0  0  0  0  0  0  0  0  0  0  0  0  # atno 8009 bound_to 7997
  154.5923  140.2405  155.7911 H   0  0  0  0  0  0  0  0  0  0  0  0  # atno 8010 bound_to 7997
  139.5732  144.6950  151.3722 H   0  0  0  0  0  0  0  0  0  0  0  0  # atno 10167 bound_to 10162
  156.3181  130.7519  151.1610 H   0  0  0  0  0  0  0  0  0  0  0  0  # atno 10718 bound_to 10713
  154.1165  135.6541  153.4895 H   0  0  0  0  0  0  0  0  0  0  0  0  # atno 10763 bound_to 10752
  153.0239  135.5260  154.7139 H   0  0  0  0  0  0  0  0  0  0  0  0  # atno 10764 bound_to 10752
  154.6335  135.2979  155.0159 H   0  0  0  0  0  0  0  0  0  0  0  0  # atno 10765 bound_to 10752
  141.1425  133.8066  157.0511 H   0  0  0  0  0  0  0  0  0  0  0  0  # atno 11005 bound_to 11000
  145.5019  139.1483  143.3652 LP  0  0  0  0  0  0  0  0  0  0  0  0  # atno 17320 bound_to 7965
  146.2556  140.5159  142.8875 LP  0  0  0  0  0  0  0  0  0  0  0  0  # atno 17321 bound_to 7965
  140.7016  143.7617  150.7412 LP  0  0  0  0  0  0  0  0  0  0  0  0  # atno 17342 bound_to 10162
  140.1130  143.4682  152.2359 LP  0  0  0  0  0  0  0  0  0  0  0  0  # atno 17343 bound_to 10162
  157.7406  131.0515  150.5156 LP  0  0  0  0  0  0  0  0  0  0  0  0  # atno 17370 bound_to 10713
  156.5304  130.4183  149.6204 LP  0  0  0  0  0  0  0  0  0  0  0  0  # atno 17371 bound_to 10713
  140.0631  134.9744  157.1339 LP  0  0  0  0  0  0  0  0  0  0  0  0  # atno 17394 bound_to 11000
  140.3819  134.2278  155.7170 LP  0  0  0  0  0  0  0  0  0  0  0  0  # atno 17395 bound_to 11000

$$$$
