#       Name:                AV-unprocessed.smi:2943
#       Creating user name   scv26
#       Creation time:       Fri Mar 27 16:16:07 2020


#       File generated by GOLD software.
#

@<TRIPOS>MOLECULE
AV-unprocessed.smi:2943
    40    42     1
SMALL
NO_CHARGES


@<TRIPOS>ATOM
      1 ****        -3.2280   1.9617   0.7898 C.3            1 S1                 0.0000
      2 ****        -2.0564   1.0249   0.7719 C.2            1 S1                 0.0000
      3 ****        -0.7269   1.3792   0.7418 C.2            1 S1                 0.0000
      4 ****        -0.1361   2.7561   0.7188 C.3            1 S1                 0.0000
      5 ****         0.0701   0.2324   0.7431 N.pl3          1 S1                 0.0000
      6 ****         1.5263   0.2024   0.7216 C.3            1 S1                 0.0000
      7 ****         2.0839   0.2069  -0.7117 C.3            1 S1                 0.0000
      8 ****         3.6068   0.1028  -0.7816 C.3            1 S1                 0.0000
      9 ****         3.8095  -0.5118  -2.1474 C.3            1 S1                 0.0000
     10 ****         2.6472  -1.4970  -2.2135 C.3            1 S1                 0.0000
     11 ****         1.5924  -0.9009  -1.4645 O.3            1 S1                 0.0000
     12 ****        -0.7530  -0.8841   0.7626 C.ar           1 S1                 0.0000
     13 ****        -0.3658  -2.1953   0.7673 N.ar           1 S1                 0.0000
     14 ****        -1.4122  -3.0246   0.7799 C.ar           1 S1                 0.0000
     15 ****        -2.7141  -2.7254   0.7902 N.ar           1 S1                 0.0000
     16 ****        -3.0887  -1.4263   0.7882 C.ar           1 S1                 0.0000
     17 ****        -4.4558  -1.1583   0.7965 N.pl3          1 S1                 0.0000
     18 ****        -2.0948  -0.4121   0.7754 C.ar           1 S1                 0.0000
     19 ****        -2.9854   2.9024   1.2841 H              1 S1                 0.0000
     20 ****        -4.0744   1.5339   1.3260 H              1 S1                 0.0000
     21 ****        -3.5591   2.1938  -0.2224 H              1 S1                 0.0000
     22 ****        -0.8776   3.5051   0.4431 H              1 S1                 0.0000
     23 ****         0.6751   2.8289  -0.0047 H              1 S1                 0.0000
     24 ****         0.2597   3.0217   1.6991 H              1 S1                 0.0000
     25 ****         1.9114   1.0530   1.2841 H              1 S1                 0.0000
     26 ****         1.8636  -0.6883   1.2530 H              1 S1                 0.0000
     27 ****         1.7697   1.1116  -1.2335 H              1 S1                 0.0000
     28 ****         4.1045   1.0659  -0.6657 H              1 S1                 0.0000
     29 ****         3.9838  -0.5729  -0.0124 H              1 S1                 0.0000
     30 ****         3.7044   0.2497  -2.9214 H              1 S1                 0.0000
     31 ****         4.7824  -0.9900  -2.2651 H              1 S1                 0.0000
     32 ****         2.3388  -1.7121  -3.2368 H              1 S1                 0.0000
     33 ****         2.9192  -2.4391  -1.7358 H              1 S1                 0.0000
     34 ****        -1.1743  -4.0781   0.7825 H              1 S1                 0.0000
     35 ****        -5.1388  -1.9021   0.8037 H              1 S1                 0.0000
     36 ****        -4.8061  -0.2112   0.7981 H              1 S1                 0.0000
     37 ****         0.8809  -0.5838  -2.0916 LP             1 S1                 0.0000
     38 ****         1.2072  -1.5797  -0.8393 LP             1 S1                 0.0000
     39 ****         0.5875  -2.4973   0.7620 LP             1 S1                 0.0000
     40 ****        -3.4015  -3.4517   0.7993 LP             1 S1                 0.0000
@<TRIPOS>BOND
    1    1    2 1     
    2    1   19 1     
    3    1   20 1     
    4    1   21 1     
    5    2   18 1     
    6    2    3 2     
    7    3    4 1     
    8    3    5 1     
    9    4   22 1     
   10    4   23 1     
   11    4   24 1     
   12    5    6 1     
   13    5   12 1     
   14    6    7 1     
   15    6   25 1     
   16    6   26 1     
   17    7   11 1     
   18    7    8 1     
   19    7   27 1     
   20    8    9 1     
   21    8   28 1     
   22    8   29 1     
   23    9   10 1     
   24    9   30 1     
   25    9   31 1     
   26   10   11 1     
   27   10   32 1     
   28   10   33 1     
   29   12   18 ar    
   30   12   13 ar    
   31   13   14 ar    
   32   14   15 ar    
   33   14   34 1     
   34   15   16 ar    
   35   16   17 1     
   36   16   18 ar    
   37   17   35 1     
   38   17   36 1     
   39   11   37 1     
   40   11   38 1     
   41   13   39 1     
   42   15   40 1     
@<TRIPOS>SUBSTRUCTURE
      1 S1             1
@<TRIPOS>SET
LONE_PAIRS      STATIC     ATOMS    <user>   **** ""
4 37 38 39 40
DONOR_HYDROGENS      STATIC     ATOMS    <user>   **** ""
2 35 36
ATOM$BLUE        STATIC     ATOMS    COLORGROUP SYSTEM
4 37 38 39 40
ATOM$RED        STATIC     ATOMS    COLORGROUP SYSTEM
2 35 36
