#       Name:                AV-unprocessed.smi:992
#       Creating user name   scv26
#       Creation time:       Fri Mar 27 02:23:40 2020


#       File generated by GOLD software.
#

@<TRIPOS>MOLECULE
AV-unprocessed.smi:992
    36    37     1
SMALL
NO_CHARGES


@<TRIPOS>ATOM
      1 ****        -2.9794  -1.6548  -1.9490 C.3            1 S1                 0.0000
      2 ****        -2.3659  -0.9476  -0.7360 C.3            1 S1                 0.0000
      3 ****        -0.8260  -0.9477  -0.7822 C.3            1 S1                 0.0000
      4 ****        -0.2919  -0.1840   0.3377 N.3            1 S1                 0.0000
      5 ****         1.1062  -0.2279   0.4152 C.ar           1 S1                 0.0000
      6 ****         1.9591   0.3347  -0.5635 C.ar           1 S1                 0.0000
      7 ****         3.3564   0.2398  -0.3993 C.ar           1 S1                 0.0000
      8 ****         3.8759  -0.4143   0.7374 C.ar           1 S1                 0.0000
      9 ****         5.2524  -0.5225   0.9250 N.pl3          1 S1                 0.0000
     10 ****         2.9812  -0.9579   1.6820 C.ar           1 S1                 0.0000
     11 ****         1.6488  -0.8460   1.4880 N.pl3          1 S1                 1.0000
     12 ****        -0.8285   1.1696   0.3944 C.3            1 S1                 0.0000
     13 ****        -2.3682   1.1269   0.4184 C.3            1 S1                 0.0000
     14 ****        -2.9853   2.5290   0.3801 C.3            1 S1                 0.0000
     15 ****        -2.8287   0.4013  -0.7195 O.3            1 S1                 0.0000
     16 ****        -2.6609  -2.6963  -1.9984 H              1 S1                 0.0000
     17 ****        -2.6851  -1.1698  -2.8803 H              1 S1                 0.0000
     18 ****        -4.0685  -1.6434  -1.8973 H              1 S1                 0.0000
     19 ****        -2.7068  -1.4533   0.1694 H              1 S1                 0.0000
     20 ****        -0.4497  -1.9707  -0.7424 H              1 S1                 0.0000
     21 ****        -0.4817  -0.5131  -1.7218 H              1 S1                 0.0000
     22 ****         1.5528   0.8333  -1.4313 H              1 S1                 0.0000
     23 ****         4.0181   0.6653  -1.1397 H              1 S1                 0.0000
     24 ****         5.9088  -0.1397   0.2593 H              1 S1                 0.0000
     25 ****         5.6427  -0.9870   1.7329 H              1 S1                 0.0000
     26 ****         3.2853  -1.4753   2.5807 H              1 S1                 0.0000
     27 ****        -0.4532   1.6766   1.2844 H              1 S1                 0.0000
     28 ****        -0.4857   1.7390  -0.4707 H              1 S1                 0.0000
     29 ****        -2.7083   0.6232   1.3251 H              1 S1                 0.0000
     30 ****        -2.6692   3.1205   1.2397 H              1 S1                 0.0000
     31 ****        -4.0743   2.4763   0.3967 H              1 S1                 0.0000
     32 ****        -2.6917   3.0660  -0.5224 H              1 S1                 0.0000
     33 ****         1.0221  -1.2477   2.1858 H              1 S1                 0.0000
     34 ****        -0.6150  -0.6424   1.1657 LP             1 S1                 0.0000
     35 ****        -3.8287   0.3964  -0.7127 LP             1 S1                 0.0000
     36 ****        -2.5032   0.8613  -1.5456 LP             1 S1                 0.0000
@<TRIPOS>BOND
    1    1    2 1     
    2    1   16 1     
    3    1   17 1     
    4    1   18 1     
    5    2   15 1     
    6    2    3 1     
    7    2   19 1     
    8    3    4 1     
    9    3   20 1     
   10    3   21 1     
   11    4    5 1     
   12    4   12 1     
   13    5   11 ar    
   14    5    6 ar    
   15    6    7 ar    
   16    6   22 1     
   17    7    8 ar    
   18    7   23 1     
   19    8    9 1     
   20    8   10 ar    
   21    9   24 1     
   22    9   25 1     
   23   10   11 ar    
   24   10   26 1     
   25   11   33 1     
   26   12   13 1     
   27   12   27 1     
   28   12   28 1     
   29   13   14 1     
   30   13   15 1     
   31   13   29 1     
   32   14   30 1     
   33   14   31 1     
   34   14   32 1     
   35    4   34 1     
   36   15   35 1     
   37   15   36 1     
@<TRIPOS>SUBSTRUCTURE
      1 S1             1
@<TRIPOS>SET
LONE_PAIRS      STATIC     ATOMS    <user>   **** ""
3 34 35 36
DONOR_HYDROGENS      STATIC     ATOMS    <user>   **** ""
3 24 25 33
ATOM$BLUE        STATIC     ATOMS    COLORGROUP SYSTEM
3 34 35 36
ATOM$RED        STATIC     ATOMS    COLORGROUP SYSTEM
3 24 25 33
