AV-unprocessed.smi:2184|AV-procd|sdf|8872|dock3
  -GOLD-   2272012 73D 1   1.00000     0.00000
 Structure written by MMmdl.
 47 48  0  0  0  0  0  0  0  0  1 V2000
  155.5315  144.0380  168.3549 C   0  0  0  0  0  0  0  0  0  0  0  0
  155.4243  143.6635  166.5837 S   0  0  0  0  0  0  0  0  0  0  0  0
  156.3063  142.0755  166.5114 C   0  0  1  0  0  0  0  0  0  0  0  0
  155.6532  141.0610  167.4634 C   0  0  0  0  0  0  0  0  0  0  0  0
  156.3772  141.5240  165.0822 C   0  0  0  0  0  0  0  0  0  0  0  0
  156.9485  142.1610  164.1965 O   0  0  0  0  0  0  0  0  0  0  0  0
  155.7944  140.3336  164.8702 N   0  0  0  0  0  0  0  0  0  0  0  0
  155.7489  139.6427  163.5855 C   0  0  0  0  0  0  0  0  0  0  0  0
  154.9203  140.3484  162.5210 C   0  0  0  0  0  0  0  0  0  0  0  0
  154.6709  139.7700  161.2586 C   0  0  0  0  0  0  0  0  0  0  0  0
  153.8996  140.4821  160.3207 C   0  0  0  0  0  0  0  0  0  0  0  0
  153.4002  141.7605  160.6649 C   0  0  0  0  0  0  0  0  0  0  0  0
  152.6230  142.4901  159.7399 N   0  0  0  0  0  0  0  0  0  0  0  0
  153.1383  143.7745  159.2711 C   0  0  0  0  0  0  0  0  0  0  0  0
  152.0464  144.5720  158.5313 C   0  0  2  0  0  0  0  0  0  0  0  0
  151.0022  145.1999  159.4721 C   0  0  0  0  0  0  0  0  0  0  0  0
  151.4443  143.7618  157.5193 O   0  0  0  0  0  0  0  0  0  0  0  0
  150.8934  142.5316  157.9883 C   0  0  1  0  0  0  0  0  0  0  0  0
  150.2971  141.7908  156.7870 C   0  0  0  0  0  0  0  0  0  0  0  0
  151.9893  141.7056  158.6854 C   0  0  0  0  0  0  0  0  0  0  0  0
  153.6439  142.3136  161.8788 N   0  0  0  0  0  0  0  0  0  0  0  0
  154.3837  141.6266  162.7742 C   0  0  0  0  0  0  0  0  0  0  0  0
  154.9943  144.9605  168.5741 H   0  0  0  0  0  0  0  0  0  0  0  0
  156.5695  144.1665  168.6611 H   0  0  0  0  0  0  0  0  0  0  0  0
  155.0904  143.2337  168.9431 H   0  0  0  0  0  0  0  0  0  0  0  0
  157.3218  142.2534  166.8690 H   0  0  0  0  0  0  0  0  0  0  0  0
  156.1614  140.0965  167.4259 H   0  0  0  0  0  0  0  0  0  0  0  0
  154.6038  140.8954  167.2164 H   0  0  0  0  0  0  0  0  0  0  0  0
  155.6966  141.4128  168.4944 H   0  0  0  0  0  0  0  0  0  0  0  0
  155.3507  139.8749  165.6527 H   0  0  0  0  0  0  0  0  0  0  0  0
  156.7648  139.4841  163.2196 H   0  0  0  0  0  0  0  0  0  0  0  0
  155.3221  138.6527  163.7479 H   0  0  0  0  0  0  0  0  0  0  0  0
  155.0586  138.7944  161.0053 H   0  0  0  0  0  0  0  0  0  0  0  0
  153.6889  140.0360  159.3601 H   0  0  0  0  0  0  0  0  0  0  0  0
  153.5203  144.3639  160.1059 H   0  0  0  0  0  0  0  0  0  0  0  0
  153.9765  143.5896  158.5978 H   0  0  0  0  0  0  0  0  0  0  0  0
  152.5346  145.3959  158.0101 H   0  0  0  0  0  0  0  0  0  0  0  0
  151.4724  145.9179  160.1440 H   0  0  0  0  0  0  0  0  0  0  0  0
  150.5037  144.4562  160.0934 H   0  0  0  0  0  0  0  0  0  0  0  0
  150.2370  145.7310  158.9055 H   0  0  0  0  0  0  0  0  0  0  0  0
  150.0859  142.7347  158.6919 H   0  0  0  0  0  0  0  0  0  0  0  0
  149.8483  140.8455  157.0924 H   0  0  0  0  0  0  0  0  0  0  0  0
  151.0598  141.5737  156.0386 H   0  0  0  0  0  0  0  0  0  0  0  0
  149.5206  142.3875  156.3078 H   0  0  0  0  0  0  0  0  0  0  0  0
  152.7530  141.4103  157.9647 H   0  0  0  0  0  0  0  0  0  0  0  0
  151.5509  140.7873  159.0731 H   0  0  0  0  0  0  0  0  0  0  0  0
  154.5500  142.1143  163.7236 H   0  0  0  0  0  0  0  0  0  0  0  0
  1  2  1  0  0  0  0
  1 23  1  0  0  0  0
  1 24  1  0  0  0  0
  1 25  1  0  0  0  0
  2  3  1  0  0  0  0
  3  4  1  0  0  0  0
  3  5  1  0  0  0  0
  3 26  1  0  0  0  0
  4 27  1  0  0  0  0
  4 28  1  0  0  0  0
  4 29  1  0  0  0  0
  5  6  2  0  0  0  0
  5  7  1  0  0  0  0
  7  8  1  0  0  0  0
  7 30  1  0  0  0  0
  8  9  1  0  0  0  0
  8 31  1  0  0  0  0
  8 32  1  0  0  0  0
  9 22  1  0  0  0  0
  9 10  2  0  0  0  0
 10 11  1  0  0  0  0
 10 33  1  0  0  0  0
 11 12  2  0  0  0  0
 11 34  1  0  0  0  0
 12 13  1  0  0  0  0
 12 21  1  0  0  0  0
 13 20  1  0  0  0  0
 13 14  1  0  0  0  0
 14 15  1  0  0  0  0
 14 35  1  0  0  0  0
 14 36  1  0  0  0  0
 15 16  1  0  0  0  0
 15 17  1  0  0  0  0
 15 37  1  0  0  0  0
 16 38  1  0  0  0  0
 16 39  1  0  0  0  0
 16 40  1  0  0  0  0
 17 18  1  0  0  0  0
 18 19  1  0  0  0  0
 18 20  1  0  0  0  0
 18 41  1  0  0  0  0
 19 42  1  0  0  0  0
 19 43  1  0  0  0  0
 19 44  1  0  0  0  0
 20 45  1  0  0  0  0
 20 46  1  0  0  0  0
 21 22  2  0  0  0  0
 22 47  1  0  0  0  0
M  END
> <s_m_source_file>
AV-unprocessed.smi

> <i_m_source_file_index>
2184

> <i_lp_mmshare_version>
43012

> <i_f3d_flags>
0

> <s_epik_input>
W0NIM11TW0NASF0oW0NIM10pQyg9TylbTkhdW0NIMl1jMVtjSF1bY0hdYyhuW2NIXTEpTjJbQ0gyXVtDQEBIXShbQ0gzXSlPW0NAQEhdKFtDSDNdKVtDSDJdMg==

> <s_epik_cmdline>
J2VwaWtfcHl0aG9uJywgJy1waCcsICc3LjAnLCAnLXRuJywgJzgnLCAnLW1hJywgJzIwMCcsICctbWV0YWxfYmluZGluZycsICctaW1hZScsICc8aW5maWxlLm1hZT4nLCAnLW9tYWUnLCAnPG91dGZpbGUubWFlPic=

> <r_lp_tautomer_probability>
1

> <r_epik_Ionization_Penalty>
0.00551702

> <r_epik_Ionization_Penalty_Charging>
0

> <r_epik_Ionization_Penalty_Neutral>
0.00551702

> <r_epik_State_Penalty>
0.00403758

> <r_epik_Charging_Adjusted_Penalty>
0.00403758

> <i_epik_Tot_Q>
0

> <i_epik_Tot_abs_Q>
0

> <r_epik_Metal_State_Penalty>
-0

> <b_epik_Metal_Only>
0

> <s_lp_Force_Field>
OPLS_2005

> <r_lp_Energy>
17.5653

> <b_lp_Chiralities_Consistent>
1

> <s_lp_Variant>
AV-unprocessed.smi:2184-4

> <Gold.Version>
5.8.1

> <Gold.Id.Protein>
6NUR|6NUR_protein|mol2

> <Gold.PLP.Fitness>
44.2492

> <Gold.PLP.PLP>
-46.5276

> <Gold.PLP.part.hbond>
-0.2977

> <Gold.PLP.part.metal>
0.0000

> <Gold.PLP.part.buried>
-5.7129

> <Gold.PLP.part.nonpolar>
-40.2060

> <Gold.PLP.part.repulsive>
0.1938

> <Gold.PLP.ligand.clash>
1.9097

> <Gold.PLP.ligand.torsion>
0.3872

> <Gold.PLP.Chemscore.Hbond>
0.0000

> <Gold.PLP.Chemscore.CHOScore>
0.0000

> <Gold.PLP.Chemscore.Metal>
0.0000

> <Gold.PLP.Chemscore.Internal.Correction>
0.4057

> <Gold.Rescore>
     Score         DG    S(hbond)    S(metal)    S(lipo)     H(rot)  DE(clash)    DE(int)     intcor
     14.47     -16.26       0.00        0.00     127.02       1.59       1.35       0.44       ----

> <Gold.Chemscore.Fitness>
14.4701

> <Gold.Chemscore.DG>
-16.2590

> <Gold.Chemscore.ZeroCoef>
-5.4800

> <Gold.Chemscore.Hbond>
0.0000

> <Gold.Chemscore.Metal>
0.0000

> <Gold.Chemscore.Lipo>
127.0210

> <Gold.Chemscore.Internal_Hbond>
0.0000

> <Gold.Chemscore.DEClash>
1.3493

> <Gold.Chemscore.DEInternal>
0.4397

> <Gold.Chemscore.Rot>
1.5947

> <Gold.Chemscore.Internal.Correction>
   9.000000E+99

> <Gold.Chemscore.Hbond.Weighted>
-0.0000

> <Gold.Chemscore.Metal.Weighted>
-0.0000

> <Gold.Chemscore.Lipo.Weighted>
-14.8615

> <Gold.Chemscore.Internal_Hbond.Weighted>
0.0000

> <Gold.Chemscore.DEClash.Weighted>
1.3493

> <Gold.Chemscore.DEInternal.Weighted>
0.4397

> <Gold.Chemscore.Rot.Weighted>
4.0824

> <Gold.Chemscore.Internal.Correction.Weighted>
   9.000000E+99

> <Gold.Protein.RotatedTorsions>
[ 6907 6896 6895 6894 ] final   10.99 input  -60.11 | X-H torsion
[ 7974 7965 7964 7962 ] final  -12.07 input  175.53 | X-H torsion
[ 8008 7997 7996 7995 ] final  -98.28 input   59.86 | X-H torsion
[ 10167 10162 10161 10158 ] final  168.19 input  -65.29 | X-H torsion
[ 10718 10713 10712 10709 ] final  -45.89 input   66.30 | X-H torsion
[ 10763 10752 10751 10750 ] final -119.74 input  -60.55 | X-H torsion
[ 11005 11000 10999 10996 ] final   21.97 input  -57.11 | X-H torsion

> <Gold.Protein.ActiveResidues>
 VAL166  LYS551  ARG553  GLY616  TRP617  ASP618  TYR619  PRO620  LYS621  CYS622 
 ASP623  PHE694  ASN695  SER759  ASP760  ASP761  ALA762  ILE779  LEU786  VAL792 
 PHE793  MET794  SER795  GLU796  ALA797  LYS798  CYS799  TRP800  GLU811  SER814 

> <Gold.Protein.RotatedAtoms>
  151.7472  135.0841  160.0324 H   0  0  0  0  0  0  0  0  0  0  0  0  # atno 6907 bound_to 6896
  152.3441  133.6096  159.5905 H   0  0  0  0  0  0  0  0  0  0  0  0  # atno 6908 bound_to 6896
  150.7497  133.9593  159.3552 H   0  0  0  0  0  0  0  0  0  0  0  0  # atno 6909 bound_to 6896
  146.2165  140.3004  142.8375 H   0  0  0  0  0  0  0  0  0  0  0  0  # atno 7974 bound_to 7965
  154.7991  140.0456  157.1259 H   0  0  0  0  0  0  0  0  0  0  0  0  # atno 8008 bound_to 7997
  154.9500  140.3064  155.5060 H   0  0  0  0  0  0  0  0  0  0  0  0  # atno 8009 bound_to 7997
  156.2959  140.2290  156.4576 H   0  0  0  0  0  0  0  0  0  0  0  0  # atno 8010 bound_to 7997
  139.4962  144.3841  151.9590 H   0  0  0  0  0  0  0  0  0  0  0  0  # atno 10167 bound_to 10162
  156.2238  130.4168  149.8959 H   0  0  0  0  0  0  0  0  0  0  0  0  # atno 10718 bound_to 10713
  154.8625  135.4227  154.2348 H   0  0  0  0  0  0  0  0  0  0  0  0  # atno 10763 bound_to 10752
  153.3325  135.6989  153.6941 H   0  0  0  0  0  0  0  0  0  0  0  0  # atno 10764 bound_to 10752
  153.5952  135.3547  155.2898 H   0  0  0  0  0  0  0  0  0  0  0  0  # atno 10765 bound_to 10752
  140.3857  134.1873  155.7663 H   0  0  0  0  0  0  0  0  0  0  0  0  # atno 11005 bound_to 11000
  144.9061  140.7702  143.5836 LP  0  0  0  0  0  0  0  0  0  0  0  0  # atno 17320 bound_to 7965
  145.2932  139.1876  143.4729 LP  0  0  0  0  0  0  0  0  0  0  0  0  # atno 17321 bound_to 7965
  140.3278  144.3352  150.5994 LP  0  0  0  0  0  0  0  0  0  0  0  0  # atno 17342 bound_to 10162
  140.5670  143.2185  151.7666 LP  0  0  0  0  0  0  0  0  0  0  0  0  # atno 17343 bound_to 10162
  156.6597  130.8777  151.3545 LP  0  0  0  0  0  0  0  0  0  0  0  0  # atno 17370 bound_to 10713
  157.7100  130.9430  150.1059 LP  0  0  0  0  0  0  0  0  0  0  0  0  # atno 17371 bound_to 10713
  141.1908  133.8209  157.0903 LP  0  0  0  0  0  0  0  0  0  0  0  0  # atno 17394 bound_to 11000
  140.0444  134.9838  157.1022 LP  0  0  0  0  0  0  0  0  0  0  0  0  # atno 17395 bound_to 11000

$$$$
