AV-unprocessed.smi:979|AV-procd|sdf|4310|dock3
  -GOLD-   22720 2213D 1   1.00000     0.00000
 Structure written by MMmdl.
 43 44  0  0  0  0  0  0  0  0  1 V2000
  145.4228  144.2116  153.3950 C   0  0  0  0  0  0  0  0  0  0  0  0
  145.3926  143.5369  154.6778 N   0  0  0  0  0  0  0  0  0  0  0  0
  144.7740  143.9209  155.8045 C   0  0  0  0  0  0  0  0  0  0  0  0
  144.9350  143.1029  156.8436 N   0  0  0  0  0  0  0  0  0  0  0  0
  145.7341  142.0849  156.3634 N   0  0  0  0  0  0  0  0  0  0  0  0
  145.9694  142.3844  155.0799 C   0  0  0  0  0  0  0  0  0  0  0  0
  146.8039  141.5243  154.1762 C   0  0  0  0  0  0  0  0  0  0  0  0
  148.1450  142.1667  153.7682 C   0  0  0  0  0  0  0  0  0  0  0  0
  149.1084  142.2245  154.8631 N   0  0  0  0  0  0  0  0  0  0  0  0
  150.1538  141.3987  155.0162 C   0  0  0  0  0  0  0  0  0  0  0  0
  150.4253  140.4981  154.2222 O   0  0  0  0  0  0  0  0  0  0  0  0
  151.0198  141.6165  156.2583 C   0  0  0  0  0  0  0  0  0  0  0  0
  150.1883  142.0968  157.4626 C   0  0  0  0  0  0  0  0  0  0  0  0
  150.9969  142.8887  158.5101 C   0  0  0  0  0  0  0  0  0  0  0  0
  150.1154  143.4142  159.6652 C   0  0  0  0  0  0  0  0  0  0  0  0
  150.9302  144.2320  160.6813 C   0  0  0  0  0  0  0  0  0  0  0  0
  151.6773  145.3877  160.0001 C   0  0  0  0  0  0  0  0  0  0  0  0
  152.5672  144.8695  158.8612 C   0  0  0  0  0  0  0  0  0  0  0  0
  151.7482  144.0601  157.8432 C   0  0  0  0  0  0  0  0  0  0  0  0
  144.6805  145.0098  153.3743 H   0  0  0  0  0  0  0  0  0  0  0  0
  145.2013  143.5082  152.5941 H   0  0  0  0  0  0  0  0  0  0  0  0
  146.4114  144.6404  153.2302 H   0  0  0  0  0  0  0  0  0  0  0  0
  144.1920  144.8288  155.8697 H   0  0  0  0  0  0  0  0  0  0  0  0
  146.9900  140.5625  154.6538 H   0  0  0  0  0  0  0  0  0  0  0  0
  146.2220  141.3012  153.2814 H   0  0  0  0  0  0  0  0  0  0  0  0
  148.5728  141.6447  152.9110 H   0  0  0  0  0  0  0  0  0  0  0  0
  147.9674  143.1924  153.4438 H   0  0  0  0  0  0  0  0  0  0  0  0
  148.9590  142.9361  155.5642 H   0  0  0  0  0  0  0  0  0  0  0  0
  151.5176  140.6744  156.4872 H   0  0  0  0  0  0  0  0  0  0  0  0
  151.8053  142.3411  156.0381 H   0  0  0  0  0  0  0  0  0  0  0  0
  149.3847  142.7345  157.0912 H   0  0  0  0  0  0  0  0  0  0  0  0
  149.7005  141.2478  157.9440 H   0  0  0  0  0  0  0  0  0  0  0  0
  151.7460  142.2173  158.9330 H   0  0  0  0  0  0  0  0  0  0  0  0
  149.3120  144.0327  159.2626 H   0  0  0  0  0  0  0  0  0  0  0  0
  149.6353  142.5861  160.1861 H   0  0  0  0  0  0  0  0  0  0  0  0
  150.2711  144.6230  161.4570 H   0  0  0  0  0  0  0  0  0  0  0  0
  151.6463  143.5807  161.1844 H   0  0  0  0  0  0  0  0  0  0  0  0
  150.9583  146.1064  159.6046 H   0  0  0  0  0  0  0  0  0  0  0  0
  152.2823  145.9242  160.7315 H   0  0  0  0  0  0  0  0  0  0  0  0
  153.0581  145.7059  158.3627 H   0  0  0  0  0  0  0  0  0  0  0  0
  153.3609  144.2444  159.2721 H   0  0  0  0  0  0  0  0  0  0  0  0
  152.4125  143.6829  157.0649 H   0  0  0  0  0  0  0  0  0  0  0  0
  151.0355  144.7193  157.3456 H   0  0  0  0  0  0  0  0  0  0  0  0
  1  2  1  0  0  0  0
  1 20  1  0  0  0  0
  1 21  1  0  0  0  0
  1 22  1  0  0  0  0
  2  6  1  0  0  0  0
  2  3  1  0  0  0  0
  3  4  2  0  0  0  0
  3 23  1  0  0  0  0
  4  5  1  0  0  0  0
  5  6  2  0  0  0  0
  6  7  1  0  0  0  0
  7  8  1  0  0  0  0
  7 24  1  0  0  0  0
  7 25  1  0  0  0  0
  8  9  1  0  0  0  0
  8 26  1  0  0  0  0
  8 27  1  0  0  0  0
  9 10  1  0  0  0  0
  9 28  1  0  0  0  0
 10 11  2  0  0  0  0
 10 12  1  0  0  0  0
 12 13  1  0  0  0  0
 12 29  1  0  0  0  0
 12 30  1  0  0  0  0
 13 14  1  0  0  0  0
 13 31  1  0  0  0  0
 13 32  1  0  0  0  0
 14 19  1  0  0  0  0
 14 15  1  0  0  0  0
 14 33  1  0  0  0  0
 15 16  1  0  0  0  0
 15 34  1  0  0  0  0
 15 35  1  0  0  0  0
 16 17  1  0  0  0  0
 16 36  1  0  0  0  0
 16 37  1  0  0  0  0
 17 18  1  0  0  0  0
 17 38  1  0  0  0  0
 17 39  1  0  0  0  0
 18 19  1  0  0  0  0
 18 40  1  0  0  0  0
 18 41  1  0  0  0  0
 19 42  1  0  0  0  0
 19 43  1  0  0  0  0
M  END
> <s_m_source_file>
AV-unprocessed.smi

> <i_m_source_file_index>
979

> <i_lp_mmshare_version>
43012

> <i_f3d_flags>
0

> <s_epik_input>
W0NIM11uMVtjSF1ubmMxW0NIMl1bQ0gyXVtOSF1DKD1PKVtDSDJdW0NIMl1bQ0hdMltDSDJdW0NIMl1bQ0gyXVtDSDJdW0NIMl0y

> <s_epik_cmdline>
J2VwaWtfcHl0aG9uJywgJy1waCcsICc3LjAnLCAnLXRuJywgJzgnLCAnLW1hJywgJzIwMCcsICctbWV0YWxfYmluZGluZycsICctaW1hZScsICc8aW5maWxlLm1hZT4nLCAnLW9tYWUnLCAnPG91dGZpbGUubWFlPic=

> <r_lp_tautomer_probability>
1

> <r_epik_Ionization_Penalty>
0.000191268

> <r_epik_Ionization_Penalty_Charging>
0

> <r_epik_Ionization_Penalty_Neutral>
0.000191268

> <r_epik_State_Penalty>
-0

> <r_epik_Charging_Adjusted_Penalty>
0

> <i_epik_Tot_Q>
0

> <i_epik_Tot_abs_Q>
0

> <r_epik_Metal_State_Penalty>
-0

> <b_epik_Metal_Only>
0

> <s_lp_Force_Field>
OPLS_2005

> <r_lp_Energy>
9.56688

> <b_lp_Chiralities_Consistent>
1

> <s_lp_Variant>
AV-unprocessed.smi:979-1

> <Gold.Version>
5.8.1

> <Gold.Id.Protein>
6NUR|6NUR_protein|mol2

> <Gold.PLP.Fitness>
46.2815

> <Gold.PLP.PLP>
-42.2677

> <Gold.PLP.part.hbond>
-2.0000

> <Gold.PLP.part.metal>
0.0000

> <Gold.PLP.part.buried>
-4.8022

> <Gold.PLP.part.nonpolar>
-34.8448

> <Gold.PLP.part.repulsive>
0.4926

> <Gold.PLP.ligand.clash>
0.0000

> <Gold.PLP.ligand.torsion>
0.7276

> <Gold.PLP.Chemscore.Hbond>
1.7960

> <Gold.PLP.Chemscore.CHOScore>
0.0000

> <Gold.PLP.Chemscore.Metal>
0.0000

> <Gold.Chemscore.Hbonds>
donor molecule, donor type, donor heavy atom, donor atom, acceptor molecule, acceptor atom, score
      L1  H     9    28       P1  8028  0.75
      P1  H  7989  7998       L1    11  0.74

> <Gold.PLP.Chemscore.Internal.Correction>
0.0809

> <Gold.Rescore>
     Score         DG    S(hbond)    S(metal)    S(lipo)     H(rot)  DE(clash)    DE(int)     intcor
     14.25     -15.13       0.94        0.00     106.25       2.32       0.22       0.67       ----

> <Gold.Chemscore.Fitness>
14.2452

> <Gold.Chemscore.DG>
-15.1279

> <Gold.Chemscore.ZeroCoef>
-5.4800

> <Gold.Chemscore.Hbond>
0.9417

> <Gold.Chemscore.Metal>
0.0000

> <Gold.Chemscore.Lipo>
106.2546

> <Gold.Chemscore.Internal_Hbond>
0.0000

> <Gold.Chemscore.DEClash>
0.2166

> <Gold.Chemscore.DEInternal>
0.6661

> <Gold.Chemscore.Rot>
2.3161

> <Gold.Chemscore.Internal.Correction>
   9.000000E+99

> <Gold.Chemscore.Hbonds>
donor molecule, donor type, donor heavy atom, donor atom, acceptor molecule, acceptor atom, score
      L1  H     9    28       P1  8028  0.76
      P1  H  7989  7998       L1    11  0.46

> <Gold.Chemscore.Hbond.Weighted>
-3.1453

> <Gold.Chemscore.Metal.Weighted>
-0.0000

> <Gold.Chemscore.Lipo.Weighted>
-12.4318

> <Gold.Chemscore.Internal_Hbond.Weighted>
0.0000

> <Gold.Chemscore.DEClash.Weighted>
0.2166

> <Gold.Chemscore.DEInternal.Weighted>
0.6661

> <Gold.Chemscore.Rot.Weighted>
5.9292

> <Gold.Chemscore.Internal.Correction.Weighted>
   9.000000E+99

> <Gold.Protein.RotatedTorsions>
[ 6907 6896 6895 6894 ] final  132.10 input  -60.11 | X-H torsion
[ 7974 7965 7964 7962 ] final   -3.51 input  175.53 | X-H torsion
[ 8008 7997 7996 7995 ] final -104.87 input   59.86 | X-H torsion
[ 10167 10162 10161 10158 ] final -168.47 input  -65.29 | X-H torsion
[ 10718 10713 10712 10709 ] final   52.50 input   66.30 | X-H torsion
[ 10763 10752 10751 10750 ] final -173.48 input  -60.55 | X-H torsion
[ 11005 11000 10999 10996 ] final   54.53 input  -57.11 | X-H torsion

> <Gold.Protein.ActiveResidues>
 VAL166  LYS551  ARG553  GLY616  TRP617  ASP618  TYR619  PRO620  LYS621  CYS622 
 ASP623  PHE694  ASN695  SER759  ASP760  ASP761  ALA762  ILE779  LEU786  VAL792 
 PHE793  MET794  SER795  GLU796  ALA797  LYS798  CYS799  TRP800  GLU811  SER814 

> <Gold.Protein.RotatedAtoms>
  152.3358  133.6010  159.5841 H   0  0  0  0  0  0  0  0  0  0  0  0  # atno 6907 bound_to 6896
  150.7449  133.9797  159.3581 H   0  0  0  0  0  0  0  0  0  0  0  0  # atno 6908 bound_to 6896
  151.7667  135.0797  160.0405 H   0  0  0  0  0  0  0  0  0  0  0  0  # atno 6909 bound_to 6896
  146.2388  140.1732  142.8332 H   0  0  0  0  0  0  0  0  0  0  0  0  # atno 7974 bound_to 7965
  154.8916  140.0416  157.1841 H   0  0  0  0  0  0  0  0  0  0  0  0  # atno 8008 bound_to 7997
  154.8535  140.2933  155.5562 H   0  0  0  0  0  0  0  0  0  0  0  0  # atno 8009 bound_to 7997
  156.2996  140.2460  156.3498 H   0  0  0  0  0  0  0  0  0  0  0  0  # atno 8010 bound_to 7997
  139.5983  144.1065  152.1714 H   0  0  0  0  0  0  0  0  0  0  0  0  # atno 10167 bound_to 10162
  157.5080  130.8482  149.8399 H   0  0  0  0  0  0  0  0  0  0  0  0  # atno 10718 bound_to 10713
  154.6074  135.2861  155.0470 H   0  0  0  0  0  0  0  0  0  0  0  0  # atno 10763 bound_to 10752
  154.1712  135.6472  153.5014 H   0  0  0  0  0  0  0  0  0  0  0  0  # atno 10764 bound_to 10752
  153.0181  135.5401  154.6815 H   0  0  0  0  0  0  0  0  0  0  0  0  # atno 10765 bound_to 10752
  140.0679  134.5510  155.9079 H   0  0  0  0  0  0  0  0  0  0  0  0  # atno 11005 bound_to 11000
  144.9994  140.8618  143.5291 LP  0  0  0  0  0  0  0  0  0  0  0  0  # atno 17320 bound_to 7965
  145.1749  139.2383  143.5322 LP  0  0  0  0  0  0  0  0  0  0  0  0  # atno 17321 bound_to 7965
  140.0655  144.5822  150.7231 LP  0  0  0  0  0  0  0  0  0  0  0  0  # atno 17342 bound_to 10162
  140.7229  143.2607  151.4217 LP  0  0  0  0  0  0  0  0  0  0  0  0  # atno 17343 bound_to 10162
  156.0271  130.3776  150.1793 LP  0  0  0  0  0  0  0  0  0  0  0  0  # atno 17370 bound_to 10713
  156.9983  130.9914  151.3397 LP  0  0  0  0  0  0  0  0  0  0  0  0  # atno 17371 bound_to 10713
  141.2000  133.6610  156.5874 LP  0  0  0  0  0  0  0  0  0  0  0  0  # atno 17394 bound_to 11000
  140.3671  134.7638  157.4573 LP  0  0  0  0  0  0  0  0  0  0  0  0  # atno 17395 bound_to 11000

$$$$
