AV-unprocessed.smi:867|AV-procd|sdf|3995|dock6
  -GOLD-   22720 1473D 1   1.00000     0.00000
 Structure written by MMmdl.
 53 56  0  0  0  0  0  0  0  0  2 V2000
  151.0370  141.5909  154.7953 O   0  0  0  0  0  0  0  0  0  0  0  0
  150.4295  140.5806  155.1515 C   0  0  0  0  0  0  0  0  0  0  0  0
  150.0827  140.3656  156.4318 N   0  0  0  0  0  0  0  0  0  0  0  0
  150.3432  141.2786  157.5384 C   0  0  0  0  0  0  0  0  0  0  0  0
  149.3271  142.4311  157.5687 C   0  0  0  0  0  0  0  0  0  0  0  0
  149.6106  143.4095  158.6912 C   0  0  0  0  0  0  0  0  0  0  0  0
  150.9144  143.8986  158.9120 C   0  0  0  0  0  0  0  0  0  0  0  0
  151.1294  144.8026  159.9701 C   0  0  0  0  0  0  0  0  0  0  0  0
  150.0283  145.1793  160.7649 C   0  0  0  0  0  0  0  0  0  0  0  0
  148.7758  144.7159  160.5637 N   0  0  0  0  0  0  0  0  0  0  0  0
  148.5782  143.8496  159.5466 C   0  0  0  0  0  0  0  0  0  0  0  0
  150.1257  139.5637  154.3074 N   0  0  0  0  0  0  0  0  0  0  0  0
  150.8902  139.1751  153.1162 C   0  0  0  0  0  0  0  0  0  0  0  0
  151.6740  137.8799  153.4078 C   0  0  0  0  0  0  0  0  0  0  0  0
  150.7885  136.7815  153.8963 N   0  3  0  0  0  0  0  0  0  0  0  0
  151.5012  135.5119  154.2399 C   0  0  1  0  0  0  0  0  0  0  0  0
  150.5283  134.3033  154.2909 C   0  0  0  0  0  0  0  0  0  0  0  0
  151.1666  133.2799  153.3373 C   0  0  2  0  0  0  0  0  0  0  0  0
  152.4579  132.7288  153.9631 C   0  0  0  0  0  0  0  0  0  0  0  0
  153.4180  133.9252  153.8496 C   0  0  0  0  0  0  0  0  0  0  0  0
  152.5422  135.0140  153.1967 C   0  0  1  0  0  0  0  0  0  0  0  0
  151.6994  134.1847  152.2345 C   0  0  0  0  0  0  0  0  0  0  0  0
  149.9045  137.2345  155.0108 C   0  0  0  0  0  0  0  0  0  0  0  0
  149.1530  138.5278  154.6564 C   0  0  0  0  0  0  0  0  0  0  0  0
  149.6154  139.4999  156.6579 H   0  0  0  0  0  0  0  0  0  0  0  0
  150.2863  140.7085  158.4662 H   0  0  0  0  0  0  0  0  0  0  0  0
  151.3615  141.6663  157.4749 H   0  0  0  0  0  0  0  0  0  0  0  0
  149.3366  142.9706  156.6207 H   0  0  0  0  0  0  0  0  0  0  0  0
  148.3170  142.0365  157.6884 H   0  0  0  0  0  0  0  0  0  0  0  0
  151.7361  143.5862  158.2842 H   0  0  0  0  0  0  0  0  0  0  0  0
  152.1147  145.1971  160.1689 H   0  0  0  0  0  0  0  0  0  0  0  0
  150.1577  145.8703  161.5847 H   0  0  0  0  0  0  0  0  0  0  0  0
  147.5666  143.4952  159.4139 H   0  0  0  0  0  0  0  0  0  0  0  0
  150.1965  139.0104  152.2902 H   0  0  0  0  0  0  0  0  0  0  0  0
  151.5801  139.9430  152.7663 H   0  0  0  0  0  0  0  0  0  0  0  0
  152.1686  137.5931  152.4823 H   0  0  0  0  0  0  0  0  0  0  0  0
  152.4528  138.0732  154.1473 H   0  0  0  0  0  0  0  0  0  0  0  0
  151.9923  135.6537  155.2042 H   0  0  0  0  0  0  0  0  0  0  0  0
  150.4069  133.9108  155.3013 H   0  0  0  0  0  0  0  0  0  0  0  0
  149.5369  134.5614  153.9163 H   0  0  0  0  0  0  0  0  0  0  0  0
  150.4769  132.5040  153.0037 H   0  0  0  0  0  0  0  0  0  0  0  0
  152.3125  132.4053  154.9945 H   0  0  0  0  0  0  0  0  0  0  0  0
  152.8353  131.8782  153.3941 H   0  0  0  0  0  0  0  0  0  0  0  0
  153.8173  134.2333  154.8168 H   0  0  0  0  0  0  0  0  0  0  0  0
  154.2637  133.6737  153.2081 H   0  0  0  0  0  0  0  0  0  0  0  0
  153.1595  135.7760  152.7267 H   0  0  0  0  0  0  0  0  0  0  0  0
  152.2911  133.6524  151.4874 H   0  0  0  0  0  0  0  0  0  0  0  0
  150.9218  134.7619  151.7310 H   0  0  0  0  0  0  0  0  0  0  0  0
  149.1762  136.4650  155.2649 H   0  0  0  0  0  0  0  0  0  0  0  0
  150.5078  137.3981  155.9054 H   0  0  0  0  0  0  0  0  0  0  0  0
  148.5049  138.8239  155.4830 H   0  0  0  0  0  0  0  0  0  0  0  0
  148.4881  138.3557  153.8087 H   0  0  0  0  0  0  0  0  0  0  0  0
  150.1774  136.5620  153.1227 H   0  0  0  0  0  0  0  0  0  0  0  0
  1  2  2  0  0  0  0
  2  3  1  0  0  0  0
  2 12  1  0  0  0  0
  3  4  1  0  0  0  0
  3 25  1  0  0  0  0
  4  5  1  0  0  0  0
  4 26  1  0  0  0  0
  4 27  1  0  0  0  0
  5  6  1  0  0  0  0
  5 28  1  0  0  0  0
  5 29  1  0  0  0  0
  6 11  1  0  0  0  0
  6  7  2  0  0  0  0
  7  8  1  0  0  0  0
  7 30  1  0  0  0  0
  8  9  2  0  0  0  0
  8 31  1  0  0  0  0
  9 10  1  0  0  0  0
  9 32  1  0  0  0  0
 10 11  2  0  0  0  0
 11 33  1  0  0  0  0
 12 24  1  0  0  0  0
 12 13  1  0  0  0  0
 13 14  1  0  0  0  0
 13 34  1  0  0  0  0
 13 35  1  0  0  0  0
 14 15  1  0  0  0  0
 14 36  1  0  0  0  0
 14 37  1  0  0  0  0
 15 16  1  0  0  0  0
 15 23  1  0  0  0  0
 15 53  1  0  0  0  0
 16 21  1  0  0  0  0
 16 17  1  0  0  0  0
 16 38  1  0  0  0  0
 17 18  1  0  0  0  0
 17 39  1  0  0  0  0
 17 40  1  0  0  0  0
 18 22  1  0  0  0  0
 18 19  1  0  0  0  0
 18 41  1  0  0  0  0
 19 20  1  0  0  0  0
 19 42  1  0  0  0  0
 19 43  1  0  0  0  0
 20 21  1  0  0  0  0
 20 44  1  0  0  0  0
 20 45  1  0  0  0  0
 21 22  1  0  0  0  0
 21 46  1  0  0  0  0
 22 47  1  0  0  0  0
 22 48  1  0  0  0  0
 23 24  1  0  0  0  0
 23 49  1  0  0  0  0
 23 50  1  0  0  0  0
 24 51  1  0  0  0  0
 24 52  1  0  0  0  0
M  CHG  1  15   1
M  END
> <s_m_source_file>
AV-unprocessed.smi

> <i_m_source_file_index>
867

> <i_lp_mmshare_version>
43012

> <i_f3d_flags>
0

> <s_epik_input>
W0NIMl0xW0NIMl1bQ0BASF0oW0NIMl0yKVtDQEBIXShbQ0gyXVtDQEhdMTIpTihbQ0gyXVtDSDJdMylbQ0gyXVtDSDJdTjNDKD1PKVtOSF1bQ0gyXVtDSDJdYzRbY0hdW2NIXVtjSF1uW2NIXTQ=

> <s_epik_cmdline>
J2VwaWtfcHl0aG9uJywgJy1waCcsICc3LjAnLCAnLXRuJywgJzgnLCAnLW1hJywgJzIwMCcsICctbWV0YWxfYmluZGluZycsICctaW1hZScsICc8aW5maWxlLm1hZT4nLCAnLW9tYWUnLCAnPG91dGZpbGUubWFlPic=

> <r_epik_Ionization_Penalty>
0.0161279

> <r_epik_Ionization_Penalty_Charging>
0.00262064

> <r_epik_Ionization_Penalty_Neutral>
0.0135072

> <r_epik_State_Penalty>
0.0104914

> <r_epik_Charging_Adjusted_Penalty>
0.013112

> <i_epik_Tot_Q>
1

> <i_epik_Tot_abs_Q>
1

> <r_epik_Metal_State_Penalty>
0.0102536

> <b_epik_Metal_Only>
0

> <s_lp_Force_Field>
OPLS_2005

> <r_lp_Energy>
96.0256

> <b_lp_Chiralities_Consistent>
1

> <s_lp_Variant>
AV-unprocessed.smi:867-2

> <Gold.Version>
5.8.1

> <Gold.Id.Protein>
6NUR|6NUR_protein|mol2

> <Gold.PLP.Fitness>
53.8274

> <Gold.PLP.PLP>
-44.3689

> <Gold.PLP.part.hbond>
-2.3964

> <Gold.PLP.part.metal>
0.0000

> <Gold.PLP.part.buried>
-2.6175

> <Gold.PLP.part.nonpolar>
-39.9660

> <Gold.PLP.part.repulsive>
0.2613

> <Gold.PLP.ligand.clash>
1.1132

> <Gold.PLP.ligand.torsion>
0.6882

> <Gold.PLP.Chemscore.Hbond>
3.0000

> <Gold.PLP.Chemscore.CHOScore>
0.9302

> <Gold.PLP.Chemscore.Metal>
0.0000

> <Gold.Chemscore.Hbonds>
donor molecule, donor type, donor heavy atom, donor atom, acceptor molecule, acceptor atom, score
      L1  H    15    53       P1  7948  0.70
      P1  H  7989  7998       L1     1  0.20

> <Gold.PLP.Chemscore.Internal.Correction>
0.1574

> <Gold.Rescore>
     Score         DG    S(hbond)    S(metal)    S(lipo)     H(rot)  DE(clash)    DE(int)     intcor
     21.42     -22.47       1.92        0.00     120.33       1.37       0.44       0.60       ----

> <Gold.Chemscore.Fitness>
21.4226

> <Gold.Chemscore.DG>
-22.4667

> <Gold.Chemscore.ZeroCoef>
-5.4800

> <Gold.Chemscore.Hbond>
1.9230

> <Gold.Chemscore.Metal>
0.0000

> <Gold.Chemscore.Lipo>
120.3345

> <Gold.Chemscore.Internal_Hbond>
0.0000

> <Gold.Chemscore.DEClash>
0.4397

> <Gold.Chemscore.DEInternal>
0.6044

> <Gold.Chemscore.Rot>
1.3731

> <Gold.Chemscore.Internal.Correction>
   9.000000E+99

> <Gold.Chemscore.Hbonds>
donor molecule, donor type, donor heavy atom, donor atom, acceptor molecule, acceptor atom, score
      L1  H    15    53       P1  7948  0.01
      P1  H  7989  7998       L1     1  0.03

> <Gold.Chemscore.Hbond.Weighted>
-6.4228

> <Gold.Chemscore.Metal.Weighted>
-0.0000

> <Gold.Chemscore.Lipo.Weighted>
-14.0791

> <Gold.Chemscore.Internal_Hbond.Weighted>
0.0000

> <Gold.Chemscore.DEClash.Weighted>
0.4397

> <Gold.Chemscore.DEInternal.Weighted>
0.6044

> <Gold.Chemscore.Rot.Weighted>
3.5152

> <Gold.Chemscore.Internal.Correction.Weighted>
   9.000000E+99

> <Gold.Protein.RotatedTorsions>
[ 6907 6896 6895 6894 ] final   -9.24 input  -60.11 | X-H torsion
[ 7974 7965 7964 7962 ] final  -70.97 input  175.53 | X-H torsion
[ 8008 7997 7996 7995 ] final  -38.05 input   59.86 | X-H torsion
[ 10167 10162 10161 10158 ] final -145.41 input  -65.29 | X-H torsion
[ 10718 10713 10712 10709 ] final  -36.36 input   66.30 | X-H torsion
[ 10763 10752 10751 10750 ] final    1.42 input  -60.55 | X-H torsion
[ 11005 11000 10999 10996 ] final   25.03 input  -57.11 | X-H torsion

> <Gold.Protein.ActiveResidues>
 VAL166  LYS551  ARG553  GLY616  TRP617  ASP618  TYR619  PRO620  LYS621  CYS622 
 ASP623  PHE694  ASN695  SER759  ASP760  ASP761  ALA762  ILE779  LEU786  VAL792 
 PHE793  MET794  SER795  GLU796  ALA797  LYS798  CYS799  TRP800  GLU811  SER814 

> <Gold.Protein.RotatedAtoms>
  151.4209  135.0997  159.9613 H   0  0  0  0  0  0  0  0  0  0  0  0  # atno 6907 bound_to 6896
  152.4989  133.8708  159.7308 H   0  0  0  0  0  0  0  0  0  0  0  0  # atno 6908 bound_to 6896
  150.9224  133.6807  159.2857 H   0  0  0  0  0  0  0  0  0  0  0  0  # atno 6909 bound_to 6896
  145.6841  140.9177  143.0816 H   0  0  0  0  0  0  0  0  0  0  0  0  # atno 7974 bound_to 7965
  154.4043  140.1588  156.2636 H   0  0  0  0  0  0  0  0  0  0  0  0  # atno 8008 bound_to 7997
  155.9015  140.3433  155.6007 H   0  0  0  0  0  0  0  0  0  0  0  0  # atno 8009 bound_to 7997
  155.7443  140.0796  157.2222 H   0  0  0  0  0  0  0  0  0  0  0  0  # atno 8010 bound_to 7997
  139.7808  143.8103  152.2638 H   0  0  0  0  0  0  0  0  0  0  0  0  # atno 10167 bound_to 10162
  156.3278  130.4275  149.7901 H   0  0  0  0  0  0  0  0  0  0  0  0  # atno 10718 bound_to 10713
  153.3082  135.6961  153.7140 H   0  0  0  0  0  0  0  0  0  0  0  0  # atno 10763 bound_to 10752
  153.6027  135.3459  155.2952 H   0  0  0  0  0  0  0  0  0  0  0  0  # atno 10764 bound_to 10752
  154.8568  135.4344  154.2213 H   0  0  0  0  0  0  0  0  0  0  0  0  # atno 10765 bound_to 10752
  140.3523  134.2215  155.7679 H   0  0  0  0  0  0  0  0  0  0  0  0  # atno 11005 bound_to 11000
  144.7017  139.8736  143.7442 LP  0  0  0  0  0  0  0  0  0  0  0  0  # atno 17320 bound_to 7965
  146.0938  139.3930  143.0389 LP  0  0  0  0  0  0  0  0  0  0  0  0  # atno 17321 bound_to 7965
  139.8165  144.7314  150.9628 LP  0  0  0  0  0  0  0  0  0  0  0  0  # atno 17342 bound_to 10162
  140.7818  143.4200  151.0857 LP  0  0  0  0  0  0  0  0  0  0  0  0  # atno 17343 bound_to 10162
  156.5184  130.8204  151.3195 LP  0  0  0  0  0  0  0  0  0  0  0  0  # atno 17370 bound_to 10713
  157.7424  130.9891  150.2517 LP  0  0  0  0  0  0  0  0  0  0  0  0  # atno 17371 bound_to 10713
  141.2008  133.7977  157.0469 LP  0  0  0  0  0  0  0  0  0  0  0  0  # atno 17394 bound_to 11000
  140.0693  134.9711  157.1440 LP  0  0  0  0  0  0  0  0  0  0  0  0  # atno 17395 bound_to 11000

$$$$
