AV-unprocessed.smi:2732|AV-procd|sdf|10535|dock5
  -GOLD-   2272014583D 1   1.00000     0.00000
 Structure written by MMmdl.
 35 36  0  0  0  0  0  0  0  0  2 V2000
  151.2634  142.8432  157.2717 C   0  0  0  0  0  0  0  0  0  0  0  0
  151.6644  141.3671  157.1278 C   0  0  1  0  0  0  0  0  0  0  0  0
  151.2688  140.6971  158.3218 O   0  0  0  0  0  0  0  0  0  0  0  0
  152.3000  140.4953  159.2801 C   0  0  0  0  0  0  0  0  0  0  0  0
  152.4283  141.7433  160.1260 C   0  0  0  0  0  0  0  0  0  0  0  0
  153.2510  142.9148  159.6398 C   0  0  0  0  0  0  0  0  0  0  0  0
  153.7375  142.0853  160.8006 C   0  0  0  0  0  0  0  0  0  0  0  0
  150.9955  140.7180  155.9047 C   0  0  0  0  0  0  0  0  0  0  0  0
  151.6910  140.2017  155.0302 O   0  0  0  0  0  0  0  0  0  0  0  0
  149.6521  140.7940  155.8635 N   0  0  0  0  0  0  0  0  0  0  0  0
  148.7686  140.3020  154.8656 C   0  0  0  0  0  0  0  0  0  0  0  0
  147.5619  141.0030  154.6502 C   0  0  0  0  0  0  0  0  0  0  0  0
  146.6493  140.5436  153.6779 C   0  0  0  0  0  0  0  0  0  0  0  0
  146.9563  139.3804  152.9428 C   0  0  0  0  0  0  0  0  0  0  0  0
  146.1001  138.8725  151.9678 N   0  0  0  0  0  0  0  0  0  0  0  0
  148.1116  138.7246  153.1842 N   0  3  0  0  0  0  0  0  0  0  0  0
  149.0133  139.1322  154.1043 C   0  0  0  0  0  0  0  0  0  0  0  0
  151.5108  143.4119  156.3746 H   0  0  0  0  0  0  0  0  0  0  0  0
  151.7878  143.3051  158.1084 H   0  0  0  0  0  0  0  0  0  0  0  0
  150.1937  142.9530  157.4548 H   0  0  0  0  0  0  0  0  0  0  0  0
  152.7504  141.3179  157.0264 H   0  0  0  0  0  0  0  0  0  0  0  0
  152.0904  139.6410  159.9249 H   0  0  0  0  0  0  0  0  0  0  0  0
  153.2505  140.3106  158.7780 H   0  0  0  0  0  0  0  0  0  0  0  0
  151.5228  141.9988  160.6730 H   0  0  0  0  0  0  0  0  0  0  0  0
  153.7773  142.8093  158.6932 H   0  0  0  0  0  0  0  0  0  0  0  0
  152.8787  143.9138  159.8575 H   0  0  0  0  0  0  0  0  0  0  0  0
  153.6884  142.5290  161.7928 H   0  0  0  0  0  0  0  0  0  0  0  0
  154.5854  141.4258  160.6266 H   0  0  0  0  0  0  0  0  0  0  0  0
  149.2193  141.3222  156.6074 H   0  0  0  0  0  0  0  0  0  0  0  0
  147.3363  141.8926  155.2203 H   0  0  0  0  0  0  0  0  0  0  0  0
  145.7276  141.0796  153.5035 H   0  0  0  0  0  0  0  0  0  0  0  0
  145.2218  139.3212  151.7496 H   0  0  0  0  0  0  0  0  0  0  0  0
  146.3333  138.0453  151.4373 H   0  0  0  0  0  0  0  0  0  0  0  0
  149.8829  138.4992  154.1986 H   0  0  0  0  0  0  0  0  0  0  0  0
  148.3155  137.8798  152.6494 H   0  0  0  0  0  0  0  0  0  0  0  0
  1  2  1  0  0  0  0
  1 18  1  0  0  0  0
  1 19  1  0  0  0  0
  1 20  1  0  0  0  0
  2  3  1  0  0  0  0
  2  8  1  0  0  0  0
  2 21  1  0  0  0  0
  3  4  1  0  0  0  0
  4  5  1  0  0  0  0
  4 22  1  0  0  0  0
  4 23  1  0  0  0  0
  5  7  1  0  0  0  0
  5  6  1  0  0  0  0
  5 24  1  0  0  0  0
  6  7  1  0  0  0  0
  6 25  1  0  0  0  0
  6 26  1  0  0  0  0
  7 27  1  0  0  0  0
  7 28  1  0  0  0  0
  8  9  2  0  0  0  0
  8 10  1  0  0  0  0
 10 11  1  0  0  0  0
 10 29  1  0  0  0  0
 11 17  1  0  0  0  0
 11 12  2  0  0  0  0
 12 13  1  0  0  0  0
 12 30  1  0  0  0  0
 13 14  2  0  0  0  0
 13 31  1  0  0  0  0
 14 15  1  0  0  0  0
 14 16  1  0  0  0  0
 15 32  1  0  0  0  0
 15 33  1  0  0  0  0
 16 17  2  0  0  0  0
 16 35  1  0  0  0  0
 17 34  1  0  0  0  0
M  CHG  1  16   1
M  END
> <s_m_source_file>
AV-unprocessed.smi

> <i_m_source_file_index>
2732

> <i_lp_mmshare_version>
43012

> <i_f3d_flags>
0

> <s_epik_input>
W0NIMl0xW0NIMl1bQ0hdMVtDSDJdT1tDQEBIXShbQ0gzXSlDKD1PKVtOSF1jMltjSF1bY0hdYyhbTkgyXSluW2NIXTI=

> <s_epik_cmdline>
J2VwaWtfcHl0aG9uJywgJy1waCcsICc3LjAnLCAnLXRuJywgJzgnLCAnLW1hJywgJzIwMCcsICctbWV0YWxfYmluZGluZycsICctaW1hZScsICc8aW5maWxlLm1hZT4nLCAnLW9tYWUnLCAnPG91dGZpbGUubWFlPic=

> <r_lp_tautomer_probability>
0.999994

> <r_epik_Ionization_Penalty>
1.25173

> <r_epik_Ionization_Penalty_Charging>
1.25172

> <r_epik_Ionization_Penalty_Neutral>
2.35798e-06

> <r_epik_State_Penalty>
1.32157

> <r_epik_Charging_Adjusted_Penalty>
2.5733

> <i_epik_Tot_Q>
1

> <i_epik_Tot_abs_Q>
1

> <r_epik_Metal_State_Penalty>
1.39188

> <b_epik_Metal_Only>
0

> <s_lp_Force_Field>
OPLS_2005

> <r_lp_Energy>
25.671

> <b_lp_Chiralities_Consistent>
1

> <s_lp_Variant>
AV-unprocessed.smi:2732-4

> <Gold.Version>
5.8.1

> <Gold.Id.Protein>
6NUR|6NUR_protein|mol2

> <Gold.PLP.Fitness>
47.5831

> <Gold.PLP.PLP>
-35.1477

> <Gold.PLP.part.hbond>
-4.8368

> <Gold.PLP.part.metal>
0.0000

> <Gold.PLP.part.buried>
-4.4372

> <Gold.PLP.part.nonpolar>
-26.0994

> <Gold.PLP.part.repulsive>
0.2206

> <Gold.PLP.ligand.clash>
0.0000

> <Gold.PLP.ligand.torsion>
1.1914

> <Gold.PLP.Chemscore.Hbond>
4.7520

> <Gold.PLP.Chemscore.CHOScore>
0.0000

> <Gold.PLP.Chemscore.Metal>
0.0000

> <Gold.Chemscore.Hbonds>
donor molecule, donor type, donor heavy atom, donor atom, acceptor molecule, acceptor atom, score
      L1  H    15    32       P1 10175  1.87
      L1  H    16    35       P1  7948  2.00
      P1  H  7989  7998       L1     9  0.94

> <Gold.PLP.Chemscore.Internal.Correction>
0.5622

> <Gold.Rescore>
     Score         DG    S(hbond)    S(metal)    S(lipo)     H(rot)  DE(clash)    DE(int)     intcor
     17.30     -19.52       2.77        0.00      79.46       1.76       0.07       2.15       ----

> <Gold.Chemscore.Fitness>
17.2996

> <Gold.Chemscore.DG>
-19.5182

> <Gold.Chemscore.ZeroCoef>
-5.4800

> <Gold.Chemscore.Hbond>
2.7689

> <Gold.Chemscore.Metal>
0.0000

> <Gold.Chemscore.Lipo>
79.4598

> <Gold.Chemscore.Internal_Hbond>
0.0000

> <Gold.Chemscore.DEClash>
0.0727

> <Gold.Chemscore.DEInternal>
2.1460

> <Gold.Chemscore.Rot>
1.7604

> <Gold.Chemscore.Internal.Correction>
   9.000000E+99

> <Gold.Chemscore.Hbonds>
donor molecule, donor type, donor heavy atom, donor atom, acceptor molecule, acceptor atom, score
      L1  H    15    32       P1 10175  0.76
      L1  H    16    35       P1  7948  1.00
      P1  H  7989  7998       L1     9  0.87

> <Gold.Chemscore.Hbond.Weighted>
-9.2480

> <Gold.Chemscore.Metal.Weighted>
-0.0000

> <Gold.Chemscore.Lipo.Weighted>
-9.2968

> <Gold.Chemscore.Internal_Hbond.Weighted>
0.0000

> <Gold.Chemscore.DEClash.Weighted>
0.0727

> <Gold.Chemscore.DEInternal.Weighted>
2.1460

> <Gold.Chemscore.Rot.Weighted>
4.5065

> <Gold.Chemscore.Internal.Correction.Weighted>
   9.000000E+99

> <Gold.Protein.RotatedTorsions>
[ 6907 6896 6895 6894 ] final  130.05 input  -60.11 | X-H torsion
[ 7974 7965 7964 7962 ] final -166.53 input  175.53 | X-H torsion
[ 8008 7997 7996 7995 ] final  -65.53 input   59.86 | X-H torsion
[ 10167 10162 10161 10158 ] final   85.85 input  -65.29 | X-H torsion
[ 10718 10713 10712 10709 ] final  -51.66 input   66.30 | X-H torsion
[ 10763 10752 10751 10750 ] final   28.74 input  -60.55 | X-H torsion
[ 11005 11000 10999 10996 ] final -142.29 input  -57.11 | X-H torsion

> <Gold.Protein.ActiveResidues>
 VAL166  LYS551  ARG553  GLY616  TRP617  ASP618  TYR619  PRO620  LYS621  CYS622 
 ASP623  PHE694  ASN695  SER759  ASP760  ASP761  ALA762  ILE779  LEU786  VAL792 
 PHE793  MET794  SER795  GLU796  ALA797  LYS798  CYS799  TRP800  GLU811  SER814 

> <Gold.Protein.RotatedAtoms>
  152.3564  133.6242  159.5982 H   0  0  0  0  0  0  0  0  0  0  0  0  # atno 6907 bound_to 6896
  150.7571  133.9493  159.3489 H   0  0  0  0  0  0  0  0  0  0  0  0  # atno 6908 bound_to 6896
  151.7338  135.0870  160.0355 H   0  0  0  0  0  0  0  0  0  0  0  0  # atno 6909 bound_to 6896
  144.7243  140.2653  143.6259 H   0  0  0  0  0  0  0  0  0  0  0  0  # atno 7974 bound_to 7965
  154.4677  140.0931  156.7064 H   0  0  0  0  0  0  0  0  0  0  0  0  # atno 8008 bound_to 7997
  155.4811  140.3467  155.4321 H   0  0  0  0  0  0  0  0  0  0  0  0  # atno 8009 bound_to 7997
  156.0985  140.1416  156.9487 H   0  0  0  0  0  0  0  0  0  0  0  0  # atno 8010 bound_to 7997
  139.8936  144.6371  150.8712 H   0  0  0  0  0  0  0  0  0  0  0  0  # atno 10167 bound_to 10162
  156.1690  130.4149  149.9676 H   0  0  0  0  0  0  0  0  0  0  0  0  # atno 10718 bound_to 10713
  153.0473  135.6506  154.0784 H   0  0  0  0  0  0  0  0  0  0  0  0  # atno 10763 bound_to 10752
  154.0480  135.2898  155.3346 H   0  0  0  0  0  0  0  0  0  0  0  0  # atno 10764 bound_to 10752
  154.6739  135.5346  153.8239 H   0  0  0  0  0  0  0  0  0  0  0  0  # atno 10765 bound_to 10752
  140.8240  134.2597  157.4887 H   0  0  0  0  0  0  0  0  0  0  0  0  # atno 11005 bound_to 11000
  145.8096  139.1997  143.2001 LP  0  0  0  0  0  0  0  0  0  0  0  0  # atno 17320 bound_to 7965
  146.0607  140.7973  142.9736 LP  0  0  0  0  0  0  0  0  0  0  0  0  # atno 17321 bound_to 7965
  140.7721  143.3491  151.2051 LP  0  0  0  0  0  0  0  0  0  0  0  0  # atno 17342 bound_to 10162
  139.7088  143.9411  152.2938 LP  0  0  0  0  0  0  0  0  0  0  0  0  # atno 17343 bound_to 10162
  156.7481  130.9105  151.3636 LP  0  0  0  0  0  0  0  0  0  0  0  0  # atno 17370 bound_to 10713
  157.6789  130.9121  150.0218 LP  0  0  0  0  0  0  0  0  0  0  0  0  # atno 17371 bound_to 10713
  139.8707  134.9550  156.4194 LP  0  0  0  0  0  0  0  0  0  0  0  0  # atno 17394 bound_to 11000
  140.9069  133.7739  155.9745 LP  0  0  0  0  0  0  0  0  0  0  0  0  # atno 17395 bound_to 11000

$$$$
