#       Name:                AV-unprocessed.smi:332
#       Creating user name   scv26
#       Creation time:       Thu Mar 26 22:27:07 2020


#       File generated by GOLD software.
#

@<TRIPOS>MOLECULE
AV-unprocessed.smi:332
    46    48     1
SMALL
NO_CHARGES


@<TRIPOS>ATOM
      1 ****        -2.0638  -2.0125  -1.0269 C.3            1 S1                 0.0000
      2 ****        -1.3143  -0.8738  -0.3123 C.3            1 S1                 0.0000
      3 ****         0.1235  -1.0826  -0.4732 N.am           1 S1                 0.0000
      4 ****         0.8840  -0.5685  -1.4517 C.2            1 S1                 0.0000
      5 ****         0.4350   0.1223  -2.3672 O.2            1 S1                 0.0000
      6 ****         2.3793  -0.9087  -1.3891 C.3            1 S1                 0.0000
      7 ****         3.2331   0.1461  -1.9599 N.am           1 S1                 0.0000
      8 ****         3.6995  -0.0461  -3.2758 C.2            1 S1                 0.0000
      9 ****         4.4834   0.8542  -3.8899 C.2            1 S1                 0.0000
     10 ****         4.8487   2.0483  -3.1649 C.2            1 S1                 0.0000
     11 ****         4.4055   2.2436  -1.9068 C.2            1 S1                 0.0000
     12 ****         3.5473   1.2626  -1.2322 C.2            1 S1                 0.0000
     13 ****         3.1366   1.4332  -0.0837 O.2            1 S1                 0.0000
     14 ****        -1.6552  -0.7798   1.1958 C.3            1 S1                 0.0000
     15 ****        -0.8631   0.3220   1.9458 C.3            1 S1                 0.0000
     16 ****        -1.9644   1.1464   2.6346 C.3            1 S1                 0.0000
     17 ****        -2.6073   0.3136   3.7583 C.3            1 S1                 0.0000
     18 ****        -3.4314  -0.7269   2.9773 C.3            1 S1                 0.0000
     19 ****        -3.1189  -0.3771   1.5094 C.3            1 S1                 0.0000
     20 ****        -3.0536   1.1458   1.5711 C.3            1 S1                 0.0000
     21 ****        -3.1425  -1.8633  -1.0085 H              1 S1                 0.0000
     22 ****        -1.8526  -2.9776  -0.5651 H              1 S1                 0.0000
     23 ****        -1.7710  -2.0764  -2.0755 H              1 S1                 0.0000
     24 ****        -1.5939   0.0692  -0.7853 H              1 S1                 0.0000
     25 ****         0.5797  -1.6438   0.2313 H              1 S1                 0.0000
     26 ****         2.6695  -1.1025  -0.3544 H              1 S1                 0.0000
     27 ****         2.5332  -1.8544  -1.9108 H              1 S1                 0.0000
     28 ****         3.3757  -0.9608  -3.7509 H              1 S1                 0.0000
     29 ****         4.8285   0.6909  -4.9005 H              1 S1                 0.0000
     30 ****         5.4792   2.7894  -3.6343 H              1 S1                 0.0000
     31 ****         4.6884   3.1434  -1.3802 H              1 S1                 0.0000
     32 ****        -1.4411  -1.7497   1.6480 H              1 S1                 0.0000
     33 ****        -0.1476  -0.0929   2.6568 H              1 S1                 0.0000
     34 ****        -0.3080   0.9592   1.2559 H              1 S1                 0.0000
     35 ****        -1.6341   2.1347   2.9556 H              1 S1                 0.0000
     36 ****        -1.8618  -0.1470   4.4076 H              1 S1                 0.0000
     37 ****        -3.2581   0.9309   4.3789 H              1 S1                 0.0000
     38 ****        -3.1604  -1.7522   3.2318 H              1 S1                 0.0000
     39 ****        -4.4951  -0.6040   3.1851 H              1 S1                 0.0000
     40 ****        -3.8612  -0.7715   0.8167 H              1 S1                 0.0000
     41 ****        -3.9850   1.6060   1.9061 H              1 S1                 0.0000
     42 ****        -2.7443   1.6095   0.6331 H              1 S1                 0.0000
     43 ****        -0.5434   0.3255  -2.4067 LP             1 S1                 0.0000
     44 ****         1.0488   0.4800  -3.0710 LP             1 S1                 0.0000
     45 ****         2.5537   0.7439   0.3464 LP             1 S1                 0.0000
     46 ****         3.3860   2.2611   0.4187 LP             1 S1                 0.0000
@<TRIPOS>BOND
    1    1    2 1     
    2    1   21 1     
    3    1   22 1     
    4    1   23 1     
    5    2    3 1     
    6    2   14 1     
    7    2   24 1     
    8    3    4 am    
    9    3   25 1     
   10    4    5 2     
   11    4    6 1     
   12    6    7 1     
   13    6   26 1     
   14    6   27 1     
   15    7   12 am    
   16    7    8 1     
   17    8    9 2     
   18    8   28 1     
   19    9   10 1     
   20    9   29 1     
   21   10   11 2     
   22   10   30 1     
   23   11   12 1     
   24   11   31 1     
   25   12   13 2     
   26   14   19 1     
   27   14   15 1     
   28   14   32 1     
   29   15   16 1     
   30   15   33 1     
   31   15   34 1     
   32   16   20 1     
   33   16   17 1     
   34   16   35 1     
   35   17   18 1     
   36   17   36 1     
   37   17   37 1     
   38   18   19 1     
   39   18   38 1     
   40   18   39 1     
   41   19   20 1     
   42   19   40 1     
   43   20   41 1     
   44   20   42 1     
   45    5   43 1     
   46    5   44 1     
   47   13   45 1     
   48   13   46 1     
@<TRIPOS>SUBSTRUCTURE
      1 S1             1
@<TRIPOS>SET
LONE_PAIRS      STATIC     ATOMS    <user>   **** ""
4 43 44 45 46
DONOR_HYDROGENS      STATIC     ATOMS    <user>   **** ""
1 25
ATOM$BLUE        STATIC     ATOMS    COLORGROUP SYSTEM
4 43 44 45 46
ATOM$RED        STATIC     ATOMS    COLORGROUP SYSTEM
1 25
