AV-unprocessed.smi:2288|AV-procd|sdf|9207|dock1
  -GOLD-   2272012423D 1   1.00000     0.00000
 Structure written by MMmdl.
 40 41  0  0  0  0  0  0  0  0  1 V2000
  152.1624  145.3614  159.1685 C   0  0  0  0  0  0  0  0  0  0  0  0
  152.3424  143.8573  159.1649 C   0  0  0  0  0  0  0  0  0  0  0  0
  152.9986  143.2141  160.2343 C   0  0  0  0  0  0  0  0  0  0  0  0
  153.1679  141.8150  160.2231 C   0  0  0  0  0  0  0  0  0  0  0  0
  153.8772  141.1319  161.3740 C   0  0  0  0  0  0  0  0  0  0  0  0
  152.6740  141.0581  159.1410 C   0  0  0  0  0  0  0  0  0  0  0  0
  152.0115  141.6929  158.0692 C   0  0  0  0  0  0  0  0  0  0  0  0
  151.4968  140.8628  156.9026 C   0  0  1  0  0  0  0  0  0  0  0  0
  152.4615  139.9235  156.4696 O   0  0  0  0  0  0  0  0  0  0  0  0
  150.2081  140.1057  157.2925 C   0  0  0  0  0  0  0  0  0  0  0  0
  149.0099  140.6695  156.6479 N   0  0  0  0  0  0  0  0  0  0  0  0
  147.9635  141.0497  157.5039 C   0  0  0  0  0  0  0  0  0  0  0  0
  146.8662  141.5610  157.0497 N   0  0  0  0  0  0  0  0  0  0  0  0
  146.6996  141.7440  155.6739 C   0  0  0  0  0  0  0  0  0  0  0  0
  145.3758  142.3549  155.2490 C   0  0  0  0  0  0  0  0  0  0  0  0
  147.6725  141.3898  154.7904 C   0  0  0  0  0  0  0  0  0  0  0  0
  147.5463  141.5644  153.2820 C   0  0  0  0  0  0  0  0  0  0  0  0
  148.9253  140.8029  155.2926 C   0  0  0  0  0  0  0  0  0  0  0  0
  149.8432  140.4501  154.5492 O   0  0  0  0  0  0  0  0  0  0  0  0
  151.8525  143.0961  158.0846 C   0  0  0  0  0  0  0  0  0  0  0  0
  152.5596  145.8084  160.0804 H   0  0  0  0  0  0  0  0  0  0  0  0
  151.1046  145.6153  159.0982 H   0  0  0  0  0  0  0  0  0  0  0  0
  152.6801  145.8055  158.3179 H   0  0  0  0  0  0  0  0  0  0  0  0
  153.3758  143.7930  161.0648 H   0  0  0  0  0  0  0  0  0  0  0  0
  154.1223  140.0974  161.1313 H   0  0  0  0  0  0  0  0  0  0  0  0
  153.2442  141.1351  162.2615 H   0  0  0  0  0  0  0  0  0  0  0  0
  154.8056  141.6520  161.6119 H   0  0  0  0  0  0  0  0  0  0  0  0
  152.8064  139.9858  159.1308 H   0  0  0  0  0  0  0  0  0  0  0  0
  151.3013  141.5376  156.0683 H   0  0  0  0  0  0  0  0  0  0  0  0
  152.1715  139.5549  155.6489 H   0  0  0  0  0  0  0  0  0  0  0  0
  150.3201  139.0357  157.1042 H   0  0  0  0  0  0  0  0  0  0  0  0
  150.0674  140.1728  158.3732 H   0  0  0  0  0  0  0  0  0  0  0  0
  148.1410  140.8807  158.5675 H   0  0  0  0  0  0  0  0  0  0  0  0
  145.5402  143.2992  154.7293 H   0  0  0  0  0  0  0  0  0  0  0  0
  144.7356  142.5538  156.1094 H   0  0  0  0  0  0  0  0  0  0  0  0
  144.8392  141.6784  154.5836 H   0  0  0  0  0  0  0  0  0  0  0  0
  147.6190  140.5966  152.7846 H   0  0  0  0  0  0  0  0  0  0  0  0
  148.3510  142.1985  152.9082 H   0  0  0  0  0  0  0  0  0  0  0  0
  146.6047  142.0192  152.9793 H   0  0  0  0  0  0  0  0  0  0  0  0
  151.3552  143.5931  157.2640 H   0  0  0  0  0  0  0  0  0  0  0  0
  1  2  1  0  0  0  0
  1 21  1  0  0  0  0
  1 22  1  0  0  0  0
  1 23  1  0  0  0  0
  2 20  1  0  0  0  0
  2  3  2  0  0  0  0
  3  4  1  0  0  0  0
  3 24  1  0  0  0  0
  4  5  1  0  0  0  0
  4  6  2  0  0  0  0
  5 25  1  0  0  0  0
  5 26  1  0  0  0  0
  5 27  1  0  0  0  0
  6  7  1  0  0  0  0
  6 28  1  0  0  0  0
  7  8  1  0  0  0  0
  7 20  2  0  0  0  0
  8  9  1  0  0  0  0
  8 10  1  0  0  0  0
  8 29  1  0  0  0  0
  9 30  1  0  0  0  0
 10 11  1  0  0  0  0
 10 31  1  0  0  0  0
 10 32  1  0  0  0  0
 11 18  1  0  0  0  0
 11 12  1  0  0  0  0
 12 13  2  0  0  0  0
 12 33  1  0  0  0  0
 13 14  1  0  0  0  0
 14 15  1  0  0  0  0
 14 16  2  0  0  0  0
 15 34  1  0  0  0  0
 15 35  1  0  0  0  0
 15 36  1  0  0  0  0
 16 17  1  0  0  0  0
 16 18  1  0  0  0  0
 17 37  1  0  0  0  0
 17 38  1  0  0  0  0
 17 39  1  0  0  0  0
 18 19  2  0  0  0  0
 20 40  1  0  0  0  0
M  END
> <s_m_source_file>
AV-unprocessed.smi

> <i_m_source_file_index>
2288

> <i_lp_mmshare_version>
43012

> <i_f3d_flags>
0

> <s_epik_input>
W0NIM11jMVtjSF1jKFtDSDNdKVtjSF1jKFtjSF0xKVtDQEhdKFtPSF0pW0NIMl1uMltjSF1uYyhbQ0gzXSljKFtDSDNdKWMyPU8=

> <s_epik_cmdline>
J2VwaWtfcHl0aG9uJywgJy1waCcsICc3LjAnLCAnLXRuJywgJzgnLCAnLW1hJywgJzIwMCcsICctbWV0YWxfYmluZGluZycsICctaW1hZScsICc8aW5maWxlLm1hZT4nLCAnLW9tYWUnLCAnPG91dGZpbGUubWFlPic=

> <r_lp_tautomer_probability>
1

> <r_epik_Ionization_Penalty>
5.07027e-05

> <r_epik_Ionization_Penalty_Charging>
7.56727e-08

> <r_epik_Ionization_Penalty_Neutral>
5.06271e-05

> <r_epik_State_Penalty>
-0

> <r_epik_Charging_Adjusted_Penalty>
7.56727e-08

> <i_epik_Tot_Q>
0

> <i_epik_Tot_abs_Q>
0

> <r_epik_Metal_State_Penalty>
-0

> <b_epik_Metal_Only>
0

> <s_lp_Force_Field>
OPLS_2005

> <r_lp_Energy>
19.2499

> <b_lp_Chiralities_Consistent>
1

> <s_lp_Variant>
AV-unprocessed.smi:2288-2

> <Gold.Version>
5.8.1

> <Gold.Id.Protein>
6NUR|6NUR_protein|mol2

> <Gold.PLP.Fitness>
44.1536

> <Gold.PLP.PLP>
-40.7528

> <Gold.PLP.part.hbond>
-2.0000

> <Gold.PLP.part.metal>
0.0000

> <Gold.PLP.part.buried>
-5.1216

> <Gold.PLP.part.nonpolar>
-31.9826

> <Gold.PLP.part.repulsive>
0.1984

> <Gold.PLP.ligand.clash>
0.0000

> <Gold.PLP.ligand.torsion>
1.0835

> <Gold.PLP.Chemscore.Hbond>
1.8480

> <Gold.PLP.Chemscore.CHOScore>
0.0000

> <Gold.PLP.Chemscore.Metal>
0.0000

> <Gold.Chemscore.Hbonds>
donor molecule, donor type, donor heavy atom, donor atom, acceptor molecule, acceptor atom, score
      P1  H  7989  7998       L1    19  0.70
      P1  H  7997  8009       L1     9  1.00

> <Gold.PLP.Chemscore.Internal.Correction>
0.0238

> <Gold.Rescore>
     Score         DG    S(hbond)    S(metal)    S(lipo)     H(rot)  DE(clash)    DE(int)     intcor
     17.09     -19.70       1.64        0.00     116.25       1.89       0.31       2.30       ----

> <Gold.Chemscore.Fitness>
17.0949

> <Gold.Chemscore.DG>
-19.7031

> <Gold.Chemscore.ZeroCoef>
-5.4800

> <Gold.Chemscore.Hbond>
1.6353

> <Gold.Chemscore.Metal>
0.0000

> <Gold.Chemscore.Lipo>
116.2493

> <Gold.Chemscore.Internal_Hbond>
0.0000

> <Gold.Chemscore.DEClash>
0.3090

> <Gold.Chemscore.DEInternal>
2.2991

> <Gold.Chemscore.Rot>
1.8907

> <Gold.Chemscore.Internal.Correction>
   9.000000E+99

> <Gold.Chemscore.Hbonds>
donor molecule, donor type, donor heavy atom, donor atom, acceptor molecule, acceptor atom, score
      P1  H  7989  7998       L1    19  0.68
      P1  H  7997  8009       L1     9  0.33

> <Gold.Chemscore.Hbond.Weighted>
-5.4620

> <Gold.Chemscore.Metal.Weighted>
-0.0000

> <Gold.Chemscore.Lipo.Weighted>
-13.6012

> <Gold.Chemscore.Internal_Hbond.Weighted>
0.0000

> <Gold.Chemscore.DEClash.Weighted>
0.3090

> <Gold.Chemscore.DEInternal.Weighted>
2.2991

> <Gold.Chemscore.Rot.Weighted>
4.8401

> <Gold.Chemscore.Internal.Correction.Weighted>
   9.000000E+99

> <Gold.Protein.RotatedTorsions>
[ 6907 6896 6895 6894 ] final   18.62 input  -60.11 | X-H torsion
[ 7974 7965 7964 7962 ] final -115.15 input  175.53 | X-H torsion
[ 8008 7997 7996 7995 ] final -149.49 input   59.86 | X-H torsion
[ 10167 10162 10161 10158 ] final  168.08 input  -65.29 | X-H torsion
[ 10718 10713 10712 10709 ] final -172.61 input   66.30 | X-H torsion
[ 10763 10752 10751 10750 ] final  -81.30 input  -60.55 | X-H torsion
[ 11005 11000 10999 10996 ] final -134.47 input  -57.11 | X-H torsion

> <Gold.Protein.ActiveResidues>
 VAL166  LYS551  ARG553  GLY616  TRP617  ASP618  TYR619  PRO620  LYS621  CYS622 
 ASP623  PHE694  ASN695  SER759  ASP760  ASP761  ALA762  ILE779  LEU786  VAL792 
 PHE793  MET794  SER795  GLU796  ALA797  LYS798  CYS799  TRP800  GLU811  SER814 

> <Gold.Protein.RotatedAtoms>
  151.8681  135.0499  160.0476 H   0  0  0  0  0  0  0  0  0  0  0  0  # atno 6907 bound_to 6896
  152.2610  133.5293  159.5390 H   0  0  0  0  0  0  0  0  0  0  0  0  # atno 6908 bound_to 6896
  150.7116  134.0746  159.3919 H   0  0  0  0  0  0  0  0  0  0  0  0  # atno 6909 bound_to 6896
  145.1118  140.8616  143.3865 H   0  0  0  0  0  0  0  0  0  0  0  0  # atno 7974 bound_to 7965
  155.6084  140.0669  157.2713 H   0  0  0  0  0  0  0  0  0  0  0  0  # atno 8008 bound_to 7997
  154.4260  140.1806  156.1294 H   0  0  0  0  0  0  0  0  0  0  0  0  # atno 8009 bound_to 7997
  156.0104  140.3327  155.6938 H   0  0  0  0  0  0  0  0  0  0  0  0  # atno 8010 bound_to 7997
  139.4959  144.3853  151.9577 H   0  0  0  0  0  0  0  0  0  0  0  0  # atno 10167 bound_to 10162
  156.7582  130.9403  151.3117 H   0  0  0  0  0  0  0  0  0  0  0  0  # atno 10718 bound_to 10713
  154.5619  135.5631  153.7015 H   0  0  0  0  0  0  0  0  0  0  0  0  # atno 10763 bound_to 10752
  153.0020  135.6276  154.2233 H   0  0  0  0  0  0  0  0  0  0  0  0  # atno 10764 bound_to 10752
  154.2171  135.2871  155.2918 H   0  0  0  0  0  0  0  0  0  0  0  0  # atno 10765 bound_to 10752
  140.8987  134.1718  157.4476 H   0  0  0  0  0  0  0  0  0  0  0  0  # atno 11005 bound_to 11000
  145.0839  139.2939  143.5769 LP  0  0  0  0  0  0  0  0  0  0  0  0  # atno 17320 bound_to 7965
  146.3526  140.0354  142.8647 LP  0  0  0  0  0  0  0  0  0  0  0  0  # atno 17321 bound_to 7965
  140.3290  144.3339  150.5992 LP  0  0  0  0  0  0  0  0  0  0  0  0  # atno 17342 bound_to 10162
  140.5661  143.2186  151.7681 LP  0  0  0  0  0  0  0  0  0  0  0  0  # atno 17343 bound_to 10162
  157.6746  130.9083  150.0121 LP  0  0  0  0  0  0  0  0  0  0  0  0  # atno 17370 bound_to 10713
  156.1356  130.3643  149.9662 LP  0  0  0  0  0  0  0  0  0  0  0  0  # atno 17371 bound_to 10713
  139.8739  134.9889  156.5432 LP  0  0  0  0  0  0  0  0  0  0  0  0  # atno 17394 bound_to 11000
  140.8257  133.8318  155.8937 LP  0  0  0  0  0  0  0  0  0  0  0  0  # atno 17395 bound_to 11000

$$$$
