AV-unprocessed.smi:1936|AV-procd|sdf|7829|dock5
  -GOLD-   22720 9573D 1   1.00000     0.00000
 Structure written by MMmdl.
 38 39  0  0  0  0  0  0  0  0  1 V2000
  151.9243  140.3932  157.3938 C   0  0  0  0  0  0  0  0  0  0  0  0
  150.9269  141.4384  156.8775 C   0  0  2  0  0  0  0  0  0  0  0  0
  150.2621  142.2167  158.0332 C   0  0  0  0  0  0  0  0  0  0  0  0
  151.1033  143.2322  158.6713 N   0  0  0  0  0  0  0  0  0  0  0  0
  150.3745  144.0511  159.6369 C   0  0  0  0  0  0  0  0  0  0  0  0
  151.2837  145.1053  160.2916 C   0  0  0  0  0  0  0  0  0  0  0  0
  151.8863  145.9123  159.2846 O   0  0  0  0  0  0  0  0  0  0  0  0
  152.6406  145.1511  158.3470 C   0  0  0  0  0  0  0  0  0  0  0  0
  151.7307  144.1025  157.6845 C   0  0  0  0  0  0  0  0  0  0  0  0
  149.8963  140.7839  156.0754 N   0  0  0  0  0  0  0  0  0  0  0  0
  150.1141  139.9818  155.0216 C   0  0  0  0  0  0  0  0  0  0  0  0
  151.2253  139.5661  154.6948 O   0  0  0  0  0  0  0  0  0  0  0  0
  148.8874  139.6305  154.1809 C   0  0  0  0  0  0  0  0  0  0  0  0
  147.8968  140.6910  154.2600 N   0  0  0  0  0  0  0  0  0  0  0  0
  147.3620  141.4452  153.2351 C   0  0  0  0  0  0  0  0  0  0  0  0
  146.4572  142.3040  153.7899 C   0  0  0  0  0  0  0  0  0  0  0  0
  146.5073  141.9961  155.1783 C   0  0  0  0  0  0  0  0  0  0  0  0
  147.3694  141.0315  155.4566 N   0  0  0  0  0  0  0  0  0  0  0  0
  152.7078  140.8618  157.9899 H   0  0  0  0  0  0  0  0  0  0  0  0
  152.4075  139.8705  156.5676 H   0  0  0  0  0  0  0  0  0  0  0  0
  151.4321  139.6467  158.0183 H   0  0  0  0  0  0  0  0  0  0  0  0
  151.4888  142.1461  156.2664 H   0  0  0  0  0  0  0  0  0  0  0  0
  149.3731  142.7070  157.6336 H   0  0  0  0  0  0  0  0  0  0  0  0
  149.8999  141.5132  158.7844 H   0  0  0  0  0  0  0  0  0  0  0  0
  149.5380  144.5488  159.1442 H   0  0  0  0  0  0  0  0  0  0  0  0
  149.9495  143.4257  160.4214 H   0  0  0  0  0  0  0  0  0  0  0  0
  150.7049  145.7422  160.9606 H   0  0  0  0  0  0  0  0  0  0  0  0
  152.0560  144.6262  160.8950 H   0  0  0  0  0  0  0  0  0  0  0  0
  153.0576  145.8217  157.5956 H   0  0  0  0  0  0  0  0  0  0  0  0
  153.4810  144.6705  158.8503 H   0  0  0  0  0  0  0  0  0  0  0  0
  152.3191  143.5071  156.9854 H   0  0  0  0  0  0  0  0  0  0  0  0
  150.9639  144.6085  157.0958 H   0  0  0  0  0  0  0  0  0  0  0  0
  148.9430  141.0576  156.2634 H   0  0  0  0  0  0  0  0  0  0  0  0
  149.1763  139.4753  153.1400 H   0  0  0  0  0  0  0  0  0  0  0  0
  148.4396  138.7006  154.5343 H   0  0  0  0  0  0  0  0  0  0  0  0
  147.6616  141.3047  152.2068 H   0  0  0  0  0  0  0  0  0  0  0  0
  145.8488  143.0367  153.2813 H   0  0  0  0  0  0  0  0  0  0  0  0
  145.9452  142.4404  155.9865 H   0  0  0  0  0  0  0  0  0  0  0  0
  1  2  1  0  0  0  0
  1 19  1  0  0  0  0
  1 20  1  0  0  0  0
  1 21  1  0  0  0  0
  2  3  1  0  0  0  0
  2 10  1  0  0  0  0
  2 22  1  0  0  0  0
  3  4  1  0  0  0  0
  3 23  1  0  0  0  0
  3 24  1  0  0  0  0
  4  9  1  0  0  0  0
  4  5  1  0  0  0  0
  5  6  1  0  0  0  0
  5 25  1  0  0  0  0
  5 26  1  0  0  0  0
  6  7  1  0  0  0  0
  6 27  1  0  0  0  0
  6 28  1  0  0  0  0
  7  8  1  0  0  0  0
  8  9  1  0  0  0  0
  8 29  1  0  0  0  0
  8 30  1  0  0  0  0
  9 31  1  0  0  0  0
  9 32  1  0  0  0  0
 10 11  1  0  0  0  0
 10 33  1  0  0  0  0
 11 12  2  0  0  0  0
 11 13  1  0  0  0  0
 13 14  1  0  0  0  0
 13 34  1  0  0  0  0
 13 35  1  0  0  0  0
 14 18  1  0  0  0  0
 14 15  1  0  0  0  0
 15 16  2  0  0  0  0
 15 36  1  0  0  0  0
 16 17  1  0  0  0  0
 16 37  1  0  0  0  0
 17 18  2  0  0  0  0
 17 38  1  0  0  0  0
M  END
> <s_m_source_file>
AV-unprocessed.smi

> <i_m_source_file_index>
1936

> <i_lp_mmshare_version>
43012

> <i_f3d_flags>
0

> <s_epik_input>
W0NIMl0xW0NIMl1PW0NIMl1bQ0gyXU4xW0NIMl1bQ0BASF0oW0NIM10pW05IXUMoPU8pW0NIMl1uMltjSF1bY0hdW2NIXW4y

> <s_epik_cmdline>
J2VwaWtfcHl0aG9uJywgJy1waCcsICc3LjAnLCAnLXRuJywgJzgnLCAnLW1hJywgJzIwMCcsICctbWV0YWxfYmluZGluZycsICctaW1hZScsICc8aW5maWxlLm1hZT4nLCAnLW9tYWUnLCAnPG91dGZpbGUubWFlPic=

> <r_lp_tautomer_probability>
1

> <r_epik_Ionization_Penalty>
0.196927

> <r_epik_Ionization_Penalty_Charging>
0

> <r_epik_Ionization_Penalty_Neutral>
0.196927

> <r_epik_State_Penalty>
0.186684

> <r_epik_Charging_Adjusted_Penalty>
0.186684

> <i_epik_Tot_Q>
0

> <i_epik_Tot_abs_Q>
0

> <r_epik_Metal_State_Penalty>
0.186682

> <b_epik_Metal_Only>
0

> <s_lp_Force_Field>
OPLS_2005

> <r_lp_Energy>
24.3888

> <b_lp_Chiralities_Consistent>
1

> <s_lp_Variant>
AV-unprocessed.smi:1936-1

> <Gold.Version>
5.8.1

> <Gold.Id.Protein>
6NUR|6NUR_protein|mol2

> <Gold.PLP.Fitness>
40.6718

> <Gold.PLP.PLP>
-35.9269

> <Gold.PLP.part.hbond>
-2.0000

> <Gold.PLP.part.metal>
0.0000

> <Gold.PLP.part.buried>
-6.9904

> <Gold.PLP.part.nonpolar>
-27.5317

> <Gold.PLP.part.repulsive>
0.4206

> <Gold.PLP.ligand.clash>
0.0000

> <Gold.PLP.ligand.torsion>
0.5699

> <Gold.PLP.Chemscore.Hbond>
0.9500

> <Gold.PLP.Chemscore.CHOScore>
0.9993

> <Gold.PLP.Chemscore.Metal>
0.0000

> <Gold.Chemscore.Hbonds>
donor molecule, donor type, donor heavy atom, donor atom, acceptor molecule, acceptor atom, score
      P1  H  7989  7998       L1    12  0.90
      L1  C    15    36       P1  7957  1.00

> <Gold.PLP.Chemscore.Internal.Correction>
0.0368

> <Gold.Rescore>
     Score         DG    S(hbond)    S(metal)    S(lipo)     H(rot)  DE(clash)    DE(int)     intcor
     11.45     -14.37       0.99        0.00      88.37       1.85       0.07       2.85       ----

> <Gold.Chemscore.Fitness>
11.4504

> <Gold.Chemscore.DG>
-14.3677

> <Gold.Chemscore.ZeroCoef>
-5.4800

> <Gold.Chemscore.Hbond>
0.9872

> <Gold.Chemscore.Metal>
0.0000

> <Gold.Chemscore.Lipo>
88.3665

> <Gold.Chemscore.Internal_Hbond>
0.0000

> <Gold.Chemscore.DEClash>
0.0711

> <Gold.Chemscore.DEInternal>
2.8463

> <Gold.Chemscore.Rot>
1.8549

> <Gold.Chemscore.Internal.Correction>
   9.000000E+99

> <Gold.Chemscore.Hbonds>
donor molecule, donor type, donor heavy atom, donor atom, acceptor molecule, acceptor atom, score
      P1  H  7989  7998       L1    12  0.18

> <Gold.Chemscore.Hbond.Weighted>
-3.2974

> <Gold.Chemscore.Metal.Weighted>
-0.0000

> <Gold.Chemscore.Lipo.Weighted>
-10.3389

> <Gold.Chemscore.Internal_Hbond.Weighted>
0.0000

> <Gold.Chemscore.DEClash.Weighted>
0.0711

> <Gold.Chemscore.DEInternal.Weighted>
2.8463

> <Gold.Chemscore.Rot.Weighted>
4.7485

> <Gold.Chemscore.Internal.Correction.Weighted>
   9.000000E+99

> <Gold.Protein.RotatedTorsions>
[ 6907 6896 6895 6894 ] final  -96.84 input  -60.11 | X-H torsion
[ 7974 7965 7964 7962 ] final   59.74 input  175.53 | X-H torsion
[ 8008 7997 7996 7995 ] final  177.49 input   59.86 | X-H torsion
[ 10167 10162 10161 10158 ] final   60.60 input  -65.29 | X-H torsion
[ 10718 10713 10712 10709 ] final  -43.52 input   66.30 | X-H torsion
[ 10763 10752 10751 10750 ] final  153.83 input  -60.55 | X-H torsion
[ 11005 11000 10999 10996 ] final  176.82 input  -57.11 | X-H torsion

> <Gold.Protein.ActiveResidues>
 VAL166  LYS551  ARG553  GLY616  TRP617  ASP618  TYR619  PRO620  LYS621  CYS622 
 ASP623  PHE694  ASN695  SER759  ASP760  ASP761  ALA762  ILE779  LEU786  VAL792 
 PHE793  MET794  SER795  GLU796  ALA797  LYS798  CYS799  TRP800  GLU811  SER814 

> <Gold.Protein.RotatedAtoms>
  150.6999  134.1441  159.4115 H   0  0  0  0  0  0  0  0  0  0  0  0  # atno 6907 bound_to 6896
  151.9425  135.0204  160.0546 H   0  0  0  0  0  0  0  0  0  0  0  0  # atno 6908 bound_to 6896
  152.2081  133.4855  159.5132 H   0  0  0  0  0  0  0  0  0  0  0  0  # atno 6909 bound_to 6896
  145.9038  139.3601  143.0576 H   0  0  0  0  0  0  0  0  0  0  0  0  # atno 7974 bound_to 7965
  156.0651  140.1357  156.9895 H   0  0  0  0  0  0  0  0  0  0  0  0  # atno 8008 bound_to 7997
  154.4502  140.0983  156.6646 H   0  0  0  0  0  0  0  0  0  0  0  0  # atno 8009 bound_to 7997
  155.5316  140.3459  155.4430 H   0  0  0  0  0  0  0  0  0  0  0  0  # atno 8010 bound_to 7997
  140.1638  144.4344  150.6696 H   0  0  0  0  0  0  0  0  0  0  0  0  # atno 10167 bound_to 10162
  156.2481  130.4185  149.8681 H   0  0  0  0  0  0  0  0  0  0  0  0  # atno 10718 bound_to 10713
  154.1425  135.2820  155.3157 H   0  0  0  0  0  0  0  0  0  0  0  0  # atno 10763 bound_to 10752
  154.6277  135.5446  153.7648 H   0  0  0  0  0  0  0  0  0  0  0  0  # atno 10764 bound_to 10752
  153.0246  135.6454  154.1571 H   0  0  0  0  0  0  0  0  0  0  0  0  # atno 10765 bound_to 10752
  140.3773  134.6977  157.4429 H   0  0  0  0  0  0  0  0  0  0  0  0  # atno 11005 bound_to 11000
  145.8758  140.9393  143.0627 LP  0  0  0  0  0  0  0  0  0  0  0  0  # atno 17320 bound_to 7965
  144.6738  140.0714  143.7473 LP  0  0  0  0  0  0  0  0  0  0  0  0  # atno 17321 bound_to 7965
  140.6626  143.2257  151.5820 LP  0  0  0  0  0  0  0  0  0  0  0  0  # atno 17342 bound_to 10162
  139.5369  144.2756  152.1270 LP  0  0  0  0  0  0  0  0  0  0  0  0  # atno 17343 bound_to 10162
  156.6240  130.8638  151.3481 LP  0  0  0  0  0  0  0  0  0  0  0  0  # atno 17370 bound_to 10713
  157.7203  130.9550  150.1413 LP  0  0  0  0  0  0  0  0  0  0  0  0  # atno 17371 bound_to 10713
  140.0505  134.6137  155.8867 LP  0  0  0  0  0  0  0  0  0  0  0  0  # atno 17394 bound_to 11000
  141.1935  133.6579  156.5551 LP  0  0  0  0  0  0  0  0  0  0  0  0  # atno 17395 bound_to 11000

$$$$
