AV-unprocessed.smi:260|AV-procd|sdf|1979|dock8
  -GOLD-   2262021153D 1   1.00000     0.00000
 Structure written by MMmdl.
 53 56  0  0  0  0  0  0  0  0  1 V2000
  150.7558  141.2419  157.1083 C   0  0  0  0  0  0  0  0  0  0  0  0
  151.6225  142.1742  157.8122 N   0  0  0  0  0  0  0  0  0  0  0  0
  151.2404  142.9222  158.8597 C   0  0  0  0  0  0  0  0  0  0  0  0
  150.0976  142.8691  159.3170 O   0  0  0  0  0  0  0  0  0  0  0  0
  152.3067  143.8610  159.4848 C   0  0  1  0  0  0  0  0  0  0  0  0
  152.8157  144.8845  158.4455 C   0  0  0  0  0  0  0  0  0  0  0  0
  151.7736  144.5719  160.7495 C   0  0  0  0  0  0  0  0  0  0  0  0
  152.0049  143.5847  161.9021 C   0  0  0  0  0  0  0  0  0  0  0  0
  153.0176  142.6548  161.4252 N   0  0  0  0  0  0  0  0  0  0  0  0
  153.8382  141.9989  162.2865 C   0  0  0  0  0  0  0  0  0  0  0  0
  154.4474  140.8580  161.8662 N   0  0  0  0  0  0  0  0  0  0  0  0
  155.2644  140.1837  162.6802 C   0  0  0  0  0  0  0  0  0  0  0  0
  155.6059  140.4643  163.9385 N   0  0  0  0  0  0  0  0  0  0  0  0
  154.9903  141.5998  164.3740 C   0  0  0  0  0  0  0  0  0  0  0  0
  154.0979  142.4201  163.6246 C   0  0  0  0  0  0  0  0  0  0  0  0
  153.6676  143.4812  164.4152 N   0  0  0  0  0  0  0  0  0  0  0  0
  154.2758  143.3042  165.5557 C   0  0  0  0  0  0  0  0  0  0  0  0
  155.0910  142.1981  165.6170 N   0  0  0  0  0  0  0  0  0  0  0  0
  155.8849  141.7616  166.7521 C   0  0  0  0  0  0  0  0  0  0  0  0
  155.0769  140.9017  167.7436 C   0  0  2  0  0  0  0  0  0  0  0  0
  153.9343  141.6235  168.1637 O   0  0  0  0  0  0  0  0  0  0  0  0
  155.9036  140.5147  168.9838 C   0  0  1  0  0  0  0  0  0  0  0  0
  156.1579  141.6608  169.9613 C   0  0  0  0  0  0  0  0  0  0  0  0
  156.5046  140.9216  171.2377 C   0  0  0  0  0  0  0  0  0  0  0  0
  155.7198  139.6128  171.1146 C   0  0  0  0  0  0  0  0  0  0  0  0
  155.1909  139.5885  169.7918 O   0  0  0  0  0  0  0  0  0  0  0  0
  153.4555  143.0319  160.0875 C   0  0  0  0  0  0  0  0  0  0  0  0
  151.3018  140.7719  156.2904 H   0  0  0  0  0  0  0  0  0  0  0  0
  149.8902  141.7566  156.6895 H   0  0  0  0  0  0  0  0  0  0  0  0
  150.4039  140.4572  157.7792 H   0  0  0  0  0  0  0  0  0  0  0  0
  152.5737  142.2587  157.4846 H   0  0  0  0  0  0  0  0  0  0  0  0
  153.5059  145.5981  158.8967 H   0  0  0  0  0  0  0  0  0  0  0  0
  151.9924  145.4567  158.0157 H   0  0  0  0  0  0  0  0  0  0  0  0
  153.3530  144.4024  157.6280 H   0  0  0  0  0  0  0  0  0  0  0  0
  152.3546  145.4749  160.9419 H   0  0  0  0  0  0  0  0  0  0  0  0
  150.7310  144.8839  160.6746 H   0  0  0  0  0  0  0  0  0  0  0  0
  152.3201  144.1082  162.8054 H   0  0  0  0  0  0  0  0  0  0  0  0
  151.0925  143.0310  162.1261 H   0  0  0  0  0  0  0  0  0  0  0  0
  155.7085  139.2923  162.2628 H   0  0  0  0  0  0  0  0  0  0  0  0
  154.1427  143.9781  166.3894 H   0  0  0  0  0  0  0  0  0  0  0  0
  156.7376  141.1989  166.3704 H   0  0  0  0  0  0  0  0  0  0  0  0
  156.2923  142.6413  167.2520 H   0  0  0  0  0  0  0  0  0  0  0  0
  154.7355  139.9959  167.2403 H   0  0  0  0  0  0  0  0  0  0  0  0
  153.3394  141.0238  168.5869 H   0  0  0  0  0  0  0  0  0  0  0  0
  156.8523  140.0623  168.6877 H   0  0  0  0  0  0  0  0  0  0  0  0
  156.9499  142.3346  169.6331 H   0  0  0  0  0  0  0  0  0  0  0  0
  155.2488  142.2468  170.1053 H   0  0  0  0  0  0  0  0  0  0  0  0
  157.5746  140.7121  171.2692 H   0  0  0  0  0  0  0  0  0  0  0  0
  156.2452  141.4881  172.1326 H   0  0  0  0  0  0  0  0  0  0  0  0
  156.3687  138.7513  171.2765 H   0  0  0  0  0  0  0  0  0  0  0  0
  154.9021  139.5611  171.8340 H   0  0  0  0  0  0  0  0  0  0  0  0
  153.6811  142.1477  159.4893 H   0  0  0  0  0  0  0  0  0  0  0  0
  154.3670  143.6273  160.1582 H   0  0  0  0  0  0  0  0  0  0  0  0
  1  2  1  0  0  0  0
  1 28  1  0  0  0  0
  1 29  1  0  0  0  0
  1 30  1  0  0  0  0
  2  3  1  0  0  0  0
  2 31  1  0  0  0  0
  3  4  2  0  0  0  0
  3  5  1  0  0  0  0
  5 27  1  0  0  0  0
  5  6  1  0  0  0  0
  5  7  1  0  0  0  0
  6 32  1  0  0  0  0
  6 33  1  0  0  0  0
  6 34  1  0  0  0  0
  7  8  1  0  0  0  0
  7 35  1  0  0  0  0
  7 36  1  0  0  0  0
  8  9  1  0  0  0  0
  8 37  1  0  0  0  0
  8 38  1  0  0  0  0
  9 10  1  0  0  0  0
  9 27  1  0  0  0  0
 10 15  1  0  0  0  0
 10 11  2  0  0  0  0
 11 12  1  0  0  0  0
 12 13  2  0  0  0  0
 12 39  1  0  0  0  0
 13 14  1  0  0  0  0
 14 18  1  0  0  0  0
 14 15  2  0  0  0  0
 15 16  1  0  0  0  0
 16 17  2  0  0  0  0
 17 18  1  0  0  0  0
 17 40  1  0  0  0  0
 18 19  1  0  0  0  0
 19 20  1  0  0  0  0
 19 41  1  0  0  0  0
 19 42  1  0  0  0  0
 20 21  1  0  0  0  0
 20 22  1  0  0  0  0
 20 43  1  0  0  0  0
 21 44  1  0  0  0  0
 22 26  1  0  0  0  0
 22 23  1  0  0  0  0
 22 45  1  0  0  0  0
 23 24  1  0  0  0  0
 23 46  1  0  0  0  0
 23 47  1  0  0  0  0
 24 25  1  0  0  0  0
 24 48  1  0  0  0  0
 24 49  1  0  0  0  0
 25 26  1  0  0  0  0
 25 50  1  0  0  0  0
 25 51  1  0  0  0  0
 27 52  1  0  0  0  0
 27 53  1  0  0  0  0
M  END
> <s_m_source_file>
AV-unprocessed.smi

> <i_m_source_file_index>
260

> <i_lp_mmshare_version>
43012

> <i_f3d_flags>
0

> <s_epik_input>
W0NIM11bTkhdQyg9TylbQ0BAXTEoW0NIM10pW0NIMl1bQ0gyXU4oW0NIMl0xKWMobltjSF1uMiljKGMyMyluW2NIXW4zW0NIMl1bQ0BIXShbT0hdKVtDQEBIXTRbQ0gyXVtDSDJdW0NIMl1PNA==

> <s_epik_cmdline>
J2VwaWtfcHl0aG9uJywgJy1waCcsICc3LjAnLCAnLXRuJywgJzgnLCAnLW1hJywgJzIwMCcsICctbWV0YWxfYmluZGluZycsICctaW1hZScsICc8aW5maWxlLm1hZT4nLCAnLW9tYWUnLCAnPG91dGZpbGUubWFlPic=

> <r_lp_tautomer_probability>
1

> <r_epik_Ionization_Penalty>
0.00115068

> <r_epik_Ionization_Penalty_Charging>
0

> <r_epik_Ionization_Penalty_Neutral>
0.00115068

> <r_epik_State_Penalty>
0.000668876

> <r_epik_Charging_Adjusted_Penalty>
0.000668876

> <i_epik_Tot_Q>
0

> <i_epik_Tot_abs_Q>
0

> <r_epik_Metal_State_Penalty>
-0

> <b_epik_Metal_Only>
0

> <s_lp_Force_Field>
OPLS_2005

> <r_lp_Energy>
50.4513

> <b_lp_Chiralities_Consistent>
1

> <s_lp_Variant>
AV-unprocessed.smi:260-5

> <Gold.Version>
5.8.1

> <Gold.Id.Protein>
6NUR|6NUR_protein|mol2

> <Gold.PLP.Fitness>
54.8630

> <Gold.PLP.PLP>
-56.5784

> <Gold.PLP.part.hbond>
-3.7716

> <Gold.PLP.part.metal>
0.0000

> <Gold.PLP.part.buried>
-4.0915

> <Gold.PLP.part.nonpolar>
-47.9861

> <Gold.PLP.part.repulsive>
0.3430

> <Gold.PLP.ligand.clash>
0.0000

> <Gold.PLP.ligand.torsion>
1.0548

> <Gold.PLP.Chemscore.Hbond>
0.0000

> <Gold.PLP.Chemscore.CHOScore>
0.0000

> <Gold.PLP.Chemscore.Metal>
0.0000

> <Gold.PLP.Chemscore.Internal.Correction>
0.3941

> <Gold.Rescore>
     Score         DG    S(hbond)    S(metal)    S(lipo)     H(rot)  DE(clash)    DE(int)     intcor
      8.51     -10.61       0.00        0.00      99.15       2.53       0.86       1.24       ----

> <Gold.Chemscore.Fitness>
8.5075

> <Gold.Chemscore.DG>
-10.6143

> <Gold.Chemscore.ZeroCoef>
-5.4800

> <Gold.Chemscore.Hbond>
0.0000

> <Gold.Chemscore.Metal>
0.0000

> <Gold.Chemscore.Lipo>
99.1509

> <Gold.Chemscore.Internal_Hbond>
0.0000

> <Gold.Chemscore.DEClash>
0.8625

> <Gold.Chemscore.DEInternal>
1.2443

> <Gold.Chemscore.Rot>
2.5259

> <Gold.Chemscore.Internal.Correction>
   9.000000E+99

> <Gold.Chemscore.Hbond.Weighted>
-0.0000

> <Gold.Chemscore.Metal.Weighted>
-0.0000

> <Gold.Chemscore.Lipo.Weighted>
-11.6007

> <Gold.Chemscore.Internal_Hbond.Weighted>
0.0000

> <Gold.Chemscore.DEClash.Weighted>
0.8625

> <Gold.Chemscore.DEInternal.Weighted>
1.2443

> <Gold.Chemscore.Rot.Weighted>
6.4663

> <Gold.Chemscore.Internal.Correction.Weighted>
   9.000000E+99

> <Gold.Protein.RotatedTorsions>
[ 6907 6896 6895 6894 ] final  138.85 input  -60.11 | X-H torsion
[ 7974 7965 7964 7962 ] final -154.67 input  175.53 | X-H torsion
[ 8008 7997 7996 7995 ] final -121.74 input   59.86 | X-H torsion
[ 10167 10162 10161 10158 ] final  -21.83 input  -65.29 | X-H torsion
[ 10718 10713 10712 10709 ] final  122.61 input   66.30 | X-H torsion
[ 10763 10752 10751 10750 ] final -111.55 input  -60.55 | X-H torsion
[ 11005 11000 10999 10996 ] final   49.94 input  -57.11 | X-H torsion

> <Gold.Protein.ActiveResidues>
 VAL166  LYS551  ARG553  GLY616  TRP617  ASP618  TYR619  PRO620  LYS621  CYS622 
 ASP623  PHE694  ASN695  SER759  ASP760  ASP761  ALA762  ILE779  LEU786  VAL792 
 PHE793  MET794  SER795  GLU796  ALA797  LYS798  CYS799  TRP800  GLU811  SER814 

> <Gold.Protein.RotatedAtoms>
  152.2618  133.5304  159.5386 H   0  0  0  0  0  0  0  0  0  0  0  0  # atno 6907 bound_to 6896
  150.7128  134.0819  159.3910 H   0  0  0  0  0  0  0  0  0  0  0  0  # atno 6908 bound_to 6896
  151.8736  135.0480  160.0532 H   0  0  0  0  0  0  0  0  0  0  0  0  # atno 6909 bound_to 6896
  144.7678  140.4356  143.5929 H   0  0  0  0  0  0  0  0  0  0  0  0  # atno 7974 bound_to 7965
  155.1530  140.0404  157.2825 H   0  0  0  0  0  0  0  0  0  0  0  0  # atno 8008 bound_to 7997
  154.6391  140.2542  155.7317 H   0  0  0  0  0  0  0  0  0  0  0  0  # atno 8009 bound_to 7997
  156.2523  140.2859  156.0776 H   0  0  0  0  0  0  0  0  0  0  0  0  # atno 8010 bound_to 7997
  140.7283  143.4591  151.0405 H   0  0  0  0  0  0  0  0  0  0  0  0  # atno 10167 bound_to 10162
  157.5729  131.1082  150.8334 H   0  0  0  0  0  0  0  0  0  0  0  0  # atno 10718 bound_to 10713
  154.8306  135.4523  154.1057 H   0  0  0  0  0  0  0  0  0  0  0  0  # atno 10763 bound_to 10752
  153.2333  135.6908  153.7871 H   0  0  0  0  0  0  0  0  0  0  0  0  # atno 10764 bound_to 10752
  153.7245  135.3336  155.3250 H   0  0  0  0  0  0  0  0  0  0  0  0  # atno 10765 bound_to 10752
  140.1060  134.5018  155.8719 H   0  0  0  0  0  0  0  0  0  0  0  0  # atno 11005 bound_to 11000
  145.6416  139.1551  143.2912 LP  0  0  0  0  0  0  0  0  0  0  0  0  # atno 17320 bound_to 7965
  146.1800  140.6512  142.9193 LP  0  0  0  0  0  0  0  0  0  0  0  0  # atno 17321 bound_to 7965
  139.8274  143.7737  152.3179 LP  0  0  0  0  0  0  0  0  0  0  0  0  # atno 17342 bound_to 10162
  139.7840  144.7434  151.0047 LP  0  0  0  0  0  0  0  0  0  0  0  0  # atno 17343 bound_to 10162
  156.8801  130.5176  149.5291 LP  0  0  0  0  0  0  0  0  0  0  0  0  # atno 17370 bound_to 10713
  156.0774  130.5792  150.9499 LP  0  0  0  0  0  0  0  0  0  0  0  0  # atno 17371 bound_to 10713
  141.2118  133.6711  156.6612 LP  0  0  0  0  0  0  0  0  0  0  0  0  # atno 17394 bound_to 11000
  140.3155  134.8051  157.4211 LP  0  0  0  0  0  0  0  0  0  0  0  0  # atno 17395 bound_to 11000

$$$$
