AV-unprocessed.smi:1202|AV-procd|sdf|5030|dock6
  -GOLD-   22720 4 53D 1   1.00000     0.00000
 Structure written by MMmdl.
 45 46  0  0  0  0  0  0  0  0  2 V2000
  149.8582  132.6581  153.5426 C   0  0  0  0  0  0  0  0  0  0  0  0
  149.3769  134.0058  153.8062 N   0  0  0  0  0  0  0  0  0  0  0  0
  148.9459  134.4319  155.0018 C   0  0  0  0  0  0  0  0  0  0  0  0
  148.9073  133.7132  156.0011 O   0  0  0  0  0  0  0  0  0  0  0  0
  148.4714  135.8874  155.0713 C   0  0  0  0  0  0  0  0  0  0  0  0
  149.5267  136.8635  154.6955 N   0  3  2  0  0  0  0  0  0  0  0  0
  150.7451  136.7296  155.5344 C   0  0  0  0  0  0  0  0  0  0  0  0
  151.8727  137.6517  155.0347 C   0  0  0  0  0  0  0  0  0  0  0  0
  151.4254  139.1213  154.9502 C   0  0  2  0  0  0  0  0  0  0  0  0
  151.2703  139.6866  156.2900 N   0  0  0  0  0  0  0  0  0  0  0  0
  152.2418  139.7765  157.2112 C   0  0  0  0  0  0  0  0  0  0  0  0
  153.3975  139.4020  157.0094 O   0  0  0  0  0  0  0  0  0  0  0  0
  151.8417  140.4089  158.5517 C   0  0  0  0  0  0  0  0  0  0  0  0
  151.8645  141.8810  158.5286 N   0  0  0  0  0  0  0  0  0  0  0  0
  151.0905  142.5201  157.5397 C   0  0  0  0  0  0  0  0  0  0  0  0
  151.0447  143.8570  157.4280 C   0  0  0  0  0  0  0  0  0  0  0  0
  151.8173  144.6468  158.3577 C   0  0  0  0  0  0  0  0  0  0  0  0
  152.5628  144.0452  159.3061 C   0  0  0  0  0  0  0  0  0  0  0  0
  152.6176  142.5840  159.4302 C   0  0  0  0  0  0  0  0  0  0  0  0
  153.2983  142.0250  160.2910 O   0  0  0  0  0  0  0  0  0  0  0  0
  150.1228  139.2205  154.1318 C   0  0  0  0  0  0  0  0  0  0  0  0
  149.0372  138.2678  154.6617 C   0  0  0  0  0  0  0  0  0  0  0  0
  150.0942  132.5483  152.4842 H   0  0  0  0  0  0  0  0  0  0  0  0
  149.1024  131.9153  153.8010 H   0  0  0  0  0  0  0  0  0  0  0  0
  150.7622  132.4502  154.1163 H   0  0  0  0  0  0  0  0  0  0  0  0
  149.3713  134.6522  153.0300 H   0  0  0  0  0  0  0  0  0  0  0  0
  147.5879  136.0333  154.4474 H   0  0  0  0  0  0  0  0  0  0  0  0
  148.1597  136.0624  156.1019 H   0  0  0  0  0  0  0  0  0  0  0  0
  150.4995  136.9554  156.5732 H   0  0  0  0  0  0  0  0  0  0  0  0
  151.0954  135.6970  155.5107 H   0  0  0  0  0  0  0  0  0  0  0  0
  152.7475  137.5585  155.6798 H   0  0  0  0  0  0  0  0  0  0  0  0
  152.1902  137.3186  154.0454 H   0  0  0  0  0  0  0  0  0  0  0  0
  152.2081  139.6832  154.4370 H   0  0  0  0  0  0  0  0  0  0  0  0
  150.3504  140.0165  156.5442 H   0  0  0  0  0  0  0  0  0  0  0  0
  150.8475  140.0451  158.8140 H   0  0  0  0  0  0  0  0  0  0  0  0
  152.4982  140.0368  159.3409 H   0  0  0  0  0  0  0  0  0  0  0  0
  150.5480  141.8588  156.8797 H   0  0  0  0  0  0  0  0  0  0  0  0
  150.4490  144.3291  156.6608 H   0  0  0  0  0  0  0  0  0  0  0  0
  151.7980  145.7247  158.2920 H   0  0  0  0  0  0  0  0  0  0  0  0
  153.1349  144.6524  159.9922 H   0  0  0  0  0  0  0  0  0  0  0  0
  149.7496  140.2452  154.1229 H   0  0  0  0  0  0  0  0  0  0  0  0
  150.3359  138.9712  153.0914 H   0  0  0  0  0  0  0  0  0  0  0  0
  148.1572  138.3441  154.0227 H   0  0  0  0  0  0  0  0  0  0  0  0
  148.7236  138.5707  155.6618 H   0  0  0  0  0  0  0  0  0  0  0  0
  149.8029  136.6255  153.7529 H   0  0  0  0  0  0  0  0  0  0  0  0
  1  2  1  0  0  0  0
  1 23  1  0  0  0  0
  1 24  1  0  0  0  0
  1 25  1  0  0  0  0
  2  3  1  0  0  0  0
  2 26  1  0  0  0  0
  3  4  2  0  0  0  0
  3  5  1  0  0  0  0
  5  6  1  0  0  0  0
  5 27  1  0  0  0  0
  5 28  1  0  0  0  0
  6 22  1  0  0  0  0
  6  7  1  0  0  0  0
  6 45  1  0  0  0  0
  7  8  1  0  0  0  0
  7 29  1  0  0  0  0
  7 30  1  0  0  0  0
  8  9  1  0  0  0  0
  8 31  1  0  0  0  0
  8 32  1  0  0  0  0
  9 10  1  0  0  0  0
  9 21  1  0  0  0  0
  9 33  1  0  0  0  0
 10 11  1  0  0  0  0
 10 34  1  0  0  0  0
 11 12  2  0  0  0  0
 11 13  1  0  0  0  0
 13 14  1  0  0  0  0
 13 35  1  0  0  0  0
 13 36  1  0  0  0  0
 14 19  1  0  0  0  0
 14 15  1  0  0  0  0
 15 16  2  0  0  0  0
 15 37  1  0  0  0  0
 16 17  1  0  0  0  0
 16 38  1  0  0  0  0
 17 18  2  0  0  0  0
 17 39  1  0  0  0  0
 18 19  1  0  0  0  0
 18 40  1  0  0  0  0
 19 20  2  0  0  0  0
 21 22  1  0  0  0  0
 21 41  1  0  0  0  0
 21 42  1  0  0  0  0
 22 43  1  0  0  0  0
 22 44  1  0  0  0  0
M  CHG  1   6   1
M  END
> <s_m_source_file>
AV-unprocessed.smi

> <i_m_source_file_index>
1202

> <i_lp_mmshare_version>
43012

> <i_f3d_flags>
0

> <s_epik_input>
W0NIM11bTkhdQyg9TylbQ0gyXU4xW0NIMl1bQ0gyXVtDSF0oW0NIMl1bQ0gyXTEpW05IXUMoPU8pW0NIMl1uMltjSF1bY0hdW2NIXVtjSF1jMj1P

> <s_epik_cmdline>
J2VwaWtfcHl0aG9uJywgJy1waCcsICc3LjAnLCAnLXRuJywgJzgnLCAnLW1hJywgJzIwMCcsICctbWV0YWxfYmluZGluZycsICctaW1hZScsICc8aW5maWxlLm1hZT4nLCAnLW9tYWUnLCAnPG91dGZpbGUubWFlPic=

> <r_lp_tautomer_probability>
1

> <r_epik_Ionization_Penalty>
0.983979

> <r_epik_Ionization_Penalty_Charging>
0.983957

> <r_epik_Ionization_Penalty_Neutral>
2.18432e-05

> <r_epik_State_Penalty>
1.03106

> <r_epik_Charging_Adjusted_Penalty>
2.01502

> <i_epik_Tot_Q>
1

> <i_epik_Tot_abs_Q>
1

> <r_epik_Metal_State_Penalty>
1.03477

> <b_epik_Metal_Only>
0

> <s_lp_Force_Field>
OPLS_2005

> <r_lp_Energy>
22.4374

> <b_lp_Chiralities_Consistent>
1

> <s_lp_Variant>
AV-unprocessed.smi:1202-3

> <Gold.Version>
5.8.1

> <Gold.Id.Protein>
6NUR|6NUR_protein|mol2

> <Gold.PLP.Fitness>
53.8009

> <Gold.PLP.PLP>
-42.4586

> <Gold.PLP.part.hbond>
-3.0000

> <Gold.PLP.part.metal>
0.0000

> <Gold.PLP.part.buried>
-3.3919

> <Gold.PLP.part.nonpolar>
-34.6573

> <Gold.PLP.part.repulsive>
0.1085

> <Gold.PLP.ligand.clash>
0.0000

> <Gold.PLP.ligand.torsion>
0.3596

> <Gold.PLP.Chemscore.Hbond>
4.0000

> <Gold.PLP.Chemscore.CHOScore>
0.0000

> <Gold.PLP.Chemscore.Metal>
0.0000

> <Gold.Chemscore.Hbonds>
donor molecule, donor type, donor heavy atom, donor atom, acceptor molecule, acceptor atom, score
      L1  H     2    26       P1  7948  0.20
      L1  H     6    45       P1  7948  1.49
      P1  H  7997  8009       L1    12  0.41

> <Gold.PLP.Chemscore.Internal.Correction>
0.0615

> <Gold.Rescore>
     Score         DG    S(hbond)    S(metal)    S(lipo)     H(rot)  DE(clash)    DE(int)     intcor
     19.06     -19.81       2.90        0.00      88.49       2.23       0.13       0.62       ----

> <Gold.Chemscore.Fitness>
19.0624

> <Gold.Chemscore.DG>
-19.8145

> <Gold.Chemscore.ZeroCoef>
-5.4800

> <Gold.Chemscore.Hbond>
2.9047

> <Gold.Chemscore.Metal>
0.0000

> <Gold.Chemscore.Lipo>
88.4909

> <Gold.Chemscore.Internal_Hbond>
0.0000

> <Gold.Chemscore.DEClash>
0.1284

> <Gold.Chemscore.DEInternal>
0.6237

> <Gold.Chemscore.Rot>
2.2346

> <Gold.Chemscore.Internal.Correction>
   9.000000E+99

> <Gold.Chemscore.Hbonds>
donor molecule, donor type, donor heavy atom, donor atom, acceptor molecule, acceptor atom, score
      L1  H     6    45       P1  7948  0.32
      P1  H  7997  8009       L1    12  0.39

> <Gold.Chemscore.Hbond.Weighted>
-9.7015

> <Gold.Chemscore.Metal.Weighted>
-0.0000

> <Gold.Chemscore.Lipo.Weighted>
-10.3534

> <Gold.Chemscore.Internal_Hbond.Weighted>
0.0000

> <Gold.Chemscore.DEClash.Weighted>
0.1284

> <Gold.Chemscore.DEInternal.Weighted>
0.6237

> <Gold.Chemscore.Rot.Weighted>
5.7205

> <Gold.Chemscore.Internal.Correction.Weighted>
   9.000000E+99

> <Gold.Protein.RotatedTorsions>
[ 6907 6896 6895 6894 ] final  151.16 input  -60.11 | X-H torsion
[ 7974 7965 7964 7962 ] final -140.67 input  175.53 | X-H torsion
[ 8008 7997 7996 7995 ] final -169.23 input   59.86 | X-H torsion
[ 10167 10162 10161 10158 ] final  -45.85 input  -65.29 | X-H torsion
[ 10718 10713 10712 10709 ] final  164.92 input   66.30 | X-H torsion
[ 10763 10752 10751 10750 ] final    3.00 input  -60.55 | X-H torsion
[ 11005 11000 10999 10996 ] final   99.82 input  -57.11 | X-H torsion

> <Gold.Protein.ActiveResidues>
 VAL166  LYS551  ARG553  GLY616  TRP617  ASP618  TYR619  PRO620  LYS621  CYS622 
 ASP623  PHE694  ASN695  SER759  ASP760  ASP761  ALA762  ILE779  LEU786  VAL792 
 PHE793  MET794  SER795  GLU796  ALA797  LYS798  CYS799  TRP800  GLU811  SER814 

> <Gold.Protein.RotatedAtoms>
  152.1045  133.4267  159.4601 H   0  0  0  0  0  0  0  0  0  0  0  0  # atno 6907 bound_to 6896
  150.6865  134.2722  159.4602 H   0  0  0  0  0  0  0  0  0  0  0  0  # atno 6908 bound_to 6896
  152.0585  134.9609  160.0625 H   0  0  0  0  0  0  0  0  0  0  0  0  # atno 6909 bound_to 6896
  144.8579  140.6172  143.5347 H   0  0  0  0  0  0  0  0  0  0  0  0  # atno 7974 bound_to 7965
  155.9021  140.1043  157.1342 H   0  0  0  0  0  0  0  0  0  0  0  0  # atno 8008 bound_to 7997
  154.4028  140.1290  156.4514 H   0  0  0  0  0  0  0  0  0  0  0  0  # atno 8009 bound_to 7997
  155.7410  140.3467  155.5106 H   0  0  0  0  0  0  0  0  0  0  0  0  # atno 8010 bound_to 7997
  140.6841  143.2859  151.3698 H   0  0  0  0  0  0  0  0  0  0  0  0  # atno 10167 bound_to 10162
  157.0874  131.0408  151.2551 H   0  0  0  0  0  0  0  0  0  0  0  0  # atno 10718 bound_to 10713
  153.2886  135.6946  153.7315 H   0  0  0  0  0  0  0  0  0  0  0  0  # atno 10763 bound_to 10752
  153.6274  135.3416  155.3031 H   0  0  0  0  0  0  0  0  0  0  0  0  # atno 10764 bound_to 10752
  154.8517  135.4401  154.1962 H   0  0  0  0  0  0  0  0  0  0  0  0  # atno 10765 bound_to 10752
  139.8770  134.9113  156.4663 H   0  0  0  0  0  0  0  0  0  0  0  0  # atno 11005 bound_to 11000
  145.4370  139.1541  143.3991 LP  0  0  0  0  0  0  0  0  0  0  0  0  # atno 17320 bound_to 7965
  146.2837  140.4489  142.8766 LP  0  0  0  0  0  0  0  0  0  0  0  0  # atno 17321 bound_to 7965
  139.6186  144.0952  152.2370 LP  0  0  0  0  0  0  0  0  0  0  0  0  # atno 17342 bound_to 10162
  140.0389  144.6023  150.7427 LP  0  0  0  0  0  0  0  0  0  0  0  0  # atno 17343 bound_to 10162
  157.4749  130.7731  149.7359 LP  0  0  0  0  0  0  0  0  0  0  0  0  # atno 17370 bound_to 10713
  155.9907  130.3943  150.3017 LP  0  0  0  0  0  0  0  0  0  0  0  0  # atno 17371 bound_to 10713
  140.8828  133.7905  155.9485 LP  0  0  0  0  0  0  0  0  0  0  0  0  # atno 17394 bound_to 11000
  140.8836  134.2581  157.5131 LP  0  0  0  0  0  0  0  0  0  0  0  0  # atno 17395 bound_to 11000

$$$$
