AV-unprocessed.smi:1255|AV-procd|sdf|5281|dock10
  -GOLD-   22720 4403D 1   1.00000     0.00000
 Structure written by MMmdl.
 40 41  0  0  0  0  0  0  0  0  1 V2000
  146.9057  138.9560  151.4248 C   0  0  0  0  0  0  0  0  0  0  0  0
  146.5184  138.4524  152.8255 C   0  0  2  0  0  0  0  0  0  0  0  0
  145.0604  138.4903  152.9328 N   0  0  0  0  0  0  0  0  0  0  0  0
  144.2742  137.4187  153.1114 C   0  0  0  0  0  0  0  0  0  0  0  0
  142.9849  137.7454  153.2062 N   0  0  0  0  0  0  0  0  0  0  0  0
  144.6799  136.2603  153.1840 O   0  0  0  0  0  0  0  0  0  0  0  0
  147.1623  139.3873  153.8632 C   0  0  0  0  0  0  0  0  0  0  0  0
  146.4633  140.1821  154.4931 O   0  0  0  0  0  0  0  0  0  0  0  0
  148.4940  139.2598  154.0094 N   0  0  0  0  0  0  0  0  0  0  0  0
  149.3646  139.9752  154.8753 C   0  0  0  0  0  0  0  0  0  0  0  0
  150.7547  139.7395  154.9823 C   0  0  0  0  0  0  0  0  0  0  0  0
  151.5081  140.5038  155.8937 C   0  0  0  0  0  0  0  0  0  0  0  0
  150.8572  141.4793  156.6853 C   0  0  0  0  0  0  0  0  0  0  0  0
  151.5951  142.2569  157.6043 N   0  0  0  0  0  0  0  0  0  0  0  0
  151.6366  141.7538  158.9752 C   0  0  0  0  0  0  0  0  0  0  0  0
  152.7120  142.4976  159.7860 C   0  0  0  0  0  0  0  0  0  0  0  0
  152.4857  143.9018  159.7169 O   0  0  0  0  0  0  0  0  0  0  0  0
  152.5619  144.3852  158.3800 C   0  0  0  0  0  0  0  0  0  0  0  0
  151.4765  143.7119  157.5239 C   0  0  0  0  0  0  0  0  0  0  0  0
  149.5228  141.6965  156.5853 N   0  0  0  0  0  0  0  0  0  0  0  0
  148.8041  140.9610  155.7117 C   0  0  0  0  0  0  0  0  0  0  0  0
  147.9876  138.9455  151.2852 H   0  0  0  0  0  0  0  0  0  0  0  0
  146.5569  139.9745  151.2469 H   0  0  0  0  0  0  0  0  0  0  0  0
  146.4740  138.3210  150.6503 H   0  0  0  0  0  0  0  0  0  0  0  0
  146.8761  137.4293  152.9589 H   0  0  0  0  0  0  0  0  0  0  0  0
  144.6261  139.4007  152.8932 H   0  0  0  0  0  0  0  0  0  0  0  0
  142.2864  137.0285  153.3365 H   0  0  0  0  0  0  0  0  0  0  0  0
  142.7122  138.7155  153.1407 H   0  0  0  0  0  0  0  0  0  0  0  0
  148.9243  138.5123  153.4842 H   0  0  0  0  0  0  0  0  0  0  0  0
  151.2563  138.9854  154.3965 H   0  0  0  0  0  0  0  0  0  0  0  0
  152.5729  140.3398  155.9652 H   0  0  0  0  0  0  0  0  0  0  0  0
  150.6572  141.9009  159.4327 H   0  0  0  0  0  0  0  0  0  0  0  0
  151.8440  140.6853  159.0088 H   0  0  0  0  0  0  0  0  0  0  0  0
  152.6778  142.1843  160.8295 H   0  0  0  0  0  0  0  0  0  0  0  0
  153.7107  142.2606  159.4154 H   0  0  0  0  0  0  0  0  0  0  0  0
  152.4200  145.4660  158.3835 H   0  0  0  0  0  0  0  0  0  0  0  0
  153.5548  144.1956  157.9688 H   0  0  0  0  0  0  0  0  0  0  0  0
  151.5764  144.0431  156.4893 H   0  0  0  0  0  0  0  0  0  0  0  0
  150.4870  144.0137  157.8703 H   0  0  0  0  0  0  0  0  0  0  0  0
  147.7450  141.1719  155.6776 H   0  0  0  0  0  0  0  0  0  0  0  0
  1  2  1  0  0  0  0
  1 22  1  0  0  0  0
  1 23  1  0  0  0  0
  1 24  1  0  0  0  0
  2  3  1  0  0  0  0
  2  7  1  0  0  0  0
  2 25  1  0  0  0  0
  3  4  1  0  0  0  0
  3 26  1  0  0  0  0
  4  5  1  0  0  0  0
  4  6  2  0  0  0  0
  5 27  1  0  0  0  0
  5 28  1  0  0  0  0
  7  8  2  0  0  0  0
  7  9  1  0  0  0  0
  9 10  1  0  0  0  0
  9 29  1  0  0  0  0
 10 21  1  0  0  0  0
 10 11  2  0  0  0  0
 11 12  1  0  0  0  0
 11 30  1  0  0  0  0
 12 13  2  0  0  0  0
 12 31  1  0  0  0  0
 13 14  1  0  0  0  0
 13 20  1  0  0  0  0
 14 19  1  0  0  0  0
 14 15  1  0  0  0  0
 15 16  1  0  0  0  0
 15 32  1  0  0  0  0
 15 33  1  0  0  0  0
 16 17  1  0  0  0  0
 16 34  1  0  0  0  0
 16 35  1  0  0  0  0
 17 18  1  0  0  0  0
 18 19  1  0  0  0  0
 18 36  1  0  0  0  0
 18 37  1  0  0  0  0
 19 38  1  0  0  0  0
 19 39  1  0  0  0  0
 20 21  2  0  0  0  0
 21 40  1  0  0  0  0
M  END
> <s_m_source_file>
AV-unprocessed.smi

> <i_m_source_file_index>
1255

> <i_lp_mmshare_version>
43012

> <i_f3d_flags>
0

> <s_epik_input>
W05IMl1DKD1PKVtOSF1bQ0BASF0oW0NIM10pQyg9TylbTkhdYzFbY0hdW2NIXWMobltjSF0xKU4yW0NIMl1bQ0gyXU9bQ0gyXVtDSDJdMg==

> <s_epik_cmdline>
J2VwaWtfcHl0aG9uJywgJy1waCcsICc3LjAnLCAnLXRuJywgJzgnLCAnLW1hJywgJzIwMCcsICctbWV0YWxfYmluZGluZycsICctaW1hZScsICc8aW5maWxlLm1hZT4nLCAnLW9tYWUnLCAnPG91dGZpbGUubWFlPic=

> <r_lp_tautomer_probability>
1

> <r_epik_Ionization_Penalty>
0.00069351

> <r_epik_Ionization_Penalty_Charging>
0

> <r_epik_Ionization_Penalty_Neutral>
0.00069351

> <r_epik_State_Penalty>
0.000408291

> <r_epik_Charging_Adjusted_Penalty>
0.000408291

> <i_epik_Tot_Q>
0

> <i_epik_Tot_abs_Q>
0

> <r_epik_Metal_State_Penalty>
-0

> <b_epik_Metal_Only>
0

> <s_lp_Force_Field>
OPLS_2005

> <r_lp_Energy>
17.9712

> <b_lp_Chiralities_Consistent>
1

> <s_lp_Variant>
AV-unprocessed.smi:1255-1

> <Gold.Version>
5.8.1

> <Gold.Id.Protein>
6NUR|6NUR_protein|mol2

> <Gold.PLP.Fitness>
40.0012

> <Gold.PLP.PLP>
-36.2095

> <Gold.PLP.part.hbond>
-2.3665

> <Gold.PLP.part.metal>
0.0000

> <Gold.PLP.part.buried>
0.6272

> <Gold.PLP.part.nonpolar>
-34.7401

> <Gold.PLP.part.repulsive>
0.4282

> <Gold.PLP.ligand.clash>
0.0000

> <Gold.PLP.ligand.torsion>
0.6757

> <Gold.PLP.Chemscore.Hbond>
1.5912

> <Gold.PLP.Chemscore.CHOScore>
0.0000

> <Gold.PLP.Chemscore.Metal>
0.0000

> <Gold.Chemscore.Hbonds>
donor molecule, donor type, donor heavy atom, donor atom, acceptor molecule, acceptor atom, score
      L1  H     3    26       P1 10175  0.89
      L1  H     5    28       P1 10175  0.66

> <Gold.PLP.Chemscore.Internal.Correction>
0.3694

> <Gold.Rescore>
     Score         DG    S(hbond)    S(metal)    S(lipo)     H(rot)  DE(clash)    DE(int)     intcor
     14.05     -16.39       1.67        0.00      87.33       1.91       0.21       2.13       ----

> <Gold.Chemscore.Fitness>
14.0527

> <Gold.Chemscore.DG>
-16.3916

> <Gold.Chemscore.ZeroCoef>
-5.4800

> <Gold.Chemscore.Hbond>
1.6691

> <Gold.Chemscore.Metal>
0.0000

> <Gold.Chemscore.Lipo>
87.3315

> <Gold.Chemscore.Internal_Hbond>
0.0000

> <Gold.Chemscore.DEClash>
0.2106

> <Gold.Chemscore.DEInternal>
2.1283

> <Gold.Chemscore.Rot>
1.9067

> <Gold.Chemscore.Internal.Correction>
   9.000000E+99

> <Gold.Chemscore.Hbonds>
donor molecule, donor type, donor heavy atom, donor atom, acceptor molecule, acceptor atom, score
      L1  H     3    26       P1 10175  0.85
      L1  H     5    28       P1 10175  0.63

> <Gold.Chemscore.Hbond.Weighted>
-5.5749

> <Gold.Chemscore.Metal.Weighted>
-0.0000

> <Gold.Chemscore.Lipo.Weighted>
-10.2178

> <Gold.Chemscore.Internal_Hbond.Weighted>
0.0000

> <Gold.Chemscore.DEClash.Weighted>
0.2106

> <Gold.Chemscore.DEInternal.Weighted>
2.1283

> <Gold.Chemscore.Rot.Weighted>
4.8811

> <Gold.Chemscore.Internal.Correction.Weighted>
   9.000000E+99

> <Gold.Protein.RotatedTorsions>
[ 6907 6896 6895 6894 ] final  -11.99 input  -60.11 | X-H torsion
[ 7974 7965 7964 7962 ] final  -96.52 input  175.53 | X-H torsion
[ 8008 7997 7996 7995 ] final -134.44 input   59.86 | X-H torsion
[ 10167 10162 10161 10158 ] final  101.80 input  -65.29 | X-H torsion
[ 10718 10713 10712 10709 ] final   25.06 input   66.30 | X-H torsion
[ 10763 10752 10751 10750 ] final   93.60 input  -60.55 | X-H torsion
[ 11005 11000 10999 10996 ] final   -8.78 input  -57.11 | X-H torsion

> <Gold.Protein.ActiveResidues>
 VAL166  LYS551  ARG553  GLY616  TRP617  ASP618  TYR619  PRO620  LYS621  CYS622 
 ASP623  PHE694  ASN695  SER759  ASP760  ASP761  ALA762  ILE779  LEU786  VAL792 
 PHE793  MET794  SER795  GLU796  ALA797  LYS798  CYS799  TRP800  GLU811  SER814 

> <Gold.Protein.RotatedAtoms>
  151.3776  135.0934  159.9485 H   0  0  0  0  0  0  0  0  0  0  0  0  # atno 6907 bound_to 6896
  152.5117  133.9103  159.7495 H   0  0  0  0  0  0  0  0  0  0  0  0  # atno 6908 bound_to 6896
  150.9530  133.6473  159.2797 H   0  0  0  0  0  0  0  0  0  0  0  0  # atno 6909 bound_to 6896
  145.3458  140.9468  143.2582 H   0  0  0  0  0  0  0  0  0  0  0  0  # atno 7974 bound_to 7965
  155.3621  140.0483  157.3046 H   0  0  0  0  0  0  0  0  0  0  0  0  # atno 8008 bound_to 7997
  154.5172  140.2212  155.9006 H   0  0  0  0  0  0  0  0  0  0  0  0  # atno 8009 bound_to 7997
  156.1650  140.3108  155.8879 H   0  0  0  0  0  0  0  0  0  0  0  0  # atno 8010 bound_to 7997
  139.7406  144.7012  151.0581 H   0  0  0  0  0  0  0  0  0  0  0  0  # atno 10167 bound_to 10162
  157.1883  130.6834  149.6140 H   0  0  0  0  0  0  0  0  0  0  0  0  # atno 10718 bound_to 10713
  153.2321  135.4320  155.0606 H   0  0  0  0  0  0  0  0  0  0  0  0  # atno 10763 bound_to 10752
  154.8301  135.3382  154.6772 H   0  0  0  0  0  0  0  0  0  0  0  0  # atno 10764 bound_to 10752
  153.7199  135.7017  153.5072 H   0  0  0  0  0  0  0  0  0  0  0  0  # atno 10765 bound_to 10752
  140.7271  133.8780  155.8864 H   0  0  0  0  0  0  0  0  0  0  0  0  # atno 11005 bound_to 11000
  144.8756  139.4976  143.6747 LP  0  0  0  0  0  0  0  0  0  0  0  0  # atno 17320 bound_to 7965
  146.2989  139.7363  142.9106 LP  0  0  0  0  0  0  0  0  0  0  0  0  # atno 17321 bound_to 7965
  140.7785  143.4929  150.9870 LP  0  0  0  0  0  0  0  0  0  0  0  0  # atno 17342 bound_to 10162
  139.8617  143.7306  152.3173 LP  0  0  0  0  0  0  0  0  0  0  0  0  # atno 17343 bound_to 10162
  155.9715  130.4623  150.6141 LP  0  0  0  0  0  0  0  0  0  0  0  0  # atno 17370 bound_to 10713
  157.3886  131.0792  151.1414 LP  0  0  0  0  0  0  0  0  0  0  0  0  # atno 17371 bound_to 10713
  140.9953  134.1223  157.4369 LP  0  0  0  0  0  0  0  0  0  0  0  0  # atno 17394 bound_to 11000
  139.8834  135.0052  156.6302 LP  0  0  0  0  0  0  0  0  0  0  0  0  # atno 17395 bound_to 11000

$$$$
