AV-unprocessed.smi:3160|AV-procd|sdf|12051|dock1
  -GOLD-   2272017473D 1   1.00000     0.00000
 Structure written by MMmdl.
 40 41  0  0  0  0  0  0  0  0  2 V2000
  153.7308  142.1688  162.9564 C   0  0  0  0  0  0  0  0  0  0  0  0
  153.0853  142.8536  161.7864 C   0  0  0  0  0  0  0  0  0  0  0  0
  152.3654  144.0815  161.7798 C   0  0  0  0  0  0  0  0  0  0  0  0
  151.9224  144.4112  160.5775 N   0  0  0  0  0  0  0  0  0  0  0  0
  152.3399  143.4093  159.7745 N   0  0  0  0  0  0  0  0  0  0  0  0
  152.0292  143.4460  158.3510 C   0  0  2  0  0  0  0  0  0  0  0  0
  151.4358  144.8189  157.9853 C   0  0  0  0  0  0  0  0  0  0  0  0
  151.1214  142.2610  157.9283 C   0  0  2  0  0  0  0  0  0  0  0  0
  151.8343  140.8976  157.9885 C   0  0  0  0  0  0  0  0  0  0  0  0
  150.6105  142.4694  156.5540 N   0  3  0  0  0  0  0  0  0  0  0  0
  149.6914  141.4248  156.0521 C   0  0  0  0  0  0  0  0  0  0  0  0
  149.2100  141.6812  154.6216 C   0  0  0  0  0  0  0  0  0  0  0  0
  147.9163  140.8680  154.4951 C   0  0  0  0  0  0  0  0  0  0  0  0
  147.3973  140.6572  155.9270 C   0  0  0  0  0  0  0  0  0  0  0  0
  148.3902  141.3696  156.8520 C   0  0  0  0  0  0  0  0  0  0  0  0
  153.0469  142.4562  160.4803 C   0  0  0  0  0  0  0  0  0  0  0  0
  153.3161  142.5112  163.9048 H   0  0  0  0  0  0  0  0  0  0  0  0
  154.8044  142.3548  162.9886 H   0  0  0  0  0  0  0  0  0  0  0  0
  153.5918  141.0882  162.9180 H   0  0  0  0  0  0  0  0  0  0  0  0
  152.1536  144.7397  162.6095 H   0  0  0  0  0  0  0  0  0  0  0  0
  152.9740  143.3484  157.8120 H   0  0  0  0  0  0  0  0  0  0  0  0
  151.3121  144.9281  156.9080 H   0  0  0  0  0  0  0  0  0  0  0  0
  152.0894  145.6269  158.3163 H   0  0  0  0  0  0  0  0  0  0  0  0
  150.4610  144.9704  158.4494 H   0  0  0  0  0  0  0  0  0  0  0  0
  150.2811  142.2094  158.6224 H   0  0  0  0  0  0  0  0  0  0  0  0
  152.1374  140.6415  159.0039 H   0  0  0  0  0  0  0  0  0  0  0  0
  152.7271  140.8891  157.3624 H   0  0  0  0  0  0  0  0  0  0  0  0
  151.1784  140.0981  157.6421 H   0  0  0  0  0  0  0  0  0  0  0  0
  150.1257  143.3554  156.5381 H   0  0  0  0  0  0  0  0  0  0  0  0
  150.1754  140.4481  156.1065 H   0  0  0  0  0  0  0  0  0  0  0  0
  148.9862  142.7407  154.4873 H   0  0  0  0  0  0  0  0  0  0  0  0
  149.9491  141.4033  153.8698 H   0  0  0  0  0  0  0  0  0  0  0  0
  147.1855  141.3803  153.8680 H   0  0  0  0  0  0  0  0  0  0  0  0
  148.1216  139.9022  154.0322 H   0  0  0  0  0  0  0  0  0  0  0  0
  146.3856  141.0428  156.0567 H   0  0  0  0  0  0  0  0  0  0  0  0
  147.3705  139.5908  156.1551 H   0  0  0  0  0  0  0  0  0  0  0  0
  148.5076  140.8612  157.8097 H   0  0  0  0  0  0  0  0  0  0  0  0
  148.0318  142.3801  157.0549 H   0  0  0  0  0  0  0  0  0  0  0  0
  153.4616  141.5823  160.0000 H   0  0  0  0  0  0  0  0  0  0  0  0
  151.3965  142.5265  155.9224 H   0  0  0  0  0  0  0  0  0  0  0  0
  1  2  1  0  0  0  0
  1 17  1  0  0  0  0
  1 18  1  0  0  0  0
  1 19  1  0  0  0  0
  2 16  2  0  0  0  0
  2  3  1  0  0  0  0
  3  4  2  0  0  0  0
  3 20  1  0  0  0  0
  4  5  1  0  0  0  0
  5  6  1  0  0  0  0
  5 16  1  0  0  0  0
  6  7  1  0  0  0  0
  6  8  1  0  0  0  0
  6 21  1  0  0  0  0
  7 22  1  0  0  0  0
  7 23  1  0  0  0  0
  7 24  1  0  0  0  0
  8  9  1  0  0  0  0
  8 10  1  0  0  0  0
  8 25  1  0  0  0  0
  9 26  1  0  0  0  0
  9 27  1  0  0  0  0
  9 28  1  0  0  0  0
 10 11  1  0  0  0  0
 10 29  1  0  0  0  0
 10 40  1  0  0  0  0
 11 15  1  0  0  0  0
 11 12  1  0  0  0  0
 11 30  1  0  0  0  0
 12 13  1  0  0  0  0
 12 31  1  0  0  0  0
 12 32  1  0  0  0  0
 13 14  1  0  0  0  0
 13 33  1  0  0  0  0
 13 34  1  0  0  0  0
 14 15  1  0  0  0  0
 14 35  1  0  0  0  0
 14 36  1  0  0  0  0
 15 37  1  0  0  0  0
 15 38  1  0  0  0  0
 16 39  1  0  0  0  0
M  CHG  1  10   1
M  END
> <s_m_source_file>
AV-unprocessed.smi

> <i_m_source_file_index>
3160

> <i_lp_mmshare_version>
43012

> <i_f3d_flags>
0

> <s_epik_input>
W0NIM11jMVtjSF1ubihbY0hdMSlbQ0BIXShbQ0gzXSlbQ0BIXShbQ0gzXSlbTkhdW0NIXTJbQ0gyXVtDSDJdW0NIMl1bQ0gyXTI=

> <s_epik_cmdline>
J2VwaWtfcHl0aG9uJywgJy1waCcsICc3LjAnLCAnLXRuJywgJzgnLCAnLW1hJywgJzIwMCcsICctbWV0YWxfYmluZGluZycsICctaW1hZScsICc8aW5maWxlLm1hZT4nLCAnLW9tYWUnLCAnPG91dGZpbGUubWFlPic=

> <r_lp_tautomer_probability>
1

> <r_epik_Ionization_Penalty>
0.00117636

> <r_epik_Ionization_Penalty_Charging>
0.00115264

> <r_epik_Ionization_Penalty_Neutral>
2.37123e-05

> <r_epik_State_Penalty>
-0

> <r_epik_Charging_Adjusted_Penalty>
0.00115264

> <i_epik_Tot_Q>
1

> <i_epik_Tot_abs_Q>
1

> <r_epik_Metal_State_Penalty>
-0

> <b_epik_Metal_Only>
0

> <s_lp_Force_Field>
OPLS_2005

> <r_lp_Energy>
32.1139

> <b_lp_Chiralities_Consistent>
1

> <s_lp_Variant>
AV-unprocessed.smi:3160-1

> <Gold.Version>
5.8.1

> <Gold.Id.Protein>
6NUR|6NUR_protein|mol2

> <Gold.PLP.Fitness>
44.6835

> <Gold.PLP.PLP>
-39.1153

> <Gold.PLP.part.hbond>
-1.0000

> <Gold.PLP.part.metal>
0.0000

> <Gold.PLP.part.buried>
-4.4736

> <Gold.PLP.part.nonpolar>
-33.3516

> <Gold.PLP.part.repulsive>
0.1774

> <Gold.PLP.ligand.clash>
0.0000

> <Gold.PLP.ligand.torsion>
0.2590

> <Gold.PLP.Chemscore.Hbond>
2.0000

> <Gold.PLP.Chemscore.CHOScore>
0.0000

> <Gold.PLP.Chemscore.Metal>
0.0000

> <Gold.Chemscore.Hbonds>
donor molecule, donor type, donor heavy atom, donor atom, acceptor molecule, acceptor atom, score
      L1  H    10    29       P1  8028  1.98

> <Gold.PLP.Chemscore.Internal.Correction>
0.0861

> <Gold.Rescore>
     Score         DG    S(hbond)    S(metal)    S(lipo)     H(rot)  DE(clash)    DE(int)     intcor
     18.17     -18.52       0.97        0.00     113.81       1.37       0.14       0.20       ----

> <Gold.Chemscore.Fitness>
18.1744

> <Gold.Chemscore.DG>
-18.5196

> <Gold.Chemscore.ZeroCoef>
-5.4800

> <Gold.Chemscore.Hbond>
0.9680

> <Gold.Chemscore.Metal>
0.0000

> <Gold.Chemscore.Lipo>
113.8111

> <Gold.Chemscore.Internal_Hbond>
0.0000

> <Gold.Chemscore.DEClash>
0.1435

> <Gold.Chemscore.DEInternal>
0.2017

> <Gold.Chemscore.Rot>
1.3709

> <Gold.Chemscore.Internal.Correction>
   9.000000E+99

> <Gold.Chemscore.Hbonds>
donor molecule, donor type, donor heavy atom, donor atom, acceptor molecule, acceptor atom, score
      L1  H    10    29       P1  8028  0.90

> <Gold.Chemscore.Hbond.Weighted>
-3.2332

> <Gold.Chemscore.Metal.Weighted>
-0.0000

> <Gold.Chemscore.Lipo.Weighted>
-13.3159

> <Gold.Chemscore.Internal_Hbond.Weighted>
0.0000

> <Gold.Chemscore.DEClash.Weighted>
0.1435

> <Gold.Chemscore.DEInternal.Weighted>
0.2017

> <Gold.Chemscore.Rot.Weighted>
3.5095

> <Gold.Chemscore.Internal.Correction.Weighted>
   9.000000E+99

> <Gold.Protein.RotatedTorsions>
[ 6907 6896 6895 6894 ] final -119.33 input  -60.11 | X-H torsion
[ 7974 7965 7964 7962 ] final   13.07 input  175.53 | X-H torsion
[ 8008 7997 7996 7995 ] final  -85.90 input   59.86 | X-H torsion
[ 10167 10162 10161 10158 ] final   50.35 input  -65.29 | X-H torsion
[ 10718 10713 10712 10709 ] final -144.45 input   66.30 | X-H torsion
[ 10763 10752 10751 10750 ] final -174.40 input  -60.55 | X-H torsion
[ 11005 11000 10999 10996 ] final  141.12 input  -57.11 | X-H torsion

> <Gold.Protein.ActiveResidues>
 VAL166  LYS551  ARG553  GLY616  TRP617  ASP618  TYR619  PRO620  LYS621  CYS622 
 ASP623  PHE694  ASN695  SER759  ASP760  ASP761  ALA762  ILE779  LEU786  VAL792 
 PHE793  MET794  SER795  GLU796  ALA797  LYS798  CYS799  TRP800  GLU811  SER814 

> <Gold.Protein.RotatedAtoms>
  150.8296  133.8114  159.3104 H   0  0  0  0  0  0  0  0  0  0  0  0  # atno 6907 bound_to 6896
  151.5848  135.1055  160.0035 H   0  0  0  0  0  0  0  0  0  0  0  0  # atno 6908 bound_to 6896
  152.4377  133.7349  159.6664 H   0  0  0  0  0  0  0  0  0  0  0  0  # atno 6909 bound_to 6896
  146.2337  139.9243  142.8505 H   0  0  0  0  0  0  0  0  0  0  0  0  # atno 7974 bound_to 7965
  154.6459  140.0585  156.9899 H   0  0  0  0  0  0  0  0  0  0  0  0  # atno 8008 bound_to 7997
  155.1446  140.3268  155.4426 H   0  0  0  0  0  0  0  0  0  0  0  0  # atno 8009 bound_to 7997
  156.2553  140.1958  156.6560 H   0  0  0  0  0  0  0  0  0  0  0  0  # atno 8010 bound_to 7997
  140.2733  144.3240  150.6284 H   0  0  0  0  0  0  0  0  0  0  0  0  # atno 10167 bound_to 10162
  156.3703  130.7784  151.1964 H   0  0  0  0  0  0  0  0  0  0  0  0  # atno 10718 bound_to 10713
  154.5966  135.2850  155.0579 H   0  0  0  0  0  0  0  0  0  0  0  0  # atno 10763 bound_to 10752
  154.1859  135.6449  153.5050 H   0  0  0  0  0  0  0  0  0  0  0  0  # atno 10764 bound_to 10752
  153.0141  135.5435  154.6671 H   0  0  0  0  0  0  0  0  0  0  0  0  # atno 10765 bound_to 10752
  140.0377  134.9320  157.0785 H   0  0  0  0  0  0  0  0  0  0  0  0  # atno 11005 bound_to 11000
  145.2106  140.9894  143.4103 LP  0  0  0  0  0  0  0  0  0  0  0  0  # atno 17320 bound_to 7965
  144.9694  139.3895  143.6316 LP  0  0  0  0  0  0  0  0  0  0  0  0  # atno 17321 bound_to 7965
  140.5872  143.2169  151.7321 LP  0  0  0  0  0  0  0  0  0  0  0  0  # atno 17342 bound_to 10162
  139.4983  144.3994  152.0197 LP  0  0  0  0  0  0  0  0  0  0  0  0  # atno 17343 bound_to 10162
  157.7483  131.0374  150.4454 LP  0  0  0  0  0  0  0  0  0  0  0  0  # atno 17370 bound_to 10713
  156.4680  130.4046  149.6535 LP  0  0  0  0  0  0  0  0  0  0  0  0  # atno 17371 bound_to 10713
  140.4119  134.1972  155.7163 LP  0  0  0  0  0  0  0  0  0  0  0  0  # atno 17394 bound_to 11000
  141.1866  133.8298  157.1061 LP  0  0  0  0  0  0  0  0  0  0  0  0  # atno 17395 bound_to 11000

$$$$
