AV-unprocessed.smi:74|AV-procd|sdf|763|dock6
  -GOLD-   2262017103D 1   1.00000     0.00000
 Structure written by MMmdl.
 58 62  0  0  0  0  0  0  0  0  1 V2000
  146.5367  131.4159  151.5241 O   0  0  0  0  0  0  0  0  0  0  0  0
  145.5250  131.4969  150.5409 C   0  0  0  0  0  0  0  0  0  0  0  0
  144.8981  132.9003  150.5022 C   0  0  0  0  0  0  0  0  0  0  0  0
  144.0283  133.0319  149.2354 C   0  0  0  0  0  0  0  0  0  0  0  0
  142.8954  132.1892  149.2964 O   0  0  0  0  0  0  0  0  0  0  0  0
  144.2266  133.3655  151.8142 C   0  0  0  0  0  0  0  0  0  0  0  0
  144.8307  134.7581  151.6218 C   0  0  0  0  0  0  0  0  0  0  0  0
  145.2112  135.5605  152.7469 N   0  0  0  0  0  0  0  0  0  0  0  0
  145.1250  135.2109  154.0755 C   0  0  0  0  0  0  0  0  0  0  0  0
  145.5805  136.0997  154.9154 N   0  0  0  0  0  0  0  0  0  0  0  0
  146.0459  137.1282  154.1040 C   0  0  0  0  0  0  0  0  0  0  0  0
  146.6740  138.3816  154.3533 C   0  0  0  0  0  0  0  0  0  0  0  0
  146.9224  138.8421  155.6062 N   0  0  0  0  0  0  0  0  0  0  0  0
  146.2904  138.1511  156.7278 C   0  0  0  0  0  0  0  0  0  0  0  0
  146.4588  138.9707  158.0172 C   0  0  0  0  0  0  0  0  0  0  0  0
  147.8408  139.2253  158.2470 O   0  0  0  0  0  0  0  0  0  0  0  0
  148.4368  139.9698  157.1875 C   0  0  1  0  0  0  0  0  0  0  0  0
  149.8895  140.2923  157.5639 C   0  0  0  0  0  0  0  0  0  0  0  0
  150.1700  141.6537  157.2800 O   0  0  0  0  0  0  0  0  0  0  0  0
  151.3133  142.1329  157.9650 C   0  0  0  0  0  0  0  0  0  0  0  0
  151.2438  143.6432  158.0381 C   0  0  0  0  0  0  0  0  0  0  0  0
  152.5059  144.4720  158.1157 C   0  0  0  0  0  0  0  0  0  0  0  0
  151.6042  144.3615  159.3186 C   0  0  0  0  0  0  0  0  0  0  0  0
  148.3162  139.1910  155.8625 C   0  0  0  0  0  0  0  0  0  0  0  0
  147.0314  139.1257  153.2719 N   0  0  0  0  0  0  0  0  0  0  0  0
  146.7850  138.6844  152.0352 C   0  0  0  0  0  0  0  0  0  0  0  0
  146.1997  137.5469  151.6571 N   0  0  0  0  0  0  0  0  0  0  0  0
  145.8417  136.7925  152.7353 C   0  0  0  0  0  0  0  0  0  0  0  0
  145.8807  134.0665  150.7489 C   0  0  0  0  0  0  0  0  0  0  0  0
  147.2656  130.9331  151.1652 H   0  0  0  0  0  0  0  0  0  0  0  0
  145.9456  131.2167  149.5749 H   0  0  0  0  0  0  0  0  0  0  0  0
  144.7730  130.7428  150.7751 H   0  0  0  0  0  0  0  0  0  0  0  0
  143.6737  134.0544  149.1049 H   0  0  0  0  0  0  0  0  0  0  0  0
  144.5951  132.7923  148.3355 H   0  0  0  0  0  0  0  0  0  0  0  0
  142.1283  132.7259  149.4248 H   0  0  0  0  0  0  0  0  0  0  0  0
  143.1363  133.3451  151.8102 H   0  0  0  0  0  0  0  0  0  0  0  0
  144.6204  132.8612  152.6988 H   0  0  0  0  0  0  0  0  0  0  0  0
  144.1732  135.3829  151.0150 H   0  0  0  0  0  0  0  0  0  0  0  0
  144.7058  134.2718  154.4068 H   0  0  0  0  0  0  0  0  0  0  0  0
  145.2291  137.9997  156.5265 H   0  0  0  0  0  0  0  0  0  0  0  0
  146.7438  137.1666  156.8522 H   0  0  0  0  0  0  0  0  0  0  0  0
  145.9098  139.9117  157.9545 H   0  0  0  0  0  0  0  0  0  0  0  0
  146.0526  138.4216  158.8668 H   0  0  0  0  0  0  0  0  0  0  0  0
  147.9002  140.9157  157.0939 H   0  0  0  0  0  0  0  0  0  0  0  0
  150.0422  140.1021  158.6276 H   0  0  0  0  0  0  0  0  0  0  0  0
  150.5719  139.6412  157.0153 H   0  0  0  0  0  0  0  0  0  0  0  0
  151.3450  141.7310  158.9787 H   0  0  0  0  0  0  0  0  0  0  0  0
  152.2267  141.8273  157.4522 H   0  0  0  0  0  0  0  0  0  0  0  0
  150.4180  144.0732  157.4743 H   0  0  0  0  0  0  0  0  0  0  0  0
  153.4577  143.9455  158.1513 H   0  0  0  0  0  0  0  0  0  0  0  0
  152.5172  145.4184  157.5790 H   0  0  0  0  0  0  0  0  0  0  0  0
  151.0144  145.2356  159.5870 H   0  0  0  0  0  0  0  0  0  0  0  0
  151.9565  143.7619  160.1557 H   0  0  0  0  0  0  0  0  0  0  0  0
  148.9002  138.2707  155.9085 H   0  0  0  0  0  0  0  0  0  0  0  0
  148.7337  139.7886  155.0533 H   0  0  0  0  0  0  0  0  0  0  0  0
  147.1002  139.3377  151.2349 H   0  0  0  0  0  0  0  0  0  0  0  0
  146.7629  133.7637  151.3165 H   0  0  0  0  0  0  0  0  0  0  0  0
  146.1639  134.6241  149.8557 H   0  0  0  0  0  0  0  0  0  0  0  0
  1  2  1  0  0  0  0
  1 30  1  0  0  0  0
  2  3  1  0  0  0  0
  2 31  1  0  0  0  0
  2 32  1  0  0  0  0
  3 29  1  0  0  0  0
  3  4  1  0  0  0  0
  3  6  1  0  0  0  0
  4  5  1  0  0  0  0
  4 33  1  0  0  0  0
  4 34  1  0  0  0  0
  5 35  1  0  0  0  0
  6  7  1  0  0  0  0
  6 36  1  0  0  0  0
  6 37  1  0  0  0  0
  7  8  1  0  0  0  0
  7 29  1  0  0  0  0
  7 38  1  0  0  0  0
  8 28  1  0  0  0  0
  8  9  1  0  0  0  0
  9 10  2  0  0  0  0
  9 39  1  0  0  0  0
 10 11  1  0  0  0  0
 11 28  2  0  0  0  0
 11 12  1  0  0  0  0
 12 13  1  0  0  0  0
 12 25  2  0  0  0  0
 13 24  1  0  0  0  0
 13 14  1  0  0  0  0
 14 15  1  0  0  0  0
 14 40  1  0  0  0  0
 14 41  1  0  0  0  0
 15 16  1  0  0  0  0
 15 42  1  0  0  0  0
 15 43  1  0  0  0  0
 16 17  1  0  0  0  0
 17 18  1  0  0  0  0
 17 24  1  0  0  0  0
 17 44  1  0  0  0  0
 18 19  1  0  0  0  0
 18 45  1  0  0  0  0
 18 46  1  0  0  0  0
 19 20  1  0  0  0  0
 20 21  1  0  0  0  0
 20 47  1  0  0  0  0
 20 48  1  0  0  0  0
 21 23  1  0  0  0  0
 21 22  1  0  0  0  0
 21 49  1  0  0  0  0
 22 23  1  0  0  0  0
 22 50  1  0  0  0  0
 22 51  1  0  0  0  0
 23 52  1  0  0  0  0
 23 53  1  0  0  0  0
 24 54  1  0  0  0  0
 24 55  1  0  0  0  0
 25 26  1  0  0  0  0
 26 27  2  0  0  0  0
 26 56  1  0  0  0  0
 27 28  1  0  0  0  0
 29 57  1  0  0  0  0
 29 58  1  0  0  0  0
M  END
> <s_m_source_file>
AV-unprocessed.smi

> <i_m_source_file_index>
74

> <i_lp_mmshare_version>
43012

> <i_f3d_flags>
0

> <s_epik_input>
W09IXVtDSDJdQzEoW0NIMl1bT0hdKVtDSDJdW0NIXShbQ0gyXTEpbihbY0hdbjIpYyhjMjMpbltjSF1uYzNONFtDSDJdW0NIMl1PW0NASF0oW0NIMl00KVtDSDJdT1tDSDJdW0NIXTVbQ0gyXVtDSDJdNQ==

> <s_epik_cmdline>
J2VwaWtfcHl0aG9uJywgJy1waCcsICc3LjAnLCAnLXRuJywgJzgnLCAnLW1hJywgJzIwMCcsICctbWV0YWxfYmluZGluZycsICctaW1hZScsICc8aW5maWxlLm1hZT4nLCAnLW9tYWUnLCAnPG91dGZpbGUubWFlPic=

> <r_lp_tautomer_probability>
1

> <r_epik_Ionization_Penalty>
5.89322e-05

> <r_epik_Ionization_Penalty_Charging>
0

> <r_epik_Ionization_Penalty_Neutral>
5.89322e-05

> <r_epik_State_Penalty>
-0

> <r_epik_Charging_Adjusted_Penalty>
0

> <i_epik_Tot_Q>
0

> <i_epik_Tot_abs_Q>
0

> <r_epik_Metal_State_Penalty>
-0

> <b_epik_Metal_Only>
0

> <s_lp_Force_Field>
OPLS_2005

> <r_lp_Energy>
49.0423

> <b_lp_Chiralities_Consistent>
1

> <s_lp_Variant>
AV-unprocessed.smi:74-1

> <Gold.Version>
5.8.1

> <Gold.Id.Protein>
6NUR|6NUR_protein|mol2

> <Gold.PLP.Fitness>
53.0208

> <Gold.PLP.PLP>
-44.6061

> <Gold.PLP.part.hbond>
-4.7470

> <Gold.PLP.part.metal>
0.0000

> <Gold.PLP.part.buried>
-7.3071

> <Gold.PLP.part.nonpolar>
-34.1918

> <Gold.PLP.part.repulsive>
1.3896

> <Gold.PLP.ligand.clash>
0.0000

> <Gold.PLP.ligand.torsion>
1.8623

> <Gold.PLP.Chemscore.Hbond>
2.7550

> <Gold.PLP.Chemscore.CHOScore>
0.7451

> <Gold.PLP.Chemscore.Metal>
0.0000

> <Gold.Chemscore.Hbonds>
donor molecule, donor type, donor heavy atom, donor atom, acceptor molecule, acceptor atom, score
      L1  H     1    30       P1 10747  1.00
      L1  H     5    35       P1 10186  1.00
      P1  H 10785 10796       L1     5  0.71
      L1  C    26    56       P1  7957  0.73

> <Gold.PLP.Chemscore.Internal.Correction>
1.6392

> <Gold.Rescore>
     Score         DG    S(hbond)    S(metal)    S(lipo)     H(rot)  DE(clash)    DE(int)     intcor
     12.26     -16.22       2.64        0.00     103.14       3.97       0.86       3.10       ----

> <Gold.Chemscore.Fitness>
12.2604

> <Gold.Chemscore.DG>
-16.2203

> <Gold.Chemscore.ZeroCoef>
-5.4800

> <Gold.Chemscore.Hbond>
2.6426

> <Gold.Chemscore.Metal>
0.0000

> <Gold.Chemscore.Lipo>
103.1363

> <Gold.Chemscore.Internal_Hbond>
0.0000

> <Gold.Chemscore.DEClash>
0.8581

> <Gold.Chemscore.DEInternal>
3.1018

> <Gold.Chemscore.Rot>
3.9660

> <Gold.Chemscore.Internal.Correction>
   9.000000E+99

> <Gold.Chemscore.Hbonds>
donor molecule, donor type, donor heavy atom, donor atom, acceptor molecule, acceptor atom, score
      L1  H     1    30       P1 10747  0.96
      L1  H     5    35       P1 10186  0.93
      P1  H 10785 10796       L1     5  0.69

> <Gold.Chemscore.Hbond.Weighted>
-8.8262

> <Gold.Chemscore.Metal.Weighted>
-0.0000

> <Gold.Chemscore.Lipo.Weighted>
-12.0669

> <Gold.Chemscore.Internal_Hbond.Weighted>
0.0000

> <Gold.Chemscore.DEClash.Weighted>
0.8581

> <Gold.Chemscore.DEInternal.Weighted>
3.1018

> <Gold.Chemscore.Rot.Weighted>
10.1529

> <Gold.Chemscore.Internal.Correction.Weighted>
   9.000000E+99

> <Gold.Protein.RotatedTorsions>
[ 6907 6896 6895 6894 ] final -148.73 input  -60.11 | X-H torsion
[ 7974 7965 7964 7962 ] final   54.82 input  175.53 | X-H torsion
[ 8008 7997 7996 7995 ] final  -84.74 input   59.86 | X-H torsion
[ 10167 10162 10161 10158 ] final -109.20 input  -65.29 | X-H torsion
[ 10718 10713 10712 10709 ] final    3.80 input   66.30 | X-H torsion
[ 10763 10752 10751 10750 ] final    7.45 input  -60.55 | X-H torsion
[ 11005 11000 10999 10996 ] final -144.87 input  -57.11 | X-H torsion

> <Gold.Protein.ActiveResidues>
 VAL166  LYS551  ARG553  GLY616  TRP617  ASP618  TYR619  PRO620  LYS621  CYS622 
 ASP623  PHE694  ASN695  SER759  ASP760  ASP761  ALA762  ILE779  LEU786  VAL792 
 PHE793  MET794  SER795  GLU796  ALA797  LYS798  CYS799  TRP800  GLU811  SER814 

> <Gold.Protein.RotatedAtoms>
  151.1740  133.4766  159.2593 H   0  0  0  0  0  0  0  0  0  0  0  0  # atno 6907 bound_to 6896
  151.1326  135.0138  159.8599 H   0  0  0  0  0  0  0  0  0  0  0  0  # atno 6908 bound_to 6896
  152.5460  134.1642  159.8623 H   0  0  0  0  0  0  0  0  0  0  0  0  # atno 6909 bound_to 6896
  145.9568  139.4022  143.0272 H   0  0  0  0  0  0  0  0  0  0  0  0  # atno 7974 bound_to 7965
  154.6330  140.0601  156.9755 H   0  0  0  0  0  0  0  0  0  0  0  0  # atno 8008 bound_to 7997
  155.1635  140.3284  155.4388 H   0  0  0  0  0  0  0  0  0  0  0  0  # atno 8009 bound_to 7997
  156.2493  140.1926  156.6741 H   0  0  0  0  0  0  0  0  0  0  0  0  # atno 8010 bound_to 7997
  140.1579  143.4145  152.1447 H   0  0  0  0  0  0  0  0  0  0  0  0  # atno 10167 bound_to 10162
  156.8832  130.5661  149.5652 H   0  0  0  0  0  0  0  0  0  0  0  0  # atno 10718 bound_to 10713
  153.2362  135.6898  153.7834 H   0  0  0  0  0  0  0  0  0  0  0  0  # atno 10763 bound_to 10752
  153.6980  135.3302  155.3219 H   0  0  0  0  0  0  0  0  0  0  0  0  # atno 10764 bound_to 10752
  154.8336  135.4561  154.1266 H   0  0  0  0  0  0  0  0  0  0  0  0  # atno 10765 bound_to 10752
  140.7981  134.2889  157.4989 H   0  0  0  0  0  0  0  0  0  0  0  0  # atno 11005 bound_to 11000
  145.8095  140.9733  143.0956 LP  0  0  0  0  0  0  0  0  0  0  0  0  # atno 17320 bound_to 7965
  144.6807  139.9902  143.7484 LP  0  0  0  0  0  0  0  0  0  0  0  0  # atno 17321 bound_to 7965
  139.5395  144.7242  151.4781 LP  0  0  0  0  0  0  0  0  0  0  0  0  # atno 17342 bound_to 10162
  140.6662  143.8394  150.6944 LP  0  0  0  0  0  0  0  0  0  0  0  0  # atno 17343 bound_to 10162
  156.0666  130.5708  150.9302 LP  0  0  0  0  0  0  0  0  0  0  0  0  # atno 17370 bound_to 10713
  157.6128  131.0935  150.8764 LP  0  0  0  0  0  0  0  0  0  0  0  0  # atno 17371 bound_to 10713
  139.8724  134.9413  156.3794 LP  0  0  0  0  0  0  0  0  0  0  0  0  # atno 17394 bound_to 11000
  140.9322  133.7571  156.0040 LP  0  0  0  0  0  0  0  0  0  0  0  0  # atno 17395 bound_to 11000

$$$$
