AV-unprocessed.smi:239|AV-procd|sdf|1823|dock8
  -GOLD-   2262020423D 1   1.00000     0.00000
 Structure written by MMmdl.
 54 58  0  0  0  0  0  0  0  0  1 V2000
  148.8467  140.8734  154.1763 C   0  0  0  0  0  0  0  0  0  0  0  0
  149.6569  139.9298  155.0706 C   0  0  1  0  0  0  0  0  0  0  0  0
  149.5572  138.4672  154.6024 C   0  0  0  0  0  0  0  0  0  0  0  0
  150.4339  137.6268  155.4106 N   0  0  0  0  0  0  0  0  0  0  0  0
  150.2662  136.2823  155.3597 C   0  0  0  0  0  0  0  0  0  0  0  0
  151.3033  135.4545  155.6573 N   0  0  0  0  0  0  0  0  0  0  0  0
  151.1412  134.1286  155.6157 C   0  0  0  0  0  0  0  0  0  0  0  0
  150.0479  133.4310  155.3017 N   0  0  0  0  0  0  0  0  0  0  0  0
  149.0073  134.2560  154.9911 C   0  0  0  0  0  0  0  0  0  0  0  0
  149.0292  135.6792  154.9969 C   0  0  0  0  0  0  0  0  0  0  0  0
  147.7870  136.1730  154.6158 N   0  0  0  0  0  0  0  0  0  0  0  0
  147.0712  135.1032  154.4005 C   0  0  0  0  0  0  0  0  0  0  0  0
  147.7277  133.9089  154.5944 N   0  0  0  0  0  0  0  0  0  0  0  0
  147.1762  132.5744  154.4158 C   0  0  0  0  0  0  0  0  0  0  0  0
  147.0163  132.1564  152.9330 C   0  0  0  0  0  0  0  0  0  0  0  0
  148.3121  132.0949  152.3613 O   0  0  0  0  0  0  0  0  0  0  0  0
  146.3440  130.7747  152.7744 C   0  0  0  0  0  0  0  0  0  0  0  0
  146.0011  130.4602  151.3076 C   0  0  0  0  0  0  0  0  0  0  0  0
  145.1980  131.4981  150.7590 O   0  0  0  0  0  0  0  0  0  0  0  0
  145.8662  132.7533  150.7292 C   0  0  0  0  0  0  0  0  0  0  0  0
  146.1948  133.2092  152.1621 C   0  0  0  0  0  0  0  0  0  0  0  0
  151.8211  138.0766  155.4093 C   0  0  0  0  0  0  0  0  0  0  0  0
  151.9108  139.5558  155.8270 C   0  0  2  0  0  0  0  0  0  0  0  0
  151.6933  139.7627  157.3193 C   0  0  0  0  0  0  0  0  0  0  0  0
  152.1745  141.0214  158.0003 C   0  0  0  0  0  0  0  0  0  0  0  0
  152.8521  139.7021  158.2865 C   0  0  0  0  0  0  0  0  0  0  0  0
  151.0214  140.3491  155.0374 O   0  0  0  0  0  0  0  0  0  0  0  0
  147.7904  140.6033  154.1763 H   0  0  0  0  0  0  0  0  0  0  0  0
  149.2012  140.8407  153.1457 H   0  0  0  0  0  0  0  0  0  0  0  0
  148.9263  141.9036  154.5243 H   0  0  0  0  0  0  0  0  0  0  0  0
  149.2732  140.0142  156.0877 H   0  0  0  0  0  0  0  0  0  0  0  0
  148.5249  138.1242  154.6865 H   0  0  0  0  0  0  0  0  0  0  0  0
  149.8443  138.3856  153.5529 H   0  0  0  0  0  0  0  0  0  0  0  0
  152.0125  133.5430  155.8692 H   0  0  0  0  0  0  0  0  0  0  0  0
  146.0400  135.1550  154.0828 H   0  0  0  0  0  0  0  0  0  0  0  0
  147.8251  131.8683  154.9356 H   0  0  0  0  0  0  0  0  0  0  0  0
  146.2132  132.5328  154.9268 H   0  0  0  0  0  0  0  0  0  0  0  0
  148.2635  131.5971  151.5594 H   0  0  0  0  0  0  0  0  0  0  0  0
  146.9762  129.9834  153.1790 H   0  0  0  0  0  0  0  0  0  0  0  0
  145.4209  130.7568  153.3553 H   0  0  0  0  0  0  0  0  0  0  0  0
  146.9058  130.3304  150.7115 H   0  0  0  0  0  0  0  0  0  0  0  0
  145.4493  129.5219  151.2492 H   0  0  0  0  0  0  0  0  0  0  0  0
  146.7689  132.6835  150.1203 H   0  0  0  0  0  0  0  0  0  0  0  0
  145.2169  133.4840  150.2466 H   0  0  0  0  0  0  0  0  0  0  0  0
  145.2567  133.3904  152.6885 H   0  0  0  0  0  0  0  0  0  0  0  0
  146.7207  134.1646  152.1398 H   0  0  0  0  0  0  0  0  0  0  0  0
  152.4464  137.4700  156.0640 H   0  0  0  0  0  0  0  0  0  0  0  0
  152.2183  137.9570  154.4006 H   0  0  0  0  0  0  0  0  0  0  0  0
  152.9172  139.9072  155.5960 H   0  0  0  0  0  0  0  0  0  0  0  0
  150.7557  139.3561  157.6935 H   0  0  0  0  0  0  0  0  0  0  0  0
  152.7182  141.7463  157.3977 H   0  0  0  0  0  0  0  0  0  0  0  0
  151.5426  141.4427  158.7794 H   0  0  0  0  0  0  0  0  0  0  0  0
  152.6713  139.2430  159.2563 H   0  0  0  0  0  0  0  0  0  0  0  0
  153.8492  139.5509  157.8779 H   0  0  0  0  0  0  0  0  0  0  0  0
  1  2  1  0  0  0  0
  1 28  1  0  0  0  0
  1 29  1  0  0  0  0
  1 30  1  0  0  0  0
  2 27  1  0  0  0  0
  2  3  1  0  0  0  0
  2 31  1  0  0  0  0
  3  4  1  0  0  0  0
  3 32  1  0  0  0  0
  3 33  1  0  0  0  0
  4  5  1  0  0  0  0
  4 22  1  0  0  0  0
  5 10  1  0  0  0  0
  5  6  2  0  0  0  0
  6  7  1  0  0  0  0
  7  8  2  0  0  0  0
  7 34  1  0  0  0  0
  8  9  1  0  0  0  0
  9 13  1  0  0  0  0
  9 10  2  0  0  0  0
 10 11  1  0  0  0  0
 11 12  2  0  0  0  0
 12 13  1  0  0  0  0
 12 35  1  0  0  0  0
 13 14  1  0  0  0  0
 14 15  1  0  0  0  0
 14 36  1  0  0  0  0
 14 37  1  0  0  0  0
 15 21  1  0  0  0  0
 15 16  1  0  0  0  0
 15 17  1  0  0  0  0
 16 38  1  0  0  0  0
 17 18  1  0  0  0  0
 17 39  1  0  0  0  0
 17 40  1  0  0  0  0
 18 19  1  0  0  0  0
 18 41  1  0  0  0  0
 18 42  1  0  0  0  0
 19 20  1  0  0  0  0
 20 21  1  0  0  0  0
 20 43  1  0  0  0  0
 20 44  1  0  0  0  0
 21 45  1  0  0  0  0
 21 46  1  0  0  0  0
 22 23  1  0  0  0  0
 22 47  1  0  0  0  0
 22 48  1  0  0  0  0
 23 24  1  0  0  0  0
 23 27  1  0  0  0  0
 23 49  1  0  0  0  0
 24 26  1  0  0  0  0
 24 25  1  0  0  0  0
 24 50  1  0  0  0  0
 25 26  1  0  0  0  0
 25 51  1  0  0  0  0
 25 52  1  0  0  0  0
 26 53  1  0  0  0  0
 26 54  1  0  0  0  0
M  END
> <s_m_source_file>
AV-unprocessed.smi

> <i_m_source_file_index>
239

> <i_lp_mmshare_version>
43012

> <i_f3d_flags>
0

> <s_epik_input>
W0NIMl0xW0NIMl1bQ0hdMVtDQEBIXShPMilbQ0gyXU4oW0NIMl1bQ0BIXTJbQ0gzXSljKG5bY0hdbjMpYyhjMzQpbltjSF1uNFtDSDJdQzUoW09IXSlbQ0gyXVtDSDJdT1tDSDJdW0NIMl01

> <s_epik_cmdline>
J2VwaWtfcHl0aG9uJywgJy1waCcsICc3LjAnLCAnLXRuJywgJzgnLCAnLW1hJywgJzIwMCcsICctbWV0YWxfYmluZGluZycsICctaW1hZScsICc8aW5maWxlLm1hZT4nLCAnLW9tYWUnLCAnPG91dGZpbGUubWFlPic=

> <r_lp_tautomer_probability>
1

> <r_epik_Ionization_Penalty>
9.13091e-05

> <r_epik_Ionization_Penalty_Charging>
0

> <r_epik_Ionization_Penalty_Neutral>
9.13091e-05

> <r_epik_State_Penalty>
-0

> <r_epik_Charging_Adjusted_Penalty>
0

> <i_epik_Tot_Q>
0

> <i_epik_Tot_abs_Q>
0

> <r_epik_Metal_State_Penalty>
-0

> <b_epik_Metal_Only>
0

> <s_lp_Force_Field>
OPLS_2005

> <r_lp_Energy>
39.3472

> <b_lp_Chiralities_Consistent>
1

> <s_lp_Variant>
AV-unprocessed.smi:239-4

> <Gold.Version>
5.8.1

> <Gold.Id.Protein>
6NUR|6NUR_protein|mol2

> <Gold.PLP.Fitness>
44.4544

> <Gold.PLP.PLP>
-36.8674

> <Gold.PLP.part.hbond>
-3.0000

> <Gold.PLP.part.metal>
0.0000

> <Gold.PLP.part.buried>
-5.6169

> <Gold.PLP.part.nonpolar>
-28.3919

> <Gold.PLP.part.repulsive>
1.2185

> <Gold.PLP.ligand.clash>
0.0000

> <Gold.PLP.ligand.torsion>
1.3253

> <Gold.PLP.Chemscore.Hbond>
2.9420

> <Gold.PLP.Chemscore.CHOScore>
0.0000

> <Gold.PLP.Chemscore.Metal>
0.0000

> <Gold.Chemscore.Hbonds>
donor molecule, donor type, donor heavy atom, donor atom, acceptor molecule, acceptor atom, score
      L1  H    16    38       P1 10747  1.00
      P1  H  7989  7998       L1    27  1.00
      P1  H 10752 10763       L1     6  0.85

> <Gold.PLP.Chemscore.Internal.Correction>
1.4117

> <Gold.Rescore>
     Score         DG    S(hbond)    S(metal)    S(lipo)     H(rot)  DE(clash)    DE(int)     intcor
     14.66     -17.38       2.11        0.00      90.50       2.24       0.05       2.67       ----

> <Gold.Chemscore.Fitness>
14.6619

> <Gold.Chemscore.DG>
-17.3804

> <Gold.Chemscore.ZeroCoef>
-5.4800

> <Gold.Chemscore.Hbond>
2.1087

> <Gold.Chemscore.Metal>
0.0000

> <Gold.Chemscore.Lipo>
90.4992

> <Gold.Chemscore.Internal_Hbond>
0.0000

> <Gold.Chemscore.DEClash>
0.0498

> <Gold.Chemscore.DEInternal>
2.6687

> <Gold.Chemscore.Rot>
2.2387

> <Gold.Chemscore.Internal.Correction>
   9.000000E+99

> <Gold.Chemscore.Hbonds>
donor molecule, donor type, donor heavy atom, donor atom, acceptor molecule, acceptor atom, score
      L1  H    16    38       P1 10747  0.94
      P1  H  7989  7998       L1    27  0.86
      P1  H 10752 10763       L1     6  0.15

> <Gold.Chemscore.Hbond.Weighted>
-7.0431

> <Gold.Chemscore.Metal.Weighted>
-0.0000

> <Gold.Chemscore.Lipo.Weighted>
-10.5884

> <Gold.Chemscore.Internal_Hbond.Weighted>
0.0000

> <Gold.Chemscore.DEClash.Weighted>
0.0498

> <Gold.Chemscore.DEInternal.Weighted>
2.6687

> <Gold.Chemscore.Rot.Weighted>
5.7311

> <Gold.Chemscore.Internal.Correction.Weighted>
   9.000000E+99

> <Gold.Protein.RotatedTorsions>
[ 6907 6896 6895 6894 ] final  -20.57 input  -60.11 | X-H torsion
[ 7974 7965 7964 7962 ] final  -94.42 input  175.53 | X-H torsion
[ 8008 7997 7996 7995 ] final   77.16 input   59.86 | X-H torsion
[ 10167 10162 10161 10158 ] final  111.03 input  -65.29 | X-H torsion
[ 10718 10713 10712 10709 ] final   -9.31 input   66.30 | X-H torsion
[ 10763 10752 10751 10750 ] final   76.32 input  -60.55 | X-H torsion
[ 11005 11000 10999 10996 ] final   89.05 input  -57.11 | X-H torsion

> <Gold.Protein.ActiveResidues>
 VAL166  LYS551  ARG553  GLY616  TRP617  ASP618  TYR619  PRO620  LYS621  CYS622 
 ASP623  PHE694  ASN695  SER759  ASP760  ASP761  ALA762  ILE779  LEU786  VAL792 
 PHE793  MET794  SER795  GLU796  ALA797  LYS798  CYS799  TRP800  GLU811  SER814 

> <Gold.Protein.RotatedAtoms>
  151.2462  135.0606  159.9044 H   0  0  0  0  0  0  0  0  0  0  0  0  # atno 6907 bound_to 6896
  152.5386  134.0381  159.8065 H   0  0  0  0  0  0  0  0  0  0  0  0  # atno 6908 bound_to 6896
  151.0582  133.5517  159.2668 H   0  0  0  0  0  0  0  0  0  0  0  0  # atno 6909 bound_to 6896
  145.3735  140.9508  143.2434 H   0  0  0  0  0  0  0  0  0  0  0  0  # atno 7974 bound_to 7965
  155.8376  140.3463  155.5612 H   0  0  0  0  0  0  0  0  0  0  0  0  # atno 8008 bound_to 7997
  155.8175  140.0908  157.1888 H   0  0  0  0  0  0  0  0  0  0  0  0  # atno 8009 bound_to 7997
  154.4004  140.1436  156.3447 H   0  0  0  0  0  0  0  0  0  0  0  0  # atno 8010 bound_to 7997
  139.6642  144.7128  151.1807 H   0  0  0  0  0  0  0  0  0  0  0  0  # atno 10167 bound_to 10162
  156.6899  130.5062  149.5946 H   0  0  0  0  0  0  0  0  0  0  0  0  # atno 10718 bound_to 10713
  153.0717  135.4956  154.8318 H   0  0  0  0  0  0  0  0  0  0  0  0  # atno 10763 bound_to 10752
  154.7031  135.3005  154.9313 H   0  0  0  0  0  0  0  0  0  0  0  0  # atno 10764 bound_to 10752
  154.0031  135.6764  153.4813 H   0  0  0  0  0  0  0  0  0  0  0  0  # atno 10765 bound_to 10752
  139.8883  134.8527  156.3087 H   0  0  0  0  0  0  0  0  0  0  0  0  # atno 11005 bound_to 11000
  144.8559  139.5250  143.6835 LP  0  0  0  0  0  0  0  0  0  0  0  0  # atno 17320 bound_to 7965
  146.2874  139.7044  142.9185 LP  0  0  0  0  0  0  0  0  0  0  0  0  # atno 17321 bound_to 7965
  140.7593  143.5945  150.8762 LP  0  0  0  0  0  0  0  0  0  0  0  0  # atno 17342 bound_to 10162
  139.9605  143.6169  152.3003 LP  0  0  0  0  0  0  0  0  0  0  0  0  # atno 17343 bound_to 10162
  156.1805  130.6496  151.0945 LP  0  0  0  0  0  0  0  0  0  0  0  0  # atno 17370 bound_to 10713
  157.7012  131.0775  150.6813 LP  0  0  0  0  0  0  0  0  0  0  0  0  # atno 17371 bound_to 10713
  140.9865  133.7235  156.0749 LP  0  0  0  0  0  0  0  0  0  0  0  0  # atno 17394 bound_to 11000
  140.7682  134.3863  157.5513 LP  0  0  0  0  0  0  0  0  0  0  0  0  # atno 17395 bound_to 11000

$$$$
