AV-unprocessed.smi:167|AV-procd|sdf|1392|dock6
  -GOLD-   2262019133D 1   1.00000     0.00000
 Structure written by MMmdl.
 51 55  0  0  0  0  0  0  0  0  1 V2000
  148.4266  128.5990  158.6364 O   0  0  0  0  0  0  0  0  0  0  0  0
  149.6215  129.3514  158.6308 C   0  0  0  0  0  0  0  0  0  0  0  0
  150.4196  129.0789  157.3425 C   0  0  2  0  0  0  0  0  0  0  0  0
  151.6476  129.9985  157.1921 C   0  0  0  0  0  0  0  0  0  0  0  0
  151.3720  130.6725  155.8375 C   0  0  1  0  0  0  0  0  0  0  0  0
  151.5996  129.6513  154.7054 C   0  0  0  0  0  0  0  0  0  0  0  0
  150.3574  128.7584  154.8540 C   0  0  0  0  0  0  0  0  0  0  0  0
  149.6465  129.4263  156.0511 C   0  0  2  0  0  0  0  0  0  0  0  0
  149.9287  130.8456  155.8711 N   0  0  0  0  0  0  0  0  0  0  0  0
  149.2829  131.5524  154.9015 C   0  0  0  0  0  0  0  0  0  0  0  0
  149.6483  132.8457  154.6929 N   0  0  0  0  0  0  0  0  0  0  0  0
  149.0483  133.5805  153.7531 C   0  0  0  0  0  0  0  0  0  0  0  0
  148.0736  133.2268  152.9153 N   0  0  0  0  0  0  0  0  0  0  0  0
  147.7072  131.9276  153.1055 C   0  0  0  0  0  0  0  0  0  0  0  0
  148.2603  131.0231  154.0585 C   0  0  0  0  0  0  0  0  0  0  0  0
  147.6499  129.7807  153.9239 N   0  0  0  0  0  0  0  0  0  0  0  0
  146.7858  129.9438  152.9604 C   0  0  0  0  0  0  0  0  0  0  0  0
  146.7330  131.2123  152.4314 N   0  0  0  0  0  0  0  0  0  0  0  0
  145.9090  131.6606  151.3474 C   0  0  0  0  0  0  0  0  0  0  0  0
  146.2014  132.9830  150.6321 C   0  0  0  0  0  0  0  0  0  0  0  0
  144.6856  133.1748  150.3925 C   0  0  0  0  0  0  0  0  0  0  0  0
  144.1163  134.5982  150.5561 C   0  0  0  0  0  0  0  0  0  0  0  0
  144.5893  135.4894  149.5660 O   0  0  0  0  0  0  0  0  0  0  0  0
  144.1525  132.6226  149.0567 C   0  0  0  0  0  0  0  0  0  0  0  0
  142.8356  132.1266  149.1881 O   0  0  0  0  0  0  0  0  0  0  0  0
  144.5012  132.2153  151.5911 C   0  0  0  0  0  0  0  0  0  0  0  0
  148.6373  127.6982  158.4430 H   0  0  0  0  0  0  0  0  0  0  0  0
  149.3824  130.4109  158.7295 H   0  0  0  0  0  0  0  0  0  0  0  0
  150.2086  129.0694  159.5053 H   0  0  0  0  0  0  0  0  0  0  0  0
  150.7295  128.0327  157.3388 H   0  0  0  0  0  0  0  0  0  0  0  0
  151.6848  130.7453  157.9866 H   0  0  0  0  0  0  0  0  0  0  0  0
  152.5904  129.4505  157.2052 H   0  0  0  0  0  0  0  0  0  0  0  0
  151.9569  131.5826  155.7213 H   0  0  0  0  0  0  0  0  0  0  0  0
  151.6075  130.1410  153.7306 H   0  0  0  0  0  0  0  0  0  0  0  0
  152.5351  129.1019  154.8166 H   0  0  0  0  0  0  0  0  0  0  0  0
  149.7419  128.8047  153.9547 H   0  0  0  0  0  0  0  0  0  0  0  0
  150.6051  127.7123  155.0367 H   0  0  0  0  0  0  0  0  0  0  0  0
  148.5881  129.1703  156.1138 H   0  0  0  0  0  0  0  0  0  0  0  0
  149.3991  134.5977  153.6599 H   0  0  0  0  0  0  0  0  0  0  0  0
  146.1566  129.1372  152.6129 H   0  0  0  0  0  0  0  0  0  0  0  0
  145.8802  130.8362  150.6331 H   0  0  0  0  0  0  0  0  0  0  0  0
  146.6365  133.7259  151.3027 H   0  0  0  0  0  0  0  0  0  0  0  0
  146.8050  132.8792  149.7300 H   0  0  0  0  0  0  0  0  0  0  0  0
  143.0276  134.5955  150.4994 H   0  0  0  0  0  0  0  0  0  0  0  0
  144.3792  135.0115  151.5304 H   0  0  0  0  0  0  0  0  0  0  0  0
  145.1673  135.0158  148.9874 H   0  0  0  0  0  0  0  0  0  0  0  0
  144.1429  133.3914  148.2839 H   0  0  0  0  0  0  0  0  0  0  0  0
  144.7911  131.8225  148.6806 H   0  0  0  0  0  0  0  0  0  0  0  0
  142.2412  132.8605  149.2249 H   0  0  0  0  0  0  0  0  0  0  0  0
  143.7033  131.4817  151.4728 H   0  0  0  0  0  0  0  0  0  0  0  0
  144.4176  132.7247  152.5522 H   0  0  0  0  0  0  0  0  0  0  0  0
  1  2  1  0  0  0  0
  1 27  1  0  0  0  0
  2  3  1  0  0  0  0
  2 28  1  0  0  0  0
  2 29  1  0  0  0  0
  3  8  1  0  0  0  0
  3  4  1  0  0  0  0
  3 30  1  0  0  0  0
  4  5  1  0  0  0  0
  4 31  1  0  0  0  0
  4 32  1  0  0  0  0
  5  9  1  0  0  0  0
  5  6  1  0  0  0  0
  5 33  1  0  0  0  0
  6  7  1  0  0  0  0
  6 34  1  0  0  0  0
  6 35  1  0  0  0  0
  7  8  1  0  0  0  0
  7 36  1  0  0  0  0
  7 37  1  0  0  0  0
  8  9  1  0  0  0  0
  8 38  1  0  0  0  0
  9 10  1  0  0  0  0
 10 15  1  0  0  0  0
 10 11  2  0  0  0  0
 11 12  1  0  0  0  0
 12 13  2  0  0  0  0
 12 39  1  0  0  0  0
 13 14  1  0  0  0  0
 14 18  1  0  0  0  0
 14 15  2  0  0  0  0
 15 16  1  0  0  0  0
 16 17  2  0  0  0  0
 17 18  1  0  0  0  0
 17 40  1  0  0  0  0
 18 19  1  0  0  0  0
 19 26  1  0  0  0  0
 19 20  1  0  0  0  0
 19 41  1  0  0  0  0
 20 21  1  0  0  0  0
 20 42  1  0  0  0  0
 20 43  1  0  0  0  0
 21 22  1  0  0  0  0
 21 24  1  0  0  0  0
 21 26  1  0  0  0  0
 22 23  1  0  0  0  0
 22 44  1  0  0  0  0
 22 45  1  0  0  0  0
 23 46  1  0  0  0  0
 24 25  1  0  0  0  0
 24 47  1  0  0  0  0
 24 48  1  0  0  0  0
 25 49  1  0  0  0  0
 26 50  1  0  0  0  0
 26 51  1  0  0  0  0
M  END
> <s_m_source_file>
AV-unprocessed.smi

> <i_m_source_file_index>
167

> <i_lp_mmshare_version>
43012

> <i_f3d_flags>
0

> <s_epik_input>
W09IXVtDSDJdW0NASF0oW0NIMl1bQ0BASF0xMilbQ0BIXShbQ0gyXVtDSDJdMSlOMmMobltjSF1uMyljKGMzNCluW2NIXW40W0NIXShbQ0gyXTUpW0NIMl1DNShbQ0gyXVtPSF0pW0NIMl1bT0hd

> <s_epik_cmdline>
J2VwaWtfcHl0aG9uJywgJy1waCcsICc3LjAnLCAnLXRuJywgJzgnLCAnLW1hJywgJzIwMCcsICctbWV0YWxfYmluZGluZycsICctaW1hZScsICc8aW5maWxlLm1hZT4nLCAnLW9tYWUnLCAnPG91dGZpbGUubWFlPic=

> <r_lp_tautomer_probability>
1

> <r_epik_Ionization_Penalty>
0.0047903

> <r_epik_Ionization_Penalty_Charging>
0

> <r_epik_Ionization_Penalty_Neutral>
0.0047903

> <r_epik_State_Penalty>
0.00341021

> <r_epik_Charging_Adjusted_Penalty>
0.00341021

> <i_epik_Tot_Q>
0

> <i_epik_Tot_abs_Q>
0

> <r_epik_Metal_State_Penalty>
-0

> <b_epik_Metal_Only>
0

> <s_lp_Force_Field>
OPLS_2005

> <r_lp_Energy>
90.0047

> <b_lp_Chiralities_Consistent>
1

> <s_lp_Variant>
AV-unprocessed.smi:167-1

> <Gold.Version>
5.8.1

> <Gold.Id.Protein>
6NUR|6NUR_protein|mol2

> <Gold.PLP.Fitness>
49.6669

> <Gold.PLP.PLP>
-40.2179

> <Gold.PLP.part.hbond>
-4.6178

> <Gold.PLP.part.metal>
0.0000

> <Gold.PLP.part.buried>
-5.4773

> <Gold.PLP.part.nonpolar>
-31.1800

> <Gold.PLP.part.repulsive>
0.3144

> <Gold.PLP.ligand.clash>
0.0000

> <Gold.PLP.ligand.torsion>
0.9729

> <Gold.PLP.Chemscore.Hbond>
2.9913

> <Gold.PLP.Chemscore.CHOScore>
0.6430

> <Gold.PLP.Chemscore.Metal>
0.0000

> <Gold.Chemscore.Hbonds>
donor molecule, donor type, donor heavy atom, donor atom, acceptor molecule, acceptor atom, score
      L1  H    23    46       P1  7921  1.00
      L1  H    25    49       P1 10186  1.00
      P1  H 10785 10796       L1    25  0.86
      L1  C    12    39       P1  7948  0.55

> <Gold.PLP.Chemscore.Internal.Correction>
0.4919

> <Gold.Rescore>
     Score         DG    S(hbond)    S(metal)    S(lipo)     H(rot)  DE(clash)    DE(int)     intcor
      8.19     -11.52       2.40        0.00      75.05       4.20       0.04       3.30       ----

> <Gold.Chemscore.Fitness>
8.1852

> <Gold.Chemscore.DG>
-11.5235

> <Gold.Chemscore.ZeroCoef>
-5.4800

> <Gold.Chemscore.Hbond>
2.4026

> <Gold.Chemscore.Metal>
0.0000

> <Gold.Chemscore.Lipo>
75.0475

> <Gold.Chemscore.Internal_Hbond>
0.0000

> <Gold.Chemscore.DEClash>
0.0382

> <Gold.Chemscore.DEInternal>
3.3002

> <Gold.Chemscore.Rot>
4.2038

> <Gold.Chemscore.Internal.Correction>
   9.000000E+99

> <Gold.Chemscore.Hbonds>
donor molecule, donor type, donor heavy atom, donor atom, acceptor molecule, acceptor atom, score
      L1  H    23    46       P1  7921  0.98
      L1  H    25    49       P1 10186  0.96
      P1  H 10785 10796       L1    25  0.19

> <Gold.Chemscore.Hbond.Weighted>
-8.0247

> <Gold.Chemscore.Metal.Weighted>
-0.0000

> <Gold.Chemscore.Lipo.Weighted>
-8.7806

> <Gold.Chemscore.Internal_Hbond.Weighted>
0.0000

> <Gold.Chemscore.DEClash.Weighted>
0.0382

> <Gold.Chemscore.DEInternal.Weighted>
3.3002

> <Gold.Chemscore.Rot.Weighted>
10.7617

> <Gold.Chemscore.Internal.Correction.Weighted>
   9.000000E+99

> <Gold.Protein.RotatedTorsions>
[ 6907 6896 6895 6894 ] final   38.93 input  -60.11 | X-H torsion
[ 7974 7965 7964 7962 ] final   76.86 input  175.53 | X-H torsion
[ 8008 7997 7996 7995 ] final -157.78 input   59.86 | X-H torsion
[ 10167 10162 10161 10158 ] final    8.64 input  -65.29 | X-H torsion
[ 10718 10713 10712 10709 ] final -174.62 input   66.30 | X-H torsion
[ 10763 10752 10751 10750 ] final   77.17 input  -60.55 | X-H torsion
[ 11005 11000 10999 10996 ] final  -65.27 input  -57.11 | X-H torsion

> <Gold.Protein.ActiveResidues>
 VAL166  LYS551  ARG553  GLY616  TRP617  ASP618  TYR619  PRO620  LYS621  CYS622 
 ASP623  PHE694  ASN695  SER759  ASP760  ASP761  ALA762  ILE779  LEU786  VAL792 
 PHE793  MET794  SER795  GLU796  ALA797  LYS798  CYS799  TRP800  GLU811  SER814 

> <Gold.Protein.RotatedAtoms>
  152.1629  134.8898  160.0540 H   0  0  0  0  0  0  0  0  0  0  0  0  # atno 6907 bound_to 6896
  151.9887  133.3778  159.4144 H   0  0  0  0  0  0  0  0  0  0  0  0  # atno 6908 bound_to 6896
  150.6890  134.3883  159.5109 H   0  0  0  0  0  0  0  0  0  0  0  0  # atno 6909 bound_to 6896
  145.6974  139.2572  143.1725 H   0  0  0  0  0  0  0  0  0  0  0  0  # atno 7974 bound_to 7965
  155.7376  140.0810  157.2260 H   0  0  0  0  0  0  0  0  0  0  0  0  # atno 8008 bound_to 7997
  154.4025  140.1584  156.2634 H   0  0  0  0  0  0  0  0  0  0  0  0  # atno 8009 bound_to 7997
  155.9051  140.3407  155.6058 H   0  0  0  0  0  0  0  0  0  0  0  0  # atno 8010 bound_to 7997
  140.6302  143.8010  150.7286 H   0  0  0  0  0  0  0  0  0  0  0  0  # atno 10167 bound_to 10162
  156.7878  130.9507  151.3120 H   0  0  0  0  0  0  0  0  0  0  0  0  # atno 10718 bound_to 10713
  153.0779  135.4924  154.8442 H   0  0  0  0  0  0  0  0  0  0  0  0  # atno 10763 bound_to 10752
  154.7112  135.3020  154.9197 H   0  0  0  0  0  0  0  0  0  0  0  0  # atno 10764 bound_to 10752
  153.9890  135.6780  153.4806 H   0  0  0  0  0  0  0  0  0  0  0  0  # atno 10765 bound_to 10752
  141.1449  133.6679  156.5960 H   0  0  0  0  0  0  0  0  0  0  0  0  # atno 11005 bound_to 11000
  146.0828  140.7745  142.9633 LP  0  0  0  0  0  0  0  0  0  0  0  0  # atno 17320 bound_to 7965
  144.6978  140.3515  143.7181 LP  0  0  0  0  0  0  0  0  0  0  0  0  # atno 17321 bound_to 7965
  140.1619  143.4268  152.2061 LP  0  0  0  0  0  0  0  0  0  0  0  0  # atno 17342 bound_to 10162
  139.5517  144.7343  151.4414 LP  0  0  0  0  0  0  0  0  0  0  0  0  # atno 17343 bound_to 10162
  157.6615  130.8970  149.9840 LP  0  0  0  0  0  0  0  0  0  0  0  0  # atno 17370 bound_to 10713
  156.1178  130.3647  149.9939 LP  0  0  0  0  0  0  0  0  0  0  0  0  # atno 17371 bound_to 10713
  140.3726  134.7593  157.4608 LP  0  0  0  0  0  0  0  0  0  0  0  0  # atno 17394 bound_to 11000
  140.0699  134.5877  155.8653 LP  0  0  0  0  0  0  0  0  0  0  0  0  # atno 17395 bound_to 11000

$$$$
