AV-unprocessed.smi:3322|AV-procd|sdf|12776|dock6
  -GOLD-   2272019123D 1   1.00000     0.00000
 Structure written by MMmdl.
 38 39  0  0  0  0  0  0  0  0  1 V2000
  152.9030  137.4229  159.3700 C   0  0  0  0  0  0  0  0  0  0  0  0
  152.6356  138.5497  158.3586 C   0  0  1  0  0  0  0  0  0  0  0  0
  153.6977  139.5661  158.4803 N   0  0  0  0  0  0  0  0  0  0  0  0
  153.2546  140.8064  159.1106 C   0  0  0  0  0  0  0  0  0  0  0  0
  153.7824  140.8872  160.5528 C   0  0  0  0  0  0  0  0  0  0  0  0
  153.3147  142.0742  161.2477 N   0  0  0  0  0  0  0  0  0  0  0  0
  152.4240  143.0292  160.8044 C   0  0  0  0  0  0  0  0  0  0  0  0
  152.2846  143.9501  161.8031 C   0  0  0  0  0  0  0  0  0  0  0  0
  153.1414  143.4659  162.8310 C   0  0  0  0  0  0  0  0  0  0  0  0
  153.7562  142.3432  162.4959 N   0  0  0  0  0  0  0  0  0  0  0  0
  152.4951  137.9614  156.9337 C   0  0  0  0  0  0  0  0  0  0  0  0
  152.6805  136.7521  156.7836 O   0  0  0  0  0  0  0  0  0  0  0  0
  152.1695  138.7654  155.8896 N   0  0  0  0  0  0  0  0  0  0  0  0
  152.0485  138.2670  154.5147 C   0  0  0  0  0  0  0  0  0  0  0  0
  150.5863  138.4203  154.0619 C   0  0  0  0  0  0  0  0  0  0  0  0
  150.2043  139.7899  154.1502 O   0  0  0  0  0  0  0  0  0  0  0  0
  150.3314  140.3173  155.4675 C   0  0  0  0  0  0  0  0  0  0  0  0
  151.7876  140.1817  155.9497 C   0  0  0  0  0  0  0  0  0  0  0  0
  152.1098  136.6750  159.3625 H   0  0  0  0  0  0  0  0  0  0  0  0
  152.9662  137.8160  160.3853 H   0  0  0  0  0  0  0  0  0  0  0  0
  153.8418  136.9099  159.1560 H   0  0  0  0  0  0  0  0  0  0  0  0
  151.7103  139.0499  158.6396 H   0  0  0  0  0  0  0  0  0  0  0  0
  154.4932  139.2071  158.9894 H   0  0  0  0  0  0  0  0  0  0  0  0
  153.6174  141.6674  158.5495 H   0  0  0  0  0  0  0  0  0  0  0  0
  152.1650  140.8600  159.1126 H   0  0  0  0  0  0  0  0  0  0  0  0
  153.5007  139.9990  161.1214 H   0  0  0  0  0  0  0  0  0  0  0  0
  154.8724  140.9142  160.5420 H   0  0  0  0  0  0  0  0  0  0  0  0
  151.9678  142.9734  159.8270 H   0  0  0  0  0  0  0  0  0  0  0  0
  151.6650  144.8345  161.8002 H   0  0  0  0  0  0  0  0  0  0  0  0
  153.3332  143.8934  163.8042 H   0  0  0  0  0  0  0  0  0  0  0  0
  152.7056  138.8440  153.8626 H   0  0  0  0  0  0  0  0  0  0  0  0
  152.3583  137.2269  154.4056 H   0  0  0  0  0  0  0  0  0  0  0  0
  150.4732  138.0880  153.0300 H   0  0  0  0  0  0  0  0  0  0  0  0
  149.9227  137.8052  154.6718 H   0  0  0  0  0  0  0  0  0  0  0  0
  150.0342  141.3660  155.4564 H   0  0  0  0  0  0  0  0  0  0  0  0
  149.6486  139.7990  156.1426 H   0  0  0  0  0  0  0  0  0  0  0  0
  151.8662  140.6284  156.9374 H   0  0  0  0  0  0  0  0  0  0  0  0
  152.4516  140.7602  155.3058 H   0  0  0  0  0  0  0  0  0  0  0  0
  1  2  1  0  0  0  0
  1 19  1  0  0  0  0
  1 20  1  0  0  0  0
  1 21  1  0  0  0  0
  2  3  1  0  0  0  0
  2 11  1  0  0  0  0
  2 22  1  0  0  0  0
  3  4  1  0  0  0  0
  3 23  1  0  0  0  0
  4  5  1  0  0  0  0
  4 24  1  0  0  0  0
  4 25  1  0  0  0  0
  5  6  1  0  0  0  0
  5 26  1  0  0  0  0
  5 27  1  0  0  0  0
  6 10  1  0  0  0  0
  6  7  1  0  0  0  0
  7  8  2  0  0  0  0
  7 28  1  0  0  0  0
  8  9  1  0  0  0  0
  8 29  1  0  0  0  0
  9 10  2  0  0  0  0
  9 30  1  0  0  0  0
 11 12  2  0  0  0  0
 11 13  1  0  0  0  0
 13 18  1  0  0  0  0
 13 14  1  0  0  0  0
 14 15  1  0  0  0  0
 14 31  1  0  0  0  0
 14 32  1  0  0  0  0
 15 16  1  0  0  0  0
 15 33  1  0  0  0  0
 15 34  1  0  0  0  0
 16 17  1  0  0  0  0
 17 18  1  0  0  0  0
 17 35  1  0  0  0  0
 17 36  1  0  0  0  0
 18 37  1  0  0  0  0
 18 38  1  0  0  0  0
M  END
> <s_m_source_file>
AV-unprocessed.smi

> <i_m_source_file_index>
3322

> <i_lp_mmshare_version>
43012

> <i_f3d_flags>
0

> <s_epik_input>
W0NIMl0xW0NIMl1PW0NIMl1bQ0gyXU4xQyg9TylbQ0BIXShbQ0gzXSlbTkhdW0NIMl1bQ0gyXW4yW2NIXVtjSF1bY0hdbjI=

> <s_epik_cmdline>
J2VwaWtfcHl0aG9uJywgJy1waCcsICc3LjAnLCAnLXRuJywgJzgnLCAnLW1hJywgJzIwMCcsICctbWV0YWxfYmluZGluZycsICctaW1hZScsICc8aW5maWxlLm1hZT4nLCAnLW9tYWUnLCAnPG91dGZpbGUubWFlPic=

> <r_lp_tautomer_probability>
1

> <r_epik_Ionization_Penalty>
0.511228

> <r_epik_Ionization_Penalty_Charging>
0

> <r_epik_Ionization_Penalty_Neutral>
0.511228

> <r_epik_State_Penalty>
0.51753

> <r_epik_Charging_Adjusted_Penalty>
0.51753

> <i_epik_Tot_Q>
0

> <i_epik_Tot_abs_Q>
0

> <r_epik_Metal_State_Penalty>
0.517012

> <b_epik_Metal_Only>
0

> <s_lp_Force_Field>
OPLS_2005

> <r_lp_Energy>
27.6931

> <b_lp_Chiralities_Consistent>
1

> <s_lp_Variant>
AV-unprocessed.smi:3322-4

> <Gold.Version>
5.8.1

> <Gold.Id.Protein>
6NUR|6NUR_protein|mol2

> <Gold.PLP.Fitness>
49.0041

> <Gold.PLP.PLP>
-42.0380

> <Gold.PLP.part.hbond>
-4.0000

> <Gold.PLP.part.metal>
0.0000

> <Gold.PLP.part.buried>
-6.1706

> <Gold.PLP.part.nonpolar>
-32.1821

> <Gold.PLP.part.repulsive>
0.1547

> <Gold.PLP.ligand.clash>
0.0000

> <Gold.PLP.ligand.torsion>
1.0625

> <Gold.PLP.Chemscore.Hbond>
3.0000

> <Gold.PLP.Chemscore.CHOScore>
0.0000

> <Gold.PLP.Chemscore.Metal>
0.0000

> <Gold.Chemscore.Hbonds>
donor molecule, donor type, donor heavy atom, donor atom, acceptor molecule, acceptor atom, score
      P1  H  7989  7998       L1    16  0.65
      P1  H  7997  8010       L1     3  0.80
      P1  H 10752 10765       L1    12  0.71

> <Gold.PLP.Chemscore.Internal.Correction>
0.0911

> <Gold.Rescore>
     Score         DG    S(hbond)    S(metal)    S(lipo)     H(rot)  DE(clash)    DE(int)     intcor
     15.07     -16.11       1.28        0.00      94.60       1.84       0.01       1.03       ----

> <Gold.Chemscore.Fitness>
15.0663

> <Gold.Chemscore.DG>
-16.1106

> <Gold.Chemscore.ZeroCoef>
-5.4800

> <Gold.Chemscore.Hbond>
1.2824

> <Gold.Chemscore.Metal>
0.0000

> <Gold.Chemscore.Lipo>
94.6044

> <Gold.Chemscore.Internal_Hbond>
0.0000

> <Gold.Chemscore.DEClash>
0.0112

> <Gold.Chemscore.DEInternal>
1.0330

> <Gold.Chemscore.Rot>
1.8442

> <Gold.Chemscore.Internal.Correction>
   9.000000E+99

> <Gold.Chemscore.Hbonds>
donor molecule, donor type, donor heavy atom, donor atom, acceptor molecule, acceptor atom, score
      P1  H  7989  7998       L1    16  0.04
      P1  H  7997  8010       L1     3  0.06
      P1  H 10752 10765       L1    12  0.69

> <Gold.Chemscore.Hbond.Weighted>
-4.2831

> <Gold.Chemscore.Metal.Weighted>
-0.0000

> <Gold.Chemscore.Lipo.Weighted>
-11.0687

> <Gold.Chemscore.Internal_Hbond.Weighted>
0.0000

> <Gold.Chemscore.DEClash.Weighted>
0.0112

> <Gold.Chemscore.DEInternal.Weighted>
1.0330

> <Gold.Chemscore.Rot.Weighted>
4.7212

> <Gold.Chemscore.Internal.Correction.Weighted>
   9.000000E+99

> <Gold.Protein.RotatedTorsions>
[ 6907 6896 6895 6894 ] final  -75.52 input  -60.11 | X-H torsion
[ 7974 7965 7964 7962 ] final -143.69 input  175.53 | X-H torsion
[ 8008 7997 7996 7995 ] final   35.17 input   59.86 | X-H torsion
[ 10167 10162 10161 10158 ] final -112.27 input  -65.29 | X-H torsion
[ 10718 10713 10712 10709 ] final  -50.23 input   66.30 | X-H torsion
[ 10763 10752 10751 10750 ] final -126.94 input  -60.55 | X-H torsion
[ 11005 11000 10999 10996 ] final  128.30 input  -57.11 | X-H torsion

> <Gold.Protein.ActiveResidues>
 VAL166  LYS551  ARG553  GLY616  TRP617  ASP618  TYR619  PRO620  LYS621  CYS622 
 ASP623  PHE694  ASN695  SER759  ASP760  ASP761  ALA762  ILE779  LEU786  VAL792 
 PHE793  MET794  SER795  GLU796  ALA797  LYS798  CYS799  TRP800  GLU811  SER814 

> <Gold.Protein.RotatedAtoms>
  150.7056  134.4709  159.5424 H   0  0  0  0  0  0  0  0  0  0  0  0  # atno 6907 bound_to 6896
  152.2365  134.8268  160.0475 H   0  0  0  0  0  0  0  0  0  0  0  0  # atno 6908 bound_to 6896
  151.9065  133.3515  159.3885 H   0  0  0  0  0  0  0  0  0  0  0  0  # atno 6909 bound_to 6896
  144.8351  140.5803  143.5489 H   0  0  0  0  0  0  0  0  0  0  0  0  # atno 7974 bound_to 7965
  155.1668  140.3288  155.4400 H   0  0  0  0  0  0  0  0  0  0  0  0  # atno 8008 bound_to 7997
  156.2524  140.1950  156.6723 H   0  0  0  0  0  0  0  0  0  0  0  0  # atno 8009 bound_to 7997
  154.6366  140.0575  156.9782 H   0  0  0  0  0  0  0  0  0  0  0  0  # atno 8010 bound_to 7997
  140.1245  143.4414  152.1669 H   0  0  0  0  0  0  0  0  0  0  0  0  # atno 10167 bound_to 10162
  156.1820  130.4150  149.9493 H   0  0  0  0  0  0  0  0  0  0  0  0  # atno 10718 bound_to 10713
  154.8749  135.3979  154.3512 H   0  0  0  0  0  0  0  0  0  0  0  0  # atno 10763 bound_to 10752
  153.4297  135.7025  153.6244 H   0  0  0  0  0  0  0  0  0  0  0  0  # atno 10764 bound_to 10752
  153.4871  135.3756  155.2442 H   0  0  0  0  0  0  0  0  0  0  0  0  # atno 10765 bound_to 10752
  139.9553  134.9614  156.8981 H   0  0  0  0  0  0  0  0  0  0  0  0  # atno 11005 bound_to 11000
  145.4812  139.1495  143.3761 LP  0  0  0  0  0  0  0  0  0  0  0  0  # atno 17320 bound_to 7965
  146.2650  140.4948  142.8837 LP  0  0  0  0  0  0  0  0  0  0  0  0  # atno 17321 bound_to 7965
  139.5551  144.7367  151.4318 LP  0  0  0  0  0  0  0  0  0  0  0  0  # atno 17342 bound_to 10162
  140.6853  143.7989  150.7177 LP  0  0  0  0  0  0  0  0  0  0  0  0  # atno 17343 bound_to 10162
  156.7261  130.9025  151.3622 LP  0  0  0  0  0  0  0  0  0  0  0  0  # atno 17370 bound_to 10713
  157.6874  130.9199  150.0423 LP  0  0  0  0  0  0  0  0  0  0  0  0  # atno 17371 bound_to 10713
  140.5623  134.0523  155.7403 LP  0  0  0  0  0  0  0  0  0  0  0  0  # atno 17394 bound_to 11000
  141.1223  133.9440  157.2704 LP  0  0  0  0  0  0  0  0  0  0  0  0  # atno 17395 bound_to 11000

$$$$
