AV-unprocessed.smi:1240|AV-procd|sdf|5198|dock2
  -GOLD-   22720 4283D 1   1.00000     0.00000
 Structure written by MMmdl.
 47 49  0  0  0  0  0  0  0  0  1 V2000
  144.3916  136.5709  152.0476 O   0  0  0  0  0  0  0  0  0  0  0  0
  145.6050  136.3828  151.9613 C   0  0  0  0  0  0  0  0  0  0  0  0
  146.5197  137.2645  152.3892 N   0  0  0  0  0  0  0  0  0  0  0  0
  146.2166  138.5341  153.0428 C   0  0  0  0  0  0  0  0  0  0  0  0
  147.0862  138.7816  154.3089 C   0  0  1  0  0  0  0  0  0  0  0  0
  148.3385  139.6617  154.0123 C   0  0  1  0  0  0  0  0  0  0  0  0
  148.2158  141.1763  154.1976 C   0  0  0  0  0  0  0  0  0  0  0  0
  149.5194  141.5702  154.8957 C   0  0  0  0  0  0  0  0  0  0  0  0
  150.3976  140.4813  154.6552 O   0  0  0  0  0  0  0  0  0  0  0  0
  149.6221  139.2997  154.7683 C   0  0  0  0  0  0  0  0  0  0  0  0
  146.3298  139.1621  155.5179 N   0  0  0  0  0  0  0  0  0  0  0  0
  145.5496  140.3933  155.4129 C   0  0  0  0  0  0  0  0  0  0  0  0
  144.8727  140.7555  156.7469 C   0  0  0  0  0  0  0  0  0  0  0  0
  144.0776  139.6656  157.2012 O   0  0  0  0  0  0  0  0  0  0  0  0
  144.8330  138.4712  157.3735 C   0  0  0  0  0  0  0  0  0  0  0  0
  145.4881  138.0865  156.0372 C   0  0  0  0  0  0  0  0  0  0  0  0
  146.1904  135.2803  151.4629 N   0  0  0  0  0  0  0  0  0  0  0  0
  145.5759  134.1045  150.9537 C   0  0  0  0  0  0  0  0  0  0  0  0
  146.4155  133.0414  150.5618 C   0  0  0  0  0  0  0  0  0  0  0  0
  145.8299  131.8701  150.0415 C   0  0  0  0  0  0  0  0  0  0  0  0
  144.4985  131.7126  149.8867 N   0  0  0  0  0  0  0  0  0  0  0  0
  143.6974  132.7373  150.2475 C   0  0  0  0  0  0  0  0  0  0  0  0
  144.1795  133.9501  150.7790 C   0  0  0  0  0  0  0  0  0  0  0  0
  147.4958  137.0313  152.2801 H   0  0  0  0  0  0  0  0  0  0  0  0
  146.3688  139.3246  152.3087 H   0  0  0  0  0  0  0  0  0  0  0  0
  145.1534  138.5487  153.2826 H   0  0  0  0  0  0  0  0  0  0  0  0
  147.5203  137.8101  154.5495 H   0  0  0  0  0  0  0  0  0  0  0  0
  148.5802  139.5173  152.9580 H   0  0  0  0  0  0  0  0  0  0  0  0
  148.1399  141.6628  153.2245 H   0  0  0  0  0  0  0  0  0  0  0  0
  147.3489  141.4881  154.7774 H   0  0  0  0  0  0  0  0  0  0  0  0
  149.9309  142.5075  154.5206 H   0  0  0  0  0  0  0  0  0  0  0  0
  149.3634  141.6726  155.9706 H   0  0  0  0  0  0  0  0  0  0  0  0
  149.4452  139.0979  155.8254 H   0  0  0  0  0  0  0  0  0  0  0  0
  150.1350  138.4398  154.3370 H   0  0  0  0  0  0  0  0  0  0  0  0
  146.1900  141.2249  155.1291 H   0  0  0  0  0  0  0  0  0  0  0  0
  144.7883  140.2923  154.6392 H   0  0  0  0  0  0  0  0  0  0  0  0
  145.6208  141.0046  157.5011 H   0  0  0  0  0  0  0  0  0  0  0  0
  144.2387  141.6333  156.6237 H   0  0  0  0  0  0  0  0  0  0  0  0
  145.5873  138.6151  158.1486 H   0  0  0  0  0  0  0  0  0  0  0  0
  144.1702  137.6758  157.7141 H   0  0  0  0  0  0  0  0  0  0  0  0
  144.6999  137.8444  155.3249 H   0  0  0  0  0  0  0  0  0  0  0  0
  146.0806  137.1808  156.1728 H   0  0  0  0  0  0  0  0  0  0  0  0
  147.1969  135.2460  151.5298 H   0  0  0  0  0  0  0  0  0  0  0  0
  147.4885  133.1143  150.6625 H   0  0  0  0  0  0  0  0  0  0  0  0
  146.4488  131.0379  149.7400 H   0  0  0  0  0  0  0  0  0  0  0  0
  142.6374  132.5892  150.1025 H   0  0  0  0  0  0  0  0  0  0  0  0
  143.4777  134.7311  151.0274 H   0  0  0  0  0  0  0  0  0  0  0  0
  1  2  2  0  0  0  0
  2  3  1  0  0  0  0
  2 17  1  0  0  0  0
  3  4  1  0  0  0  0
  3 24  1  0  0  0  0
  4  5  1  0  0  0  0
  4 25  1  0  0  0  0
  4 26  1  0  0  0  0
  5  6  1  0  0  0  0
  5 11  1  0  0  0  0
  5 27  1  0  0  0  0
  6 10  1  0  0  0  0
  6  7  1  0  0  0  0
  6 28  1  0  0  0  0
  7  8  1  0  0  0  0
  7 29  1  0  0  0  0
  7 30  1  0  0  0  0
  8  9  1  0  0  0  0
  8 31  1  0  0  0  0
  8 32  1  0  0  0  0
  9 10  1  0  0  0  0
 10 33  1  0  0  0  0
 10 34  1  0  0  0  0
 11 16  1  0  0  0  0
 11 12  1  0  0  0  0
 12 13  1  0  0  0  0
 12 35  1  0  0  0  0
 12 36  1  0  0  0  0
 13 14  1  0  0  0  0
 13 37  1  0  0  0  0
 13 38  1  0  0  0  0
 14 15  1  0  0  0  0
 15 16  1  0  0  0  0
 15 39  1  0  0  0  0
 15 40  1  0  0  0  0
 16 41  1  0  0  0  0
 16 42  1  0  0  0  0
 17 18  1  0  0  0  0
 17 43  1  0  0  0  0
 18 23  1  0  0  0  0
 18 19  2  0  0  0  0
 19 20  1  0  0  0  0
 19 44  1  0  0  0  0
 20 21  2  0  0  0  0
 20 45  1  0  0  0  0
 21 22  1  0  0  0  0
 22 23  2  0  0  0  0
 22 46  1  0  0  0  0
 23 47  1  0  0  0  0
M  END
> <s_m_source_file>
AV-unprocessed.smi

> <i_m_source_file_index>
1240

> <i_lp_mmshare_version>
43012

> <i_f3d_flags>
0

> <s_epik_input>
W2NIXTFbY0hdbltjSF1bY0hdYzFbTkhdQyg9TylbTkhdW0NIMl1bQ0BIXShbQ0BASF0yW0NIMl1bQ0gyXU9bQ0gyXTIpTjNbQ0gyXVtDSDJdT1tDSDJdW0NIMl0z

> <s_epik_cmdline>
J2VwaWtfcHl0aG9uJywgJy1waCcsICc3LjAnLCAnLXRuJywgJzgnLCAnLW1hJywgJzIwMCcsICctbWV0YWxfYmluZGluZycsICctaW1hZScsICc8aW5maWxlLm1hZT4nLCAnLW9tYWUnLCAnPG91dGZpbGUubWFlPic=

> <r_epik_Ionization_Penalty>
0.238664

> <r_epik_Ionization_Penalty_Charging>
0

> <r_epik_Ionization_Penalty_Neutral>
0.238664

> <r_epik_State_Penalty>
0.217087

> <r_epik_Charging_Adjusted_Penalty>
0.217087

> <i_epik_Tot_Q>
0

> <i_epik_Tot_abs_Q>
0

> <r_epik_Metal_State_Penalty>
0.199194

> <b_epik_Metal_Only>
0

> <s_lp_Force_Field>
OPLS_2005

> <r_lp_Energy>
57.1619

> <b_lp_Chiralities_Consistent>
1

> <s_lp_Variant>
AV-unprocessed.smi:1240-4

> <Gold.Version>
5.8.1

> <Gold.Id.Protein>
6NUR|6NUR_protein|mol2

> <Gold.PLP.Fitness>
45.1323

> <Gold.PLP.PLP>
-32.9096

> <Gold.PLP.part.hbond>
-4.0000

> <Gold.PLP.part.metal>
0.0000

> <Gold.PLP.part.buried>
-4.3559

> <Gold.PLP.part.nonpolar>
-26.5540

> <Gold.PLP.part.repulsive>
1.2905

> <Gold.PLP.ligand.clash>
0.0000

> <Gold.PLP.ligand.torsion>
1.4957

> <Gold.PLP.Chemscore.Hbond>
3.0968

> <Gold.PLP.Chemscore.CHOScore>
1.8148

> <Gold.PLP.Chemscore.Metal>
0.0000

> <Gold.Chemscore.Hbonds>
donor molecule, donor type, donor heavy atom, donor atom, acceptor molecule, acceptor atom, score
      L1  H     3    24       P1  7948  1.00
      L1  H    17    43       P1  7948  0.99
      P1  H  7989  7998       L1     9  0.99
      P1  H 10785 10796       L1    21  0.14
      L1  C    20    45       P1 10747  0.80
      L1  C    22    46       P1 10186  0.90
      L1  C    22    46       P1 10952  0.01

> <Gold.PLP.Chemscore.Internal.Correction>
0.4792

> <Gold.Rescore>
     Score         DG    S(hbond)    S(metal)    S(lipo)     H(rot)  DE(clash)    DE(int)     intcor
     17.03     -19.97       2.78        0.00      80.53       1.65       0.12       2.82       ----

> <Gold.Chemscore.Fitness>
17.0347

> <Gold.Chemscore.DG>
-19.9711

> <Gold.Chemscore.ZeroCoef>
-5.4800

> <Gold.Chemscore.Hbond>
2.7831

> <Gold.Chemscore.Metal>
0.0000

> <Gold.Chemscore.Lipo>
80.5274

> <Gold.Chemscore.Internal_Hbond>
0.0000

> <Gold.Chemscore.DEClash>
0.1162

> <Gold.Chemscore.DEInternal>
2.8202

> <Gold.Chemscore.Rot>
1.6508

> <Gold.Chemscore.Internal.Correction>
   9.000000E+99

> <Gold.Chemscore.Hbonds>
donor molecule, donor type, donor heavy atom, donor atom, acceptor molecule, acceptor atom, score
      L1  H     3    24       P1  7948  1.00
      L1  H    17    43       P1  7948  0.85
      P1  H  7989  7998       L1     9  0.78
      P1  H 10785 10796       L1    21  0.10

> <Gold.Chemscore.Hbond.Weighted>
-9.2955

> <Gold.Chemscore.Metal.Weighted>
-0.0000

> <Gold.Chemscore.Lipo.Weighted>
-9.4217

> <Gold.Chemscore.Internal_Hbond.Weighted>
0.0000

> <Gold.Chemscore.DEClash.Weighted>
0.1162

> <Gold.Chemscore.DEInternal.Weighted>
2.8202

> <Gold.Chemscore.Rot.Weighted>
4.2262

> <Gold.Chemscore.Internal.Correction.Weighted>
   9.000000E+99

> <Gold.Protein.RotatedTorsions>
[ 6907 6896 6895 6894 ] final   90.37 input  -60.11 | X-H torsion
[ 7974 7965 7964 7962 ] final -107.29 input  175.53 | X-H torsion
[ 8008 7997 7996 7995 ] final   40.09 input   59.86 | X-H torsion
[ 10167 10162 10161 10158 ] final  120.02 input  -65.29 | X-H torsion
[ 10718 10713 10712 10709 ] final  -79.41 input   66.30 | X-H torsion
[ 10763 10752 10751 10750 ] final   11.77 input  -60.55 | X-H torsion
[ 11005 11000 10999 10996 ] final  -50.72 input  -57.11 | X-H torsion

> <Gold.Protein.ActiveResidues>
 VAL166  LYS551  ARG553  GLY616  TRP617  ASP618  TYR619  PRO620  LYS621  CYS622 
 ASP623  PHE694  ASN695  SER759  ASP760  ASP761  ALA762  ILE779  LEU786  VAL792 
 PHE793  MET794  SER795  GLU796  ALA797  LYS798  CYS799  TRP800  GLU811  SER814 

> <Gold.Protein.RotatedAtoms>
  152.5444  134.1822  159.8639 H   0  0  0  0  0  0  0  0  0  0  0  0  # atno 6907 bound_to 6896
  151.1823  133.4710  159.2601 H   0  0  0  0  0  0  0  0  0  0  0  0  # atno 6908 bound_to 6896
  151.1166  135.0068  159.8574 H   0  0  0  0  0  0  0  0  0  0  0  0  # atno 6909 bound_to 6896
  145.2072  140.9081  143.3335 H   0  0  0  0  0  0  0  0  0  0  0  0  # atno 7974 bound_to 7965
  155.2474  140.3350  155.4285 H   0  0  0  0  0  0  0  0  0  0  0  0  # atno 8008 bound_to 7997
  156.2230  140.1817  156.7475 H   0  0  0  0  0  0  0  0  0  0  0  0  # atno 8009 bound_to 7997
  154.5855  140.0646  156.9149 H   0  0  0  0  0  0  0  0  0  0  0  0  # atno 8010 bound_to 7997
  139.6008  144.7056  151.3066 H   0  0  0  0  0  0  0  0  0  0  0  0  # atno 10167 bound_to 10162
  156.0093  130.4545  150.3643 H   0  0  0  0  0  0  0  0  0  0  0  0  # atno 10718 bound_to 10713
  153.1891  135.6839  153.8376 H   0  0  0  0  0  0  0  0  0  0  0  0  # atno 10763 bound_to 10752
  153.7682  135.3200  155.3349 H   0  0  0  0  0  0  0  0  0  0  0  0  # atno 10764 bound_to 10752
  154.8106  135.4719  154.0605 H   0  0  0  0  0  0  0  0  0  0  0  0  # atno 10765 bound_to 10752
  141.0831  133.6648  156.3772 H   0  0  0  0  0  0  0  0  0  0  0  0  # atno 11005 bound_to 11000
  144.9891  139.3707  143.6224 LP  0  0  0  0  0  0  0  0  0  0  0  0  # atno 17320 bound_to 7965
  146.3405  139.9066  142.8786 LP  0  0  0  0  0  0  0  0  0  0  0  0  # atno 17321 bound_to 7965
  140.7248  143.7034  150.7827 LP  0  0  0  0  0  0  0  0  0  0  0  0  # atno 17342 bound_to 10162
  140.0610  143.5155  152.2627 LP  0  0  0  0  0  0  0  0  0  0  0  0  # atno 17343 bound_to 10162
  157.1731  131.0373  151.2786 LP  0  0  0  0  0  0  0  0  0  0  0  0  # atno 17370 bound_to 10713
  157.4212  130.7438  149.6915 LP  0  0  0  0  0  0  0  0  0  0  0  0  # atno 17371 bound_to 10713
  140.5423  134.6108  157.5383 LP  0  0  0  0  0  0  0  0  0  0  0  0  # atno 17394 bound_to 11000
  139.9647  134.7393  156.0163 LP  0  0  0  0  0  0  0  0  0  0  0  0  # atno 17395 bound_to 11000

$$$$
