AV-unprocessed.smi:3265|AV-procd|sdf|12497|dock4
  -GOLD-   2272018403D 1   1.00000     0.00000
 Structure written by MMmdl.
 41 42  0  0  0  0  0  0  0  0  2 V2000
  145.9117  143.1733  153.4451 C   0  0  0  0  0  0  0  0  0  0  0  0
  146.9898  142.3873  154.2117 C   0  0  1  0  0  0  0  0  0  0  0  0
  146.5299  141.9600  155.6177 C   0  0  0  0  0  0  0  0  0  0  0  0
  145.5253  140.8016  155.5459 C   0  0  0  0  0  0  0  0  0  0  0  0
  146.0875  139.6343  154.7193 C   0  0  0  0  0  0  0  0  0  0  0  0
  146.4846  140.0803  153.3588 N   0  3  2  0  0  0  0  0  0  0  0  0
  146.8886  138.9425  152.4948 C   0  0  0  0  0  0  0  0  0  0  0  0
  145.7247  137.9745  152.2091 C   0  0  0  0  0  0  0  0  0  0  0  0
  146.2072  136.6226  151.9572 N   0  0  0  0  0  0  0  0  0  0  0  0
  145.5108  135.4972  152.1908 C   0  0  0  0  0  0  0  0  0  0  0  0
  144.3818  135.5013  152.6805 O   0  0  0  0  0  0  0  0  0  0  0  0
  146.1802  134.1590  151.8485 C   0  0  0  0  0  0  0  0  0  0  0  0
  145.4756  133.4115  150.8179 N   0  0  0  0  0  0  0  0  0  0  0  0
  145.9734  132.4410  149.9731 C   0  0  0  0  0  0  0  0  0  0  0  0
  144.9450  132.0312  149.1739 C   0  0  0  0  0  0  0  0  0  0  0  0
  143.8418  132.8149  149.6137 C   0  0  0  0  0  0  0  0  0  0  0  0
  144.1620  133.6395  150.5980 N   0  0  0  0  0  0  0  0  0  0  0  0
  147.4997  141.1680  153.4157 C   0  0  0  0  0  0  0  0  0  0  0  0
  145.0288  142.5663  153.2442 H   0  0  0  0  0  0  0  0  0  0  0  0
  146.2923  143.5255  152.4860 H   0  0  0  0  0  0  0  0  0  0  0  0
  145.5902  144.0490  154.0096 H   0  0  0  0  0  0  0  0  0  0  0  0
  147.8321  143.0685  154.3398 H   0  0  0  0  0  0  0  0  0  0  0  0
  147.3975  141.6420  156.1974 H   0  0  0  0  0  0  0  0  0  0  0  0
  146.0976  142.8051  156.1544 H   0  0  0  0  0  0  0  0  0  0  0  0
  145.2829  140.4599  156.5525 H   0  0  0  0  0  0  0  0  0  0  0  0
  144.5880  141.1462  155.1078 H   0  0  0  0  0  0  0  0  0  0  0  0
  146.9486  139.1937  155.2246 H   0  0  0  0  0  0  0  0  0  0  0  0
  145.3288  138.8540  154.6473 H   0  0  0  0  0  0  0  0  0  0  0  0
  147.3188  139.3175  151.5648 H   0  0  0  0  0  0  0  0  0  0  0  0
  147.6805  138.3844  152.9964 H   0  0  0  0  0  0  0  0  0  0  0  0
  145.0154  137.9706  153.0388 H   0  0  0  0  0  0  0  0  0  0  0  0
  145.1670  138.2831  151.3262 H   0  0  0  0  0  0  0  0  0  0  0  0
  147.1276  136.5326  151.5510 H   0  0  0  0  0  0  0  0  0  0  0  0
  147.2006  134.3464  151.5127 H   0  0  0  0  0  0  0  0  0  0  0  0
  146.2477  133.5404  152.7448 H   0  0  0  0  0  0  0  0  0  0  0  0
  147.0067  132.1282  150.0088 H   0  0  0  0  0  0  0  0  0  0  0  0
  144.9753  131.2840  148.3949 H   0  0  0  0  0  0  0  0  0  0  0  0
  142.8253  132.8094  149.2490 H   0  0  0  0  0  0  0  0  0  0  0  0
  147.7788  141.4904  152.4134 H   0  0  0  0  0  0  0  0  0  0  0  0
  148.4083  140.7800  153.8788 H   0  0  0  0  0  0  0  0  0  0  0  0
  145.6539  140.4742  152.9403 H   0  0  0  0  0  0  0  0  0  0  0  0
  1  2  1  0  0  0  0
  1 19  1  0  0  0  0
  1 20  1  0  0  0  0
  1 21  1  0  0  0  0
  2 18  1  0  0  0  0
  2  3  1  0  0  0  0
  2 22  1  0  0  0  0
  3  4  1  0  0  0  0
  3 23  1  0  0  0  0
  3 24  1  0  0  0  0
  4  5  1  0  0  0  0
  4 25  1  0  0  0  0
  4 26  1  0  0  0  0
  5  6  1  0  0  0  0
  5 27  1  0  0  0  0
  5 28  1  0  0  0  0
  6  7  1  0  0  0  0
  6 18  1  0  0  0  0
  6 41  1  0  0  0  0
  7  8  1  0  0  0  0
  7 29  1  0  0  0  0
  7 30  1  0  0  0  0
  8  9  1  0  0  0  0
  8 31  1  0  0  0  0
  8 32  1  0  0  0  0
  9 10  1  0  0  0  0
  9 33  1  0  0  0  0
 10 11  2  0  0  0  0
 10 12  1  0  0  0  0
 12 13  1  0  0  0  0
 12 34  1  0  0  0  0
 12 35  1  0  0  0  0
 13 17  1  0  0  0  0
 13 14  1  0  0  0  0
 14 15  2  0  0  0  0
 14 36  1  0  0  0  0
 15 16  1  0  0  0  0
 15 37  1  0  0  0  0
 16 17  2  0  0  0  0
 16 38  1  0  0  0  0
 18 39  1  0  0  0  0
 18 40  1  0  0  0  0
M  CHG  1   6   1
M  END
> <s_m_source_file>
AV-unprocessed.smi

> <i_m_source_file_index>
3265

> <i_lp_mmshare_version>
43012

> <i_f3d_flags>
0

> <s_epik_input>
W0NIM11bQ0BASF0xW0NIMl1bQ0gyXVtDSDJdTihbQ0gyXTEpW0NIMl1bQ0gyXVtOSF1DKD1PKVtDSDJdbjJbY0hdW2NIXVtjSF1uMg==

> <s_epik_cmdline>
J2VwaWtfcHl0aG9uJywgJy1waCcsICc3LjAnLCAnLXRuJywgJzgnLCAnLW1hJywgJzIwMCcsICctbWV0YWxfYmluZGluZycsICctaW1hZScsICc8aW5maWxlLm1hZT4nLCAnLW9tYWUnLCAnPG91dGZpbGUubWFlPic=

> <r_lp_tautomer_probability>
1

> <r_epik_Ionization_Penalty>
0.00231455

> <r_epik_Ionization_Penalty_Charging>
0.00230623

> <r_epik_Ionization_Penalty_Neutral>
8.31727e-06

> <r_epik_State_Penalty>
0.00159065

> <r_epik_Charging_Adjusted_Penalty>
0.00389688

> <i_epik_Tot_Q>
1

> <i_epik_Tot_abs_Q>
1

> <r_epik_Metal_State_Penalty>
-0

> <b_epik_Metal_Only>
0

> <s_lp_Force_Field>
OPLS_2005

> <r_lp_Energy>
19.1739

> <b_lp_Chiralities_Consistent>
1

> <s_lp_Variant>
AV-unprocessed.smi:3265-2

> <Gold.Version>
5.8.1

> <Gold.Id.Protein>
6NUR|6NUR_protein|mol2

> <Gold.PLP.Fitness>
46.9535

> <Gold.PLP.PLP>
-33.3833

> <Gold.PLP.part.hbond>
-2.0000

> <Gold.PLP.part.metal>
0.0000

> <Gold.PLP.part.buried>
-2.7982

> <Gold.PLP.part.nonpolar>
-29.1941

> <Gold.PLP.part.repulsive>
0.2992

> <Gold.PLP.ligand.clash>
0.0000

> <Gold.PLP.ligand.torsion>
0.7297

> <Gold.PLP.Chemscore.Hbond>
3.0000

> <Gold.PLP.Chemscore.CHOScore>
2.0000

> <Gold.PLP.Chemscore.Metal>
0.0000

> <Gold.Chemscore.Hbonds>
donor molecule, donor type, donor heavy atom, donor atom, acceptor molecule, acceptor atom, score
      L1  H     6    41       P1 10175  2.00
      L1  H     9    33       P1  7948  0.96
      L1  C    14    36       P1 10747  1.00
      L1  C    16    38       P1 10186  1.00

> <Gold.PLP.Chemscore.Internal.Correction>
0.0296

> <Gold.Rescore>
     Score         DG    S(hbond)    S(metal)    S(lipo)     H(rot)  DE(clash)    DE(int)     intcor
     14.95     -17.14       1.94        0.00      84.43       1.84       0.03       2.16       ----

> <Gold.Chemscore.Fitness>
14.9534

> <Gold.Chemscore.DG>
-17.1410

> <Gold.Chemscore.ZeroCoef>
-5.4800

> <Gold.Chemscore.Hbond>
1.9430

> <Gold.Chemscore.Metal>
0.0000

> <Gold.Chemscore.Lipo>
84.4283

> <Gold.Chemscore.Internal_Hbond>
0.0000

> <Gold.Chemscore.DEClash>
0.0307

> <Gold.Chemscore.DEInternal>
2.1568

> <Gold.Chemscore.Rot>
1.8386

> <Gold.Chemscore.Internal.Correction>
   9.000000E+99

> <Gold.Chemscore.Hbonds>
donor molecule, donor type, donor heavy atom, donor atom, acceptor molecule, acceptor atom, score
      L1  H     6    41       P1 10175  0.76
      L1  H     9    33       P1  7948  0.92

> <Gold.Chemscore.Hbond.Weighted>
-6.4898

> <Gold.Chemscore.Metal.Weighted>
-0.0000

> <Gold.Chemscore.Lipo.Weighted>
-9.8781

> <Gold.Chemscore.Internal_Hbond.Weighted>
0.0000

> <Gold.Chemscore.DEClash.Weighted>
0.0307

> <Gold.Chemscore.DEInternal.Weighted>
2.1568

> <Gold.Chemscore.Rot.Weighted>
4.7069

> <Gold.Chemscore.Internal.Correction.Weighted>
   9.000000E+99

> <Gold.Protein.RotatedTorsions>
[ 6907 6896 6895 6894 ] final  179.43 input  -60.11 | X-H torsion
[ 7974 7965 7964 7962 ] final  126.46 input  175.53 | X-H torsion
[ 8008 7997 7996 7995 ] final  153.96 input   59.86 | X-H torsion
[ 10167 10162 10161 10158 ] final   64.50 input  -65.29 | X-H torsion
[ 10718 10713 10712 10709 ] final  -27.22 input   66.30 | X-H torsion
[ 10763 10752 10751 10750 ] final -135.92 input  -60.55 | X-H torsion
[ 11005 11000 10999 10996 ] final  -94.97 input  -57.11 | X-H torsion

> <Gold.Protein.ActiveResidues>
 VAL166  LYS551  ARG553  GLY616  TRP617  ASP618  TYR619  PRO620  LYS621  CYS622 
 ASP623  PHE694  ASN695  SER759  ASP760  ASP761  ALA762  ILE779  LEU786  VAL792 
 PHE793  MET794  SER795  GLU796  ALA797  LYS798  CYS799  TRP800  GLU811  SER814 

> <Gold.Protein.RotatedAtoms>
  151.6717  133.3314  159.3197 H   0  0  0  0  0  0  0  0  0  0  0  0  # atno 6907 bound_to 6896
  150.7864  134.6856  159.6478 H   0  0  0  0  0  0  0  0  0  0  0  0  # atno 6908 bound_to 6896
  152.3935  134.6407  160.0150 H   0  0  0  0  0  0  0  0  0  0  0  0  # atno 6909 bound_to 6896
  145.0615  139.3801  143.5003 H   0  0  0  0  0  0  0  0  0  0  0  0  # atno 7974 bound_to 7965
  156.2555  140.1979  156.6571 H   0  0  0  0  0  0  0  0  0  0  0  0  # atno 8008 bound_to 7997
  154.6492  140.0574  156.9961 H   0  0  0  0  0  0  0  0  0  0  0  0  # atno 8009 bound_to 7997
  155.1444  140.3245  155.4448 H   0  0  0  0  0  0  0  0  0  0  0  0  # atno 8010 bound_to 7997
  140.1215  144.4727  150.6918 H   0  0  0  0  0  0  0  0  0  0  0  0  # atno 10167 bound_to 10162
  156.4410  130.4464  149.7053 H   0  0  0  0  0  0  0  0  0  0  0  0  # atno 10718 bound_to 10713
  154.8694  135.3688  154.4976 H   0  0  0  0  0  0  0  0  0  0  0  0  # atno 10763 bound_to 10752
  153.5619  135.7022  153.5548 H   0  0  0  0  0  0  0  0  0  0  0  0  # atno 10764 bound_to 10752
  153.3620  135.4044  155.1689 H   0  0  0  0  0  0  0  0  0  0  0  0  # atno 10765 bound_to 10752
  141.1455  133.7993  157.0371 H   0  0  0  0  0  0  0  0  0  0  0  0  # atno 11005 bound_to 11000
  146.3524  140.0316  142.8650 LP  0  0  0  0  0  0  0  0  0  0  0  0  # atno 17320 bound_to 7965
  145.1403  140.9567  143.4493 LP  0  0  0  0  0  0  0  0  0  0  0  0  # atno 17321 bound_to 7965
  140.6869  143.2355  151.5235 LP  0  0  0  0  0  0  0  0  0  0  0  0  # atno 17342 bound_to 10162
  139.5566  144.2259  152.1623 LP  0  0  0  0  0  0  0  0  0  0  0  0  # atno 17343 bound_to 10162
  156.3917  130.7630  151.2632 LP  0  0  0  0  0  0  0  0  0  0  0  0  # atno 17370 bound_to 10713
  157.7506  131.0266  150.3968 LP  0  0  0  0  0  0  0  0  0  0  0  0  # atno 17371 bound_to 10713
  140.0717  134.9699  157.1477 LP  0  0  0  0  0  0  0  0  0  0  0  0  # atno 17394 bound_to 11000
  140.3702  134.2399  155.7178 LP  0  0  0  0  0  0  0  0  0  0  0  0  # atno 17395 bound_to 11000

$$$$
