AV-unprocessed.smi:177|AV-procd|sdf|1440|dock1
  -GOLD-   2262019223D 1   1.00000     0.00000
 Structure written by MMmdl.
 61 65  0  0  0  0  0  0  0  0  1 V2000
  153.0151  136.8791  157.2090 C   0  0  0  0  0  0  0  0  0  0  0  0
  152.3008  136.8521  155.9829 O   0  0  0  0  0  0  0  0  0  0  0  0
  151.3772  137.9212  155.8252 C   0  0  1  0  0  0  0  0  0  0  0  0
  152.0836  139.2846  155.9521 C   0  0  0  0  0  0  0  0  0  0  0  0
  151.1009  140.4343  155.6889 C   0  0  0  0  0  0  0  0  0  0  0  0
  150.4242  140.2931  154.3067 C   0  0  2  0  0  0  0  0  0  0  0  0
  149.5084  141.3577  154.0419 O   0  0  0  0  0  0  0  0  0  0  0  0
  148.3094  141.3139  154.8123 C   0  0  0  0  0  0  0  0  0  0  0  0
  147.5973  139.9716  154.5967 C   0  0  0  0  0  0  0  0  0  0  0  0
  148.4964  138.8636  154.8989 N   0  0  0  0  0  0  0  0  0  0  0  0
  147.8497  137.6764  154.8840 C   0  0  0  0  0  0  0  0  0  0  0  0
  148.2378  136.6777  155.7205 N   0  0  0  0  0  0  0  0  0  0  0  0
  147.5782  135.5154  155.7192 C   0  0  0  0  0  0  0  0  0  0  0  0
  146.5266  135.1529  154.9810 N   0  0  0  0  0  0  0  0  0  0  0  0
  146.1418  136.1530  154.1363 C   0  0  0  0  0  0  0  0  0  0  0  0
  146.7450  137.4365  154.0265 C   0  0  0  0  0  0  0  0  0  0  0  0
  146.0792  138.1989  153.0762 N   0  0  0  0  0  0  0  0  0  0  0  0
  145.1272  137.4127  152.6539 C   0  0  0  0  0  0  0  0  0  0  0  0
  145.1003  136.1583  153.2232 N   0  0  0  0  0  0  0  0  0  0  0  0
  144.1420  135.0976  152.9456 C   0  0  0  0  0  0  0  0  0  0  0  0
  144.5135  134.1305  151.7802 C   0  0  0  0  0  0  0  0  0  0  0  0
  144.2958  134.8152  150.3975 C   0  0  0  0  0  0  0  0  0  0  0  0
  145.2372  135.8284  150.1074 O   0  0  0  0  0  0  0  0  0  0  0  0
  145.9599  133.5952  151.9381 C   0  0  0  0  0  0  0  0  0  0  0  0
  146.2558  132.4065  151.0080 C   0  0  0  0  0  0  0  0  0  0  0  0
  145.3360  131.3541  151.2673 O   0  0  0  0  0  0  0  0  0  0  0  0
  143.9891  131.7208  151.0001 C   0  0  0  0  0  0  0  0  0  0  0  0
  143.5707  132.9046  151.8946 C   0  0  0  0  0  0  0  0  0  0  0  0
  149.7355  138.9184  154.1145 C   0  0  2  0  0  0  0  0  0  0  0  0
  150.7370  137.7787  154.4329 C   0  0  0  0  0  0  0  0  0  0  0  0
  153.6827  136.0190  157.2586 H   0  0  0  0  0  0  0  0  0  0  0  0
  152.3370  136.8239  158.0616 H   0  0  0  0  0  0  0  0  0  0  0  0
  153.6245  137.7775  157.3043 H   0  0  0  0  0  0  0  0  0  0  0  0
  150.5918  137.8428  156.5778 H   0  0  0  0  0  0  0  0  0  0  0  0
  152.5159  139.4039  156.9453 H   0  0  0  0  0  0  0  0  0  0  0  0
  152.9119  139.3393  155.2445 H   0  0  0  0  0  0  0  0  0  0  0  0
  150.3599  140.4363  156.4875 H   0  0  0  0  0  0  0  0  0  0  0  0
  151.6230  141.3895  155.7492 H   0  0  0  0  0  0  0  0  0  0  0  0
  151.2092  140.3797  153.5543 H   0  0  0  0  0  0  0  0  0  0  0  0
  148.5170  141.4801  155.8692 H   0  0  0  0  0  0  0  0  0  0  0  0
  147.6621  142.1315  154.4955 H   0  0  0  0  0  0  0  0  0  0  0  0
  146.7097  139.9165  155.2284 H   0  0  0  0  0  0  0  0  0  0  0  0
  147.2601  139.8998  153.5613 H   0  0  0  0  0  0  0  0  0  0  0  0
  147.9431  134.7705  156.4108 H   0  0  0  0  0  0  0  0  0  0  0  0
  144.4183  137.7249  151.9011 H   0  0  0  0  0  0  0  0  0  0  0  0
  144.0087  134.5347  153.8705 H   0  0  0  0  0  0  0  0  0  0  0  0
  143.1763  135.5638  152.7457 H   0  0  0  0  0  0  0  0  0  0  0  0
  144.3603  134.0974  149.5818 H   0  0  0  0  0  0  0  0  0  0  0  0
  143.2952  135.2450  150.3418 H   0  0  0  0  0  0  0  0  0  0  0  0
  144.8189  136.6685  150.2201 H   0  0  0  0  0  0  0  0  0  0  0  0
  146.6943  134.3833  151.7714 H   0  0  0  0  0  0  0  0  0  0  0  0
  146.1092  133.2618  152.9657 H   0  0  0  0  0  0  0  0  0  0  0  0
  146.2132  132.6998  149.9585 H   0  0  0  0  0  0  0  0  0  0  0  0
  147.2654  132.0374  151.1896 H   0  0  0  0  0  0  0  0  0  0  0  0
  143.8641  131.9450  149.9407 H   0  0  0  0  0  0  0  0  0  0  0  0
  143.3515  130.8612  151.2069 H   0  0  0  0  0  0  0  0  0  0  0  0
  143.5599  132.5484  152.9258 H   0  0  0  0  0  0  0  0  0  0  0  0
  142.5437  133.1932  151.6677 H   0  0  0  0  0  0  0  0  0  0  0  0
  149.4526  138.8308  153.0642 H   0  0  0  0  0  0  0  0  0  0  0  0
  151.5281  137.7944  153.6822 H   0  0  0  0  0  0  0  0  0  0  0  0
  150.2682  136.7994  154.3343 H   0  0  0  0  0  0  0  0  0  0  0  0
  1  2  1  0  0  0  0
  1 31  1  0  0  0  0
  1 32  1  0  0  0  0
  1 33  1  0  0  0  0
  2  3  1  0  0  0  0
  3 30  1  0  0  0  0
  3  4  1  0  0  0  0
  3 34  1  0  0  0  0
  4  5  1  0  0  0  0
  4 35  1  0  0  0  0
  4 36  1  0  0  0  0
  5  6  1  0  0  0  0
  5 37  1  0  0  0  0
  5 38  1  0  0  0  0
  6 29  1  0  0  0  0
  6  7  1  0  0  0  0
  6 39  1  0  0  0  0
  7  8  1  0  0  0  0
  8  9  1  0  0  0  0
  8 40  1  0  0  0  0
  8 41  1  0  0  0  0
  9 10  1  0  0  0  0
  9 42  1  0  0  0  0
  9 43  1  0  0  0  0
 10 11  1  0  0  0  0
 10 29  1  0  0  0  0
 11 16  1  0  0  0  0
 11 12  2  0  0  0  0
 12 13  1  0  0  0  0
 13 14  2  0  0  0  0
 13 44  1  0  0  0  0
 14 15  1  0  0  0  0
 15 19  1  0  0  0  0
 15 16  2  0  0  0  0
 16 17  1  0  0  0  0
 17 18  2  0  0  0  0
 18 19  1  0  0  0  0
 18 45  1  0  0  0  0
 19 20  1  0  0  0  0
 20 21  1  0  0  0  0
 20 46  1  0  0  0  0
 20 47  1  0  0  0  0
 21 28  1  0  0  0  0
 21 22  1  0  0  0  0
 21 24  1  0  0  0  0
 22 23  1  0  0  0  0
 22 48  1  0  0  0  0
 22 49  1  0  0  0  0
 23 50  1  0  0  0  0
 24 25  1  0  0  0  0
 24 51  1  0  0  0  0
 24 52  1  0  0  0  0
 25 26  1  0  0  0  0
 25 53  1  0  0  0  0
 25 54  1  0  0  0  0
 26 27  1  0  0  0  0
 27 28  1  0  0  0  0
 27 55  1  0  0  0  0
 27 56  1  0  0  0  0
 28 57  1  0  0  0  0
 28 58  1  0  0  0  0
 29 30  1  0  0  0  0
 29 59  1  0  0  0  0
 30 60  1  0  0  0  0
 30 61  1  0  0  0  0
M  END
> <s_m_source_file>
AV-unprocessed.smi

> <i_m_source_file_index>
177

> <i_lp_mmshare_version>
43012

> <i_f3d_flags>
0

> <s_epik_input>
W0NIM11PW0NASF0oW0NIMl1bQ0gyXTEpW0NIMl1bQ0BIXShbQ0BASF0xMilOKFtDSDJdW0NIMl1PMiljKG5bY0hdbjMpYyhjMzQpbltjSF1uNFtDSDJdQzUoW0NIMl1bT0hdKVtDSDJdW0NIMl1PW0NIMl1bQ0gyXTU=

> <s_epik_cmdline>
J2VwaWtfcHl0aG9uJywgJy1waCcsICc3LjAnLCAnLXRuJywgJzgnLCAnLW1hJywgJzIwMCcsICctbWV0YWxfYmluZGluZycsICctaW1hZScsICc8aW5maWxlLm1hZT4nLCAnLW9tYWUnLCAnPG91dGZpbGUubWFlPic=

> <r_lp_tautomer_probability>
1

> <r_epik_Ionization_Penalty>
0.0065899

> <r_epik_Ionization_Penalty_Charging>
0

> <r_epik_Ionization_Penalty_Neutral>
0.0065899

> <r_epik_State_Penalty>
0.00470042

> <r_epik_Charging_Adjusted_Penalty>
0.00470042

> <i_epik_Tot_Q>
0

> <i_epik_Tot_abs_Q>
0

> <r_epik_Metal_State_Penalty>
-0

> <b_epik_Metal_Only>
0

> <s_lp_Force_Field>
OPLS_2005

> <r_lp_Energy>
50.2721

> <b_lp_Chiralities_Consistent>
1

> <s_lp_Variant>
AV-unprocessed.smi:177-4

> <Gold.Version>
5.8.1

> <Gold.Id.Protein>
6NUR|6NUR_protein|mol2

> <Gold.PLP.Fitness>
49.0990

> <Gold.PLP.PLP>
-40.2707

> <Gold.PLP.part.hbond>
-5.0000

> <Gold.PLP.part.metal>
0.0000

> <Gold.PLP.part.buried>
-0.2433

> <Gold.PLP.part.nonpolar>
-35.4282

> <Gold.PLP.part.repulsive>
0.7769

> <Gold.PLP.ligand.clash>
0.5590

> <Gold.PLP.ligand.torsion>
1.2467

> <Gold.PLP.Chemscore.Hbond>
2.5271

> <Gold.PLP.Chemscore.CHOScore>
1.3726

> <Gold.PLP.Chemscore.Metal>
0.0000

> <Gold.Chemscore.Hbonds>
donor molecule, donor type, donor heavy atom, donor atom, acceptor molecule, acceptor atom, score
      L1  H    23    50       P1 10171  0.67
      P1  H  8011  8017       L1     7  0.72
      P1  H 10752 10763       L1     2  0.93
      L1  C    18    45       P1 10171  1.00
      L1  C    18    45       P1 10175  0.09

> <Gold.PLP.Chemscore.Internal.Correction>
0.1815

> <Gold.Rescore>
     Score         DG    S(hbond)    S(metal)    S(lipo)     H(rot)  DE(clash)    DE(int)     intcor
     12.76     -18.36       2.29        0.00     101.09       2.58       1.76       3.83       ----

> <Gold.Chemscore.Fitness>
12.7600

> <Gold.Chemscore.DG>
-18.3570

> <Gold.Chemscore.ZeroCoef>
-5.4800

> <Gold.Chemscore.Hbond>
2.2922

> <Gold.Chemscore.Metal>
0.0000

> <Gold.Chemscore.Lipo>
101.0881

> <Gold.Chemscore.Internal_Hbond>
0.0000

> <Gold.Chemscore.DEClash>
1.7624

> <Gold.Chemscore.DEInternal>
3.8346

> <Gold.Chemscore.Rot>
2.5806

> <Gold.Chemscore.Internal.Correction>
   9.000000E+99

> <Gold.Chemscore.Hbonds>
donor molecule, donor type, donor heavy atom, donor atom, acceptor molecule, acceptor atom, score
      L1  H    23    50       P1 10171  0.67
      P1  H  8011  8017       L1     7  0.63
      P1  H 10752 10763       L1     2  0.64

> <Gold.Chemscore.Hbond.Weighted>
-7.6560

> <Gold.Chemscore.Metal.Weighted>
-0.0000

> <Gold.Chemscore.Lipo.Weighted>
-11.8273

> <Gold.Chemscore.Internal_Hbond.Weighted>
0.0000

> <Gold.Chemscore.DEClash.Weighted>
1.7624

> <Gold.Chemscore.DEInternal.Weighted>
3.8346

> <Gold.Chemscore.Rot.Weighted>
6.6062

> <Gold.Chemscore.Internal.Correction.Weighted>
   9.000000E+99

> <Gold.Protein.RotatedTorsions>
[ 6907 6896 6895 6894 ] final  -94.10 input  -60.11 | X-H torsion
[ 7974 7965 7964 7962 ] final  -91.14 input  175.53 | X-H torsion
[ 8008 7997 7996 7995 ] final -117.25 input   59.86 | X-H torsion
[ 10167 10162 10161 10158 ] final  -37.19 input  -65.29 | X-H torsion
[ 10718 10713 10712 10709 ] final  -60.90 input   66.30 | X-H torsion
[ 10763 10752 10751 10750 ] final   75.40 input  -60.55 | X-H torsion
[ 11005 11000 10999 10996 ] final   40.78 input  -57.11 | X-H torsion

> <Gold.Protein.ActiveResidues>
 VAL166  LYS551  ARG553  GLY616  TRP617  ASP618  TYR619  PRO620  LYS621  CYS622 
 ASP623  PHE694  ASN695  SER759  ASP760  ASP761  ALA762  ILE779  LEU786  VAL792 
 PHE793  MET794  SER795  GLU796  ALA797  LYS798  CYS799  TRP800  GLU811  SER814 

> <Gold.Protein.RotatedAtoms>
  150.6935  134.1865  159.4268 H   0  0  0  0  0  0  0  0  0  0  0  0  # atno 6907 bound_to 6896
  151.9837  135.0013  160.0568 H   0  0  0  0  0  0  0  0  0  0  0  0  # atno 6908 bound_to 6896
  152.1731  133.4622  159.4956 H   0  0  0  0  0  0  0  0  0  0  0  0  # atno 6909 bound_to 6896
  145.4171  140.9549  143.2201 H   0  0  0  0  0  0  0  0  0  0  0  0  # atno 7974 bound_to 7965
  155.0807  140.0394  157.2638 H   0  0  0  0  0  0  0  0  0  0  0  0  # atno 8008 bound_to 7997
  154.6909  140.2653  155.6789 H   0  0  0  0  0  0  0  0  0  0  0  0  # atno 8009 bound_to 7997
  156.2728  140.2760  156.1486 H   0  0  0  0  0  0  0  0  0  0  0  0  # atno 8010 bound_to 7997
  140.7124  143.3358  151.2465 H   0  0  0  0  0  0  0  0  0  0  0  0  # atno 10167 bound_to 10162
  156.0958  130.4193  150.0919 H   0  0  0  0  0  0  0  0  0  0  0  0  # atno 10718 bound_to 10713
  153.0652  135.4990  154.8185 H   0  0  0  0  0  0  0  0  0  0  0  0  # atno 10763 bound_to 10752
  154.6943  135.2990  154.9436 H   0  0  0  0  0  0  0  0  0  0  0  0  # atno 10764 bound_to 10752
  154.0180  135.6745  153.4823 H   0  0  0  0  0  0  0  0  0  0  0  0  # atno 10765 bound_to 10752
  140.1897  134.4001  155.8153 H   0  0  0  0  0  0  0  0  0  0  0  0  # atno 11005 bound_to 11000
  144.8270  139.5693  143.6961 LP  0  0  0  0  0  0  0  0  0  0  0  0  # atno 17320 bound_to 7965
  146.2675  139.6555  142.9319 LP  0  0  0  0  0  0  0  0  0  0  0  0  # atno 17321 bound_to 7965
  139.6853  143.9784  152.2831 LP  0  0  0  0  0  0  0  0  0  0  0  0  # atno 17342 bound_to 10162
  139.9428  144.6671  150.8250 LP  0  0  0  0  0  0  0  0  0  0  0  0  # atno 17343 bound_to 10162
  156.8918  130.9591  151.3587 LP  0  0  0  0  0  0  0  0  0  0  0  0  # atno 17370 bound_to 10713
  157.6119  130.8589  149.8965 LP  0  0  0  0  0  0  0  0  0  0  0  0  # atno 17371 bound_to 10713
  141.2226  133.7040  156.8074 LP  0  0  0  0  0  0  0  0  0  0  0  0  # atno 17394 bound_to 11000
  140.2173  134.8783  157.3339 LP  0  0  0  0  0  0  0  0  0  0  0  0  # atno 17395 bound_to 11000

$$$$
