#       Name:                AV-unprocessed.smi:779
#       Creating user name   scv26
#       Creation time:       Fri Mar 27 01:12:44 2020


#       File generated by GOLD software.
#

@<TRIPOS>MOLECULE
AV-unprocessed.smi:779
    31    31     1
SMALL
NO_CHARGES


@<TRIPOS>ATOM
      1 ****        -2.0143   3.3085  -0.5115 O.co2          1 S1                 0.0000
      2 ****        -2.6584   2.2370  -0.4617 C.2            1 S1                 0.0000
      3 ****        -3.9058   2.1403  -0.4360 O.co2          1 S1                -1.0000
      4 ****        -1.7763   0.9148  -0.4231 C.2            1 S1                 0.0000
      5 ****        -0.4171   0.9143  -0.4171 C.2            1 S1                 0.0000
      6 ****         0.3503  -0.2392  -0.3786 N.am           1 S1                 0.0000
      7 ****         1.7920  -0.2098  -0.3515 C.3            1 S1                 0.0000
      8 ****         2.3617  -0.3572   1.0692 C.3            1 S1                 0.0000
      9 ****         3.7659  -0.2205   1.0384 O.3            1 S1                 0.0000
     10 ****        -0.2843  -1.4988  -0.3263 C.2            1 S1                 0.0000
     11 ****         0.3301  -2.5645  -0.2702 O.2            1 S1                 0.0000
     12 ****        -1.6775  -1.5001  -0.3363 N.am           1 S1                 0.0000
     13 ****        -2.5038  -0.3724  -0.3843 C.2            1 S1                 0.0000
     14 ****        -3.7211  -0.5545  -0.3890 O.2            1 S1                 0.0000
     15 ****        -2.1350  -2.3992  -0.3033 H              1 S1                 0.0000
     16 ****         0.1029   1.8615  -0.4401 H              1 S1                 0.0000
     17 ****         2.1546  -0.9803  -1.0356 H              1 S1                 0.0000
     18 ****         2.0831   0.7464  -0.7894 H              1 S1                 0.0000
     19 ****         1.9483   0.4064   1.7288 H              1 S1                 0.0000
     20 ****         2.1102  -1.3283   1.4963 H              1 S1                 0.0000
     21 ****         4.0943  -0.3036   1.9206 H              1 S1                 0.0000
     22 ****        -2.4992   4.1827  -0.5341 LP             1 S1                 0.0000
     23 ****        -1.0146   3.2906  -0.5287 LP             1 S1                 0.0000
     24 ****        -4.4717   2.9645  -0.4553 LP             1 S1                 0.0000
     25 ****        -4.3367   1.2387  -0.3960 LP             1 S1                 0.0000
     26 ****         4.0096   0.6770   0.6708 LP             1 S1                 0.0000
     27 ****         4.1620  -0.9355   0.4622 LP             1 S1                 0.0000
     28 ****         1.3301  -2.5652  -0.2598 LP             1 S1                 0.0000
     29 ****        -0.1709  -3.4293  -0.2349 LP             1 S1                 0.0000
     30 ****        -4.3435   0.2274  -0.4223 LP             1 S1                 0.0000
     31 ****        -4.0877  -1.4845  -0.3595 LP             1 S1                 0.0000
@<TRIPOS>BOND
    1    1    2 ar    
    2    2    3 ar    
    3    2    4 1     
    4    4   13 1     
    5    4    5 2     
    6    5    6 1     
    7    5   16 1     
    8    6    7 1     
    9    6   10 1     
   10    7    8 1     
   11    7   17 1     
   12    7   18 1     
   13    8    9 1     
   14    8   19 1     
   15    8   20 1     
   16    9   21 1     
   17   10   11 2     
   18   10   12 1     
   19   12   15 1     
   20   12   13 1     
   21   13   14 2     
   22    1   22 1     
   23    1   23 1     
   24    3   24 1     
   25    3   25 1     
   26    9   26 1     
   27    9   27 1     
   28   11   28 1     
   29   11   29 1     
   30   14   30 1     
   31   14   31 1     
@<TRIPOS>SUBSTRUCTURE
      1 S1             1
@<TRIPOS>SET
LONE_PAIRS      STATIC     ATOMS    <user>   **** ""
10 22 23 24 25 26 27 28 29 30 31
DONOR_HYDROGENS      STATIC     ATOMS    <user>   **** ""
2 21 15
ATOM$BLUE        STATIC     ATOMS    COLORGROUP SYSTEM
10 22 23 24 25 26 27 28 29 30 31
ATOM$RED        STATIC     ATOMS    COLORGROUP SYSTEM
2 21 15
