AV-unprocessed.smi:1893|AV-procd|sdf|7673|dock1
  -GOLD-   22720 9413D 1   1.00000     0.00000
 Structure written by MMmdl.
 43 44  0  0  0  0  0  0  0  0  2 V2000
  144.0268  136.0768  152.2276 C   0  0  0  0  0  0  0  0  0  0  0  0
  145.4407  136.1196  151.6080 C   0  0  2  0  0  0  0  0  0  0  0  0
  145.6125  135.0953  150.4666 C   0  0  0  0  0  0  0  0  0  0  0  0
  145.7104  133.6557  150.9928 C   0  0  0  0  0  0  0  0  0  0  0  0
  146.8241  133.5541  152.0423 C   0  0  0  0  0  0  0  0  0  0  0  0
  146.6277  134.5861  153.1648 C   0  0  0  0  0  0  0  0  0  0  0  0
  146.5351  135.9660  152.6134 N   0  3  2  0  0  0  0  0  0  0  0  0
  146.5380  137.0233  153.6565 C   0  0  0  0  0  0  0  0  0  0  0  0
  146.7069  138.4340  153.0607 C   0  0  0  0  0  0  0  0  0  0  0  0
  147.8650  139.1107  153.6308 N   0  0  0  0  0  0  0  0  0  0  0  0
  148.0468  139.3492  154.9394 C   0  0  0  0  0  0  0  0  0  0  0  0
  147.2518  138.9791  155.8043 O   0  0  0  0  0  0  0  0  0  0  0  0
  149.3072  140.1414  155.3184 C   0  0  2  0  0  0  0  0  0  0  0  0
  149.3789  141.5125  154.6155 C   0  0  0  0  0  0  0  0  0  0  0  0
  150.4933  139.3286  155.0768 N   0  0  0  0  0  0  0  0  0  0  0  0
  150.5992  138.0963  154.5743 C   0  0  0  0  0  0  0  0  0  0  0  0
  151.8487  137.6765  154.4337 N   0  0  0  0  0  0  0  0  0  0  0  0
  152.5124  138.7790  154.8922 C   0  0  0  0  0  0  0  0  0  0  0  0
  151.7491  139.8025  155.2745 N   0  0  0  0  0  0  0  0  0  0  0  0
  143.2667  136.2149  151.4581 H   0  0  0  0  0  0  0  0  0  0  0  0
  143.8814  136.8702  152.9607 H   0  0  0  0  0  0  0  0  0  0  0  0
  143.8170  135.1287  152.7212 H   0  0  0  0  0  0  0  0  0  0  0  0
  145.5587  137.1070  151.1591 H   0  0  0  0  0  0  0  0  0  0  0  0
  144.7908  135.1790  149.7544 H   0  0  0  0  0  0  0  0  0  0  0  0
  146.5198  135.3304  149.9083 H   0  0  0  0  0  0  0  0  0  0  0  0
  144.7596  133.3482  151.4289 H   0  0  0  0  0  0  0  0  0  0  0  0
  145.9081  132.9689  150.1692 H   0  0  0  0  0  0  0  0  0  0  0  0
  146.8503  132.5477  152.4614 H   0  0  0  0  0  0  0  0  0  0  0  0
  147.7914  133.7150  151.5642 H   0  0  0  0  0  0  0  0  0  0  0  0
  145.7345  134.3517  153.7448 H   0  0  0  0  0  0  0  0  0  0  0  0
  147.4673  134.5120  153.8548 H   0  0  0  0  0  0  0  0  0  0  0  0
  145.5908  136.9997  154.1979 H   0  0  0  0  0  0  0  0  0  0  0  0
  147.3177  136.8118  154.3898 H   0  0  0  0  0  0  0  0  0  0  0  0
  146.8065  138.4036  151.9754 H   0  0  0  0  0  0  0  0  0  0  0  0
  145.8233  139.0360  153.2744 H   0  0  0  0  0  0  0  0  0  0  0  0
  148.5682  139.4406  152.9852 H   0  0  0  0  0  0  0  0  0  0  0  0
  149.2658  140.3331  156.3920 H   0  0  0  0  0  0  0  0  0  0  0  0
  148.5072  142.1222  154.8554 H   0  0  0  0  0  0  0  0  0  0  0  0
  149.4256  141.4177  153.5297 H   0  0  0  0  0  0  0  0  0  0  0  0
  150.2617  142.0666  154.9358 H   0  0  0  0  0  0  0  0  0  0  0  0
  149.7441  137.4966  154.2982 H   0  0  0  0  0  0  0  0  0  0  0  0
  153.5903  138.8328  154.9363 H   0  0  0  0  0  0  0  0  0  0  0  0
  147.3865  136.1077  152.0891 H   0  0  0  0  0  0  0  0  0  0  0  0
  1  2  1  0  0  0  0
  1 20  1  0  0  0  0
  1 21  1  0  0  0  0
  1 22  1  0  0  0  0
  2  7  1  0  0  0  0
  2  3  1  0  0  0  0
  2 23  1  0  0  0  0
  3  4  1  0  0  0  0
  3 24  1  0  0  0  0
  3 25  1  0  0  0  0
  4  5  1  0  0  0  0
  4 26  1  0  0  0  0
  4 27  1  0  0  0  0
  5  6  1  0  0  0  0
  5 28  1  0  0  0  0
  5 29  1  0  0  0  0
  6  7  1  0  0  0  0
  6 30  1  0  0  0  0
  6 31  1  0  0  0  0
  7  8  1  0  0  0  0
  7 43  1  0  0  0  0
  8  9  1  0  0  0  0
  8 32  1  0  0  0  0
  8 33  1  0  0  0  0
  9 10  1  0  0  0  0
  9 34  1  0  0  0  0
  9 35  1  0  0  0  0
 10 11  1  0  0  0  0
 10 36  1  0  0  0  0
 11 12  2  0  0  0  0
 11 13  1  0  0  0  0
 13 14  1  0  0  0  0
 13 15  1  0  0  0  0
 13 37  1  0  0  0  0
 14 38  1  0  0  0  0
 14 39  1  0  0  0  0
 14 40  1  0  0  0  0
 15 19  1  0  0  0  0
 15 16  1  0  0  0  0
 16 17  2  0  0  0  0
 16 41  1  0  0  0  0
 17 18  1  0  0  0  0
 18 19  2  0  0  0  0
 18 42  1  0  0  0  0
M  CHG  1   7   1
M  END
> <s_m_source_file>
AV-unprocessed.smi

> <i_m_source_file_index>
1893

> <i_lp_mmshare_version>
43012

> <i_f3d_flags>
0

> <s_epik_input>
W0NIM11bQ0BASF0xW0NIMl1bQ0gyXVtDSDJdW0NIMl1OMVtDSDJdW0NIMl1bTkhdQyg9TylbQ0BIXShbQ0gzXSluMltjSF1uW2NIXW4y

> <s_epik_cmdline>
J2VwaWtfcHl0aG9uJywgJy1waCcsICc3LjAnLCAnLXRuJywgJzgnLCAnLW1hJywgJzIwMCcsICctbWV0YWxfYmluZGluZycsICctaW1hZScsICc8aW5maWxlLm1hZT4nLCAnLW9tYWUnLCAnPG91dGZpbGUubWFlPic=

> <r_lp_tautomer_probability>
1

> <r_epik_Ionization_Penalty>
0.00266409

> <r_epik_Ionization_Penalty_Charging>
0.00265606

> <r_epik_Ionization_Penalty_Neutral>
8.02794e-06

> <r_epik_State_Penalty>
0.00184955

> <r_epik_Charging_Adjusted_Penalty>
0.00450561

> <i_epik_Tot_Q>
1

> <i_epik_Tot_abs_Q>
1

> <r_epik_Metal_State_Penalty>
-0

> <b_epik_Metal_Only>
0

> <s_lp_Force_Field>
OPLS_2005

> <r_lp_Energy>
25.3191

> <b_lp_Chiralities_Consistent>
1

> <s_lp_Variant>
AV-unprocessed.smi:1893-3

> <Gold.Version>
5.8.1

> <Gold.Id.Protein>
6NUR|6NUR_protein|mol2

> <Gold.PLP.Fitness>
44.3818

> <Gold.PLP.PLP>
-30.2819

> <Gold.PLP.part.hbond>
-3.4086

> <Gold.PLP.part.metal>
0.0000

> <Gold.PLP.part.buried>
-2.7235

> <Gold.PLP.part.nonpolar>
-24.8730

> <Gold.PLP.part.repulsive>
1.0404

> <Gold.PLP.ligand.clash>
0.0000

> <Gold.PLP.ligand.torsion>
0.5377

> <Gold.PLP.Chemscore.Hbond>
4.0975

> <Gold.PLP.Chemscore.CHOScore>
0.8526

> <Gold.PLP.Chemscore.Metal>
0.0000

> <Gold.Chemscore.Hbonds>
donor molecule, donor type, donor heavy atom, donor atom, acceptor molecule, acceptor atom, score
      L1  H     7    43       P1  7948  2.00
      L1  H    10    36       P1  7957  0.63
      P1  H  7989  7998       L1    19  0.50
      P1  H 10752 10765       L1    17  0.33
      L1  C    16    41       P1  7948  0.26

> <Gold.PLP.Chemscore.Internal.Correction>
0.3250

> <Gold.Rescore>
     Score         DG    S(hbond)    S(metal)    S(lipo)     H(rot)  DE(clash)    DE(int)     intcor
      9.48     -13.24       2.38        0.00      54.04       2.54       2.16       1.60       ----

> <Gold.Chemscore.Fitness>
9.4850

> <Gold.Chemscore.DG>
-13.2446

> <Gold.Chemscore.ZeroCoef>
-5.4800

> <Gold.Chemscore.Hbond>
2.3769

> <Gold.Chemscore.Metal>
0.0000

> <Gold.Chemscore.Lipo>
54.0362

> <Gold.Chemscore.Internal_Hbond>
0.0000

> <Gold.Chemscore.DEClash>
2.1620

> <Gold.Chemscore.DEInternal>
1.5976

> <Gold.Chemscore.Rot>
2.5377

> <Gold.Chemscore.Internal.Correction>
   9.000000E+99

> <Gold.Chemscore.Hbonds>
donor molecule, donor type, donor heavy atom, donor atom, acceptor molecule, acceptor atom, score
      L1  H     7    43       P1  7948  0.96
      L1  H    10    36       P1  7957  0.62
      P1  H  7989  7998       L1    19  0.01
      P1  H 10752 10765       L1    17  0.30

> <Gold.Chemscore.Hbond.Weighted>
-7.9390

> <Gold.Chemscore.Metal.Weighted>
-0.0000

> <Gold.Chemscore.Lipo.Weighted>
-6.3222

> <Gold.Chemscore.Internal_Hbond.Weighted>
0.0000

> <Gold.Chemscore.DEClash.Weighted>
2.1620

> <Gold.Chemscore.DEInternal.Weighted>
1.5976

> <Gold.Chemscore.Rot.Weighted>
6.4966

> <Gold.Chemscore.Internal.Correction.Weighted>
   9.000000E+99

> <Gold.Protein.RotatedTorsions>
[ 6907 6896 6895 6894 ] final   -5.21 input  -60.11 | X-H torsion
[ 7974 7965 7964 7962 ] final  138.41 input  175.53 | X-H torsion
[ 8008 7997 7996 7995 ] final   73.26 input   59.86 | X-H torsion
[ 10167 10162 10161 10158 ] final    7.93 input  -65.29 | X-H torsion
[ 10718 10713 10712 10709 ] final  -57.14 input   66.30 | X-H torsion
[ 10763 10752 10751 10750 ] final  158.49 input  -60.55 | X-H torsion
[ 11005 11000 10999 10996 ] final  -23.62 input  -57.11 | X-H torsion

> <Gold.Protein.ActiveResidues>
 VAL166  LYS551  ARG553  GLY616  TRP617  ASP618  TYR619  PRO620  LYS621  CYS622 
 ASP623  PHE694  ASN695  SER759  ASP760  ASP761  ALA762  ILE779  LEU786  VAL792 
 PHE793  MET794  SER795  GLU796  ALA797  LYS798  CYS799  TRP800  GLU811  SER814 

> <Gold.Protein.RotatedAtoms>
  151.4852  135.1054  159.9788 H   0  0  0  0  0  0  0  0  0  0  0  0  # atno 6907 bound_to 6896
  152.4763  133.8143  159.7030 H   0  0  0  0  0  0  0  0  0  0  0  0  # atno 6908 bound_to 6896
  150.8804  133.7319  159.2960 H   0  0  0  0  0  0  0  0  0  0  0  0  # atno 6909 bound_to 6896
  144.9375  139.4971  143.5588 H   0  0  0  0  0  0  0  0  0  0  0  0  # atno 7974 bound_to 7965
  155.7811  140.3482  155.5298 H   0  0  0  0  0  0  0  0  0  0  0  0  # atno 8008 bound_to 7997
  155.8728  140.0989  157.1559 H   0  0  0  0  0  0  0  0  0  0  0  0  # atno 8009 bound_to 7997
  154.4019  140.1337  156.4086 H   0  0  0  0  0  0  0  0  0  0  0  0  # atno 8010 bound_to 7997
  140.6344  143.7921  150.7339 H   0  0  0  0  0  0  0  0  0  0  0  0  # atno 10167 bound_to 10162
  156.1234  130.4164  150.0400 H   0  0  0  0  0  0  0  0  0  0  0  0  # atno 10718 bound_to 10713
  154.2169  135.2783  155.2938 H   0  0  0  0  0  0  0  0  0  0  0  0  # atno 10763 bound_to 10752
  154.5733  135.5612  153.7119 H   0  0  0  0  0  0  0  0  0  0  0  0  # atno 10764 bound_to 10752
  153.0051  135.6326  154.2309 H   0  0  0  0  0  0  0  0  0  0  0  0  # atno 10765 bound_to 10752
  140.8768  133.7681  156.0253 H   0  0  0  0  0  0  0  0  0  0  0  0  # atno 11005 bound_to 11000
  146.3272  139.8370  142.8897 LP  0  0  0  0  0  0  0  0  0  0  0  0  # atno 17320 bound_to 7965
  145.3043  141.0203  143.3590 LP  0  0  0  0  0  0  0  0  0  0  0  0  # atno 17321 bound_to 7965
  140.1539  143.4334  152.2113 LP  0  0  0  0  0  0  0  0  0  0  0  0  # atno 17342 bound_to 10162
  139.5555  144.7369  151.4307 LP  0  0  0  0  0  0  0  0  0  0  0  0  # atno 17343 bound_to 10162
  156.8332  130.9399  151.3636 LP  0  0  0  0  0  0  0  0  0  0  0  0  # atno 17370 bound_to 10713
  157.6417  130.8811  149.9460 LP  0  0  0  0  0  0  0  0  0  0  0  0  # atno 17371 bound_to 10713
  140.8508  134.2956  157.5276 LP  0  0  0  0  0  0  0  0  0  0  0  0  # atno 17394 bound_to 11000
  139.8716  134.9467  156.3945 LP  0  0  0  0  0  0  0  0  0  0  0  0  # atno 17395 bound_to 11000

$$$$
