AV-unprocessed.smi:810|AV-procd|sdf|3809|dock4
  -GOLD-   22720 1253D 1   1.00000     0.00000
 Structure written by MMmdl.
 34 35  0  0  0  0  0  0  0  0  1 V2000
  150.5667  140.8625  157.4412 O   0  0  0  0  0  0  0  0  0  0  0  0
  150.1426  141.8942  156.9214 C   0  0  0  0  0  0  0  0  0  0  0  0
  150.3094  143.1354  157.4089 N   0  0  0  0  0  0  0  0  0  0  0  0
  150.9991  143.5386  158.5842 C   0  0  0  0  0  0  0  0  0  0  0  0
  151.9538  142.7419  159.2619 C   0  0  0  0  0  0  0  0  0  0  0  0
  152.5815  143.2633  160.4095 C   0  0  0  0  0  0  0  0  0  0  0  0
  152.2388  144.5618  160.8333 C   0  0  0  0  0  0  0  0  0  0  0  0
  151.3417  145.3375  160.1891 N   0  0  0  0  0  0  0  0  0  0  0  0
  150.7443  144.8315  159.0893 C   0  0  0  0  0  0  0  0  0  0  0  0
  149.4265  141.9128  155.7881 N   0  0  0  0  0  0  0  0  0  0  0  0
  149.0357  140.7374  155.0133 C   0  0  2  0  0  0  0  0  0  0  0  0
  150.2904  139.9263  154.6352 C   0  0  0  0  0  0  0  0  0  0  0  0
  149.9771  138.5519  154.0207 C   0  0  0  0  0  0  0  0  0  0  0  0
  151.1799  137.8965  153.6815 O   0  0  0  0  0  0  0  0  0  0  0  0
  148.2282  141.0895  153.7752 C   0  0  0  0  0  0  0  0  0  0  0  0
  147.0517  142.0341  153.8463 C   0  0  0  0  0  0  0  0  0  0  0  0
  146.8255  140.5625  153.5849 C   0  0  0  0  0  0  0  0  0  0  0  0
  149.8325  143.8743  156.9131 H   0  0  0  0  0  0  0  0  0  0  0  0
  152.2258  141.7551  158.9214 H   0  0  0  0  0  0  0  0  0  0  0  0
  153.3126  142.6814  160.9510 H   0  0  0  0  0  0  0  0  0  0  0  0
  152.7020  144.9910  161.7094 H   0  0  0  0  0  0  0  0  0  0  0  0
  150.0340  145.4809  158.5984 H   0  0  0  0  0  0  0  0  0  0  0  0
  149.1158  142.8075  155.4390 H   0  0  0  0  0  0  0  0  0  0  0  0
  148.4141  140.0947  155.6402 H   0  0  0  0  0  0  0  0  0  0  0  0
  150.8809  140.5006  153.9198 H   0  0  0  0  0  0  0  0  0  0  0  0
  150.9229  139.7987  155.5149 H   0  0  0  0  0  0  0  0  0  0  0  0
  149.4215  137.9241  154.7177 H   0  0  0  0  0  0  0  0  0  0  0  0
  149.3682  138.6627  153.1230 H   0  0  0  0  0  0  0  0  0  0  0  0
  151.0416  137.4052  152.8861 H   0  0  0  0  0  0  0  0  0  0  0  0
  148.8296  141.1523  152.8701 H   0  0  0  0  0  0  0  0  0  0  0  0
  146.7655  142.4188  154.8233 H   0  0  0  0  0  0  0  0  0  0  0  0
  146.9108  142.7220  153.0151 H   0  0  0  0  0  0  0  0  0  0  0  0
  146.5311  140.2689  152.5795 H   0  0  0  0  0  0  0  0  0  0  0  0
  146.3907  139.9724  154.3894 H   0  0  0  0  0  0  0  0  0  0  0  0
  1  2  2  0  0  0  0
  2  3  1  0  0  0  0
  2 10  1  0  0  0  0
  3  4  1  0  0  0  0
  3 18  1  0  0  0  0
  4  9  1  0  0  0  0
  4  5  2  0  0  0  0
  5  6  1  0  0  0  0
  5 19  1  0  0  0  0
  6  7  2  0  0  0  0
  6 20  1  0  0  0  0
  7  8  1  0  0  0  0
  7 21  1  0  0  0  0
  8  9  2  0  0  0  0
  9 22  1  0  0  0  0
 10 11  1  0  0  0  0
 10 23  1  0  0  0  0
 11 12  1  0  0  0  0
 11 15  1  0  0  0  0
 11 24  1  0  0  0  0
 12 13  1  0  0  0  0
 12 25  1  0  0  0  0
 12 26  1  0  0  0  0
 13 14  1  0  0  0  0
 13 27  1  0  0  0  0
 13 28  1  0  0  0  0
 14 29  1  0  0  0  0
 15 17  1  0  0  0  0
 15 16  1  0  0  0  0
 15 30  1  0  0  0  0
 16 17  1  0  0  0  0
 16 31  1  0  0  0  0
 16 32  1  0  0  0  0
 17 33  1  0  0  0  0
 17 34  1  0  0  0  0
M  END
> <s_m_source_file>
AV-unprocessed.smi

> <i_m_source_file_index>
810

> <i_lp_mmshare_version>
43012

> <i_f3d_flags>
0

> <s_epik_input>
W09IXVtDSDJdW0NIMl1bQ0BIXShbQ0hdMVtDSDJdW0NIMl0xKVtOSF1DKD1PKVtOSF1jMltjSF1bY0hdW2NIXW5bY0hdMg==

> <s_epik_cmdline>
J2VwaWtfcHl0aG9uJywgJy1waCcsICc3LjAnLCAnLXRuJywgJzgnLCAnLW1hJywgJzIwMCcsICctbWV0YWxfYmluZGluZycsICctaW1hZScsICc8aW5maWxlLm1hZT4nLCAnLW9tYWUnLCAnPG91dGZpbGUubWFlPic=

> <r_epik_Ionization_Penalty>
0.00486911

> <r_epik_Ionization_Penalty_Charging>
0

> <r_epik_Ionization_Penalty_Neutral>
0.00486911

> <r_epik_State_Penalty>
0.00350304

> <r_epik_Charging_Adjusted_Penalty>
0.00350304

> <i_epik_Tot_Q>
0

> <i_epik_Tot_abs_Q>
0

> <r_epik_Metal_State_Penalty>
-0

> <b_epik_Metal_Only>
0

> <s_lp_Force_Field>
OPLS_2005

> <r_lp_Energy>
17.5915

> <b_lp_Chiralities_Consistent>
1

> <s_lp_Variant>
AV-unprocessed.smi:810-1

> <Gold.Version>
5.8.1

> <Gold.Id.Protein>
6NUR|6NUR_protein|mol2

> <Gold.PLP.Fitness>
47.9294

> <Gold.PLP.PLP>
-36.6557

> <Gold.PLP.part.hbond>
-3.3121

> <Gold.PLP.part.metal>
0.0000

> <Gold.PLP.part.buried>
-4.3459

> <Gold.PLP.part.nonpolar>
-29.0887

> <Gold.PLP.part.repulsive>
0.3367

> <Gold.PLP.ligand.clash>
0.0000

> <Gold.PLP.ligand.torsion>
0.9032

> <Gold.PLP.Chemscore.Hbond>
3.0000

> <Gold.PLP.Chemscore.CHOScore>
0.9925

> <Gold.PLP.Chemscore.Metal>
0.0000

> <Gold.Chemscore.Hbonds>
donor molecule, donor type, donor heavy atom, donor atom, acceptor molecule, acceptor atom, score
      L1  H     3    18       P1  8028  1.00
      L1  H    10    23       P1  8028  1.00
      L1  H    14    29       P1  7949  1.00
      L1  C     9    22       P1  8029  0.97

> <Gold.PLP.Chemscore.Internal.Correction>
1.1027

> <Gold.Rescore>
     Score         DG    S(hbond)    S(metal)    S(lipo)     H(rot)  DE(clash)    DE(int)     intcor
     15.59     -18.11       2.29        0.00      93.07       2.31       0.49       2.04       ----

> <Gold.Chemscore.Fitness>
15.5915

> <Gold.Chemscore.DG>
-18.1147

> <Gold.Chemscore.ZeroCoef>
-5.4800

> <Gold.Chemscore.Hbond>
2.2930

> <Gold.Chemscore.Metal>
0.0000

> <Gold.Chemscore.Lipo>
93.0658

> <Gold.Chemscore.Internal_Hbond>
0.0000

> <Gold.Chemscore.DEClash>
0.4861

> <Gold.Chemscore.DEInternal>
2.0371

> <Gold.Chemscore.Rot>
2.3097

> <Gold.Chemscore.Internal.Correction>
   9.000000E+99

> <Gold.Chemscore.Hbonds>
donor molecule, donor type, donor heavy atom, donor atom, acceptor molecule, acceptor atom, score
      L1  H     3    18       P1  8028  0.96
      L1  H    10    23       P1  8028  0.95
      L1  H    14    29       P1  7949  0.34

> <Gold.Chemscore.Hbond.Weighted>
-7.6587

> <Gold.Chemscore.Metal.Weighted>
-0.0000

> <Gold.Chemscore.Lipo.Weighted>
-10.8887

> <Gold.Chemscore.Internal_Hbond.Weighted>
0.0000

> <Gold.Chemscore.DEClash.Weighted>
0.4861

> <Gold.Chemscore.DEInternal.Weighted>
2.0371

> <Gold.Chemscore.Rot.Weighted>
5.9127

> <Gold.Chemscore.Internal.Correction.Weighted>
   9.000000E+99

> <Gold.Protein.RotatedTorsions>
[ 6907 6896 6895 6894 ] final -177.32 input  -60.11 | X-H torsion
[ 7974 7965 7964 7962 ] final   88.52 input  175.53 | X-H torsion
[ 8008 7997 7996 7995 ] final -168.87 input   59.86 | X-H torsion
[ 10167 10162 10161 10158 ] final  -50.08 input  -65.29 | X-H torsion
[ 10718 10713 10712 10709 ] final   93.91 input   66.30 | X-H torsion
[ 10763 10752 10751 10750 ] final -113.02 input  -60.55 | X-H torsion
[ 11005 11000 10999 10996 ] final    4.45 input  -57.11 | X-H torsion

> <Gold.Protein.ActiveResidues>
 VAL166  LYS551  ARG553  GLY616  TRP617  ASP618  TYR619  PRO620  LYS621  CYS622 
 ASP623  PHE694  ASN695  SER759  ASP760  ASP761  ALA762  ILE779  LEU786  VAL792 
 PHE793  MET794  SER795  GLU796  ALA797  LYS798  CYS799  TRP800  GLU811  SER814 

> <Gold.Protein.RotatedAtoms>
  151.6191  133.3340  159.3083 H   0  0  0  0  0  0  0  0  0  0  0  0  # atno 6907 bound_to 6896
  150.8116  134.7277  159.6704 H   0  0  0  0  0  0  0  0  0  0  0  0  # atno 6908 bound_to 6896
  152.4212  134.5956  160.0037 H   0  0  0  0  0  0  0  0  0  0  0  0  # atno 6909 bound_to 6896
  145.5445  139.2291  143.2547 H   0  0  0  0  0  0  0  0  0  0  0  0  # atno 7974 bound_to 7965
  155.8972  140.1035  157.1376 H   0  0  0  0  0  0  0  0  0  0  0  0  # atno 8008 bound_to 7997
  154.4022  140.1299  156.4455 H   0  0  0  0  0  0  0  0  0  0  0  0  # atno 8009 bound_to 7997
  155.7464  140.3466  155.5131 H   0  0  0  0  0  0  0  0  0  0  0  0  # atno 8010 bound_to 7997
  140.6655  143.2672  151.4308 H   0  0  0  0  0  0  0  0  0  0  0  0  # atno 10167 bound_to 10162
  157.6951  131.0494  150.4106 H   0  0  0  0  0  0  0  0  0  0  0  0  # atno 10718 bound_to 10713
  154.8377  135.4469  154.1285 H   0  0  0  0  0  0  0  0  0  0  0  0  # atno 10763 bound_to 10752
  153.2501  135.6925  153.7694 H   0  0  0  0  0  0  0  0  0  0  0  0  # atno 10764 bound_to 10752
  153.7009  135.3372  155.3200 H   0  0  0  0  0  0  0  0  0  0  0  0  # atno 10765 bound_to 10752
  140.5818  134.0006  155.8051 H   0  0  0  0  0  0  0  0  0  0  0  0  # atno 11005 bound_to 11000
  146.1958  140.6267  142.9125 LP  0  0  0  0  0  0  0  0  0  0  0  0  # atno 17320 bound_to 7965
  144.7560  140.5308  143.6769 LP  0  0  0  0  0  0  0  0  0  0  0  0  # atno 17321 bound_to 7965
  139.5902  144.1516  152.2078 LP  0  0  0  0  0  0  0  0  0  0  0  0  # atno 17342 bound_to 10162
  140.0868  144.5654  150.7083 LP  0  0  0  0  0  0  0  0  0  0  0  0  # atno 17343 bound_to 10162
  156.4490  130.4007  149.6648 LP  0  0  0  0  0  0  0  0  0  0  0  0  # atno 17370 bound_to 10713
  156.3804  130.7576  151.2568 LP  0  0  0  0  0  0  0  0  0  0  0  0  # atno 17371 bound_to 10713
  141.0991  133.9796  157.3109 LP  0  0  0  0  0  0  0  0  0  0  0  0  # atno 17394 bound_to 11000
  139.9314  135.0199  156.8412 LP  0  0  0  0  0  0  0  0  0  0  0  0  # atno 17395 bound_to 11000

$$$$
