AV-unprocessed.smi:1345|AV-procd|sdf|5510|dock4
  -GOLD-   22720 5 93D 1   1.00000     0.00000
 Structure written by MMmdl.
 40 41  0  0  0  0  0  0  0  0  1 V2000
  150.8345  142.1611  157.3453 C   0  0  0  0  0  0  0  0  0  0  0  0
  150.5982  142.7377  158.7531 C   0  0  0  0  0  0  0  0  0  0  0  0
  149.2332  143.4524  158.7905 C   0  0  0  0  0  0  0  0  0  0  0  0
  151.7571  143.6594  159.2191 C   0  0  2  0  0  0  0  0  0  0  0  0
  152.3246  144.5424  158.0909 C   0  0  0  0  0  0  0  0  0  0  0  0
  152.8438  142.8575  159.7811 N   0  0  0  0  0  0  0  0  0  0  0  0
  152.9175  142.4121  161.0458 C   0  0  0  0  0  0  0  0  0  0  0  0
  152.0521  142.6415  161.8924 O   0  0  0  0  0  0  0  0  0  0  0  0
  154.1615  141.5811  161.3861 C   0  0  0  0  0  0  0  0  0  0  0  0
  153.9553  140.1143  161.1257 C   0  0  0  0  0  0  0  0  0  0  0  0
  153.4752  139.5383  159.9742 C   0  0  0  0  0  0  0  0  0  0  0  0
  153.3904  137.8022  160.0977 S   0  0  0  0  0  0  0  0  0  0  0  0
  154.0102  137.9223  161.7431 C   0  0  0  0  0  0  0  0  0  0  0  0
  154.2285  136.7899  162.5835 N   0  0  0  0  0  0  0  0  0  0  0  0
  154.3883  136.9393  164.0250 C   0  0  0  0  0  0  0  0  0  0  0  0
  154.6057  135.5123  164.5194 C   0  0  0  0  0  0  0  0  0  0  0  0
  154.5313  134.7510  163.2946 N   0  0  0  0  0  0  0  0  0  0  0  0
  154.3179  135.4967  162.2080 C   0  0  0  0  0  0  0  0  0  0  0  0
  154.2243  135.0422  161.0686 O   0  0  0  0  0  0  0  0  0  0  0  0
  154.2504  139.1821  162.1258 N   0  0  0  0  0  0  0  0  0  0  0  0
  150.9802  142.9542  156.6113 H   0  0  0  0  0  0  0  0  0  0  0  0
  149.9846  141.5607  157.0193 H   0  0  0  0  0  0  0  0  0  0  0  0
  151.7075  141.5099  157.3150 H   0  0  0  0  0  0  0  0  0  0  0  0
  150.5389  141.8944  159.4430 H   0  0  0  0  0  0  0  0  0  0  0  0
  149.2325  144.3343  158.1488 H   0  0  0  0  0  0  0  0  0  0  0  0
  148.9671  143.7727  159.7979 H   0  0  0  0  0  0  0  0  0  0  0  0
  148.4349  142.7937  158.4471 H   0  0  0  0  0  0  0  0  0  0  0  0
  151.3662  144.3150  159.9997 H   0  0  0  0  0  0  0  0  0  0  0  0
  151.5854  145.2534  157.7236 H   0  0  0  0  0  0  0  0  0  0  0  0
  152.6609  143.9399  157.2463 H   0  0  0  0  0  0  0  0  0  0  0  0
  153.1757  145.1285  158.4388 H   0  0  0  0  0  0  0  0  0  0  0  0
  153.5977  142.6177  159.1538 H   0  0  0  0  0  0  0  0  0  0  0  0
  154.9997  141.9629  160.8016 H   0  0  0  0  0  0  0  0  0  0  0  0
  154.4198  141.7394  162.4341 H   0  0  0  0  0  0  0  0  0  0  0  0
  153.1722  140.0292  159.0613 H   0  0  0  0  0  0  0  0  0  0  0  0
  155.2445  137.5748  164.2556 H   0  0  0  0  0  0  0  0  0  0  0  0
  153.4944  137.3816  164.4675 H   0  0  0  0  0  0  0  0  0  0  0  0
  155.5810  135.3857  164.9906 H   0  0  0  0  0  0  0  0  0  0  0  0
  153.8291  135.1961  165.2167 H   0  0  0  0  0  0  0  0  0  0  0  0
  154.6320  133.7465  163.2747 H   0  0  0  0  0  0  0  0  0  0  0  0
  1  2  1  0  0  0  0
  1 21  1  0  0  0  0
  1 22  1  0  0  0  0
  1 23  1  0  0  0  0
  2  3  1  0  0  0  0
  2  4  1  0  0  0  0
  2 24  1  0  0  0  0
  3 25  1  0  0  0  0
  3 26  1  0  0  0  0
  3 27  1  0  0  0  0
  4  5  1  0  0  0  0
  4  6  1  0  0  0  0
  4 28  1  0  0  0  0
  5 29  1  0  0  0  0
  5 30  1  0  0  0  0
  5 31  1  0  0  0  0
  6  7  1  0  0  0  0
  6 32  1  0  0  0  0
  7  8  2  0  0  0  0
  7  9  1  0  0  0  0
  9 10  1  0  0  0  0
  9 33  1  0  0  0  0
  9 34  1  0  0  0  0
 10 20  1  0  0  0  0
 10 11  2  0  0  0  0
 11 12  1  0  0  0  0
 11 35  1  0  0  0  0
 12 13  1  0  0  0  0
 13 14  1  0  0  0  0
 13 20  2  0  0  0  0
 14 18  1  0  0  0  0
 14 15  1  0  0  0  0
 15 16  1  0  0  0  0
 15 36  1  0  0  0  0
 15 37  1  0  0  0  0
 16 17  1  0  0  0  0
 16 38  1  0  0  0  0
 16 39  1  0  0  0  0
 17 18  1  0  0  0  0
 17 40  1  0  0  0  0
 18 19  2  0  0  0  0
M  END
> <s_m_source_file>
AV-unprocessed.smi

> <i_m_source_file_index>
1345

> <i_lp_mmshare_version>
43012

> <i_f3d_flags>
0

> <s_epik_input>
W0NIM11bQ0hdKFtDSDNdKVtDQEhdKFtDSDNdKVtOSF1DKD1PKVtDSDJdYzFbY0hdc2MobjEpTjJbQ0gyXVtDSDJdW05IXUMyPU8=

> <s_epik_cmdline>
J2VwaWtfcHl0aG9uJywgJy1waCcsICc3LjAnLCAnLXRuJywgJzgnLCAnLW1hJywgJzIwMCcsICctbWV0YWxfYmluZGluZycsICctaW1hZScsICc8aW5maWxlLm1hZT4nLCAnLW9tYWUnLCAnPG91dGZpbGUubWFlPic=

> <r_lp_tautomer_probability>
1

> <r_epik_Ionization_Penalty>
0.000122034

> <r_epik_Ionization_Penalty_Charging>
0

> <r_epik_Ionization_Penalty_Neutral>
0.000122034

> <r_epik_State_Penalty>
-0

> <r_epik_Charging_Adjusted_Penalty>
0

> <i_epik_Tot_Q>
0

> <i_epik_Tot_abs_Q>
0

> <r_epik_Metal_State_Penalty>
-0

> <b_epik_Metal_Only>
0

> <s_lp_Force_Field>
OPLS_2005

> <r_lp_Energy>
36.09

> <b_lp_Chiralities_Consistent>
1

> <s_lp_Variant>
AV-unprocessed.smi:1345-1

> <Gold.Version>
5.8.1

> <Gold.Id.Protein>
6NUR|6NUR_protein|mol2

> <Gold.PLP.Fitness>
42.1406

> <Gold.PLP.PLP>
-39.9859

> <Gold.PLP.part.hbond>
-2.0000

> <Gold.PLP.part.metal>
0.0000

> <Gold.PLP.part.buried>
-3.7525

> <Gold.PLP.part.nonpolar>
-35.2493

> <Gold.PLP.part.repulsive>
0.2030

> <Gold.PLP.ligand.clash>
0.0000

> <Gold.PLP.ligand.torsion>
1.4670

> <Gold.PLP.Chemscore.Hbond>
1.6808

> <Gold.PLP.Chemscore.CHOScore>
0.0000

> <Gold.PLP.Chemscore.Metal>
0.0000

> <Gold.Chemscore.Hbonds>
donor molecule, donor type, donor heavy atom, donor atom, acceptor molecule, acceptor atom, score
      P1  H  6896  6907       L1    19  0.87
      P1  H  6933  6945       L1     8  0.45

> <Gold.PLP.Chemscore.Internal.Correction>
0.0465

> <Gold.Rescore>
     Score         DG    S(hbond)    S(metal)    S(lipo)     H(rot)  DE(clash)    DE(int)     intcor
     15.68     -18.04       1.74        0.00      95.70       1.74       0.09       2.28       ----

> <Gold.Chemscore.Fitness>
15.6777

> <Gold.Chemscore.DG>
-18.0435

> <Gold.Chemscore.ZeroCoef>
-5.4800

> <Gold.Chemscore.Hbond>
1.7394

> <Gold.Chemscore.Metal>
0.0000

> <Gold.Chemscore.Lipo>
95.6951

> <Gold.Chemscore.Internal_Hbond>
0.0000

> <Gold.Chemscore.DEClash>
0.0856

> <Gold.Chemscore.DEInternal>
2.2802

> <Gold.Chemscore.Rot>
1.7353

> <Gold.Chemscore.Internal.Correction>
   9.000000E+99

> <Gold.Chemscore.Hbonds>
donor molecule, donor type, donor heavy atom, donor atom, acceptor molecule, acceptor atom, score
      P1  H  6896  6907       L1    19  0.81
      P1  H  6933  6945       L1     8  0.45

> <Gold.Chemscore.Hbond.Weighted>
-5.8094

> <Gold.Chemscore.Metal.Weighted>
-0.0000

> <Gold.Chemscore.Lipo.Weighted>
-11.1963

> <Gold.Chemscore.Internal_Hbond.Weighted>
0.0000

> <Gold.Chemscore.DEClash.Weighted>
0.0856

> <Gold.Chemscore.DEInternal.Weighted>
2.2802

> <Gold.Chemscore.Rot.Weighted>
4.4423

> <Gold.Chemscore.Internal.Correction.Weighted>
   9.000000E+99

> <Gold.Protein.RotatedTorsions>
[ 6907 6896 6895 6894 ] final   70.90 input  -60.11 | X-H torsion
[ 7974 7965 7964 7962 ] final   89.26 input  175.53 | X-H torsion
[ 8008 7997 7996 7995 ] final  149.03 input   59.86 | X-H torsion
[ 10167 10162 10161 10158 ] final   10.63 input  -65.29 | X-H torsion
[ 10718 10713 10712 10709 ] final  -96.42 input   66.30 | X-H torsion
[ 10763 10752 10751 10750 ] final -112.08 input  -60.55 | X-H torsion
[ 11005 11000 10999 10996 ] final -179.38 input  -57.11 | X-H torsion

> <Gold.Protein.ActiveResidues>
 VAL166  LYS551  ARG553  GLY616  TRP617  ASP618  TYR619  PRO620  LYS621  CYS622 
 ASP623  PHE694  ASN695  SER759  ASP760  ASP761  ALA762  ILE779  LEU786  VAL792 
 PHE793  MET794  SER795  GLU796  ALA797  LYS798  CYS799  TRP800  GLU811  SER814 

> <Gold.Protein.RotatedAtoms>
  152.4778  134.4799  159.9662 H   0  0  0  0  0  0  0  0  0  0  0  0  # atno 6907 bound_to 6896
  151.4812  133.3540  159.2846 H   0  0  0  0  0  0  0  0  0  0  0  0  # atno 6908 bound_to 6896
  150.8828  134.8248  159.7298 H   0  0  0  0  0  0  0  0  0  0  0  0  # atno 6909 bound_to 6896
  145.5347  139.2285  143.2599 H   0  0  0  0  0  0  0  0  0  0  0  0  # atno 7974 bound_to 7965
  156.2770  140.2113  156.5793 H   0  0  0  0  0  0  0  0  0  0  0  0  # atno 8008 bound_to 7997
  154.7072  140.0515  157.0538 H   0  0  0  0  0  0  0  0  0  0  0  0  # atno 8009 bound_to 7997
  155.0655  140.3171  155.4650 H   0  0  0  0  0  0  0  0  0  0  0  0  # atno 8010 bound_to 7997
  140.6182  143.8261  150.7144 H   0  0  0  0  0  0  0  0  0  0  0  0  # atno 10167 bound_to 10162
  156.0062  130.5150  150.6223 H   0  0  0  0  0  0  0  0  0  0  0  0  # atno 10718 bound_to 10713
  154.8332  135.4504  154.1138 H   0  0  0  0  0  0  0  0  0  0  0  0  # atno 10763 bound_to 10752
  153.2393  135.6914  153.7807 H   0  0  0  0  0  0  0  0  0  0  0  0  # atno 10764 bound_to 10752
  153.7161  135.3349  155.3233 H   0  0  0  0  0  0  0  0  0  0  0  0  # atno 10765 bound_to 10752
  140.4192  134.6621  157.4655 H   0  0  0  0  0  0  0  0  0  0  0  0  # atno 11005 bound_to 11000
  146.2021  140.6164  142.9097 LP  0  0  0  0  0  0  0  0  0  0  0  0  # atno 17320 bound_to 7965
  144.7608  140.5417  143.6737 LP  0  0  0  0  0  0  0  0  0  0  0  0  # atno 17321 bound_to 7965
  140.1846  143.4087  152.1908 LP  0  0  0  0  0  0  0  0  0  0  0  0  # atno 17342 bound_to 10162
  139.5416  144.7262  151.4715 LP  0  0  0  0  0  0  0  0  0  0  0  0  # atno 17343 bound_to 10162
  157.4036  131.0813  151.1286 LP  0  0  0  0  0  0  0  0  0  0  0  0  # atno 17370 bound_to 10713
  157.1939  130.6364  149.5714 LP  0  0  0  0  0  0  0  0  0  0  0  0  # atno 17371 bound_to 10713
  140.0212  134.6545  155.9237 LP  0  0  0  0  0  0  0  0  0  0  0  0  # atno 17394 bound_to 11000
  141.1790  133.6544  156.4945 LP  0  0  0  0  0  0  0  0  0  0  0  0  # atno 17395 bound_to 11000

$$$$
