AV-unprocessed.smi:1868|AV-procd|sdf|7588|dock1
  -GOLD-   22720 9303D 1   1.00000     0.00000
 Structure written by MMmdl.
 48 50  0  0  0  0  0  0  0  0  3 V2000
  149.7257  141.3533  155.7957 C   0  0  0  0  0  0  0  0  0  0  0  0
  150.4221  141.9880  156.9523 C   0  0  0  0  0  0  0  0  0  0  0  0
  150.5246  143.3264  157.1882 N   0  3  0  0  0  0  0  0  0  0  0  0
  151.2432  143.5454  158.3642 C   0  0  0  0  0  0  0  0  0  0  0  0
  151.6003  144.7261  159.0080 C   0  0  0  0  0  0  0  0  0  0  0  0
  152.3394  144.5971  160.2022 C   0  0  0  0  0  0  0  0  0  0  0  0
  152.6956  143.3315  160.7123 C   0  0  0  0  0  0  0  0  0  0  0  0
  152.3284  142.1410  160.0505 C   0  0  0  0  0  0  0  0  0  0  0  0
  151.5977  142.2780  158.8705 C   0  0  0  0  0  0  0  0  0  0  0  0
  151.0727  141.3478  157.9665 N   0  0  0  0  0  0  0  0  0  0  0  0
  151.2715  139.9113  158.2158 C   0  0  0  0  0  0  0  0  0  0  0  0
  152.7482  139.4771  158.1176 C   0  0  2  0  0  0  0  0  0  0  0  0
  153.1190  139.4130  156.7532 O   0  0  0  0  0  0  0  0  0  0  0  0
  152.9698  138.0963  158.7698 C   0  0  0  0  0  0  0  0  0  0  0  0
  153.4501  138.1791  160.1741 N   0  3  2  0  0  0  0  0  0  0  0  0
  154.6015  139.1079  160.3155 C   0  0  0  0  0  0  0  0  0  0  0  0
  154.9953  139.2882  161.7912 C   0  0  0  0  0  0  0  0  0  0  0  0
  155.3162  137.9379  162.4526 C   0  0  1  0  0  0  0  0  0  0  0  0
  155.6816  138.1022  163.9345 C   0  0  0  0  0  0  0  0  0  0  0  0
  154.1236  136.9863  162.2614 C   0  0  0  0  0  0  0  0  0  0  0  0
  153.7476  136.8517  160.7761 C   0  0  0  0  0  0  0  0  0  0  0  0
  149.2547  142.1110  155.1689 H   0  0  0  0  0  0  0  0  0  0  0  0
  148.9544  140.6689  156.1491 H   0  0  0  0  0  0  0  0  0  0  0  0
  150.4370  140.7939  155.1879 H   0  0  0  0  0  0  0  0  0  0  0  0
  151.3276  145.6967  158.6201 H   0  0  0  0  0  0  0  0  0  0  0  0
  152.6383  145.4865  160.7380 H   0  0  0  0  0  0  0  0  0  0  0  0
  153.2608  143.2734  161.6314 H   0  0  0  0  0  0  0  0  0  0  0  0
  152.6050  141.1770  160.4503 H   0  0  0  0  0  0  0  0  0  0  0  0
  150.8600  139.6744  159.1977 H   0  0  0  0  0  0  0  0  0  0  0  0
  150.6669  139.3630  157.4923 H   0  0  0  0  0  0  0  0  0  0  0  0
  153.3640  140.2345  158.6004 H   0  0  0  0  0  0  0  0  0  0  0  0
  153.3483  138.5221  156.5375 H   0  0  0  0  0  0  0  0  0  0  0  0
  152.0490  137.5112  158.7452 H   0  0  0  0  0  0  0  0  0  0  0  0
  153.6929  137.5450  158.1658 H   0  0  0  0  0  0  0  0  0  0  0  0
  155.4492  138.7293  159.7423 H   0  0  0  0  0  0  0  0  0  0  0  0
  154.3447  140.0813  159.8959 H   0  0  0  0  0  0  0  0  0  0  0  0
  155.8570  139.9533  161.8618 H   0  0  0  0  0  0  0  0  0  0  0  0
  154.1821  139.7799  162.3273 H   0  0  0  0  0  0  0  0  0  0  0  0
  156.1803  137.5065  161.9449 H   0  0  0  0  0  0  0  0  0  0  0  0
  154.8557  138.5317  164.5024 H   0  0  0  0  0  0  0  0  0  0  0  0
  156.5451  138.7569  164.0561 H   0  0  0  0  0  0  0  0  0  0  0  0
  155.9320  137.1417  164.3858 H   0  0  0  0  0  0  0  0  0  0  0  0
  154.3622  136.0030  162.6685 H   0  0  0  0  0  0  0  0  0  0  0  0
  153.2624  137.3512  162.8234 H   0  0  0  0  0  0  0  0  0  0  0  0
  152.8857  136.1914  160.6933 H   0  0  0  0  0  0  0  0  0  0  0  0
  154.5617  136.3757  160.2271 H   0  0  0  0  0  0  0  0  0  0  0  0
  152.6977  138.5866  160.7103 H   0  0  0  0  0  0  0  0  0  0  0  0
  150.1293  144.0376  156.5866 H   0  0  0  0  0  0  0  0  0  0  0  0
  1  2  1  0  0  0  0
  1 22  1  0  0  0  0
  1 23  1  0  0  0  0
  1 24  1  0  0  0  0
  2 10  1  0  0  0  0
  2  3  2  0  0  0  0
  3  4  1  0  0  0  0
  3 48  1  0  0  0  0
  4  9  2  0  0  0  0
  4  5  1  0  0  0  0
  5  6  2  0  0  0  0
  5 25  1  0  0  0  0
  6  7  1  0  0  0  0
  6 26  1  0  0  0  0
  7  8  2  0  0  0  0
  7 27  1  0  0  0  0
  8  9  1  0  0  0  0
  8 28  1  0  0  0  0
  9 10  1  0  0  0  0
 10 11  1  0  0  0  0
 11 12  1  0  0  0  0
 11 29  1  0  0  0  0
 11 30  1  0  0  0  0
 12 13  1  0  0  0  0
 12 14  1  0  0  0  0
 12 31  1  0  0  0  0
 13 32  1  0  0  0  0
 14 15  1  0  0  0  0
 14 33  1  0  0  0  0
 14 34  1  0  0  0  0
 15 21  1  0  0  0  0
 15 16  1  0  0  0  0
 15 47  1  0  0  0  0
 16 17  1  0  0  0  0
 16 35  1  0  0  0  0
 16 36  1  0  0  0  0
 17 18  1  0  0  0  0
 17 37  1  0  0  0  0
 17 38  1  0  0  0  0
 18 19  1  0  0  0  0
 18 20  1  0  0  0  0
 18 39  1  0  0  0  0
 19 40  1  0  0  0  0
 19 41  1  0  0  0  0
 19 42  1  0  0  0  0
 20 21  1  0  0  0  0
 20 43  1  0  0  0  0
 20 44  1  0  0  0  0
 21 45  1  0  0  0  0
 21 46  1  0  0  0  0
M  CHG  1   3   1
M  CHG  1  15   1
M  END
> <s_m_source_file>
AV-unprocessed.smi

> <i_m_source_file_index>
1868

> <i_lp_mmshare_version>
43012

> <i_f3d_flags>
0

> <s_epik_input>
W2NIXTFbY0hdW2NIXVtjSF1jKGMxMiluKGMobjIpW0NIM10pW0NIMl1bQ0BIXShbT0hdKVtDSDJdTjNbQ0gyXVtDSDJdW0NIXShbQ0gzXSlbQ0gyXVtDSDJdMw==

> <s_epik_cmdline>
J2VwaWtfcHl0aG9uJywgJy1waCcsICc3LjAnLCAnLXRuJywgJzgnLCAnLW1hJywgJzIwMCcsICctbWV0YWxfYmluZGluZycsICctaW1hZScsICc8aW5maWxlLm1hZT4nLCAnLW9tYWUnLCAnPG91dGZpbGUubWFlPic=

> <r_epik_Ionization_Penalty>
1.10901

> <r_epik_Ionization_Penalty_Charging>
1.10901

> <r_epik_Ionization_Penalty_Neutral>
6.90208e-07

> <r_epik_State_Penalty>
1.18788

> <r_epik_Charging_Adjusted_Penalty>
2.29689

> <i_epik_Tot_Q>
2

> <i_epik_Tot_abs_Q>
2

> <r_epik_Metal_State_Penalty>
5.19353

> <b_epik_Metal_Only>
0

> <s_lp_Force_Field>
OPLS_2005

> <r_lp_Energy>
30.2902

> <b_lp_Chiralities_Consistent>
1

> <s_lp_Variant>
AV-unprocessed.smi:1868-5

> <Gold.Version>
5.8.1

> <Gold.Id.Protein>
6NUR|6NUR_protein|mol2

> <Gold.PLP.Fitness>
52.8382

> <Gold.PLP.PLP>
-45.2241

> <Gold.PLP.part.hbond>
-1.7022

> <Gold.PLP.part.metal>
0.0000

> <Gold.PLP.part.buried>
-5.9909

> <Gold.PLP.part.nonpolar>
-37.9145

> <Gold.PLP.part.repulsive>
0.0891

> <Gold.PLP.ligand.clash>
0.0000

> <Gold.PLP.ligand.torsion>
0.6911

> <Gold.PLP.Chemscore.Hbond>
2.9840

> <Gold.PLP.Chemscore.CHOScore>
0.0000

> <Gold.PLP.Chemscore.Metal>
0.0000

> <Gold.Chemscore.Hbonds>
donor molecule, donor type, donor heavy atom, donor atom, acceptor molecule, acceptor atom, score
      L1  H     3    48       P1  8028  2.00
      P1  H  7997  8009       L1    13  0.86

> <Gold.PLP.Chemscore.Internal.Correction>
0.0443

> <Gold.Rescore>
     Score         DG    S(hbond)    S(metal)    S(lipo)     H(rot)  DE(clash)    DE(int)     intcor
     20.91     -21.72       1.84        0.00     129.88       1.99       0.08       0.74       ----

> <Gold.Chemscore.Fitness>
20.9070

> <Gold.Chemscore.DG>
-21.7214

> <Gold.Chemscore.ZeroCoef>
-5.4800

> <Gold.Chemscore.Hbond>
1.8355

> <Gold.Chemscore.Metal>
0.0000

> <Gold.Chemscore.Lipo>
129.8805

> <Gold.Chemscore.Internal_Hbond>
0.0000

> <Gold.Chemscore.DEClash>
0.0778

> <Gold.Chemscore.DEInternal>
0.7367

> <Gold.Chemscore.Rot>
1.9863

> <Gold.Chemscore.Internal.Correction>
   9.000000E+99

> <Gold.Chemscore.Hbonds>
donor molecule, donor type, donor heavy atom, donor atom, acceptor molecule, acceptor atom, score
      L1  H     3    48       P1  8028  0.98
      P1  H  7997  8009       L1    13  0.24

> <Gold.Chemscore.Hbond.Weighted>
-6.1304

> <Gold.Chemscore.Metal.Weighted>
-0.0000

> <Gold.Chemscore.Lipo.Weighted>
-15.1960

> <Gold.Chemscore.Internal_Hbond.Weighted>
0.0000

> <Gold.Chemscore.DEClash.Weighted>
0.0778

> <Gold.Chemscore.DEInternal.Weighted>
0.7367

> <Gold.Chemscore.Rot.Weighted>
5.0850

> <Gold.Chemscore.Internal.Correction.Weighted>
   9.000000E+99

> <Gold.Protein.RotatedTorsions>
[ 6907 6896 6895 6894 ] final   -1.58 input  -60.11 | X-H torsion
[ 7974 7965 7964 7962 ] final   63.94 input  175.53 | X-H torsion
[ 8008 7997 7996 7995 ] final -160.24 input   59.86 | X-H torsion
[ 10167 10162 10161 10158 ] final -171.30 input  -65.29 | X-H torsion
[ 10718 10713 10712 10709 ] final  -46.69 input   66.30 | X-H torsion
[ 10763 10752 10751 10750 ] final   68.06 input  -60.55 | X-H torsion
[ 11005 11000 10999 10996 ] final  -21.04 input  -57.11 | X-H torsion

> <Gold.Protein.ActiveResidues>
 VAL166  LYS551  ARG553  GLY616  TRP617  ASP618  TYR619  PRO620  LYS621  CYS622 
 ASP623  PHE694  ASN695  SER759  ASP760  ASP761  ALA762  ILE779  LEU786  VAL792 
 PHE793  MET794  SER795  GLU796  ALA797  LYS798  CYS799  TRP800  GLU811  SER814 

> <Gold.Protein.RotatedAtoms>
  151.5437  135.1068  159.9932 H   0  0  0  0  0  0  0  0  0  0  0  0  # atno 6907 bound_to 6896
  152.4524  133.7650  159.6778 H   0  0  0  0  0  0  0  0  0  0  0  0  # atno 6908 bound_to 6896
  150.8456  133.7800  159.3069 H   0  0  0  0  0  0  0  0  0  0  0  0  # atno 6909 bound_to 6896
  145.8560  139.3284  143.0847 H   0  0  0  0  0  0  0  0  0  0  0  0  # atno 7974 bound_to 7965
  155.7745  140.0856  157.2091 H   0  0  0  0  0  0  0  0  0  0  0  0  # atno 8008 bound_to 7997
  154.3994  140.1519  156.3038 H   0  0  0  0  0  0  0  0  0  0  0  0  # atno 8009 bound_to 7997
  155.8714  140.3425  155.5827 H   0  0  0  0  0  0  0  0  0  0  0  0  # atno 8010 bound_to 7997
  139.5810  144.1423  152.1515 H   0  0  0  0  0  0  0  0  0  0  0  0  # atno 10167 bound_to 10162
  156.2158  130.4163  149.9056 H   0  0  0  0  0  0  0  0  0  0  0  0  # atno 10718 bound_to 10713
  153.0216  135.5261  154.7076 H   0  0  0  0  0  0  0  0  0  0  0  0  # atno 10763 bound_to 10752
  154.6167  135.2884  155.0374 H   0  0  0  0  0  0  0  0  0  0  0  0  # atno 10764 bound_to 10752
  154.1375  135.6583  153.4987 H   0  0  0  0  0  0  0  0  0  0  0  0  # atno 10765 bound_to 10752
  140.8522  133.7848  155.9979 H   0  0  0  0  0  0  0  0  0  0  0  0  # atno 11005 bound_to 11000
  145.9302  140.9053  143.0360 LP  0  0  0  0  0  0  0  0  0  0  0  0  # atno 17320 bound_to 7965
  144.6727  140.1408  143.7437 LP  0  0  0  0  0  0  0  0  0  0  0  0  # atno 17321 bound_to 7965
  140.0976  144.5567  150.7011 LP  0  0  0  0  0  0  0  0  0  0  0  0  # atno 17342 bound_to 10162
  140.7088  143.2489  151.4644 LP  0  0  0  0  0  0  0  0  0  0  0  0  # atno 17343 bound_to 10162
  156.6719  130.8823  151.3563 LP  0  0  0  0  0  0  0  0  0  0  0  0  # atno 17370 bound_to 10713
  157.7062  130.9388  150.0939 LP  0  0  0  0  0  0  0  0  0  0  0  0  # atno 17371 bound_to 10713
  140.8777  134.2649  157.5160 LP  0  0  0  0  0  0  0  0  0  0  0  0  # atno 17394 bound_to 11000
  139.8704  134.9599  156.4347 LP  0  0  0  0  0  0  0  0  0  0  0  0  # atno 17395 bound_to 11000

$$$$
