AV-unprocessed.smi:2032|AV-procd|sdf|8243|dock8
  -GOLD-   2272010513D 1   1.00000     0.00000
 Structure written by MMmdl.
 43 44  0  0  0  0  0  0  0  0  2 V2000
  152.5256  138.2611  155.1526 C   0  0  0  0  0  0  0  0  0  0  0  0
  151.1868  137.6805  154.6832 C   0  0  2  0  0  0  0  0  0  0  0  0
  150.0860  138.7539  154.5955 C   0  0  0  0  0  0  0  0  0  0  0  0
  148.7711  138.1667  154.2116 N   0  3  2  0  0  0  0  0  0  0  0  0
  147.6726  139.1858  154.0948 C   0  0  1  0  0  0  0  0  0  0  0  0
  148.2419  140.6090  153.8718 C   0  0  0  0  0  0  0  0  0  0  0  0
  146.6476  138.8220  152.9833 C   0  0  0  0  0  0  0  0  0  0  0  0
  146.8378  137.4809  152.4343 N   0  0  0  0  0  0  0  0  0  0  0  0
  145.8545  136.6330  152.0969 C   0  0  0  0  0  0  0  0  0  0  0  0
  144.6586  136.8902  152.2391 O   0  0  0  0  0  0  0  0  0  0  0  0
  146.3498  135.4856  151.6016 N   0  0  0  0  0  0  0  0  0  0  0  0
  145.6360  134.3463  151.1456 C   0  0  0  0  0  0  0  0  0  0  0  0
  144.4337  134.3933  150.5597 N   0  0  0  0  0  0  0  0  0  0  0  0
  143.9705  133.1220  150.2109 C   0  0  0  0  0  0  0  0  0  0  0  0
  144.8383  132.1114  150.5429 C   0  0  0  0  0  0  0  0  0  0  0  0
  146.2806  132.7195  151.3106 S   0  0  0  0  0  0  0  0  0  0  0  0
  148.4514  137.0271  155.1177 C   0  0  0  0  0  0  0  0  0  0  0  0
  149.6099  136.0145  155.1948 C   0  0  2  0  0  0  0  0  0  0  0  0
  149.3247  134.8859  156.1920 C   0  0  0  0  0  0  0  0  0  0  0  0
  150.7896  136.6841  155.6128 O   0  0  0  0  0  0  0  0  0  0  0  0
  152.8865  139.0243  154.4627 H   0  0  0  0  0  0  0  0  0  0  0  0
  153.2870  137.4832  155.2137 H   0  0  0  0  0  0  0  0  0  0  0  0
  152.4362  138.7167  156.1392 H   0  0  0  0  0  0  0  0  0  0  0  0
  151.3353  137.2238  153.7028 H   0  0  0  0  0  0  0  0  0  0  0  0
  149.9867  139.2708  155.5516 H   0  0  0  0  0  0  0  0  0  0  0  0
  150.4138  139.4890  153.8632 H   0  0  0  0  0  0  0  0  0  0  0  0
  147.1337  139.1922  155.0437 H   0  0  0  0  0  0  0  0  0  0  0  0
  147.4543  141.3521  153.7554 H   0  0  0  0  0  0  0  0  0  0  0  0
  148.8658  140.6503  152.9786 H   0  0  0  0  0  0  0  0  0  0  0  0
  148.8309  140.9636  154.7157 H   0  0  0  0  0  0  0  0  0  0  0  0
  145.6286  138.9576  153.3503 H   0  0  0  0  0  0  0  0  0  0  0  0
  146.7576  139.4829  152.1248 H   0  0  0  0  0  0  0  0  0  0  0  0
  147.7909  137.1820  152.2869 H   0  0  0  0  0  0  0  0  0  0  0  0
  147.3551  135.4171  151.5437 H   0  0  0  0  0  0  0  0  0  0  0  0
  143.0090  133.0280  149.7279 H   0  0  0  0  0  0  0  0  0  0  0  0
  144.7167  131.0504  150.3827 H   0  0  0  0  0  0  0  0  0  0  0  0
  148.2155  137.4100  156.1122 H   0  0  0  0  0  0  0  0  0  0  0  0
  147.5796  136.4812  154.7613 H   0  0  0  0  0  0  0  0  0  0  0  0
  149.7765  135.5700  154.2119 H   0  0  0  0  0  0  0  0  0  0  0  0
  148.4346  134.3249  155.9063 H   0  0  0  0  0  0  0  0  0  0  0  0
  149.1656  135.2769  157.1975 H   0  0  0  0  0  0  0  0  0  0  0  0
  150.1583  134.1844  156.2358 H   0  0  0  0  0  0  0  0  0  0  0  0
  148.8919  137.7693  153.2907 H   0  0  0  0  0  0  0  0  0  0  0  0
  1  2  1  0  0  0  0
  1 21  1  0  0  0  0
  1 22  1  0  0  0  0
  1 23  1  0  0  0  0
  2 20  1  0  0  0  0
  2  3  1  0  0  0  0
  2 24  1  0  0  0  0
  3  4  1  0  0  0  0
  3 25  1  0  0  0  0
  3 26  1  0  0  0  0
  4  5  1  0  0  0  0
  4 17  1  0  0  0  0
  4 43  1  0  0  0  0
  5  6  1  0  0  0  0
  5  7  1  0  0  0  0
  5 27  1  0  0  0  0
  6 28  1  0  0  0  0
  6 29  1  0  0  0  0
  6 30  1  0  0  0  0
  7  8  1  0  0  0  0
  7 31  1  0  0  0  0
  7 32  1  0  0  0  0
  8  9  1  0  0  0  0
  8 33  1  0  0  0  0
  9 10  2  0  0  0  0
  9 11  1  0  0  0  0
 11 12  1  0  0  0  0
 11 34  1  0  0  0  0
 12 16  1  0  0  0  0
 12 13  2  0  0  0  0
 13 14  1  0  0  0  0
 14 15  2  0  0  0  0
 14 35  1  0  0  0  0
 15 16  1  0  0  0  0
 15 36  1  0  0  0  0
 17 18  1  0  0  0  0
 17 37  1  0  0  0  0
 17 38  1  0  0  0  0
 18 19  1  0  0  0  0
 18 20  1  0  0  0  0
 18 39  1  0  0  0  0
 19 40  1  0  0  0  0
 19 41  1  0  0  0  0
 19 42  1  0  0  0  0
M  CHG  1   4   1
M  END
> <s_m_source_file>
AV-unprocessed.smi

> <i_m_source_file_index>
2032

> <i_lp_mmshare_version>
43012

> <i_f3d_flags>
0

> <s_epik_input>
W0NIM11bQ0BASF0xW0NIMl1OKFtDSDJdW0NASF0oTzEpW0NIM10pW0NASF0oW0NIM10pW0NIMl1bTkhdQyg9TylbTkhdYzJuW2NIXVtjSF1zMg==

> <s_epik_cmdline>
J2VwaWtfcHl0aG9uJywgJy1waCcsICc3LjAnLCAnLXRuJywgJzgnLCAnLW1hJywgJzIwMCcsICctbWV0YWxfYmluZGluZycsICctaW1hZScsICc8aW5maWxlLm1hZT4nLCAnLW9tYWUnLCAnPG91dGZpbGUubWFlPic=

> <r_lp_tautomer_probability>
0.999

> <r_epik_Ionization_Penalty>
0.695838

> <r_epik_Ionization_Penalty_Charging>
0.695697

> <r_epik_Ionization_Penalty_Neutral>
0.000141198

> <r_epik_State_Penalty>
0.717972

> <r_epik_Charging_Adjusted_Penalty>
1.41367

> <i_epik_Tot_Q>
1

> <i_epik_Tot_abs_Q>
1

> <r_epik_Metal_State_Penalty>
0.756405

> <b_epik_Metal_Only>
0

> <s_lp_Force_Field>
OPLS_2005

> <r_lp_Energy>
18.3762

> <b_lp_Chiralities_Consistent>
1

> <s_lp_Variant>
AV-unprocessed.smi:2032-13

> <Gold.Version>
5.8.1

> <Gold.Id.Protein>
6NUR|6NUR_protein|mol2

> <Gold.PLP.Fitness>
43.4229

> <Gold.PLP.PLP>
-33.5930

> <Gold.PLP.part.hbond>
-2.9225

> <Gold.PLP.part.metal>
0.0000

> <Gold.PLP.part.buried>
-4.2406

> <Gold.PLP.part.nonpolar>
-27.8649

> <Gold.PLP.part.repulsive>
0.6101

> <Gold.PLP.ligand.clash>
1.2997

> <Gold.PLP.ligand.torsion>
1.8973

> <Gold.PLP.Chemscore.Hbond>
3.9600

> <Gold.PLP.Chemscore.CHOScore>
1.0000

> <Gold.PLP.Chemscore.Metal>
0.0000

> <Gold.Chemscore.Hbonds>
donor molecule, donor type, donor heavy atom, donor atom, acceptor molecule, acceptor atom, score
      L1  H     4    43       P1  7948  1.76
      L1  H     8    33       P1  7948  1.00
      L1  H    11    34       P1  7948  0.96
      L1  C    14    35       P1 10186  1.00

> <Gold.PLP.Chemscore.Internal.Correction>
0.0443

> <Gold.Rescore>
     Score         DG    S(hbond)    S(metal)    S(lipo)     H(rot)  DE(clash)    DE(int)     intcor
     17.65     -20.01       2.75        0.00      80.78       1.61       0.14       2.22       ----

> <Gold.Chemscore.Fitness>
17.6461

> <Gold.Chemscore.DG>
-20.0076

> <Gold.Chemscore.ZeroCoef>
-5.4800

> <Gold.Chemscore.Hbond>
2.7546

> <Gold.Chemscore.Metal>
0.0000

> <Gold.Chemscore.Lipo>
80.7803

> <Gold.Chemscore.Internal_Hbond>
0.0000

> <Gold.Chemscore.DEClash>
0.1423

> <Gold.Chemscore.DEInternal>
2.2191

> <Gold.Chemscore.Rot>
1.6110

> <Gold.Chemscore.Internal.Correction>
   9.000000E+99

> <Gold.Chemscore.Hbonds>
donor molecule, donor type, donor heavy atom, donor atom, acceptor molecule, acceptor atom, score
      L1  H     4    43       P1  7948  0.85
      L1  H     8    33       P1  7948  0.94
      L1  H    11    34       P1  7948  0.87

> <Gold.Chemscore.Hbond.Weighted>
-9.2004

> <Gold.Chemscore.Metal.Weighted>
-0.0000

> <Gold.Chemscore.Lipo.Weighted>
-9.4513

> <Gold.Chemscore.Internal_Hbond.Weighted>
0.0000

> <Gold.Chemscore.DEClash.Weighted>
0.1423

> <Gold.Chemscore.DEInternal.Weighted>
2.2191

> <Gold.Chemscore.Rot.Weighted>
4.1242

> <Gold.Chemscore.Internal.Correction.Weighted>
   9.000000E+99

> <Gold.Protein.RotatedTorsions>
[ 6907 6896 6895 6894 ] final   59.19 input  -60.11 | X-H torsion
[ 7974 7965 7964 7962 ] final  164.44 input  175.53 | X-H torsion
[ 8008 7997 7996 7995 ] final -100.92 input   59.86 | X-H torsion
[ 10167 10162 10161 10158 ] final  -98.45 input  -65.29 | X-H torsion
[ 10718 10713 10712 10709 ] final   70.68 input   66.30 | X-H torsion
[ 10763 10752 10751 10750 ] final  -26.65 input  -60.55 | X-H torsion
[ 11005 11000 10999 10996 ] final  176.26 input  -57.11 | X-H torsion

> <Gold.Protein.ActiveResidues>
 VAL166  LYS551  ARG553  GLY616  TRP617  ASP618  TYR619  PRO620  LYS621  CYS622 
 ASP623  PHE694  ASN695  SER759  ASP760  ASP761  ALA762  ILE779  LEU786  VAL792 
 PHE793  MET794  SER795  GLU796  ALA797  LYS798  CYS799  TRP800  GLU811  SER814 

> <Gold.Protein.RotatedAtoms>
  152.3893  134.6467  160.0113 H   0  0  0  0  0  0  0  0  0  0  0  0  # atno 6907 bound_to 6896
  151.6706  133.3308  159.3203 H   0  0  0  0  0  0  0  0  0  0  0  0  # atno 6908 bound_to 6896
  150.7812  134.6802  159.6484 H   0  0  0  0  0  0  0  0  0  0  0  0  # atno 6909 bound_to 6896
  144.7545  139.8327  143.6355 H   0  0  0  0  0  0  0  0  0  0  0  0  # atno 7974 bound_to 7965
  154.8353  140.0438  157.1505 H   0  0  0  0  0  0  0  0  0  0  0  0  # atno 8008 bound_to 7997
  154.9107  140.3013  155.5247 H   0  0  0  0  0  0  0  0  0  0  0  0  # atno 8009 bound_to 7997
  156.2989  140.2359  156.4146 H   0  0  0  0  0  0  0  0  0  0  0  0  # atno 8010 bound_to 7997
  140.2728  143.3332  152.0518 H   0  0  0  0  0  0  0  0  0  0  0  0  # atno 10167 bound_to 10162
  157.6413  130.9490  150.0684 H   0  0  0  0  0  0  0  0  0  0  0  0  # atno 10718 bound_to 10713
  153.7194  135.6946  153.5016 H   0  0  0  0  0  0  0  0  0  0  0  0  # atno 10763 bound_to 10752
  153.2214  135.4368  155.0493 H   0  0  0  0  0  0  0  0  0  0  0  0  # atno 10764 bound_to 10752
  154.8289  135.3461  154.6728 H   0  0  0  0  0  0  0  0  0  0  0  0  # atno 10765 bound_to 10752
  140.3711  134.7029  157.4393 H   0  0  0  0  0  0  0  0  0  0  0  0  # atno 11005 bound_to 11000
  146.1538  139.4629  143.0032 LP  0  0  0  0  0  0  0  0  0  0  0  0  # atno 17320 bound_to 7965
  145.6828  141.0186  143.1597 LP  0  0  0  0  0  0  0  0  0  0  0  0  # atno 17321 bound_to 7965
  139.4984  144.6644  151.6389 LP  0  0  0  0  0  0  0  0  0  0  0  0  # atno 17342 bound_to 10162
  140.5875  143.9837  150.6304 LP  0  0  0  0  0  0  0  0  0  0  0  0  # atno 17343 bound_to 10162
  156.1696  130.3646  149.9184 LP  0  0  0  0  0  0  0  0  0  0  0  0  # atno 17370 bound_to 10713
  156.7163  130.8989  151.3614 LP  0  0  0  0  0  0  0  0  0  0  0  0  # atno 17371 bound_to 10713
  140.0551  134.6075  155.8815 LP  0  0  0  0  0  0  0  0  0  0  0  0  # atno 17394 bound_to 11000
  141.1954  133.6587  156.5641 LP  0  0  0  0  0  0  0  0  0  0  0  0  # atno 17395 bound_to 11000

$$$$
