#       Name:                AV-unprocessed.smi:1445
#       Creating user name   scv26
#       Creation time:       Fri Mar 27 05:57:00 2020


#       File generated by GOLD software.
#

@<TRIPOS>MOLECULE
AV-unprocessed.smi:1445
    51    52     1
SMALL
NO_CHARGES


@<TRIPOS>ATOM
      1 ****        -6.6646  -0.6567  -0.1591 C.3            1 S1                 0.0000
      2 ****        -5.3899  -0.1644   0.2394 O.3            1 S1                 0.0000
      3 ****        -5.2388   1.1957   0.4330 C.ar           1 S1                 0.0000
      4 ****        -6.3171   1.9981   0.2483 N.ar           1 S1                 0.0000
      5 ****        -6.1709   3.3253   0.4396 C.ar           1 S1                 0.0000
      6 ****        -4.9556   3.9186   0.8278 C.ar           1 S1                 0.0000
      7 ****        -3.8359   3.0886   1.0202 C.ar           1 S1                 0.0000
      8 ****        -3.9697   1.6950   0.8082 C.ar           1 S1                 0.0000
      9 ****        -2.9088   0.7666   0.9924 N.am           1 S1                 0.0000
     10 ****        -1.5858   0.9837   0.9072 C.2            1 S1                 0.0000
     11 ****        -1.0551   2.0624   0.6427 O.2            1 S1                 0.0000
     12 ****        -0.8941  -0.1437   1.1245 N.am           1 S1                 0.0000
     13 ****         0.5597  -0.2508   1.0863 C.3            1 S1                 0.0000
     14 ****         1.0808  -0.3412  -0.3611 C.3            1 S1                 0.0000
     15 ****         2.5627  -0.4044  -0.4281 N.4            1 S1                 1.0000
     16 ****         3.0827   0.0434  -1.7462 C.3            1 S1                 0.0000
     17 ****         4.6182   0.1033  -1.7453 C.3            1 S1                 0.0000
     18 ****         5.2196  -1.2532  -1.3581 C.3            1 S1                 0.0000
     19 ****         4.6534  -1.7201  -0.0067 C.3            1 S1                 0.0000
     20 ****         5.2168  -3.0910   0.3935 C.3            1 S1                 0.0000
     21 ****         3.1117  -1.7345  -0.0483 C.3            1 S1                 0.0000
     22 ****        -6.6149  -1.7402  -0.2662 H              1 S1                 0.0000
     23 ****        -6.9679  -0.2431  -1.1219 H              1 S1                 0.0000
     24 ****        -7.4303  -0.4331   0.5851 H              1 S1                 0.0000
     25 ****        -7.0509   3.9319   0.2847 H              1 S1                 0.0000
     26 ****        -4.8854   4.9855   0.9800 H              1 S1                 0.0000
     27 ****        -2.9054   3.5326   1.3388 H              1 S1                 0.0000
     28 ****        -3.1957  -0.1918   1.1289 H              1 S1                 0.0000
     29 ****        -1.4106  -0.9863   1.3323 H              1 S1                 0.0000
     30 ****         1.0097   0.5989   1.6029 H              1 S1                 0.0000
     31 ****         0.8309  -1.1391   1.6552 H              1 S1                 0.0000
     32 ****         0.6490  -1.2005  -0.8766 H              1 S1                 0.0000
     33 ****         0.7410   0.5431  -0.9024 H              1 S1                 0.0000
     34 ****         2.7317  -0.6342  -2.5264 H              1 S1                 0.0000
     35 ****         2.6890   1.0325  -1.9839 H              1 S1                 0.0000
     36 ****         4.9802   0.4041  -2.7289 H              1 S1                 0.0000
     37 ****         4.9554   0.8682  -1.0443 H              1 S1                 0.0000
     38 ****         4.9945  -1.9890  -2.1317 H              1 S1                 0.0000
     39 ****         6.3063  -1.1763  -1.3076 H              1 S1                 0.0000
     40 ****         4.9636  -1.0032   0.7553 H              1 S1                 0.0000
     41 ****         4.9348  -3.8613  -0.3252 H              1 S1                 0.0000
     42 ****         4.8467  -3.3974   1.3724 H              1 S1                 0.0000
     43 ****         6.3058  -3.0680   0.4464 H              1 S1                 0.0000
     44 ****         2.7371  -2.0279   0.9314 H              1 S1                 0.0000
     45 ****         2.7599  -2.4867  -0.7566 H              1 S1                 0.0000
     46 ****         2.9061   0.2622   0.2488 H              1 S1                 0.0000
     47 ****        -4.7349  -0.4368  -0.4654 LP             1 S1                 0.0000
     48 ****        -5.1569  -0.6130   1.1022 LP             1 S1                 0.0000
     49 ****        -7.1997   1.6145  -0.0234 LP             1 S1                 0.0000
     50 ****        -1.6206   2.8689   0.4702 LP             1 S1                 0.0000
     51 ****        -0.0584   2.1322   0.6003 LP             1 S1                 0.0000
@<TRIPOS>BOND
    1    1    2 1     
    2    1   22 1     
    3    1   23 1     
    4    1   24 1     
    5    2    3 1     
    6    3    8 ar    
    7    3    4 ar    
    8    4    5 ar    
    9    5    6 ar    
   10    5   25 1     
   11    6    7 ar    
   12    6   26 1     
   13    7    8 ar    
   14    7   27 1     
   15    8    9 1     
   16    9   10 am    
   17    9   28 1     
   18   10   11 2     
   19   10   12 am    
   20   12   13 1     
   21   12   29 1     
   22   13   14 1     
   23   13   30 1     
   24   13   31 1     
   25   14   15 1     
   26   14   32 1     
   27   14   33 1     
   28   15   21 1     
   29   15   16 1     
   30   15   46 1     
   31   16   17 1     
   32   16   34 1     
   33   16   35 1     
   34   17   18 1     
   35   17   36 1     
   36   17   37 1     
   37   18   19 1     
   38   18   38 1     
   39   18   39 1     
   40   19   20 1     
   41   19   21 1     
   42   19   40 1     
   43   20   41 1     
   44   20   42 1     
   45   20   43 1     
   46   21   44 1     
   47   21   45 1     
   48    2   47 1     
   49    2   48 1     
   50    4   49 1     
   51   11   50 1     
   52   11   51 1     
@<TRIPOS>SUBSTRUCTURE
      1 S1             1
@<TRIPOS>SET
LONE_PAIRS      STATIC     ATOMS    <user>   **** ""
5 47 48 49 50 51
DONOR_HYDROGENS      STATIC     ATOMS    <user>   **** ""
3 28 29 46
ATOM$BLUE        STATIC     ATOMS    COLORGROUP SYSTEM
5 47 48 49 50 51
ATOM$RED        STATIC     ATOMS    COLORGROUP SYSTEM
3 28 29 46
