AV-unprocessed.smi:1126|AV-procd|sdf|4838|dock9
  -GOLD-   22720 3403D 1   1.00000     0.00000
 Structure written by MMmdl.
 48 49  0  0  0  0  0  0  0  0  2 V2000
  152.1300  138.9323  155.0982 C   0  0  0  0  0  0  0  0  0  0  0  0
  152.2584  139.6534  156.3111 O   0  0  0  0  0  0  0  0  0  0  0  0
  151.0093  140.0947  156.8176 C   0  0  0  0  0  0  0  0  0  0  0  0
  150.7562  141.5296  156.3302 C   0  0  0  0  0  0  0  0  0  0  0  0
  149.4208  141.6855  155.6993 N   0  3  2  0  0  0  0  0  0  0  0  0
  148.3185  141.2771  156.6071 C   0  0  0  0  0  0  0  0  0  0  0  0
  146.9425  141.5794  155.9860 C   0  0  0  0  0  0  0  0  0  0  0  0
  146.7676  140.9205  154.6049 C   0  0  2  0  0  0  0  0  0  0  0  0
  146.5479  139.3936  154.7151 C   0  0  0  0  0  0  0  0  0  0  0  0
  145.7196  138.8716  153.6331 N   0  0  0  0  0  0  0  0  0  0  0  0
  145.4800  137.5741  153.3844 C   0  0  0  0  0  0  0  0  0  0  0  0
  145.9737  136.6546  154.0368 O   0  0  0  0  0  0  0  0  0  0  0  0
  144.5473  137.2658  152.2117 C   0  0  0  0  0  0  0  0  0  0  0  0
  144.4560  135.8363  151.9721 N   0  0  0  0  0  0  0  0  0  0  0  0
  144.8256  135.1311  150.8461 C   0  0  0  0  0  0  0  0  0  0  0  0
  144.5657  133.8110  151.0835 C   0  0  0  0  0  0  0  0  0  0  0  0
  144.7901  132.6330  150.1799 C   0  0  0  0  0  0  0  0  0  0  0  0
  144.0288  133.8115  152.4023 C   0  0  0  0  0  0  0  0  0  0  0  0
  143.9644  135.0225  152.9316 N   0  0  0  0  0  0  0  0  0  0  0  0
  147.9570  141.3307  153.7115 C   0  0  0  0  0  0  0  0  0  0  0  0
  149.3124  141.0233  154.3725 C   0  0  0  0  0  0  0  0  0  0  0  0
  153.1151  138.6181  154.7528 H   0  0  0  0  0  0  0  0  0  0  0  0
  151.6813  139.5491  154.3184 H   0  0  0  0  0  0  0  0  0  0  0  0
  151.5197  138.0385  155.2330 H   0  0  0  0  0  0  0  0  0  0  0  0
  150.2087  139.4205  156.5131 H   0  0  0  0  0  0  0  0  0  0  0  0
  151.0365  140.0828  157.9082 H   0  0  0  0  0  0  0  0  0  0  0  0
  150.8585  142.2379  157.1537 H   0  0  0  0  0  0  0  0  0  0  0  0
  151.5367  141.7818  155.6108 H   0  0  0  0  0  0  0  0  0  0  0  0
  148.4109  140.2163  156.8429 H   0  0  0  0  0  0  0  0  0  0  0  0
  148.4044  141.8161  157.5514 H   0  0  0  0  0  0  0  0  0  0  0  0
  146.1483  141.2598  156.6616 H   0  0  0  0  0  0  0  0  0  0  0  0
  146.8316  142.6598  155.8829 H   0  0  0  0  0  0  0  0  0  0  0  0
  145.8624  141.3358  154.1594 H   0  0  0  0  0  0  0  0  0  0  0  0
  147.4965  138.8585  154.7696 H   0  0  0  0  0  0  0  0  0  0  0  0
  146.0286  139.1696  155.6474 H   0  0  0  0  0  0  0  0  0  0  0  0
  145.2670  139.5523  153.0393 H   0  0  0  0  0  0  0  0  0  0  0  0
  143.5528  137.6683  152.4117 H   0  0  0  0  0  0  0  0  0  0  0  0
  144.9129  137.7488  151.3045 H   0  0  0  0  0  0  0  0  0  0  0  0
  145.2416  135.6233  149.9790 H   0  0  0  0  0  0  0  0  0  0  0  0
  144.1174  131.8084  150.4157 H   0  0  0  0  0  0  0  0  0  0  0  0
  145.8079  132.2521  150.2630 H   0  0  0  0  0  0  0  0  0  0  0  0
  144.6270  132.8902  149.1330 H   0  0  0  0  0  0  0  0  0  0  0  0
  143.6869  132.9708  152.9883 H   0  0  0  0  0  0  0  0  0  0  0  0
  147.8981  140.8518  152.7346 H   0  0  0  0  0  0  0  0  0  0  0  0
  147.8989  142.4022  153.5150 H   0  0  0  0  0  0  0  0  0  0  0  0
  150.1070  141.3680  153.7119 H   0  0  0  0  0  0  0  0  0  0  0  0
  149.4481  139.9471  154.4858 H   0  0  0  0  0  0  0  0  0  0  0  0
  149.2991  142.6762  155.5431 H   0  0  0  0  0  0  0  0  0  0  0  0
  1  2  1  0  0  0  0
  1 22  1  0  0  0  0
  1 23  1  0  0  0  0
  1 24  1  0  0  0  0
  2  3  1  0  0  0  0
  3  4  1  0  0  0  0
  3 25  1  0  0  0  0
  3 26  1  0  0  0  0
  4  5  1  0  0  0  0
  4 27  1  0  0  0  0
  4 28  1  0  0  0  0
  5 21  1  0  0  0  0
  5  6  1  0  0  0  0
  5 48  1  0  0  0  0
  6  7  1  0  0  0  0
  6 29  1  0  0  0  0
  6 30  1  0  0  0  0
  7  8  1  0  0  0  0
  7 31  1  0  0  0  0
  7 32  1  0  0  0  0
  8  9  1  0  0  0  0
  8 20  1  0  0  0  0
  8 33  1  0  0  0  0
  9 10  1  0  0  0  0
  9 34  1  0  0  0  0
  9 35  1  0  0  0  0
 10 11  1  0  0  0  0
 10 36  1  0  0  0  0
 11 12  2  0  0  0  0
 11 13  1  0  0  0  0
 13 14  1  0  0  0  0
 13 37  1  0  0  0  0
 13 38  1  0  0  0  0
 14 19  1  0  0  0  0
 14 15  1  0  0  0  0
 15 16  2  0  0  0  0
 15 39  1  0  0  0  0
 16 17  1  0  0  0  0
 16 18  1  0  0  0  0
 17 40  1  0  0  0  0
 17 41  1  0  0  0  0
 17 42  1  0  0  0  0
 18 19  2  0  0  0  0
 18 43  1  0  0  0  0
 20 21  1  0  0  0  0
 20 44  1  0  0  0  0
 20 45  1  0  0  0  0
 21 46  1  0  0  0  0
 21 47  1  0  0  0  0
M  CHG  1   5   1
M  END
> <s_m_source_file>
AV-unprocessed.smi

> <i_m_source_file_index>
1126

> <i_lp_mmshare_version>
43012

> <i_f3d_flags>
0

> <s_epik_input>
W0NIM11PW0NIMl1bQ0gyXU4xW0NIMl1bQ0gyXVtDSF0oW0NIMl1bQ0gyXTEpW0NIMl1bTkhdQyg9TylbQ0gyXW4yW2NIXWMoW0NIM10pW2NIXW4y

> <s_epik_cmdline>
J2VwaWtfcHl0aG9uJywgJy1waCcsICc3LjAnLCAnLXRuJywgJzgnLCAnLW1hJywgJzIwMCcsICctbWV0YWxfYmluZGluZycsICctaW1hZScsICc8aW5maWxlLm1hZT4nLCAnLW9tYWUnLCAnPG91dGZpbGUubWFlPic=

> <r_lp_tautomer_probability>
1

> <r_epik_Ionization_Penalty>
0.00992859

> <r_epik_Ionization_Penalty_Charging>
0.00990284

> <r_epik_Ionization_Penalty_Neutral>
2.57527e-05

> <r_epik_State_Penalty>
0.00754525

> <r_epik_Charging_Adjusted_Penalty>
0.0174481

> <i_epik_Tot_Q>
1

> <i_epik_Tot_abs_Q>
1

> <r_epik_Metal_State_Penalty>
0.00754529

> <b_epik_Metal_Only>
0

> <s_lp_Force_Field>
OPLS_2005

> <r_lp_Energy>
20.6922

> <b_lp_Chiralities_Consistent>
1

> <s_lp_Variant>
AV-unprocessed.smi:1126-2

> <Gold.Version>
5.8.1

> <Gold.Id.Protein>
6NUR|6NUR_protein|mol2

> <Gold.PLP.Fitness>
49.0699

> <Gold.PLP.PLP>
-33.0205

> <Gold.PLP.part.hbond>
-3.0000

> <Gold.PLP.part.metal>
0.0000

> <Gold.PLP.part.buried>
-2.8939

> <Gold.PLP.part.nonpolar>
-28.6192

> <Gold.PLP.part.repulsive>
0.2779

> <Gold.PLP.ligand.clash>
0.0000

> <Gold.PLP.ligand.torsion>
1.0157

> <Gold.PLP.Chemscore.Hbond>
4.0000

> <Gold.PLP.Chemscore.CHOScore>
1.9936

> <Gold.PLP.Chemscore.Metal>
0.0000

> <Gold.Chemscore.Hbonds>
donor molecule, donor type, donor heavy atom, donor atom, acceptor molecule, acceptor atom, score
      L1  H     5    48       P1  8028  1.72
      L1  H    10    36       P1 10175  1.00
      P1  H  7997  8009       L1     2  0.75
      L1  C    15    39       P1  7921  0.76
      L1  C    18    43       P1 10957  1.00

> <Gold.PLP.Chemscore.Internal.Correction>
0.1001

> <Gold.Rescore>
     Score         DG    S(hbond)    S(metal)    S(lipo)     H(rot)  DE(clash)    DE(int)     intcor
     14.35     -16.92       2.12        0.00      83.11       2.10       0.15       2.42       ----

> <Gold.Chemscore.Fitness>
14.3492

> <Gold.Chemscore.DG>
-16.9171

> <Gold.Chemscore.ZeroCoef>
-5.4800

> <Gold.Chemscore.Hbond>
2.1229

> <Gold.Chemscore.Metal>
0.0000

> <Gold.Chemscore.Lipo>
83.1114

> <Gold.Chemscore.Internal_Hbond>
0.0000

> <Gold.Chemscore.DEClash>
0.1451

> <Gold.Chemscore.DEInternal>
2.4228

> <Gold.Chemscore.Rot>
2.1006

> <Gold.Chemscore.Internal.Correction>
   9.000000E+99

> <Gold.Chemscore.Hbonds>
donor molecule, donor type, donor heavy atom, donor atom, acceptor molecule, acceptor atom, score
      L1  H     5    48       P1  8028  0.84
      L1  H    10    36       P1 10175  0.94
      P1  H  7997  8009       L1     2  0.33

> <Gold.Chemscore.Hbond.Weighted>
-7.0906

> <Gold.Chemscore.Metal.Weighted>
-0.0000

> <Gold.Chemscore.Lipo.Weighted>
-9.7240

> <Gold.Chemscore.Internal_Hbond.Weighted>
0.0000

> <Gold.Chemscore.DEClash.Weighted>
0.1451

> <Gold.Chemscore.DEInternal.Weighted>
2.4228

> <Gold.Chemscore.Rot.Weighted>
5.3775

> <Gold.Chemscore.Internal.Correction.Weighted>
   9.000000E+99

> <Gold.Protein.RotatedTorsions>
[ 6907 6896 6895 6894 ] final   73.07 input  -60.11 | X-H torsion
[ 7974 7965 7964 7962 ] final  -21.56 input  175.53 | X-H torsion
[ 8008 7997 7996 7995 ] final -167.88 input   59.86 | X-H torsion
[ 10167 10162 10161 10158 ] final  -74.44 input  -65.29 | X-H torsion
[ 10718 10713 10712 10709 ] final -145.43 input   66.30 | X-H torsion
[ 10763 10752 10751 10750 ] final   57.79 input  -60.55 | X-H torsion
[ 11005 11000 10999 10996 ] final    6.77 input  -57.11 | X-H torsion

> <Gold.Protein.ActiveResidues>
 VAL166  LYS551  ARG553  GLY616  TRP617  ASP618  TYR619  PRO620  LYS621  CYS622 
 ASP623  PHE694  ASN695  SER759  ASP760  ASP761  ALA762  ILE779  LEU786  VAL792 
 PHE793  MET794  SER795  GLU796  ALA797  LYS798  CYS799  TRP800  GLU811  SER814 

> <Gold.Protein.RotatedAtoms>
  152.4903  134.4476  159.9563 H   0  0  0  0  0  0  0  0  0  0  0  0  # atno 6907 bound_to 6896
  151.4465  133.3623  159.2797 H   0  0  0  0  0  0  0  0  0  0  0  0  # atno 6908 bound_to 6896
  150.9051  134.8490  159.7447 H   0  0  0  0  0  0  0  0  0  0  0  0  # atno 6909 bound_to 6896
  146.1726  140.4358  142.8526 H   0  0  0  0  0  0  0  0  0  0  0  0  # atno 7974 bound_to 7965
  155.8838  140.1013  157.1466 H   0  0  0  0  0  0  0  0  0  0  0  0  # atno 8008 bound_to 7997
  154.4008  140.1324  156.4294 H   0  0  0  0  0  0  0  0  0  0  0  0  # atno 8009 bound_to 7997
  155.7612  140.3463  155.5201 H   0  0  0  0  0  0  0  0  0  0  0  0  # atno 8010 bound_to 7997
  140.5027  143.2358  151.7725 H   0  0  0  0  0  0  0  0  0  0  0  0  # atno 10167 bound_to 10162
  156.3824  130.7843  151.2037 H   0  0  0  0  0  0  0  0  0  0  0  0  # atno 10718 bound_to 10713
  152.9857  135.5629  154.5448 H   0  0  0  0  0  0  0  0  0  0  0  0  # atno 10763 bound_to 10752
  154.4896  135.2792  155.1509 H   0  0  0  0  0  0  0  0  0  0  0  0  # atno 10764 bound_to 10752
  154.2984  135.6312  153.5467 H   0  0  0  0  0  0  0  0  0  0  0  0  # atno 10765 bound_to 10752
  140.5557  134.0240  155.7953 H   0  0  0  0  0  0  0  0  0  0  0  0  # atno 11005 bound_to 11000
  144.8186  140.6511  143.6368 LP  0  0  0  0  0  0  0  0  0  0  0  0  # atno 17320 bound_to 7965
  145.4299  139.1550  143.4028 LP  0  0  0  0  0  0  0  0  0  0  0  0  # atno 17321 bound_to 7965
  139.4876  144.4500  151.9665 LP  0  0  0  0  0  0  0  0  0  0  0  0  # atno 17342 bound_to 10162
  140.3589  144.2997  150.5936 LP  0  0  0  0  0  0  0  0  0  0  0  0  # atno 17343 bound_to 10162
  157.7493  131.0340  150.4298 LP  0  0  0  0  0  0  0  0  0  0  0  0  # atno 17370 bound_to 10713
  156.4544  130.4018  149.6615 LP  0  0  0  0  0  0  0  0  0  0  0  0  # atno 17371 bound_to 10713
  141.1145  133.9563  157.2849 LP  0  0  0  0  0  0  0  0  0  0  0  0  # atno 17394 bound_to 11000
  139.9433  135.0188  156.8774 LP  0  0  0  0  0  0  0  0  0  0  0  0  # atno 17395 bound_to 11000

$$$$
