AV-unprocessed.smi:2164|AV-procd|sdf|8809|dock4
  -GOLD-   2272011593D 1   1.00000     0.00000
 Structure written by MMmdl.
 40 42  0  0  0  0  0  0  0  0  2 V2000
  151.4263  136.9941  159.0651 O   0  0  0  0  0  0  0  0  0  0  0  0
  150.3783  137.6096  158.8626 C   0  0  0  0  0  0  0  0  0  0  0  0
  150.3648  138.8006  158.2371 N   0  0  0  0  0  0  0  0  0  0  0  0
  151.5341  139.5173  157.7321 C   0  0  0  0  0  0  0  0  0  0  0  0
  152.2078  140.3853  158.8130 C   0  0  0  0  0  0  0  0  0  0  0  0
  152.0157  141.8779  158.6064 C   0  0  0  0  0  0  0  0  0  0  0  0
  152.5743  142.8044  159.5146 C   0  0  0  0  0  0  0  0  0  0  0  0
  152.4046  144.1858  159.2861 C   0  0  0  0  0  0  0  0  0  0  0  0
  151.6783  144.6100  158.1547 C   0  0  0  0  0  0  0  0  0  0  0  0
  151.1545  143.6947  157.3099 N   0  3  0  0  0  0  0  0  0  0  0  0
  151.2941  142.3636  157.4940 C   0  0  0  0  0  0  0  0  0  0  0  0
  149.0494  137.1320  159.2514 C   0  0  0  0  0  0  0  0  0  0  0  0
  148.9236  136.2685  160.2771 C   0  0  0  0  0  0  0  0  0  0  0  0
  147.6981  135.7629  160.7161 N   0  0  0  0  0  0  0  0  0  0  0  0
  147.7107  134.7613  161.7762 C   0  0  0  0  0  0  0  0  0  0  0  0
  146.5785  135.0155  162.7581 C   0  0  0  0  0  0  0  0  0  0  0  0
  145.0217  134.8241  161.8091 S   0  0  0  0  0  0  0  0  0  0  0  0
  144.9777  133.4524  161.2788 O   0  0  0  0  0  0  0  0  0  0  0  0
  143.9140  135.3105  162.6454 O   0  0  0  0  0  0  0  0  0  0  0  0
  145.2949  135.8927  160.5467 N   0  0  0  0  0  0  0  0  0  0  0  0
  146.4844  136.2055  160.1303 C   0  0  0  0  0  0  0  0  0  0  0  0
  146.6191  137.1060  158.9963 C   0  0  0  0  0  0  0  0  0  0  0  0
  147.8244  137.5456  158.5796 C   0  0  0  0  0  0  0  0  0  0  0  0
  149.4698  139.2498  158.1070 H   0  0  0  0  0  0  0  0  0  0  0  0
  152.2470  138.7762  157.3695 H   0  0  0  0  0  0  0  0  0  0  0  0
  151.2681  140.1268  156.8668 H   0  0  0  0  0  0  0  0  0  0  0  0
  151.8263  140.1074  159.7964 H   0  0  0  0  0  0  0  0  0  0  0  0
  153.2777  140.1744  158.8342 H   0  0  0  0  0  0  0  0  0  0  0  0
  153.1361  142.4618  160.3715 H   0  0  0  0  0  0  0  0  0  0  0  0
  152.8288  144.9089  159.9674 H   0  0  0  0  0  0  0  0  0  0  0  0
  151.5022  145.6454  157.9016 H   0  0  0  0  0  0  0  0  0  0  0  0
  150.8365  141.7335  156.7451 H   0  0  0  0  0  0  0  0  0  0  0  0
  149.7768  135.9063  160.8339 H   0  0  0  0  0  0  0  0  0  0  0  0
  147.6256  133.7679  161.3344 H   0  0  0  0  0  0  0  0  0  0  0  0
  148.6586  134.7842  162.3149 H   0  0  0  0  0  0  0  0  0  0  0  0
  146.5820  134.2933  163.5744 H   0  0  0  0  0  0  0  0  0  0  0  0
  146.6227  136.0187  163.1839 H   0  0  0  0  0  0  0  0  0  0  0  0
  145.7498  137.4581  158.4595 H   0  0  0  0  0  0  0  0  0  0  0  0
  147.8502  138.2157  157.7331 H   0  0  0  0  0  0  0  0  0  0  0  0
  150.6322  144.0231  156.4970 H   0  0  0  0  0  0  0  0  0  0  0  0
  1  2  2  0  0  0  0
  2  3  1  0  0  0  0
  2 12  1  0  0  0  0
  3  4  1  0  0  0  0
  3 24  1  0  0  0  0
  4  5  1  0  0  0  0
  4 25  1  0  0  0  0
  4 26  1  0  0  0  0
  5  6  1  0  0  0  0
  5 27  1  0  0  0  0
  5 28  1  0  0  0  0
  6 11  1  0  0  0  0
  6  7  2  0  0  0  0
  7  8  1  0  0  0  0
  7 29  1  0  0  0  0
  8  9  2  0  0  0  0
  8 30  1  0  0  0  0
  9 10  1  0  0  0  0
  9 31  1  0  0  0  0
 10 11  2  0  0  0  0
 10 40  1  0  0  0  0
 11 32  1  0  0  0  0
 12 23  1  0  0  0  0
 12 13  2  0  0  0  0
 13 14  1  0  0  0  0
 13 33  1  0  0  0  0
 14 21  1  0  0  0  0
 14 15  1  0  0  0  0
 15 16  1  0  0  0  0
 15 34  1  0  0  0  0
 15 35  1  0  0  0  0
 16 17  1  0  0  0  0
 16 36  1  0  0  0  0
 16 37  1  0  0  0  0
 17 18  2  0  0  0  0
 17 19  2  0  0  0  0
 17 20  1  0  0  0  0
 20 21  2  0  0  0  0
 21 22  1  0  0  0  0
 22 23  2  0  0  0  0
 22 38  1  0  0  0  0
 23 39  1  0  0  0  0
M  CHG  1  10   1
M  END
> <s_m_source_file>
AV-unprocessed.smi

> <i_m_source_file_index>
2164

> <i_lp_mmshare_version>
43012

> <i_f3d_flags>
0

> <s_epik_input>
W0NIMl0xW0NIMl1TKD1PKSg9TylOPUMoTjEyKVtDSF09W0NIXUMoPVtDSF0yKUMoPU8pW05IXVtDSDJdW0NIMl1jM1tjSF1bY0hdW2NIXW5bY0hdMw==

> <s_epik_cmdline>
J2VwaWtfcHl0aG9uJywgJy1waCcsICc3LjAnLCAnLXRuJywgJzgnLCAnLW1hJywgJzIwMCcsICctbWV0YWxfYmluZGluZycsICctaW1hZScsICc8aW5maWxlLm1hZT4nLCAnLW9tYWUnLCAnPG91dGZpbGUubWFlPic=

> <r_epik_Ionization_Penalty>
2.45963

> <r_epik_Ionization_Penalty_Charging>
2.45946

> <r_epik_Ionization_Penalty_Neutral>
0.000170278

> <r_epik_State_Penalty>
2.62155

> <r_epik_Charging_Adjusted_Penalty>
5.08101

> <i_epik_Tot_Q>
1

> <i_epik_Tot_abs_Q>
1

> <r_epik_Metal_State_Penalty>
2.85721

> <b_epik_Metal_Only>
0

> <s_lp_Force_Field>
OPLS_2005

> <r_lp_Energy>
29.3092

> <b_lp_Chiralities_Consistent>
1

> <s_lp_Variant>
AV-unprocessed.smi:2164-2

> <Gold.Version>
5.8.1

> <Gold.Id.Protein>
6NUR|6NUR_protein|mol2

> <Gold.PLP.Fitness>
48.6968

> <Gold.PLP.PLP>
-41.2872

> <Gold.PLP.part.hbond>
-2.0000

> <Gold.PLP.part.metal>
0.0000

> <Gold.PLP.part.buried>
-6.7728

> <Gold.PLP.part.nonpolar>
-33.3437

> <Gold.PLP.part.repulsive>
0.2217

> <Gold.PLP.ligand.clash>
0.0000

> <Gold.PLP.ligand.torsion>
0.7943

> <Gold.PLP.Chemscore.Hbond>
2.9913

> <Gold.PLP.Chemscore.CHOScore>
0.0000

> <Gold.PLP.Chemscore.Metal>
0.0000

> <Gold.Chemscore.Hbonds>
donor molecule, donor type, donor heavy atom, donor atom, acceptor molecule, acceptor atom, score
      L1  H    10    40       P1  8028  1.98
      P1  H  6896  6907       L1     1  1.00

> <Gold.PLP.Chemscore.Internal.Correction>
0.0244

> <Gold.Rescore>
     Score         DG    S(hbond)    S(metal)    S(lipo)     H(rot)  DE(clash)    DE(int)     intcor
     18.61     -19.27       1.96        0.00      95.46       1.54       0.00       0.66       ----

> <Gold.Chemscore.Fitness>
18.6076

> <Gold.Chemscore.DG>
-19.2669

> <Gold.Chemscore.ZeroCoef>
-5.4800

> <Gold.Chemscore.Hbond>
1.9606

> <Gold.Chemscore.Metal>
0.0000

> <Gold.Chemscore.Lipo>
95.4645

> <Gold.Chemscore.Internal_Hbond>
0.0000

> <Gold.Chemscore.DEClash>
0.0015

> <Gold.Chemscore.DEInternal>
0.6578

> <Gold.Chemscore.Rot>
1.5355

> <Gold.Chemscore.Internal.Correction>
   9.000000E+99

> <Gold.Chemscore.Hbonds>
donor molecule, donor type, donor heavy atom, donor atom, acceptor molecule, acceptor atom, score
      L1  H    10    40       P1  8028  0.87
      P1  H  6896  6907       L1     1  0.90

> <Gold.Chemscore.Hbond.Weighted>
-6.5484

> <Gold.Chemscore.Metal.Weighted>
-0.0000

> <Gold.Chemscore.Lipo.Weighted>
-11.1693

> <Gold.Chemscore.Internal_Hbond.Weighted>
0.0000

> <Gold.Chemscore.DEClash.Weighted>
0.0015

> <Gold.Chemscore.DEInternal.Weighted>
0.6578

> <Gold.Chemscore.Rot.Weighted>
3.9309

> <Gold.Chemscore.Internal.Correction.Weighted>
   9.000000E+99

> <Gold.Protein.RotatedTorsions>
[ 6907 6896 6895 6894 ] final  -10.49 input  -60.11 | X-H torsion
[ 7974 7965 7964 7962 ] final  -87.31 input  175.53 | X-H torsion
[ 8008 7997 7996 7995 ] final  117.99 input   59.86 | X-H torsion
[ 10167 10162 10161 10158 ] final -110.21 input  -65.29 | X-H torsion
[ 10718 10713 10712 10709 ] final -105.84 input   66.30 | X-H torsion
[ 10763 10752 10751 10750 ] final   22.09 input  -60.55 | X-H torsion
[ 11005 11000 10999 10996 ] final  114.96 input  -57.11 | X-H torsion

> <Gold.Protein.ActiveResidues>
 VAL166  LYS551  ARG553  GLY616  TRP617  ASP618  TYR619  PRO620  LYS621  CYS622 
 ASP623  PHE694  ASN695  SER759  ASP760  ASP761  ALA762  ILE779  LEU786  VAL792 
 PHE793  MET794  SER795  GLU796  ALA797  LYS798  CYS799  TRP800  GLU811  SER814 

> <Gold.Protein.RotatedAtoms>
  151.4012  135.0971  159.9556 H   0  0  0  0  0  0  0  0  0  0  0  0  # atno 6907 bound_to 6896
  152.5050  133.8887  159.7393 H   0  0  0  0  0  0  0  0  0  0  0  0  # atno 6908 bound_to 6896
  150.9361  133.6654  159.2829 H   0  0  0  0  0  0  0  0  0  0  0  0  # atno 6909 bound_to 6896
  145.4682  140.9560  143.1931 H   0  0  0  0  0  0  0  0  0  0  0  0  # atno 7974 bound_to 7965
  156.2523  140.2884  156.0765 H   0  0  0  0  0  0  0  0  0  0  0  0  # atno 8008 bound_to 7997
  155.1613  140.0399  157.2860 H   0  0  0  0  0  0  0  0  0  0  0  0  # atno 8009 bound_to 7997
  154.6390  140.2518  155.7350 H   0  0  0  0  0  0  0  0  0  0  0  0  # atno 8010 bound_to 7997
  140.1469  143.4231  152.1522 H   0  0  0  0  0  0  0  0  0  0  0  0  # atno 10167 bound_to 10162
  156.0363  130.5583  150.7596 H   0  0  0  0  0  0  0  0  0  0  0  0  # atno 10718 bound_to 10713
  153.0943  135.6655  153.9793 H   0  0  0  0  0  0  0  0  0  0  0  0  # atno 10763 bound_to 10752
  153.9381  135.2997  155.3445 H   0  0  0  0  0  0  0  0  0  0  0  0  # atno 10764 bound_to 10752
  154.7361  135.5101  153.9117 H   0  0  0  0  0  0  0  0  0  0  0  0  # atno 10765 bound_to 10752
  139.8995  134.9576  156.6972 H   0  0  0  0  0  0  0  0  0  0  0  0  # atno 11005 bound_to 11000
  144.7961  139.6232  143.7092 LP  0  0  0  0  0  0  0  0  0  0  0  0  # atno 17320 bound_to 7965
  146.2412  139.6005  142.9490 LP  0  0  0  0  0  0  0  0  0  0  0  0  # atno 17321 bound_to 7965
  139.5444  144.7286  151.4629 LP  0  0  0  0  0  0  0  0  0  0  0  0  # atno 17342 bound_to 10162
  140.6726  143.8260  150.7018 LP  0  0  0  0  0  0  0  0  0  0  0  0  # atno 17343 bound_to 10162
  157.5119  131.0926  151.0188 LP  0  0  0  0  0  0  0  0  0  0  0  0  # atno 17370 bound_to 10713
  157.0541  130.5799  149.5375 LP  0  0  0  0  0  0  0  0  0  0  0  0  # atno 17371 bound_to 10713
  140.7179  133.9166  155.8127 LP  0  0  0  0  0  0  0  0  0  0  0  0  # atno 17394 bound_to 11000
  141.0250  134.0836  157.4078 LP  0  0  0  0  0  0  0  0  0  0  0  0  # atno 17395 bound_to 11000

$$$$
