AV-unprocessed.smi:3018|AV-procd|sdf|11483|dock10
  -GOLD-   2272016423D 1   1.00000     0.00000
 Structure written by MMmdl.
 44 45  0  0  0  0  0  0  0  0  2 V2000
  151.4704  139.0180  154.8200 C   0  0  0  0  0  0  0  0  0  0  0  0
  152.2243  139.3716  156.1081 C   0  0  0  0  0  0  0  0  0  0  0  0
  151.3093  139.9832  157.1847 C   0  0  2  0  0  0  0  0  0  0  0  0
  152.1426  140.5637  158.1871 O   0  0  0  0  0  0  0  0  0  0  0  0
  151.7026  141.7954  158.7545 C   0  0  0  0  0  0  0  0  0  0  0  0
  151.3478  142.8064  157.6449 C   0  0  0  0  0  0  0  0  0  0  0  0
  151.0059  144.1848  158.2345 C   0  0  0  0  0  0  0  0  0  0  0  0
  152.1468  144.7140  159.1184 C   0  0  0  0  0  0  0  0  0  0  0  0
  152.5084  143.7071  160.2218 C   0  0  0  0  0  0  0  0  0  0  0  0
  152.8508  142.3320  159.6265 C   0  0  0  0  0  0  0  0  0  0  0  0
  150.4091  138.9084  157.8127 C   0  0  0  0  0  0  0  0  0  0  0  0
  150.5501  138.5984  158.9958 O   0  0  0  0  0  0  0  0  0  0  0  0
  149.4883  138.3579  157.0056 N   0  0  0  0  0  0  0  0  0  0  0  0
  148.5636  137.2885  157.3753 C   0  0  0  0  0  0  0  0  0  0  0  0
  147.6132  137.7076  158.5159 C   0  0  0  0  0  0  0  0  0  0  0  0
  147.5440  136.6864  159.6221 C   0  0  0  0  0  0  0  0  0  0  0  0
  147.3139  135.4341  159.4811 N   0  0  0  0  0  0  0  0  0  0  0  0
  147.3818  134.9716  160.7399 N   0  0  0  0  0  0  0  0  0  0  0  0
  147.6456  135.9461  161.6135 C   0  0  0  0  0  0  0  0  0  0  0  0
  147.7548  135.7625  162.8238 O   0  0  0  0  0  0  0  0  0  0  0  0
  147.7518  137.0844  160.9053 N   0  5  0  0  0  0  0  0  0  0  0  0
  147.2413  133.9904  160.9301 H   0  0  0  0  0  0  0  0  0  0  0  0
  152.1436  138.5736  154.0866 H   0  0  0  0  0  0  0  0  0  0  0  0
  151.0240  139.9038  154.3676 H   0  0  0  0  0  0  0  0  0  0  0  0
  150.6715  138.3023  155.0152 H   0  0  0  0  0  0  0  0  0  0  0  0
  152.6939  138.4661  156.4962 H   0  0  0  0  0  0  0  0  0  0  0  0
  153.0371  140.0603  155.8725 H   0  0  0  0  0  0  0  0  0  0  0  0
  150.6888  140.7484  156.7162 H   0  0  0  0  0  0  0  0  0  0  0  0
  150.8351  141.6444  159.3980 H   0  0  0  0  0  0  0  0  0  0  0  0
  152.1874  142.9031  156.9555 H   0  0  0  0  0  0  0  0  0  0  0  0
  150.5041  142.4498  157.0549 H   0  0  0  0  0  0  0  0  0  0  0  0
  150.8006  144.8926  157.4310 H   0  0  0  0  0  0  0  0  0  0  0  0
  150.0909  144.1124  158.8239 H   0  0  0  0  0  0  0  0  0  0  0  0
  153.0247  144.9105  158.5015 H   0  0  0  0  0  0  0  0  0  0  0  0
  151.8618  145.6677  159.5635 H   0  0  0  0  0  0  0  0  0  0  0  0
  153.3512  144.0805  160.8041 H   0  0  0  0  0  0  0  0  0  0  0  0
  151.6729  143.6073  160.9158 H   0  0  0  0  0  0  0  0  0  0  0  0
  153.0674  141.6251  160.4281 H   0  0  0  0  0  0  0  0  0  0  0  0
  153.7606  142.4103  159.0297 H   0  0  0  0  0  0  0  0  0  0  0  0
  149.4464  138.6821  156.0507 H   0  0  0  0  0  0  0  0  0  0  0  0
  147.9994  136.9272  156.5133 H   0  0  0  0  0  0  0  0  0  0  0  0
  149.1672  136.4451  157.7103 H   0  0  0  0  0  0  0  0  0  0  0  0
  147.9482  138.6613  158.9262 H   0  0  0  0  0  0  0  0  0  0  0  0
  146.6144  137.8914  158.1182 H   0  0  0  0  0  0  0  0  0  0  0  0
  1  2  1  0  0  0  0
  1 23  1  0  0  0  0
  1 24  1  0  0  0  0
  1 25  1  0  0  0  0
  2  3  1  0  0  0  0
  2 26  1  0  0  0  0
  2 27  1  0  0  0  0
  3  4  1  0  0  0  0
  3 11  1  0  0  0  0
  3 28  1  0  0  0  0
  4  5  1  0  0  0  0
  5 10  1  0  0  0  0
  5  6  1  0  0  0  0
  5 29  1  0  0  0  0
  6  7  1  0  0  0  0
  6 30  1  0  0  0  0
  6 31  1  0  0  0  0
  7  8  1  0  0  0  0
  7 32  1  0  0  0  0
  7 33  1  0  0  0  0
  8  9  1  0  0  0  0
  8 34  1  0  0  0  0
  8 35  1  0  0  0  0
  9 10  1  0  0  0  0
  9 36  1  0  0  0  0
  9 37  1  0  0  0  0
 10 38  1  0  0  0  0
 10 39  1  0  0  0  0
 11 12  2  0  0  0  0
 11 13  1  0  0  0  0
 13 14  1  0  0  0  0
 13 40  1  0  0  0  0
 14 15  1  0  0  0  0
 14 41  1  0  0  0  0
 14 42  1  0  0  0  0
 15 16  1  0  0  0  0
 15 43  1  0  0  0  0
 15 44  1  0  0  0  0
 16 21  1  0  0  0  0
 16 17  2  0  0  0  0
 17 18  1  0  0  0  0
 18 22  1  0  0  0  0
 18 19  1  0  0  0  0
 19 20  2  0  0  0  0
 19 21  1  0  0  0  0
M  CHG  1  21  -1
M  END
> <s_m_source_file>
AV-unprocessed.smi

> <i_m_source_file_index>
3018

> <i_lp_mmshare_version>
43012

> <i_f3d_flags>
0

> <s_epik_input>
W0NIMl0xW0NIMl1bQ0gyXVtDSDJdW0NIMl1bQ0hdMU9bQ0BASF0oW0NIMl1bQ0gzXSlDKD1PKVtOSF1bQ0gyXVtDSDJdYzJuW25IXWMoPU8pW25IXTI=

> <s_epik_cmdline>
J2VwaWtfcHl0aG9uJywgJy1waCcsICc3LjAnLCAnLXRuJywgJzgnLCAnLW1hJywgJzIwMCcsICctbWV0YWxfYmluZGluZycsICctaW1hZScsICc8aW5maWxlLm1hZT4nLCAnLW9tYWUnLCAnPG91dGZpbGUubWFlPic=

> <r_lp_tautomer_probability>
1

> <r_epik_Ionization_Penalty>
13.7173

> <r_epik_Ionization_Penalty_Charging>
13.7173

> <r_epik_Ionization_Penalty_Neutral>
5.37575e-06

> <r_epik_State_Penalty>
4.05785

> <r_epik_Charging_Adjusted_Penalty>
17.7751

> <i_epik_Tot_Q>
-1

> <i_epik_Tot_abs_Q>
1

> <r_epik_Metal_State_Penalty>
0.460256

> <b_epik_Metal_Only>
1

> <s_lp_Force_Field>
OPLS_2005

> <r_lp_Energy>
25.0633

> <b_lp_Chiralities_Consistent>
1

> <s_lp_Variant>
AV-unprocessed.smi:3018-5

> <Gold.Version>
5.8.1

> <Gold.Id.Protein>
6NUR|6NUR_protein|mol2

> <Gold.PLP.Fitness>
46.1263

> <Gold.PLP.PLP>
-37.4099

> <Gold.PLP.part.hbond>
-2.5782

> <Gold.PLP.part.metal>
0.0000

> <Gold.PLP.part.buried>
-6.1367

> <Gold.PLP.part.nonpolar>
-29.9846

> <Gold.PLP.part.repulsive>
0.0485

> <Gold.PLP.ligand.clash>
0.0000

> <Gold.PLP.ligand.torsion>
1.1404

> <Gold.PLP.Chemscore.Hbond>
3.6480

> <Gold.PLP.Chemscore.CHOScore>
0.0000

> <Gold.PLP.Chemscore.Metal>
0.0000

> <Gold.Chemscore.Hbonds>
donor molecule, donor type, donor heavy atom, donor atom, acceptor molecule, acceptor atom, score
      P1  H  6931  6943       L1    21  1.86
      P1  H  6934  6947       L1    21  1.79

> <Gold.PLP.Chemscore.Internal.Correction>
0.0533

> <Gold.Rescore>
     Score         DG    S(hbond)    S(metal)    S(lipo)     H(rot)  DE(clash)    DE(int)     intcor
     10.06     -11.41       0.96        0.00      88.25       2.98       0.00       1.34       ----

> <Gold.Chemscore.Fitness>
10.0599

> <Gold.Chemscore.DG>
-11.4058

> <Gold.Chemscore.ZeroCoef>
-5.4800

> <Gold.Chemscore.Hbond>
0.9647

> <Gold.Chemscore.Metal>
0.0000

> <Gold.Chemscore.Lipo>
88.2492

> <Gold.Chemscore.Internal_Hbond>
0.0000

> <Gold.Chemscore.DEClash>
0.0021

> <Gold.Chemscore.DEInternal>
1.3437

> <Gold.Chemscore.Rot>
2.9772

> <Gold.Chemscore.Internal.Correction>
   9.000000E+99

> <Gold.Chemscore.Hbonds>
donor molecule, donor type, donor heavy atom, donor atom, acceptor molecule, acceptor atom, score
      P1  H  6931  6943       L1    21  0.52
      P1  H  6934  6947       L1    21  0.42

> <Gold.Chemscore.Hbond.Weighted>
-3.2222

> <Gold.Chemscore.Metal.Weighted>
-0.0000

> <Gold.Chemscore.Lipo.Weighted>
-10.3252

> <Gold.Chemscore.Internal_Hbond.Weighted>
0.0000

> <Gold.Chemscore.DEClash.Weighted>
0.0021

> <Gold.Chemscore.DEInternal.Weighted>
1.3437

> <Gold.Chemscore.Rot.Weighted>
7.6216

> <Gold.Chemscore.Internal.Correction.Weighted>
   9.000000E+99

> <Gold.Protein.RotatedTorsions>
[ 6907 6896 6895 6894 ] final  -75.81 input  -60.11 | X-H torsion
[ 7974 7965 7964 7962 ] final   27.65 input  175.53 | X-H torsion
[ 8008 7997 7996 7995 ] final   88.05 input   59.86 | X-H torsion
[ 10167 10162 10161 10158 ] final   28.91 input  -65.29 | X-H torsion
[ 10718 10713 10712 10709 ] final   36.52 input   66.30 | X-H torsion
[ 10763 10752 10751 10750 ] final  -61.70 input  -60.55 | X-H torsion
[ 11005 11000 10999 10996 ] final   90.92 input  -57.11 | X-H torsion

> <Gold.Protein.ActiveResidues>
 VAL166  LYS551  ARG553  GLY616  TRP617  ASP618  TYR619  PRO620  LYS621  CYS622 
 ASP623  PHE694  ASN695  SER759  ASP760  ASP761  ALA762  ILE779  LEU786  VAL792 
 PHE793  MET794  SER795  GLU796  ALA797  LYS798  CYS799  TRP800  GLU811  SER814 

> <Gold.Protein.RotatedAtoms>
  150.7047  134.4666  159.5405 H   0  0  0  0  0  0  0  0  0  0  0  0  # atno 6907 bound_to 6896
  152.2330  134.8300  160.0480 H   0  0  0  0  0  0  0  0  0  0  0  0  # atno 6908 bound_to 6896
  151.9109  133.3526  159.3900 H   0  0  0  0  0  0  0  0  0  0  0  0  # atno 6909 bound_to 6896
  146.1772  139.7162  142.8926 H   0  0  0  0  0  0  0  0  0  0  0  0  # atno 7974 bound_to 7965
  155.9830  140.3375  155.6680 H   0  0  0  0  0  0  0  0  0  0  0  0  # atno 8008 bound_to 7997
  155.6524  140.0707  157.2600 H   0  0  0  0  0  0  0  0  0  0  0  0  # atno 8009 bound_to 7997
  154.4197  140.1723  156.1676 H   0  0  0  0  0  0  0  0  0  0  0  0  # atno 8010 bound_to 7997
  140.4811  144.0614  150.6266 H   0  0  0  0  0  0  0  0  0  0  0  0  # atno 10167 bound_to 10162
  157.3358  130.7522  149.6878 H   0  0  0  0  0  0  0  0  0  0  0  0  # atno 10718 bound_to 10713
  154.2886  135.6258  153.5376 H   0  0  0  0  0  0  0  0  0  0  0  0  # atno 10763 bound_to 10752
  152.9855  135.5650  154.5416 H   0  0  0  0  0  0  0  0  0  0  0  0  # atno 10764 bound_to 10752
  154.5022  135.2872  155.1387 H   0  0  0  0  0  0  0  0  0  0  0  0  # atno 10765 bound_to 10752
  139.8847  134.8643  156.3354 H   0  0  0  0  0  0  0  0  0  0  0  0  # atno 11005 bound_to 11000
  145.4177  141.0403  143.2981 LP  0  0  0  0  0  0  0  0  0  0  0  0  # atno 17320 bound_to 7965
  144.8256  139.5716  143.6967 LP  0  0  0  0  0  0  0  0  0  0  0  0  # atno 17321 bound_to 7965
  140.3856  143.2779  152.0120 LP  0  0  0  0  0  0  0  0  0  0  0  0  # atno 17342 bound_to 10162
  139.4834  144.6119  151.7418 LP  0  0  0  0  0  0  0  0  0  0  0  0  # atno 17343 bound_to 10162
  155.9701  130.4182  150.4315 LP  0  0  0  0  0  0  0  0  0  0  0  0  # atno 17370 bound_to 10713
  157.2354  131.0513  151.2467 LP  0  0  0  0  0  0  0  0  0  0  0  0  # atno 17371 bound_to 10713
  140.9694  133.7337  156.0513 LP  0  0  0  0  0  0  0  0  0  0  0  0  # atno 17394 bound_to 11000
  140.7889  134.3640  157.5469 LP  0  0  0  0  0  0  0  0  0  0  0  0  # atno 17395 bound_to 11000

$$$$
