AV-unprocessed.smi:332|AV-procd|sdf|2359|dock5
  -GOLD-   2262022273D 1   1.00000     0.00000
 Structure written by MMmdl.
 42 44  0  0  0  0  0  0  0  0  1 V2000
  151.3880  140.3110  157.7573 C   0  0  0  0  0  0  0  0  0  0  0  0
  151.2484  141.7711  157.2961 C   0  0  1  0  0  0  0  0  0  0  0  0
  150.0807  141.8689  156.4222 N   0  0  0  0  0  0  0  0  0  0  0  0
  149.8925  141.1912  155.2790 C   0  0  0  0  0  0  0  0  0  0  0  0
  150.6853  140.3538  154.8460 O   0  0  0  0  0  0  0  0  0  0  0  0
  148.5998  141.5096  154.5155 C   0  0  0  0  0  0  0  0  0  0  0  0
  147.7203  140.3388  154.3635 N   0  0  0  0  0  0  0  0  0  0  0  0
  147.4268  139.9208  153.0502 C   0  0  0  0  0  0  0  0  0  0  0  0
  146.6328  138.8676  152.8014 C   0  0  0  0  0  0  0  0  0  0  0  0
  146.0720  138.1550  153.9248 C   0  0  0  0  0  0  0  0  0  0  0  0
  146.3433  138.5485  155.1851 C   0  0  0  0  0  0  0  0  0  0  0  0
  147.2098  139.7002  155.4619 C   0  0  0  0  0  0  0  0  0  0  0  0
  147.4614  140.0684  156.6100 O   0  0  0  0  0  0  0  0  0  0  0  0
  151.1058  142.7552  158.4841 C   0  0  1  0  0  0  0  0  0  0  0  0
  152.3005  142.7137  159.4680 C   0  0  0  0  0  0  0  0  0  0  0  0
  152.7448  144.1846  159.5512 C   0  0  2  0  0  0  0  0  0  0  0  0
  151.6770  145.0045  160.2976 C   0  0  0  0  0  0  0  0  0  0  0  0
  150.5301  145.0766  159.2728 C   0  0  0  0  0  0  0  0  0  0  0  0
  151.0792  144.2562  158.0900 C   0  0  1  0  0  0  0  0  0  0  0  0
  152.5540  144.6437  158.1120 C   0  0  0  0  0  0  0  0  0  0  0  0
  152.2771  140.1668  158.3709 H   0  0  0  0  0  0  0  0  0  0  0  0
  151.4727  139.6382  156.9033 H   0  0  0  0  0  0  0  0  0  0  0  0
  150.5248  139.9955  158.3444 H   0  0  0  0  0  0  0  0  0  0  0  0
  152.1518  142.0275  156.7408 H   0  0  0  0  0  0  0  0  0  0  0  0
  149.3689  142.5306  156.6966 H   0  0  0  0  0  0  0  0  0  0  0  0
  148.0857  142.3156  155.0409 H   0  0  0  0  0  0  0  0  0  0  0  0
  148.8427  141.9179  153.5323 H   0  0  0  0  0  0  0  0  0  0  0  0
  147.8788  140.5110  152.2662 H   0  0  0  0  0  0  0  0  0  0  0  0
  146.4156  138.5641  151.7877 H   0  0  0  0  0  0  0  0  0  0  0  0
  145.4304  137.3032  153.7537 H   0  0  0  0  0  0  0  0  0  0  0  0
  145.9130  138.0043  156.0131 H   0  0  0  0  0  0  0  0  0  0  0  0
  150.1845  142.5086  159.0147 H   0  0  0  0  0  0  0  0  0  0  0  0
  152.0220  142.3083  160.4414 H   0  0  0  0  0  0  0  0  0  0  0  0
  153.1191  142.1060  159.0802 H   0  0  0  0  0  0  0  0  0  0  0  0
  153.7521  144.3146  159.9472 H   0  0  0  0  0  0  0  0  0  0  0  0
  151.3719  144.5310  161.2315 H   0  0  0  0  0  0  0  0  0  0  0  0
  152.0455  146.0040  160.5321 H   0  0  0  0  0  0  0  0  0  0  0  0
  149.5941  144.6753  159.6625 H   0  0  0  0  0  0  0  0  0  0  0  0
  150.3487  146.1102  158.9748 H   0  0  0  0  0  0  0  0  0  0  0  0
  150.5649  144.4769  157.1549 H   0  0  0  0  0  0  0  0  0  0  0  0
  152.7232  145.7129  157.9735 H   0  0  0  0  0  0  0  0  0  0  0  0
  153.1621  144.0908  157.3942 H   0  0  0  0  0  0  0  0  0  0  0  0
  1  2  1  0  0  0  0
  1 21  1  0  0  0  0
  1 22  1  0  0  0  0
  1 23  1  0  0  0  0
  2  3  1  0  0  0  0
  2 14  1  0  0  0  0
  2 24  1  0  0  0  0
  3  4  1  0  0  0  0
  3 25  1  0  0  0  0
  4  5  2  0  0  0  0
  4  6  1  0  0  0  0
  6  7  1  0  0  0  0
  6 26  1  0  0  0  0
  6 27  1  0  0  0  0
  7 12  1  0  0  0  0
  7  8  1  0  0  0  0
  8  9  2  0  0  0  0
  8 28  1  0  0  0  0
  9 10  1  0  0  0  0
  9 29  1  0  0  0  0
 10 11  2  0  0  0  0
 10 30  1  0  0  0  0
 11 12  1  0  0  0  0
 11 31  1  0  0  0  0
 12 13  2  0  0  0  0
 14 19  1  0  0  0  0
 14 15  1  0  0  0  0
 14 32  1  0  0  0  0
 15 16  1  0  0  0  0
 15 33  1  0  0  0  0
 15 34  1  0  0  0  0
 16 20  1  0  0  0  0
 16 17  1  0  0  0  0
 16 35  1  0  0  0  0
 17 18  1  0  0  0  0
 17 36  1  0  0  0  0
 17 37  1  0  0  0  0
 18 19  1  0  0  0  0
 18 38  1  0  0  0  0
 18 39  1  0  0  0  0
 19 20  1  0  0  0  0
 19 40  1  0  0  0  0
 20 41  1  0  0  0  0
 20 42  1  0  0  0  0
M  END
> <s_m_source_file>
AV-unprocessed.smi

> <i_m_source_file_index>
332

> <i_lp_mmshare_version>
43012

> <i_f3d_flags>
0

> <s_epik_input>
W0NIMl0xW0NIMl1bQ0BIXShbQ0gyXTIpW0NAQEhdKFtDSDJdW0NAQEhdMTIpW0NASF0oW0NIM10pW05IXUMoPU8pW0NIMl1uM1tjSF1bY0hdW2NIXVtjSF1jMz1P

> <s_epik_cmdline>
J2VwaWtfcHl0aG9uJywgJy1waCcsICc3LjAnLCAnLXRuJywgJzgnLCAnLW1hJywgJzIwMCcsICctbWV0YWxfYmluZGluZycsICctaW1hZScsICc8aW5maWxlLm1hZT4nLCAnLW9tYWUnLCAnPG91dGZpbGUubWFlPic=

> <r_lp_tautomer_probability>
1

> <r_epik_Ionization_Penalty>
4.05802e-07

> <r_epik_Ionization_Penalty_Charging>
3.84175e-07

> <r_epik_Ionization_Penalty_Neutral>
2.16269e-08

> <r_epik_State_Penalty>
-0

> <r_epik_Charging_Adjusted_Penalty>
3.84175e-07

> <i_epik_Tot_Q>
0

> <i_epik_Tot_abs_Q>
0

> <r_epik_Metal_State_Penalty>
-0

> <b_epik_Metal_Only>
0

> <s_lp_Force_Field>
OPLS_2005

> <r_lp_Energy>
59.7004

> <b_lp_Chiralities_Consistent>
1

> <s_lp_Variant>
AV-unprocessed.smi:332-8

> <Gold.Version>
5.8.1

> <Gold.Id.Protein>
6NUR|6NUR_protein|mol2

> <Gold.PLP.Fitness>
47.8493

> <Gold.PLP.PLP>
-41.9428

> <Gold.PLP.part.hbond>
-1.3740

> <Gold.PLP.part.metal>
0.0000

> <Gold.PLP.part.buried>
-4.3203

> <Gold.PLP.part.nonpolar>
-37.9429

> <Gold.PLP.part.repulsive>
0.1369

> <Gold.PLP.ligand.clash>
0.0000

> <Gold.PLP.ligand.torsion>
0.0152

> <Gold.PLP.Chemscore.Hbond>
1.0000

> <Gold.PLP.Chemscore.CHOScore>
0.9745

> <Gold.PLP.Chemscore.Metal>
0.0000

> <Gold.Chemscore.Hbonds>
donor molecule, donor type, donor heavy atom, donor atom, acceptor molecule, acceptor atom, score
      P1  H  7989  7998       L1     5  1.00
      L1  C     8    28       P1  7957  0.96

> <Gold.PLP.Chemscore.Internal.Correction>
0.0136

> <Gold.Rescore>
     Score         DG    S(hbond)    S(metal)    S(lipo)     H(rot)  DE(clash)    DE(int)     intcor
     16.51     -19.11       0.96        0.00     122.75       1.54       0.48       2.12       ----

> <Gold.Chemscore.Fitness>
16.5106

> <Gold.Chemscore.DG>
-19.1087

> <Gold.Chemscore.ZeroCoef>
-5.4800

> <Gold.Chemscore.Hbond>
0.9606

> <Gold.Chemscore.Metal>
0.0000

> <Gold.Chemscore.Lipo>
122.7546

> <Gold.Chemscore.Internal_Hbond>
0.0000

> <Gold.Chemscore.DEClash>
0.4816

> <Gold.Chemscore.DEInternal>
2.1165

> <Gold.Chemscore.Rot>
1.5398

> <Gold.Chemscore.Internal.Correction>
   9.000000E+99

> <Gold.Chemscore.Hbonds>
donor molecule, donor type, donor heavy atom, donor atom, acceptor molecule, acceptor atom, score
      L1  H     3    25       P1  8028  0.02
      P1  H  7989  7998       L1     5  0.90

> <Gold.Chemscore.Hbond.Weighted>
-3.2083

> <Gold.Chemscore.Metal.Weighted>
-0.0000

> <Gold.Chemscore.Lipo.Weighted>
-14.3623

> <Gold.Chemscore.Internal_Hbond.Weighted>
0.0000

> <Gold.Chemscore.DEClash.Weighted>
0.4816

> <Gold.Chemscore.DEInternal.Weighted>
2.1165

> <Gold.Chemscore.Rot.Weighted>
3.9419

> <Gold.Chemscore.Internal.Correction.Weighted>
   9.000000E+99

> <Gold.Protein.RotatedTorsions>
[ 6907 6896 6895 6894 ] final -167.14 input  -60.11 | X-H torsion
[ 7974 7965 7964 7962 ] final  -42.88 input  175.53 | X-H torsion
[ 8008 7997 7996 7995 ] final  160.79 input   59.86 | X-H torsion
[ 10167 10162 10161 10158 ] final  -26.65 input  -65.29 | X-H torsion
[ 10718 10713 10712 10709 ] final  -74.47 input   66.30 | X-H torsion
[ 10763 10752 10751 10750 ] final  -88.37 input  -60.55 | X-H torsion
[ 11005 11000 10999 10996 ] final  123.59 input  -57.11 | X-H torsion

> <Gold.Protein.ActiveResidues>
 VAL166  LYS551  ARG553  GLY616  TRP617  ASP618  TYR619  PRO620  LYS621  CYS622 
 ASP623  PHE694  ASN695  SER759  ASP760  ASP761  ALA762  ILE779  LEU786  VAL792 
 PHE793  MET794  SER795  GLU796  ALA797  LYS798  CYS799  TRP800  GLU811  SER814 

> <Gold.Protein.RotatedAtoms>
  151.4549  133.3608  159.2800 H   0  0  0  0  0  0  0  0  0  0  0  0  # atno 6907 bound_to 6896
  150.9066  134.8482  159.7407 H   0  0  0  0  0  0  0  0  0  0  0  0  # atno 6908 bound_to 6896
  152.4909  134.4474  159.9615 H   0  0  0  0  0  0  0  0  0  0  0  0  # atno 6909 bound_to 6896
  146.0073  140.7005  142.9241 H   0  0  0  0  0  0  0  0  0  0  0  0  # atno 7974 bound_to 7965
  156.2148  140.1795  156.7613 H   0  0  0  0  0  0  0  0  0  0  0  0  # atno 8008 bound_to 7997
  154.5776  140.0672  156.9085 H   0  0  0  0  0  0  0  0  0  0  0  0  # atno 8009 bound_to 7997
  155.2561  140.3332  155.4280 H   0  0  0  0  0  0  0  0  0  0  0  0  # atno 8010 bound_to 7997
  140.7282  143.4160  151.1028 H   0  0  0  0  0  0  0  0  0  0  0  0  # atno 10167 bound_to 10162
  156.0241  130.4418  150.2897 H   0  0  0  0  0  0  0  0  0  0  0  0  # atno 10718 bound_to 10713
  154.6438  135.5379  153.7821 H   0  0  0  0  0  0  0  0  0  0  0  0  # atno 10763 bound_to 10752
  153.0348  135.6466  154.1119 H   0  0  0  0  0  0  0  0  0  0  0  0  # atno 10764 bound_to 10752
  154.1042  135.2931  155.3225 H   0  0  0  0  0  0  0  0  0  0  0  0  # atno 10765 bound_to 10752
  139.9320  134.9641  156.8283 H   0  0  0  0  0  0  0  0  0  0  0  0  # atno 11005 bound_to 11000
  144.6940  140.3337  143.7211 LP  0  0  0  0  0  0  0  0  0  0  0  0  # atno 17320 bound_to 7965
  145.7396  139.1760  143.2384 LP  0  0  0  0  0  0  0  0  0  0  0  0  # atno 17321 bound_to 7965
  139.7800  143.8370  152.3136 LP  0  0  0  0  0  0  0  0  0  0  0  0  # atno 17342 bound_to 10162
  139.8317  144.7250  150.9441 LP  0  0  0  0  0  0  0  0  0  0  0  0  # atno 17343 bound_to 10162
  157.1000  131.0193  151.3089 LP  0  0  0  0  0  0  0  0  0  0  0  0  # atno 17370 bound_to 10713
  157.4787  130.7752  149.7393 LP  0  0  0  0  0  0  0  0  0  0  0  0  # atno 17371 bound_to 10713
  140.6177  134.0023  155.7604 LP  0  0  0  0  0  0  0  0  0  0  0  0  # atno 17394 bound_to 11000
  141.0913  133.9912  157.3232 LP  0  0  0  0  0  0  0  0  0  0  0  0  # atno 17395 bound_to 11000

$$$$
