AV-unprocessed.smi:72|AV-procd|sdf|673|dock3
  -GOLD-   2262016583D 1   1.00000     0.00000
 Structure written by MMmdl.
 29 30  0  0  0  0  0  0  0  0  1 V2000
  154.0430  138.5005  154.9829 N   0  0  0  0  0  0  0  0  0  0  0  0
  152.7775  138.7230  154.9436 C   0  0  0  0  0  0  0  0  0  0  0  0
  151.8403  137.9546  154.2366 N   0  0  0  0  0  0  0  0  0  0  0  0
  150.5891  138.2948  154.2873 C   0  0  0  0  0  0  0  0  0  0  0  0
  150.1291  139.4480  155.0487 N   0  0  0  0  0  0  0  0  0  0  0  0
  148.6663  139.8525  155.1139 C   0  0  2  0  0  0  0  0  0  0  0  0
  147.8506  138.7561  154.8150 O   0  0  0  0  0  0  0  0  0  0  0  0
  147.2581  138.9202  153.5298 C   0  0  1  0  0  0  0  0  0  0  0  0
  145.9851  138.0675  153.3906 C   0  0  0  0  0  0  0  0  0  0  0  0
  145.4711  138.1769  152.0806 O   0  0  0  0  0  0  0  0  0  0  0  0
  147.0541  140.4372  153.4388 C   0  0  1  0  0  0  0  0  0  0  0  0
  145.8870  140.8394  154.1334 O   0  0  0  0  0  0  0  0  0  0  0  0
  148.2966  140.9876  154.1265 C   0  0  2  0  0  0  0  0  0  0  0  0
  149.2962  141.2575  153.1586 O   0  0  0  0  0  0  0  0  0  0  0  0
  151.0639  140.2342  155.7654 C   0  0  0  0  0  0  0  0  0  0  0  0
  150.7299  141.2251  156.4148 O   0  0  0  0  0  0  0  0  0  0  0  0
  152.3510  139.8340  155.6832 N   0  0  0  0  0  0  0  0  0  0  0  0
  148.4846  140.1177  156.1568 H   0  0  0  0  0  0  0  0  0  0  0  0
  147.9817  138.6350  152.7638 H   0  0  0  0  0  0  0  0  0  0  0  0
  146.9613  140.7741  152.4052 H   0  0  0  0  0  0  0  0  0  0  0  0
  148.0951  141.9068  154.6782 H   0  0  0  0  0  0  0  0  0  0  0  0
  154.2775  137.6890  154.4304 H   0  0  0  0  0  0  0  0  0  0  0  0
  149.8133  137.7366  153.7640 H   0  0  0  0  0  0  0  0  0  0  0  0
  146.1766  137.0223  153.6352 H   0  0  0  0  0  0  0  0  0  0  0  0
  145.2150  138.4277  154.0735 H   0  0  0  0  0  0  0  0  0  0  0  0
  144.6980  138.7200  152.1049 H   0  0  0  0  0  0  0  0  0  0  0  0
  145.1325  140.5106  153.6694 H   0  0  0  0  0  0  0  0  0  0  0  0
  149.1894  140.6500  152.4426 H   0  0  0  0  0  0  0  0  0  0  0  0
  153.0394  140.3760  156.1843 H   0  0  0  0  0  0  0  0  0  0  0  0
  1  2  2  0  0  0  0
  1 22  1  0  0  0  0
  2 17  1  0  0  0  0
  2  3  1  0  0  0  0
  3  4  2  0  0  0  0
  4  5  1  0  0  0  0
  4 23  1  0  0  0  0
  5  6  1  0  0  0  0
  5 15  1  0  0  0  0
  6 18  1  0  0  0  0
  6 13  1  0  0  0  0
  6  7  1  0  0  0  0
  7  8  1  0  0  0  0
  8 19  1  0  0  0  0
  8  9  1  0  0  0  0
  8 11  1  0  0  0  0
  9 10  1  0  0  0  0
  9 24  1  0  0  0  0
  9 25  1  0  0  0  0
 10 26  1  0  0  0  0
 11 20  1  0  0  0  0
 11 12  1  0  0  0  0
 11 13  1  0  0  0  0
 12 27  1  0  0  0  0
 13 21  1  0  0  0  0
 13 14  1  0  0  0  0
 14 28  1  0  0  0  0
 15 16  2  0  0  0  0
 15 17  1  0  0  0  0
 17 29  1  0  0  0  0
M  END
> <s_m_source_file>
AV-unprocessed.smi

> <i_m_source_file_index>
72

> <i_lp_mmshare_version>
43012

> <i_f3d_flags>
0

> <s_epik_input>
W05IMl1jMW5bY0hdbihjKD1PKW4xKVtDQEBIXTJPW0NASF0oW0NIMl1bT0hdKVtDQEBIXShbT0hdKVtDQEhdMltPSF0=

> <s_epik_cmdline>
J2VwaWtfcHl0aG9uJywgJy1waCcsICc3LjAnLCAnLXRuJywgJzgnLCAnLW1hJywgJzIwMCcsICctbWV0YWxfYmluZGluZycsICctaW1hZScsICc8aW5maWxlLm1hZT4nLCAnLW9tYWUnLCAnPG91dGZpbGUubWFlPic=

> <r_lp_tautomer_probability>
7.17554e-07

> <r_epik_Ionization_Penalty>
0.0066451

> <r_epik_Ionization_Penalty_Charging>
0.00663793

> <r_epik_Ionization_Penalty_Neutral>
7.17052e-06

> <r_epik_State_Penalty>
0.419231

> <r_epik_Charging_Adjusted_Penalty>
0.425868

> <i_epik_Tot_Q>
0

> <i_epik_Tot_abs_Q>
0

> <r_epik_Metal_State_Penalty>
1.44144

> <b_epik_Metal_Only>
0

> <s_epik_Chemistry_Notes>
This compound contains an acetal/aminal-like group ( X-CH(R)-Y where X, Y are N, S, or O) that may be acid/base labile, releasing an aldehyde.

> <s_lp_Force_Field>
OPLS_2005

> <r_lp_Energy>
44.6425

> <b_lp_Chiralities_Consistent>
1

> <s_lp_Variant>
AV-unprocessed.smi:72-11

> <Gold.Version>
5.8.1

> <Gold.Id.Protein>
6NUR|6NUR_protein|mol2

> <Gold.PLP.Fitness>
43.6270

> <Gold.PLP.PLP>
-28.8673

> <Gold.PLP.part.hbond>
-6.5768

> <Gold.PLP.part.metal>
0.0000

> <Gold.PLP.part.buried>
-6.7715

> <Gold.PLP.part.nonpolar>
-17.9661

> <Gold.PLP.part.repulsive>
0.5539

> <Gold.PLP.ligand.clash>
0.0000

> <Gold.PLP.ligand.torsion>
0.6492

> <Gold.PLP.Chemscore.Hbond>
4.3239

> <Gold.PLP.Chemscore.CHOScore>
0.9992

> <Gold.PLP.Chemscore.Metal>
0.0000

> <Gold.Chemscore.Hbonds>
donor molecule, donor type, donor heavy atom, donor atom, acceptor molecule, acceptor atom, score
      L1  H    10    26       P1 10175  0.99
      L1  H    12    27       P1 10175  1.00
      L1  H    14    28       P1  7957  0.86
      P1  H  7989  7998       L1    14  0.01
      P1  H  7997  8010       L1     1  0.62
      P1  H  8011  8017       L1    14  0.75
      L1  C     4    23       P1  7948  0.98

> <Gold.PLP.Chemscore.Internal.Correction>
0.0889

> <Gold.Rescore>
     Score         DG    S(hbond)    S(metal)    S(lipo)     H(rot)  DE(clash)    DE(int)     intcor
      8.83      -9.60       3.52        0.00      23.60       4.06       0.01       0.76       ----

> <Gold.Chemscore.Fitness>
8.8269

> <Gold.Chemscore.DG>
-9.5977

> <Gold.Chemscore.ZeroCoef>
-5.4800

> <Gold.Chemscore.Hbond>
3.5180

> <Gold.Chemscore.Metal>
0.0000

> <Gold.Chemscore.Lipo>
23.6002

> <Gold.Chemscore.Internal_Hbond>
0.0000

> <Gold.Chemscore.DEClash>
0.0115

> <Gold.Chemscore.DEInternal>
0.7592

> <Gold.Chemscore.Rot>
4.0600

> <Gold.Chemscore.Internal.Correction>
   9.000000E+99

> <Gold.Chemscore.Hbonds>
donor molecule, donor type, donor heavy atom, donor atom, acceptor molecule, acceptor atom, score
      L1  H    10    26       P1 10175  0.91
      L1  H    12    27       P1 10175  0.99
      L1  H    14    28       P1  7957  0.81
      P1  H  7997  8010       L1     1  0.12
      P1  H  8011  8017       L1    14  0.11

> <Gold.Chemscore.Hbond.Weighted>
-11.7500

> <Gold.Chemscore.Metal.Weighted>
-0.0000

> <Gold.Chemscore.Lipo.Weighted>
-2.7612

> <Gold.Chemscore.Internal_Hbond.Weighted>
0.0000

> <Gold.Chemscore.DEClash.Weighted>
0.0115

> <Gold.Chemscore.DEInternal.Weighted>
0.7592

> <Gold.Chemscore.Rot.Weighted>
10.3936

> <Gold.Chemscore.Internal.Correction.Weighted>
   9.000000E+99

> <Gold.Protein.RotatedTorsions>
[ 6907 6896 6895 6894 ] final   64.59 input  -60.11 | X-H torsion
[ 7974 7965 7964 7962 ] final  113.70 input  175.53 | X-H torsion
[ 8008 7997 7996 7995 ] final  114.69 input   59.86 | X-H torsion
[ 10167 10162 10161 10158 ] final -108.80 input  -65.29 | X-H torsion
[ 10718 10713 10712 10709 ] final  -15.57 input   66.30 | X-H torsion
[ 10763 10752 10751 10750 ] final -121.59 input  -60.55 | X-H torsion
[ 11005 11000 10999 10996 ] final  -21.42 input  -57.11 | X-H torsion

> <Gold.Protein.ActiveResidues>
 VAL166  LYS551  ARG553  GLY616  TRP617  ASP618  TYR619  PRO620  LYS621  CYS622 
 ASP623  PHE694  ASN695  SER759  ASP760  ASP761  ALA762  ILE779  LEU786  VAL792 
 PHE793  MET794  SER795  GLU796  ALA797  LYS798  CYS799  TRP800  GLU811  SER814 

> <Gold.Protein.RotatedAtoms>
  152.4343  134.5717  159.9922 H   0  0  0  0  0  0  0  0  0  0  0  0  # atno 6907 bound_to 6896
  151.5831  133.3369  159.3020 H   0  0  0  0  0  0  0  0  0  0  0  0  # atno 6908 bound_to 6896
  150.8239  134.7496  159.6861 H   0  0  0  0  0  0  0  0  0  0  0  0  # atno 6909 bound_to 6896
  145.2136  139.2894  143.4255 H   0  0  0  0  0  0  0  0  0  0  0  0  # atno 7974 bound_to 7965
  156.2337  140.2954  156.0254 H   0  0  0  0  0  0  0  0  0  0  0  0  # atno 8008 bound_to 7997
  155.2154  140.0414  157.2957 H   0  0  0  0  0  0  0  0  0  0  0  0  # atno 8009 bound_to 7997
  154.6040  140.2434  155.7763 H   0  0  0  0  0  0  0  0  0  0  0  0  # atno 8010 bound_to 7997
  140.1622  143.4111  152.1417 H   0  0  0  0  0  0  0  0  0  0  0  0  # atno 10167 bound_to 10162
  156.5998  130.4821  149.6244 H   0  0  0  0  0  0  0  0  0  0  0  0  # atno 10718 bound_to 10713
  154.8671  135.4162  154.2644 H   0  0  0  0  0  0  0  0  0  0  0  0  # atno 10763 bound_to 10752
  153.3566  135.7001  153.6751 H   0  0  0  0  0  0  0  0  0  0  0  0  # atno 10764 bound_to 10752
  153.5669  135.3599  155.2794 H   0  0  0  0  0  0  0  0  0  0  0  0  # atno 10765 bound_to 10752
  140.8560  133.7822  156.0020 H   0  0  0  0  0  0  0  0  0  0  0  0  # atno 11005 bound_to 11000
  146.3392  140.2420  142.8596 LP  0  0  0  0  0  0  0  0  0  0  0  0  # atno 17320 bound_to 7965
  144.9832  140.8479  143.5384 LP  0  0  0  0  0  0  0  0  0  0  0  0  # atno 17321 bound_to 7965
  139.5376  144.7225  151.4842 LP  0  0  0  0  0  0  0  0  0  0  0  0  # atno 17342 bound_to 10162
  140.6636  143.8447  150.6915 LP  0  0  0  0  0  0  0  0  0  0  0  0  # atno 17343 bound_to 10162
  156.2479  130.6889  151.1617 LP  0  0  0  0  0  0  0  0  0  0  0  0  # atno 17370 bound_to 10713
  157.7282  131.0633  150.5829 LP  0  0  0  0  0  0  0  0  0  0  0  0  # atno 17371 bound_to 10713
  140.8737  134.2695  157.5178 LP  0  0  0  0  0  0  0  0  0  0  0  0  # atno 17394 bound_to 11000
  139.8705  134.9580  156.4287 LP  0  0  0  0  0  0  0  0  0  0  0  0  # atno 17395 bound_to 11000

$$$$
