AV-unprocessed.smi:2883|AV-procd|sdf|11076|dock3
  -GOLD-   2272015543D 1   1.00000     0.00000
 Structure written by MMmdl.
 40 42  0  0  0  0  0  0  0  0  2 V2000
  152.6556  138.2390  154.8543 C   0  0  0  0  0  0  0  0  0  0  0  0
  151.3789  138.1942  155.7256 C   0  0  0  0  0  0  0  0  0  0  0  0
  150.6102  136.8880  155.4563 C   0  0  0  0  0  0  0  0  0  0  0  0
  151.8562  138.2210  157.1957 C   0  0  0  0  0  0  0  0  0  0  0  0
  150.4695  139.3939  155.4242 C   0  0  0  0  0  0  0  0  0  0  0  0
  149.8953  139.4965  154.2121 N   0  3  0  0  0  0  0  0  0  0  0  0
  149.1768  140.5994  153.8899 C   0  0  0  0  0  0  0  0  0  0  0  0
  149.0534  141.6609  154.8045 C   0  0  0  0  0  0  0  0  0  0  0  0
  149.7141  141.5168  156.0354 C   0  0  0  0  0  0  0  0  0  0  0  0
  149.6453  142.5472  156.9829 N   0  0  0  0  0  0  0  0  0  0  0  0
  149.7946  142.2673  158.4083 C   0  0  1  0  0  0  0  0  0  0  0  0
  151.1445  141.6374  158.7590 C   0  0  0  0  0  0  0  0  0  0  0  0
  151.6510  142.5737  159.8654 C   0  0  1  0  0  0  0  0  0  0  0  0
  152.1415  143.9089  159.2915 C   0  0  0  0  0  0  0  0  0  0  0  0
  150.8262  144.5813  158.9036 C   0  0  0  0  0  0  0  0  0  0  0  0
  149.7917  143.5178  159.3107 C   0  0  2  0  0  0  0  0  0  0  0  0
  150.4285  142.9812  160.4574 O   0  0  0  0  0  0  0  0  0  0  0  0
  150.4226  140.4005  156.3105 N   0  0  0  0  0  0  0  0  0  0  0  0
  153.3282  137.4143  155.0929 H   0  0  0  0  0  0  0  0  0  0  0  0
  153.2090  139.1664  155.0064 H   0  0  0  0  0  0  0  0  0  0  0  0
  152.4280  138.1617  153.7903 H   0  0  0  0  0  0  0  0  0  0  0  0
  150.2879  136.8252  154.4162 H   0  0  0  0  0  0  0  0  0  0  0  0
  149.7187  136.8164  156.0806 H   0  0  0  0  0  0  0  0  0  0  0  0
  151.2272  136.0127  155.6624 H   0  0  0  0  0  0  0  0  0  0  0  0
  152.5380  137.3959  157.4057 H   0  0  0  0  0  0  0  0  0  0  0  0
  151.0262  138.1288  157.8972 H   0  0  0  0  0  0  0  0  0  0  0  0
  152.3843  139.1472  157.4258 H   0  0  0  0  0  0  0  0  0  0  0  0
  148.7310  140.5998  152.9061 H   0  0  0  0  0  0  0  0  0  0  0  0
  148.4852  142.5473  154.5625 H   0  0  0  0  0  0  0  0  0  0  0  0
  149.2746  143.4456  156.7095 H   0  0  0  0  0  0  0  0  0  0  0  0
  149.0035  141.5873  158.7281 H   0  0  0  0  0  0  0  0  0  0  0  0
  151.0009  140.6259  159.1407 H   0  0  0  0  0  0  0  0  0  0  0  0
  151.8393  141.5853  157.9194 H   0  0  0  0  0  0  0  0  0  0  0  0
  152.3525  142.1051  160.5560 H   0  0  0  0  0  0  0  0  0  0  0  0
  152.6595  144.4924  160.0536 H   0  0  0  0  0  0  0  0  0  0  0  0
  152.8164  143.7756  158.4454 H   0  0  0  0  0  0  0  0  0  0  0  0
  150.6842  145.4939  159.4834 H   0  0  0  0  0  0  0  0  0  0  0  0
  150.7775  144.8452  157.8471 H   0  0  0  0  0  0  0  0  0  0  0  0
  148.7982  143.9226  159.5060 H   0  0  0  0  0  0  0  0  0  0  0  0
  149.9907  138.7433  153.5304 H   0  0  0  0  0  0  0  0  0  0  0  0
  1  2  1  0  0  0  0
  1 19  1  0  0  0  0
  1 20  1  0  0  0  0
  1 21  1  0  0  0  0
  2  3  1  0  0  0  0
  2  4  1  0  0  0  0
  2  5  1  0  0  0  0
  3 22  1  0  0  0  0
  3 23  1  0  0  0  0
  3 24  1  0  0  0  0
  4 25  1  0  0  0  0
  4 26  1  0  0  0  0
  4 27  1  0  0  0  0
  5 18  1  0  0  0  0
  5  6  2  0  0  0  0
  6  7  1  0  0  0  0
  6 40  1  0  0  0  0
  7  8  2  0  0  0  0
  7 28  1  0  0  0  0
  8  9  1  0  0  0  0
  8 29  1  0  0  0  0
  9 10  1  0  0  0  0
  9 18  2  0  0  0  0
 10 11  1  0  0  0  0
 10 30  1  0  0  0  0
 11 16  1  0  0  0  0
 11 12  1  0  0  0  0
 11 31  1  0  0  0  0
 12 13  1  0  0  0  0
 12 32  1  0  0  0  0
 12 33  1  0  0  0  0
 13 17  1  0  0  0  0
 13 14  1  0  0  0  0
 13 34  1  0  0  0  0
 14 15  1  0  0  0  0
 14 35  1  0  0  0  0
 14 36  1  0  0  0  0
 15 16  1  0  0  0  0
 15 37  1  0  0  0  0
 15 38  1  0  0  0  0
 16 17  1  0  0  0  0
 16 39  1  0  0  0  0
M  CHG  1   6   1
M  END
> <s_m_source_file>
AV-unprocessed.smi

> <i_m_source_file_index>
2883

> <i_lp_mmshare_version>
43012

> <i_f3d_flags>
0

> <s_epik_input>
W0NIM11DKFtDSDNdKShbQ0gzXSljMW5bY0hdW2NIXWMobjEpW05IXVtDQEhdKFtDSDJdW0NAQEhdMjMpW0NAQEhdKE8zKVtDSDJdW0NIMl0y

> <s_epik_cmdline>
J2VwaWtfcHl0aG9uJywgJy1waCcsICc3LjAnLCAnLXRuJywgJzgnLCAnLW1hJywgJzIwMCcsICctbWV0YWxfYmluZGluZycsICctaW1hZScsICc8aW5maWxlLm1hZT4nLCAnLW9tYWUnLCAnPG91dGZpbGUubWFlPic=

> <r_lp_tautomer_probability>
0.999336

> <r_epik_Ionization_Penalty>
0.371831

> <r_epik_Ionization_Penalty_Charging>
0.371821

> <r_epik_Ionization_Penalty_Neutral>
1.06897e-05

> <r_epik_State_Penalty>
0.369311

> <r_epik_Charging_Adjusted_Penalty>
0.741132

> <i_epik_Tot_Q>
1

> <i_epik_Tot_abs_Q>
1

> <r_epik_Metal_State_Penalty>
0.621338

> <b_epik_Metal_Only>
0

> <s_lp_Force_Field>
OPLS_2005

> <r_lp_Energy>
39.2266

> <b_lp_Chiralities_Consistent>
1

> <s_lp_Variant>
AV-unprocessed.smi:2883-2

> <Gold.Version>
5.8.1

> <Gold.Id.Protein>
6NUR|6NUR_protein|mol2

> <Gold.PLP.Fitness>
40.4163

> <Gold.PLP.PLP>
-38.1756

> <Gold.PLP.part.hbond>
-2.0779

> <Gold.PLP.part.metal>
0.0000

> <Gold.PLP.part.buried>
-1.4540

> <Gold.PLP.part.nonpolar>
-34.0908

> <Gold.PLP.part.repulsive>
0.5371

> <Gold.PLP.ligand.clash>
0.0000

> <Gold.PLP.ligand.torsion>
0.4516

> <Gold.PLP.Chemscore.Hbond>
1.0000

> <Gold.PLP.Chemscore.CHOScore>
0.0000

> <Gold.PLP.Chemscore.Metal>
0.0000

> <Gold.Chemscore.Hbonds>
donor molecule, donor type, donor heavy atom, donor atom, acceptor molecule, acceptor atom, score
      L1  H    10    30       P1  8028  1.00

> <Gold.PLP.Chemscore.Internal.Correction>
0.1439

> <Gold.Rescore>
     Score         DG    S(hbond)    S(metal)    S(lipo)     H(rot)  DE(clash)    DE(int)     intcor
     15.12     -18.44       0.99        0.00     107.86       1.16       1.58       1.74       ----

> <Gold.Chemscore.Fitness>
15.1208

> <Gold.Chemscore.DG>
-18.4381

> <Gold.Chemscore.ZeroCoef>
-5.4800

> <Gold.Chemscore.Hbond>
0.9925

> <Gold.Chemscore.Metal>
0.0000

> <Gold.Chemscore.Lipo>
107.8591

> <Gold.Chemscore.Internal_Hbond>
0.0000

> <Gold.Chemscore.DEClash>
1.5783

> <Gold.Chemscore.DEInternal>
1.7389

> <Gold.Chemscore.Rot>
1.1626

> <Gold.Chemscore.Internal.Correction>
   9.000000E+99

> <Gold.Chemscore.Hbonds>
donor molecule, donor type, donor heavy atom, donor atom, acceptor molecule, acceptor atom, score
      L1  H    10    30       P1  8028  0.97

> <Gold.Chemscore.Hbond.Weighted>
-3.3149

> <Gold.Chemscore.Metal.Weighted>
-0.0000

> <Gold.Chemscore.Lipo.Weighted>
-12.6195

> <Gold.Chemscore.Internal_Hbond.Weighted>
0.0000

> <Gold.Chemscore.DEClash.Weighted>
1.5783

> <Gold.Chemscore.DEInternal.Weighted>
1.7389

> <Gold.Chemscore.Rot.Weighted>
2.9763

> <Gold.Chemscore.Internal.Correction.Weighted>
   9.000000E+99

> <Gold.Protein.RotatedTorsions>
[ 6907 6896 6895 6894 ] final  -81.01 input  -60.11 | X-H torsion
[ 7974 7965 7964 7962 ] final  126.14 input  175.53 | X-H torsion
[ 8008 7997 7996 7995 ] final   61.07 input   59.86 | X-H torsion
[ 10167 10162 10161 10158 ] final   85.73 input  -65.29 | X-H torsion
[ 10718 10713 10712 10709 ] final  -50.45 input   66.30 | X-H torsion
[ 10763 10752 10751 10750 ] final  -73.63 input  -60.55 | X-H torsion
[ 11005 11000 10999 10996 ] final  159.24 input  -57.11 | X-H torsion

> <Gold.Protein.ActiveResidues>
 VAL166  LYS551  ARG553  GLY616  TRP617  ASP618  TYR619  PRO620  LYS621  CYS622 
 ASP623  PHE694  ASN695  SER759  ASP760  ASP761  ALA762  ILE779  LEU786  VAL792 
 PHE793  MET794  SER795  GLU796  ALA797  LYS798  CYS799  TRP800  GLU811  SER814 

> <Gold.Protein.RotatedAtoms>
  150.6919  134.3882  159.5064 H   0  0  0  0  0  0  0  0  0  0  0  0  # atno 6907 bound_to 6896
  152.1674  134.8859  160.0546 H   0  0  0  0  0  0  0  0  0  0  0  0  # atno 6908 bound_to 6896
  151.9898  133.3752  159.4177 H   0  0  0  0  0  0  0  0  0  0  0  0  # atno 6909 bound_to 6896
  145.0650  139.3775  143.4986 H   0  0  0  0  0  0  0  0  0  0  0  0  # atno 7974 bound_to 7965
  155.5925  140.3493  155.4570 H   0  0  0  0  0  0  0  0  0  0  0  0  # atno 8008 bound_to 7997
  156.0290  140.1270  157.0302 H   0  0  0  0  0  0  0  0  0  0  0  0  # atno 8009 bound_to 7997
  154.4345  140.1047  156.6059 H   0  0  0  0  0  0  0  0  0  0  0  0  # atno 8010 bound_to 7997
  139.8947  144.6365  150.8700 H   0  0  0  0  0  0  0  0  0  0  0  0  # atno 10167 bound_to 10162
  156.1799  130.4150  149.9522 H   0  0  0  0  0  0  0  0  0  0  0  0  # atno 10718 bound_to 10713
  154.4620  135.5891  153.6262 H   0  0  0  0  0  0  0  0  0  0  0  0  # atno 10763 bound_to 10752
  152.9824  135.6046  154.3474 H   0  0  0  0  0  0  0  0  0  0  0  0  # atno 10764 bound_to 10752
  154.3347  135.2842  155.2433 H   0  0  0  0  0  0  0  0  0  0  0  0  # atno 10765 bound_to 10752
  140.1942  134.8385  157.2946 H   0  0  0  0  0  0  0  0  0  0  0  0  # atno 11005 bound_to 11000
  146.3526  140.0367  142.8646 LP  0  0  0  0  0  0  0  0  0  0  0  0  # atno 17320 bound_to 7965
  145.1362  140.9545  143.4515 LP  0  0  0  0  0  0  0  0  0  0  0  0  # atno 17321 bound_to 7965
  140.7719  143.3482  151.2067 LP  0  0  0  0  0  0  0  0  0  0  0  0  # atno 17342 bound_to 10162
  139.7078  143.9427  152.2934 LP  0  0  0  0  0  0  0  0  0  0  0  0  # atno 17343 bound_to 10162
  156.7295  130.9038  151.3624 LP  0  0  0  0  0  0  0  0  0  0  0  0  # atno 17370 bound_to 10713
  157.6861  130.9187  150.0390 LP  0  0  0  0  0  0  0  0  0  0  0  0  # atno 17371 bound_to 10713
  140.2125  134.4121  155.7605 LP  0  0  0  0  0  0  0  0  0  0  0  0  # atno 17394 bound_to 11000
  141.2227  133.7125  156.8362 LP  0  0  0  0  0  0  0  0  0  0  0  0  # atno 17395 bound_to 11000

$$$$
