AV-unprocessed.smi:2083|AV-procd|sdf|8498|dock7
  -GOLD-   2272011203D 1   1.00000     0.00000
 Structure written by MMmdl.
 44 45  0  0  0  0  0  0  0  0  3 V2000
  158.4990  136.8668  152.7045 C   0  0  0  0  0  0  0  0  0  0  0  0
  157.2631  137.3889  153.3541 C   0  0  0  0  0  0  0  0  0  0  0  0
  156.5225  138.5209  153.1636 C   0  0  0  0  0  0  0  0  0  0  0  0
  155.4745  138.3879  154.1151 C   0  0  0  0  0  0  0  0  0  0  0  0
  154.4850  139.2683  154.3311 N   0  5  0  0  0  0  0  0  0  0  0  0
  153.3488  138.8802  154.9533 C   0  0  0  0  0  0  0  0  0  0  0  0
  153.0703  137.7398  155.3304 O   0  0  0  0  0  0  0  0  0  0  0  0
  152.4788  139.8787  155.1514 N   0  0  0  0  0  0  0  0  0  0  0  0
  151.1830  139.7529  155.8077 C   0  0  0  0  0  0  0  0  0  0  0  0
  151.3120  139.7663  157.3496 C   0  0  2  0  0  0  0  0  0  0  0  0
  149.9547  139.4065  158.0033 C   0  0  0  0  0  0  0  0  0  0  0  0
  151.8775  141.0816  157.7981 N   0  3  1  0  0  0  0  0  0  0  0  0
  151.0700  142.2911  157.4641 C   0  0  0  0  0  0  0  0  0  0  0  0
  151.8064  143.5852  157.8482 C   0  0  0  0  0  0  0  0  0  0  0  0
  152.1891  143.5896  159.3309 C   0  0  0  0  0  0  0  0  0  0  0  0
  153.0101  142.3350  159.6624 C   0  0  1  0  0  0  0  0  0  0  0  0
  153.3957  142.2964  161.1480 C   0  0  0  0  0  0  0  0  0  0  0  0
  152.2331  141.0701  159.2468 C   0  0  0  0  0  0  0  0  0  0  0  0
  155.5790  137.2806  154.8302 N   0  0  0  0  0  0  0  0  0  0  0  0
  156.7202  136.6314  154.3445 O   0  0  0  0  0  0  0  0  0  0  0  0
  159.3306  137.5568  152.8480 H   0  0  0  0  0  0  0  0  0  0  0  0
  158.3462  136.7388  151.6329 H   0  0  0  0  0  0  0  0  0  0  0  0
  158.7856  135.9013  153.1222 H   0  0  0  0  0  0  0  0  0  0  0  0
  156.6990  139.3160  152.4551 H   0  0  0  0  0  0  0  0  0  0  0  0
  152.7456  140.7971  154.8279 H   0  0  0  0  0  0  0  0  0  0  0  0
  150.5561  140.5677  155.4479 H   0  0  0  0  0  0  0  0  0  0  0  0
  150.7019  138.8253  155.4921 H   0  0  0  0  0  0  0  0  0  0  0  0
  152.0138  138.9847  157.6458 H   0  0  0  0  0  0  0  0  0  0  0  0
  149.5737  138.4510  157.6427 H   0  0  0  0  0  0  0  0  0  0  0  0
  149.1949  140.1584  157.7875 H   0  0  0  0  0  0  0  0  0  0  0  0
  150.0370  139.3002  159.0850 H   0  0  0  0  0  0  0  0  0  0  0  0
  150.8747  142.3469  156.3939 H   0  0  0  0  0  0  0  0  0  0  0  0
  150.1044  142.2393  157.9699 H   0  0  0  0  0  0  0  0  0  0  0  0
  152.7048  143.6887  157.2382 H   0  0  0  0  0  0  0  0  0  0  0  0
  151.1807  144.4496  157.6240 H   0  0  0  0  0  0  0  0  0  0  0  0
  152.7583  144.4900  159.5648 H   0  0  0  0  0  0  0  0  0  0  0  0
  151.2874  143.6210  159.9441 H   0  0  0  0  0  0  0  0  0  0  0  0
  153.9348  142.3697  159.0839 H   0  0  0  0  0  0  0  0  0  0  0  0
  152.5130  142.2557  161.7871 H   0  0  0  0  0  0  0  0  0  0  0  0
  153.9680  143.1812  161.4281 H   0  0  0  0  0  0  0  0  0  0  0  0
  154.0093  141.4235  161.3722 H   0  0  0  0  0  0  0  0  0  0  0  0
  151.3213  140.9811  159.8399 H   0  0  0  0  0  0  0  0  0  0  0  0
  152.8398  140.1975  159.4842 H   0  0  0  0  0  0  0  0  0  0  0  0
  152.7428  141.1899  157.2884 H   0  0  0  0  0  0  0  0  0  0  0  0
  1  2  1  0  0  0  0
  1 21  1  0  0  0  0
  1 22  1  0  0  0  0
  1 23  1  0  0  0  0
  2 20  1  0  0  0  0
  2  3  2  0  0  0  0
  3  4  1  0  0  0  0
  3 24  1  0  0  0  0
  4  5  1  0  0  0  0
  4 19  2  0  0  0  0
  5  6  1  0  0  0  0
  6  7  2  0  0  0  0
  6  8  1  0  0  0  0
  8  9  1  0  0  0  0
  8 25  1  0  0  0  0
  9 10  1  0  0  0  0
  9 26  1  0  0  0  0
  9 27  1  0  0  0  0
 10 11  1  0  0  0  0
 10 12  1  0  0  0  0
 10 28  1  0  0  0  0
 11 29  1  0  0  0  0
 11 30  1  0  0  0  0
 11 31  1  0  0  0  0
 12 18  1  0  0  0  0
 12 13  1  0  0  0  0
 12 44  1  0  0  0  0
 13 14  1  0  0  0  0
 13 32  1  0  0  0  0
 13 33  1  0  0  0  0
 14 15  1  0  0  0  0
 14 34  1  0  0  0  0
 14 35  1  0  0  0  0
 15 16  1  0  0  0  0
 15 36  1  0  0  0  0
 15 37  1  0  0  0  0
 16 17  1  0  0  0  0
 16 18  1  0  0  0  0
 16 38  1  0  0  0  0
 17 39  1  0  0  0  0
 17 40  1  0  0  0  0
 17 41  1  0  0  0  0
 18 42  1  0  0  0  0
 18 43  1  0  0  0  0
 19 20  1  0  0  0  0
M  CHG  1   5  -1
M  CHG  1  12   1
M  END
> <s_m_source_file>
AV-unprocessed.smi

> <i_m_source_file_index>
2083

> <i_lp_mmshare_version>
43012

> <i_f3d_flags>
0

> <s_epik_input>
W0NIM11jMVtjSF1jKG5vMSlbTkhdQyg9TylbTkhdW0NIMl1bQ0BIXShbQ0gzXSlOMltDSDJdW0NIMl1bQ0gyXVtDQEBIXShbQ0gzXSlbQ0gyXTI=

> <s_epik_cmdline>
J2VwaWtfcHl0aG9uJywgJy1waCcsICc3LjAnLCAnLXRuJywgJzgnLCAnLW1hJywgJzIwMCcsICctbWV0YWxfYmluZGluZycsICctaW1hZScsICc8aW5maWxlLm1hZT4nLCAnLW9tYWUnLCAnPG91dGZpbGUubWFlPic=

> <r_epik_Ionization_Penalty>
6.22434

> <r_epik_Ionization_Penalty_Charging>
6.22425

> <r_epik_Ionization_Penalty_Neutral>
9.62407e-05

> <r_epik_State_Penalty>
6.22423

> <r_epik_Charging_Adjusted_Penalty>
12.4485

> <i_epik_Tot_Q>
0

> <i_epik_Tot_abs_Q>
2

> <r_epik_Metal_State_Penalty>
2.16764

> <b_epik_Metal_Only>
1

> <s_lp_Force_Field>
OPLS_2005

> <r_lp_Energy>
12.4443

> <b_lp_Chiralities_Consistent>
1

> <s_lp_Variant>
AV-unprocessed.smi:2083-9

> <Gold.Version>
5.8.1

> <Gold.Id.Protein>
6NUR|6NUR_protein|mol2

> <Gold.PLP.Fitness>
45.6926

> <Gold.PLP.PLP>
-39.4215

> <Gold.PLP.part.hbond>
-3.8566

> <Gold.PLP.part.metal>
0.0000

> <Gold.PLP.part.buried>
-0.5933

> <Gold.PLP.part.nonpolar>
-35.9643

> <Gold.PLP.part.repulsive>
1.9880

> <Gold.PLP.ligand.clash>
0.0000

> <Gold.PLP.ligand.torsion>
0.2972

> <Gold.PLP.Chemscore.Hbond>
2.2620

> <Gold.PLP.Chemscore.CHOScore>
0.0000

> <Gold.PLP.Chemscore.Metal>
0.0000

> <Gold.Chemscore.Hbonds>
donor molecule, donor type, donor heavy atom, donor atom, acceptor molecule, acceptor atom, score
      P1  H  7997  8010       L1     5  1.90
      P1  H 10752 10763       L1    19  0.07
      P1  H 10752 10765       L1     7  0.17

> <Gold.PLP.Chemscore.Internal.Correction>
0.0796

> <Gold.Rescore>
     Score         DG    S(hbond)    S(metal)    S(lipo)     H(rot)  DE(clash)    DE(int)     intcor
     14.01     -16.48       0.65        0.00     108.68       1.52       0.49       1.97       ----

> <Gold.Chemscore.Fitness>
14.0138

> <Gold.Chemscore.DG>
-16.4830

> <Gold.Chemscore.ZeroCoef>
-5.4800

> <Gold.Chemscore.Hbond>
0.6516

> <Gold.Chemscore.Metal>
0.0000

> <Gold.Chemscore.Lipo>
108.6778

> <Gold.Chemscore.Internal_Hbond>
0.0000

> <Gold.Chemscore.DEClash>
0.4944

> <Gold.Chemscore.DEInternal>
1.9747

> <Gold.Chemscore.Rot>
1.5190

> <Gold.Chemscore.Internal.Correction>
   9.000000E+99

> <Gold.Chemscore.Hbonds>
donor molecule, donor type, donor heavy atom, donor atom, acceptor molecule, acceptor atom, score
      P1  H  7997  8010       L1     5  0.11
      P1  H 10752 10765       L1     7  0.17

> <Gold.Chemscore.Hbond.Weighted>
-2.1764

> <Gold.Chemscore.Metal.Weighted>
-0.0000

> <Gold.Chemscore.Lipo.Weighted>
-12.7153

> <Gold.Chemscore.Internal_Hbond.Weighted>
0.0000

> <Gold.Chemscore.DEClash.Weighted>
0.4944

> <Gold.Chemscore.DEInternal.Weighted>
1.9747

> <Gold.Chemscore.Rot.Weighted>
3.8886

> <Gold.Chemscore.Internal.Correction.Weighted>
   9.000000E+99

> <Gold.Protein.RotatedTorsions>
[ 6907 6896 6895 6894 ] final   26.35 input  -60.11 | X-H torsion
[ 7974 7965 7964 7962 ] final  -35.60 input  175.53 | X-H torsion
[ 8008 7997 7996 7995 ] final  148.35 input   59.86 | X-H torsion
[ 10167 10162 10161 10158 ] final  -43.97 input  -65.29 | X-H torsion
[ 10718 10713 10712 10709 ] final  174.51 input   66.30 | X-H torsion
[ 10763 10752 10751 10750 ] final -167.65 input  -60.55 | X-H torsion
[ 11005 11000 10999 10996 ] final   30.79 input  -57.11 | X-H torsion

> <Gold.Protein.ActiveResidues>
 VAL166  LYS551  ARG553  GLY616  TRP617  ASP618  TYR619  PRO620  LYS621  CYS622 
 ASP623  PHE694  ASN695  SER759  ASP760  ASP761  ALA762  ILE779  LEU786  VAL792 
 PHE793  MET794  SER795  GLU796  ALA797  LYS798  CYS799  TRP800  GLU811  SER814 

> <Gold.Protein.RotatedAtoms>
  151.9861  135.0003  160.0559 H   0  0  0  0  0  0  0  0  0  0  0  0  # atno 6907 bound_to 6896
  152.1652  133.4602  159.4889 H   0  0  0  0  0  0  0  0  0  0  0  0  # atno 6908 bound_to 6896
  150.6893  134.1940  159.4339 H   0  0  0  0  0  0  0  0  0  0  0  0  # atno 6909 bound_to 6896
  146.0733  140.6179  142.8942 H   0  0  0  0  0  0  0  0  0  0  0  0  # atno 7974 bound_to 7965
  156.2794  140.2131  156.5684 H   0  0  0  0  0  0  0  0  0  0  0  0  # atno 8008 bound_to 7997
  154.7156  140.0508  157.0614 H   0  0  0  0  0  0  0  0  0  0  0  0  # atno 8009 bound_to 7997
  155.0547  140.3160  155.4683 H   0  0  0  0  0  0  0  0  0  0  0  0  # atno 8010 bound_to 7997
  140.6914  143.2955  151.3428 H   0  0  0  0  0  0  0  0  0  0  0  0  # atno 10167 bound_to 10162
  156.9485  131.0023  151.2954 H   0  0  0  0  0  0  0  0  0  0  0  0  # atno 10718 bound_to 10713
  154.6710  135.2939  154.9742 H   0  0  0  0  0  0  0  0  0  0  0  0  # atno 10763 bound_to 10752
  154.0769  135.6610  153.4836 H   0  0  0  0  0  0  0  0  0  0  0  0  # atno 10764 bound_to 10752
  153.0487  135.5188  154.7706 H   0  0  0  0  0  0  0  0  0  0  0  0  # atno 10765 bound_to 10752
  140.2907  134.2868  155.7777 H   0  0  0  0  0  0  0  0  0  0  0  0  # atno 11005 bound_to 11000
  144.7245  140.4481  143.6983 LP  0  0  0  0  0  0  0  0  0  0  0  0  # atno 17320 bound_to 7965
  145.6353  139.1542  143.2946 LP  0  0  0  0  0  0  0  0  0  0  0  0  # atno 17321 bound_to 7965
  139.6321  144.0700  152.2485 LP  0  0  0  0  0  0  0  0  0  0  0  0  # atno 17342 bound_to 10162
  140.0178  144.6176  150.7592 LP  0  0  0  0  0  0  0  0  0  0  0  0  # atno 17343 bound_to 10162
  157.5738  130.8329  149.8427 LP  0  0  0  0  0  0  0  0  0  0  0  0  # atno 17370 bound_to 10713
  156.0373  130.3748  150.1526 LP  0  0  0  0  0  0  0  0  0  0  0  0  # atno 17371 bound_to 10713
  141.2147  133.7583  156.9620 LP  0  0  0  0  0  0  0  0  0  0  0  0  # atno 17394 bound_to 11000
  140.1198  134.9424  157.2187 LP  0  0  0  0  0  0  0  0  0  0  0  0  # atno 17395 bound_to 11000

$$$$
