#       Name:                AV-unprocessed.smi:199
#       Creating user name   scv26
#       Creation time:       Thu Mar 26 19:43:20 2020


#       File generated by GOLD software.
#

@<TRIPOS>MOLECULE
AV-unprocessed.smi:199
    61    65     1
SMALL
NO_CHARGES


@<TRIPOS>ATOM
      1 ****        -6.1948   0.2148   0.5905 C.3            1 S1                 0.0000
      2 ****        -5.3684   1.5023   0.7346 C.3            1 S1                 0.0000
      3 ****        -5.6340   2.3156  -0.4056 O.3            1 S1                 0.0000
      4 ****        -4.4808   3.0839  -0.7001 C.3            1 S1                 0.0000
      5 ****        -3.3567   2.0889  -0.4583 C.3            1 S1                 0.0000
      6 ****        -3.8224   1.3405   0.7877 C.3            1 S1                 0.0000
      7 ****        -3.3564   2.0542   1.9214 O.3            1 S1                 0.0000
      8 ****        -3.2810  -0.1111   0.8784 C.3            1 S1                 0.0000
      9 ****        -1.8273  -0.1875   0.8820 N.pl3          1 S1                 0.0000
     10 ****        -1.0010  -0.0848   1.9775 C.2            1 S1                 0.0000
     11 ****         0.2749  -0.1770   1.7223 N.2            1 S1                 0.0000
     12 ****         0.3380  -0.3725   0.3474 C.ar           1 S1                 0.0000
     13 ****         1.3996  -0.5452  -0.5877 C.ar           1 S1                 0.0000
     14 ****         2.7156  -0.5493  -0.2409 N.3            1 S1                 0.0000
     15 ****         3.1694  -1.3297   0.8982 C.3            1 S1                 0.0000
     16 ****         3.1491  -2.7839   0.3874 C.3            1 S1                 0.0000
     17 ****         3.5564  -2.5931  -1.0819 C.3            1 S1                 0.0000
     18 ****         3.7343  -1.0605  -1.1489 C.3            1 S1                 0.0000
     19 ****         5.0490  -0.6839  -0.4303 C.3            1 S1                 0.0000
     20 ****         5.5322   0.7443  -0.7426 C.3            1 S1                 0.0000
     21 ****         5.9832   0.8288  -2.0777 O.3            1 S1                 0.0000
     22 ****         4.6280  -0.8640   1.0430 C.3            1 S1                 0.0000
     23 ****         1.0585  -0.6780  -1.8973 N.ar           1 S1                 0.0000
     24 ****        -0.2246  -0.6753  -2.2682 C.ar           1 S1                 0.0000
     25 ****        -1.3117  -0.5408  -1.5078 N.ar           1 S1                 0.0000
     26 ****        -0.9796  -0.3812  -0.1951 C.ar           1 S1                 0.0000
     27 ****        -6.0485  -0.4510   1.4410 H              1 S1                 0.0000
     28 ****        -5.9352  -0.3276  -0.3188 H              1 S1                 0.0000
     29 ****        -7.2590   0.4462   0.5386 H              1 S1                 0.0000
     30 ****        -5.7255   2.0420   1.6139 H              1 S1                 0.0000
     31 ****        -4.4979   3.4630  -1.7220 H              1 S1                 0.0000
     32 ****        -4.4132   3.9309  -0.0158 H              1 S1                 0.0000
     33 ****        -3.3092   1.4086  -1.3090 H              1 S1                 0.0000
     34 ****        -2.3780   2.5591  -0.3528 H              1 S1                 0.0000
     35 ****        -3.7306   1.6640   2.6963 H              1 S1                 0.0000
     36 ****        -3.6466  -0.5973   1.7837 H              1 S1                 0.0000
     37 ****        -3.6423  -0.7079   0.0404 H              1 S1                 0.0000
     38 ****        -1.3767   0.0708   2.9783 H              1 S1                 0.0000
     39 ****         2.6055  -1.1940   1.8194 H              1 S1                 0.0000
     40 ****         3.8325  -3.4324   0.9369 H              1 S1                 0.0000
     41 ****         2.1471  -3.2094   0.4568 H              1 S1                 0.0000
     42 ****         4.4643  -3.1367  -1.3451 H              1 S1                 0.0000
     43 ****         2.7609  -2.9301  -1.7475 H              1 S1                 0.0000
     44 ****         3.6796  -0.6682  -2.1651 H              1 S1                 0.0000
     45 ****         5.8451  -1.3856  -0.6846 H              1 S1                 0.0000
     46 ****         4.7368   1.4731  -0.5833 H              1 S1                 0.0000
     47 ****         6.3575   1.0168  -0.0843 H              1 S1                 0.0000
     48 ****         6.2703   1.7140  -2.2421 H              1 S1                 0.0000
     49 ****         4.6722   0.0804   1.5874 H              1 S1                 0.0000
     50 ****         5.2488  -1.5856   1.5751 H              1 S1                 0.0000
     51 ****        -0.4055  -0.7970  -3.3259 H              1 S1                 0.0000
     52 ****        -6.4028   2.9249  -0.2115 LP             1 S1                 0.0000
     53 ****        -5.8587   1.7342  -1.1876 LP             1 S1                 0.0000
     54 ****        -3.6379   3.0115   1.8564 LP             1 S1                 0.0000
     55 ****        -2.3588   2.0024   1.9659 LP             1 S1                 0.0000
     56 ****         1.0353  -0.1200   2.3692 LP             1 S1                 0.0000
     57 ****         2.6658   0.4438  -0.1351 LP             1 S1                 0.0000
     58 ****         5.2371   0.5949  -2.7011 LP             1 S1                 0.0000
     59 ****         6.7447   0.1959  -2.2171 LP             1 S1                 0.0000
     60 ****         1.7742  -0.7785  -2.5884 LP             1 S1                 0.0000
     61 ****        -2.2493  -0.5552  -1.8554 LP             1 S1                 0.0000
@<TRIPOS>BOND
    1    1    2 1     
    2    1   27 1     
    3    1   28 1     
    4    1   29 1     
    5    2    6 1     
    6    2    3 1     
    7    2   30 1     
    8    3    4 1     
    9    4    5 1     
   10    4   31 1     
   11    4   32 1     
   12    5    6 1     
   13    5   33 1     
   14    5   34 1     
   15    6    7 1     
   16    6    8 1     
   17    7   35 1     
   18    8    9 1     
   19    8   36 1     
   20    8   37 1     
   21    9   26 1     
   22    9   10 1     
   23   10   11 2     
   24   10   38 1     
   25   11   12 1     
   26   12   26 ar    
   27   12   13 ar    
   28   13   14 1     
   29   13   23 ar    
   30   14   18 1     
   31   14   15 1     
   32   15   22 1     
   33   15   16 1     
   34   15   39 1     
   35   16   17 1     
   36   16   40 1     
   37   16   41 1     
   38   17   18 1     
   39   17   42 1     
   40   17   43 1     
   41   18   19 1     
   42   18   44 1     
   43   19   20 1     
   44   19   22 1     
   45   19   45 1     
   46   20   21 1     
   47   20   46 1     
   48   20   47 1     
   49   21   48 1     
   50   22   49 1     
   51   22   50 1     
   52   23   24 ar    
   53   24   25 ar    
   54   24   51 1     
   55   25   26 ar    
   56    3   52 1     
   57    3   53 1     
   58    7   54 1     
   59    7   55 1     
   60   11   56 1     
   61   14   57 1     
   62   21   58 1     
   63   21   59 1     
   64   23   60 1     
   65   25   61 1     
@<TRIPOS>SUBSTRUCTURE
      1 S1             1
@<TRIPOS>SET
LONE_PAIRS      STATIC     ATOMS    <user>   **** ""
10 52 53 54 55 56 57 58 59 60 61
DONOR_HYDROGENS      STATIC     ATOMS    <user>   **** ""
2 35 48
ATOM$BLUE        STATIC     ATOMS    COLORGROUP SYSTEM
10 52 53 54 55 56 57 58 59 60 61
ATOM$RED        STATIC     ATOMS    COLORGROUP SYSTEM
2 35 48
