AV-unprocessed.smi:2559|AV-procd|sdf|10035|dock5
  -GOLD-   2272014 83D 1   1.00000     0.00000
 Structure written by MMmdl.
 44 46  0  0  0  0  0  0  0  0  1 V2000
  153.9328  137.3931  159.2052 C   0  0  0  0  0  0  0  0  0  0  0  0
  153.0670  137.9002  158.1388 N   0  0  0  0  0  0  0  0  0  0  0  0
  152.5769  137.0457  157.1851 C   0  0  0  0  0  0  0  0  0  0  0  0
  152.8420  135.8438  157.1778 O   0  0  0  0  0  0  0  0  0  0  0  0
  151.7617  137.5709  156.2211 N   0  0  0  0  0  0  0  0  0  0  0  0
  151.3637  138.8594  156.0898 C   0  0  0  0  0  0  0  0  0  0  0  0
  150.6084  139.2410  155.1990 O   0  0  0  0  0  0  0  0  0  0  0  0
  151.9150  139.7441  157.1278 C   0  0  0  0  0  0  0  0  0  0  0  0
  152.7234  139.2820  158.1161 C   0  0  0  0  0  0  0  0  0  0  0  0
  153.0704  140.3014  158.9882 N   0  0  0  0  0  0  0  0  0  0  0  0
  152.4618  141.3689  158.4652 C   0  0  0  0  0  0  0  0  0  0  0  0
  152.5362  142.6414  159.0340 N   0  0  0  0  0  0  0  0  0  0  0  0
  152.9735  142.8879  160.4074 C   0  0  0  0  0  0  0  0  0  0  0  0
  151.9956  143.8143  161.1527 C   0  0  0  0  0  0  0  0  0  0  0  0
  151.8324  145.1476  160.4094 C   0  0  0  0  0  0  0  0  0  0  0  0
  151.4812  144.8904  158.9376 C   0  0  0  0  0  0  0  0  0  0  0  0
  152.4887  143.9118  158.3085 C   0  0  0  0  0  0  0  0  0  0  0  0
  151.7234  141.1115  157.3502 N   0  0  0  0  0  0  0  0  0  0  0  0
  150.8811  142.0350  156.5898 C   0  0  0  0  0  0  0  0  0  0  0  0
  149.4056  141.5885  156.5332 C   0  0  1  0  0  0  0  0  0  0  0  0
  148.6415  142.5775  157.1937 O   0  0  0  0  0  0  0  0  0  0  0  0
  148.8627  141.4112  155.1017 C   0  0  0  0  0  0  0  0  0  0  0  0
  148.9283  142.6335  154.3978 O   0  0  0  0  0  0  0  0  0  0  0  0
  151.4104  136.9220  155.5322 H   0  0  0  0  0  0  0  0  0  0  0  0
  154.7316  136.7695  158.8008 H   0  0  0  0  0  0  0  0  0  0  0  0
  153.3530  136.7926  159.9075 H   0  0  0  0  0  0  0  0  0  0  0  0
  154.4104  138.1943  159.7692 H   0  0  0  0  0  0  0  0  0  0  0  0
  153.0525  141.9400  160.9410 H   0  0  0  0  0  0  0  0  0  0  0  0
  153.9741  143.3219  160.3955 H   0  0  0  0  0  0  0  0  0  0  0  0
  151.0259  143.3237  161.2455 H   0  0  0  0  0  0  0  0  0  0  0  0
  152.3504  143.9940  162.1676 H   0  0  0  0  0  0  0  0  0  0  0  0
  151.0632  145.7576  160.8837 H   0  0  0  0  0  0  0  0  0  0  0  0
  152.7630  145.7134  160.4682 H   0  0  0  0  0  0  0  0  0  0  0  0
  150.4717  144.4854  158.8644 H   0  0  0  0  0  0  0  0  0  0  0  0
  151.4781  145.8305  158.3856 H   0  0  0  0  0  0  0  0  0  0  0  0
  153.4850  144.3556  158.3206 H   0  0  0  0  0  0  0  0  0  0  0  0
  152.2596  143.7432  157.2571 H   0  0  0  0  0  0  0  0  0  0  0  0
  150.9531  143.0274  157.0265 H   0  0  0  0  0  0  0  0  0  0  0  0
  151.2784  142.1556  155.5848 H   0  0  0  0  0  0  0  0  0  0  0  0
  149.2982  140.6518  157.0805 H   0  0  0  0  0  0  0  0  0  0  0  0
  148.6116  143.3485  156.6484 H   0  0  0  0  0  0  0  0  0  0  0  0
  149.4084  140.6365  154.5618 H   0  0  0  0  0  0  0  0  0  0  0  0
  147.8149  141.1134  155.1173 H   0  0  0  0  0  0  0  0  0  0  0  0
  148.6977  143.3340  154.9887 H   0  0  0  0  0  0  0  0  0  0  0  0
  1  2  1  0  0  0  0
  1 25  1  0  0  0  0
  1 26  1  0  0  0  0
  1 27  1  0  0  0  0
  2  9  1  0  0  0  0
  2  3  1  0  0  0  0
  3  4  2  0  0  0  0
  3  5  1  0  0  0  0
  5 24  1  0  0  0  0
  5  6  1  0  0  0  0
  6  7  2  0  0  0  0
  6  8  1  0  0  0  0
  8 18  1  0  0  0  0
  8  9  2  0  0  0  0
  9 10  1  0  0  0  0
 10 11  2  0  0  0  0
 11 12  1  0  0  0  0
 11 18  1  0  0  0  0
 12 17  1  0  0  0  0
 12 13  1  0  0  0  0
 13 14  1  0  0  0  0
 13 28  1  0  0  0  0
 13 29  1  0  0  0  0
 14 15  1  0  0  0  0
 14 30  1  0  0  0  0
 14 31  1  0  0  0  0
 15 16  1  0  0  0  0
 15 32  1  0  0  0  0
 15 33  1  0  0  0  0
 16 17  1  0  0  0  0
 16 34  1  0  0  0  0
 16 35  1  0  0  0  0
 17 36  1  0  0  0  0
 17 37  1  0  0  0  0
 18 19  1  0  0  0  0
 19 20  1  0  0  0  0
 19 38  1  0  0  0  0
 19 39  1  0  0  0  0
 20 21  1  0  0  0  0
 20 22  1  0  0  0  0
 20 40  1  0  0  0  0
 21 41  1  0  0  0  0
 22 23  1  0  0  0  0
 22 42  1  0  0  0  0
 22 43  1  0  0  0  0
 23 44  1  0  0  0  0
M  END
> <s_m_source_file>
AV-unprocessed.smi

> <i_m_source_file_index>
2559

> <i_lp_mmshare_version>
43012

> <i_f3d_flags>
0

> <s_epik_input>
Tz1jMVtuSF1jKD1PKW4oW0NIM10pYyhjMTIpbmMobjJbQ0gyXVtDQEhdKFtPSF0pW0NIMl1bT0hdKU4zW0NIMl1bQ0gyXVtDSDJdW0NIMl1bQ0gyXTM=

> <s_epik_cmdline>
J2VwaWtfcHl0aG9uJywgJy1waCcsICc3LjAnLCAnLXRuJywgJzgnLCAnLW1hJywgJzIwMCcsICctbWV0YWxfYmluZGluZycsICctaW1hZScsICc8aW5maWxlLm1hZT4nLCAnLW9tYWUnLCAnPG91dGZpbGUubWFlPic=

> <r_lp_tautomer_probability>
1

> <r_epik_Ionization_Penalty>
0.0023969

> <r_epik_Ionization_Penalty_Charging>
9.35512e-05

> <r_epik_Ionization_Penalty_Neutral>
0.00230335

> <r_epik_State_Penalty>
-0

> <r_epik_Charging_Adjusted_Penalty>
9.35512e-05

> <i_epik_Tot_Q>
0

> <i_epik_Tot_abs_Q>
0

> <r_epik_Metal_State_Penalty>
0.0757518

> <b_epik_Metal_Only>
0

> <s_lp_Force_Field>
OPLS_2005

> <r_lp_Energy>
42.4748

> <b_lp_Chiralities_Consistent>
1

> <s_lp_Variant>
AV-unprocessed.smi:2559-2

> <Gold.Version>
5.8.1

> <Gold.Id.Protein>
6NUR|6NUR_protein|mol2

> <Gold.PLP.Fitness>
53.2235

> <Gold.PLP.PLP>
-45.5803

> <Gold.PLP.part.hbond>
-3.7921

> <Gold.PLP.part.metal>
0.0000

> <Gold.PLP.part.buried>
-6.2260

> <Gold.PLP.part.nonpolar>
-34.9864

> <Gold.PLP.part.repulsive>
0.1394

> <Gold.PLP.ligand.clash>
0.0000

> <Gold.PLP.ligand.torsion>
1.0285

> <Gold.PLP.Chemscore.Hbond>
3.0377

> <Gold.PLP.Chemscore.CHOScore>
0.0000

> <Gold.PLP.Chemscore.Metal>
0.0000

> <Gold.Chemscore.Hbonds>
donor molecule, donor type, donor heavy atom, donor atom, acceptor molecule, acceptor atom, score
      L1  H    21    41       P1  8028  1.00
      L1  H    23    44       P1  8028  0.99
      P1  H  8011  8017       L1    23  0.03
      P1  H 10752 10763       L1     4  1.00

> <Gold.PLP.Chemscore.Internal.Correction>
0.5871

> <Gold.Rescore>
     Score         DG    S(hbond)    S(metal)    S(lipo)     H(rot)  DE(clash)    DE(int)     intcor
     16.44     -19.19       3.21        0.00      90.57       2.97       0.09       2.66       ----

> <Gold.Chemscore.Fitness>
16.4382

> <Gold.Chemscore.DG>
-19.1863

> <Gold.Chemscore.ZeroCoef>
-5.4800

> <Gold.Chemscore.Hbond>
3.2064

> <Gold.Chemscore.Metal>
0.0000

> <Gold.Chemscore.Lipo>
90.5678

> <Gold.Chemscore.Internal_Hbond>
0.0000

> <Gold.Chemscore.DEClash>
0.0855

> <Gold.Chemscore.DEInternal>
2.6625

> <Gold.Chemscore.Rot>
2.9685

> <Gold.Chemscore.Internal.Correction>
   9.000000E+99

> <Gold.Chemscore.Hbonds>
donor molecule, donor type, donor heavy atom, donor atom, acceptor molecule, acceptor atom, score
      L1  H    21    41       P1  8028  0.65
      L1  H    23    44       P1  8028  0.92
      P1  H  8011  8017       L1    23  0.04
      P1  H 10752 10763       L1     4  0.62

> <Gold.Chemscore.Hbond.Weighted>
-10.7093

> <Gold.Chemscore.Metal.Weighted>
-0.0000

> <Gold.Chemscore.Lipo.Weighted>
-10.5964

> <Gold.Chemscore.Internal_Hbond.Weighted>
0.0000

> <Gold.Chemscore.DEClash.Weighted>
0.0855

> <Gold.Chemscore.DEInternal.Weighted>
2.6625

> <Gold.Chemscore.Rot.Weighted>
7.5994

> <Gold.Chemscore.Internal.Correction.Weighted>
   9.000000E+99

> <Gold.Protein.RotatedTorsions>
[ 6907 6896 6895 6894 ] final -115.09 input  -60.11 | X-H torsion
[ 7974 7965 7964 7962 ] final -111.04 input  175.53 | X-H torsion
[ 8008 7997 7996 7995 ] final -107.25 input   59.86 | X-H torsion
[ 10167 10162 10161 10158 ] final   39.81 input  -65.29 | X-H torsion
[ 10718 10713 10712 10709 ] final  171.72 input   66.30 | X-H torsion
[ 10763 10752 10751 10750 ] final  118.37 input  -60.55 | X-H torsion
[ 11005 11000 10999 10996 ] final  156.79 input  -57.11 | X-H torsion

> <Gold.Protein.ActiveResidues>
 VAL166  LYS551  ARG553  GLY616  TRP617  ASP618  TYR619  PRO620  LYS621  CYS622 
 ASP623  PHE694  ASN695  SER759  ASP760  ASP761  ALA762  ILE779  LEU786  VAL792 
 PHE793  MET794  SER795  GLU796  ALA797  LYS798  CYS799  TRP800  GLU811  SER814 

> <Gold.Protein.RotatedAtoms>
  150.7951  133.8708  159.3257 H   0  0  0  0  0  0  0  0  0  0  0  0  # atno 6907 bound_to 6896
  151.6536  135.0996  160.0175 H   0  0  0  0  0  0  0  0  0  0  0  0  # atno 6908 bound_to 6896
  152.4031  133.6809  159.6369 H   0  0  0  0  0  0  0  0  0  0  0  0  # atno 6909 bound_to 6896
  145.1609  140.8878  143.3591 H   0  0  0  0  0  0  0  0  0  0  0  0  # atno 7974 bound_to 7965
  154.9266  140.0406  157.2026 H   0  0  0  0  0  0  0  0  0  0  0  0  # atno 8008 bound_to 7997
  154.8201  140.2882  155.5771 H   0  0  0  0  0  0  0  0  0  0  0  0  # atno 8009 bound_to 7997
  156.2979  140.2520  156.3107 H   0  0  0  0  0  0  0  0  0  0  0  0  # atno 8010 bound_to 7997
  140.3803  144.1989  150.6131 H   0  0  0  0  0  0  0  0  0  0  0  0  # atno 10167 bound_to 10162
  156.9894  131.0143  151.2860 H   0  0  0  0  0  0  0  0  0  0  0  0  # atno 10718 bound_to 10713
  153.5666  135.3510  155.2821 H   0  0  0  0  0  0  0  0  0  0  0  0  # atno 10763 bound_to 10752
  154.8688  135.4149  154.2771 H   0  0  0  0  0  0  0  0  0  0  0  0  # atno 10764 bound_to 10752
  153.3528  135.7056  153.6844 H   0  0  0  0  0  0  0  0  0  0  0  0  # atno 10765 bound_to 10752
  140.1708  134.8544  157.2687 H   0  0  0  0  0  0  0  0  0  0  0  0  # atno 11005 bound_to 11000
  145.0332  139.3323  143.6014 LP  0  0  0  0  0  0  0  0  0  0  0  0  # atno 17320 bound_to 7965
  146.3482  139.9677  142.8710 LP  0  0  0  0  0  0  0  0  0  0  0  0  # atno 17321 bound_to 7965
  140.4944  143.2337  151.8771 LP  0  0  0  0  0  0  0  0  0  0  0  0  # atno 17342 bound_to 10162
  139.4796  144.5130  151.8907 LP  0  0  0  0  0  0  0  0  0  0  0  0  # atno 17343 bound_to 10162
  157.5469  130.8157  149.8097 LP  0  0  0  0  0  0  0  0  0  0  0  0  # atno 17370 bound_to 10713
  156.0213  130.3794  150.1954 LP  0  0  0  0  0  0  0  0  0  0  0  0  # atno 17371 bound_to 10713
  140.2380  134.3830  155.7493 LP  0  0  0  0  0  0  0  0  0  0  0  0  # atno 17394 bound_to 11000
  141.2217  133.7250  156.8744 LP  0  0  0  0  0  0  0  0  0  0  0  0  # atno 17395 bound_to 11000

$$$$
