AV-unprocessed.smi:115|AV-procd|sdf|1125|dock8
  -GOLD-   2262018253D 1   1.00000     0.00000
 Structure written by MMmdl.
 55 57  0  0  0  0  0  0  0  0  1 V2000
  143.8900  132.6412  149.7471 C   0  0  0  0  0  0  0  0  0  0  0  0
  145.1857  132.1672  149.4113 O   0  0  0  0  0  0  0  0  0  0  0  0
  146.2389  132.8114  150.1168 C   0  0  0  0  0  0  0  0  0  0  0  0
  146.4949  132.1427  151.4880 C   0  0  2  0  0  0  0  0  0  0  0  0
  145.3536  131.2194  151.9475 C   0  0  0  0  0  0  0  0  0  0  0  0
  146.8869  133.0959  152.5399 N   0  0  0  0  0  0  0  0  0  0  0  0
  146.1684  134.2498  152.8483 C   0  0  0  0  0  0  0  0  0  0  0  0
  144.9156  134.6599  152.1402 C   0  0  0  0  0  0  0  0  0  0  0  0
  146.8054  134.8795  153.8740 C   0  0  0  0  0  0  0  0  0  0  0  0
  147.9665  134.1351  154.2162 C   0  0  0  0  0  0  0  0  0  0  0  0
  148.9579  134.4044  155.2942 C   0  0  0  0  0  0  0  0  0  0  0  0
  149.7601  133.5618  155.6953 O   0  0  0  0  0  0  0  0  0  0  0  0
  148.9590  135.8061  155.9290 C   0  0  0  0  0  0  0  0  0  0  0  0
  148.1603  135.8411  157.1468 N   0  0  0  0  0  0  0  0  0  0  0  0
  146.8927  136.4732  157.0820 C   0  0  0  0  0  0  0  0  0  0  0  0
  146.4677  136.9820  156.0432 O   0  0  0  0  0  0  0  0  0  0  0  0
  146.1503  136.4764  158.3379 C   0  0  0  0  0  0  0  0  0  0  0  0
  144.9393  137.0561  158.3927 F   0  0  0  0  0  0  0  0  0  0  0  0
  146.6611  135.9075  159.4510 C   0  0  0  0  0  0  0  0  0  0  0  0
  147.9001  135.2911  159.4840 N   0  0  0  0  0  0  0  0  0  0  0  0
  148.4280  134.6765  160.7598 C   0  0  1  0  0  0  0  0  0  0  0  0
  148.3612  135.6908  161.9079 C   0  0  0  0  0  0  0  0  0  0  0  0
  147.0951  135.2757  162.6265 C   0  0  0  0  0  0  0  0  0  0  0  0
  147.1021  133.7667  162.4153 C   0  0  0  0  0  0  0  0  0  0  0  0
  147.6217  133.5861  161.1023 O   0  0  0  0  0  0  0  0  0  0  0  0
  148.7001  135.2602  158.3207 C   0  0  0  0  0  0  0  0  0  0  0  0
  149.8257  134.7571  158.3415 O   0  0  0  0  0  0  0  0  0  0  0  0
  148.0221  133.0533  153.3641 C   0  0  0  0  0  0  0  0  0  0  0  0
  149.0586  131.9684  153.2558 C   0  0  0  0  0  0  0  0  0  0  0  0
  143.1445  132.1054  149.1595 H   0  0  0  0  0  0  0  0  0  0  0  0
  143.7741  133.7050  149.5398 H   0  0  0  0  0  0  0  0  0  0  0  0
  143.6705  132.4670  150.8012 H   0  0  0  0  0  0  0  0  0  0  0  0
  147.1461  132.8310  149.5097 H   0  0  0  0  0  0  0  0  0  0  0  0
  145.9341  133.8477  150.2478 H   0  0  0  0  0  0  0  0  0  0  0  0
  147.3457  131.4863  151.3284 H   0  0  0  0  0  0  0  0  0  0  0  0
  145.1512  130.4534  151.1986 H   0  0  0  0  0  0  0  0  0  0  0  0
  144.4227  131.7543  152.1244 H   0  0  0  0  0  0  0  0  0  0  0  0
  145.6179  130.7071  152.8730 H   0  0  0  0  0  0  0  0  0  0  0  0
  144.5770  135.6369  152.4862 H   0  0  0  0  0  0  0  0  0  0  0  0
  144.1106  133.9478  152.3236 H   0  0  0  0  0  0  0  0  0  0  0  0
  145.0778  134.7302  151.0645 H   0  0  0  0  0  0  0  0  0  0  0  0
  146.4547  135.7917  154.3329 H   0  0  0  0  0  0  0  0  0  0  0  0
  149.9525  136.1741  156.1817 H   0  0  0  0  0  0  0  0  0  0  0  0
  148.5599  136.5415  155.2296 H   0  0  0  0  0  0  0  0  0  0  0  0
  146.0679  135.9454  160.3525 H   0  0  0  0  0  0  0  0  0  0  0  0
  149.4374  134.3230  160.5449 H   0  0  0  0  0  0  0  0  0  0  0  0
  149.2307  135.5456  162.5502 H   0  0  0  0  0  0  0  0  0  0  0  0
  148.3528  136.7222  161.5524 H   0  0  0  0  0  0  0  0  0  0  0  0
  147.0868  135.5591  163.6792 H   0  0  0  0  0  0  0  0  0  0  0  0
  146.2239  135.7213  162.1453 H   0  0  0  0  0  0  0  0  0  0  0  0
  147.7709  133.2845  163.1294 H   0  0  0  0  0  0  0  0  0  0  0  0
  146.1128  133.3210  162.5191 H   0  0  0  0  0  0  0  0  0  0  0  0
  150.0429  132.3219  153.5581 H   0  0  0  0  0  0  0  0  0  0  0  0
  149.1857  131.6141  152.2373 H   0  0  0  0  0  0  0  0  0  0  0  0
  148.7981  131.1185  153.8865 H   0  0  0  0  0  0  0  0  0  0  0  0
  1  2  1  0  0  0  0
  1 30  1  0  0  0  0
  1 31  1  0  0  0  0
  1 32  1  0  0  0  0
  2  3  1  0  0  0  0
  3  4  1  0  0  0  0
  3 33  1  0  0  0  0
  3 34  1  0  0  0  0
  4  5  1  0  0  0  0
  4  6  1  0  0  0  0
  4 35  1  0  0  0  0
  5 36  1  0  0  0  0
  5 37  1  0  0  0  0
  5 38  1  0  0  0  0
  6 28  1  0  0  0  0
  6  7  1  0  0  0  0
  7  8  1  0  0  0  0
  7  9  2  0  0  0  0
  8 39  1  0  0  0  0
  8 40  1  0  0  0  0
  8 41  1  0  0  0  0
  9 10  1  0  0  0  0
  9 42  1  0  0  0  0
 10 11  1  0  0  0  0
 10 28  2  0  0  0  0
 11 12  2  0  0  0  0
 11 13  1  0  0  0  0
 13 14  1  0  0  0  0
 13 43  1  0  0  0  0
 13 44  1  0  0  0  0
 14 26  1  0  0  0  0
 14 15  1  0  0  0  0
 15 16  2  0  0  0  0
 15 17  1  0  0  0  0
 17 18  1  0  0  0  0
 17 19  2  0  0  0  0
 19 20  1  0  0  0  0
 19 45  1  0  0  0  0
 20 21  1  0  0  0  0
 20 26  1  0  0  0  0
 21 25  1  0  0  0  0
 21 22  1  0  0  0  0
 21 46  1  0  0  0  0
 22 23  1  0  0  0  0
 22 47  1  0  0  0  0
 22 48  1  0  0  0  0
 23 24  1  0  0  0  0
 23 49  1  0  0  0  0
 23 50  1  0  0  0  0
 24 25  1  0  0  0  0
 24 51  1  0  0  0  0
 24 52  1  0  0  0  0
 26 27  2  0  0  0  0
 28 29  1  0  0  0  0
 29 53  1  0  0  0  0
 29 54  1  0  0  0  0
 29 55  1  0  0  0  0
M  END
> <s_m_source_file>
AV-unprocessed.smi

> <i_m_source_file_index>
115

> <i_lp_mmshare_version>
43012

> <i_f3d_flags>
0

> <s_epik_input>
W0NIM11PW0NIMl1bQ0BIXShbQ0gzXSluMWMoW0NIM10pW2NIXWMoYzFbQ0gzXSlDKD1PKVtDSDJdbjJjKD1PKWMoRilbY0hdbihjMj1PKVtDQEBIXTNbQ0gyXVtDSDJdW0NIMl1PMw==

> <s_epik_cmdline>
J2VwaWtfcHl0aG9uJywgJy1waCcsICc3LjAnLCAnLXRuJywgJzgnLCAnLW1hJywgJzIwMCcsICctbWV0YWxfYmluZGluZycsICctaW1hZScsICc8aW5maWxlLm1hZT4nLCAnLW9tYWUnLCAnPG91dGZpbGUubWFlPic=

> <r_lp_tautomer_probability>
1

> <r_epik_Ionization_Penalty>
5.02611e-09

> <r_epik_Ionization_Penalty_Charging>
5.01743e-09

> <r_epik_Ionization_Penalty_Neutral>
8.68114e-12

> <r_epik_State_Penalty>
-0

> <r_epik_Charging_Adjusted_Penalty>
5.01743e-09

> <i_epik_Tot_Q>
0

> <i_epik_Tot_abs_Q>
0

> <r_epik_Metal_State_Penalty>
-0

> <b_epik_Metal_Only>
0

> <s_epik_Chemistry_Notes>
This compound contains an acetal/aminal-like group ( X-CH(R)-Y where X, Y are N, S, or O) that may be acid/base labile, releasing an aldehyde.

> <s_lp_Force_Field>
OPLS_2005

> <r_lp_Energy>
51.0988

> <b_lp_Chiralities_Consistent>
1

> <s_lp_Variant>
AV-unprocessed.smi:115-3

> <Gold.Version>
5.8.1

> <Gold.Id.Protein>
6NUR|6NUR_protein|mol2

> <Gold.PLP.Fitness>
38.9575

> <Gold.PLP.PLP>
-39.0279

> <Gold.PLP.part.hbond>
-1.0000

> <Gold.PLP.part.metal>
0.0000

> <Gold.PLP.part.buried>
-4.7173

> <Gold.PLP.part.nonpolar>
-34.0181

> <Gold.PLP.part.repulsive>
0.1712

> <Gold.PLP.ligand.clash>
0.0000

> <Gold.PLP.ligand.torsion>
1.6899

> <Gold.PLP.Chemscore.Hbond>
1.0000

> <Gold.PLP.Chemscore.CHOScore>
0.0000

> <Gold.PLP.Chemscore.Metal>
0.0000

> <Gold.Chemscore.Hbonds>
donor molecule, donor type, donor heavy atom, donor atom, acceptor molecule, acceptor atom, score
      P1  H  6896  6908       L1    27  0.75

> <Gold.PLP.Chemscore.Internal.Correction>
0.3094

> <Gold.Rescore>
     Score         DG    S(hbond)    S(metal)    S(lipo)     H(rot)  DE(clash)    DE(int)     intcor
      8.21     -13.93       0.99        0.00      91.82       2.19       0.02       5.71       ----

> <Gold.Chemscore.Fitness>
8.2050

> <Gold.Chemscore.DG>
-13.9287

> <Gold.Chemscore.ZeroCoef>
-5.4800

> <Gold.Chemscore.Hbond>
0.9944

> <Gold.Chemscore.Metal>
0.0000

> <Gold.Chemscore.Lipo>
91.8238

> <Gold.Chemscore.Internal_Hbond>
0.0000

> <Gold.Chemscore.DEClash>
0.0156

> <Gold.Chemscore.DEInternal>
5.7081

> <Gold.Chemscore.Rot>
2.1938

> <Gold.Chemscore.Internal.Correction>
   9.000000E+99

> <Gold.Chemscore.Hbonds>
donor molecule, donor type, donor heavy atom, donor atom, acceptor molecule, acceptor atom, score
      P1  H  6896  6908       L1    27  0.72

> <Gold.Chemscore.Hbond.Weighted>
-3.3213

> <Gold.Chemscore.Metal.Weighted>
-0.0000

> <Gold.Chemscore.Lipo.Weighted>
-10.7434

> <Gold.Chemscore.Internal_Hbond.Weighted>
0.0000

> <Gold.Chemscore.DEClash.Weighted>
0.0156

> <Gold.Chemscore.DEInternal.Weighted>
5.7081

> <Gold.Chemscore.Rot.Weighted>
5.6160

> <Gold.Chemscore.Internal.Correction.Weighted>
   9.000000E+99

> <Gold.Protein.RotatedTorsions>
[ 6907 6896 6895 6894 ] final  148.16 input  -60.11 | X-H torsion
[ 7974 7965 7964 7962 ] final   59.61 input  175.53 | X-H torsion
[ 8008 7997 7996 7995 ] final -161.98 input   59.86 | X-H torsion
[ 10167 10162 10161 10158 ] final   -1.78 input  -65.29 | X-H torsion
[ 10718 10713 10712 10709 ] final  136.86 input   66.30 | X-H torsion
[ 10763 10752 10751 10750 ] final   25.32 input  -60.55 | X-H torsion
[ 11005 11000 10999 10996 ] final  -89.41 input  -57.11 | X-H torsion

> <Gold.Protein.ActiveResidues>
 VAL166  LYS551  ARG553  GLY616  TRP617  ASP618  TYR619  PRO620  LYS621  CYS622 
 ASP623  PHE694  ASN695  SER759  ASP760  ASP761  ALA762  ILE779  LEU786  VAL792 
 PHE793  MET794  SER795  GLU796  ALA797  LYS798  CYS799  TRP800  GLU811  SER814 

> <Gold.Protein.RotatedAtoms>
  152.1452  133.4488  159.4786 H   0  0  0  0  0  0  0  0  0  0  0  0  # atno 6907 bound_to 6896
  150.6890  134.2256  159.4423 H   0  0  0  0  0  0  0  0  0  0  0  0  # atno 6908 bound_to 6896
  152.0150  134.9855  160.0620 H   0  0  0  0  0  0  0  0  0  0  0  0  # atno 6909 bound_to 6896
  145.9052  139.3612  143.0568 H   0  0  0  0  0  0  0  0  0  0  0  0  # atno 7974 bound_to 7965
  155.8001  140.0890  157.1961 H   0  0  0  0  0  0  0  0  0  0  0  0  # atno 8008 bound_to 7997
  154.3982  140.1474  156.3324 H   0  0  0  0  0  0  0  0  0  0  0  0  # atno 8009 bound_to 7997
  155.8471  140.3436  155.5671 H   0  0  0  0  0  0  0  0  0  0  0  0  # atno 8010 bound_to 7997
  140.6824  143.6735  150.8165 H   0  0  0  0  0  0  0  0  0  0  0  0  # atno 10167 bound_to 10162
  157.4422  131.1058  151.0130 H   0  0  0  0  0  0  0  0  0  0  0  0  # atno 10718 bound_to 10713
  153.0700  135.6585  154.0269 H   0  0  0  0  0  0  0  0  0  0  0  0  # atno 10763 bound_to 10752
  153.9917  135.2945  155.3413 H   0  0  0  0  0  0  0  0  0  0  0  0  # atno 10764 bound_to 10752
  154.7071  135.5220  153.8681 H   0  0  0  0  0  0  0  0  0  0  0  0  # atno 10765 bound_to 10752
  141.1585  133.7628  156.9590 H   0  0  0  0  0  0  0  0  0  0  0  0  # atno 11005 bound_to 11000
  145.8741  140.9402  143.0635 LP  0  0  0  0  0  0  0  0  0  0  0  0  # atno 17320 bound_to 7965
  144.6739  140.0693  143.7473 LP  0  0  0  0  0  0  0  0  0  0  0  0  # atno 17321 bound_to 7965
  140.0437  143.5320  152.2706 LP  0  0  0  0  0  0  0  0  0  0  0  0  # atno 17342 bound_to 10162
  139.6156  144.7619  151.2853 LP  0  0  0  0  0  0  0  0  0  0  0  0  # atno 17343 bound_to 10162
  157.0990  130.5973  149.5456 LP  0  0  0  0  0  0  0  0  0  0  0  0  # atno 17370 bound_to 10713
  155.9953  130.5019  150.7453 LP  0  0  0  0  0  0  0  0  0  0  0  0  # atno 17371 bound_to 10713
  140.1205  134.9420  157.2197 LP  0  0  0  0  0  0  0  0  0  0  0  0  # atno 17394 bound_to 11000
  140.3078  134.3059  155.7274 LP  0  0  0  0  0  0  0  0  0  0  0  0  # atno 17395 bound_to 11000

$$$$
