AV-unprocessed.smi:2583|AV-procd|sdf|10135|dock1
  -GOLD-   2272014143D 1   1.00000     0.00000
 Structure written by MMmdl.
 55 57  0  0  0  0  0  0  0  0  3 V2000
  153.1701  141.4185  160.3295 C   0  0  0  0  0  0  0  0  0  0  0  0
  152.5835  142.3898  159.3268 C   0  0  0  0  0  0  0  0  0  0  0  0
  152.9141  143.7602  159.3624 C   0  0  0  0  0  0  0  0  0  0  0  0
  152.4055  144.6668  158.5019 N   0  0  0  0  0  0  0  0  0  0  0  0
  151.5421  144.2299  157.5606 C   0  0  0  0  0  0  0  0  0  0  0  0
  151.1524  142.8811  157.4216 C   0  0  0  0  0  0  0  0  0  0  0  0
  150.2175  142.5565  156.4023 N   0  0  0  0  0  0  0  0  0  0  0  0
  149.9890  141.3618  155.8313 C   0  0  0  0  0  0  0  0  0  0  0  0
  150.6314  140.3345  156.0492 O   0  0  0  0  0  0  0  0  0  0  0  0
  148.9715  141.4268  154.9604 N   0  0  0  0  0  0  0  0  0  0  0  0
  148.4625  140.3048  154.1772 C   0  0  2  0  0  0  0  0  0  0  0  0
  147.4819  140.7921  153.1004 C   0  0  0  0  0  0  0  0  0  0  0  0
  146.8801  139.6059  152.3304 C   0  0  0  0  0  0  0  0  0  0  0  0
  146.1917  138.6437  153.2389 N   0  3  1  0  0  0  0  0  0  0  0  0
  145.4507  137.5864  152.4755 C   0  0  2  0  0  0  0  0  0  0  0  0
  144.8647  136.5319  153.4429 C   0  0  0  0  0  0  0  0  0  0  0  0
  144.0849  135.4341  152.6988 C   0  0  0  0  0  0  0  0  0  0  0  0
  144.9368  134.7655  151.6864 N   0  3  1  0  0  0  0  0  0  0  0  0
  144.2487  133.6333  151.0293 C   0  0  0  0  0  0  0  0  0  0  0  0
  145.4891  135.7346  150.7105 C   0  0  0  0  0  0  0  0  0  0  0  0
  146.2983  136.8359  151.4175 C   0  0  0  0  0  0  0  0  0  0  0  0
  147.1286  138.1483  154.2893 C   0  0  0  0  0  0  0  0  0  0  0  0
  147.7447  139.3062  155.0938 C   0  0  0  0  0  0  0  0  0  0  0  0
  151.6833  141.9425  158.3389 C   0  0  0  0  0  0  0  0  0  0  0  0
  153.9417  141.8930  160.9367 H   0  0  0  0  0  0  0  0  0  0  0  0
  153.6165  140.5665  159.8160 H   0  0  0  0  0  0  0  0  0  0  0  0
  152.3904  141.0485  160.9956 H   0  0  0  0  0  0  0  0  0  0  0  0
  153.5988  144.1433  160.1050 H   0  0  0  0  0  0  0  0  0  0  0  0
  151.1517  144.9841  156.8931 H   0  0  0  0  0  0  0  0  0  0  0  0
  149.6800  143.3332  156.0458 H   0  0  0  0  0  0  0  0  0  0  0  0
  148.5103  142.3165  154.8379 H   0  0  0  0  0  0  0  0  0  0  0  0
  149.2946  139.7870  153.6954 H   0  0  0  0  0  0  0  0  0  0  0  0
  146.6809  141.3749  153.5582 H   0  0  0  0  0  0  0  0  0  0  0  0
  147.9915  141.4603  152.4045 H   0  0  0  0  0  0  0  0  0  0  0  0
  146.1893  139.9959  151.5847 H   0  0  0  0  0  0  0  0  0  0  0  0
  147.6671  139.0865  151.7814 H   0  0  0  0  0  0  0  0  0  0  0  0
  144.6313  138.0721  151.9420 H   0  0  0  0  0  0  0  0  0  0  0  0
  145.6713  136.0745  154.0182 H   0  0  0  0  0  0  0  0  0  0  0  0
  144.1973  136.9919  154.1704 H   0  0  0  0  0  0  0  0  0  0  0  0
  143.7247  134.6951  153.4158 H   0  0  0  0  0  0  0  0  0  0  0  0
  143.2051  135.8610  152.2143 H   0  0  0  0  0  0  0  0  0  0  0  0
  143.3757  133.9750  150.4717 H   0  0  0  0  0  0  0  0  0  0  0  0
  143.9185  132.9022  151.7682 H   0  0  0  0  0  0  0  0  0  0  0  0
  144.9195  133.1243  150.3364 H   0  0  0  0  0  0  0  0  0  0  0  0
  146.1316  135.2109  150.0013 H   0  0  0  0  0  0  0  0  0  0  0  0
  144.6755  136.1771  150.1331 H   0  0  0  0  0  0  0  0  0  0  0  0
  146.6591  137.5234  150.6520 H   0  0  0  0  0  0  0  0  0  0  0  0
  147.1772  136.3911  151.8868 H   0  0  0  0  0  0  0  0  0  0  0  0
  146.6088  137.5117  155.0041 H   0  0  0  0  0  0  0  0  0  0  0  0
  147.9138  137.5468  153.8283 H   0  0  0  0  0  0  0  0  0  0  0  0
  148.4428  138.9090  155.8320 H   0  0  0  0  0  0  0  0  0  0  0  0
  146.9588  139.8147  155.6548 H   0  0  0  0  0  0  0  0  0  0  0  0
  151.4048  140.9002  158.3143 H   0  0  0  0  0  0  0  0  0  0  0  0
  145.4877  139.1696  153.7373 H   0  0  0  0  0  0  0  0  0  0  0  0
  145.7238  134.3705  152.1817 H   0  0  0  0  0  0  0  0  0  0  0  0
  1  2  1  0  0  0  0
  1 25  1  0  0  0  0
  1 26  1  0  0  0  0
  1 27  1  0  0  0  0
  2 24  1  0  0  0  0
  2  3  2  0  0  0  0
  3  4  1  0  0  0  0
  3 28  1  0  0  0  0
  4  5  2  0  0  0  0
  5  6  1  0  0  0  0
  5 29  1  0  0  0  0
  6  7  1  0  0  0  0
  6 24  2  0  0  0  0
  7  8  1  0  0  0  0
  7 30  1  0  0  0  0
  8  9  2  0  0  0  0
  8 10  1  0  0  0  0
 10 11  1  0  0  0  0
 10 31  1  0  0  0  0
 11 23  1  0  0  0  0
 11 12  1  0  0  0  0
 11 32  1  0  0  0  0
 12 13  1  0  0  0  0
 12 33  1  0  0  0  0
 12 34  1  0  0  0  0
 13 14  1  0  0  0  0
 13 35  1  0  0  0  0
 13 36  1  0  0  0  0
 14 15  1  0  0  0  0
 14 22  1  0  0  0  0
 14 54  1  0  0  0  0
 15 21  1  0  0  0  0
 15 16  1  0  0  0  0
 15 37  1  0  0  0  0
 16 17  1  0  0  0  0
 16 38  1  0  0  0  0
 16 39  1  0  0  0  0
 17 18  1  0  0  0  0
 17 40  1  0  0  0  0
 17 41  1  0  0  0  0
 18 19  1  0  0  0  0
 18 20  1  0  0  0  0
 18 55  1  0  0  0  0
 19 42  1  0  0  0  0
 19 43  1  0  0  0  0
 19 44  1  0  0  0  0
 20 21  1  0  0  0  0
 20 45  1  0  0  0  0
 20 46  1  0  0  0  0
 21 47  1  0  0  0  0
 21 48  1  0  0  0  0
 22 23  1  0  0  0  0
 22 49  1  0  0  0  0
 22 50  1  0  0  0  0
 23 51  1  0  0  0  0
 23 52  1  0  0  0  0
 24 53  1  0  0  0  0
M  CHG  1  14   1
M  CHG  1  18   1
M  END
> <s_m_source_file>
AV-unprocessed.smi

> <i_m_source_file_index>
2583

> <i_lp_mmshare_version>
43012

> <i_f3d_flags>
0

> <s_epik_input>
W0NIM11jMVtjSF1uW2NIXWMoW2NIXTEpW05IXUMoPU8pW05IXVtDSF0yW0NIMl1bQ0gyXU4oW0NIMl1bQ0gyXTIpW0NIXTNbQ0gyXVtDSDJdTihbQ0gzXSlbQ0gyXVtDSDJdMw==

> <s_epik_cmdline>
J2VwaWtfcHl0aG9uJywgJy1waCcsICc3LjAnLCAnLXRuJywgJzgnLCAnLW1hJywgJzIwMCcsICctbWV0YWxfYmluZGluZycsICctaW1hZScsICc8aW5maWxlLm1hZT4nLCAnLW9tYWUnLCAnPG91dGZpbGUubWFlPic=

> <r_epik_Ionization_Penalty>
0.188357

> <r_epik_Ionization_Penalty_Charging>
0.180787

> <r_epik_Ionization_Penalty_Neutral>
0.00756971

> <r_epik_State_Penalty>
0.157948

> <r_epik_Charging_Adjusted_Penalty>
0.338735

> <i_epik_Tot_Q>
2

> <i_epik_Tot_abs_Q>
2

> <r_epik_Metal_State_Penalty>
0.153874

> <b_epik_Metal_Only>
0

> <s_lp_Force_Field>
OPLS_2005

> <r_lp_Energy>
43.8925

> <b_lp_Chiralities_Consistent>
1

> <s_lp_Variant>
AV-unprocessed.smi:2583-1

> <Gold.Version>
5.8.1

> <Gold.Id.Protein>
6NUR|6NUR_protein|mol2

> <Gold.PLP.Fitness>
48.0515

> <Gold.PLP.PLP>
-42.9884

> <Gold.PLP.part.hbond>
-1.4725

> <Gold.PLP.part.metal>
0.0000

> <Gold.PLP.part.buried>
-2.7539

> <Gold.PLP.part.nonpolar>
-39.3064

> <Gold.PLP.part.repulsive>
0.2880

> <Gold.PLP.ligand.clash>
0.0000

> <Gold.PLP.ligand.torsion>
0.3306

> <Gold.PLP.Chemscore.Hbond>
1.0000

> <Gold.PLP.Chemscore.CHOScore>
0.8944

> <Gold.PLP.Chemscore.Metal>
0.0000

> <Gold.Chemscore.Hbonds>
donor molecule, donor type, donor heavy atom, donor atom, acceptor molecule, acceptor atom, score
      L1  H     7    30       P1  8028  1.00
      L1  C     5    29       P1  8028  0.84

> <Gold.PLP.Chemscore.Internal.Correction>
0.0409

> <Gold.Rescore>
     Score         DG    S(hbond)    S(metal)    S(lipo)     H(rot)  DE(clash)    DE(int)     intcor
     18.57     -20.57       1.07        0.00     124.95       1.21       0.56       1.44       ----

> <Gold.Chemscore.Fitness>
18.5706

> <Gold.Chemscore.DG>
-20.5725

> <Gold.Chemscore.ZeroCoef>
-5.4800

> <Gold.Chemscore.Hbond>
1.0687

> <Gold.Chemscore.Metal>
0.0000

> <Gold.Chemscore.Lipo>
124.9455

> <Gold.Chemscore.Internal_Hbond>
0.0000

> <Gold.Chemscore.DEClash>
0.5628

> <Gold.Chemscore.DEInternal>
1.4390

> <Gold.Chemscore.Rot>
1.2092

> <Gold.Chemscore.Internal.Correction>
   9.000000E+99

> <Gold.Chemscore.Hbonds>
donor molecule, donor type, donor heavy atom, donor atom, acceptor molecule, acceptor atom, score
      L1  H     7    30       P1  8028  1.00

> <Gold.Chemscore.Hbond.Weighted>
-3.5693

> <Gold.Chemscore.Metal.Weighted>
-0.0000

> <Gold.Chemscore.Lipo.Weighted>
-14.6186

> <Gold.Chemscore.Internal_Hbond.Weighted>
0.0000

> <Gold.Chemscore.DEClash.Weighted>
0.5628

> <Gold.Chemscore.DEInternal.Weighted>
1.4390

> <Gold.Chemscore.Rot.Weighted>
3.0955

> <Gold.Chemscore.Internal.Correction.Weighted>
   9.000000E+99

> <Gold.Protein.RotatedTorsions>
[ 6907 6896 6895 6894 ] final   32.09 input  -60.11 | X-H torsion
[ 7974 7965 7964 7962 ] final -154.87 input  175.53 | X-H torsion
[ 8008 7997 7996 7995 ] final  -23.13 input   59.86 | X-H torsion
[ 10167 10162 10161 10158 ] final -152.34 input  -65.29 | X-H torsion
[ 10718 10713 10712 10709 ] final  -44.48 input   66.30 | X-H torsion
[ 10763 10752 10751 10750 ] final  136.80 input  -60.55 | X-H torsion
[ 11005 11000 10999 10996 ] final   72.59 input  -57.11 | X-H torsion

> <Gold.Protein.ActiveResidues>
 VAL166  LYS551  ARG553  GLY616  TRP617  ASP618  TYR619  PRO620  LYS621  CYS622 
 ASP623  PHE694  ASN695  SER759  ASP760  ASP761  ALA762  ILE779  LEU786  VAL792 
 PHE793  MET794  SER795  GLU796  ALA797  LYS798  CYS799  TRP800  GLU811  SER814 

> <Gold.Protein.RotatedAtoms>
  152.0695  134.9542  160.0574 H   0  0  0  0  0  0  0  0  0  0  0  0  # atno 6907 bound_to 6896
  152.0874  133.4178  159.4536 H   0  0  0  0  0  0  0  0  0  0  0  0  # atno 6908 bound_to 6896
  150.6836  134.2831  159.4679 H   0  0  0  0  0  0  0  0  0  0  0  0  # atno 6909 bound_to 6896
  144.7668  140.4328  143.5936 H   0  0  0  0  0  0  0  0  0  0  0  0  # atno 7974 bound_to 7965
  154.4603  140.1989  156.0264 H   0  0  0  0  0  0  0  0  0  0  0  0  # atno 8008 bound_to 7997
  156.0826  140.3269  155.7685 H   0  0  0  0  0  0  0  0  0  0  0  0  # atno 8009 bound_to 7997
  155.5086  140.0560  157.2918 H   0  0  0  0  0  0  0  0  0  0  0  0  # atno 8010 bound_to 7997
  139.7190  143.8987  152.2496 H   0  0  0  0  0  0  0  0  0  0  0  0  # atno 10167 bound_to 10162
  156.2381  130.4178  149.8793 H   0  0  0  0  0  0  0  0  0  0  0  0  # atno 10718 bound_to 10713
  153.8625  135.3065  155.3438 H   0  0  0  0  0  0  0  0  0  0  0  0  # atno 10763 bound_to 10752
  154.7842  135.4819  153.9913 H   0  0  0  0  0  0  0  0  0  0  0  0  # atno 10764 bound_to 10752
  153.1453  135.6832  153.9058 H   0  0  0  0  0  0  0  0  0  0  0  0  # atno 10765 bound_to 10752
  139.9483  134.7272  156.0924 H   0  0  0  0  0  0  0  0  0  0  0  0  # atno 11005 bound_to 11000
  145.6446  139.1555  143.2896 LP  0  0  0  0  0  0  0  0  0  0  0  0  # atno 17320 bound_to 7965
  146.1782  140.6540  142.9201 LP  0  0  0  0  0  0  0  0  0  0  0  0  # atno 17321 bound_to 7965
  139.8878  144.6982  150.8805 LP  0  0  0  0  0  0  0  0  0  0  0  0  # atno 17342 bound_to 10162
  140.7750  143.3610  151.1828 LP  0  0  0  0  0  0  0  0  0  0  0  0  # atno 17343 bound_to 10162
  156.6384  130.8694  151.3509 LP  0  0  0  0  0  0  0  0  0  0  0  0  # atno 17370 bound_to 10713
  157.7163  130.9502  150.1269 LP  0  0  0  0  0  0  0  0  0  0  0  0  # atno 17371 bound_to 10713
  141.1140  133.6634  156.3047 LP  0  0  0  0  0  0  0  0  0  0  0  0  # atno 17394 bound_to 11000
  140.5780  134.5774  157.5473 LP  0  0  0  0  0  0  0  0  0  0  0  0  # atno 17395 bound_to 11000

$$$$
