AV-unprocessed.smi:1822|AV-procd|sdf|7390|dock7
  -GOLD-   22720 9 63D 1   1.00000     0.00000
 Structure written by MMmdl.
 46 47  0  0  0  0  0  0  0  0  1 V2000
  152.8594  142.8244  161.2580 C   0  0  0  0  0  0  0  0  0  0  0  0
  152.3232  142.3853  159.9786 N   0  0  0  0  0  0  0  0  0  0  0  0
  152.6321  141.2219  159.3822 C   0  0  0  0  0  0  0  0  0  0  0  0
  153.4108  140.4173  159.8970 O   0  0  0  0  0  0  0  0  0  0  0  0
  151.9656  141.0218  158.0931 C   0  0  0  0  0  0  0  0  0  0  0  0
  150.9413  141.9184  157.5786 C   0  0  0  0  0  0  0  0  0  0  0  0
  150.3638  141.6853  156.3836 C   0  0  0  0  0  0  0  0  0  0  0  0
  150.7352  140.5327  155.5580 C   0  0  0  0  0  0  0  0  0  0  0  0
  150.2104  140.3159  154.4658 O   0  0  0  0  0  0  0  0  0  0  0  0
  151.6991  139.7144  156.0787 N   0  0  0  0  0  0  0  0  0  0  0  0
  152.1565  138.5247  155.3406 C   0  0  0  0  0  0  0  0  0  0  0  0
  151.7215  137.2172  156.0147 C   0  0  0  0  0  0  0  0  0  0  0  0
  152.2373  136.8942  157.0862 O   0  0  0  0  0  0  0  0  0  0  0  0
  150.7730  136.5103  155.3653 N   0  0  0  0  0  0  0  0  0  0  0  0
  150.2178  135.3419  155.7386 C   0  0  0  0  0  0  0  0  0  0  0  0
  150.2701  134.8483  156.8672 O   0  0  0  0  0  0  0  0  0  0  0  0
  149.5793  134.7652  154.7097 N   0  0  0  0  0  0  0  0  0  0  0  0
  148.9456  133.4502  154.7374 C   0  0  0  0  0  0  0  0  0  0  0  0
  149.9543  132.4040  155.2483 C   0  0  0  0  0  0  0  0  0  0  0  0
  149.3560  130.9880  155.2308 C   0  0  0  0  0  0  0  0  0  0  0  0
  148.8439  130.6163  153.8306 C   0  0  0  0  0  0  0  0  0  0  0  0
  147.8312  131.6523  153.3184 C   0  0  0  0  0  0  0  0  0  0  0  0
  148.4242  133.0706  153.3356 C   0  0  0  0  0  0  0  0  0  0  0  0
  152.3004  139.9641  157.3284 C   0  0  0  0  0  0  0  0  0  0  0  0
  152.4768  143.8159  161.4999 H   0  0  0  0  0  0  0  0  0  0  0  0
  153.9483  142.8780  161.2261 H   0  0  0  0  0  0  0  0  0  0  0  0
  152.5666  142.1418  162.0565 H   0  0  0  0  0  0  0  0  0  0  0  0
  151.6780  143.0062  159.5118 H   0  0  0  0  0  0  0  0  0  0  0  0
  150.6199  142.7851  158.1371 H   0  0  0  0  0  0  0  0  0  0  0  0
  149.6056  142.3647  156.0226 H   0  0  0  0  0  0  0  0  0  0  0  0
  151.7845  138.5478  154.3144 H   0  0  0  0  0  0  0  0  0  0  0  0
  153.2435  138.5190  155.2461 H   0  0  0  0  0  0  0  0  0  0  0  0
  150.4447  136.9035  154.4956 H   0  0  0  0  0  0  0  0  0  0  0  0
  149.5220  135.2753  153.8406 H   0  0  0  0  0  0  0  0  0  0  0  0
  148.1037  133.4745  155.4324 H   0  0  0  0  0  0  0  0  0  0  0  0
  150.8525  132.4227  154.6294 H   0  0  0  0  0  0  0  0  0  0  0  0
  150.2719  132.6543  156.2611 H   0  0  0  0  0  0  0  0  0  0  0  0
  150.1037  130.2646  155.5568 H   0  0  0  0  0  0  0  0  0  0  0  0
  148.5359  130.9294  155.9475 H   0  0  0  0  0  0  0  0  0  0  0  0
  149.6844  130.5532  153.1383 H   0  0  0  0  0  0  0  0  0  0  0  0
  148.3858  129.6271  153.8521 H   0  0  0  0  0  0  0  0  0  0  0  0
  147.5144  131.3943  152.3076 H   0  0  0  0  0  0  0  0  0  0  0  0
  146.9351  131.6247  153.9395 H   0  0  0  0  0  0  0  0  0  0  0  0
  147.6673  133.7847  153.0088 H   0  0  0  0  0  0  0  0  0  0  0  0
  149.2371  133.1305  152.6105 H   0  0  0  0  0  0  0  0  0  0  0  0
  153.0458  139.2359  157.6173 H   0  0  0  0  0  0  0  0  0  0  0  0
  1  2  1  0  0  0  0
  1 25  1  0  0  0  0
  1 26  1  0  0  0  0
  1 27  1  0  0  0  0
  2  3  1  0  0  0  0
  2 28  1  0  0  0  0
  3  4  2  0  0  0  0
  3  5  1  0  0  0  0
  5 24  2  0  0  0  0
  5  6  1  0  0  0  0
  6  7  2  0  0  0  0
  6 29  1  0  0  0  0
  7  8  1  0  0  0  0
  7 30  1  0  0  0  0
  8  9  2  0  0  0  0
  8 10  1  0  0  0  0
 10 11  1  0  0  0  0
 10 24  1  0  0  0  0
 11 12  1  0  0  0  0
 11 31  1  0  0  0  0
 11 32  1  0  0  0  0
 12 13  2  0  0  0  0
 12 14  1  0  0  0  0
 14 15  1  0  0  0  0
 14 33  1  0  0  0  0
 15 16  2  0  0  0  0
 15 17  1  0  0  0  0
 17 18  1  0  0  0  0
 17 34  1  0  0  0  0
 18 23  1  0  0  0  0
 18 19  1  0  0  0  0
 18 35  1  0  0  0  0
 19 20  1  0  0  0  0
 19 36  1  0  0  0  0
 19 37  1  0  0  0  0
 20 21  1  0  0  0  0
 20 38  1  0  0  0  0
 20 39  1  0  0  0  0
 21 22  1  0  0  0  0
 21 40  1  0  0  0  0
 21 41  1  0  0  0  0
 22 23  1  0  0  0  0
 22 42  1  0  0  0  0
 22 43  1  0  0  0  0
 23 44  1  0  0  0  0
 23 45  1  0  0  0  0
 24 46  1  0  0  0  0
M  END
> <s_m_source_file>
AV-unprocessed.smi

> <i_m_source_file_index>
1822

> <i_lp_mmshare_version>
43012

> <i_f3d_flags>
0

> <s_epik_input>
W0NIM11bTkhdQyg9TyljMVtjSF1bY0hdYyg9TyluKFtjSF0xKVtDSDJdQyg9TylbTkhdQyg9TylbTkhdW0NIXTJbQ0gyXVtDSDJdW0NIMl1bQ0gyXVtDSDJdMg==

> <s_epik_cmdline>
J2VwaWtfcHl0aG9uJywgJy1waCcsICc3LjAnLCAnLXRuJywgJzgnLCAnLW1hJywgJzIwMCcsICctbWV0YWxfYmluZGluZycsICctaW1hZScsICc8aW5maWxlLm1hZT4nLCAnLW9tYWUnLCAnPG91dGZpbGUubWFlPic=

> <r_lp_tautomer_probability>
1

> <r_epik_Ionization_Penalty>
3.30797e-05

> <r_epik_Ionization_Penalty_Charging>
3.7169e-08

> <r_epik_Ionization_Penalty_Neutral>
3.30425e-05

> <r_epik_State_Penalty>
-0

> <r_epik_Charging_Adjusted_Penalty>
3.7169e-08

> <i_epik_Tot_Q>
0

> <i_epik_Tot_abs_Q>
0

> <r_epik_Metal_State_Penalty>
-0

> <b_epik_Metal_Only>
0

> <s_lp_Force_Field>
OPLS_2005

> <r_lp_Energy>
24.3679

> <b_lp_Chiralities_Consistent>
1

> <s_lp_Variant>
AV-unprocessed.smi:1822-1

> <Gold.Version>
5.8.1

> <Gold.Id.Protein>
6NUR|6NUR_protein|mol2

> <Gold.PLP.Fitness>
46.1989

> <Gold.PLP.PLP>
-40.8116

> <Gold.PLP.part.hbond>
-2.0000

> <Gold.PLP.part.metal>
0.0000

> <Gold.PLP.part.buried>
-3.0764

> <Gold.PLP.part.nonpolar>
-35.7314

> <Gold.PLP.part.repulsive>
0.3116

> <Gold.PLP.ligand.clash>
0.0000

> <Gold.PLP.ligand.torsion>
0.2995

> <Gold.PLP.Chemscore.Hbond>
1.9920

> <Gold.PLP.Chemscore.CHOScore>
0.0000

> <Gold.PLP.Chemscore.Metal>
0.0000

> <Gold.Chemscore.Hbonds>
donor molecule, donor type, donor heavy atom, donor atom, acceptor molecule, acceptor atom, score
      L1  H    17    34       P1  7948  0.45
      P1  H  7989  7998       L1     9  0.80

> <Gold.PLP.Chemscore.Internal.Correction>
0.0103

> <Gold.Rescore>
     Score         DG    S(hbond)    S(metal)    S(lipo)     H(rot)  DE(clash)    DE(int)     intcor
     12.67     -15.51       1.93        0.00      66.14       1.62       0.02       2.82       ----

> <Gold.Chemscore.Fitness>
12.6724

> <Gold.Chemscore.DG>
-15.5137

> <Gold.Chemscore.ZeroCoef>
-5.4800

> <Gold.Chemscore.Hbond>
1.9252

> <Gold.Chemscore.Metal>
0.0000

> <Gold.Chemscore.Lipo>
66.1361

> <Gold.Chemscore.Internal_Hbond>
0.0000

> <Gold.Chemscore.DEClash>
0.0234

> <Gold.Chemscore.DEInternal>
2.8179

> <Gold.Chemscore.Rot>
1.6151

> <Gold.Chemscore.Internal.Correction>
   9.000000E+99

> <Gold.Chemscore.Hbonds>
donor molecule, donor type, donor heavy atom, donor atom, acceptor molecule, acceptor atom, score
      L1  H    17    34       P1  7948  0.09
      P1  H  7989  7998       L1     9  0.11

> <Gold.Chemscore.Hbond.Weighted>
-6.4303

> <Gold.Chemscore.Metal.Weighted>
-0.0000

> <Gold.Chemscore.Lipo.Weighted>
-7.7379

> <Gold.Chemscore.Internal_Hbond.Weighted>
0.0000

> <Gold.Chemscore.DEClash.Weighted>
0.0234

> <Gold.Chemscore.DEInternal.Weighted>
2.8179

> <Gold.Chemscore.Rot.Weighted>
4.1346

> <Gold.Chemscore.Internal.Correction.Weighted>
   9.000000E+99

> <Gold.Protein.RotatedTorsions>
[ 6907 6896 6895 6894 ] final   65.66 input  -60.11 | X-H torsion
[ 7974 7965 7964 7962 ] final   46.99 input  175.53 | X-H torsion
[ 8008 7997 7996 7995 ] final -113.12 input   59.86 | X-H torsion
[ 10167 10162 10161 10158 ] final   73.25 input  -65.29 | X-H torsion
[ 10718 10713 10712 10709 ] final  121.57 input   66.30 | X-H torsion
[ 10763 10752 10751 10750 ] final   79.76 input  -60.55 | X-H torsion
[ 11005 11000 10999 10996 ] final -156.11 input  -57.11 | X-H torsion

> <Gold.Protein.ActiveResidues>
 VAL166  LYS551  ARG553  GLY616  TRP617  ASP618  TYR619  PRO620  LYS621  CYS622 
 ASP623  PHE694  ASN695  SER759  ASP760  ASP761  ALA762  ILE779  LEU786  VAL792 
 PHE793  MET794  SER795  GLU796  ALA797  LYS798  CYS799  TRP800  GLU811  SER814 

> <Gold.Protein.RotatedAtoms>
  152.4424  134.5565  159.9881 H   0  0  0  0  0  0  0  0  0  0  0  0  # atno 6907 bound_to 6896
  151.5659  133.3391  159.2988 H   0  0  0  0  0  0  0  0  0  0  0  0  # atno 6908 bound_to 6896
  150.8332  134.7628  159.6935 H   0  0  0  0  0  0  0  0  0  0  0  0  # atno 6909 bound_to 6896
  146.0339  139.4797  142.9820 H   0  0  0  0  0  0  0  0  0  0  0  0  # atno 7974 bound_to 7965
  155.0158  140.0393  157.2417 H   0  0  0  0  0  0  0  0  0  0  0  0  # atno 8008 bound_to 7997
  154.7421  140.2751  155.6341 H   0  0  0  0  0  0  0  0  0  0  0  0  # atno 8009 bound_to 7997
  156.2866  140.2663  156.2151 H   0  0  0  0  0  0  0  0  0  0  0  0  # atno 8010 bound_to 7997
  140.0265  144.5500  150.7541 H   0  0  0  0  0  0  0  0  0  0  0  0  # atno 10167 bound_to 10162
  157.5808  131.1075  150.8191 H   0  0  0  0  0  0  0  0  0  0  0  0  # atno 10718 bound_to 10713
  153.0979  135.4827  154.8812 H   0  0  0  0  0  0  0  0  0  0  0  0  # atno 10763 bound_to 10752
  154.7345  135.3068  154.8837 H   0  0  0  0  0  0  0  0  0  0  0  0  # atno 10764 bound_to 10752
  153.9463  135.6828  153.4797 H   0  0  0  0  0  0  0  0  0  0  0  0  # atno 10765 bound_to 10752
  140.6791  134.4164  157.5227 H   0  0  0  0  0  0  0  0  0  0  0  0  # atno 11005 bound_to 11000
  145.6995  141.0140  143.1512 LP  0  0  0  0  0  0  0  0  0  0  0  0  # atno 17320 bound_to 7965
  144.7043  139.8628  143.7435 LP  0  0  0  0  0  0  0  0  0  0  0  0  # atno 17321 bound_to 7965
  140.7320  143.2701  151.3916 LP  0  0  0  0  0  0  0  0  0  0  0  0  # atno 17342 bound_to 10162
  139.6105  144.1109  152.2293 LP  0  0  0  0  0  0  0  0  0  0  0  0  # atno 17343 bound_to 10162
  156.8638  130.5122  149.5301 LP  0  0  0  0  0  0  0  0  0  0  0  0  # atno 17370 bound_to 10713
  156.0854  130.5853  150.9638 LP  0  0  0  0  0  0  0  0  0  0  0  0  # atno 17371 bound_to 10713
  139.8957  134.8676  156.2119 LP  0  0  0  0  0  0  0  0  0  0  0  0  # atno 17394 bound_to 11000
  141.0332  133.6977  156.1466 LP  0  0  0  0  0  0  0  0  0  0  0  0  # atno 17395 bound_to 11000

$$$$
