AV-unprocessed.smi:234|AV-procd|sdf|1793|dock6
  -GOLD-   2262020353D 1   1.00000     0.00000
 Structure written by MMmdl.
 59 62  0  0  0  0  0  0  0  0  1 V2000
  152.1723  144.5802  158.9688 C   0  0  0  0  0  0  0  0  0  0  0  0
  151.9592  144.2385  157.4927 C   0  0  0  0  0  0  0  0  0  0  0  0
  150.8093  143.4169  157.3737 O   0  0  0  0  0  0  0  0  0  0  0  0
  151.0054  142.3055  156.5074 C   0  0  2  0  0  0  0  0  0  0  0  0
  149.6795  141.6998  156.0371 C   0  0  0  0  0  0  0  0  0  0  0  0
  149.7415  140.8207  157.2944 C   0  0  1  0  0  0  0  0  0  0  0  0
  149.2687  139.4467  157.0931 N   0  0  0  0  0  0  0  0  0  0  0  0
  149.3562  138.8855  155.7490 C   0  0  0  0  0  0  0  0  0  0  0  0
  149.5487  138.5277  158.0511 C   0  0  0  0  0  0  0  0  0  0  0  0
  150.8203  138.3838  158.5114 N   0  0  0  0  0  0  0  0  0  0  0  0
  151.0978  137.4710  159.4467 C   0  0  0  0  0  0  0  0  0  0  0  0
  150.2706  136.6130  160.0470 N   0  0  0  0  0  0  0  0  0  0  0  0
  148.9944  136.7512  159.5864 C   0  0  0  0  0  0  0  0  0  0  0  0
  148.5526  137.6699  158.5933 C   0  0  0  0  0  0  0  0  0  0  0  0
  147.1880  137.5194  158.3800 N   0  0  0  0  0  0  0  0  0  0  0  0
  146.8418  136.5674  159.2030 C   0  0  0  0  0  0  0  0  0  0  0  0
  147.8615  136.0577  159.9756 N   0  0  0  0  0  0  0  0  0  0  0  0
  147.7528  135.0095  160.9789 C   0  0  0  0  0  0  0  0  0  0  0  0
  146.9580  135.4384  162.2372 C   0  0  1  0  0  0  0  0  0  0  0  0
  147.4411  134.6947  163.3437 O   0  0  0  0  0  0  0  0  0  0  0  0
  147.1344  136.9282  162.5515 C   0  0  0  0  0  0  0  0  0  0  0  0
  145.7601  137.5307  162.2831 C   0  0  0  0  0  0  0  0  0  0  0  0
  144.8798  136.4769  162.6301 O   0  0  0  0  0  0  0  0  0  0  0  0
  145.4225  135.2863  162.0782 C   0  0  2  0  0  0  0  0  0  0  0  0
  144.7687  134.0475  162.7127 C   0  0  0  0  0  0  0  0  0  0  0  0
  151.2870  140.9893  157.2766 C   0  0  0  0  0  0  0  0  0  0  0  0
  152.1083  139.9635  156.4778 C   0  0  0  0  0  0  0  0  0  0  0  0
  151.9788  141.1433  158.6341 C   0  0  0  0  0  0  0  0  0  0  0  0
  153.0524  145.2101  159.0996 H   0  0  0  0  0  0  0  0  0  0  0  0
  152.3157  143.6768  159.5621 H   0  0  0  0  0  0  0  0  0  0  0  0
  151.3134  145.1158  159.3742 H   0  0  0  0  0  0  0  0  0  0  0  0
  151.8383  145.1552  156.9144 H   0  0  0  0  0  0  0  0  0  0  0  0
  152.8341  143.7165  157.1026 H   0  0  0  0  0  0  0  0  0  0  0  0
  151.7216  142.5031  155.7079 H   0  0  0  0  0  0  0  0  0  0  0  0
  148.8341  142.3874  156.0086 H   0  0  0  0  0  0  0  0  0  0  0  0
  149.7741  141.1434  155.1031 H   0  0  0  0  0  0  0  0  0  0  0  0
  149.2875  141.3170  158.1542 H   0  0  0  0  0  0  0  0  0  0  0  0
  150.0115  138.0136  155.7124 H   0  0  0  0  0  0  0  0  0  0  0  0
  149.7478  139.6154  155.0413 H   0  0  0  0  0  0  0  0  0  0  0  0
  148.3666  138.5824  155.4069 H   0  0  0  0  0  0  0  0  0  0  0  0
  152.1306  137.4213  159.7588 H   0  0  0  0  0  0  0  0  0  0  0  0
  145.8232  136.2146  159.2783 H   0  0  0  0  0  0  0  0  0  0  0  0
  147.2863  134.1401  160.5135 H   0  0  0  0  0  0  0  0  0  0  0  0
  148.7602  134.6992  161.2598 H   0  0  0  0  0  0  0  0  0  0  0  0
  146.8545  133.9686  163.4923 H   0  0  0  0  0  0  0  0  0  0  0  0
  147.3876  137.0815  163.6021 H   0  0  0  0  0  0  0  0  0  0  0  0
  147.9138  137.4083  161.9587 H   0  0  0  0  0  0  0  0  0  0  0  0
  145.5697  138.4275  162.8731 H   0  0  0  0  0  0  0  0  0  0  0  0
  145.6404  137.7789  161.2271 H   0  0  0  0  0  0  0  0  0  0  0  0
  145.1675  135.3057  161.0180 H   0  0  0  0  0  0  0  0  0  0  0  0
  145.1948  133.1271  162.3129 H   0  0  0  0  0  0  0  0  0  0  0  0
  143.6983  134.0306  162.5070 H   0  0  0  0  0  0  0  0  0  0  0  0
  144.8938  134.0359  163.7957 H   0  0  0  0  0  0  0  0  0  0  0  0
  152.1987  139.0149  157.0073 H   0  0  0  0  0  0  0  0  0  0  0  0
  153.1191  140.3267  156.2899 H   0  0  0  0  0  0  0  0  0  0  0  0
  151.6624  139.7460  155.5070 H   0  0  0  0  0  0  0  0  0  0  0  0
  152.1142  140.1833  159.1324 H   0  0  0  0  0  0  0  0  0  0  0  0
  151.4026  141.7741  159.3114 H   0  0  0  0  0  0  0  0  0  0  0  0
  152.9638  141.5984  158.5274 H   0  0  0  0  0  0  0  0  0  0  0  0
  1  2  1  0  0  0  0
  1 29  1  0  0  0  0
  1 30  1  0  0  0  0
  1 31  1  0  0  0  0
  2  3  1  0  0  0  0
  2 32  1  0  0  0  0
  2 33  1  0  0  0  0
  3  4  1  0  0  0  0
  4 26  1  0  0  0  0
  4  5  1  0  0  0  0
  4 34  1  0  0  0  0
  5  6  1  0  0  0  0
  5 35  1  0  0  0  0
  5 36  1  0  0  0  0
  6  7  1  0  0  0  0
  6 26  1  0  0  0  0
  6 37  1  0  0  0  0
  7  8  1  0  0  0  0
  7  9  1  0  0  0  0
  8 38  1  0  0  0  0
  8 39  1  0  0  0  0
  8 40  1  0  0  0  0
  9 14  1  0  0  0  0
  9 10  2  0  0  0  0
 10 11  1  0  0  0  0
 11 12  2  0  0  0  0
 11 41  1  0  0  0  0
 12 13  1  0  0  0  0
 13 17  1  0  0  0  0
 13 14  2  0  0  0  0
 14 15  1  0  0  0  0
 15 16  2  0  0  0  0
 16 17  1  0  0  0  0
 16 42  1  0  0  0  0
 17 18  1  0  0  0  0
 18 19  1  0  0  0  0
 18 43  1  0  0  0  0
 18 44  1  0  0  0  0
 19 24  1  0  0  0  0
 19 20  1  0  0  0  0
 19 21  1  0  0  0  0
 20 45  1  0  0  0  0
 21 22  1  0  0  0  0
 21 46  1  0  0  0  0
 21 47  1  0  0  0  0
 22 23  1  0  0  0  0
 22 48  1  0  0  0  0
 22 49  1  0  0  0  0
 23 24  1  0  0  0  0
 24 25  1  0  0  0  0
 24 50  1  0  0  0  0
 25 51  1  0  0  0  0
 25 52  1  0  0  0  0
 25 53  1  0  0  0  0
 26 27  1  0  0  0  0
 26 28  1  0  0  0  0
 27 54  1  0  0  0  0
 27 55  1  0  0  0  0
 27 56  1  0  0  0  0
 28 57  1  0  0  0  0
 28 58  1  0  0  0  0
 28 59  1  0  0  0  0
M  END
> <s_m_source_file>
AV-unprocessed.smi

> <i_m_source_file_index>
234

> <i_lp_mmshare_version>
43012

> <i_f3d_flags>
0

> <s_epik_input>
W0NIM11bQ0gyXU9bQ0BASF0oQzEoW0NIM10pW0NIM10pW0NIMl1bQ0BIXTFOKFtDSDNdKWMobltjSF1uMiljKGMyMyluW2NIXW4zW0NIMl1bQ0BAXTQoW09IXSlbQ0gyXVtDSDJdT1tDQEhdNFtDSDNd

> <s_epik_cmdline>
J2VwaWtfcHl0aG9uJywgJy1waCcsICc3LjAnLCAnLXRuJywgJzgnLCAnLW1hJywgJzIwMCcsICctbWV0YWxfYmluZGluZycsICctaW1hZScsICc8aW5maWxlLm1hZT4nLCAnLW9tYWUnLCAnPG91dGZpbGUubWFlPic=

> <r_lp_tautomer_probability>
1

> <r_epik_Ionization_Penalty>
0.00349132

> <r_epik_Ionization_Penalty_Charging>
0

> <r_epik_Ionization_Penalty_Neutral>
0.00349132

> <r_epik_State_Penalty>
0.00242418

> <r_epik_Charging_Adjusted_Penalty>
0.00242418

> <i_epik_Tot_Q>
0

> <i_epik_Tot_abs_Q>
0

> <r_epik_Metal_State_Penalty>
-0

> <b_epik_Metal_Only>
0

> <s_lp_Force_Field>
OPLS_2005

> <r_lp_Energy>
48.0221

> <b_lp_Chiralities_Consistent>
1

> <s_lp_Variant>
AV-unprocessed.smi:234-9

> <Gold.Version>
5.8.1

> <Gold.Id.Protein>
6NUR|6NUR_protein|mol2

> <Gold.PLP.Fitness>
45.0780

> <Gold.PLP.PLP>
-44.8970

> <Gold.PLP.part.hbond>
-2.2958

> <Gold.PLP.part.metal>
0.0000

> <Gold.PLP.part.buried>
-4.6618

> <Gold.PLP.part.nonpolar>
-38.9025

> <Gold.PLP.part.repulsive>
1.9490

> <Gold.PLP.ligand.clash>
0.0000

> <Gold.PLP.ligand.torsion>
2.0177

> <Gold.PLP.Chemscore.Hbond>
1.0000

> <Gold.PLP.Chemscore.CHOScore>
0.0000

> <Gold.PLP.Chemscore.Metal>
0.0000

> <Gold.Chemscore.Hbonds>
donor molecule, donor type, donor heavy atom, donor atom, acceptor molecule, acceptor atom, score
      P1  H  6896  6908       L1    12  1.00

> <Gold.PLP.Chemscore.Internal.Correction>
1.2164

> <Gold.Rescore>
     Score         DG    S(hbond)    S(metal)    S(lipo)     H(rot)  DE(clash)    DE(int)     intcor
      7.59     -15.36       0.92        0.00     115.41       2.62       1.19       6.58       ----

> <Gold.Chemscore.Fitness>
7.5872

> <Gold.Chemscore.DG>
-15.3596

> <Gold.Chemscore.ZeroCoef>
-5.4800

> <Gold.Chemscore.Hbond>
0.9247

> <Gold.Chemscore.Metal>
0.0000

> <Gold.Chemscore.Lipo>
115.4129

> <Gold.Chemscore.Internal_Hbond>
0.0000

> <Gold.Chemscore.DEClash>
1.1926

> <Gold.Chemscore.DEInternal>
6.5799

> <Gold.Chemscore.Rot>
2.6219

> <Gold.Chemscore.Internal.Correction>
   9.000000E+99

> <Gold.Chemscore.Hbonds>
donor molecule, donor type, donor heavy atom, donor atom, acceptor molecule, acceptor atom, score
      P1  H  6896  6908       L1    12  0.50

> <Gold.Chemscore.Hbond.Weighted>
-3.0884

> <Gold.Chemscore.Metal.Weighted>
-0.0000

> <Gold.Chemscore.Lipo.Weighted>
-13.5033

> <Gold.Chemscore.Internal_Hbond.Weighted>
0.0000

> <Gold.Chemscore.DEClash.Weighted>
1.1926

> <Gold.Chemscore.DEInternal.Weighted>
6.5799

> <Gold.Chemscore.Rot.Weighted>
6.7121

> <Gold.Chemscore.Internal.Correction.Weighted>
   9.000000E+99

> <Gold.Protein.RotatedTorsions>
[ 6907 6896 6895 6894 ] final -158.85 input  -60.11 | X-H torsion
[ 7974 7965 7964 7962 ] final  -42.81 input  175.53 | X-H torsion
[ 8008 7997 7996 7995 ] final -151.14 input   59.86 | X-H torsion
[ 10167 10162 10161 10158 ] final   32.26 input  -65.29 | X-H torsion
[ 10718 10713 10712 10709 ] final  132.65 input   66.30 | X-H torsion
[ 10763 10752 10751 10750 ] final  -53.39 input  -60.55 | X-H torsion
[ 11005 11000 10999 10996 ] final -106.15 input  -57.11 | X-H torsion

> <Gold.Protein.ActiveResidues>
 VAL166  LYS551  ARG553  GLY616  TRP617  ASP618  TYR619  PRO620  LYS621  CYS622 
 ASP623  PHE694  ASN695  SER759  ASP760  ASP761  ALA762  ILE779  LEU786  VAL792 
 PHE793  MET794  SER795  GLU796  ALA797  LYS798  CYS799  TRP800  GLU811  SER814 

> <Gold.Protein.RotatedAtoms>
  151.3245  133.4026  159.2657 H   0  0  0  0  0  0  0  0  0  0  0  0  # atno 6907 bound_to 6896
  151.0007  134.9320  159.7962 H   0  0  0  0  0  0  0  0  0  0  0  0  # atno 6908 bound_to 6896
  152.5274  134.3210  159.9200 H   0  0  0  0  0  0  0  0  0  0  0  0  # atno 6909 bound_to 6896
  146.0079  140.6998  142.9238 H   0  0  0  0  0  0  0  0  0  0  0  0  # atno 7974 bound_to 7965
  155.6348  140.0695  157.2637 H   0  0  0  0  0  0  0  0  0  0  0  0  # atno 8008 bound_to 7997
  154.4197  140.1761  156.1559 H   0  0  0  0  0  0  0  0  0  0  0  0  # atno 8009 bound_to 7997
  155.9904  140.3345  155.6751 H   0  0  0  0  0  0  0  0  0  0  0  0  # atno 8010 bound_to 7997
  140.4515  144.1041  150.6193 H   0  0  0  0  0  0  0  0  0  0  0  0  # atno 10167 bound_to 10162
  157.4850  131.1088  150.9631 H   0  0  0  0  0  0  0  0  0  0  0  0  # atno 10718 bound_to 10713
  154.1581  135.6479  153.4979 H   0  0  0  0  0  0  0  0  0  0  0  0  # atno 10763 bound_to 10752
  153.0118  135.5354  154.6739 H   0  0  0  0  0  0  0  0  0  0  0  0  # atno 10764 bound_to 10752
  154.6045  135.2947  155.0471 H   0  0  0  0  0  0  0  0  0  0  0  0  # atno 10765 bound_to 10752
  141.1018  133.8869  157.1821 H   0  0  0  0  0  0  0  0  0  0  0  0  # atno 11005 bound_to 11000
  144.6942  140.3348  143.7209 LP  0  0  0  0  0  0  0  0  0  0  0  0  # atno 17320 bound_to 7965
  145.7387  139.1757  143.2388 LP  0  0  0  0  0  0  0  0  0  0  0  0  # atno 17321 bound_to 7965
  140.4201  143.2615  151.9725 LP  0  0  0  0  0  0  0  0  0  0  0  0  # atno 17342 bound_to 10162
  139.4797  144.5838  151.7888 LP  0  0  0  0  0  0  0  0  0  0  0  0  # atno 17343 bound_to 10162
  157.0352  130.5727  149.5348 LP  0  0  0  0  0  0  0  0  0  0  0  0  # atno 17370 bound_to 10713
  156.0142  130.5235  150.8083 LP  0  0  0  0  0  0  0  0  0  0  0  0  # atno 17371 bound_to 10713
  139.9873  135.0077  156.9892 LP  0  0  0  0  0  0  0  0  0  0  0  0  # atno 17394 bound_to 11000
  140.5002  134.1105  155.7249 LP  0  0  0  0  0  0  0  0  0  0  0  0  # atno 17395 bound_to 11000

$$$$
