AV-unprocessed.smi:1757|AV-procd|sdf|7078|dock7
  -GOLD-   22720 8303D 1   1.00000     0.00000
 Structure written by MMmdl.
 39 40  0  0  0  0  0  0  0  0  3 V2000
  144.0910  142.9718  154.9275 C   0  0  0  0  0  0  0  0  0  0  0  0
  145.2406  142.0654  154.7181 N   0  3  2  0  0  0  0  0  0  0  0  0
  145.7362  141.4790  155.9882 C   0  0  0  0  0  0  0  0  0  0  0  0
  146.8478  140.4452  155.7274 C   0  0  0  0  0  0  0  0  0  0  0  0
  148.0051  141.0371  154.9031 C   0  0  2  0  0  0  0  0  0  0  0  0
  148.7766  141.9807  155.7111 N   0  0  0  0  0  0  0  0  0  0  0  0
  149.6865  141.6476  156.6382 C   0  0  0  0  0  0  0  0  0  0  0  0
  149.9771  140.4822  156.9057 O   0  0  0  0  0  0  0  0  0  0  0  0
  150.2272  142.7478  157.1917 N   0  0  0  0  0  0  0  0  0  0  0  0
  151.2056  142.8566  158.1949 C   0  0  0  0  0  0  0  0  0  0  0  0
  151.9476  141.8210  158.6766 C   0  0  0  0  0  0  0  0  0  0  0  0
  152.9419  141.9969  159.7278 C   0  0  0  0  0  0  0  0  0  0  0  0
  153.8560  140.8880  160.2179 C   0  0  0  0  0  0  0  0  0  0  0  0
  153.4608  139.7019  159.7550 F   0  0  0  0  0  0  0  0  0  0  0  0
  155.1003  141.1052  159.7944 F   0  0  0  0  0  0  0  0  0  0  0  0
  153.8731  140.8353  161.5498 F   0  0  0  0  0  0  0  0  0  0  0  0
  153.0326  143.3091  160.1499 C   0  0  0  0  0  0  0  0  0  0  0  0
  152.3191  144.3834  159.7473 N   0  5  0  0  0  0  0  0  0  0  0  0
  151.3927  144.2078  158.7632 C   0  0  0  0  0  0  0  0  0  0  0  0
  150.7137  145.1454  158.3422 O   0  0  0  0  0  0  0  0  0  0  0  0
  147.4485  141.6969  153.6244 C   0  0  0  0  0  0  0  0  0  0  0  0
  146.3289  142.7049  153.9379 C   0  0  0  0  0  0  0  0  0  0  0  0
  144.3784  143.8362  155.5276 H   0  0  0  0  0  0  0  0  0  0  0  0
  143.2801  142.4529  155.4397 H   0  0  0  0  0  0  0  0  0  0  0  0
  143.7048  143.3307  153.9728 H   0  0  0  0  0  0  0  0  0  0  0  0
  146.1021  142.2741  156.6400 H   0  0  0  0  0  0  0  0  0  0  0  0
  144.9107  140.9966  156.5130 H   0  0  0  0  0  0  0  0  0  0  0  0
  147.2200  140.0476  156.6725 H   0  0  0  0  0  0  0  0  0  0  0  0
  146.4237  139.5964  155.1888 H   0  0  0  0  0  0  0  0  0  0  0  0
  148.6704  140.2200  154.6176 H   0  0  0  0  0  0  0  0  0  0  0  0
  148.5995  142.9632  155.5603 H   0  0  0  0  0  0  0  0  0  0  0  0
  149.9218  143.6350  156.8189 H   0  0  0  0  0  0  0  0  0  0  0  0
  151.8095  140.8194  158.3049 H   0  0  0  0  0  0  0  0  0  0  0  0
  153.7980  143.5294  160.9244 H   0  0  0  0  0  0  0  0  0  0  0  0
  148.2453  142.1862  153.0633 H   0  0  0  0  0  0  0  0  0  0  0  0
  147.0537  140.9211  152.9672 H   0  0  0  0  0  0  0  0  0  0  0  0
  145.9256  143.0992  153.0043 H   0  0  0  0  0  0  0  0  0  0  0  0
  146.7282  143.5556  154.4927 H   0  0  0  0  0  0  0  0  0  0  0  0
  144.8997  141.2960  154.1592 H   0  0  0  0  0  0  0  0  0  0  0  0
  1  2  1  0  0  0  0
  1 23  1  0  0  0  0
  1 24  1  0  0  0  0
  1 25  1  0  0  0  0
  2 22  1  0  0  0  0
  2  3  1  0  0  0  0
  2 39  1  0  0  0  0
  3  4  1  0  0  0  0
  3 26  1  0  0  0  0
  3 27  1  0  0  0  0
  4  5  1  0  0  0  0
  4 28  1  0  0  0  0
  4 29  1  0  0  0  0
  5  6  1  0  0  0  0
  5 21  1  0  0  0  0
  5 30  1  0  0  0  0
  6  7  1  0  0  0  0
  6 31  1  0  0  0  0
  7  8  2  0  0  0  0
  7  9  1  0  0  0  0
  9 10  1  0  0  0  0
  9 32  1  0  0  0  0
 10 19  1  0  0  0  0
 10 11  2  0  0  0  0
 11 12  1  0  0  0  0
 11 33  1  0  0  0  0
 12 13  1  0  0  0  0
 12 17  2  0  0  0  0
 13 14  1  0  0  0  0
 13 15  1  0  0  0  0
 13 16  1  0  0  0  0
 17 18  1  0  0  0  0
 17 34  1  0  0  0  0
 18 19  1  0  0  0  0
 19 20  2  0  0  0  0
 21 22  1  0  0  0  0
 21 35  1  0  0  0  0
 21 36  1  0  0  0  0
 22 37  1  0  0  0  0
 22 38  1  0  0  0  0
M  CHG  1   2   1
M  CHG  1  18  -1
M  END
> <s_m_source_file>
AV-unprocessed.smi

> <i_m_source_file_index>
1757

> <i_lp_mmshare_version>
43012

> <i_f3d_flags>
0

> <s_epik_input>
W0NIM11OMVtDSDJdW0NIMl1bQ0hdKFtDSDJdW0NIMl0xKVtOSF1DKD1PKVtOSF1jMltjSF1jKEMoRikoRilGKVtjSF1bbkhdYzI9Tw==

> <s_epik_cmdline>
J2VwaWtfcHl0aG9uJywgJy1waCcsICc3LjAnLCAnLXRuJywgJzgnLCAnLW1hJywgJzIwMCcsICctbWV0YWxfYmluZGluZycsICctaW1hZScsICc8aW5maWxlLm1hZT4nLCAnLW9tYWUnLCAnPG91dGZpbGUubWFlPic=

> <r_lp_tautomer_probability>
1

> <r_epik_Ionization_Penalty>
3.04759

> <r_epik_Ionization_Penalty_Charging>
0.155898

> <r_epik_Ionization_Penalty_Neutral>
2.89169

> <r_epik_State_Penalty>
2.88714

> <r_epik_Charging_Adjusted_Penalty>
3.04304

> <i_epik_Tot_Q>
0

> <i_epik_Tot_abs_Q>
2

> <r_epik_Metal_State_Penalty>
0.445786

> <b_epik_Metal_Only>
1

> <s_lp_Force_Field>
OPLS_2005

> <r_lp_Energy>
26.2534

> <b_lp_Chiralities_Consistent>
1

> <s_lp_Variant>
AV-unprocessed.smi:1757-4

> <Gold.Version>
5.8.1

> <Gold.Id.Protein>
6NUR|6NUR_protein|mol2

> <Gold.PLP.Fitness>
48.3706

> <Gold.PLP.PLP>
-40.1330

> <Gold.PLP.part.hbond>
-2.6654

> <Gold.PLP.part.metal>
0.0000

> <Gold.PLP.part.buried>
-6.7191

> <Gold.PLP.part.nonpolar>
-31.6701

> <Gold.PLP.part.repulsive>
0.5524

> <Gold.PLP.ligand.clash>
0.0000

> <Gold.PLP.ligand.torsion>
0.5649

> <Gold.PLP.Chemscore.Hbond>
3.1050

> <Gold.PLP.Chemscore.CHOScore>
0.0000

> <Gold.PLP.Chemscore.Metal>
0.0000

> <Gold.Chemscore.Hbonds>
donor molecule, donor type, donor heavy atom, donor atom, acceptor molecule, acceptor atom, score
      L1  H     2    39       P1 10175  1.11
      L1  H     6    31       P1  8028  1.00
      L1  H     9    32       P1  8028  1.00

> <Gold.PLP.Chemscore.Internal.Correction>
0.0524

> <Gold.Rescore>
     Score         DG    S(hbond)    S(metal)    S(lipo)     H(rot)  DE(clash)    DE(int)     intcor
     18.15     -19.75       2.42        0.00      74.86       1.00       0.08       1.52       ----

> <Gold.Chemscore.Fitness>
18.1473

> <Gold.Chemscore.DG>
-19.7487

> <Gold.Chemscore.ZeroCoef>
-5.4800

> <Gold.Chemscore.Hbond>
2.4161

> <Gold.Chemscore.Metal>
0.0000

> <Gold.Chemscore.Lipo>
74.8621

> <Gold.Chemscore.Internal_Hbond>
0.0000

> <Gold.Chemscore.DEClash>
0.0782

> <Gold.Chemscore.DEInternal>
1.5232

> <Gold.Chemscore.Rot>
1.0000

> <Gold.Chemscore.Internal.Correction>
   9.000000E+99

> <Gold.Chemscore.Hbonds>
donor molecule, donor type, donor heavy atom, donor atom, acceptor molecule, acceptor atom, score
      L1  H     2    39       P1 10175  0.31
      L1  H     6    31       P1  8028  0.99
      L1  H     9    32       P1  8028  0.97

> <Gold.Chemscore.Hbond.Weighted>
-8.0698

> <Gold.Chemscore.Metal.Weighted>
-0.0000

> <Gold.Chemscore.Lipo.Weighted>
-8.7589

> <Gold.Chemscore.Internal_Hbond.Weighted>
0.0000

> <Gold.Chemscore.DEClash.Weighted>
0.0782

> <Gold.Chemscore.DEInternal.Weighted>
1.5232

> <Gold.Chemscore.Rot.Weighted>
2.5600

> <Gold.Chemscore.Internal.Correction.Weighted>
   9.000000E+99

> <Gold.Protein.RotatedTorsions>
[ 6907 6896 6895 6894 ] final  -81.71 input  -60.11 | X-H torsion
[ 7974 7965 7964 7962 ] final   29.80 input  175.53 | X-H torsion
[ 8008 7997 7996 7995 ] final   65.48 input   59.86 | X-H torsion
[ 10167 10162 10161 10158 ] final  -75.38 input  -65.29 | X-H torsion
[ 10718 10713 10712 10709 ] final  140.24 input   66.30 | X-H torsion
[ 10763 10752 10751 10750 ] final -128.37 input  -60.55 | X-H torsion
[ 11005 11000 10999 10996 ] final -135.06 input  -57.11 | X-H torsion

> <Gold.Protein.ActiveResidues>
 VAL166  LYS551  ARG553  GLY616  TRP617  ASP618  TYR619  PRO620  LYS621  CYS622 
 ASP623  PHE694  ASN695  SER759  ASP760  ASP761  ALA762  ILE779  LEU786  VAL792 
 PHE793  MET794  SER795  GLU796  ALA797  LYS798  CYS799  TRP800  GLU811  SER814 

> <Gold.Protein.RotatedAtoms>
  150.6908  134.3776  159.5019 H   0  0  0  0  0  0  0  0  0  0  0  0  # atno 6907 bound_to 6896
  152.1583  134.8930  160.0552 H   0  0  0  0  0  0  0  0  0  0  0  0  # atno 6908 bound_to 6896
  152.0002  133.3788  159.4215 H   0  0  0  0  0  0  0  0  0  0  0  0  # atno 6909 bound_to 6896
  146.1650  139.6874  142.9007 H   0  0  0  0  0  0  0  0  0  0  0  0  # atno 7974 bound_to 7965
  155.6624  140.3497  155.4788 H   0  0  0  0  0  0  0  0  0  0  0  0  # atno 8008 bound_to 7997
  155.9757  140.1164  157.0795 H   0  0  0  0  0  0  0  0  0  0  0  0  # atno 8009 bound_to 7997
  154.4178  140.1148  156.5353 H   0  0  0  0  0  0  0  0  0  0  0  0  # atno 8010 bound_to 7997
  140.4947  143.2373  151.7850 H   0  0  0  0  0  0  0  0  0  0  0  0  # atno 10167 bound_to 10162
  157.4055  131.1022  151.0508 H   0  0  0  0  0  0  0  0  0  0  0  0  # atno 10718 bound_to 10713
  154.8756  135.3930  154.3746 H   0  0  0  0  0  0  0  0  0  0  0  0  # atno 10763 bound_to 10752
  153.4501  135.7028  153.6119 H   0  0  0  0  0  0  0  0  0  0  0  0  # atno 10764 bound_to 10752
  153.4662  135.3800  155.2335 H   0  0  0  0  0  0  0  0  0  0  0  0  # atno 10765 bound_to 10752
  140.8933  134.1784  157.4513 H   0  0  0  0  0  0  0  0  0  0  0  0  # atno 11005 bound_to 11000
  145.4490  141.0427  143.2815 LP  0  0  0  0  0  0  0  0  0  0  0  0  # atno 17320 bound_to 7965
  144.8080  139.6015  143.7042 LP  0  0  0  0  0  0  0  0  0  0  0  0  # atno 17321 bound_to 7965
  139.4859  144.4602  151.9550 LP  0  0  0  0  0  0  0  0  0  0  0  0  # atno 17342 bound_to 10162
  140.3690  144.2879  150.5922 LP  0  0  0  0  0  0  0  0  0  0  0  0  # atno 17343 bound_to 10162
  157.1491  130.6176  149.5577 LP  0  0  0  0  0  0  0  0  0  0  0  0  # atno 17370 bound_to 10713
  155.9835  130.4855  150.6937 LP  0  0  0  0  0  0  0  0  0  0  0  0  # atno 17371 bound_to 10713
  139.8732  134.9867  156.5338 LP  0  0  0  0  0  0  0  0  0  0  0  0  # atno 17394 bound_to 11000
  140.8320  133.8271  155.8993 LP  0  0  0  0  0  0  0  0  0  0  0  0  # atno 17395 bound_to 11000

$$$$
