AV-unprocessed.smi:652|AV-procd|sdf|3201|dock7
  -GOLD-   22720 0133D 1   1.00000     0.00000
 Structure written by MMmdl.
 49 50  0  0  0  0  0  0  0  0  3 V2000
  148.6820  132.3793  154.2405 C   0  0  0  0  0  0  0  0  0  0  0  0
  149.8195  133.2803  154.7393 C   0  0  0  0  0  0  0  0  0  0  0  0
  150.5809  132.6350  155.9083 C   0  0  0  0  0  0  0  0  0  0  0  0
  149.2741  134.5763  155.1341 N   0  0  0  0  0  0  0  0  0  0  0  0
  149.9922  135.6212  155.5747 C   0  0  0  0  0  0  0  0  0  0  0  0
  151.2168  135.5942  155.7009 O   0  0  0  0  0  0  0  0  0  0  0  0
  149.1949  136.8796  155.9339 C   0  0  0  0  0  0  0  0  0  0  0  0
  148.7021  137.6640  154.6994 C   0  0  0  0  0  0  0  0  0  0  0  0
  148.5372  139.1142  154.9713 N   0  3  2  0  0  0  0  0  0  0  0  0
  148.4029  139.9051  153.7252 C   0  0  0  0  0  0  0  0  0  0  0  0
  148.1917  141.3922  154.0503 C   0  0  0  0  0  0  0  0  0  0  0  0
  149.2704  141.8602  154.8502 O   0  0  0  0  0  0  0  0  0  0  0  0
  149.3547  141.1824  156.0987 C   0  0  2  0  0  0  0  0  0  0  0  0
  150.4867  141.8417  156.9032 C   0  0  0  0  0  0  0  0  0  0  0  0
  150.1760  143.2174  157.2643 N   0  0  0  0  0  0  0  0  0  0  0  0
  150.8409  143.8472  158.3247 C   0  0  0  0  0  0  0  0  0  0  0  0
  151.8393  143.2304  159.1143 C   0  0  0  0  0  0  0  0  0  0  0  0
  152.4269  143.9781  160.1488 C   0  0  0  0  0  0  0  0  0  0  0  0
  151.9817  145.2991  160.3321 C   0  0  0  0  0  0  0  0  0  0  0  0
  151.0254  145.8707  159.5665 N   0  0  0  0  0  0  0  0  0  0  0  0
  150.4823  145.1295  158.5847 N   0  3  0  0  0  0  0  0  0  0  0  0
  149.6058  139.6825  155.8312 C   0  0  0  0  0  0  0  0  0  0  0  0
  149.0647  131.4140  153.9078 H   0  0  0  0  0  0  0  0  0  0  0  0
  148.1603  132.8335  153.3976 H   0  0  0  0  0  0  0  0  0  0  0  0
  147.9486  132.1926  155.0257 H   0  0  0  0  0  0  0  0  0  0  0  0
  150.5143  133.4268  153.9102 H   0  0  0  0  0  0  0  0  0  0  0  0
  150.9894  131.6658  155.6207 H   0  0  0  0  0  0  0  0  0  0  0  0
  149.9300  132.4786  156.7690 H   0  0  0  0  0  0  0  0  0  0  0  0
  151.4160  133.2575  156.2309 H   0  0  0  0  0  0  0  0  0  0  0  0
  148.2725  134.6840  155.0642 H   0  0  0  0  0  0  0  0  0  0  0  0
  148.3390  136.5815  156.5414 H   0  0  0  0  0  0  0  0  0  0  0  0
  149.8273  137.5063  156.5626 H   0  0  0  0  0  0  0  0  0  0  0  0
  149.3773  137.5224  153.8537 H   0  0  0  0  0  0  0  0  0  0  0  0
  147.7345  137.2603  154.3951 H   0  0  0  0  0  0  0  0  0  0  0  0
  149.2982  139.7801  153.1140 H   0  0  0  0  0  0  0  0  0  0  0  0
  147.5604  139.5359  153.1391 H   0  0  0  0  0  0  0  0  0  0  0  0
  148.1553  141.9758  153.1303 H   0  0  0  0  0  0  0  0  0  0  0  0
  147.2426  141.5496  154.5652 H   0  0  0  0  0  0  0  0  0  0  0  0
  148.4127  141.3151  156.6349 H   0  0  0  0  0  0  0  0  0  0  0  0
  150.6921  141.2605  157.8031 H   0  0  0  0  0  0  0  0  0  0  0  0
  151.3993  141.8428  156.3058 H   0  0  0  0  0  0  0  0  0  0  0  0
  149.4919  143.7261  156.7233 H   0  0  0  0  0  0  0  0  0  0  0  0
  152.1569  142.2126  158.9432 H   0  0  0  0  0  0  0  0  0  0  0  0
  153.1934  143.5549  160.7810 H   0  0  0  0  0  0  0  0  0  0  0  0
  152.4025  145.9155  161.1130 H   0  0  0  0  0  0  0  0  0  0  0  0
  149.6448  139.1479  156.7796 H   0  0  0  0  0  0  0  0  0  0  0  0
  150.5737  139.5439  155.3463 H   0  0  0  0  0  0  0  0  0  0  0  0
  147.6645  139.2192  155.4691 H   0  0  0  0  0  0  0  0  0  0  0  0
  149.7608  145.5558  158.0031 H   0  0  0  0  0  0  0  0  0  0  0  0
  1  2  1  0  0  0  0
  1 23  1  0  0  0  0
  1 24  1  0  0  0  0
  1 25  1  0  0  0  0
  2  3  1  0  0  0  0
  2  4  1  0  0  0  0
  2 26  1  0  0  0  0
  3 27  1  0  0  0  0
  3 28  1  0  0  0  0
  3 29  1  0  0  0  0
  4  5  1  0  0  0  0
  4 30  1  0  0  0  0
  5  6  2  0  0  0  0
  5  7  1  0  0  0  0
  7  8  1  0  0  0  0
  7 31  1  0  0  0  0
  7 32  1  0  0  0  0
  8  9  1  0  0  0  0
  8 33  1  0  0  0  0
  8 34  1  0  0  0  0
  9 22  1  0  0  0  0
  9 10  1  0  0  0  0
  9 48  1  0  0  0  0
 10 11  1  0  0  0  0
 10 35  1  0  0  0  0
 10 36  1  0  0  0  0
 11 12  1  0  0  0  0
 11 37  1  0  0  0  0
 11 38  1  0  0  0  0
 12 13  1  0  0  0  0
 13 14  1  0  0  0  0
 13 22  1  0  0  0  0
 13 39  1  0  0  0  0
 14 15  1  0  0  0  0
 14 40  1  0  0  0  0
 14 41  1  0  0  0  0
 15 16  1  0  0  0  0
 15 42  1  0  0  0  0
 16 21  1  0  0  0  0
 16 17  2  0  0  0  0
 17 18  1  0  0  0  0
 17 43  1  0  0  0  0
 18 19  2  0  0  0  0
 18 44  1  0  0  0  0
 19 20  1  0  0  0  0
 19 45  1  0  0  0  0
 20 21  2  0  0  0  0
 21 49  1  0  0  0  0
 22 46  1  0  0  0  0
 22 47  1  0  0  0  0
M  CHG  1   9   1
M  CHG  1  21   1
M  END
> <s_m_source_file>
AV-unprocessed.smi

> <i_m_source_file_index>
652

> <i_lp_mmshare_version>
43012

> <i_f3d_flags>
0

> <s_epik_input>
W0NIM11bQ0hdKFtDSDNdKVtOSF1DKD1PKVtDSDJdW0NIMl1OMVtDSDJdW0NIMl1PW0NASF0oW0NIMl0xKVtDSDJdW05IXWMyW2NIXVtjSF1bY0hdbm4y

> <s_epik_cmdline>
J2VwaWtfcHl0aG9uJywgJy1waCcsICc3LjAnLCAnLXRuJywgJzgnLCAnLW1hJywgJzIwMCcsICctbWV0YWxfYmluZGluZycsICctaW1hZScsICc8aW5maWxlLm1hZT4nLCAnLW9tYWUnLCAnPG91dGZpbGUubWFlPic=

> <r_lp_tautomer_probability>
0.966961

> <r_epik_Ionization_Penalty>
2.79885

> <r_epik_Ionization_Penalty_Charging>
2.79884

> <r_epik_Ionization_Penalty_Neutral>
3.2567e-06

> <r_epik_State_Penalty>
2.43203

> <r_epik_Charging_Adjusted_Penalty>
5.23087

> <i_epik_Tot_Q>
2

> <i_epik_Tot_abs_Q>
2

> <r_epik_Metal_State_Penalty>
2.43963

> <b_epik_Metal_Only>
0

> <s_lp_Force_Field>
OPLS_2005

> <r_lp_Energy>
30.0621

> <b_lp_Chiralities_Consistent>
1

> <s_lp_Variant>
AV-unprocessed.smi:652-10

> <Gold.Version>
5.8.1

> <Gold.Id.Protein>
6NUR|6NUR_protein|mol2

> <Gold.PLP.Fitness>
48.9837

> <Gold.PLP.PLP>
-35.2277

> <Gold.PLP.part.hbond>
-5.3928

> <Gold.PLP.part.metal>
0.0000

> <Gold.PLP.part.buried>
-3.0578

> <Gold.PLP.part.nonpolar>
-29.3226

> <Gold.PLP.part.repulsive>
1.6487

> <Gold.PLP.ligand.clash>
0.0000

> <Gold.PLP.ligand.torsion>
0.6667

> <Gold.PLP.Chemscore.Hbond>
5.0000

> <Gold.PLP.Chemscore.CHOScore>
0.0000

> <Gold.PLP.Chemscore.Metal>
0.0000

> <Gold.Chemscore.Hbonds>
donor molecule, donor type, donor heavy atom, donor atom, acceptor molecule, acceptor atom, score
      L1  H    15    42       P1  8028  2.00
      L1  H    21    49       P1  8029  2.00
      P1  H 10752 10763       L1     6  1.00

> <Gold.PLP.Chemscore.Internal.Correction>
0.0893

> <Gold.Rescore>
     Score         DG    S(hbond)    S(metal)    S(lipo)     H(rot)  DE(clash)    DE(int)     intcor
     14.98     -17.48       2.41        0.00      84.81       2.33       0.83       1.67       ----

> <Gold.Chemscore.Fitness>
14.9814

> <Gold.Chemscore.DG>
-17.4820

> <Gold.Chemscore.ZeroCoef>
-5.4800

> <Gold.Chemscore.Hbond>
2.4103

> <Gold.Chemscore.Metal>
0.0000

> <Gold.Chemscore.Lipo>
84.8117

> <Gold.Chemscore.Internal_Hbond>
0.0000

> <Gold.Chemscore.DEClash>
0.8330

> <Gold.Chemscore.DEInternal>
1.6677

> <Gold.Chemscore.Rot>
2.3326

> <Gold.Chemscore.Internal.Correction>
   9.000000E+99

> <Gold.Chemscore.Hbonds>
donor molecule, donor type, donor heavy atom, donor atom, acceptor molecule, acceptor atom, score
      L1  H    15    42       P1  8028  0.94
      L1  H    21    49       P1  8029  0.24
      P1  H 10752 10763       L1     6  0.97

> <Gold.Chemscore.Hbond.Weighted>
-8.0504

> <Gold.Chemscore.Metal.Weighted>
-0.0000

> <Gold.Chemscore.Lipo.Weighted>
-9.9230

> <Gold.Chemscore.Internal_Hbond.Weighted>
0.0000

> <Gold.Chemscore.DEClash.Weighted>
0.8330

> <Gold.Chemscore.DEInternal.Weighted>
1.6677

> <Gold.Chemscore.Rot.Weighted>
5.9714

> <Gold.Chemscore.Internal.Correction.Weighted>
   9.000000E+99

> <Gold.Protein.RotatedTorsions>
[ 6907 6896 6895 6894 ] final -116.30 input  -60.11 | X-H torsion
[ 7974 7965 7964 7962 ] final   12.98 input  175.53 | X-H torsion
[ 8008 7997 7996 7995 ] final    6.56 input   59.86 | X-H torsion
[ 10167 10162 10161 10158 ] final   64.40 input  -65.29 | X-H torsion
[ 10718 10713 10712 10709 ] final  143.53 input   66.30 | X-H torsion
[ 10763 10752 10751 10750 ] final   70.69 input  -60.55 | X-H torsion
[ 11005 11000 10999 10996 ] final -160.84 input  -57.11 | X-H torsion

> <Gold.Protein.ActiveResidues>
 VAL166  LYS551  ARG553  GLY616  TRP617  ASP618  TYR619  PRO620  LYS621  CYS622 
 ASP623  PHE694  ASN695  SER759  ASP760  ASP761  ALA762  ILE779  LEU786  VAL792 
 PHE793  MET794  SER795  GLU796  ALA797  LYS798  CYS799  TRP800  GLU811  SER814 

> <Gold.Protein.RotatedAtoms>
  150.8045  133.8537  159.3212 H   0  0  0  0  0  0  0  0  0  0  0  0  # atno 6907 bound_to 6896
  151.6340  135.1018  160.0137 H   0  0  0  0  0  0  0  0  0  0  0  0  # atno 6908 bound_to 6896
  152.4134  133.6960  159.6453 H   0  0  0  0  0  0  0  0  0  0  0  0  # atno 6909 bound_to 6896
  146.2339  139.9257  142.8503 H   0  0  0  0  0  0  0  0  0  0  0  0  # atno 7974 bound_to 7965
  154.7425  140.2751  155.6361 H   0  0  0  0  0  0  0  0  0  0  0  0  # atno 8008 bound_to 7997
  156.2877  140.2694  156.2083 H   0  0  0  0  0  0  0  0  0  0  0  0  # atno 8009 bound_to 7997
  155.0240  140.0371  157.2438 H   0  0  0  0  0  0  0  0  0  0  0  0  # atno 8010 bound_to 7997
  140.1226  144.4717  150.6911 H   0  0  0  0  0  0  0  0  0  0  0  0  # atno 10167 bound_to 10162
  157.3679  131.0974  151.0855 H   0  0  0  0  0  0  0  0  0  0  0  0  # atno 10718 bound_to 10713
  153.0356  135.5164  154.7480 H   0  0  0  0  0  0  0  0  0  0  0  0  # atno 10763 bound_to 10752
  154.6459  135.2918  155.0049 H   0  0  0  0  0  0  0  0  0  0  0  0  # atno 10764 bound_to 10752
  154.0950  135.6644  153.4911 H   0  0  0  0  0  0  0  0  0  0  0  0  # atno 10765 bound_to 10752
  140.6270  134.4691  157.5227 H   0  0  0  0  0  0  0  0  0  0  0  0  # atno 11005 bound_to 11000
  145.2093  140.9889  143.4110 LP  0  0  0  0  0  0  0  0  0  0  0  0  # atno 17320 bound_to 7965
  144.9705  139.3885  143.6311 LP  0  0  0  0  0  0  0  0  0  0  0  0  # atno 17321 bound_to 7965
  140.6863  143.2352  151.5251 LP  0  0  0  0  0  0  0  0  0  0  0  0  # atno 17342 bound_to 10162
  139.5561  144.2273  152.1614 LP  0  0  0  0  0  0  0  0  0  0  0  0  # atno 17343 bound_to 10162
  157.1970  130.6377  149.5725 LP  0  0  0  0  0  0  0  0  0  0  0  0  # atno 17370 bound_to 10713
  155.9750  130.4703  150.6426 LP  0  0  0  0  0  0  0  0  0  0  0  0  # atno 17371 bound_to 10713
  139.9131  134.8303  156.1460 LP  0  0  0  0  0  0  0  0  0  0  0  0  # atno 17394 bound_to 11000
  141.0702  133.6800  156.2125 LP  0  0  0  0  0  0  0  0  0  0  0  0  # atno 17395 bound_to 11000

$$$$
