AV-unprocessed.smi:2335|AV-procd|sdf|9326|dock7
  -GOLD-   2272012543D 1   1.00000     0.00000
 Structure written by MMmdl.
 41 42  0  0  0  0  0  0  0  0  2 V2000
  144.8912  133.7327  162.0979 C   0  0  0  0  0  0  0  0  0  0  0  0
  145.9957  134.4917  162.8413 C   0  0  0  0  0  0  0  0  0  0  0  0
  146.8646  135.2836  161.9223 C   0  0  0  0  0  0  0  0  0  0  0  0
  147.0278  136.6043  162.0374 N   0  0  0  0  0  0  0  0  0  0  0  0
  147.9082  137.1067  161.0903 N   0  0  0  0  0  0  0  0  0  0  0  0
  148.4007  136.1618  160.2769 C   0  0  0  0  0  0  0  0  0  0  0  0
  149.2756  136.4375  159.2960 N   0  5  0  0  0  0  0  0  0  0  0  0
  149.0785  137.5098  158.4963 C   0  0  0  0  0  0  0  0  0  0  0  0
  148.1944  138.3603  158.6195 O   0  0  0  0  0  0  0  0  0  0  0  0
  149.9576  137.5965  157.4885 N   0  0  0  0  0  0  0  0  0  0  0  0
  149.9810  138.6259  156.4508 C   0  0  1  0  0  0  0  0  0  0  0  0
  149.8674  140.0145  157.0478 C   0  0  0  0  0  0  0  0  0  0  0  0
  150.4930  140.9089  155.9716 C   0  0  0  0  0  0  0  0  0  0  0  0
  149.4527  141.3874  154.9442 C   0  0  0  0  0  0  0  0  0  0  0  0
  151.2577  142.0973  156.5744 C   0  0  0  0  0  0  0  0  0  0  0  0
  151.4221  140.0759  155.2801 O   0  0  0  0  0  0  0  0  0  0  0  0
  151.3140  138.7074  155.6734 C   0  0  0  0  0  0  0  0  0  0  0  0
  152.5649  138.3971  156.5217 C   0  0  0  0  0  0  0  0  0  0  0  0
  151.3006  137.8544  154.3948 C   0  0  0  0  0  0  0  0  0  0  0  0
  147.8134  134.5406  160.6457 S   0  0  0  0  0  0  0  0  0  0  0  0
  144.2718  133.1673  162.7942 H   0  0  0  0  0  0  0  0  0  0  0  0
  145.3125  133.0300  161.3784 H   0  0  0  0  0  0  0  0  0  0  0  0
  144.2412  134.4190  161.5542 H   0  0  0  0  0  0  0  0  0  0  0  0
  145.5532  135.1688  163.5724 H   0  0  0  0  0  0  0  0  0  0  0  0
  146.6183  133.7921  163.4006 H   0  0  0  0  0  0  0  0  0  0  0  0
  150.6630  136.8769  157.4302 H   0  0  0  0  0  0  0  0  0  0  0  0
  149.1476  138.4864  155.7594 H   0  0  0  0  0  0  0  0  0  0  0  0
  148.8405  140.2885  157.2914 H   0  0  0  0  0  0  0  0  0  0  0  0
  150.4475  140.0707  157.9707 H   0  0  0  0  0  0  0  0  0  0  0  0
  148.6932  142.0131  155.4139 H   0  0  0  0  0  0  0  0  0  0  0  0
  148.9436  140.5483  154.4694 H   0  0  0  0  0  0  0  0  0  0  0  0
  149.9223  141.9736  154.1537 H   0  0  0  0  0  0  0  0  0  0  0  0
  150.5894  142.7526  157.1335 H   0  0  0  0  0  0  0  0  0  0  0  0
  151.7355  142.6935  155.7964 H   0  0  0  0  0  0  0  0  0  0  0  0
  152.0404  141.7597  157.2547 H   0  0  0  0  0  0  0  0  0  0  0  0
  152.5922  137.3509  156.8282 H   0  0  0  0  0  0  0  0  0  0  0  0
  152.6019  139.0095  157.4228 H   0  0  0  0  0  0  0  0  0  0  0  0
  153.4768  138.5931  155.9571 H   0  0  0  0  0  0  0  0  0  0  0  0
  151.2396  136.7914  154.6280 H   0  0  0  0  0  0  0  0  0  0  0  0
  152.2062  138.0110  153.8081 H   0  0  0  0  0  0  0  0  0  0  0  0
  150.4509  138.1060  153.7600 H   0  0  0  0  0  0  0  0  0  0  0  0
  1  2  1  0  0  0  0
  1 21  1  0  0  0  0
  1 22  1  0  0  0  0
  1 23  1  0  0  0  0
  2  3  1  0  0  0  0
  2 24  1  0  0  0  0
  2 25  1  0  0  0  0
  3 20  1  0  0  0  0
  3  4  2  0  0  0  0
  4  5  1  0  0  0  0
  5  6  2  0  0  0  0
  6  7  1  0  0  0  0
  6 20  1  0  0  0  0
  7  8  1  0  0  0  0
  8  9  2  0  0  0  0
  8 10  1  0  0  0  0
 10 11  1  0  0  0  0
 10 26  1  0  0  0  0
 11 17  1  0  0  0  0
 11 12  1  0  0  0  0
 11 27  1  0  0  0  0
 12 13  1  0  0  0  0
 12 28  1  0  0  0  0
 12 29  1  0  0  0  0
 13 14  1  0  0  0  0
 13 15  1  0  0  0  0
 13 16  1  0  0  0  0
 14 30  1  0  0  0  0
 14 31  1  0  0  0  0
 14 32  1  0  0  0  0
 15 33  1  0  0  0  0
 15 34  1  0  0  0  0
 15 35  1  0  0  0  0
 16 17  1  0  0  0  0
 17 18  1  0  0  0  0
 17 19  1  0  0  0  0
 18 36  1  0  0  0  0
 18 37  1  0  0  0  0
 18 38  1  0  0  0  0
 19 39  1  0  0  0  0
 19 40  1  0  0  0  0
 19 41  1  0  0  0  0
M  CHG  1   7  -1
M  END
> <s_m_source_file>
AV-unprocessed.smi

> <i_m_source_file_index>
2335

> <i_lp_mmshare_version>
43012

> <i_f3d_flags>
0

> <s_epik_input>
W0NIM11bQ0gyXWMxbm5jKHMxKVtOSF1DKD1PKVtOSF1bQ0BASF0oQyhPMikoW0NIM10pW0NIM10pW0NIMl1DMihbQ0gzXSlbQ0gzXQ==

> <s_epik_cmdline>
J2VwaWtfcHl0aG9uJywgJy1waCcsICc3LjAnLCAnLXRuJywgJzgnLCAnLW1hJywgJzIwMCcsICctbWV0YWxfYmluZGluZycsICctaW1hZScsICc8aW5maWxlLm1hZT4nLCAnLW9tYWUnLCAnPG91dGZpbGUubWFlPic=

> <r_lp_tautomer_probability>
1

> <r_epik_Ionization_Penalty>
4.33319

> <r_epik_Ionization_Penalty_Charging>
4.17028

> <r_epik_Ionization_Penalty_Neutral>
0.162913

> <r_epik_State_Penalty>
4.16976

> <r_epik_Charging_Adjusted_Penalty>
8.34004

> <i_epik_Tot_Q>
-1

> <i_epik_Tot_abs_Q>
1

> <r_epik_Metal_State_Penalty>
0.677358

> <b_epik_Metal_Only>
1

> <s_lp_Force_Field>
OPLS_2005

> <r_lp_Energy>
10.6877

> <b_lp_Chiralities_Consistent>
1

> <s_lp_Variant>
AV-unprocessed.smi:2335-4

> <Gold.Version>
5.8.1

> <Gold.Id.Protein>
6NUR|6NUR_protein|mol2

> <Gold.PLP.Fitness>
44.2520

> <Gold.PLP.PLP>
-33.5230

> <Gold.PLP.part.hbond>
-4.4423

> <Gold.PLP.part.metal>
0.0000

> <Gold.PLP.part.buried>
-5.0487

> <Gold.PLP.part.nonpolar>
-25.1688

> <Gold.PLP.part.repulsive>
0.0602

> <Gold.PLP.ligand.clash>
0.0000

> <Gold.PLP.ligand.torsion>
0.5365

> <Gold.PLP.Chemscore.Hbond>
3.9263

> <Gold.PLP.Chemscore.CHOScore>
0.0000

> <Gold.PLP.Chemscore.Metal>
0.0000

> <Gold.Chemscore.Hbonds>
donor molecule, donor type, donor heavy atom, donor atom, acceptor molecule, acceptor atom, score
      P1  H  6896  6909       L1     7  0.88
      P1  H  6931  6943       L1     5  1.00
      P1  H  6934  6947       L1     5  0.75
      P1  H  7989  7998       L1    16  1.00

> <Gold.PLP.Chemscore.Internal.Correction>
0.0229

> <Gold.Rescore>
     Score         DG    S(hbond)    S(metal)    S(lipo)     H(rot)  DE(clash)    DE(int)     intcor
     15.52     -18.67       2.11        0.00      78.57       1.19       0.08       3.07       ----

> <Gold.Chemscore.Fitness>
15.5243

> <Gold.Chemscore.DG>
-18.6682

> <Gold.Chemscore.ZeroCoef>
-5.4800

> <Gold.Chemscore.Hbond>
2.1117

> <Gold.Chemscore.Metal>
0.0000

> <Gold.Chemscore.Lipo>
78.5661

> <Gold.Chemscore.Internal_Hbond>
0.0000

> <Gold.Chemscore.DEClash>
0.0763

> <Gold.Chemscore.DEInternal>
3.0676

> <Gold.Chemscore.Rot>
1.1942

> <Gold.Chemscore.Internal.Correction>
   9.000000E+99

> <Gold.Chemscore.Hbonds>
donor molecule, donor type, donor heavy atom, donor atom, acceptor molecule, acceptor atom, score
      P1  H  6896  6909       L1     7  0.13
      P1  H  6931  6943       L1     5  0.65
      P1  H  6934  6947       L1     5  0.18
      P1  H  7989  7998       L1    16  0.53

> <Gold.Chemscore.Hbond.Weighted>
-7.0532

> <Gold.Chemscore.Metal.Weighted>
-0.0000

> <Gold.Chemscore.Lipo.Weighted>
-9.1922

> <Gold.Chemscore.Internal_Hbond.Weighted>
0.0000

> <Gold.Chemscore.DEClash.Weighted>
0.0763

> <Gold.Chemscore.DEInternal.Weighted>
3.0676

> <Gold.Chemscore.Rot.Weighted>
3.0573

> <Gold.Chemscore.Internal.Correction.Weighted>
   9.000000E+99

> <Gold.Protein.RotatedTorsions>
[ 6907 6896 6895 6894 ] final   77.08 input  -60.11 | X-H torsion
[ 7974 7965 7964 7962 ] final   46.35 input  175.53 | X-H torsion
[ 8008 7997 7996 7995 ] final  166.11 input   59.86 | X-H torsion
[ 10167 10162 10161 10158 ] final -164.28 input  -65.29 | X-H torsion
[ 10718 10713 10712 10709 ] final  165.36 input   66.30 | X-H torsion
[ 10763 10752 10751 10750 ] final  -50.78 input  -60.55 | X-H torsion
[ 11005 11000 10999 10996 ] final   26.55 input  -57.11 | X-H torsion

> <Gold.Protein.ActiveResidues>
 VAL166  LYS551  ARG553  GLY616  TRP617  ASP618  TYR619  PRO620  LYS621  CYS622 
 ASP623  PHE694  ASN695  SER759  ASP760  ASP761  ALA762  ILE779  LEU786  VAL792 
 PHE793  MET794  SER795  GLU796  ALA797  LYS798  CYS799  TRP800  GLU811  SER814 

> <Gold.Protein.RotatedAtoms>
  152.5102  134.3871  159.9371 H   0  0  0  0  0  0  0  0  0  0  0  0  # atno 6907 bound_to 6896
  151.3830  133.3808  159.2720 H   0  0  0  0  0  0  0  0  0  0  0  0  # atno 6908 bound_to 6896
  150.9490  134.8912  159.7719 H   0  0  0  0  0  0  0  0  0  0  0  0  # atno 6909 bound_to 6896
  146.0398  139.4866  142.9785 H   0  0  0  0  0  0  0  0  0  0  0  0  # atno 7974 bound_to 7965
  156.1746  140.1652  156.8386 H   0  0  0  0  0  0  0  0  0  0  0  0  # atno 8008 bound_to 7997
  154.5293  140.0760  156.8349 H   0  0  0  0  0  0  0  0  0  0  0  0  # atno 8009 bound_to 7997
  155.3441  140.3386  155.4241 H   0  0  0  0  0  0  0  0  0  0  0  0  # atno 8010 bound_to 7997
  139.6261  144.0529  152.1976 H   0  0  0  0  0  0  0  0  0  0  0  0  # atno 10167 bound_to 10162
  157.0813  131.0393  151.2574 H   0  0  0  0  0  0  0  0  0  0  0  0  # atno 10718 bound_to 10713
  154.1159  135.6542  153.4894 H   0  0  0  0  0  0  0  0  0  0  0  0  # atno 10763 bound_to 10752
  153.0241  135.5258  154.7145 H   0  0  0  0  0  0  0  0  0  0  0  0  # atno 10764 bound_to 10752
  154.6339  135.2979  155.0154 H   0  0  0  0  0  0  0  0  0  0  0  0  # atno 10765 bound_to 10752
  140.3358  134.2388  155.7696 H   0  0  0  0  0  0  0  0  0  0  0  0  # atno 11005 bound_to 11000
  145.6904  141.0166  143.1558 LP  0  0  0  0  0  0  0  0  0  0  0  0  # atno 17320 bound_to 7965
  144.7069  139.8525  143.7427 LP  0  0  0  0  0  0  0  0  0  0  0  0  # atno 17321 bound_to 7965
  140.0183  144.6172  150.7588 LP  0  0  0  0  0  0  0  0  0  0  0  0  # atno 17342 bound_to 10162
  140.7412  143.2815  151.3586 LP  0  0  0  0  0  0  0  0  0  0  0  0  # atno 17343 bound_to 10162
  157.4798  130.7758  149.7403 LP  0  0  0  0  0  0  0  0  0  0  0  0  # atno 17370 bound_to 10713
  155.9923  130.3932  150.2948 LP  0  0  0  0  0  0  0  0  0  0  0  0  # atno 17371 bound_to 10713
  141.2051  133.7867  157.0248 LP  0  0  0  0  0  0  0  0  0  0  0  0  # atno 17394 bound_to 11000
  140.0822  134.9641  157.1643 LP  0  0  0  0  0  0  0  0  0  0  0  0  # atno 17395 bound_to 11000

$$$$
