#       Name:                AV-unprocessed.smi:1784
#       Creating user name   scv26
#       Creation time:       Fri Mar 27 08:43:57 2020


#       File generated by GOLD software.
#

@<TRIPOS>MOLECULE
AV-unprocessed.smi:1784
    49    51     1
SMALL
NO_CHARGES


@<TRIPOS>ATOM
      1 ****         1.6626   1.8629   0.9661 O.2            1 S1                 0.0000
      2 ****         1.0324   0.8088   1.0524 C.2            1 S1                 0.0000
      3 ****         1.6080  -0.3832   1.2603 N.am           1 S1                 0.0000
      4 ****         3.0440  -0.6099   1.3731 C.3            1 S1                 0.0000
      5 ****         3.6986  -0.7263  -0.0126 C.3            1 S1                 0.0000
      6 ****         5.2110  -0.9309   0.0292 C.3            1 S1                 0.0000
      7 ****         5.5095  -1.6337  -1.2866 C.3            1 S1                 0.0000
      8 ****         4.1407  -2.1235  -1.7697 C.3            1 S1                 0.0000
      9 ****         3.2573  -1.8976  -0.6804 O.3            1 S1                 0.0000
     10 ****        -0.2995   0.6883   0.9272 N.am           1 S1                 0.0000
     11 ****        -1.2580   1.7103   0.6718 C.ar           1 S1                 0.0000
     12 ****        -1.0733   3.0483   1.0974 C.ar           1 S1                 0.0000
     13 ****        -2.0709   4.0005   0.8221 C.ar           1 S1                 0.0000
     14 ****        -3.2240   3.5798   0.1373 C.ar           1 S1                 0.0000
     15 ****        -3.4227   2.3066  -0.2593 N.ar           1 S1                 0.0000
     16 ****        -2.4653   1.3819  -0.0019 C.ar           1 S1                 0.0000
     17 ****        -2.7175   0.0510  -0.3963 N.3            1 S1                 0.0000
     18 ****        -3.1680  -0.8009   0.7019 C.3            1 S1                 0.0000
     19 ****        -4.2835  -1.6874   0.1414 C.3            1 S1                 0.0000
     20 ****        -4.8264  -0.8704  -1.0245 C.3            1 S1                 0.0000
     21 ****        -3.5680  -0.1920  -1.5598 C.3            1 S1                 0.0000
     22 ****         1.0142  -1.1980   1.3099 H              1 S1                 0.0000
     23 ****         3.5056   0.1981   1.9431 H              1 S1                 0.0000
     24 ****         3.2062  -1.5239   1.9449 H              1 S1                 0.0000
     25 ****         3.4639   0.1459  -0.6263 H              1 S1                 0.0000
     26 ****         5.7578   0.0052   0.1456 H              1 S1                 0.0000
     27 ****         5.4807  -1.5840   0.8601 H              1 S1                 0.0000
     28 ****         5.9495  -0.9502  -2.0135 H              1 S1                 0.0000
     29 ****         6.2057  -2.4596  -1.1377 H              1 S1                 0.0000
     30 ****         3.8058  -1.5404  -2.6289 H              1 S1                 0.0000
     31 ****         4.1487  -3.1758  -2.0548 H              1 S1                 0.0000
     32 ****        -0.6609  -0.2542   0.9168 H              1 S1                 0.0000
     33 ****        -0.1939   3.3570   1.6412 H              1 S1                 0.0000
     34 ****        -1.9562   5.0280   1.1334 H              1 S1                 0.0000
     35 ****        -4.0126   4.2816  -0.0904 H              1 S1                 0.0000
     36 ****        -2.3454  -1.4000   1.0927 H              1 S1                 0.0000
     37 ****        -3.5537  -0.1924   1.5216 H              1 S1                 0.0000
     38 ****        -3.8621  -2.6225  -0.2298 H              1 S1                 0.0000
     39 ****        -5.0445  -1.9308   0.8833 H              1 S1                 0.0000
     40 ****        -5.3345  -1.4772  -1.7744 H              1 S1                 0.0000
     41 ****        -5.5283  -0.1195  -0.6592 H              1 S1                 0.0000
     42 ****        -3.8008   0.7010  -2.1403 H              1 S1                 0.0000
     43 ****        -3.0339  -0.8708  -2.2254 H              1 S1                 0.0000
     44 ****         2.6589   1.8583   1.0520 LP             1 S1                 0.0000
     45 ****         1.1782   2.7237   0.8101 LP             1 S1                 0.0000
     46 ****         2.3249  -1.7681  -1.0177 LP             1 S1                 0.0000
     47 ****         3.2801  -2.6771  -0.0545 LP             1 S1                 0.0000
     48 ****        -4.2630   2.0484  -0.7359 LP             1 S1                 0.0000
     49 ****        -1.7983  -0.1997  -0.7001 LP             1 S1                 0.0000
@<TRIPOS>BOND
    1    1    2 2     
    2    2    3 am    
    3    2   10 am    
    4    3    4 1     
    5    3   22 1     
    6    4    5 1     
    7    4   23 1     
    8    4   24 1     
    9    5    9 1     
   10    5    6 1     
   11    5   25 1     
   12    6    7 1     
   13    6   26 1     
   14    6   27 1     
   15    7    8 1     
   16    7   28 1     
   17    7   29 1     
   18    8    9 1     
   19    8   30 1     
   20    8   31 1     
   21   10   11 1     
   22   10   32 1     
   23   11   16 ar    
   24   11   12 ar    
   25   12   13 ar    
   26   12   33 1     
   27   13   14 ar    
   28   13   34 1     
   29   14   15 ar    
   30   14   35 1     
   31   15   16 ar    
   32   16   17 1     
   33   17   21 1     
   34   17   18 1     
   35   18   19 1     
   36   18   36 1     
   37   18   37 1     
   38   19   20 1     
   39   19   38 1     
   40   19   39 1     
   41   20   21 1     
   42   20   40 1     
   43   20   41 1     
   44   21   42 1     
   45   21   43 1     
   46    1   44 1     
   47    1   45 1     
   48    9   46 1     
   49    9   47 1     
   50   15   48 1     
   51   17   49 1     
@<TRIPOS>SUBSTRUCTURE
      1 S1             1
@<TRIPOS>SET
LONE_PAIRS      STATIC     ATOMS    <user>   **** ""
6 44 45 46 47 48 49
DONOR_HYDROGENS      STATIC     ATOMS    <user>   **** ""
2 22 32
ATOM$BLUE        STATIC     ATOMS    COLORGROUP SYSTEM
6 44 45 46 47 48 49
ATOM$RED        STATIC     ATOMS    COLORGROUP SYSTEM
2 22 32
