AV-unprocessed.smi:72|AV-procd|sdf|679|dock3
  -GOLD-   2262016583D 1   1.00000     0.00000
 Structure written by MMmdl.
 29 30  0  0  0  0  0  0  0  0  1 V2000
  152.8408  140.3112  157.7304 N   0  0  0  0  0  0  0  0  0  0  0  0
  151.9283  140.4549  156.8377 C   0  0  0  0  0  0  0  0  0  0  0  0
  151.0494  141.5445  156.7432 N   0  0  0  0  0  0  0  0  0  0  0  0
  150.1833  141.5617  155.7771 C   0  0  0  0  0  0  0  0  0  0  0  0
  150.1032  140.4972  154.7886 N   0  0  0  0  0  0  0  0  0  0  0  0
  149.0803  140.5332  153.6759 C   0  0  2  0  0  0  0  0  0  0  0  0
  148.3458  141.7208  153.7657 O   0  0  0  0  0  0  0  0  0  0  0  0
  146.9561  141.4232  153.7155 C   0  0  2  0  0  0  0  0  0  0  0  0
  146.1291  142.5397  154.3784 C   0  0  0  0  0  0  0  0  0  0  0  0
  144.8329  142.1049  154.7350 O   0  0  0  0  0  0  0  0  0  0  0  0
  146.8377  140.0189  154.3113 C   0  0  1  0  0  0  0  0  0  0  0  0
  145.6508  139.3519  153.9250 O   0  0  0  0  0  0  0  0  0  0  0  0
  148.1077  139.3450  153.7987 C   0  0  1  0  0  0  0  0  0  0  0  0
  147.9273  138.7125  152.5448 O   0  0  0  0  0  0  0  0  0  0  0  0
  150.9597  139.3740  154.8907 C   0  0  0  0  0  0  0  0  0  0  0  0
  150.9013  138.4240  154.1105 O   0  0  0  0  0  0  0  0  0  0  0  0
  151.8450  139.4083  155.9101 N   0  0  0  0  0  0  0  0  0  0  0  0
  149.6435  140.5464  152.7411 H   0  0  0  0  0  0  0  0  0  0  0  0
  146.6944  141.3811  152.6565 H   0  0  0  0  0  0  0  0  0  0  0  0
  146.8822  140.0588  155.4000 H   0  0  0  0  0  0  0  0  0  0  0  0
  148.4811  138.6011  154.5041 H   0  0  0  0  0  0  0  0  0  0  0  0
  152.8381  141.1021  158.3588 H   0  0  0  0  0  0  0  0  0  0  0  0
  149.4621  142.3691  155.6478 H   0  0  0  0  0  0  0  0  0  0  0  0
  146.6417  142.9236  155.2607 H   0  0  0  0  0  0  0  0  0  0  0  0
  146.0200  143.3737  153.6849 H   0  0  0  0  0  0  0  0  0  0  0  0
  144.5330  141.4898  154.0831 H   0  0  0  0  0  0  0  0  0  0  0  0
  145.1096  139.9588  153.4438 H   0  0  0  0  0  0  0  0  0  0  0  0
  148.5418  137.9975  152.4785 H   0  0  0  0  0  0  0  0  0  0  0  0
  152.4768  138.6269  156.0091 H   0  0  0  0  0  0  0  0  0  0  0  0
  1  2  2  0  0  0  0
  1 22  1  0  0  0  0
  2 17  1  0  0  0  0
  2  3  1  0  0  0  0
  3  4  2  0  0  0  0
  4  5  1  0  0  0  0
  4 23  1  0  0  0  0
  5  6  1  0  0  0  0
  5 15  1  0  0  0  0
  6 18  1  0  0  0  0
  6 13  1  0  0  0  0
  6  7  1  0  0  0  0
  7  8  1  0  0  0  0
  8 19  1  0  0  0  0
  8  9  1  0  0  0  0
  8 11  1  0  0  0  0
  9 10  1  0  0  0  0
  9 24  1  0  0  0  0
  9 25  1  0  0  0  0
 10 26  1  0  0  0  0
 11 20  1  0  0  0  0
 11 12  1  0  0  0  0
 11 13  1  0  0  0  0
 12 27  1  0  0  0  0
 13 21  1  0  0  0  0
 13 14  1  0  0  0  0
 14 28  1  0  0  0  0
 15 16  2  0  0  0  0
 15 17  1  0  0  0  0
 17 29  1  0  0  0  0
M  END
> <s_m_source_file>
AV-unprocessed.smi

> <i_m_source_file_index>
72

> <i_lp_mmshare_version>
43012

> <i_f3d_flags>
0

> <s_epik_input>
W05IMl1jMW5bY0hdbihjKD1PKW4xKVtDQEBIXTJPW0NASF0oW0NIMl1bT0hdKVtDQEBIXShbT0hdKVtDQEhdMltPSF0=

> <s_epik_cmdline>
J2VwaWtfcHl0aG9uJywgJy1waCcsICc3LjAnLCAnLXRuJywgJzgnLCAnLW1hJywgJzIwMCcsICctbWV0YWxfYmluZGluZycsICctaW1hZScsICc8aW5maWxlLm1hZT4nLCAnLW9tYWUnLCAnPG91dGZpbGUubWFlPic=

> <r_lp_tautomer_probability>
7.17554e-07

> <r_epik_Ionization_Penalty>
0.0066451

> <r_epik_Ionization_Penalty_Charging>
0.00663793

> <r_epik_Ionization_Penalty_Neutral>
7.17052e-06

> <r_epik_State_Penalty>
0.419231

> <r_epik_Charging_Adjusted_Penalty>
0.425868

> <i_epik_Tot_Q>
0

> <i_epik_Tot_abs_Q>
0

> <r_epik_Metal_State_Penalty>
1.44144

> <b_epik_Metal_Only>
0

> <s_epik_Chemistry_Notes>
This compound contains an acetal/aminal-like group ( X-CH(R)-Y where X, Y are N, S, or O) that may be acid/base labile, releasing an aldehyde.

> <s_lp_Force_Field>
OPLS_2005

> <r_lp_Energy>
43.5106

> <b_lp_Chiralities_Consistent>
1

> <s_lp_Variant>
AV-unprocessed.smi:72-17

> <Gold.Version>
5.8.1

> <Gold.Id.Protein>
6NUR|6NUR_protein|mol2

> <Gold.PLP.Fitness>
41.7601

> <Gold.PLP.PLP>
-26.8589

> <Gold.PLP.part.hbond>
-6.0000

> <Gold.PLP.part.metal>
0.0000

> <Gold.PLP.part.buried>
1.6931

> <Gold.PLP.part.nonpolar>
-21.5874

> <Gold.PLP.part.repulsive>
0.5666

> <Gold.PLP.ligand.clash>
0.0000

> <Gold.PLP.ligand.torsion>
0.1813

> <Gold.PLP.Chemscore.Hbond>
4.0856

> <Gold.PLP.Chemscore.CHOScore>
1.0000

> <Gold.PLP.Chemscore.Metal>
0.0000

> <Gold.Chemscore.Hbonds>
donor molecule, donor type, donor heavy atom, donor atom, acceptor molecule, acceptor atom, score
      L1  H    10    26       P1 10175  0.94
      L1  H    12    27       P1 10175  1.00
      L1  H    14    28       P1  7948  0.99
      P1  H  7997  8010       L1     1  0.93
      P1  H  8011  8017       L1     7  0.08
      L1  C     4    23       P1  8028  1.00

> <Gold.PLP.Chemscore.Internal.Correction>
0.0071

> <Gold.Rescore>
     Score         DG    S(hbond)    S(metal)    S(lipo)     H(rot)  DE(clash)    DE(int)     intcor
      4.01      -7.12       2.82        0.00      22.35       4.06       1.88       1.24       ----

> <Gold.Chemscore.Fitness>
4.0060

> <Gold.Chemscore.DG>
-7.1223

> <Gold.Chemscore.ZeroCoef>
-5.4800

> <Gold.Chemscore.Hbond>
2.8207

> <Gold.Chemscore.Metal>
0.0000

> <Gold.Chemscore.Lipo>
22.3498

> <Gold.Chemscore.Internal_Hbond>
0.0000

> <Gold.Chemscore.DEClash>
1.8801

> <Gold.Chemscore.DEInternal>
1.2362

> <Gold.Chemscore.Rot>
4.0600

> <Gold.Chemscore.Internal.Correction>
   9.000000E+99

> <Gold.Chemscore.Hbonds>
donor molecule, donor type, donor heavy atom, donor atom, acceptor molecule, acceptor atom, score
      L1  H    10    26       P1 10175  0.27
      L1  H    12    27       P1 10175  0.99
      L1  H    14    28       P1  7948  0.94
      P1  H  7997  8010       L1     1  0.47

> <Gold.Chemscore.Hbond.Weighted>
-9.4210

> <Gold.Chemscore.Metal.Weighted>
-0.0000

> <Gold.Chemscore.Lipo.Weighted>
-2.6149

> <Gold.Chemscore.Internal_Hbond.Weighted>
0.0000

> <Gold.Chemscore.DEClash.Weighted>
1.8801

> <Gold.Chemscore.DEInternal.Weighted>
1.2362

> <Gold.Chemscore.Rot.Weighted>
10.3936

> <Gold.Chemscore.Internal.Correction.Weighted>
   9.000000E+99

> <Gold.Protein.RotatedTorsions>
[ 6907 6896 6895 6894 ] final  -39.33 input  -60.11 | X-H torsion
[ 7974 7965 7964 7962 ] final  -60.28 input  175.53 | X-H torsion
[ 8008 7997 7996 7995 ] final   48.45 input   59.86 | X-H torsion
[ 10167 10162 10161 10158 ] final  145.85 input  -65.29 | X-H torsion
[ 10718 10713 10712 10709 ] final   -6.92 input   66.30 | X-H torsion
[ 10763 10752 10751 10750 ] final  153.18 input  -60.55 | X-H torsion
[ 11005 11000 10999 10996 ] final -119.87 input  -57.11 | X-H torsion

> <Gold.Protein.ActiveResidues>
 VAL166  LYS551  ARG553  GLY616  TRP617  ASP618  TYR619  PRO620  LYS621  CYS622 
 ASP623  PHE694  ASN695  SER759  ASP760  ASP761  ALA762  ILE779  LEU786  VAL792 
 PHE793  MET794  SER795  GLU796  ALA797  LYS798  CYS799  TRP800  GLU811  SER814 

> <Gold.Protein.RotatedAtoms>
  150.9916  134.9249  159.7902 H   0  0  0  0  0  0  0  0  0  0  0  0  # atno 6907 bound_to 6896
  152.5252  134.3274  159.9180 H   0  0  0  0  0  0  0  0  0  0  0  0  # atno 6908 bound_to 6896
  151.3280  133.3971  159.2694 H   0  0  0  0  0  0  0  0  0  0  0  0  # atno 6909 bound_to 6896
  145.8174  140.8561  143.0150 H   0  0  0  0  0  0  0  0  0  0  0  0  # atno 7974 bound_to 7965
  155.3858  140.3431  155.4249 H   0  0  0  0  0  0  0  0  0  0  0  0  # atno 8008 bound_to 7997
  156.1585  140.1593  156.8685 H   0  0  0  0  0  0  0  0  0  0  0  0  # atno 8009 bound_to 7997
  154.5117  140.0788  156.7985 H   0  0  0  0  0  0  0  0  0  0  0  0  # atno 8010 bound_to 7997
  139.4918  144.5872  151.6754 H   0  0  0  0  0  0  0  0  0  0  0  0  # atno 10167 bound_to 10162
  156.7248  130.5162  149.5859 H   0  0  0  0  0  0  0  0  0  0  0  0  # atno 10718 bound_to 10713
  154.1321  135.2826  155.3182 H   0  0  0  0  0  0  0  0  0  0  0  0  # atno 10763 bound_to 10752
  154.6348  135.5423  153.7725 H   0  0  0  0  0  0  0  0  0  0  0  0  # atno 10764 bound_to 10752
  153.0278  135.6471  154.1471 H   0  0  0  0  0  0  0  0  0  0  0  0  # atno 10765 bound_to 10752
  141.0184  134.0160  157.3316 H   0  0  0  0  0  0  0  0  0  0  0  0  # atno 11005 bound_to 11000
  144.6751  140.0484  143.7479 LP  0  0  0  0  0  0  0  0  0  0  0  0  # atno 17320 bound_to 7965
  145.9711  139.2871  143.1098 LP  0  0  0  0  0  0  0  0  0  0  0  0  # atno 17321 bound_to 7965
  140.5491  144.0455  150.6119 LP  0  0  0  0  0  0  0  0  0  0  0  0  # atno 17342 bound_to 10162
  140.3503  143.2967  152.0494 LP  0  0  0  0  0  0  0  0  0  0  0  0  # atno 17343 bound_to 10162
  156.1570  130.6348  151.0669 LP  0  0  0  0  0  0  0  0  0  0  0  0  # atno 17370 bound_to 10713
  157.6883  131.0818  150.7180 LP  0  0  0  0  0  0  0  0  0  0  0  0  # atno 17371 bound_to 10713
  139.9131  135.0193  156.7773 LP  0  0  0  0  0  0  0  0  0  0  0  0  # atno 17394 bound_to 11000
  140.6614  133.9641  155.7807 LP  0  0  0  0  0  0  0  0  0  0  0  0  # atno 17395 bound_to 11000

$$$$
