AV-unprocessed.smi:1700|AV-procd|sdf|6819|dock9
  -GOLD-   22720 7593D 1   1.00000     0.00000
 Structure written by MMmdl.
 34 35  0  0  0  0  0  0  0  0  1 V2000
  151.5413  144.8721  158.7492 C   0  0  0  0  0  0  0  0  0  0  0  0
  152.1191  143.5511  159.2309 C   0  0  0  0  0  0  0  0  0  0  0  0
  152.8165  143.5090  160.4569 C   0  0  0  0  0  0  0  0  0  0  0  0
  153.3507  142.2873  160.9007 C   0  0  0  0  0  0  0  0  0  0  0  0
  153.1635  141.1518  160.0944 C   0  0  0  0  0  0  0  0  0  0  0  0
  152.4986  141.1829  158.9215 N   0  0  0  0  0  0  0  0  0  0  0  0
  151.9766  142.3543  158.4781 C   0  0  0  0  0  0  0  0  0  0  0  0
  151.2674  142.4625  157.2483 N   0  0  0  0  0  0  0  0  0  0  0  0
  150.2879  141.6720  156.7745 C   0  0  0  0  0  0  0  0  0  0  0  0
  149.8038  140.7042  157.3623 O   0  0  0  0  0  0  0  0  0  0  0  0
  149.8881  142.0714  155.5587 N   0  0  0  0  0  0  0  0  0  0  0  0
  148.8417  141.4296  154.7711 C   0  0  0  0  0  0  0  0  0  0  0  0
  149.2437  140.0073  154.3482 C   0  0  2  0  0  0  0  0  0  0  0  0
  148.9528  138.9469  155.4080 C   0  0  0  0  0  0  0  0  0  0  0  0
  149.9369  137.8639  155.0300 C   0  0  0  0  0  0  0  0  0  0  0  0
  151.1556  138.6820  154.6119 C   0  0  0  0  0  0  0  0  0  0  0  0
  150.6507  139.9257  154.1308 O   0  0  0  0  0  0  0  0  0  0  0  0
  151.7555  145.6787  159.4511 H   0  0  0  0  0  0  0  0  0  0  0  0
  150.4586  144.7991  158.6430 H   0  0  0  0  0  0  0  0  0  0  0  0
  151.9676  145.1463  157.7838 H   0  0  0  0  0  0  0  0  0  0  0  0
  152.9427  144.4011  161.0529 H   0  0  0  0  0  0  0  0  0  0  0  0
  153.8900  142.2222  161.8343 H   0  0  0  0  0  0  0  0  0  0  0  0
  153.5581  140.1933  160.3977 H   0  0  0  0  0  0  0  0  0  0  0  0
  151.5504  143.2268  156.6535 H   0  0  0  0  0  0  0  0  0  0  0  0
  150.3323  142.8807  155.1501 H   0  0  0  0  0  0  0  0  0  0  0  0
  147.9296  141.4001  155.3676 H   0  0  0  0  0  0  0  0  0  0  0  0
  148.6159  142.0355  153.8919 H   0  0  0  0  0  0  0  0  0  0  0  0
  148.7418  139.7247  153.4212 H   0  0  0  0  0  0  0  0  0  0  0  0
  149.1788  139.3250  156.4062 H   0  0  0  0  0  0  0  0  0  0  0  0
  147.9165  138.6077  155.3961 H   0  0  0  0  0  0  0  0  0  0  0  0
  150.1467  137.1690  155.8437 H   0  0  0  0  0  0  0  0  0  0  0  0
  149.5568  137.2937  154.1813 H   0  0  0  0  0  0  0  0  0  0  0  0
  151.7956  138.8792  155.4726 H   0  0  0  0  0  0  0  0  0  0  0  0
  151.7541  138.1753  153.8544 H   0  0  0  0  0  0  0  0  0  0  0  0
  1  2  1  0  0  0  0
  1 18  1  0  0  0  0
  1 19  1  0  0  0  0
  1 20  1  0  0  0  0
  2  7  1  0  0  0  0
  2  3  2  0  0  0  0
  3  4  1  0  0  0  0
  3 21  1  0  0  0  0
  4  5  2  0  0  0  0
  4 22  1  0  0  0  0
  5  6  1  0  0  0  0
  5 23  1  0  0  0  0
  6  7  2  0  0  0  0
  7  8  1  0  0  0  0
  8  9  1  0  0  0  0
  8 24  1  0  0  0  0
  9 10  2  0  0  0  0
  9 11  1  0  0  0  0
 11 12  1  0  0  0  0
 11 25  1  0  0  0  0
 12 13  1  0  0  0  0
 12 26  1  0  0  0  0
 12 27  1  0  0  0  0
 13 17  1  0  0  0  0
 13 14  1  0  0  0  0
 13 28  1  0  0  0  0
 14 15  1  0  0  0  0
 14 29  1  0  0  0  0
 14 30  1  0  0  0  0
 15 16  1  0  0  0  0
 15 31  1  0  0  0  0
 15 32  1  0  0  0  0
 16 17  1  0  0  0  0
 16 33  1  0  0  0  0
 16 34  1  0  0  0  0
M  END
> <s_m_source_file>
AV-unprocessed.smi

> <i_m_source_file_index>
1700

> <i_lp_mmshare_version>
43012

> <i_f3d_flags>
0

> <s_epik_input>
W0NIM11jMVtjSF1bY0hdW2NIXW5jMVtOSF1DKD1PKVtOSF1bQ0gyXVtDQEBIXTJbQ0gyXVtDSDJdW0NIMl1PMg==

> <s_epik_cmdline>
J2VwaWtfcHl0aG9uJywgJy1waCcsICc3LjAnLCAnLXRuJywgJzgnLCAnLW1hJywgJzIwMCcsICctbWV0YWxfYmluZGluZycsICctaW1hZScsICc8aW5maWxlLm1hZT4nLCAnLW9tYWUnLCAnPG91dGZpbGUubWFlPic=

> <r_lp_tautomer_probability>
1

> <r_epik_Ionization_Penalty>
5.57253e-05

> <r_epik_Ionization_Penalty_Charging>
0

> <r_epik_Ionization_Penalty_Neutral>
5.57253e-05

> <r_epik_State_Penalty>
-0

> <r_epik_Charging_Adjusted_Penalty>
0

> <i_epik_Tot_Q>
0

> <i_epik_Tot_abs_Q>
0

> <r_epik_Metal_State_Penalty>
-0

> <b_epik_Metal_Only>
0

> <s_lp_Force_Field>
OPLS_2005

> <r_lp_Energy>
19.3296

> <b_lp_Chiralities_Consistent>
1

> <s_lp_Variant>
AV-unprocessed.smi:1700-1

> <Gold.Version>
5.8.1

> <Gold.Id.Protein>
6NUR|6NUR_protein|mol2

> <Gold.PLP.Fitness>
38.0156

> <Gold.PLP.PLP>
-36.3898

> <Gold.PLP.part.hbond>
-1.9357

> <Gold.PLP.part.metal>
0.0000

> <Gold.PLP.part.buried>
-4.7834

> <Gold.PLP.part.nonpolar>
-29.7520

> <Gold.PLP.part.repulsive>
0.3884

> <Gold.PLP.ligand.clash>
0.0000

> <Gold.PLP.ligand.torsion>
0.7129

> <Gold.PLP.Chemscore.Hbond>
1.0166

> <Gold.PLP.Chemscore.CHOScore>
0.0000

> <Gold.PLP.Chemscore.Metal>
0.0000

> <Gold.Chemscore.Hbonds>
donor molecule, donor type, donor heavy atom, donor atom, acceptor molecule, acceptor atom, score
      L1  H    11    25       P1  8028  0.01
      P1  H  7989  7998       L1    17  0.91

> <Gold.PLP.Chemscore.Internal.Correction>
0.0016

> <Gold.Rescore>
     Score         DG    S(hbond)    S(metal)    S(lipo)     H(rot)  DE(clash)    DE(int)     intcor
     13.92     -15.98       0.98        0.00      88.81       1.23       0.02       2.04       ----

> <Gold.Chemscore.Fitness>
13.9156

> <Gold.Chemscore.DG>
-15.9778

> <Gold.Chemscore.ZeroCoef>
-5.4800

> <Gold.Chemscore.Hbond>
0.9778

> <Gold.Chemscore.Metal>
0.0000

> <Gold.Chemscore.Lipo>
88.8051

> <Gold.Chemscore.Internal_Hbond>
0.0000

> <Gold.Chemscore.DEClash>
0.0208

> <Gold.Chemscore.DEInternal>
2.0414

> <Gold.Chemscore.Rot>
1.2337

> <Gold.Chemscore.Internal.Correction>
   9.000000E+99

> <Gold.Chemscore.Hbonds>
donor molecule, donor type, donor heavy atom, donor atom, acceptor molecule, acceptor atom, score
      L1  H    11    25       P1  8028  0.02
      P1  H  7989  7998       L1    17  0.85

> <Gold.Chemscore.Hbond.Weighted>
-3.2659

> <Gold.Chemscore.Metal.Weighted>
-0.0000

> <Gold.Chemscore.Lipo.Weighted>
-10.3902

> <Gold.Chemscore.Internal_Hbond.Weighted>
0.0000

> <Gold.Chemscore.DEClash.Weighted>
0.0208

> <Gold.Chemscore.DEInternal.Weighted>
2.0414

> <Gold.Chemscore.Rot.Weighted>
3.1582

> <Gold.Chemscore.Internal.Correction.Weighted>
   9.000000E+99

> <Gold.Protein.RotatedTorsions>
[ 6907 6896 6895 6894 ] final  103.87 input  -60.11 | X-H torsion
[ 7974 7965 7964 7962 ] final  -39.34 input  175.53 | X-H torsion
[ 8008 7997 7996 7995 ] final  -56.43 input   59.86 | X-H torsion
[ 10167 10162 10161 10158 ] final   -5.67 input  -65.29 | X-H torsion
[ 10718 10713 10712 10709 ] final  -27.46 input   66.30 | X-H torsion
[ 10763 10752 10751 10750 ] final -148.66 input  -60.55 | X-H torsion
[ 11005 11000 10999 10996 ] final  -97.36 input  -57.11 | X-H torsion

> <Gold.Protein.ActiveResidues>
 VAL166  LYS551  ARG553  GLY616  TRP617  ASP618  TYR619  PRO620  LYS621  CYS622 
 ASP623  PHE694  ASN695  SER759  ASP760  ASP761  ALA762  ILE779  LEU786  VAL792 
 PHE793  MET794  SER795  GLU796  ALA797  LYS798  CYS799  TRP800  GLU811  SER814 

> <Gold.Protein.RotatedAtoms>
  152.5282  133.9761  159.7784 H   0  0  0  0  0  0  0  0  0  0  0  0  # atno 6907 bound_to 6896
  151.0024  133.6035  159.2700 H   0  0  0  0  0  0  0  0  0  0  0  0  # atno 6908 bound_to 6896
  151.3140  135.0808  159.9335 H   0  0  0  0  0  0  0  0  0  0  0  0  # atno 6909 bound_to 6896
  146.0405  140.6615  142.9089 H   0  0  0  0  0  0  0  0  0  0  0  0  # atno 7974 bound_to 7965
  154.4230  140.1130  156.5637 H   0  0  0  0  0  0  0  0  0  0  0  0  # atno 8008 bound_to 7997
  155.6285  140.3495  155.4656 H   0  0  0  0  0  0  0  0  0  0  0  0  # atno 8009 bound_to 7997
  155.9967  140.1190  157.0576 H   0  0  0  0  0  0  0  0  0  0  0  0  # atno 8010 bound_to 7997
  140.6971  143.6281  150.8548 H   0  0  0  0  0  0  0  0  0  0  0  0  # atno 10167 bound_to 10162
  156.4379  130.4458  149.7072 H   0  0  0  0  0  0  0  0  0  0  0  0  # atno 10718 bound_to 10713
  154.8220  135.3329  154.7008 H   0  0  0  0  0  0  0  0  0  0  0  0  # atno 10763 bound_to 10752
  153.7640  135.6930  153.4924 H   0  0  0  0  0  0  0  0  0  0  0  0  # atno 10764 bound_to 10752
  153.2090  135.4489  155.0307 H   0  0  0  0  0  0  0  0  0  0  0  0  # atno 10765 bound_to 10752
  141.1381  133.8165  157.0696 H   0  0  0  0  0  0  0  0  0  0  0  0  # atno 11005 bound_to 11000
  144.7072  140.3899  143.7109 LP  0  0  0  0  0  0  0  0  0  0  0  0  # atno 17320 bound_to 7965
  145.6892  139.1635  143.2656 LP  0  0  0  0  0  0  0  0  0  0  0  0  # atno 17321 bound_to 7965
  140.0000  143.5754  152.2879 LP  0  0  0  0  0  0  0  0  0  0  0  0  # atno 17342 bound_to 10162
  139.6440  144.7657  151.2281 LP  0  0  0  0  0  0  0  0  0  0  0  0  # atno 17343 bound_to 10162
  156.3949  130.7646  151.2649 LP  0  0  0  0  0  0  0  0  0  0  0  0  # atno 17370 bound_to 10713
  157.7507  131.0257  150.3930 LP  0  0  0  0  0  0  0  0  0  0  0  0  # atno 17371 bound_to 10713
  140.0520  134.9801  157.1152 LP  0  0  0  0  0  0  0  0  0  0  0  0  # atno 17394 bound_to 11000
  140.3976  134.2117  155.7164 LP  0  0  0  0  0  0  0  0  0  0  0  0  # atno 17395 bound_to 11000

$$$$
