AV-unprocessed.smi:2286|AV-procd|sdf|9204|dock10
  -GOLD-   2272012423D 1   1.00000     0.00000
 Structure written by MMmdl.
 46 47  0  0  0  0  0  0  0  0  1 V2000
  144.4476  135.2835  150.2583 C   0  0  0  0  0  0  0  0  0  0  0  0
  144.7288  135.8807  151.6213 C   0  0  0  0  0  0  0  0  0  0  0  0
  143.9899  135.4828  152.7518 C   0  0  0  0  0  0  0  0  0  0  0  0
  144.3008  136.0755  153.9914 C   0  0  0  0  0  0  0  0  0  0  0  0
  143.5485  135.6906  155.2477 C   0  0  0  0  0  0  0  0  0  0  0  0
  145.2728  137.0004  154.1431 N   0  0  0  0  0  0  0  0  0  0  0  0
  145.9907  137.3915  153.0611 C   0  0  0  0  0  0  0  0  0  0  0  0
  147.0347  138.3528  153.1133 N   0  0  0  0  0  0  0  0  0  0  0  0
  147.0859  139.4865  153.8348 C   0  0  0  0  0  0  0  0  0  0  0  0
  146.1915  139.9059  154.5704 O   0  0  0  0  0  0  0  0  0  0  0  0
  148.2540  140.1214  153.6566 N   0  0  0  0  0  0  0  0  0  0  0  0
  148.6310  141.3828  154.2897 C   0  0  0  0  0  0  0  0  0  0  0  0
  149.9009  141.2739  155.1423 C   0  0  0  0  0  0  0  0  0  0  0  0
  150.6630  140.3129  155.0246 O   0  0  0  0  0  0  0  0  0  0  0  0
  150.0994  142.2671  156.0225 N   0  0  0  0  0  0  0  0  0  0  0  0
  151.2214  142.3643  156.9514 C   0  0  0  0  0  0  0  0  0  0  0  0
  150.9977  141.4469  158.1724 C   0  0  0  0  0  0  0  0  0  0  0  0
  152.1243  141.5986  159.2073 C   0  0  0  0  0  0  0  0  0  0  0  0
  152.2912  143.0632  159.6415 C   0  0  0  0  0  0  0  0  0  0  0  0
  152.5253  143.9765  158.4284 C   0  0  0  0  0  0  0  0  0  0  0  0
  151.3972  143.8297  157.3942 C   0  0  0  0  0  0  0  0  0  0  0  0
  145.7404  136.8492  151.7803 C   0  0  0  0  0  0  0  0  0  0  0  0
  143.7161  134.4771  150.3217 H   0  0  0  0  0  0  0  0  0  0  0  0
  145.3630  134.8785  149.8261 H   0  0  0  0  0  0  0  0  0  0  0  0
  144.0574  136.0472  149.5852 H   0  0  0  0  0  0  0  0  0  0  0  0
  143.2066  134.7430  152.6721 H   0  0  0  0  0  0  0  0  0  0  0  0
  142.6344  135.1465  155.0081 H   0  0  0  0  0  0  0  0  0  0  0  0
  143.2741  136.5786  155.8183 H   0  0  0  0  0  0  0  0  0  0  0  0
  144.1706  135.0549  155.8781 H   0  0  0  0  0  0  0  0  0  0  0  0
  147.8448  138.1437  152.5492 H   0  0  0  0  0  0  0  0  0  0  0  0
  148.9283  139.7115  153.0273 H   0  0  0  0  0  0  0  0  0  0  0  0
  148.7556  142.1616  153.5351 H   0  0  0  0  0  0  0  0  0  0  0  0
  147.8096  141.6999  154.9323 H   0  0  0  0  0  0  0  0  0  0  0  0
  149.4201  143.0137  156.0517 H   0  0  0  0  0  0  0  0  0  0  0  0
  152.1339  142.0538  156.4384 H   0  0  0  0  0  0  0  0  0  0  0  0
  150.0424  141.6848  158.6424 H   0  0  0  0  0  0  0  0  0  0  0  0
  150.9340  140.4051  157.8561 H   0  0  0  0  0  0  0  0  0  0  0  0
  151.9156  140.9750  160.0770 H   0  0  0  0  0  0  0  0  0  0  0  0
  153.0606  141.2342  158.7831 H   0  0  0  0  0  0  0  0  0  0  0  0
  151.3999  143.3894  160.1789 H   0  0  0  0  0  0  0  0  0  0  0  0
  153.1236  143.1515  160.3401 H   0  0  0  0  0  0  0  0  0  0  0  0
  152.5980  145.0145  158.7536 H   0  0  0  0  0  0  0  0  0  0  0  0
  153.4812  143.7300  157.9645 H   0  0  0  0  0  0  0  0  0  0  0  0
  151.6096  144.4586  156.5287 H   0  0  0  0  0  0  0  0  0  0  0  0
  150.4655  144.2008  157.8243 H   0  0  0  0  0  0  0  0  0  0  0  0
  146.3198  137.1691  150.9261 H   0  0  0  0  0  0  0  0  0  0  0  0
  1  2  1  0  0  0  0
  1 23  1  0  0  0  0
  1 24  1  0  0  0  0
  1 25  1  0  0  0  0
  2 22  1  0  0  0  0
  2  3  2  0  0  0  0
  3  4  1  0  0  0  0
  3 26  1  0  0  0  0
  4  5  1  0  0  0  0
  4  6  2  0  0  0  0
  5 27  1  0  0  0  0
  5 28  1  0  0  0  0
  5 29  1  0  0  0  0
  6  7  1  0  0  0  0
  7  8  1  0  0  0  0
  7 22  2  0  0  0  0
  8  9  1  0  0  0  0
  8 30  1  0  0  0  0
  9 10  2  0  0  0  0
  9 11  1  0  0  0  0
 11 12  1  0  0  0  0
 11 31  1  0  0  0  0
 12 13  1  0  0  0  0
 12 32  1  0  0  0  0
 12 33  1  0  0  0  0
 13 14  2  0  0  0  0
 13 15  1  0  0  0  0
 15 16  1  0  0  0  0
 15 34  1  0  0  0  0
 16 21  1  0  0  0  0
 16 17  1  0  0  0  0
 16 35  1  0  0  0  0
 17 18  1  0  0  0  0
 17 36  1  0  0  0  0
 17 37  1  0  0  0  0
 18 19  1  0  0  0  0
 18 38  1  0  0  0  0
 18 39  1  0  0  0  0
 19 20  1  0  0  0  0
 19 40  1  0  0  0  0
 19 41  1  0  0  0  0
 20 21  1  0  0  0  0
 20 42  1  0  0  0  0
 20 43  1  0  0  0  0
 21 44  1  0  0  0  0
 21 45  1  0  0  0  0
 22 46  1  0  0  0  0
M  END
> <s_m_source_file>
AV-unprocessed.smi

> <i_m_source_file_index>
2286

> <i_lp_mmshare_version>
43012

> <i_f3d_flags>
0

> <s_epik_input>
W0NIM11jMVtjSF1jKFtDSDNdKW5jKFtjSF0xKVtOSF1DKD1PKVtOSF1bQ0gyXUMoPU8pW05IXVtDSF0yW0NIMl1bQ0gyXVtDSDJdW0NIMl1bQ0gyXTI=

> <s_epik_cmdline>
J2VwaWtfcHl0aG9uJywgJy1waCcsICc3LjAnLCAnLXRuJywgJzgnLCAnLW1hJywgJzIwMCcsICctbWV0YWxfYmluZGluZycsICctaW1hZScsICc8aW5maWxlLm1hZT4nLCAnLW9tYWUnLCAnPG91dGZpbGUubWFlPic=

> <r_lp_tautomer_probability>
1

> <r_epik_Ionization_Penalty>
0.000219548

> <r_epik_Ionization_Penalty_Charging>
0

> <r_epik_Ionization_Penalty_Neutral>
0.000219548

> <r_epik_State_Penalty>
-0

> <r_epik_Charging_Adjusted_Penalty>
0

> <i_epik_Tot_Q>
0

> <i_epik_Tot_abs_Q>
0

> <r_epik_Metal_State_Penalty>
-0

> <b_epik_Metal_Only>
0

> <s_lp_Force_Field>
OPLS_2005

> <r_lp_Energy>
6.54337

> <b_lp_Chiralities_Consistent>
1

> <s_lp_Variant>
AV-unprocessed.smi:2286-1

> <Gold.Version>
5.8.1

> <Gold.Id.Protein>
6NUR|6NUR_protein|mol2

> <Gold.PLP.Fitness>
46.5266

> <Gold.PLP.PLP>
-38.9998

> <Gold.PLP.part.hbond>
-3.8121

> <Gold.PLP.part.metal>
0.0000

> <Gold.PLP.part.buried>
-3.2108

> <Gold.PLP.part.nonpolar>
-32.7043

> <Gold.PLP.part.repulsive>
0.4858

> <Gold.PLP.ligand.clash>
0.0000

> <Gold.PLP.ligand.torsion>
0.7958

> <Gold.PLP.Chemscore.Hbond>
3.0371

> <Gold.PLP.Chemscore.CHOScore>
0.0000

> <Gold.PLP.Chemscore.Metal>
0.0000

> <Gold.Chemscore.Hbonds>
donor molecule, donor type, donor heavy atom, donor atom, acceptor molecule, acceptor atom, score
      L1  H     8    30       P1  7948  0.26
      L1  H    11    31       P1  7957  0.75
      L1  H    15    34       P1  8028  1.00
      P1  H  7989  7998       L1    14  0.95

> <Gold.PLP.Chemscore.Internal.Correction>
0.0072

> <Gold.Rescore>
     Score         DG    S(hbond)    S(metal)    S(lipo)     H(rot)  DE(clash)    DE(int)     intcor
     19.26     -21.01       2.52        0.00      93.15       1.48       0.16       1.58       ----

> <Gold.Chemscore.Fitness>
19.2582

> <Gold.Chemscore.DG>
-21.0080

> <Gold.Chemscore.ZeroCoef>
-5.4800

> <Gold.Chemscore.Hbond>
2.5243

> <Gold.Chemscore.Metal>
0.0000

> <Gold.Chemscore.Lipo>
93.1453

> <Gold.Chemscore.Internal_Hbond>
0.0000

> <Gold.Chemscore.DEClash>
0.1649

> <Gold.Chemscore.DEInternal>
1.5849

> <Gold.Chemscore.Rot>
1.4849

> <Gold.Chemscore.Internal.Correction>
   9.000000E+99

> <Gold.Chemscore.Hbonds>
donor molecule, donor type, donor heavy atom, donor atom, acceptor molecule, acceptor atom, score
      L1  H     8    30       P1  7948  0.26
      L1  H    11    31       P1  7957  0.72
      L1  H    15    34       P1  8028  0.96
      P1  H  7989  7998       L1    14  0.21

> <Gold.Chemscore.Hbond.Weighted>
-8.4312

> <Gold.Chemscore.Metal.Weighted>
-0.0000

> <Gold.Chemscore.Lipo.Weighted>
-10.8980

> <Gold.Chemscore.Internal_Hbond.Weighted>
0.0000

> <Gold.Chemscore.DEClash.Weighted>
0.1649

> <Gold.Chemscore.DEInternal.Weighted>
1.5849

> <Gold.Chemscore.Rot.Weighted>
3.8012

> <Gold.Chemscore.Internal.Correction.Weighted>
   9.000000E+99

> <Gold.Protein.RotatedTorsions>
[ 6907 6896 6895 6894 ] final -140.86 input  -60.11 | X-H torsion
[ 7974 7965 7964 7962 ] final   91.59 input  175.53 | X-H torsion
[ 8008 7997 7996 7995 ] final   78.16 input   59.86 | X-H torsion
[ 10167 10162 10161 10158 ] final   28.02 input  -65.29 | X-H torsion
[ 10718 10713 10712 10709 ] final   24.12 input   66.30 | X-H torsion
[ 10763 10752 10751 10750 ] final  154.71 input  -60.55 | X-H torsion
[ 11005 11000 10999 10996 ] final -101.52 input  -57.11 | X-H torsion

> <Gold.Protein.ActiveResidues>
 VAL166  LYS551  ARG553  GLY616  TRP617  ASP618  TYR619  PRO620  LYS621  CYS622 
 ASP623  PHE694  ASN695  SER759  ASP760  ASP761  ALA762  ILE779  LEU786  VAL792 
 PHE793  MET794  SER795  GLU796  ALA797  LYS798  CYS799  TRP800  GLU811  SER814 

> <Gold.Protein.RotatedAtoms>
  151.0662  133.5503  159.2630 H   0  0  0  0  0  0  0  0  0  0  0  0  # atno 6907 bound_to 6896
  151.2460  135.0605  159.9053 H   0  0  0  0  0  0  0  0  0  0  0  0  # atno 6908 bound_to 6896
  152.5405  134.0430  159.8130 H   0  0  0  0  0  0  0  0  0  0  0  0  # atno 6909 bound_to 6896
  145.5036  139.2276  143.2763 H   0  0  0  0  0  0  0  0  0  0  0  0  # atno 7974 bound_to 7965
  155.8518  140.3458  155.5698 H   0  0  0  0  0  0  0  0  0  0  0  0  # atno 8008 bound_to 7997
  155.8030  140.0888  157.1966 H   0  0  0  0  0  0  0  0  0  0  0  0  # atno 8009 bound_to 7997
  154.4008  140.1462  156.3284 H   0  0  0  0  0  0  0  0  0  0  0  0  # atno 8010 bound_to 7997
  140.4889  144.0499  150.6290 H   0  0  0  0  0  0  0  0  0  0  0  0  # atno 10167 bound_to 10162
  157.1754  130.6779  149.6093 H   0  0  0  0  0  0  0  0  0  0  0  0  # atno 10718 bound_to 10713
  154.1567  135.2812  155.3120 H   0  0  0  0  0  0  0  0  0  0  0  0  # atno 10763 bound_to 10752
  154.6177  135.5478  153.7544 H   0  0  0  0  0  0  0  0  0  0  0  0  # atno 10764 bound_to 10752
  153.0204  135.6431  154.1710 H   0  0  0  0  0  0  0  0  0  0  0  0  # atno 10765 bound_to 10752
  141.1227  133.8485  157.1243 H   0  0  0  0  0  0  0  0  0  0  0  0  # atno 11005 bound_to 11000
  146.2210  140.5839  142.9017 LP  0  0  0  0  0  0  0  0  0  0  0  0  # atno 17320 bound_to 7965
  144.7766  140.5752  143.6634 LP  0  0  0  0  0  0  0  0  0  0  0  0  # atno 17321 bound_to 7965
  140.3762  143.2827  152.0222 LP  0  0  0  0  0  0  0  0  0  0  0  0  # atno 17342 bound_to 10162
  139.4847  144.6191  151.7290 LP  0  0  0  0  0  0  0  0  0  0  0  0  # atno 17343 bound_to 10162
  155.9732  130.4664  150.6290 LP  0  0  0  0  0  0  0  0  0  0  0  0  # atno 17370 bound_to 10713
  157.4003  131.0809  151.1314 LP  0  0  0  0  0  0  0  0  0  0  0  0  # atno 17371 bound_to 10713
  140.0198  134.9951  157.0568 LP  0  0  0  0  0  0  0  0  0  0  0  0  # atno 17394 bound_to 11000
  140.4459  134.1633  155.7177 LP  0  0  0  0  0  0  0  0  0  0  0  0  # atno 17395 bound_to 11000

$$$$
