AV-unprocessed.smi:2002|AV-procd|sdf|8114|dock6
  -GOLD-   2272010343D 1   1.00000     0.00000
 Structure written by MMmdl.
 39 40  0  0  0  0  0  0  0  0  2 V2000
  144.5599  131.7285  151.2641 C   0  0  0  0  0  0  0  0  0  0  0  0
  143.2373  132.5070  151.2563 C   0  0  0  0  0  0  0  0  0  0  0  0
  143.4528  133.9678  151.1363 N   0  3  2  0  0  0  0  0  0  0  0  0
  144.4297  134.3508  150.0946 C   0  0  0  0  0  0  0  0  0  0  0  0
  145.0442  135.6614  150.5782 C   0  0  0  0  0  0  0  0  0  0  0  0
  145.1234  135.4511  152.0873 C   0  0  1  0  0  0  0  0  0  0  0  0
  145.2936  136.7536  152.8928 C   0  0  0  0  0  0  0  0  0  0  0  0
  146.6871  137.1869  152.9456 N   0  0  0  0  0  0  0  0  0  0  0  0
  147.1799  138.1325  153.7591 C   0  0  0  0  0  0  0  0  0  0  0  0
  146.4945  138.7480  154.5753 O   0  0  0  0  0  0  0  0  0  0  0  0
  148.4986  138.3017  153.5652 N   0  0  0  0  0  0  0  0  0  0  0  0
  149.3823  139.1849  154.2381 C   0  0  0  0  0  0  0  0  0  0  0  0
  149.0188  140.3717  154.9388 C   0  0  0  0  0  0  0  0  0  0  0  0
  150.2198  140.8394  155.3921 C   0  0  0  0  0  0  0  0  0  0  0  0
  150.6043  142.0335  156.1964 C   0  0  0  0  0  0  0  0  0  0  0  0
  151.2277  140.0122  155.0047 O   0  0  0  0  0  0  0  0  0  0  0  0
  150.6822  138.9557  154.2661 N   0  0  0  0  0  0  0  0  0  0  0  0
  143.8454  134.6524  152.3924 C   0  0  0  0  0  0  0  0  0  0  0  0
  144.3780  130.6620  151.3969 H   0  0  0  0  0  0  0  0  0  0  0  0
  145.2063  132.0575  152.0782 H   0  0  0  0  0  0  0  0  0  0  0  0
  145.1079  131.8528  150.3300 H   0  0  0  0  0  0  0  0  0  0  0  0
  142.5912  132.1583  150.4494 H   0  0  0  0  0  0  0  0  0  0  0  0
  142.7104  132.3062  152.1901 H   0  0  0  0  0  0  0  0  0  0  0  0
  145.2100  133.5910  150.0207 H   0  0  0  0  0  0  0  0  0  0  0  0
  143.9575  134.4435  149.1161 H   0  0  0  0  0  0  0  0  0  0  0  0
  146.0159  135.8636  150.1263 H   0  0  0  0  0  0  0  0  0  0  0  0
  144.3805  136.4950  150.3433 H   0  0  0  0  0  0  0  0  0  0  0  0
  145.9810  134.8043  152.2823 H   0  0  0  0  0  0  0  0  0  0  0  0
  144.7217  137.5507  152.4176 H   0  0  0  0  0  0  0  0  0  0  0  0
  144.8820  136.6437  153.8977 H   0  0  0  0  0  0  0  0  0  0  0  0
  147.3244  136.7361  152.3050 H   0  0  0  0  0  0  0  0  0  0  0  0
  148.9264  137.7251  152.8557 H   0  0  0  0  0  0  0  0  0  0  0  0
  148.0494  140.8204  155.0932 H   0  0  0  0  0  0  0  0  0  0  0  0
  149.7602  142.7139  156.3106 H   0  0  0  0  0  0  0  0  0  0  0  0
  151.4157  142.5798  155.7153 H   0  0  0  0  0  0  0  0  0  0  0  0
  150.9375  141.7373  157.1909 H   0  0  0  0  0  0  0  0  0  0  0  0
  143.0261  135.3156  152.6702 H   0  0  0  0  0  0  0  0  0  0  0  0
  144.0058  133.9622  153.2219 H   0  0  0  0  0  0  0  0  0  0  0  0
  142.5714  134.3750  150.8572 H   0  0  0  0  0  0  0  0  0  0  0  0
  1  2  1  0  0  0  0
  1 19  1  0  0  0  0
  1 20  1  0  0  0  0
  1 21  1  0  0  0  0
  2  3  1  0  0  0  0
  2 22  1  0  0  0  0
  2 23  1  0  0  0  0
  3 18  1  0  0  0  0
  3  4  1  0  0  0  0
  3 39  1  0  0  0  0
  4  5  1  0  0  0  0
  4 24  1  0  0  0  0
  4 25  1  0  0  0  0
  5  6  1  0  0  0  0
  5 26  1  0  0  0  0
  5 27  1  0  0  0  0
  6  7  1  0  0  0  0
  6 18  1  0  0  0  0
  6 28  1  0  0  0  0
  7  8  1  0  0  0  0
  7 29  1  0  0  0  0
  7 30  1  0  0  0  0
  8  9  1  0  0  0  0
  8 31  1  0  0  0  0
  9 10  2  0  0  0  0
  9 11  1  0  0  0  0
 11 12  1  0  0  0  0
 11 32  1  0  0  0  0
 12 17  2  0  0  0  0
 12 13  1  0  0  0  0
 13 14  2  0  0  0  0
 13 33  1  0  0  0  0
 14 15  1  0  0  0  0
 14 16  1  0  0  0  0
 15 34  1  0  0  0  0
 15 35  1  0  0  0  0
 15 36  1  0  0  0  0
 16 17  1  0  0  0  0
 18 37  1  0  0  0  0
 18 38  1  0  0  0  0
M  CHG  1   3   1
M  END
> <s_m_source_file>
AV-unprocessed.smi

> <i_m_source_file_index>
2002

> <i_lp_mmshare_version>
43012

> <i_f3d_flags>
0

> <s_epik_input>
W0NIM11bQ0gyXU4xW0NIMl1bQ0gyXVtDQEhdKFtDSDJdMSlbQ0gyXVtOSF1DKD1PKVtOSF1jMltjSF1jKFtDSDNdKW9uMg==

> <s_epik_cmdline>
J2VwaWtfcHl0aG9uJywgJy1waCcsICc3LjAnLCAnLXRuJywgJzgnLCAnLW1hJywgJzIwMCcsICctbWV0YWxfYmluZGluZycsICctaW1hZScsICc8aW5maWxlLm1hZT4nLCAnLW9tYWUnLCAnPG91dGZpbGUubWFlPic=

> <r_epik_Ionization_Penalty>
0.000632871

> <r_epik_Ionization_Penalty_Charging>
0.000610951

> <r_epik_Ionization_Penalty_Neutral>
2.19198e-05

> <r_epik_State_Penalty>
0.000385263

> <r_epik_Charging_Adjusted_Penalty>
0.000996214

> <i_epik_Tot_Q>
1

> <i_epik_Tot_abs_Q>
1

> <r_epik_Metal_State_Penalty>
-0

> <b_epik_Metal_Only>
0

> <s_lp_Force_Field>
OPLS_2005

> <r_lp_Energy>
27.554

> <b_lp_Chiralities_Consistent>
1

> <s_lp_Variant>
AV-unprocessed.smi:2002-2

> <Gold.Version>
5.8.1

> <Gold.Id.Protein>
6NUR|6NUR_protein|mol2

> <Gold.PLP.Fitness>
42.6102

> <Gold.PLP.PLP>
-30.1285

> <Gold.PLP.part.hbond>
-5.0660

> <Gold.PLP.part.metal>
0.0000

> <Gold.PLP.part.buried>
-0.7884

> <Gold.PLP.part.nonpolar>
-24.5559

> <Gold.PLP.part.repulsive>
0.3918

> <Gold.PLP.ligand.clash>
0.0000

> <Gold.PLP.ligand.torsion>
0.5360

> <Gold.PLP.Chemscore.Hbond>
4.5145

> <Gold.PLP.Chemscore.CHOScore>
0.0000

> <Gold.PLP.Chemscore.Metal>
0.0000

> <Gold.Chemscore.Hbonds>
donor molecule, donor type, donor heavy atom, donor atom, acceptor molecule, acceptor atom, score
      L1  H     3    39       P1 10186  1.88
      L1  H     8    31       P1  7948  1.00
      L1  H    11    32       P1  7948  1.00
      P1  H  7989  7998       L1    16  0.47

> <Gold.PLP.Chemscore.Internal.Correction>
0.0101

> <Gold.Rescore>
     Score         DG    S(hbond)    S(metal)    S(lipo)     H(rot)  DE(clash)    DE(int)     intcor
     15.06     -16.75       2.28        0.00      64.41       1.52       0.21       1.48       ----

> <Gold.Chemscore.Fitness>
15.0621

> <Gold.Chemscore.DG>
-16.7478

> <Gold.Chemscore.ZeroCoef>
-5.4800

> <Gold.Chemscore.Hbond>
2.2839

> <Gold.Chemscore.Metal>
0.0000

> <Gold.Chemscore.Lipo>
64.4148

> <Gold.Chemscore.Internal_Hbond>
0.0000

> <Gold.Chemscore.DEClash>
0.2069

> <Gold.Chemscore.DEInternal>
1.4788

> <Gold.Chemscore.Rot>
1.5223

> <Gold.Chemscore.Internal.Correction>
   9.000000E+99

> <Gold.Chemscore.Hbonds>
donor molecule, donor type, donor heavy atom, donor atom, acceptor molecule, acceptor atom, score
      L1  H     3    39       P1 10186  0.19
      L1  H     8    31       P1  7948  0.96
      L1  H    11    32       P1  7948  0.96

> <Gold.Chemscore.Hbond.Weighted>
-7.6284

> <Gold.Chemscore.Metal.Weighted>
-0.0000

> <Gold.Chemscore.Lipo.Weighted>
-7.5365

> <Gold.Chemscore.Internal_Hbond.Weighted>
0.0000

> <Gold.Chemscore.DEClash.Weighted>
0.2069

> <Gold.Chemscore.DEInternal.Weighted>
1.4788

> <Gold.Chemscore.Rot.Weighted>
3.8971

> <Gold.Chemscore.Internal.Correction.Weighted>
   9.000000E+99

> <Gold.Protein.RotatedTorsions>
[ 6907 6896 6895 6894 ] final -149.35 input  -60.11 | X-H torsion
[ 7974 7965 7964 7962 ] final -132.77 input  175.53 | X-H torsion
[ 8008 7997 7996 7995 ] final    7.58 input   59.86 | X-H torsion
[ 10167 10162 10161 10158 ] final   34.21 input  -65.29 | X-H torsion
[ 10718 10713 10712 10709 ] final  -74.93 input   66.30 | X-H torsion
[ 10763 10752 10751 10750 ] final   27.06 input  -60.55 | X-H torsion
[ 11005 11000 10999 10996 ] final  -66.87 input  -57.11 | X-H torsion

> <Gold.Protein.ActiveResidues>
 VAL166  LYS551  ARG553  GLY616  TRP617  ASP618  TYR619  PRO620  LYS621  CYS622 
 ASP623  PHE694  ASN695  SER759  ASP760  ASP761  ALA762  ILE779  LEU786  VAL792 
 PHE793  MET794  SER795  GLU796  ALA797  LYS798  CYS799  TRP800  GLU811  SER814 

> <Gold.Protein.RotatedAtoms>
  151.1829  133.4714  159.2593 H   0  0  0  0  0  0  0  0  0  0  0  0  # atno 6907 bound_to 6896
  151.1240  135.0095  159.8562 H   0  0  0  0  0  0  0  0  0  0  0  0  # atno 6908 bound_to 6896
  152.5457  134.1738  159.8660 H   0  0  0  0  0  0  0  0  0  0  0  0  # atno 6909 bound_to 6896
  144.9255  140.7066  143.4938 H   0  0  0  0  0  0  0  0  0  0  0  0  # atno 7974 bound_to 7965
  154.7556  140.2775  155.6256 H   0  0  0  0  0  0  0  0  0  0  0  0  # atno 8008 bound_to 7997
  156.2905  140.2670  156.2248 H   0  0  0  0  0  0  0  0  0  0  0  0  # atno 8009 bound_to 7997
  155.0081  140.0372  157.2378 H   0  0  0  0  0  0  0  0  0  0  0  0  # atno 8010 bound_to 7997
  140.4336  144.1289  150.6163 H   0  0  0  0  0  0  0  0  0  0  0  0  # atno 10167 bound_to 10162
  156.0225  130.4428  150.2967 H   0  0  0  0  0  0  0  0  0  0  0  0  # atno 10718 bound_to 10713
  153.0581  135.6546  154.0529 H   0  0  0  0  0  0  0  0  0  0  0  0  # atno 10763 bound_to 10752
  154.0202  135.2920  155.3383 H   0  0  0  0  0  0  0  0  0  0  0  0  # atno 10764 bound_to 10752
  154.6906  135.5284  153.8454 H   0  0  0  0  0  0  0  0  0  0  0  0  # atno 10765 bound_to 10752
  141.1493  133.6708  156.6206 H   0  0  0  0  0  0  0  0  0  0  0  0  # atno 11005 bound_to 11000
  145.3226  139.1783  143.4579 LP  0  0  0  0  0  0  0  0  0  0  0  0  # atno 17320 bound_to 7965
  146.3224  140.3246  142.8636 LP  0  0  0  0  0  0  0  0  0  0  0  0  # atno 17321 bound_to 7965
  140.4399  143.2531  151.9486 LP  0  0  0  0  0  0  0  0  0  0  0  0  # atno 17342 bound_to 10162
  139.4786  144.5664  151.8158 LP  0  0  0  0  0  0  0  0  0  0  0  0  # atno 17343 bound_to 10162
  157.1070  131.0211  151.3063 LP  0  0  0  0  0  0  0  0  0  0  0  0  # atno 17370 bound_to 10713
  157.4735  130.7723  149.7346 LP  0  0  0  0  0  0  0  0  0  0  0  0  # atno 17371 bound_to 10713
  140.3543  134.7741  157.4489 LP  0  0  0  0  0  0  0  0  0  0  0  0  # atno 17394 bound_to 11000
  140.0835  134.5698  155.8516 LP  0  0  0  0  0  0  0  0  0  0  0  0  # atno 17395 bound_to 11000

$$$$
