AV-unprocessed.smi:2202|AV-procd|sdf|8933|dock1
  -GOLD-   2272012143D 1   1.00000     0.00000
 Structure written by MMmdl.
 43 45  0  0  0  0  0  0  0  0  2 V2000
  152.1471  137.0257  159.3174 O   0  0  0  0  0  0  0  0  0  0  0  0
  151.3706  137.6472  158.5899 C   0  0  0  0  0  0  0  0  0  0  0  0
  151.8914  138.6244  157.5264 C   0  0  0  0  0  0  0  0  0  0  0  0
  151.9571  140.0139  157.9967 N   0  0  0  0  0  0  0  0  0  0  0  0
  151.2817  141.0381  157.4387 C   0  0  0  0  0  0  0  0  0  0  0  0
  150.6085  141.0124  156.4091 O   0  0  0  0  0  0  0  0  0  0  0  0
  151.4004  142.2580  158.3398 C   0  0  2  0  0  0  0  0  0  0  0  0
  151.4975  143.6875  157.7935 C   0  0  0  0  0  0  0  0  0  0  0  0
  151.8626  144.6158  158.9566 C   0  0  0  0  0  0  0  0  0  0  0  0
  152.3468  144.1788  160.1452 C   0  0  0  0  0  0  0  0  0  0  0  0
  152.6284  142.7056  160.4592 C   0  0  0  0  0  0  0  0  0  0  0  0
  152.6499  141.9342  159.1341 C   0  0  1  0  0  0  0  0  0  0  0  0
  152.6708  140.4149  159.0672 C   0  0  0  0  0  0  0  0  0  0  0  0
  153.2988  139.7033  159.8507 O   0  0  0  0  0  0  0  0  0  0  0  0
  150.0371  137.5266  158.6723 N   0  0  0  0  0  0  0  0  0  0  0  0
  149.3362  136.6519  159.6045 C   0  0  0  0  0  0  0  0  0  0  0  0
  147.8112  136.7356  159.4208 C   0  0  0  0  0  0  0  0  0  0  0  0
  147.0636  135.9119  160.4507 C   0  0  0  0  0  0  0  0  0  0  0  0
  147.7289  135.1902  161.4654 C   0  0  0  0  0  0  0  0  0  0  0  0
  146.9692  134.4390  162.3867 C   0  0  0  0  0  0  0  0  0  0  0  0
  145.5632  134.4255  162.2739 C   0  0  0  0  0  0  0  0  0  0  0  0
  144.9512  135.1645  161.2410 C   0  0  0  0  0  0  0  0  0  0  0  0
  145.7132  135.8708  160.3772 N   0  3  0  0  0  0  0  0  0  0  0  0
  152.8822  138.3031  157.1998 H   0  0  0  0  0  0  0  0  0  0  0  0
  151.2505  138.5522  156.6462 H   0  0  0  0  0  0  0  0  0  0  0  0
  150.5297  142.2143  158.9988 H   0  0  0  0  0  0  0  0  0  0  0  0
  152.2488  143.7699  157.0072 H   0  0  0  0  0  0  0  0  0  0  0  0
  150.5409  143.9955  157.3706 H   0  0  0  0  0  0  0  0  0  0  0  0
  151.7122  145.6734  158.7969 H   0  0  0  0  0  0  0  0  0  0  0  0
  152.5584  144.8901  160.9302 H   0  0  0  0  0  0  0  0  0  0  0  0
  153.5927  142.6198  160.9610 H   0  0  0  0  0  0  0  0  0  0  0  0
  151.8664  142.3217  161.1384 H   0  0  0  0  0  0  0  0  0  0  0  0
  153.5304  142.2605  158.5755 H   0  0  0  0  0  0  0  0  0  0  0  0
  149.4700  138.0770  158.0431 H   0  0  0  0  0  0  0  0  0  0  0  0
  149.6835  135.6247  159.4789 H   0  0  0  0  0  0  0  0  0  0  0  0
  149.6054  136.9483  160.6187 H   0  0  0  0  0  0  0  0  0  0  0  0
  147.4838  137.7742  159.4854 H   0  0  0  0  0  0  0  0  0  0  0  0
  147.5277  136.3867  158.4267 H   0  0  0  0  0  0  0  0  0  0  0  0
  148.8067  135.2093  161.5384 H   0  0  0  0  0  0  0  0  0  0  0  0
  147.4592  133.8791  163.1699 H   0  0  0  0  0  0  0  0  0  0  0  0
  144.9636  133.8563  162.9691 H   0  0  0  0  0  0  0  0  0  0  0  0
  143.8840  135.2105  161.0796 H   0  0  0  0  0  0  0  0  0  0  0  0
  145.2496  136.3973  159.6360 H   0  0  0  0  0  0  0  0  0  0  0  0
  1  2  2  0  0  0  0
  2  3  1  0  0  0  0
  2 15  1  0  0  0  0
  3  4  1  0  0  0  0
  3 24  1  0  0  0  0
  3 25  1  0  0  0  0
  4 13  1  0  0  0  0
  4  5  1  0  0  0  0
  5  6  2  0  0  0  0
  5  7  1  0  0  0  0
  7 12  1  0  0  0  0
  7  8  1  0  0  0  0
  7 26  1  0  0  0  0
  8  9  1  0  0  0  0
  8 27  1  0  0  0  0
  8 28  1  0  0  0  0
  9 10  2  0  0  0  0
  9 29  1  0  0  0  0
 10 11  1  0  0  0  0
 10 30  1  0  0  0  0
 11 12  1  0  0  0  0
 11 31  1  0  0  0  0
 11 32  1  0  0  0  0
 12 13  1  0  0  0  0
 12 33  1  0  0  0  0
 13 14  2  0  0  0  0
 15 16  1  0  0  0  0
 15 34  1  0  0  0  0
 16 17  1  0  0  0  0
 16 35  1  0  0  0  0
 16 36  1  0  0  0  0
 17 18  1  0  0  0  0
 17 37  1  0  0  0  0
 17 38  1  0  0  0  0
 18 23  1  0  0  0  0
 18 19  2  0  0  0  0
 19 20  1  0  0  0  0
 19 39  1  0  0  0  0
 20 21  2  0  0  0  0
 20 40  1  0  0  0  0
 21 22  1  0  0  0  0
 21 41  1  0  0  0  0
 22 23  2  0  0  0  0
 22 42  1  0  0  0  0
 23 43  1  0  0  0  0
M  CHG  1  23   1
M  END
> <s_m_source_file>
AV-unprocessed.smi

> <i_m_source_file_index>
2202

> <i_lp_mmshare_version>
43012

> <i_f3d_flags>
0

> <s_epik_input>
W0NIMl0xW0NIXT1bQ0hdW0NIMl1bQ0BIXShbQ0BIXTEyKUMoPU8pTihDMj1PKVtDSDJdQyg9TylbTkhdW0NIMl1bQ0gyXWMzW2NIXVtjSF1bY0hdW2NIXW4z

> <s_epik_cmdline>
J2VwaWtfcHl0aG9uJywgJy1waCcsICc3LjAnLCAnLXRuJywgJzgnLCAnLW1hJywgJzIwMCcsICctbWV0YWxfYmluZGluZycsICctaW1hZScsICc8aW5maWxlLm1hZT4nLCAnLW9tYWUnLCAnPG91dGZpbGUubWFlPic=

> <r_lp_tautomer_probability>
1

> <r_epik_Ionization_Penalty>
1.90039

> <r_epik_Ionization_Penalty_Charging>
1.90039

> <r_epik_Ionization_Penalty_Neutral>
1.50224e-07

> <r_epik_State_Penalty>
2.02162

> <r_epik_Charging_Adjusted_Penalty>
3.922

> <i_epik_Tot_Q>
1

> <i_epik_Tot_abs_Q>
1

> <r_epik_Metal_State_Penalty>
2.04542

> <b_epik_Metal_Only>
0

> <s_lp_Force_Field>
OPLS_2005

> <r_lp_Energy>
26.3593

> <b_lp_Chiralities_Consistent>
1

> <s_lp_Variant>
AV-unprocessed.smi:2202-5

> <Gold.Version>
5.8.1

> <Gold.Id.Protein>
6NUR|6NUR_protein|mol2

> <Gold.PLP.Fitness>
48.8755

> <Gold.PLP.PLP>
-46.4255

> <Gold.PLP.part.hbond>
-1.0000

> <Gold.PLP.part.metal>
0.0000

> <Gold.PLP.part.buried>
-6.2016

> <Gold.PLP.part.nonpolar>
-39.8699

> <Gold.PLP.part.repulsive>
0.2668

> <Gold.PLP.ligand.clash>
0.0000

> <Gold.PLP.ligand.torsion>
0.3671

> <Gold.PLP.Chemscore.Hbond>
1.0000

> <Gold.PLP.Chemscore.CHOScore>
0.0000

> <Gold.PLP.Chemscore.Metal>
0.0000

> <Gold.Chemscore.Hbonds>
donor molecule, donor type, donor heavy atom, donor atom, acceptor molecule, acceptor atom, score
      P1  H  6896  6907       L1     1  0.98

> <Gold.PLP.Chemscore.Internal.Correction>
0.1841

> <Gold.Rescore>
     Score         DG    S(hbond)    S(metal)    S(lipo)     H(rot)  DE(clash)    DE(int)     intcor
     17.49     -18.03       0.99        0.00     122.03       1.96       0.15       0.39       ----

> <Gold.Chemscore.Fitness>
17.4948

> <Gold.Chemscore.DG>
-18.0315

> <Gold.Chemscore.ZeroCoef>
-5.4800

> <Gold.Chemscore.Hbond>
0.9876

> <Gold.Chemscore.Metal>
0.0000

> <Gold.Chemscore.Lipo>
122.0259

> <Gold.Chemscore.Internal_Hbond>
0.0000

> <Gold.Chemscore.DEClash>
0.1499

> <Gold.Chemscore.DEInternal>
0.3869

> <Gold.Chemscore.Rot>
1.9625

> <Gold.Chemscore.Internal.Correction>
   9.000000E+99

> <Gold.Chemscore.Hbonds>
donor molecule, donor type, donor heavy atom, donor atom, acceptor molecule, acceptor atom, score
      P1  H  6896  6907       L1     1  0.89

> <Gold.Chemscore.Hbond.Weighted>
-3.2985

> <Gold.Chemscore.Metal.Weighted>
-0.0000

> <Gold.Chemscore.Lipo.Weighted>
-14.2770

> <Gold.Chemscore.Internal_Hbond.Weighted>
0.0000

> <Gold.Chemscore.DEClash.Weighted>
0.1499

> <Gold.Chemscore.DEInternal.Weighted>
0.3869

> <Gold.Chemscore.Rot.Weighted>
5.0240

> <Gold.Chemscore.Internal.Correction.Weighted>
   9.000000E+99

> <Gold.Protein.RotatedTorsions>
[ 6907 6896 6895 6894 ] final    4.38 input  -60.11 | X-H torsion
[ 7974 7965 7964 7962 ] final  122.88 input  175.53 | X-H torsion
[ 8008 7997 7996 7995 ] final -110.19 input   59.86 | X-H torsion
[ 10167 10162 10161 10158 ] final    6.88 input  -65.29 | X-H torsion
[ 10718 10713 10712 10709 ] final -132.66 input   66.30 | X-H torsion
[ 10763 10752 10751 10750 ] final   43.12 input  -60.55 | X-H torsion
[ 11005 11000 10999 10996 ] final -168.54 input  -57.11 | X-H torsion

> <Gold.Protein.ActiveResidues>
 VAL166  LYS551  ARG553  GLY616  TRP617  ASP618  TYR619  PRO620  LYS621  CYS622 
 ASP623  PHE694  ASN695  SER759  ASP760  ASP761  ALA762  ILE779  LEU786  VAL792 
 PHE793  MET794  SER795  GLU796  ALA797  LYS798  CYS799  TRP800  GLU811  SER814 

> <Gold.Protein.RotatedAtoms>
  151.6404  135.1013  160.0139 H   0  0  0  0  0  0  0  0  0  0  0  0  # atno 6907 bound_to 6896
  152.4057  133.6881  159.6363 H   0  0  0  0  0  0  0  0  0  0  0  0  # atno 6908 bound_to 6896
  150.7952  133.8630  159.3278 H   0  0  0  0  0  0  0  0  0  0  0  0  # atno 6909 bound_to 6896
  145.1024  139.3509  143.4805 H   0  0  0  0  0  0  0  0  0  0  0  0  # atno 7974 bound_to 7965
  154.9707  140.0397  157.2233 H   0  0  0  0  0  0  0  0  0  0  0  0  # atno 8008 bound_to 7997
  154.7803  140.2817  155.6046 H   0  0  0  0  0  0  0  0  0  0  0  0  # atno 8009 bound_to 7997
  156.2935  140.2593  156.2627 H   0  0  0  0  0  0  0  0  0  0  0  0  # atno 8010 bound_to 7997
  140.6403  143.7789  150.7419 H   0  0  0  0  0  0  0  0  0  0  0  0  # atno 10167 bound_to 10162
  156.2368  130.7071  151.0916 H   0  0  0  0  0  0  0  0  0  0  0  0  # atno 10718 bound_to 10713
  152.9867  135.6111  154.3061 H   0  0  0  0  0  0  0  0  0  0  0  0  # atno 10763 bound_to 10752
  154.2778  135.2778  155.2712 H   0  0  0  0  0  0  0  0  0  0  0  0  # atno 10764 bound_to 10752
  154.5064  135.5853  153.6627 H   0  0  0  0  0  0  0  0  0  0  0  0  # atno 10765 bound_to 10752
  140.5409  134.5523  157.5099 H   0  0  0  0  0  0  0  0  0  0  0  0  # atno 11005 bound_to 11000
  146.3529  140.0907  142.8613 LP  0  0  0  0  0  0  0  0  0  0  0  0  # atno 17320 bound_to 7965
  145.0940  140.9303  143.4752 LP  0  0  0  0  0  0  0  0  0  0  0  0  # atno 17321 bound_to 7965
  140.1419  143.4433  152.2188 LP  0  0  0  0  0  0  0  0  0  0  0  0  # atno 17342 bound_to 10162
  139.5612  144.7407  151.4148 LP  0  0  0  0  0  0  0  0  0  0  0  0  # atno 17343 bound_to 10162
  157.7158  131.0710  150.6332 LP  0  0  0  0  0  0  0  0  0  0  0  0  # atno 17370 bound_to 10713
  156.6403  130.4456  149.5755 LP  0  0  0  0  0  0  0  0  0  0  0  0  # atno 17371 bound_to 10713
  139.9504  134.7626  156.0461 LP  0  0  0  0  0  0  0  0  0  0  0  0  # atno 17394 bound_to 11000
  141.1228  133.6608  156.3258 LP  0  0  0  0  0  0  0  0  0  0  0  0  # atno 17395 bound_to 11000

$$$$
