AV-unprocessed.smi:2678|AV-procd|sdf|10366|dock1
  -GOLD-   2272014393D 1   1.00000     0.00000
 Structure written by MMmdl.
 46 47  0  0  0  0  0  0  0  0  1 V2000
  153.5487  129.1521  154.9934 C   0  0  0  0  0  0  0  0  0  0  0  0
  153.2865  130.3256  155.9469 C   0  0  0  0  0  0  0  0  0  0  0  0
  153.9077  130.0913  157.3304 C   0  0  0  0  0  0  0  0  0  0  0  0
  151.8472  130.5322  156.0867 N   0  0  0  0  0  0  0  0  0  0  0  0
  151.2518  131.4758  156.8339 C   0  0  0  0  0  0  0  0  0  0  0  0
  151.8789  132.3006  157.4984 O   0  0  0  0  0  0  0  0  0  0  0  0
  149.7113  131.4745  156.8255 C   0  0  2  0  0  0  0  0  0  0  0  0
  149.1020  130.1980  157.4531 C   0  0  0  0  0  0  0  0  0  0  0  0
  149.1373  128.9705  156.5229 C   0  0  0  0  0  0  0  0  0  0  0  0
  148.5149  129.2841  155.1538 C   0  0  0  0  0  0  0  0  0  0  0  0
  149.2094  130.4852  154.4901 C   0  0  1  0  0  0  0  0  0  0  0  0
  148.5879  130.7621  153.1932 N   0  0  0  0  0  0  0  0  0  0  0  0
  147.3204  131.1405  152.9435 C   0  0  0  0  0  0  0  0  0  0  0  0
  146.5101  131.2855  153.8558 O   0  0  0  0  0  0  0  0  0  0  0  0
  147.0492  131.3190  151.6353 N   0  0  0  0  0  0  0  0  0  0  0  0
  145.8518  131.7598  151.0107 C   0  0  0  0  0  0  0  0  0  0  0  0
  144.6678  132.1193  151.6994 C   0  0  0  0  0  0  0  0  0  0  0  0
  143.5558  132.5579  150.9547 C   0  0  0  0  0  0  0  0  0  0  0  0
  143.6685  132.6260  149.5526 C   0  0  0  0  0  0  0  0  0  0  0  0
  144.7935  132.2967  148.8841 N   0  0  0  0  0  0  0  0  0  0  0  0
  145.8557  131.8776  149.6045 C   0  0  0  0  0  0  0  0  0  0  0  0
  149.1348  131.7240  155.4132 C   0  0  0  0  0  0  0  0  0  0  0  0
  154.6184  128.9849  154.8639 H   0  0  0  0  0  0  0  0  0  0  0  0
  153.1247  129.3456  154.0075 H   0  0  0  0  0  0  0  0  0  0  0  0
  153.1106  128.2269  155.3696 H   0  0  0  0  0  0  0  0  0  0  0  0
  153.7581  131.2121  155.5201 H   0  0  0  0  0  0  0  0  0  0  0  0
  154.9857  129.9458  157.2554 H   0  0  0  0  0  0  0  0  0  0  0  0
  153.4856  129.2091  157.8131 H   0  0  0  0  0  0  0  0  0  0  0  0
  153.7362  130.9455  157.9867 H   0  0  0  0  0  0  0  0  0  0  0  0
  151.2512  129.8986  155.5739 H   0  0  0  0  0  0  0  0  0  0  0  0
  149.3972  132.3125  157.4501 H   0  0  0  0  0  0  0  0  0  0  0  0
  149.6062  129.9610  158.3912 H   0  0  0  0  0  0  0  0  0  0  0  0
  148.0644  130.4027  157.7197 H   0  0  0  0  0  0  0  0  0  0  0  0
  150.1625  128.6255  156.3896 H   0  0  0  0  0  0  0  0  0  0  0  0
  148.6011  128.1433  156.9888 H   0  0  0  0  0  0  0  0  0  0  0  0
  148.5868  128.4066  154.5102 H   0  0  0  0  0  0  0  0  0  0  0  0
  147.4508  129.4912  155.2772 H   0  0  0  0  0  0  0  0  0  0  0  0
  150.2500  130.2069  154.3214 H   0  0  0  0  0  0  0  0  0  0  0  0
  149.1902  130.6578  152.3894 H   0  0  0  0  0  0  0  0  0  0  0  0
  147.8019  131.0913  151.0018 H   0  0  0  0  0  0  0  0  0  0  0  0
  144.5892  132.0819  152.7742 H   0  0  0  0  0  0  0  0  0  0  0  0
  142.6378  132.8395  151.4488 H   0  0  0  0  0  0  0  0  0  0  0  0
  142.8344  132.9588  148.9527 H   0  0  0  0  0  0  0  0  0  0  0  0
  146.7400  131.6260  149.0365 H   0  0  0  0  0  0  0  0  0  0  0  0
  148.0929  132.0317  155.5123 H   0  0  0  0  0  0  0  0  0  0  0  0
  149.6474  132.5705  154.9542 H   0  0  0  0  0  0  0  0  0  0  0  0
  1  2  1  0  0  0  0
  1 23  1  0  0  0  0
  1 24  1  0  0  0  0
  1 25  1  0  0  0  0
  2  3  1  0  0  0  0
  2  4  1  0  0  0  0
  2 26  1  0  0  0  0
  3 27  1  0  0  0  0
  3 28  1  0  0  0  0
  3 29  1  0  0  0  0
  4  5  1  0  0  0  0
  4 30  1  0  0  0  0
  5  6  2  0  0  0  0
  5  7  1  0  0  0  0
  7 22  1  0  0  0  0
  7  8  1  0  0  0  0
  7 31  1  0  0  0  0
  8  9  1  0  0  0  0
  8 32  1  0  0  0  0
  8 33  1  0  0  0  0
  9 10  1  0  0  0  0
  9 34  1  0  0  0  0
  9 35  1  0  0  0  0
 10 11  1  0  0  0  0
 10 36  1  0  0  0  0
 10 37  1  0  0  0  0
 11 12  1  0  0  0  0
 11 22  1  0  0  0  0
 11 38  1  0  0  0  0
 12 13  1  0  0  0  0
 12 39  1  0  0  0  0
 13 14  2  0  0  0  0
 13 15  1  0  0  0  0
 15 16  1  0  0  0  0
 15 40  1  0  0  0  0
 16 21  1  0  0  0  0
 16 17  2  0  0  0  0
 17 18  1  0  0  0  0
 17 41  1  0  0  0  0
 18 19  2  0  0  0  0
 18 42  1  0  0  0  0
 19 20  1  0  0  0  0
 19 43  1  0  0  0  0
 20 21  2  0  0  0  0
 21 44  1  0  0  0  0
 22 45  1  0  0  0  0
 22 46  1  0  0  0  0
M  END
> <s_m_source_file>
AV-unprocessed.smi

> <i_m_source_file_index>
2678

> <i_lp_mmshare_version>
43012

> <i_f3d_flags>
0

> <s_epik_input>
W0NIM11bQ0hdKFtDSDNdKVtOSF1DKD1PKVtDQEBIXTFbQ0gyXVtDSDJdW0NIMl1bQ0BIXShbQ0gyXTEpW05IXUMoPU8pW05IXWMyW2NIXVtjSF1bY0hdbltjSF0y

> <s_epik_cmdline>
J2VwaWtfcHl0aG9uJywgJy1waCcsICc3LjAnLCAnLXRuJywgJzgnLCAnLW1hJywgJzIwMCcsICctbWV0YWxfYmluZGluZycsICctaW1hZScsICc8aW5maWxlLm1hZT4nLCAnLW9tYWUnLCAnPG91dGZpbGUubWFlPic=

> <r_epik_Ionization_Penalty>
0.00482944

> <r_epik_Ionization_Penalty_Charging>
0

> <r_epik_Ionization_Penalty_Neutral>
0.00482944

> <r_epik_State_Penalty>
0.00347168

> <r_epik_Charging_Adjusted_Penalty>
0.00347168

> <i_epik_Tot_Q>
0

> <i_epik_Tot_abs_Q>
0

> <r_epik_Metal_State_Penalty>
-0

> <b_epik_Metal_Only>
0

> <s_lp_Force_Field>
OPLS_2005

> <r_lp_Energy>
21.1553

> <b_lp_Chiralities_Consistent>
1

> <s_lp_Variant>
AV-unprocessed.smi:2678-1

> <Gold.Version>
5.8.1

> <Gold.Id.Protein>
6NUR|6NUR_protein|mol2

> <Gold.PLP.Fitness>
44.0397

> <Gold.PLP.PLP>
-33.1750

> <Gold.PLP.part.hbond>
-3.2330

> <Gold.PLP.part.metal>
0.0000

> <Gold.PLP.part.buried>
-4.7601

> <Gold.PLP.part.nonpolar>
-26.6440

> <Gold.PLP.part.repulsive>
0.3949

> <Gold.PLP.ligand.clash>
0.0000

> <Gold.PLP.ligand.torsion>
0.0368

> <Gold.PLP.Chemscore.Hbond>
2.0808

> <Gold.PLP.Chemscore.CHOScore>
1.5467

> <Gold.PLP.Chemscore.Metal>
0.0000

> <Gold.Chemscore.Hbonds>
donor molecule, donor type, donor heavy atom, donor atom, acceptor molecule, acceptor atom, score
      L1  H    12    39       P1 10747  0.51
      L1  H    15    40       P1 10747  0.68
      P1  H  6896  6907       L1     6  0.99
      L1  C    19    43       P1 10186  1.00
      L1  C    21    44       P1 10747  0.61

> <Gold.PLP.Chemscore.Internal.Correction>
0.0561

> <Gold.Rescore>
     Score         DG    S(hbond)    S(metal)    S(lipo)     H(rot)  DE(clash)    DE(int)     intcor
     16.62     -18.60       2.15        0.00      82.71       1.46       0.07       1.91       ----

> <Gold.Chemscore.Fitness>
16.6174

> <Gold.Chemscore.DG>
-18.6022

> <Gold.Chemscore.ZeroCoef>
-5.4800

> <Gold.Chemscore.Hbond>
2.1507

> <Gold.Chemscore.Metal>
0.0000

> <Gold.Chemscore.Lipo>
82.7116

> <Gold.Chemscore.Internal_Hbond>
0.0000

> <Gold.Chemscore.DEClash>
0.0727

> <Gold.Chemscore.DEInternal>
1.9121

> <Gold.Chemscore.Rot>
1.4603

> <Gold.Chemscore.Internal.Correction>
   9.000000E+99

> <Gold.Chemscore.Hbonds>
donor molecule, donor type, donor heavy atom, donor atom, acceptor molecule, acceptor atom, score
      L1  H    12    39       P1 10747  0.07
      L1  H    15    40       P1 10747  0.67
      P1  H  6896  6907       L1     6  0.92

> <Gold.Chemscore.Hbond.Weighted>
-7.1833

> <Gold.Chemscore.Metal.Weighted>
-0.0000

> <Gold.Chemscore.Lipo.Weighted>
-9.6773

> <Gold.Chemscore.Internal_Hbond.Weighted>
0.0000

> <Gold.Chemscore.DEClash.Weighted>
0.0727

> <Gold.Chemscore.DEInternal.Weighted>
1.9121

> <Gold.Chemscore.Rot.Weighted>
3.7383

> <Gold.Chemscore.Internal.Correction.Weighted>
   9.000000E+99

> <Gold.Protein.RotatedTorsions>
[ 6907 6896 6895 6894 ] final -179.35 input  -60.11 | X-H torsion
[ 7974 7965 7964 7962 ] final   53.86 input  175.53 | X-H torsion
[ 8008 7997 7996 7995 ] final   -5.69 input   59.86 | X-H torsion
[ 10167 10162 10161 10158 ] final    7.79 input  -65.29 | X-H torsion
[ 10718 10713 10712 10709 ] final   18.22 input   66.30 | X-H torsion
[ 10763 10752 10751 10750 ] final  -52.38 input  -60.55 | X-H torsion
[ 11005 11000 10999 10996 ] final   88.87 input  -57.11 | X-H torsion

> <Gold.Protein.ActiveResidues>
 VAL166  LYS551  ARG553  GLY616  TRP617  ASP618  TYR619  PRO620  LYS621  CYS622 
 ASP623  PHE694  ASN695  SER759  ASP760  ASP761  ALA762  ILE779  LEU786  VAL792 
 PHE793  MET794  SER795  GLU796  ALA797  LYS798  CYS799  TRP800  GLU811  SER814 

> <Gold.Protein.RotatedAtoms>
  151.6521  133.3320  159.3153 H   0  0  0  0  0  0  0  0  0  0  0  0  # atno 6907 bound_to 6896
  150.7955  134.7015  159.6562 H   0  0  0  0  0  0  0  0  0  0  0  0  # atno 6908 bound_to 6896
  152.4041  134.6240  160.0109 H   0  0  0  0  0  0  0  0  0  0  0  0  # atno 6909 bound_to 6896
  145.9668  139.4111  143.0214 H   0  0  0  0  0  0  0  0  0  0  0  0  # atno 7974 bound_to 7965
  154.6014  140.2452  155.7788 H   0  0  0  0  0  0  0  0  0  0  0  0  # atno 8008 bound_to 7997
  156.2313  140.2965  156.0148 H   0  0  0  0  0  0  0  0  0  0  0  0  # atno 8009 bound_to 7997
  155.2205  140.0400  157.2938 H   0  0  0  0  0  0  0  0  0  0  0  0  # atno 8010 bound_to 7997
  140.6352  143.7903  150.7349 H   0  0  0  0  0  0  0  0  0  0  0  0  # atno 10167 bound_to 10162
  157.0932  130.6437  149.5854 H   0  0  0  0  0  0  0  0  0  0  0  0  # atno 10718 bound_to 10713
  154.1418  135.6504  153.4944 H   0  0  0  0  0  0  0  0  0  0  0  0  # atno 10763 bound_to 10752
  153.0164  135.5317  154.6897 H   0  0  0  0  0  0  0  0  0  0  0  0  # atno 10764 bound_to 10752
  154.6161  135.2959  155.0349 H   0  0  0  0  0  0  0  0  0  0  0  0  # atno 10765 bound_to 10752
  139.8887  134.8515  156.3062 H   0  0  0  0  0  0  0  0  0  0  0  0  # atno 11005 bound_to 11000
  145.7963  140.9792  143.1022 LP  0  0  0  0  0  0  0  0  0  0  0  0  # atno 17320 bound_to 7965
  144.6827  139.9745  143.7482 LP  0  0  0  0  0  0  0  0  0  0  0  0  # atno 17321 bound_to 7965
  140.1523  143.4347  152.2123 LP  0  0  0  0  0  0  0  0  0  0  0  0  # atno 17342 bound_to 10162
  139.5563  144.7375  151.4286 LP  0  0  0  0  0  0  0  0  0  0  0  0  # atno 17343 bound_to 10162
  155.9892  130.4939  150.7205 LP  0  0  0  0  0  0  0  0  0  0  0  0  # atno 17370 bound_to 10713
  157.4703  131.0892  151.0649 LP  0  0  0  0  0  0  0  0  0  0  0  0  # atno 17371 bound_to 10713
  140.9881  133.7226  156.0772 LP  0  0  0  0  0  0  0  0  0  0  0  0  # atno 17394 bound_to 11000
  140.7662  134.3884  157.5516 LP  0  0  0  0  0  0  0  0  0  0  0  0  # atno 17395 bound_to 11000

$$$$
