#       Name:                AV-unprocessed.smi:669
#       Creating user name   scv26
#       Creation time:       Fri Mar 27 00:21:45 2020


#       File generated by GOLD software.
#

@<TRIPOS>MOLECULE
AV-unprocessed.smi:669
    42    43     1
SMALL
NO_CHARGES


@<TRIPOS>ATOM
      1 ****        -3.1125   2.5530   2.2457 C.3            1 S1                 0.0000
      2 ****        -2.8001   2.1952   0.8228 C.2            1 S1                 0.0000
      3 ****        -2.9938   3.1149  -0.2812 C.2            1 S1                 0.0000
      4 ****        -2.7034   2.7113  -1.5365 C.2            1 S1                 0.0000
      5 ****        -2.1909   1.3713  -1.8146 C.2            1 S1                 0.0000
      6 ****        -1.9433   0.9701  -2.9512 O.2            1 S1                 0.0000
      7 ****        -2.0171   0.6063  -0.6967 N.am           1 S1                 0.0000
      8 ****        -1.4862  -0.7637  -0.7848 C.3            1 S1                 0.0000
      9 ****         0.0674  -0.8628  -0.7570 C.3            1 S1                 0.0000
     10 ****         0.5297  -0.6195  -2.0734 O.3            1 S1                 0.0000
     11 ****         0.7443   0.1375   0.2146 C.3            1 S1                 0.0000
     12 ****         2.2651  -0.0666   0.3339 C.3            1 S1                 0.0000
     13 ****         2.6195  -1.5115   0.7247 C.3            1 S1                 0.0000
     14 ****         4.1374  -1.7044   0.8515 C.3            1 S1                 0.0000
     15 ****         2.0079  -2.4962  -0.2867 C.3            1 S1                 0.0000
     16 ****         0.4841  -2.3117  -0.4061 C.3            1 S1                 0.0000
     17 ****        -2.3388   1.0105   0.5904 N.2            1 S1                 0.0000
     18 ****        -3.5232   3.5604   2.3181 H              1 S1                 0.0000
     19 ****        -2.2137   2.5138   2.8620 H              1 S1                 0.0000
     20 ****        -3.8439   1.8636   2.6684 H              1 S1                 0.0000
     21 ****        -3.3708   4.1095  -0.0934 H              1 S1                 0.0000
     22 ****        -2.8513   3.3958  -2.3586 H              1 S1                 0.0000
     23 ****        -1.8871  -1.3236   0.0624 H              1 S1                 0.0000
     24 ****        -1.8881  -1.2801  -1.6590 H              1 S1                 0.0000
     25 ****         1.4695  -0.7158  -2.0831 H              1 S1                 0.0000
     26 ****         0.5504   1.1649  -0.0956 H              1 S1                 0.0000
     27 ****         0.3008   0.0294   1.2051 H              1 S1                 0.0000
     28 ****         2.7450   0.1897  -0.6116 H              1 S1                 0.0000
     29 ****         2.6640   0.6264   1.0754 H              1 S1                 0.0000
     30 ****         2.1798  -1.7144   1.7024 H              1 S1                 0.0000
     31 ****         4.6430  -1.5138  -0.0957 H              1 S1                 0.0000
     32 ****         4.3794  -2.7220   1.1590 H              1 S1                 0.0000
     33 ****         4.5583  -1.0274   1.5954 H              1 S1                 0.0000
     34 ****         2.4750  -2.3632  -1.2634 H              1 S1                 0.0000
     35 ****         2.2247  -3.5210   0.0165 H              1 S1                 0.0000
     36 ****         0.0314  -2.5959   0.5450 H              1 S1                 0.0000
     37 ****         0.0877  -3.0085  -1.1463 H              1 S1                 0.0000
     38 ****        -2.0917   1.5707  -3.7368 LP             1 S1                 0.0000
     39 ****        -1.5937   0.0434  -3.0892 LP             1 S1                 0.0000
     40 ****         0.2827   0.3087  -2.3516 LP             1 S1                 0.0000
     41 ****         0.1165  -1.2774  -2.7031 LP             1 S1                 0.0000
     42 ****        -2.2117   0.3744   1.3516 LP             1 S1                 0.0000
@<TRIPOS>BOND
    1    1    2 1     
    2    1   18 1     
    3    1   19 1     
    4    1   20 1     
    5    2   17 2     
    6    2    3 1     
    7    3    4 2     
    8    3   21 1     
    9    4    5 1     
   10    4   22 1     
   11    5    6 2     
   12    5    7 am    
   13    7    8 1     
   14    7   17 1     
   15    8    9 1     
   16    8   23 1     
   17    8   24 1     
   18    9   16 1     
   19    9   10 1     
   20    9   11 1     
   21   10   25 1     
   22   11   12 1     
   23   11   26 1     
   24   11   27 1     
   25   12   13 1     
   26   12   28 1     
   27   12   29 1     
   28   13   14 1     
   29   13   15 1     
   30   13   30 1     
   31   14   31 1     
   32   14   32 1     
   33   14   33 1     
   34   15   16 1     
   35   15   34 1     
   36   15   35 1     
   37   16   36 1     
   38   16   37 1     
   39    6   38 1     
   40    6   39 1     
   41   10   40 1     
   42   10   41 1     
   43   17   42 1     
@<TRIPOS>SUBSTRUCTURE
      1 S1             1
@<TRIPOS>SET
LONE_PAIRS      STATIC     ATOMS    <user>   **** ""
5 38 39 40 41 42
DONOR_HYDROGENS      STATIC     ATOMS    <user>   **** ""
1 25
ATOM$BLUE        STATIC     ATOMS    COLORGROUP SYSTEM
5 38 39 40 41 42
ATOM$RED        STATIC     ATOMS    COLORGROUP SYSTEM
1 25
