#       Name:                AV-unprocessed.smi:926
#       Creating user name   scv26
#       Creation time:       Fri Mar 27 02:09:13 2020


#       File generated by GOLD software.
#

@<TRIPOS>MOLECULE
AV-unprocessed.smi:926
    42    44     1
SMALL
NO_CHARGES


@<TRIPOS>ATOM
      1 ****        -1.9941   0.9140   0.8627 O.2            1 S1                 0.0000
      2 ****        -2.4061  -0.2321   1.0506 C.2            1 S1                 0.0000
      3 ****        -3.9075  -0.5383   1.1101 C.3            1 S1                 0.0000
      4 ****        -4.7305   0.6577   1.0542 N.pl3          1 S1                 0.0000
      5 ****        -5.1105   1.4147   0.0224 C.2            1 S1                 0.0000
      6 ****        -5.8686   2.4280   0.4123 N.2            1 S1                 0.0000
      7 ****        -5.9421   2.2560   1.7846 N.2            1 S1                 0.0000
      8 ****        -5.2689   1.2070   2.1712 N.2            1 S1                 0.0000
      9 ****        -1.5907  -1.2859   1.2079 N.am           1 S1                 0.0000
     10 ****        -0.1344  -1.2257   1.1797 C.3            1 S1                 0.0000
     11 ****         0.4017  -1.1804  -0.2618 C.3            1 S1                 0.0000
     12 ****         1.9405  -1.1288  -0.3386 C.3            1 S1                 0.0000
     13 ****         2.4949  -1.0489  -1.7775 C.3            1 S1                 0.0000
     14 ****         3.4716   0.1397  -1.7055 C.3            1 S1                 0.0000
     15 ****         2.6669   1.4505  -1.6280 C.3            1 S1                 0.0000
     16 ****         2.1124   1.4222  -0.1920 C.3            1 S1                 0.0000
     17 ****         2.6331   0.0745   0.3484 C.3            1 S1                 0.0000
     18 ****         4.0185   0.0195  -0.2874 C.3            1 S1                 0.0000
     19 ****        -4.1783  -1.1832   0.2734 H              1 S1                 0.0000
     20 ****        -4.1342  -1.0850   2.0270 H              1 S1                 0.0000
     21 ****        -4.8310   1.2261  -1.0037 H              1 S1                 0.0000
     22 ****        -2.0075  -2.1935   1.3581 H              1 S1                 0.0000
     23 ****         0.2071  -0.3597   1.7488 H              1 S1                 0.0000
     24 ****         0.2529  -2.1061   1.6930 H              1 S1                 0.0000
     25 ****         0.0569  -2.0678  -0.7941 H              1 S1                 0.0000
     26 ****        -0.0305  -0.3353  -0.7973 H              1 S1                 0.0000
     27 ****         2.3247  -2.0412   0.1213 H              1 S1                 0.0000
     28 ****         3.0197  -1.9695  -2.0361 H              1 S1                 0.0000
     29 ****         1.7182  -0.8912  -2.5269 H              1 S1                 0.0000
     30 ****         4.2247   0.1354  -2.4939 H              1 S1                 0.0000
     31 ****         3.3146   2.3163  -1.7716 H              1 S1                 0.0000
     32 ****         1.8765   1.4957  -2.3783 H              1 S1                 0.0000
     33 ****         2.5283   2.2478   0.3871 H              1 S1                 0.0000
     34 ****         1.0280   1.5183  -0.1520 H              1 S1                 0.0000
     35 ****         2.6359   0.0142   1.4370 H              1 S1                 0.0000
     36 ****         4.5451  -0.9188  -0.1041 H              1 S1                 0.0000
     37 ****         4.6623   0.8526   0.0006 H              1 S1                 0.0000
     38 ****        -2.6431   1.6658   0.7456 LP             1 S1                 0.0000
     39 ****        -1.0108   1.0924   0.8273 LP             1 S1                 0.0000
     40 ****        -6.2864   3.1434  -0.1479 LP             1 S1                 0.0000
     41 ****        -6.4473   2.8596   2.4014 LP             1 S1                 0.0000
     42 ****        -5.1694   0.8732   3.1085 LP             1 S1                 0.0000
@<TRIPOS>BOND
    1    1    2 2     
    2    2    3 1     
    3    2    9 am    
    4    3    4 1     
    5    3   19 1     
    6    3   20 1     
    7    4    8 1     
    8    4    5 1     
    9    5    6 2     
   10    5   21 1     
   11    6    7 1     
   12    7    8 2     
   13    9   10 1     
   14    9   22 1     
   15   10   11 1     
   16   10   23 1     
   17   10   24 1     
   18   11   12 1     
   19   11   25 1     
   20   11   26 1     
   21   12   17 1     
   22   12   13 1     
   23   12   27 1     
   24   13   14 1     
   25   13   28 1     
   26   13   29 1     
   27   14   18 1     
   28   14   15 1     
   29   14   30 1     
   30   15   16 1     
   31   15   31 1     
   32   15   32 1     
   33   16   17 1     
   34   16   33 1     
   35   16   34 1     
   36   17   18 1     
   37   17   35 1     
   38   18   36 1     
   39   18   37 1     
   40    1   38 1     
   41    1   39 1     
   42    6   40 1     
   43    7   41 1     
   44    8   42 1     
@<TRIPOS>SUBSTRUCTURE
      1 S1             1
@<TRIPOS>SET
LONE_PAIRS      STATIC     ATOMS    <user>   **** ""
5 38 39 40 41 42
DONOR_HYDROGENS      STATIC     ATOMS    <user>   **** ""
1 22
ATOM$BLUE        STATIC     ATOMS    COLORGROUP SYSTEM
5 38 39 40 41 42
ATOM$RED        STATIC     ATOMS    COLORGROUP SYSTEM
1 22
