AV-unprocessed.smi:1918|AV-procd|sdf|7770|dock3
  -GOLD-   22720 9513D 1   1.00000     0.00000
 Structure written by MMmdl.
 35 37  0  0  0  0  0  0  0  0  1 V2000
  152.2571  139.7199  155.8832 C   0  0  0  0  0  0  0  0  0  0  0  0
  150.9061  140.2986  155.6050 C   0  0  0  0  0  0  0  0  0  0  0  0
  150.3180  140.1909  154.4137 N   0  0  0  0  0  0  0  0  0  0  0  0
  149.1181  140.8475  154.6083 C   0  0  0  0  0  0  0  0  0  0  0  0
  148.0448  141.0808  153.7187 C   0  0  0  0  0  0  0  0  0  0  0  0
  146.9026  141.7874  154.1485 C   0  0  0  0  0  0  0  0  0  0  0  0
  146.8171  142.2704  155.4705 C   0  0  0  0  0  0  0  0  0  0  0  0
  147.8753  142.0488  156.3728 C   0  0  0  0  0  0  0  0  0  0  0  0
  149.0132  141.3424  155.9394 C   0  0  0  0  0  0  0  0  0  0  0  0
  150.2026  140.9627  156.5549 N   0  0  0  0  0  0  0  0  0  0  0  0
  150.5929  141.2302  157.9327 C   0  0  0  0  0  0  0  0  0  0  0  0
  151.3937  142.5391  158.0845 C   0  0  1  0  0  0  0  0  0  0  0  0
  150.5917  143.6429  157.7080 O   0  0  0  0  0  0  0  0  0  0  0  0
  151.9571  142.6786  159.4928 C   0  0  0  0  0  0  0  0  0  0  0  0
  151.5652  143.7543  160.3219 C   0  0  0  0  0  0  0  0  0  0  0  0
  152.0868  143.8763  161.6243 C   0  0  0  0  0  0  0  0  0  0  0  0
  152.9997  142.9212  162.1098 C   0  0  0  0  0  0  0  0  0  0  0  0
  153.5021  143.0390  163.3615 F   0  0  0  0  0  0  0  0  0  0  0  0
  153.3868  141.8415  161.2938 C   0  0  0  0  0  0  0  0  0  0  0  0
  152.8664  141.7175  159.9908 C   0  0  0  0  0  0  0  0  0  0  0  0
  153.2427  140.6671  159.2221 F   0  0  0  0  0  0  0  0  0  0  0  0
  152.6824  139.2898  154.9758 H   0  0  0  0  0  0  0  0  0  0  0  0
  152.1823  138.9328  156.6334 H   0  0  0  0  0  0  0  0  0  0  0  0
  152.9359  140.4910  156.2466 H   0  0  0  0  0  0  0  0  0  0  0  0
  148.1011  140.7158  152.7039 H   0  0  0  0  0  0  0  0  0  0  0  0
  146.0884  141.9607  153.4603 H   0  0  0  0  0  0  0  0  0  0  0  0
  145.9392  142.8118  155.7913 H   0  0  0  0  0  0  0  0  0  0  0  0
  147.8150  142.4207  157.3848 H   0  0  0  0  0  0  0  0  0  0  0  0
  149.6939  141.2622  158.5495 H   0  0  0  0  0  0  0  0  0  0  0  0
  151.1778  140.3855  158.2980 H   0  0  0  0  0  0  0  0  0  0  0  0
  152.2294  142.5271  157.3847 H   0  0  0  0  0  0  0  0  0  0  0  0
  149.9388  143.3433  157.0940 H   0  0  0  0  0  0  0  0  0  0  0  0
  150.8608  144.4912  159.9647 H   0  0  0  0  0  0  0  0  0  0  0  0
  151.7852  144.7026  162.2512 H   0  0  0  0  0  0  0  0  0  0  0  0
  154.0832  141.1054  161.6683 H   0  0  0  0  0  0  0  0  0  0  0  0
  1  2  1  0  0  0  0
  1 22  1  0  0  0  0
  1 23  1  0  0  0  0
  1 24  1  0  0  0  0
  2 10  1  0  0  0  0
  2  3  2  0  0  0  0
  3  4  1  0  0  0  0
  4  9  2  0  0  0  0
  4  5  1  0  0  0  0
  5  6  2  0  0  0  0
  5 25  1  0  0  0  0
  6  7  1  0  0  0  0
  6 26  1  0  0  0  0
  7  8  2  0  0  0  0
  7 27  1  0  0  0  0
  8  9  1  0  0  0  0
  8 28  1  0  0  0  0
  9 10  1  0  0  0  0
 10 11  1  0  0  0  0
 11 12  1  0  0  0  0
 11 29  1  0  0  0  0
 11 30  1  0  0  0  0
 12 13  1  0  0  0  0
 12 14  1  0  0  0  0
 12 31  1  0  0  0  0
 13 32  1  0  0  0  0
 14 20  1  0  0  0  0
 14 15  2  0  0  0  0
 15 16  1  0  0  0  0
 15 33  1  0  0  0  0
 16 17  2  0  0  0  0
 16 34  1  0  0  0  0
 17 18  1  0  0  0  0
 17 19  1  0  0  0  0
 19 20  2  0  0  0  0
 19 35  1  0  0  0  0
 20 21  1  0  0  0  0
M  END
> <s_m_source_file>
AV-unprocessed.smi

> <i_m_source_file_index>
1918

> <i_lp_mmshare_version>
43012

> <i_f3d_flags>
0

> <s_epik_input>
W2NIXTFbY0hdW2NIXVtjSF1jKGMxMiluKGMobjIpW0NIM10pW0NIMl1bQ0BIXShbT0hdKWMzW2NIXVtjSF1jKEYpW2NIXWMzRg==

> <s_epik_cmdline>
J2VwaWtfcHl0aG9uJywgJy1waCcsICc3LjAnLCAnLXRuJywgJzgnLCAnLW1hJywgJzIwMCcsICctbWV0YWxfYmluZGluZycsICctaW1hZScsICc8aW5maWxlLm1hZT4nLCAnLW9tYWUnLCAnPG91dGZpbGUubWFlPic=

> <r_epik_Ionization_Penalty>
0.129663

> <r_epik_Ionization_Penalty_Charging>
0

> <r_epik_Ionization_Penalty_Neutral>
0.129663

> <r_epik_State_Penalty>
0.119073

> <r_epik_Charging_Adjusted_Penalty>
0.119073

> <i_epik_Tot_Q>
0

> <i_epik_Tot_abs_Q>
0

> <r_epik_Metal_State_Penalty>
0.000131867

> <b_epik_Metal_Only>
0

> <s_lp_Force_Field>
OPLS_2005

> <r_lp_Energy>
11.52

> <b_lp_Chiralities_Consistent>
1

> <s_lp_Variant>
AV-unprocessed.smi:1918-2

> <Gold.Version>
5.8.1

> <Gold.Id.Protein>
6NUR|6NUR_protein|mol2

> <Gold.PLP.Fitness>
55.0228

> <Gold.PLP.PLP>
-52.6539

> <Gold.PLP.part.hbond>
-2.0000

> <Gold.PLP.part.metal>
0.0000

> <Gold.PLP.part.buried>
-2.1611

> <Gold.PLP.part.nonpolar>
-47.3892

> <Gold.PLP.part.repulsive>
0.1045

> <Gold.PLP.ligand.clash>
0.0000

> <Gold.PLP.ligand.torsion>
0.4236

> <Gold.PLP.Chemscore.Hbond>
1.0611

> <Gold.PLP.Chemscore.CHOScore>
0.0000

> <Gold.PLP.Chemscore.Metal>
0.0000

> <Gold.Chemscore.Hbonds>
donor molecule, donor type, donor heavy atom, donor atom, acceptor molecule, acceptor atom, score
      L1  H    13    32       P1  8028  0.21
      P1  H  7989  7998       L1     3  0.85

> <Gold.PLP.Chemscore.Internal.Correction>
0.0328

> <Gold.Rescore>
     Score         DG    S(hbond)    S(metal)    S(lipo)     H(rot)  DE(clash)    DE(int)     intcor
     15.28     -16.20       0.56        0.00     116.97       1.88       0.33       0.59       ----

> <Gold.Chemscore.Fitness>
15.2782

> <Gold.Chemscore.DG>
-16.2037

> <Gold.Chemscore.ZeroCoef>
-5.4800

> <Gold.Chemscore.Hbond>
0.5570

> <Gold.Chemscore.Metal>
0.0000

> <Gold.Chemscore.Lipo>
116.9739

> <Gold.Chemscore.Internal_Hbond>
0.0000

> <Gold.Chemscore.DEClash>
0.3312

> <Gold.Chemscore.DEInternal>
0.5942

> <Gold.Chemscore.Rot>
1.8839

> <Gold.Chemscore.Internal.Correction>
   9.000000E+99

> <Gold.Chemscore.Hbonds>
donor molecule, donor type, donor heavy atom, donor atom, acceptor molecule, acceptor atom, score
      L1  H    13    32       P1  8028  0.21
      P1  H  7989  7998       L1     3  0.14

> <Gold.Chemscore.Hbond.Weighted>
-1.8605

> <Gold.Chemscore.Metal.Weighted>
-0.0000

> <Gold.Chemscore.Lipo.Weighted>
-13.6859

> <Gold.Chemscore.Internal_Hbond.Weighted>
0.0000

> <Gold.Chemscore.DEClash.Weighted>
0.3312

> <Gold.Chemscore.DEInternal.Weighted>
0.5942

> <Gold.Chemscore.Rot.Weighted>
4.8227

> <Gold.Chemscore.Internal.Correction.Weighted>
   9.000000E+99

> <Gold.Protein.RotatedTorsions>
[ 6907 6896 6895 6894 ] final  -81.26 input  -60.11 | X-H torsion
[ 7974 7965 7964 7962 ] final  153.59 input  175.53 | X-H torsion
[ 8008 7997 7996 7995 ] final  171.62 input   59.86 | X-H torsion
[ 10167 10162 10161 10158 ] final  118.41 input  -65.29 | X-H torsion
[ 10718 10713 10712 10709 ] final   -5.01 input   66.30 | X-H torsion
[ 10763 10752 10751 10750 ] final  105.83 input  -60.55 | X-H torsion
[ 11005 11000 10999 10996 ] final  133.55 input  -57.11 | X-H torsion

> <Gold.Protein.ActiveResidues>
 VAL166  LYS551  ARG553  GLY616  TRP617  ASP618  TYR619  PRO620  LYS621  CYS622 
 ASP623  PHE694  ASN695  SER759  ASP760  ASP761  ALA762  ILE779  LEU786  VAL792 
 PHE793  MET794  SER795  GLU796  ALA797  LYS798  CYS799  TRP800  GLU811  SER814 

> <Gold.Protein.RotatedAtoms>
  150.6915  134.3844  159.5048 H   0  0  0  0  0  0  0  0  0  0  0  0  # atno 6907 bound_to 6896
  152.1642  134.8885  160.0548 H   0  0  0  0  0  0  0  0  0  0  0  0  # atno 6908 bound_to 6896
  151.9935  133.3765  159.4190 H   0  0  0  0  0  0  0  0  0  0  0  0  # atno 6909 bound_to 6896
  144.8145  139.6820  143.6127 H   0  0  0  0  0  0  0  0  0  0  0  0  # atno 7974 bound_to 7965
  156.1254  140.1507  156.9144 H   0  0  0  0  0  0  0  0  0  0  0  0  # atno 8008 bound_to 7997
  154.4867  140.0863  156.7544 H   0  0  0  0  0  0  0  0  0  0  0  0  # atno 8009 bound_to 7997
  155.4353  140.3429  155.4286 H   0  0  0  0  0  0  0  0  0  0  0  0  # atno 8010 bound_to 7997
  139.6113  144.7082  151.2837 H   0  0  0  0  0  0  0  0  0  0  0  0  # atno 10167 bound_to 10162
  156.7529  130.5245  149.5800 H   0  0  0  0  0  0  0  0  0  0  0  0  # atno 10718 bound_to 10713
  153.3847  135.3897  155.1881 H   0  0  0  0  0  0  0  0  0  0  0  0  # atno 10763 bound_to 10752
  154.8712  135.3734  154.4813 H   0  0  0  0  0  0  0  0  0  0  0  0  # atno 10764 bound_to 10752
  153.5293  135.7086  153.5752 H   0  0  0  0  0  0  0  0  0  0  0  0  # atno 10765 bound_to 10752
  139.9859  134.9532  156.9741 H   0  0  0  0  0  0  0  0  0  0  0  0  # atno 11005 bound_to 11000
  146.2447  139.6072  142.9468 LP  0  0  0  0  0  0  0  0  0  0  0  0  # atno 17320 bound_to 7965
  145.5247  141.0430  143.2416 LP  0  0  0  0  0  0  0  0  0  0  0  0  # atno 17321 bound_to 7965
  140.7321  143.6832  150.7983 LP  0  0  0  0  0  0  0  0  0  0  0  0  # atno 17342 bound_to 10162
  140.0428  143.5329  152.2710 LP  0  0  0  0  0  0  0  0  0  0  0  0  # atno 17343 bound_to 10162
  156.1389  130.6231  151.0439 LP  0  0  0  0  0  0  0  0  0  0  0  0  # atno 17370 bound_to 10713
  157.6769  131.0848  150.7471 LP  0  0  0  0  0  0  0  0  0  0  0  0  # atno 17371 bound_to 10713
  140.5004  134.1103  155.7249 LP  0  0  0  0  0  0  0  0  0  0  0  0  # atno 17394 bound_to 11000
  141.1524  133.8945  157.2064 LP  0  0  0  0  0  0  0  0  0  0  0  0  # atno 17395 bound_to 11000

$$$$
