AV-unprocessed.smi:2772|AV-procd|sdf|10674|dock9
  -GOLD-   2272015123D 1   1.00000     0.00000
 Structure written by MMmdl.
 56 58  0  0  0  0  0  0  0  0  4 V2000
  145.2114  132.2641  151.5503 C   0  0  0  0  0  0  0  0  0  0  0  0
  144.6286  133.6327  151.8326 C   0  0  0  0  0  0  0  0  0  0  0  0
  145.1160  134.8047  151.2174 C   0  0  0  0  0  0  0  0  0  0  0  0
  144.5243  136.0452  151.5342 C   0  0  0  0  0  0  0  0  0  0  0  0
  143.4628  136.0995  152.4646 C   0  0  0  0  0  0  0  0  0  0  0  0
  142.8931  137.3723  152.7464 N   0  0  0  0  0  0  0  0  0  0  0  0
  141.8276  137.6611  153.5147 C   0  0  0  0  0  0  0  0  0  0  0  0
  141.1602  136.8371  154.1390 O   0  0  0  0  0  0  0  0  0  0  0  0
  141.5834  138.9803  153.5338 N   0  0  0  0  0  0  0  0  0  0  0  0
  140.5085  139.6355  154.2771 C   0  0  2  0  0  0  0  0  0  0  0  0
  139.1436  139.1771  153.7557 C   0  0  0  0  0  0  0  0  0  0  0  0
  137.9984  139.9029  154.4820 C   0  0  0  0  0  0  0  0  0  0  0  0
  138.1018  141.3901  154.3769 N   0  3  1  0  0  0  0  0  0  0  0  0
  136.9589  142.1147  155.0355 C   0  0  2  0  0  0  0  0  0  0  0  0
  135.5710  141.4756  154.7757 C   0  0  0  0  0  0  0  0  0  0  0  0
  135.1393  141.6151  153.3037 C   0  0  0  0  0  0  0  0  0  0  0  0
  135.1039  143.0409  152.8918 N   0  3  2  0  0  0  0  0  0  0  0  0
  134.6182  143.2171  151.5061 C   0  0  0  0  0  0  0  0  0  0  0  0
  136.3963  143.7305  153.1320 C   0  0  0  0  0  0  0  0  0  0  0  0
  136.8273  143.5971  154.6046 C   0  0  0  0  0  0  0  0  0  0  0  0
  139.4411  141.8601  154.8452 C   0  0  0  0  0  0  0  0  0  0  0  0
  140.6019  141.1561  154.1224 C   0  0  0  0  0  0  0  0  0  0  0  0
  143.0087  134.8850  153.0377 C   0  0  0  0  0  0  0  0  0  0  0  0
  143.6020  133.7175  152.7068 N   0  3  0  0  0  0  0  0  0  0  0  0
  146.0444  132.3277  150.8496 H   0  0  0  0  0  0  0  0  0  0  0  0
  144.4529  131.6095  151.1199 H   0  0  0  0  0  0  0  0  0  0  0  0
  145.5762  131.8091  152.4718 H   0  0  0  0  0  0  0  0  0  0  0  0
  145.9330  134.7578  150.5119 H   0  0  0  0  0  0  0  0  0  0  0  0
  144.8909  136.9483  151.0678 H   0  0  0  0  0  0  0  0  0  0  0  0
  143.3841  138.1625  152.3537 H   0  0  0  0  0  0  0  0  0  0  0  0
  142.1892  139.5792  152.9916 H   0  0  0  0  0  0  0  0  0  0  0  0
  140.5716  139.3911  155.3392 H   0  0  0  0  0  0  0  0  0  0  0  0
  139.0708  139.3641  152.6831 H   0  0  0  0  0  0  0  0  0  0  0  0
  139.0366  138.0998  153.8893 H   0  0  0  0  0  0  0  0  0  0  0  0
  137.0761  139.5430  154.0322 H   0  0  0  0  0  0  0  0  0  0  0  0
  137.9778  139.6125  155.5336 H   0  0  0  0  0  0  0  0  0  0  0  0
  137.1454  142.0888  156.1105 H   0  0  0  0  0  0  0  0  0  0  0  0
  135.5168  140.4384  155.1005 H   0  0  0  0  0  0  0  0  0  0  0  0
  134.8327  141.9846  155.3974 H   0  0  0  0  0  0  0  0  0  0  0  0
  135.8170  141.0588  152.6544 H   0  0  0  0  0  0  0  0  0  0  0  0
  134.1479  141.1789  153.1736 H   0  0  0  0  0  0  0  0  0  0  0  0
  135.2919  142.7436  150.7906 H   0  0  0  0  0  0  0  0  0  0  0  0
  134.5423  144.2758  151.2556 H   0  0  0  0  0  0  0  0  0  0  0  0
  133.6277  142.7764  151.3867 H   0  0  0  0  0  0  0  0  0  0  0  0
  137.1630  143.3209  152.4724 H   0  0  0  0  0  0  0  0  0  0  0  0
  136.2930  144.7864  152.8787 H   0  0  0  0  0  0  0  0  0  0  0  0
  136.0688  144.0744  155.2273 H   0  0  0  0  0  0  0  0  0  0  0  0
  137.7284  144.1753  154.7980 H   0  0  0  0  0  0  0  0  0  0  0  0
  139.5679  142.9248  154.6635 H   0  0  0  0  0  0  0  0  0  0  0  0
  139.5243  141.7072  155.9223 H   0  0  0  0  0  0  0  0  0  0  0  0
  141.5520  141.5133  154.5223 H   0  0  0  0  0  0  0  0  0  0  0  0
  140.5905  141.4263  153.0652 H   0  0  0  0  0  0  0  0  0  0  0  0
  142.1923  134.7913  153.7372 H   0  0  0  0  0  0  0  0  0  0  0  0
  138.0540  141.6067  153.3918 H   0  0  0  0  0  0  0  0  0  0  0  0
  134.4249  143.4934  153.4880 H   0  0  0  0  0  0  0  0  0  0  0  0
  143.2565  132.8588  153.1364 H   0  0  0  0  0  0  0  0  0  0  0  0
  1  2  1  0  0  0  0
  1 25  1  0  0  0  0
  1 26  1  0  0  0  0
  1 27  1  0  0  0  0
  2 24  1  0  0  0  0
  2  3  2  0  0  0  0
  3  4  1  0  0  0  0
  3 28  1  0  0  0  0
  4  5  2  0  0  0  0
  4 29  1  0  0  0  0
  5  6  1  0  0  0  0
  5 23  1  0  0  0  0
  6  7  1  0  0  0  0
  6 30  1  0  0  0  0
  7  8  2  0  0  0  0
  7  9  1  0  0  0  0
  9 10  1  0  0  0  0
  9 31  1  0  0  0  0
 10 22  1  0  0  0  0
 10 11  1  0  0  0  0
 10 32  1  0  0  0  0
 11 12  1  0  0  0  0
 11 33  1  0  0  0  0
 11 34  1  0  0  0  0
 12 13  1  0  0  0  0
 12 35  1  0  0  0  0
 12 36  1  0  0  0  0
 13 14  1  0  0  0  0
 13 21  1  0  0  0  0
 13 54  1  0  0  0  0
 14 20  1  0  0  0  0
 14 15  1  0  0  0  0
 14 37  1  0  0  0  0
 15 16  1  0  0  0  0
 15 38  1  0  0  0  0
 15 39  1  0  0  0  0
 16 17  1  0  0  0  0
 16 40  1  0  0  0  0
 16 41  1  0  0  0  0
 17 18  1  0  0  0  0
 17 19  1  0  0  0  0
 17 55  1  0  0  0  0
 18 42  1  0  0  0  0
 18 43  1  0  0  0  0
 18 44  1  0  0  0  0
 19 20  1  0  0  0  0
 19 45  1  0  0  0  0
 19 46  1  0  0  0  0
 20 47  1  0  0  0  0
 20 48  1  0  0  0  0
 21 22  1  0  0  0  0
 21 49  1  0  0  0  0
 21 50  1  0  0  0  0
 22 51  1  0  0  0  0
 22 52  1  0  0  0  0
 23 24  2  0  0  0  0
 23 53  1  0  0  0  0
 24 56  1  0  0  0  0
M  CHG  1  13   1
M  CHG  1  17   1
M  CHG  1  24   1
M  END
> <s_m_source_file>
AV-unprocessed.smi

> <i_m_source_file_index>
2772

> <i_lp_mmshare_version>
43012

> <i_f3d_flags>
0

> <s_epik_input>
W0NIM11jMVtjSF1bY0hdYyhbY0hdbjEpW05IXUMoPU8pW05IXVtDSF0yW0NIMl1bQ0gyXU4oW0NIMl1bQ0gyXTIpW0NIXTNbQ0gyXVtDSDJdTihbQ0gzXSlbQ0gyXVtDSDJdMw==

> <s_epik_cmdline>
J2VwaWtfcHl0aG9uJywgJy1waCcsICc3LjAnLCAnLXRuJywgJzgnLCAnLW1hJywgJzIwMCcsICctbWV0YWxfYmluZGluZycsICctaW1hZScsICc8aW5maWxlLm1hZT4nLCAnLW9tYWUnLCAnPG91dGZpbGUubWFlPic=

> <r_epik_Ionization_Penalty>
2.34117

> <r_epik_Ionization_Penalty_Charging>
2.34115

> <r_epik_Ionization_Penalty_Neutral>
2.22786e-05

> <r_epik_State_Penalty>
2.43944

> <r_epik_Charging_Adjusted_Penalty>
4.78059

> <i_epik_Tot_Q>
3

> <i_epik_Tot_abs_Q>
3

> <r_epik_Metal_State_Penalty>
2.45906

> <b_epik_Metal_Only>
0

> <s_lp_Force_Field>
OPLS_2005

> <r_lp_Energy>
56.0688

> <b_lp_Chiralities_Consistent>
1

> <s_lp_Variant>
AV-unprocessed.smi:2772-11

> <Gold.Version>
5.8.1

> <Gold.Id.Protein>
6NUR|6NUR_protein|mol2

> <Gold.PLP.Fitness>
40.4105

> <Gold.PLP.PLP>
-30.8310

> <Gold.PLP.part.hbond>
-2.8811

> <Gold.PLP.part.metal>
0.0000

> <Gold.PLP.part.buried>
-5.0358

> <Gold.PLP.part.nonpolar>
-23.3946

> <Gold.PLP.part.repulsive>
0.0963

> <Gold.PLP.ligand.clash>
0.0000

> <Gold.PLP.ligand.torsion>
0.2080

> <Gold.PLP.Chemscore.Hbond>
3.3229

> <Gold.PLP.Chemscore.CHOScore>
0.0000

> <Gold.PLP.Chemscore.Metal>
0.0000

> <Gold.Chemscore.Hbonds>
donor molecule, donor type, donor heavy atom, donor atom, acceptor molecule, acceptor atom, score
      L1  H     6    30       P1 10175  0.33
      L1  H     9    31       P1 10175  1.00
      L1  H    24    56       P1 10957  1.89

> <Gold.PLP.Chemscore.Internal.Correction>
0.0269

> <Gold.Rescore>
     Score         DG    S(hbond)    S(metal)    S(lipo)     H(rot)  DE(clash)    DE(int)     intcor
     19.45     -21.03       2.74        0.00      81.41       1.22       0.08       1.49       ----

> <Gold.Chemscore.Fitness>
19.4515

> <Gold.Chemscore.DG>
-21.0262

> <Gold.Chemscore.ZeroCoef>
-5.4800

> <Gold.Chemscore.Hbond>
2.7394

> <Gold.Chemscore.Metal>
0.0000

> <Gold.Chemscore.Lipo>
81.4146

> <Gold.Chemscore.Internal_Hbond>
0.0000

> <Gold.Chemscore.DEClash>
0.0849

> <Gold.Chemscore.DEInternal>
1.4899

> <Gold.Chemscore.Rot>
1.2222

> <Gold.Chemscore.Internal.Correction>
   9.000000E+99

> <Gold.Chemscore.Hbonds>
donor molecule, donor type, donor heavy atom, donor atom, acceptor molecule, acceptor atom, score
      L1  H     6    30       P1 10175  0.32
      L1  H     9    31       P1 10175  0.85
      L1  H    24    56       P1 10957  0.44

> <Gold.Chemscore.Hbond.Weighted>
-9.1496

> <Gold.Chemscore.Metal.Weighted>
-0.0000

> <Gold.Chemscore.Lipo.Weighted>
-9.5255

> <Gold.Chemscore.Internal_Hbond.Weighted>
0.0000

> <Gold.Chemscore.DEClash.Weighted>
0.0849

> <Gold.Chemscore.DEInternal.Weighted>
1.4899

> <Gold.Chemscore.Rot.Weighted>
3.1289

> <Gold.Chemscore.Internal.Correction.Weighted>
   9.000000E+99

> <Gold.Protein.RotatedTorsions>
[ 6907 6896 6895 6894 ] final  -99.05 input  -60.11 | X-H torsion
[ 7974 7965 7964 7962 ] final  135.52 input  175.53 | X-H torsion
[ 8008 7997 7996 7995 ] final -126.30 input   59.86 | X-H torsion
[ 10167 10162 10161 10158 ] final  118.88 input  -65.29 | X-H torsion
[ 10718 10713 10712 10709 ] final -100.19 input   66.30 | X-H torsion
[ 10763 10752 10751 10750 ] final  -75.21 input  -60.55 | X-H torsion
[ 11005 11000 10999 10996 ] final   25.06 input  -57.11 | X-H torsion

> <Gold.Protein.ActiveResidues>
 VAL166  LYS551  ARG553  GLY616  TRP617  ASP618  TYR619  PRO620  LYS621  CYS622 
 ASP623  PHE694  ASN695  SER759  ASP760  ASP761  ALA762  ILE779  LEU786  VAL792 
 PHE793  MET794  SER795  GLU796  ALA797  LYS798  CYS799  TRP800  GLU811  SER814 

> <Gold.Protein.RotatedAtoms>
  150.7067  134.1100  159.3996 H   0  0  0  0  0  0  0  0  0  0  0  0  # atno 6907 bound_to 6896
  151.9087  135.0346  160.0522 H   0  0  0  0  0  0  0  0  0  0  0  0  # atno 6908 bound_to 6896
  152.2354  133.5056  159.5276 H   0  0  0  0  0  0  0  0  0  0  0  0  # atno 6909 bound_to 6896
  144.9655  139.4663  143.5458 H   0  0  0  0  0  0  0  0  0  0  0  0  # atno 7974 bound_to 7965
  155.2275  140.0424  157.2957 H   0  0  0  0  0  0  0  0  0  0  0  0  # atno 8008 bound_to 7997
  154.5910  140.2426  155.7892 H   0  0  0  0  0  0  0  0  0  0  0  0  # atno 8009 bound_to 7997
  156.2259  140.2955  156.0073 H   0  0  0  0  0  0  0  0  0  0  0  0  # atno 8010 bound_to 7997
  139.6082  144.7075  151.2904 H   0  0  0  0  0  0  0  0  0  0  0  0  # atno 10167 bound_to 10162
  156.0156  130.5316  150.6781 H   0  0  0  0  0  0  0  0  0  0  0  0  # atno 10718 bound_to 10713
  154.4834  135.5839  153.6406 H   0  0  0  0  0  0  0  0  0  0  0  0  # atno 10763 bound_to 10752
  152.9851  135.6095  154.3217 H   0  0  0  0  0  0  0  0  0  0  0  0  # atno 10764 bound_to 10752
  154.3110  135.2845  155.2545 H   0  0  0  0  0  0  0  0  0  0  0  0  # atno 10765 bound_to 10752
  140.3519  134.2219  155.7679 H   0  0  0  0  0  0  0  0  0  0  0  0  # atno 11005 bound_to 11000
  146.3366  139.8833  142.8821 LP  0  0  0  0  0  0  0  0  0  0  0  0  # atno 17320 bound_to 7965
  145.2636  141.0085  143.3812 LP  0  0  0  0  0  0  0  0  0  0  0  0  # atno 17321 bound_to 7965
  140.7300  143.6891  150.7937 LP  0  0  0  0  0  0  0  0  0  0  0  0  # atno 17342 bound_to 10162
  140.0481  143.5278  152.2687 LP  0  0  0  0  0  0  0  0  0  0  0  0  # atno 17343 bound_to 10162
  157.4489  131.0870  151.0866 LP  0  0  0  0  0  0  0  0  0  0  0  0  # atno 17370 bound_to 10713
  157.1388  130.6134  149.5549 LP  0  0  0  0  0  0  0  0  0  0  0  0  # atno 17371 bound_to 10713
  141.2009  133.7975  157.0465 LP  0  0  0  0  0  0  0  0  0  0  0  0  # atno 17394 bound_to 11000
  140.0696  134.9710  157.1444 LP  0  0  0  0  0  0  0  0  0  0  0  0  # atno 17395 bound_to 11000

$$$$
