AV-unprocessed.smi:2525|AV-procd|sdf|9928|dock2
  -GOLD-   2272013563D 1   1.00000     0.00000
 Structure written by MMmdl.
 44 45  0  0  0  0  0  0  0  0  1 V2000
  149.0356  140.9047  154.7357 C   0  0  0  0  0  0  0  0  0  0  0  0
  149.0652  139.8863  155.8907 C   0  0  0  0  0  0  0  0  0  0  0  0
  150.3289  139.8922  156.8001 C   0  0  0  0  0  0  0  0  0  0  0  0
  150.4614  141.2586  157.5002 C   0  0  0  0  0  0  0  0  0  0  0  0
  149.2389  141.6723  158.3344 C   0  0  0  0  0  0  0  0  0  0  0  0
  150.5621  138.6606  157.7210 C   0  0  1  0  0  0  0  0  0  0  0  0
  149.3642  137.9178  158.0964 N   0  0  0  0  0  0  0  0  0  0  0  0
  149.3073  137.0210  159.0913 C   0  0  0  0  0  0  0  0  0  0  0  0
  150.2751  136.7389  159.7995 O   0  0  0  0  0  0  0  0  0  0  0  0
  147.9404  136.3656  159.3203 C   0  0  0  0  0  0  0  0  0  0  0  0
  147.7040  136.0389  160.7165 N   0  0  0  0  0  0  0  0  0  0  0  0
  147.4897  134.8004  161.2862 C   0  0  0  0  0  0  0  0  0  0  0  0
  147.3373  135.0838  162.6134 C   0  0  0  0  0  0  0  0  0  0  0  0
  147.4604  136.4604  162.7936 N   0  0  0  0  0  0  0  0  0  0  0  0
  147.6808  137.0235  161.6472 N   0  0  0  0  0  0  0  0  0  0  0  0
  151.3444  137.9758  156.5951 C   0  0  2  0  0  0  0  0  0  0  0  0
  152.4965  137.0503  156.9637 C   0  0  0  0  0  0  0  0  0  0  0  0
  151.6308  139.4043  156.1080 C   0  0  1  0  0  0  0  0  0  0  0  0
  151.6060  139.5766  154.6987 O   0  0  0  0  0  0  0  0  0  0  0  0
  152.2034  138.5040  153.9927 C   0  0  0  0  0  0  0  0  0  0  0  0
  148.0676  140.8781  154.2349 H   0  0  0  0  0  0  0  0  0  0  0  0
  149.7880  140.6827  153.9796 H   0  0  0  0  0  0  0  0  0  0  0  0
  149.1941  141.9258  155.0748 H   0  0  0  0  0  0  0  0  0  0  0  0
  148.1722  140.0501  156.4936 H   0  0  0  0  0  0  0  0  0  0  0  0
  148.9220  138.8952  155.4601 H   0  0  0  0  0  0  0  0  0  0  0  0
  151.3587  141.2960  158.1173 H   0  0  0  0  0  0  0  0  0  0  0  0
  150.6183  142.0339  156.7495 H   0  0  0  0  0  0  0  0  0  0  0  0
  149.3663  142.6819  158.7252 H   0  0  0  0  0  0  0  0  0  0  0  0
  149.0866  141.0114  159.1873 H   0  0  0  0  0  0  0  0  0  0  0  0
  148.3280  141.6637  157.7354 H   0  0  0  0  0  0  0  0  0  0  0  0
  151.2192  138.8913  158.5637 H   0  0  0  0  0  0  0  0  0  0  0  0
  148.5245  138.1001  157.5660 H   0  0  0  0  0  0  0  0  0  0  0  0
  147.1554  137.0367  158.9682 H   0  0  0  0  0  0  0  0  0  0  0  0
  147.8660  135.4478  158.7349 H   0  0  0  0  0  0  0  0  0  0  0  0
  147.4699  133.8766  160.7273 H   0  0  0  0  0  0  0  0  0  0  0  0
  147.1520  134.4197  163.4449 H   0  0  0  0  0  0  0  0  0  0  0  0
  150.6600  137.4813  155.9033 H   0  0  0  0  0  0  0  0  0  0  0  0
  153.2364  137.5607  157.5807 H   0  0  0  0  0  0  0  0  0  0  0  0
  153.0076  136.6752  156.0776 H   0  0  0  0  0  0  0  0  0  0  0  0
  152.1395  136.1868  157.5253 H   0  0  0  0  0  0  0  0  0  0  0  0
  152.5237  139.8339  156.5692 H   0  0  0  0  0  0  0  0  0  0  0  0
  152.1888  138.7199  152.9246 H   0  0  0  0  0  0  0  0  0  0  0  0
  151.6611  137.5725  154.1513 H   0  0  0  0  0  0  0  0  0  0  0  0
  153.2426  138.3624  154.2927 H   0  0  0  0  0  0  0  0  0  0  0  0
  1  2  1  0  0  0  0
  1 21  1  0  0  0  0
  1 22  1  0  0  0  0
  1 23  1  0  0  0  0
  2  3  1  0  0  0  0
  2 24  1  0  0  0  0
  2 25  1  0  0  0  0
  3 18  1  0  0  0  0
  3  4  1  0  0  0  0
  3  6  1  0  0  0  0
  4  5  1  0  0  0  0
  4 26  1  0  0  0  0
  4 27  1  0  0  0  0
  5 28  1  0  0  0  0
  5 29  1  0  0  0  0
  5 30  1  0  0  0  0
  6  7  1  0  0  0  0
  6 16  1  0  0  0  0
  6 31  1  0  0  0  0
  7  8  1  0  0  0  0
  7 32  1  0  0  0  0
  8  9  2  0  0  0  0
  8 10  1  0  0  0  0
 10 11  1  0  0  0  0
 10 33  1  0  0  0  0
 10 34  1  0  0  0  0
 11 15  1  0  0  0  0
 11 12  1  0  0  0  0
 12 13  2  0  0  0  0
 12 35  1  0  0  0  0
 13 14  1  0  0  0  0
 13 36  1  0  0  0  0
 14 15  2  0  0  0  0
 16 17  1  0  0  0  0
 16 18  1  0  0  0  0
 16 37  1  0  0  0  0
 17 38  1  0  0  0  0
 17 39  1  0  0  0  0
 17 40  1  0  0  0  0
 18 19  1  0  0  0  0
 18 41  1  0  0  0  0
 19 20  1  0  0  0  0
 20 42  1  0  0  0  0
 20 43  1  0  0  0  0
 20 44  1  0  0  0  0
M  END
> <s_m_source_file>
AV-unprocessed.smi

> <i_m_source_file_index>
2525

> <i_lp_mmshare_version>
43012

> <i_f3d_flags>
0

> <s_epik_input>
W0NIM11PW0NAQEhdMVtDQEhdKFtDSDNdKVtDQEBIXShDMShbQ0gyXVtDSDNdKVtDSDJdW0NIM10pW05IXUMoPU8pW0NIMl1uMltjSF1bY0hdbm4y

> <s_epik_cmdline>
J2VwaWtfcHl0aG9uJywgJy1waCcsICc3LjAnLCAnLXRuJywgJzgnLCAnLW1hJywgJzIwMCcsICctbWV0YWxfYmluZGluZycsICctaW1hZScsICc8aW5maWxlLm1hZT4nLCAnLW9tYWUnLCAnPG91dGZpbGUubWFlPic=

> <r_lp_tautomer_probability>
1

> <r_epik_Ionization_Penalty>
1.18045e-06

> <r_epik_Ionization_Penalty_Charging>
0

> <r_epik_Ionization_Penalty_Neutral>
1.18045e-06

> <r_epik_State_Penalty>
-0

> <r_epik_Charging_Adjusted_Penalty>
0

> <i_epik_Tot_Q>
0

> <i_epik_Tot_abs_Q>
0

> <r_epik_Metal_State_Penalty>
-0

> <b_epik_Metal_Only>
0

> <s_lp_Force_Field>
OPLS_2005

> <r_lp_Energy>
27.7257

> <b_lp_Chiralities_Consistent>
1

> <s_lp_Variant>
AV-unprocessed.smi:2525-3

> <Gold.Version>
5.8.1

> <Gold.Id.Protein>
6NUR|6NUR_protein|mol2

> <Gold.PLP.Fitness>
41.4060

> <Gold.PLP.PLP>
-31.9154

> <Gold.PLP.part.hbond>
-4.9130

> <Gold.PLP.part.metal>
0.0000

> <Gold.PLP.part.buried>
-6.5016

> <Gold.PLP.part.nonpolar>
-20.5741

> <Gold.PLP.part.repulsive>
0.1732

> <Gold.PLP.ligand.clash>
0.0000

> <Gold.PLP.ligand.torsion>
1.1840

> <Gold.PLP.Chemscore.Hbond>
3.7520

> <Gold.PLP.Chemscore.CHOScore>
0.0000

> <Gold.PLP.Chemscore.Metal>
0.0000

> <Gold.Chemscore.Hbonds>
donor molecule, donor type, donor heavy atom, donor atom, acceptor molecule, acceptor atom, score
      P1  H  6896  6907       L1     9  1.00
      P1  H  6931  6943       L1    15  1.00
      P1  H  6934  6947       L1    15  0.49
      P1  H  7989  7998       L1    19  1.00

> <Gold.PLP.Chemscore.Internal.Correction>
0.6025

> <Gold.Rescore>
     Score         DG    S(hbond)    S(metal)    S(lipo)     H(rot)  DE(clash)    DE(int)     intcor
     17.19     -18.77       3.10        0.00      68.49       1.98       0.07       1.51       ----

> <Gold.Chemscore.Fitness>
17.1903

> <Gold.Chemscore.DG>
-18.7678

> <Gold.Chemscore.ZeroCoef>
-5.4800

> <Gold.Chemscore.Hbond>
3.0980

> <Gold.Chemscore.Metal>
0.0000

> <Gold.Chemscore.Lipo>
68.4911

> <Gold.Chemscore.Internal_Hbond>
0.0000

> <Gold.Chemscore.DEClash>
0.0724

> <Gold.Chemscore.DEInternal>
1.5051

> <Gold.Chemscore.Rot>
1.9817

> <Gold.Chemscore.Internal.Correction>
   9.000000E+99

> <Gold.Chemscore.Hbonds>
donor molecule, donor type, donor heavy atom, donor atom, acceptor molecule, acceptor atom, score
      P1  H  6896  6907       L1     9  1.00
      P1  H  6931  6943       L1    15  0.59
      P1  H  6934  6947       L1    15  0.46
      P1  H  7989  7998       L1    19  0.30

> <Gold.Chemscore.Hbond.Weighted>
-10.3475

> <Gold.Chemscore.Metal.Weighted>
-0.0000

> <Gold.Chemscore.Lipo.Weighted>
-8.0135

> <Gold.Chemscore.Internal_Hbond.Weighted>
0.0000

> <Gold.Chemscore.DEClash.Weighted>
0.0724

> <Gold.Chemscore.DEInternal.Weighted>
1.5051

> <Gold.Chemscore.Rot.Weighted>
5.0731

> <Gold.Chemscore.Internal.Correction.Weighted>
   9.000000E+99

> <Gold.Protein.RotatedTorsions>
[ 6907 6896 6895 6894 ] final  -27.15 input  -60.11 | X-H torsion
[ 7974 7965 7964 7962 ] final   55.58 input  175.53 | X-H torsion
[ 8008 7997 7996 7995 ] final -122.49 input   59.86 | X-H torsion
[ 10167 10162 10161 10158 ] final  -27.98 input  -65.29 | X-H torsion
[ 10718 10713 10712 10709 ] final -162.89 input   66.30 | X-H torsion
[ 10763 10752 10751 10750 ] final  -14.90 input  -60.55 | X-H torsion
[ 11005 11000 10999 10996 ] final   73.09 input  -57.11 | X-H torsion

> <Gold.Protein.ActiveResidues>
 VAL166  LYS551  ARG553  GLY616  TRP617  ASP618  TYR619  PRO620  LYS621  CYS622 
 ASP623  PHE694  ASN695  SER759  ASP760  ASP761  ALA762  ILE779  LEU786  VAL792 
 PHE793  MET794  SER795  GLU796  ALA797  LYS798  CYS799  TRP800  GLU811  SER814 

> <Gold.Protein.RotatedAtoms>
  151.1510  135.0227  159.8667 H   0  0  0  0  0  0  0  0  0  0  0  0  # atno 6907 bound_to 6896
  152.5452  134.1389  159.8481 H   0  0  0  0  0  0  0  0  0  0  0  0  # atno 6908 bound_to 6896
  151.1474  133.4884  159.2628 H   0  0  0  0  0  0  0  0  0  0  0  0  # atno 6909 bound_to 6896
  145.9488  139.3954  143.0318 H   0  0  0  0  0  0  0  0  0  0  0  0  # atno 7974 bound_to 7965
  155.1651  140.0407  157.2851 H   0  0  0  0  0  0  0  0  0  0  0  0  # atno 8008 bound_to 7997
  154.6309  140.2524  155.7408 H   0  0  0  0  0  0  0  0  0  0  0  0  # atno 8009 bound_to 7997
  156.2484  140.2875  156.0660 H   0  0  0  0  0  0  0  0  0  0  0  0  # atno 8010 bound_to 7997
  140.7273  143.4048  151.1203 H   0  0  0  0  0  0  0  0  0  0  0  0  # atno 10167 bound_to 10162
  156.6169  130.8874  151.2949 H   0  0  0  0  0  0  0  0  0  0  0  0  # atno 10718 bound_to 10713
  153.5353  135.7014  153.5663 H   0  0  0  0  0  0  0  0  0  0  0  0  # atno 10763 bound_to 10752
  153.3653  135.3959  155.1748 H   0  0  0  0  0  0  0  0  0  0  0  0  # atno 10764 bound_to 10752
  154.8680  135.3798  154.4853 H   0  0  0  0  0  0  0  0  0  0  0  0  # atno 10765 bound_to 10752
  139.9457  134.7317  156.0985 H   0  0  0  0  0  0  0  0  0  0  0  0  # atno 11005 bound_to 11000
  145.8199  140.9684  143.0904 LP  0  0  0  0  0  0  0  0  0  0  0  0  # atno 17320 bound_to 7965
  144.6792  140.0028  143.7484 LP  0  0  0  0  0  0  0  0  0  0  0  0  # atno 17321 bound_to 7965
  139.7673  143.8546  152.3113 LP  0  0  0  0  0  0  0  0  0  0  0  0  # atno 17342 bound_to 10162
  139.8452  144.7191  150.9281 LP  0  0  0  0  0  0  0  0  0  0  0  0  # atno 17343 bound_to 10162
  157.7238  130.9595  150.1550 LP  0  0  0  0  0  0  0  0  0  0  0  0  # atno 17370 bound_to 10713
  156.2343  130.3685  149.8409 LP  0  0  0  0  0  0  0  0  0  0  0  0  # atno 17371 bound_to 10713
  141.1107  133.6644  156.2971 LP  0  0  0  0  0  0  0  0  0  0  0  0  # atno 17394 bound_to 11000
  140.5840  134.5717  157.5485 LP  0  0  0  0  0  0  0  0  0  0  0  0  # atno 17395 bound_to 11000

$$$$
