AV-unprocessed.smi:227|AV-procd|sdf|1728|dock5
  -GOLD-   2262020213D 1   1.00000     0.00000
 Structure written by MMmdl.
 54 58  0  0  0  0  0  0  0  0  1 V2000
  146.7485  132.6622  161.4035 O   0  0  0  0  0  0  0  0  0  0  0  0
  147.0764  133.6826  162.3241 C   0  0  0  0  0  0  0  0  0  0  0  0
  146.0470  134.8411  162.2826 C   0  0  1  0  0  0  0  0  0  0  0  0
  145.9479  135.4540  160.8538 C   0  0  0  0  0  0  0  0  0  0  0  0
  147.1601  136.1233  160.4041 N   0  0  0  0  0  0  0  0  0  0  0  0
  148.3831  136.1216  161.0338 C   0  0  0  0  0  0  0  0  0  0  0  0
  149.3209  136.7945  160.4271 N   0  0  0  0  0  0  0  0  0  0  0  0
  148.7004  137.3169  159.2977 C   0  0  0  0  0  0  0  0  0  0  0  0
  149.1245  138.1320  158.2050 C   0  0  0  0  0  0  0  0  0  0  0  0
  150.3903  138.6054  158.0282 N   0  0  0  0  0  0  0  0  0  0  0  0
  151.5444  137.7176  158.0410 C   0  0  2  0  0  0  0  0  0  0  0  0
  152.7222  138.7058  157.9878 C   0  0  0  0  0  0  0  0  0  0  0  0
  152.1437  139.8162  157.0998 C   0  0  0  0  0  0  0  0  0  0  0  0
  150.7530  139.2439  156.7684 C   0  0  1  0  0  0  0  0  0  0  0  0
  150.8481  138.0499  155.7829 C   0  0  1  0  0  0  0  0  0  0  0  0
  151.6032  138.3076  154.4664 C   0  0  0  0  0  0  0  0  0  0  0  0
  151.8756  137.0814  153.8224 O   0  0  0  0  0  0  0  0  0  0  0  0
  151.4620  136.9698  156.6945 C   0  0  0  0  0  0  0  0  0  0  0  0
  148.1834  138.4703  157.2836 N   0  0  0  0  0  0  0  0  0  0  0  0
  146.9282  138.0304  157.3982 C   0  0  0  0  0  0  0  0  0  0  0  0
  146.4023  137.2535  158.3446 N   0  0  0  0  0  0  0  0  0  0  0  0
  147.3321  136.9171  159.2826 C   0  0  0  0  0  0  0  0  0  0  0  0
  144.6574  134.4037  162.8455 C   0  0  2  0  0  0  0  0  0  0  0  0
  143.8595  133.5089  161.9000 C   0  0  0  0  0  0  0  0  0  0  0  0
  143.0935  134.4908  161.0107 C   0  0  0  0  0  0  0  0  0  0  0  0
  143.1147  135.7381  161.6947 O   0  0  0  0  0  0  0  0  0  0  0  0
  143.6298  135.5342  163.0008 C   0  0  0  0  0  0  0  0  0  0  0  0
  145.9989  132.1899  161.7327 H   0  0  0  0  0  0  0  0  0  0  0  0
  147.1559  133.2584  163.3247 H   0  0  0  0  0  0  0  0  0  0  0  0
  148.0724  134.0212  162.0475 H   0  0  0  0  0  0  0  0  0  0  0  0
  146.4326  135.6260  162.9347 H   0  0  0  0  0  0  0  0  0  0  0  0
  145.6831  134.6953  160.1192 H   0  0  0  0  0  0  0  0  0  0  0  0
  145.1313  136.1747  160.8032 H   0  0  0  0  0  0  0  0  0  0  0  0
  148.5621  135.5953  161.9603 H   0  0  0  0  0  0  0  0  0  0  0  0
  151.6246  137.0560  158.9012 H   0  0  0  0  0  0  0  0  0  0  0  0
  152.9537  139.0920  158.9811 H   0  0  0  0  0  0  0  0  0  0  0  0
  153.6291  138.2608  157.5768 H   0  0  0  0  0  0  0  0  0  0  0  0
  152.0470  140.7409  157.6701 H   0  0  0  0  0  0  0  0  0  0  0  0
  152.7555  140.0349  156.2257 H   0  0  0  0  0  0  0  0  0  0  0  0
  150.0621  140.0189  156.4347 H   0  0  0  0  0  0  0  0  0  0  0  0
  149.8298  137.7511  155.5275 H   0  0  0  0  0  0  0  0  0  0  0  0
  151.0020  138.9246  153.7980 H   0  0  0  0  0  0  0  0  0  0  0  0
  152.5458  138.8277  154.6357 H   0  0  0  0  0  0  0  0  0  0  0  0
  151.2492  136.9636  153.1249 H   0  0  0  0  0  0  0  0  0  0  0  0
  152.4371  136.6170  156.3562 H   0  0  0  0  0  0  0  0  0  0  0  0
  150.7994  136.1060  156.7631 H   0  0  0  0  0  0  0  0  0  0  0  0
  146.2493  138.3440  156.6190 H   0  0  0  0  0  0  0  0  0  0  0  0
  144.8029  133.9115  163.8077 H   0  0  0  0  0  0  0  0  0  0  0  0
  144.4484  132.8017  161.3201 H   0  0  0  0  0  0  0  0  0  0  0  0
  143.1474  132.9221  162.4822 H   0  0  0  0  0  0  0  0  0  0  0  0
  143.5794  134.6103  160.0419 H   0  0  0  0  0  0  0  0  0  0  0  0
  142.0694  134.1586  160.8386 H   0  0  0  0  0  0  0  0  0  0  0  0
  142.8109  135.2038  163.6423 H   0  0  0  0  0  0  0  0  0  0  0  0
  144.0083  136.4571  163.4337 H   0  0  0  0  0  0  0  0  0  0  0  0
  1  2  1  0  0  0  0
  1 28  1  0  0  0  0
  2  3  1  0  0  0  0
  2 29  1  0  0  0  0
  2 30  1  0  0  0  0
  3  4  1  0  0  0  0
  3 23  1  0  0  0  0
  3 31  1  0  0  0  0
  4  5  1  0  0  0  0
  4 32  1  0  0  0  0
  4 33  1  0  0  0  0
  5 22  1  0  0  0  0
  5  6  1  0  0  0  0
  6  7  2  0  0  0  0
  6 34  1  0  0  0  0
  7  8  1  0  0  0  0
  8 22  2  0  0  0  0
  8  9  1  0  0  0  0
  9 10  1  0  0  0  0
  9 19  2  0  0  0  0
 10 14  1  0  0  0  0
 10 11  1  0  0  0  0
 11 18  1  0  0  0  0
 11 12  1  0  0  0  0
 11 35  1  0  0  0  0
 12 13  1  0  0  0  0
 12 36  1  0  0  0  0
 12 37  1  0  0  0  0
 13 14  1  0  0  0  0
 13 38  1  0  0  0  0
 13 39  1  0  0  0  0
 14 15  1  0  0  0  0
 14 40  1  0  0  0  0
 15 16  1  0  0  0  0
 15 18  1  0  0  0  0
 15 41  1  0  0  0  0
 16 17  1  0  0  0  0
 16 42  1  0  0  0  0
 16 43  1  0  0  0  0
 17 44  1  0  0  0  0
 18 45  1  0  0  0  0
 18 46  1  0  0  0  0
 19 20  1  0  0  0  0
 20 21  2  0  0  0  0
 20 47  1  0  0  0  0
 21 22  1  0  0  0  0
 23 27  1  0  0  0  0
 23 24  1  0  0  0  0
 23 48  1  0  0  0  0
 24 25  1  0  0  0  0
 24 49  1  0  0  0  0
 24 50  1  0  0  0  0
 25 26  1  0  0  0  0
 25 51  1  0  0  0  0
 25 52  1  0  0  0  0
 26 27  1  0  0  0  0
 27 53  1  0  0  0  0
 27 54  1  0  0  0  0
M  END
> <s_m_source_file>
AV-unprocessed.smi

> <i_m_source_file_index>
227

> <i_lp_mmshare_version>
43012

> <i_f3d_flags>
0

> <s_epik_input>
W0NIMl0xT1tDSDJdW0NIMl1bQ0BIXTFbQ0BIXShbQ0gyXVtPSF0pW0NIMl1uKFtjSF1uMiljKGMyMyluW2NIXW5jM04oW0NASF00NSlbQ0BASF0oW0NIMl1bQ0gyXTQpW0NASF0oW0NIMl01KVtDSDJdW09IXQ==

> <s_epik_cmdline>
J2VwaWtfcHl0aG9uJywgJy1waCcsICc3LjAnLCAnLXRuJywgJzgnLCAnLW1hJywgJzIwMCcsICctbWV0YWxfYmluZGluZycsICctaW1hZScsICc8aW5maWxlLm1hZT4nLCAnLW9tYWUnLCAnPG91dGZpbGUubWFlPic=

> <r_lp_tautomer_probability>
1

> <r_epik_Ionization_Penalty>
0.0055791

> <r_epik_Ionization_Penalty_Charging>
0

> <r_epik_Ionization_Penalty_Neutral>
0.0055791

> <r_epik_State_Penalty>
0.00401299

> <r_epik_Charging_Adjusted_Penalty>
0.00401299

> <i_epik_Tot_Q>
0

> <i_epik_Tot_abs_Q>
0

> <r_epik_Metal_State_Penalty>
-0

> <b_epik_Metal_Only>
0

> <s_lp_Force_Field>
OPLS_2005

> <r_lp_Energy>
90.5153

> <b_lp_Chiralities_Consistent>
1

> <s_lp_Variant>
AV-unprocessed.smi:227-2

> <Gold.Version>
5.8.1

> <Gold.Id.Protein>
6NUR|6NUR_protein|mol2

> <Gold.PLP.Fitness>
40.8565

> <Gold.PLP.PLP>
-35.0963

> <Gold.PLP.part.hbond>
-3.0000

> <Gold.PLP.part.metal>
0.0000

> <Gold.PLP.part.buried>
-6.0411

> <Gold.PLP.part.nonpolar>
-25.6351

> <Gold.PLP.part.repulsive>
0.0000

> <Gold.PLP.ligand.clash>
0.0000

> <Gold.PLP.ligand.torsion>
0.4595

> <Gold.PLP.Chemscore.Hbond>
2.1680

> <Gold.PLP.Chemscore.CHOScore>
0.0000

> <Gold.PLP.Chemscore.Metal>
0.0000

> <Gold.Chemscore.Hbonds>
donor molecule, donor type, donor heavy atom, donor atom, acceptor molecule, acceptor atom, score
      L1  H    17    44       P1  7949  0.74
      P1  H  6931  6943       L1     7  0.20
      P1  H 10752 10764       L1    17  1.00

> <Gold.PLP.Chemscore.Internal.Correction>
0.1751

> <Gold.Rescore>
     Score         DG    S(hbond)    S(metal)    S(lipo)     H(rot)  DE(clash)    DE(int)     intcor
      9.13     -11.70       1.77        0.00      81.49       3.61       0.01       2.56       ----

> <Gold.Chemscore.Fitness>
9.1297

> <Gold.Chemscore.DG>
-11.6987

> <Gold.Chemscore.ZeroCoef>
-5.4800

> <Gold.Chemscore.Hbond>
1.7721

> <Gold.Chemscore.Metal>
0.0000

> <Gold.Chemscore.Lipo>
81.4886

> <Gold.Chemscore.Internal_Hbond>
0.0000

> <Gold.Chemscore.DEClash>
0.0089

> <Gold.Chemscore.DEInternal>
2.5602

> <Gold.Chemscore.Rot>
3.6071

> <Gold.Chemscore.Internal.Correction>
   9.000000E+99

> <Gold.Chemscore.Hbonds>
donor molecule, donor type, donor heavy atom, donor atom, acceptor molecule, acceptor atom, score
      L1  H    17    44       P1  7949  0.47
      P1  H 10752 10764       L1    17  0.90

> <Gold.Chemscore.Hbond.Weighted>
-5.9187

> <Gold.Chemscore.Metal.Weighted>
-0.0000

> <Gold.Chemscore.Lipo.Weighted>
-9.5342

> <Gold.Chemscore.Internal_Hbond.Weighted>
0.0000

> <Gold.Chemscore.DEClash.Weighted>
0.0089

> <Gold.Chemscore.DEInternal.Weighted>
2.5602

> <Gold.Chemscore.Rot.Weighted>
9.2342

> <Gold.Chemscore.Internal.Correction.Weighted>
   9.000000E+99

> <Gold.Protein.RotatedTorsions>
[ 6907 6896 6895 6894 ] final  120.49 input  -60.11 | X-H torsion
[ 7974 7965 7964 7962 ] final  114.77 input  175.53 | X-H torsion
[ 8008 7997 7996 7995 ] final    4.24 input   59.86 | X-H torsion
[ 10167 10162 10161 10158 ] final   37.00 input  -65.29 | X-H torsion
[ 10718 10713 10712 10709 ] final   -8.76 input   66.30 | X-H torsion
[ 10763 10752 10751 10750 ] final  -88.80 input  -60.55 | X-H torsion
[ 11005 11000 10999 10996 ] final -120.36 input  -57.11 | X-H torsion

> <Gold.Protein.ActiveResidues>
 VAL166  LYS551  ARG553  GLY616  TRP617  ASP618  TYR619  PRO620  LYS621  CYS622 
 ASP623  PHE694  ASN695  SER759  ASP760  ASP761  ALA762  ILE779  LEU786  VAL792 
 PHE793  MET794  SER795  GLU796  ALA797  LYS798  CYS799  TRP800  GLU811  SER814 

> <Gold.Protein.RotatedAtoms>
  152.4394  133.7420  159.6645 H   0  0  0  0  0  0  0  0  0  0  0  0  # atno 6907 bound_to 6896
  150.8282  133.8125  159.3116 H   0  0  0  0  0  0  0  0  0  0  0  0  # atno 6908 bound_to 6896
  151.5787  135.1062  160.0064 H   0  0  0  0  0  0  0  0  0  0  0  0  # atno 6909 bound_to 6896
  145.2003  139.2956  143.4322 H   0  0  0  0  0  0  0  0  0  0  0  0  # atno 7974 bound_to 7965
  154.7135  140.2697  155.6607 H   0  0  0  0  0  0  0  0  0  0  0  0  # atno 8008 bound_to 7997
  156.2802  140.2748  156.1709 H   0  0  0  0  0  0  0  0  0  0  0  0  # atno 8009 bound_to 7997
  155.0602  140.0371  157.2564 H   0  0  0  0  0  0  0  0  0  0  0  0  # atno 8010 bound_to 7997
  140.4075  144.1639  150.6137 H   0  0  0  0  0  0  0  0  0  0  0  0  # atno 10167 bound_to 10162
  156.6978  130.5084  149.5925 H   0  0  0  0  0  0  0  0  0  0  0  0  # atno 10718 bound_to 10713
  154.6484  135.5364  153.7872 H   0  0  0  0  0  0  0  0  0  0  0  0  # atno 10763 bound_to 10752
  153.0372  135.6476  154.1054 H   0  0  0  0  0  0  0  0  0  0  0  0  # atno 10764 bound_to 10752
  154.0973  135.2935  155.3239 H   0  0  0  0  0  0  0  0  0  0  0  0  # atno 10765 bound_to 10752
  141.0149  134.0210  157.3363 H   0  0  0  0  0  0  0  0  0  0  0  0  # atno 11005 bound_to 11000
  146.3419  140.2245  142.8592 LP  0  0  0  0  0  0  0  0  0  0  0  0  # atno 17320 bound_to 7965
  144.9954  140.8585  143.5314 LP  0  0  0  0  0  0  0  0  0  0  0  0  # atno 17321 bound_to 7965
  140.4674  143.2425  151.9136 LP  0  0  0  0  0  0  0  0  0  0  0  0  # atno 17342 bound_to 10162
  139.4783  144.5405  151.8535 LP  0  0  0  0  0  0  0  0  0  0  0  0  # atno 17343 bound_to 10162
  156.1750  130.6462  151.0884 LP  0  0  0  0  0  0  0  0  0  0  0  0  # atno 17370 bound_to 10713
  157.6984  131.0785  150.6896 LP  0  0  0  0  0  0  0  0  0  0  0  0  # atno 17371 bound_to 10713
  139.9111  135.0190  156.7695 LP  0  0  0  0  0  0  0  0  0  0  0  0  # atno 17394 bound_to 11000
  140.6671  133.9593  155.7836 LP  0  0  0  0  0  0  0  0  0  0  0  0  # atno 17395 bound_to 11000

$$$$
