AV-unprocessed.smi:20|AV-procd|sdf|118|dock2
  -GOLD-   2262015283D 1   1.00000     0.00000
 Structure written by MMmdl.
 57 61  0  0  0  0  0  0  0  0  1 V2000
  151.5497  130.9898  159.0535 O   0  0  0  0  0  0  0  0  0  0  0  0
  151.2795  131.5275  157.9821 C   0  0  0  0  0  0  0  0  0  0  0  0
  149.9153  132.1089  157.6493 C   0  0  0  0  0  0  0  0  0  0  0  0
  150.1904  132.9758  156.4013 C   0  0  1  0  0  0  0  0  0  0  0  0
  149.0102  132.9393  155.4040 C   0  0  0  0  0  0  0  0  0  0  0  0
  149.2442  133.8878  154.2179 C   0  0  0  0  0  0  0  0  0  0  0  0
  149.5232  135.3172  154.7030 C   0  0  0  0  0  0  0  0  0  0  0  0
  150.6153  135.3299  155.6762 N   0  0  0  0  0  0  0  0  0  0  0  0
  151.2546  136.5168  155.8420 C   0  0  0  0  0  0  0  0  0  0  0  0
  151.9529  136.9993  154.7809 N   0  0  0  0  0  0  0  0  0  0  0  0
  152.6138  138.1564  154.8702 C   0  0  0  0  0  0  0  0  0  0  0  0
  152.7095  138.9830  155.9118 N   0  0  0  0  0  0  0  0  0  0  0  0
  152.0093  138.5102  156.9817 C   0  0  0  0  0  0  0  0  0  0  0  0
  151.2605  137.2988  157.0373 C   0  0  0  0  0  0  0  0  0  0  0  0
  150.6796  137.1721  158.2959 N   0  0  0  0  0  0  0  0  0  0  0  0
  151.0676  138.2360  158.9437 C   0  0  0  0  0  0  0  0  0  0  0  0
  151.8732  139.0913  158.2291 N   0  0  0  0  0  0  0  0  0  0  0  0
  152.4454  140.3434  158.6913 C   0  0  0  0  0  0  0  0  0  0  0  0
  151.4775  141.5444  158.5503 C   0  0  2  0  0  0  0  0  0  0  0  0
  150.9612  141.7256  157.1025 C   0  0  0  0  0  0  0  0  0  0  0  0
  149.7139  142.3892  157.0779 O   0  0  0  0  0  0  0  0  0  0  0  0
  152.0955  142.8433  159.1266 C   0  0  1  0  0  0  0  0  0  0  0  0
  151.1485  144.0285  159.1937 C   0  0  0  0  0  0  0  0  0  0  0  0
  151.8486  144.9428  160.1923 C   0  0  0  0  0  0  0  0  0  0  0  0
  152.5006  144.0749  161.1116 O   0  0  0  0  0  0  0  0  0  0  0  0
  152.5237  142.7474  160.5956 C   0  0  0  0  0  0  0  0  0  0  0  0
  150.4558  134.4433  156.8285 C   0  0  0  0  0  0  0  0  0  0  0  0
  151.4803  132.3401  155.8238 C   0  0  0  0  0  0  0  0  0  0  0  0
  152.1104  131.6865  156.9546 N   0  0  0  0  0  0  0  0  0  0  0  0
  149.2335  131.2867  157.4285 H   0  0  0  0  0  0  0  0  0  0  0  0
  149.5042  132.6780  158.4840 H   0  0  0  0  0  0  0  0  0  0  0  0
  148.8464  131.9240  155.0407 H   0  0  0  0  0  0  0  0  0  0  0  0
  148.0928  133.2309  155.9169 H   0  0  0  0  0  0  0  0  0  0  0  0
  150.0856  133.5337  153.6211 H   0  0  0  0  0  0  0  0  0  0  0  0
  148.3758  133.8832  153.5586 H   0  0  0  0  0  0  0  0  0  0  0  0
  149.7409  135.9489  153.8415 H   0  0  0  0  0  0  0  0  0  0  0  0
  148.6320  135.7305  155.1769 H   0  0  0  0  0  0  0  0  0  0  0  0
  153.1419  138.4636  153.9793 H   0  0  0  0  0  0  0  0  0  0  0  0
  150.7784  138.4256  159.9673 H   0  0  0  0  0  0  0  0  0  0  0  0
  152.7388  140.2048  159.7319 H   0  0  0  0  0  0  0  0  0  0  0  0
  153.3650  140.5304  158.1353 H   0  0  0  0  0  0  0  0  0  0  0  0
  150.6006  141.3152  159.1577 H   0  0  0  0  0  0  0  0  0  0  0  0
  151.6723  142.2935  156.5023 H   0  0  0  0  0  0  0  0  0  0  0  0
  150.8551  140.7622  156.6044 H   0  0  0  0  0  0  0  0  0  0  0  0
  149.7828  143.1384  156.5058 H   0  0  0  0  0  0  0  0  0  0  0  0
  152.9652  143.1302  158.5329 H   0  0  0  0  0  0  0  0  0  0  0  0
  150.9915  144.5112  158.2288 H   0  0  0  0  0  0  0  0  0  0  0  0
  150.1778  143.7209  159.5856 H   0  0  0  0  0  0  0  0  0  0  0  0
  152.6042  145.5473  159.6892 H   0  0  0  0  0  0  0  0  0  0  0  0
  151.1572  145.6166  160.6992 H   0  0  0  0  0  0  0  0  0  0  0  0
  151.8143  142.1481  161.1684 H   0  0  0  0  0  0  0  0  0  0  0  0
  153.5115  142.3011  160.7124 H   0  0  0  0  0  0  0  0  0  0  0  0
  149.6209  134.8092  157.4277 H   0  0  0  0  0  0  0  0  0  0  0  0
  151.3458  134.4855  157.4578 H   0  0  0  0  0  0  0  0  0  0  0  0
  151.2535  131.5820  155.0728 H   0  0  0  0  0  0  0  0  0  0  0  0
  152.1514  133.0688  155.3679 H   0  0  0  0  0  0  0  0  0  0  0  0
  153.0720  131.3785  156.9452 H   0  0  0  0  0  0  0  0  0  0  0  0
  1  2  2  0  0  0  0
  2 29  1  0  0  0  0
  2  3  1  0  0  0  0
  3  4  1  0  0  0  0
  3 30  1  0  0  0  0
  3 31  1  0  0  0  0
  4 27  1  0  0  0  0
  4  5  1  0  0  0  0
  4 28  1  0  0  0  0
  5  6  1  0  0  0  0
  5 32  1  0  0  0  0
  5 33  1  0  0  0  0
  6  7  1  0  0  0  0
  6 34  1  0  0  0  0
  6 35  1  0  0  0  0
  7  8  1  0  0  0  0
  7 36  1  0  0  0  0
  7 37  1  0  0  0  0
  8  9  1  0  0  0  0
  8 27  1  0  0  0  0
  9 14  1  0  0  0  0
  9 10  2  0  0  0  0
 10 11  1  0  0  0  0
 11 12  2  0  0  0  0
 11 38  1  0  0  0  0
 12 13  1  0  0  0  0
 13 17  1  0  0  0  0
 13 14  2  0  0  0  0
 14 15  1  0  0  0  0
 15 16  2  0  0  0  0
 16 17  1  0  0  0  0
 16 39  1  0  0  0  0
 17 18  1  0  0  0  0
 18 19  1  0  0  0  0
 18 40  1  0  0  0  0
 18 41  1  0  0  0  0
 19 20  1  0  0  0  0
 19 22  1  0  0  0  0
 19 42  1  0  0  0  0
 20 21  1  0  0  0  0
 20 43  1  0  0  0  0
 20 44  1  0  0  0  0
 21 45  1  0  0  0  0
 22 26  1  0  0  0  0
 22 23  1  0  0  0  0
 22 46  1  0  0  0  0
 23 24  1  0  0  0  0
 23 47  1  0  0  0  0
 23 48  1  0  0  0  0
 24 25  1  0  0  0  0
 24 49  1  0  0  0  0
 24 50  1  0  0  0  0
 25 26  1  0  0  0  0
 26 51  1  0  0  0  0
 26 52  1  0  0  0  0
 27 53  1  0  0  0  0
 27 54  1  0  0  0  0
 28 29  1  0  0  0  0
 28 55  1  0  0  0  0
 28 56  1  0  0  0  0
 29 57  1  0  0  0  0
M  END
> <s_m_source_file>
AV-unprocessed.smi

> <i_m_source_file_index>
20

> <i_lp_mmshare_version>
43012

> <i_f3d_flags>
0

> <s_epik_input>
W0NIMl0xW05IXUMoPU8pW0NIMl1bQ0BAXTEyW0NIMl1bQ0gyXVtDSDJdTihbQ0gyXTIpYyhuW2NIXW4zKWMoYzM0KW5bY0hdbjRbQ0gyXVtDQEhdKFtDSDJdW09IXSlbQ0BASF01W0NIMl1bQ0gyXU9bQ0gyXTU=

> <s_epik_cmdline>
J2VwaWtfcHl0aG9uJywgJy1waCcsICc3LjAnLCAnLXRuJywgJzgnLCAnLW1hJywgJzIwMCcsICctbWV0YWxfYmluZGluZycsICctaW1hZScsICc8aW5maWxlLm1hZT4nLCAnLW9tYWUnLCAnPG91dGZpbGUubWFlPic=

> <r_lp_tautomer_probability>
1

> <r_epik_Ionization_Penalty>
0.0019697

> <r_epik_Ionization_Penalty_Charging>
0

> <r_epik_Ionization_Penalty_Neutral>
0.0019697

> <r_epik_State_Penalty>
0.00113613

> <r_epik_Charging_Adjusted_Penalty>
0.00113613

> <i_epik_Tot_Q>
0

> <i_epik_Tot_abs_Q>
0

> <r_epik_Metal_State_Penalty>
-0

> <b_epik_Metal_Only>
0

> <s_lp_Force_Field>
OPLS_2005

> <r_lp_Energy>
59.1367

> <b_lp_Chiralities_Consistent>
1

> <s_lp_Variant>
AV-unprocessed.smi:20-6

> <Gold.Version>
5.8.1

> <Gold.Id.Protein>
6NUR|6NUR_protein|mol2

> <Gold.PLP.Fitness>
47.9964

> <Gold.PLP.PLP>
-41.6035

> <Gold.PLP.part.hbond>
-3.4571

> <Gold.PLP.part.metal>
0.0000

> <Gold.PLP.part.buried>
-2.6472

> <Gold.PLP.part.nonpolar>
-35.4162

> <Gold.PLP.part.repulsive>
0.3071

> <Gold.PLP.ligand.clash>
0.0000

> <Gold.PLP.ligand.torsion>
1.4137

> <Gold.PLP.Chemscore.Hbond>
2.8473

> <Gold.PLP.Chemscore.CHOScore>
0.0000

> <Gold.PLP.Chemscore.Metal>
0.0000

> <Gold.Chemscore.Hbonds>
donor molecule, donor type, donor heavy atom, donor atom, acceptor molecule, acceptor atom, score
      L1  H    21    45       P1  8028  0.96
      P1  H  7997  8010       L1    12  0.98
      P1  H 10752 10765       L1    10  0.90

> <Gold.PLP.Chemscore.Internal.Correction>
0.6785

> <Gold.Rescore>
     Score         DG    S(hbond)    S(metal)    S(lipo)     H(rot)  DE(clash)    DE(int)     intcor
     16.98     -18.69       2.40        0.00      97.46       2.43       0.18       1.52       ----

> <Gold.Chemscore.Fitness>
16.9846

> <Gold.Chemscore.DG>
-18.6880

> <Gold.Chemscore.ZeroCoef>
-5.4800

> <Gold.Chemscore.Hbond>
2.4037

> <Gold.Chemscore.Metal>
0.0000

> <Gold.Chemscore.Lipo>
97.4607

> <Gold.Chemscore.Internal_Hbond>
0.0000

> <Gold.Chemscore.DEClash>
0.1829

> <Gold.Chemscore.DEInternal>
1.5205

> <Gold.Chemscore.Rot>
2.4309

> <Gold.Chemscore.Internal.Correction>
   9.000000E+99

> <Gold.Chemscore.Hbonds>
donor molecule, donor type, donor heavy atom, donor atom, acceptor molecule, acceptor atom, score
      L1  H    21    45       P1  8028  0.89
      P1  H  7997  8010       L1    12  0.80
      P1  H 10752 10765       L1    10  0.40

> <Gold.Chemscore.Hbond.Weighted>
-8.0282

> <Gold.Chemscore.Metal.Weighted>
-0.0000

> <Gold.Chemscore.Lipo.Weighted>
-11.4029

> <Gold.Chemscore.Internal_Hbond.Weighted>
0.0000

> <Gold.Chemscore.DEClash.Weighted>
0.1829

> <Gold.Chemscore.DEInternal.Weighted>
1.5205

> <Gold.Chemscore.Rot.Weighted>
6.2231

> <Gold.Chemscore.Internal.Correction.Weighted>
   9.000000E+99

> <Gold.Protein.RotatedTorsions>
[ 6907 6896 6895 6894 ] final   72.69 input  -60.11 | X-H torsion
[ 7974 7965 7964 7962 ] final   68.59 input  175.53 | X-H torsion
[ 8008 7997 7996 7995 ] final   71.69 input   59.86 | X-H torsion
[ 10167 10162 10161 10158 ] final -109.24 input  -65.29 | X-H torsion
[ 10718 10713 10712 10709 ] final   74.85 input   66.30 | X-H torsion
[ 10763 10752 10751 10750 ] final  156.92 input  -60.55 | X-H torsion
[ 11005 11000 10999 10996 ] final  167.48 input  -57.11 | X-H torsion

> <Gold.Protein.ActiveResidues>
 VAL166  LYS551  ARG553  GLY616  TRP617  ASP618  TYR619  PRO620  LYS621  CYS622 
 ASP623  PHE694  ASN695  SER759  ASP760  ASP761  ALA762  ILE779  LEU786  VAL792 
 PHE793  MET794  SER795  GLU796  ALA797  LYS798  CYS799  TRP800  GLU811  SER814 

> <Gold.Protein.RotatedAtoms>
  152.4882  134.4534  159.9581 H   0  0  0  0  0  0  0  0  0  0  0  0  # atno 6907 bound_to 6896
  151.4526  133.3607  159.2805 H   0  0  0  0  0  0  0  0  0  0  0  0  # atno 6908 bound_to 6896
  150.9011  134.8448  159.7421 H   0  0  0  0  0  0  0  0  0  0  0  0  # atno 6909 bound_to 6896
  145.8007  139.2981  143.1156 H   0  0  0  0  0  0  0  0  0  0  0  0  # atno 7974 bound_to 7965
  155.7576  140.3487  155.5182 H   0  0  0  0  0  0  0  0  0  0  0  0  # atno 8008 bound_to 7997
  155.8945  140.1023  157.1416 H   0  0  0  0  0  0  0  0  0  0  0  0  # atno 8009 bound_to 7997
  154.4037  140.1298  156.4344 H   0  0  0  0  0  0  0  0  0  0  0  0  # atno 8010 bound_to 7997
  140.1574  143.4148  152.1450 H   0  0  0  0  0  0  0  0  0  0  0  0  # atno 10167 bound_to 10162
  157.6609  130.9698  150.1269 H   0  0  0  0  0  0  0  0  0  0  0  0  # atno 10718 bound_to 10713
  154.1920  135.2794  155.3019 H   0  0  0  0  0  0  0  0  0  0  0  0  # atno 10763 bound_to 10752
  154.5922  135.5556  153.7293 H   0  0  0  0  0  0  0  0  0  0  0  0  # atno 10764 bound_to 10752
  153.0110  135.6371  154.2058 H   0  0  0  0  0  0  0  0  0  0  0  0  # atno 10765 bound_to 10752
  140.2772  134.7779  157.3727 H   0  0  0  0  0  0  0  0  0  0  0  0  # atno 11005 bound_to 11000
  145.9880  140.8626  143.0081 LP  0  0  0  0  0  0  0  0  0  0  0  0  # atno 17320 bound_to 7965
  144.6769  140.2175  143.7370 LP  0  0  0  0  0  0  0  0  0  0  0  0  # atno 17321 bound_to 7965
  139.5397  144.7244  151.4775 LP  0  0  0  0  0  0  0  0  0  0  0  0  # atno 17342 bound_to 10162
  140.6664  143.8388  150.6947 LP  0  0  0  0  0  0  0  0  0  0  0  0  # atno 17343 bound_to 10162
  156.2126  130.3668  149.8652 LP  0  0  0  0  0  0  0  0  0  0  0  0  # atno 17370 bound_to 10713
  156.6526  130.8750  151.3534 LP  0  0  0  0  0  0  0  0  0  0  0  0  # atno 17371 bound_to 10713
  140.1317  134.5086  155.8100 LP  0  0  0  0  0  0  0  0  0  0  0  0  # atno 17394 bound_to 11000
  141.2168  133.6792  156.7052 LP  0  0  0  0  0  0  0  0  0  0  0  0  # atno 17395 bound_to 11000

$$$$
