AV-unprocessed.smi:505|AV-procd|sdf|2749|dock7
  -GOLD-   2262023213D 1   1.00000     0.00000
 Structure written by MMmdl.
 36 37  0  0  0  0  0  0  0  0  2 V2000
  152.8299  139.0240  154.9715 C   0  0  0  0  0  0  0  0  0  0  0  0
  152.7154  139.6824  156.2206 O   0  0  0  0  0  0  0  0  0  0  0  0
  151.7906  140.7562  156.1843 C   0  0  0  0  0  0  0  0  0  0  0  0
  150.9805  140.7588  157.4862 C   0  0  0  0  0  0  0  0  0  0  0  0
  151.8182  140.4502  158.6403 N   0  0  0  0  0  0  0  0  0  0  0  0
  152.4109  141.3291  159.4855 C   0  0  0  0  0  0  0  0  0  0  0  0
  152.2411  142.6975  159.3122 N   0  0  0  0  0  0  0  0  0  0  0  0
  152.7458  143.8417  160.0487 C   0  0  0  0  0  0  0  0  0  0  0  0
  151.7134  144.3892  161.0444 C   0  0  0  0  0  0  0  0  0  0  0  0
  151.3681  143.3900  161.9803 O   0  0  0  0  0  0  0  0  0  0  0  0
  153.1302  140.7747  160.4628 N   0  0  0  0  0  0  0  0  0  0  0  0
  152.9703  139.4164  160.2235 C   0  0  0  0  0  0  0  0  0  0  0  0
  152.1769  139.1960  159.1401 C   0  0  0  0  0  0  0  0  0  0  0  0
  151.8018  137.8524  158.6513 C   0  0  0  0  0  0  0  0  0  0  0  0
  151.0655  137.7156  157.6762 O   0  0  0  0  0  0  0  0  0  0  0  0
  152.3585  136.8543  159.4083 N   0  5  0  0  0  0  0  0  0  0  0  0
  153.1704  137.0291  160.5088 C   0  0  0  0  0  0  0  0  0  0  0  0
  153.6274  136.0737  161.1377 O   0  0  0  0  0  0  0  0  0  0  0  0
  153.4867  138.2950  160.9285 N   0  0  0  0  0  0  0  0  0  0  0  0
  154.3489  138.5107  162.0940 C   0  0  0  0  0  0  0  0  0  0  0  0
  153.5531  138.2125  155.0502 H   0  0  0  0  0  0  0  0  0  0  0  0
  153.1743  139.7077  154.1945 H   0  0  0  0  0  0  0  0  0  0  0  0
  151.8755  138.5955  154.6631 H   0  0  0  0  0  0  0  0  0  0  0  0
  152.3242  141.7017  156.0732 H   0  0  0  0  0  0  0  0  0  0  0  0
  151.1251  140.6507  155.3262 H   0  0  0  0  0  0  0  0  0  0  0  0
  150.4945  141.7215  157.6391 H   0  0  0  0  0  0  0  0  0  0  0  0
  150.1708  140.0317  157.4235 H   0  0  0  0  0  0  0  0  0  0  0  0
  151.6199  142.9481  158.5567 H   0  0  0  0  0  0  0  0  0  0  0  0
  153.6316  143.5125  160.5927 H   0  0  0  0  0  0  0  0  0  0  0  0
  153.0741  144.6167  159.3555 H   0  0  0  0  0  0  0  0  0  0  0  0
  152.0722  145.2843  161.5537 H   0  0  0  0  0  0  0  0  0  0  0  0
  150.8041  144.6678  160.5114 H   0  0  0  0  0  0  0  0  0  0  0  0
  151.6985  143.6462  162.8277 H   0  0  0  0  0  0  0  0  0  0  0  0
  155.3124  138.0184  161.9544 H   0  0  0  0  0  0  0  0  0  0  0  0
  153.8839  138.1029  162.9922 H   0  0  0  0  0  0  0  0  0  0  0  0
  154.5494  139.5659  162.2792 H   0  0  0  0  0  0  0  0  0  0  0  0
  1  2  1  0  0  0  0
  1 21  1  0  0  0  0
  1 22  1  0  0  0  0
  1 23  1  0  0  0  0
  2  3  1  0  0  0  0
  3  4  1  0  0  0  0
  3 24  1  0  0  0  0
  3 25  1  0  0  0  0
  4  5  1  0  0  0  0
  4 26  1  0  0  0  0
  4 27  1  0  0  0  0
  5 13  1  0  0  0  0
  5  6  1  0  0  0  0
  6  7  1  0  0  0  0
  6 11  2  0  0  0  0
  7  8  1  0  0  0  0
  7 28  1  0  0  0  0
  8  9  1  0  0  0  0
  8 29  1  0  0  0  0
  8 30  1  0  0  0  0
  9 10  1  0  0  0  0
  9 31  1  0  0  0  0
  9 32  1  0  0  0  0
 10 33  1  0  0  0  0
 11 12  1  0  0  0  0
 12 19  1  0  0  0  0
 12 13  2  0  0  0  0
 13 14  1  0  0  0  0
 14 15  2  0  0  0  0
 14 16  1  0  0  0  0
 16 17  1  0  0  0  0
 17 18  2  0  0  0  0
 17 19  1  0  0  0  0
 19 20  1  0  0  0  0
 20 34  1  0  0  0  0
 20 35  1  0  0  0  0
 20 36  1  0  0  0  0
M  CHG  1  16  -1
M  END
> <s_m_source_file>
AV-unprocessed.smi

> <i_m_source_file_index>
505

> <i_lp_mmshare_version>
43012

> <i_f3d_flags>
0

> <s_epik_input>
W09IXVtDSDJdW0NIMl1bTkhdYyhuMSluKFtDSDJdW0NIMl1PW0NIM10pYyhjMTIpYyg9TylbbkhdYyg9TyluMltDSDNd

> <s_epik_cmdline>
J2VwaWtfcHl0aG9uJywgJy1waCcsICc3LjAnLCAnLXRuJywgJzgnLCAnLW1hJywgJzIwMCcsICctbWV0YWxfYmluZGluZycsICctaW1hZScsICc8aW5maWxlLm1hZT4nLCAnLW9tYWUnLCAnPG91dGZpbGUubWFlPic=

> <r_lp_tautomer_probability>
1

> <r_epik_Ionization_Penalty>
5.9232

> <r_epik_Ionization_Penalty_Charging>
1.43987e-08

> <r_epik_Ionization_Penalty_Neutral>
5.9232

> <r_epik_State_Penalty>
5.92302

> <r_epik_Charging_Adjusted_Penalty>
5.92302

> <i_epik_Tot_Q>
-1

> <i_epik_Tot_abs_Q>
1

> <r_epik_Metal_State_Penalty>
1.88194

> <b_epik_Metal_Only>
1

> <s_lp_Force_Field>
OPLS_2005

> <r_lp_Energy>
27.5321

> <b_lp_Chiralities_Consistent>
1

> <s_lp_Variant>
AV-unprocessed.smi:505-2

> <Gold.Version>
5.8.1

> <Gold.Id.Protein>
6NUR|6NUR_protein|mol2

> <Gold.PLP.Fitness>
44.8467

> <Gold.PLP.PLP>
-35.0518

> <Gold.PLP.part.hbond>
-4.0000

> <Gold.PLP.part.metal>
0.0000

> <Gold.PLP.part.buried>
-7.1089

> <Gold.PLP.part.nonpolar>
-24.2686

> <Gold.PLP.part.repulsive>
0.0701

> <Gold.PLP.ligand.clash>
0.0000

> <Gold.PLP.ligand.torsion>
0.8750

> <Gold.PLP.Chemscore.Hbond>
3.8406

> <Gold.PLP.Chemscore.CHOScore>
0.0000

> <Gold.PLP.Chemscore.Metal>
0.0000

> <Gold.Chemscore.Hbonds>
donor molecule, donor type, donor heavy atom, donor atom, acceptor molecule, acceptor atom, score
      P1  H  6896  6909       L1    16  0.79
      P1  H  6933  6945       L1    10  0.50
      P1  H  7997  8010       L1     2  1.00

> <Gold.PLP.Chemscore.Internal.Correction>
0.0231

> <Gold.Rescore>
     Score         DG    S(hbond)    S(metal)    S(lipo)     H(rot)  DE(clash)    DE(int)     intcor
     10.08     -12.01       2.44        0.00      52.28       3.02       0.99       0.95       ----

> <Gold.Chemscore.Fitness>
10.0824

> <Gold.Chemscore.DG>
-12.0138

> <Gold.Chemscore.ZeroCoef>
-5.4800

> <Gold.Chemscore.Hbond>
2.4380

> <Gold.Chemscore.Metal>
0.0000

> <Gold.Chemscore.Lipo>
52.2845

> <Gold.Chemscore.Internal_Hbond>
0.0000

> <Gold.Chemscore.DEClash>
0.9862

> <Gold.Chemscore.DEInternal>
0.9452

> <Gold.Chemscore.Rot>
3.0181

> <Gold.Chemscore.Internal.Correction>
   9.000000E+99

> <Gold.Chemscore.Hbonds>
donor molecule, donor type, donor heavy atom, donor atom, acceptor molecule, acceptor atom, score
      P1  H  6896  6909       L1    16  0.01
      P1  H  6933  6945       L1    10  0.32
      P1  H  7997  8010       L1     2  0.32

> <Gold.Chemscore.Hbond.Weighted>
-8.1429

> <Gold.Chemscore.Metal.Weighted>
-0.0000

> <Gold.Chemscore.Lipo.Weighted>
-6.1173

> <Gold.Chemscore.Internal_Hbond.Weighted>
0.0000

> <Gold.Chemscore.DEClash.Weighted>
0.9862

> <Gold.Chemscore.DEInternal.Weighted>
0.9452

> <Gold.Chemscore.Rot.Weighted>
7.7264

> <Gold.Chemscore.Internal.Correction.Weighted>
   9.000000E+99

> <Gold.Protein.RotatedTorsions>
[ 6907 6896 6895 6894 ] final  148.72 input  -60.11 | X-H torsion
[ 7974 7965 7964 7962 ] final   42.08 input  175.53 | X-H torsion
[ 8008 7997 7996 7995 ] final   61.78 input   59.86 | X-H torsion
[ 10167 10162 10161 10158 ] final  129.68 input  -65.29 | X-H torsion
[ 10718 10713 10712 10709 ] final  -79.00 input   66.30 | X-H torsion
[ 10763 10752 10751 10750 ] final  -21.18 input  -60.55 | X-H torsion
[ 11005 11000 10999 10996 ] final  -57.58 input  -57.11 | X-H torsion

> <Gold.Protein.ActiveResidues>
 VAL166  LYS551  ARG553  GLY616  TRP617  ASP618  TYR619  PRO620  LYS621  CYS622 
 ASP623  PHE694  ASN695  SER759  ASP760  ASP761  ALA762  ILE779  LEU786  VAL792 
 PHE793  MET794  SER795  GLU796  ALA797  LYS798  CYS799  TRP800  GLU811  SER814 

> <Gold.Protein.RotatedAtoms>
  152.1377  133.4445  159.4751 H   0  0  0  0  0  0  0  0  0  0  0  0  # atno 6907 bound_to 6896
  150.6883  134.2344  159.4456 H   0  0  0  0  0  0  0  0  0  0  0  0  # atno 6908 bound_to 6896
  152.0232  134.9810  160.0621 H   0  0  0  0  0  0  0  0  0  0  0  0  # atno 6909 bound_to 6896
  146.0770  139.5342  142.9561 H   0  0  0  0  0  0  0  0  0  0  0  0  # atno 7974 bound_to 7965
  155.6038  140.3494  155.4602 H   0  0  0  0  0  0  0  0  0  0  0  0  # atno 8008 bound_to 7997
  156.0208  140.1253  157.0384 H   0  0  0  0  0  0  0  0  0  0  0  0  # atno 8009 bound_to 7997
  154.4314  140.1063  156.5946 H   0  0  0  0  0  0  0  0  0  0  0  0  # atno 8010 bound_to 7997
  139.5466  144.6778  151.4454 H   0  0  0  0  0  0  0  0  0  0  0  0  # atno 10167 bound_to 10162
  156.0103  130.4533  150.3581 H   0  0  0  0  0  0  0  0  0  0  0  0  # atno 10718 bound_to 10713
  153.6321  135.6988  153.5272 H   0  0  0  0  0  0  0  0  0  0  0  0  # atno 10763 bound_to 10752
  153.2851  135.4174  155.1114 H   0  0  0  0  0  0  0  0  0  0  0  0  # atno 10764 bound_to 10752
  154.8519  135.3611  154.5864 H   0  0  0  0  0  0  0  0  0  0  0  0  # atno 10765 bound_to 10752
  141.1171  133.6610  156.4791 H   0  0  0  0  0  0  0  0  0  0  0  0  # atno 11005 bound_to 11000
  145.6287  141.0308  143.1875 LP  0  0  0  0  0  0  0  0  0  0  0  0  # atno 17320 bound_to 7965
  144.7268  139.7849  143.7362 LP  0  0  0  0  0  0  0  0  0  0  0  0  # atno 17321 bound_to 7965
  140.6716  143.8281  150.7006 LP  0  0  0  0  0  0  0  0  0  0  0  0  # atno 17342 bound_to 10162
  140.1707  143.4197  152.2003 LP  0  0  0  0  0  0  0  0  0  0  0  0  # atno 17343 bound_to 10162
  157.1671  131.0359  151.2813 LP  0  0  0  0  0  0  0  0  0  0  0  0  # atno 17370 bound_to 10713
  157.4261  130.7464  149.6952 LP  0  0  0  0  0  0  0  0  0  0  0  0  # atno 17371 bound_to 10713
  140.4615  134.6837  157.5087 LP  0  0  0  0  0  0  0  0  0  0  0  0  # atno 17394 bound_to 11000
  140.0100  134.6704  155.9395 LP  0  0  0  0  0  0  0  0  0  0  0  0  # atno 17395 bound_to 11000

$$$$
