#       Name:                AV-unprocessed.smi:3262
#       Creating user name   scv26
#       Creation time:       Fri Mar 27 18:38:23 2020


#       File generated by GOLD software.
#

@<TRIPOS>MOLECULE
AV-unprocessed.smi:3262
    42    43     1
SMALL
NO_CHARGES


@<TRIPOS>ATOM
      1 ****        -0.3316   2.0711  -0.8201 O.2            1 S1                 0.0000
      2 ****        -0.5602   1.1931   0.0141 C.2            1 S1                 0.0000
      3 ****         0.3678   0.2834   0.3551 N.am           1 S1                 0.0000
      4 ****         1.7063   0.2097  -0.2146 C.3            1 S1                 0.0000
      5 ****         2.4453  -1.0326   0.3016 C.3            1 S1                 0.0000
      6 ****         3.8484  -1.1442  -0.2643 C.ar           1 S1                 0.0000
      7 ****         4.1183  -1.9927  -1.3592 C.ar           1 S1                 0.0000
      8 ****         5.4366  -2.0547  -1.8509 C.ar           1 S1                 0.0000
      9 ****         6.4287  -1.2693  -1.2329 C.ar           1 S1                 0.0000
     10 ****         6.0565  -0.4525  -0.1466 C.ar           1 S1                 0.0000
     11 ****         4.7956  -0.3857   0.3326 N.ar           1 S1                 0.0000
     12 ****        -1.7342   1.1000   0.6948 N.am           1 S1                 0.0000
     13 ****        -2.1075  -0.0359   1.5657 C.3            1 S1                 0.0000
     14 ****        -3.5925  -0.4519   1.4915 C.3            1 S1                 0.0000
     15 ****        -4.1829  -0.4912   0.0696 C.3            1 S1                 0.0000
     16 ****        -4.7290   0.8704  -0.3937 C.3            1 S1                 0.0000
     17 ****        -3.6590   1.9488  -0.6291 C.3            1 S1                 0.0000
     18 ****        -2.7310   2.1754   0.5783 C.3            1 S1                 0.0000
     19 ****         0.1289  -0.3985   1.0601 H              1 S1                 0.0000
     20 ****         1.6393   0.1770  -1.3034 H              1 S1                 0.0000
     21 ****         2.2574   1.1139   0.0488 H              1 S1                 0.0000
     22 ****         2.5048  -1.0067   1.3907 H              1 S1                 0.0000
     23 ****         1.8842  -1.9329   0.0469 H              1 S1                 0.0000
     24 ****         3.3348  -2.5808  -1.8142 H              1 S1                 0.0000
     25 ****         5.6822  -2.6924  -2.6871 H              1 S1                 0.0000
     26 ****         7.4500  -1.2915  -1.5832 H              1 S1                 0.0000
     27 ****         6.7910   0.1638   0.3505 H              1 S1                 0.0000
     28 ****        -1.5387  -0.9309   1.3116 H              1 S1                 0.0000
     29 ****        -1.8423   0.2073   2.5952 H              1 S1                 0.0000
     30 ****        -3.6815  -1.4441   1.9353 H              1 S1                 0.0000
     31 ****        -4.1997   0.1952   2.1253 H              1 S1                 0.0000
     32 ****        -3.4537  -0.8808  -0.6419 H              1 S1                 0.0000
     33 ****        -5.0122  -1.1992   0.0654 H              1 S1                 0.0000
     34 ****        -5.2879   0.7302  -1.3194 H              1 S1                 0.0000
     35 ****        -5.4533   1.2342   0.3361 H              1 S1                 0.0000
     36 ****        -3.0715   1.7008  -1.5140 H              1 S1                 0.0000
     37 ****        -4.1650   2.8855  -0.8642 H              1 S1                 0.0000
     38 ****        -3.3101   2.2697   1.4974 H              1 S1                 0.0000
     39 ****        -2.2307   3.1397   0.4724 H              1 S1                 0.0000
     40 ****         0.5638   2.1194  -1.2626 LP             1 S1                 0.0000
     41 ****        -1.0416   2.7352  -1.0544 LP             1 S1                 0.0000
     42 ****         4.5691   0.2069   1.1056 LP             1 S1                 0.0000
@<TRIPOS>BOND
    1    1    2 2     
    2    2    3 am    
    3    2   12 am    
    4    3    4 1     
    5    3   19 1     
    6    4    5 1     
    7    4   20 1     
    8    4   21 1     
    9    5    6 1     
   10    5   22 1     
   11    5   23 1     
   12    6   11 ar    
   13    6    7 ar    
   14    7    8 ar    
   15    7   24 1     
   16    8    9 ar    
   17    8   25 1     
   18    9   10 ar    
   19    9   26 1     
   20   10   11 ar    
   21   10   27 1     
   22   12   18 1     
   23   12   13 1     
   24   13   14 1     
   25   13   28 1     
   26   13   29 1     
   27   14   15 1     
   28   14   30 1     
   29   14   31 1     
   30   15   16 1     
   31   15   32 1     
   32   15   33 1     
   33   16   17 1     
   34   16   34 1     
   35   16   35 1     
   36   17   18 1     
   37   17   36 1     
   38   17   37 1     
   39   18   38 1     
   40   18   39 1     
   41    1   40 1     
   42    1   41 1     
   43   11   42 1     
@<TRIPOS>SUBSTRUCTURE
      1 S1             1
@<TRIPOS>SET
LONE_PAIRS      STATIC     ATOMS    <user>   **** ""
3 40 41 42
DONOR_HYDROGENS      STATIC     ATOMS    <user>   **** ""
1 19
ATOM$BLUE        STATIC     ATOMS    COLORGROUP SYSTEM
3 40 41 42
ATOM$RED        STATIC     ATOMS    COLORGROUP SYSTEM
1 19
