AV-unprocessed.smi:1947|AV-procd|sdf|7868|dock5
  -GOLD-   2272010 23D 1   1.00000     0.00000
 Structure written by MMmdl.
 39 40  0  0  0  0  0  0  0  0  1 V2000
  146.3918  130.2683  152.4011 C   0  0  0  0  0  0  0  0  0  0  0  0
  146.0921  131.3774  151.3796 C   0  0  1  0  0  0  0  0  0  0  0  0
  144.6032  131.3601  150.9796 C   0  0  0  0  0  0  0  0  0  0  0  0
  144.2742  132.4607  149.9601 C   0  0  0  0  0  0  0  0  0  0  0  0
  144.6727  133.8430  150.4951 C   0  0  0  0  0  0  0  0  0  0  0  0
  146.1567  133.8756  150.8888 C   0  0  0  0  0  0  0  0  0  0  0  0
  146.4996  132.7704  151.9111 C   0  0  2  0  0  0  0  0  0  0  0  0
  147.9034  132.7556  152.1360 O   0  0  0  0  0  0  0  0  0  0  0  0
  148.2855  132.3970  153.4560 C   0  0  0  0  0  0  0  0  0  0  0  0
  147.9519  133.5615  154.3994 C   0  0  0  0  0  0  0  0  0  0  0  0
  148.6791  134.7720  154.0334 N   0  0  0  0  0  0  0  0  0  0  0  0
  149.6888  135.3061  154.7344 C   0  0  0  0  0  0  0  0  0  0  0  0
  150.1412  134.8027  155.7623 O   0  0  0  0  0  0  0  0  0  0  0  0
  150.1200  136.4463  154.1717 N   0  0  0  0  0  0  0  0  0  0  0  0
  151.1519  137.3055  154.6245 C   0  0  0  0  0  0  0  0  0  0  0  0
  152.2501  136.7474  155.1475 N   0  0  0  0  0  0  0  0  0  0  0  0
  153.1778  137.7006  155.5489 N   0  0  0  0  0  0  0  0  0  0  0  0
  152.7422  138.9418  155.3130 C   0  0  0  0  0  0  0  0  0  0  0  0
  151.1546  139.0712  154.5769 S   0  0  0  0  0  0  0  0  0  0  0  0
  145.8481  130.4299  153.3323 H   0  0  0  0  0  0  0  0  0  0  0  0
  147.4545  130.2248  152.6404 H   0  0  0  0  0  0  0  0  0  0  0  0
  146.1052  129.2905  152.0137 H   0  0  0  0  0  0  0  0  0  0  0  0
  146.6804  131.1710  150.4842 H   0  0  0  0  0  0  0  0  0  0  0  0
  144.3409  130.3878  150.5613 H   0  0  0  0  0  0  0  0  0  0  0  0
  143.9817  131.4913  151.8665 H   0  0  0  0  0  0  0  0  0  0  0  0
  144.7993  132.2633  149.0246 H   0  0  0  0  0  0  0  0  0  0  0  0
  143.2093  132.4450  149.7267 H   0  0  0  0  0  0  0  0  0  0  0  0
  144.4709  134.6054  149.7420 H   0  0  0  0  0  0  0  0  0  0  0  0
  144.0582  134.0924  151.3611 H   0  0  0  0  0  0  0  0  0  0  0  0
  146.7709  133.7488  149.9963 H   0  0  0  0  0  0  0  0  0  0  0  0
  146.3981  134.8597  151.2893 H   0  0  0  0  0  0  0  0  0  0  0  0
  145.9681  132.9551  152.8469 H   0  0  0  0  0  0  0  0  0  0  0  0
  147.7792  131.4892  153.7839 H   0  0  0  0  0  0  0  0  0  0  0  0
  149.3571  132.1957  153.4835 H   0  0  0  0  0  0  0  0  0  0  0  0
  146.8785  133.7568  154.3943 H   0  0  0  0  0  0  0  0  0  0  0  0
  148.2151  133.2966  155.4237 H   0  0  0  0  0  0  0  0  0  0  0  0
  148.3683  135.2527  153.2020 H   0  0  0  0  0  0  0  0  0  0  0  0
  149.6497  136.7399  153.3281 H   0  0  0  0  0  0  0  0  0  0  0  0
  153.3602  139.7876  155.5751 H   0  0  0  0  0  0  0  0  0  0  0  0
  1  2  1  0  0  0  0
  1 20  1  0  0  0  0
  1 21  1  0  0  0  0
  1 22  1  0  0  0  0
  2  7  1  0  0  0  0
  2  3  1  0  0  0  0
  2 23  1  0  0  0  0
  3  4  1  0  0  0  0
  3 24  1  0  0  0  0
  3 25  1  0  0  0  0
  4  5  1  0  0  0  0
  4 26  1  0  0  0  0
  4 27  1  0  0  0  0
  5  6  1  0  0  0  0
  5 28  1  0  0  0  0
  5 29  1  0  0  0  0
  6  7  1  0  0  0  0
  6 30  1  0  0  0  0
  6 31  1  0  0  0  0
  7  8  1  0  0  0  0
  7 32  1  0  0  0  0
  8  9  1  0  0  0  0
  9 10  1  0  0  0  0
  9 33  1  0  0  0  0
  9 34  1  0  0  0  0
 10 11  1  0  0  0  0
 10 35  1  0  0  0  0
 10 36  1  0  0  0  0
 11 12  1  0  0  0  0
 11 37  1  0  0  0  0
 12 13  2  0  0  0  0
 12 14  1  0  0  0  0
 14 15  1  0  0  0  0
 14 38  1  0  0  0  0
 15 19  1  0  0  0  0
 15 16  2  0  0  0  0
 16 17  1  0  0  0  0
 17 18  2  0  0  0  0
 18 19  1  0  0  0  0
 18 39  1  0  0  0  0
M  END
> <s_m_source_file>
AV-unprocessed.smi

> <i_m_source_file_index>
1947

> <i_lp_mmshare_version>
43012

> <i_f3d_flags>
0

> <s_epik_input>
W0NIM11bQ0BASF0xW0NIMl1bQ0gyXVtDSDJdW0NIMl1bQ0BIXTFPW0NIMl1bQ0gyXVtOSF1DKD1PKVtOSF1jMm5uW2NIXXMy

> <s_epik_cmdline>
J2VwaWtfcHl0aG9uJywgJy1waCcsICc3LjAnLCAnLXRuJywgJzgnLCAnLW1hJywgJzIwMCcsICctbWV0YWxfYmluZGluZycsICctaW1hZScsICc8aW5maWxlLm1hZT4nLCAnLW9tYWUnLCAnPG91dGZpbGUubWFlPic=

> <r_lp_tautomer_probability>
1

> <r_epik_Ionization_Penalty>
0.00220897

> <r_epik_Ionization_Penalty_Charging>
0

> <r_epik_Ionization_Penalty_Neutral>
0.00220897

> <r_epik_State_Penalty>
-0

> <r_epik_Charging_Adjusted_Penalty>
0

> <i_epik_Tot_Q>
0

> <i_epik_Tot_abs_Q>
0

> <r_epik_Metal_State_Penalty>
0.345002

> <b_epik_Metal_Only>
0

> <s_lp_Force_Field>
OPLS_2005

> <r_lp_Energy>
7.32574

> <b_lp_Chiralities_Consistent>
1

> <s_lp_Variant>
AV-unprocessed.smi:1947-4

> <Gold.Version>
5.8.1

> <Gold.Id.Protein>
6NUR|6NUR_protein|mol2

> <Gold.PLP.Fitness>
42.0909

> <Gold.PLP.PLP>
-34.9668

> <Gold.PLP.part.hbond>
-4.6523

> <Gold.PLP.part.metal>
0.0000

> <Gold.PLP.part.buried>
-3.4978

> <Gold.PLP.part.nonpolar>
-28.2067

> <Gold.PLP.part.repulsive>
1.2934

> <Gold.PLP.ligand.clash>
0.0000

> <Gold.PLP.ligand.torsion>
0.8157

> <Gold.PLP.Chemscore.Hbond>
2.9040

> <Gold.PLP.Chemscore.CHOScore>
0.0000

> <Gold.PLP.Chemscore.Metal>
0.0000

> <Gold.Chemscore.Hbonds>
donor molecule, donor type, donor heavy atom, donor atom, acceptor molecule, acceptor atom, score
      L1  H    11    37       P1  7948  0.83
      L1  H    14    38       P1  7948  0.90
      P1  H 10752 10763       L1    16  0.72

> <Gold.PLP.Chemscore.Internal.Correction>
0.0436

> <Gold.Rescore>
     Score         DG    S(hbond)    S(metal)    S(lipo)     H(rot)  DE(clash)    DE(int)     intcor
     15.04     -17.24       2.23        0.00      79.37       1.94       0.25       1.94       ----

> <Gold.Chemscore.Fitness>
15.0396

> <Gold.Chemscore.DG>
-17.2367

> <Gold.Chemscore.ZeroCoef>
-5.4800

> <Gold.Chemscore.Hbond>
2.2254

> <Gold.Chemscore.Metal>
0.0000

> <Gold.Chemscore.Lipo>
79.3722

> <Gold.Chemscore.Internal_Hbond>
0.0000

> <Gold.Chemscore.DEClash>
0.2550

> <Gold.Chemscore.DEInternal>
1.9422

> <Gold.Chemscore.Rot>
1.9385

> <Gold.Chemscore.Internal.Correction>
   9.000000E+99

> <Gold.Chemscore.Hbonds>
donor molecule, donor type, donor heavy atom, donor atom, acceptor molecule, acceptor atom, score
      L1  H    11    37       P1  7948  0.78
      L1  H    14    38       P1  7948  0.49
      P1  H 10752 10763       L1    16  0.46

> <Gold.Chemscore.Hbond.Weighted>
-7.4327

> <Gold.Chemscore.Metal.Weighted>
-0.0000

> <Gold.Chemscore.Lipo.Weighted>
-9.2865

> <Gold.Chemscore.Internal_Hbond.Weighted>
0.0000

> <Gold.Chemscore.DEClash.Weighted>
0.2550

> <Gold.Chemscore.DEInternal.Weighted>
1.9422

> <Gold.Chemscore.Rot.Weighted>
4.9625

> <Gold.Chemscore.Internal.Correction.Weighted>
   9.000000E+99

> <Gold.Protein.RotatedTorsions>
[ 6907 6896 6895 6894 ] final  -45.44 input  -60.11 | X-H torsion
[ 7974 7965 7964 7962 ] final  -38.00 input  175.53 | X-H torsion
[ 8008 7997 7996 7995 ] final -176.52 input   59.86 | X-H torsion
[ 10167 10162 10161 10158 ] final  -99.68 input  -65.29 | X-H torsion
[ 10718 10713 10712 10709 ] final   46.03 input   66.30 | X-H torsion
[ 10763 10752 10751 10750 ] final   65.16 input  -60.55 | X-H torsion
[ 11005 11000 10999 10996 ] final    1.16 input  -57.11 | X-H torsion

> <Gold.Protein.ActiveResidues>
 VAL166  LYS551  ARG553  GLY616  TRP617  ASP618  TYR619  PRO620  LYS621  CYS622 
 ASP623  PHE694  ASN695  SER759  ASP760  ASP761  ALA762  ILE779  LEU786  VAL792 
 PHE793  MET794  SER795  GLU796  ALA797  LYS798  CYS799  TRP800  GLU811  SER814 

> <Gold.Protein.RotatedAtoms>
  150.9219  134.8636  159.7494 H   0  0  0  0  0  0  0  0  0  0  0  0  # atno 6907 bound_to 6896
  152.4997  134.4205  159.9489 H   0  0  0  0  0  0  0  0  0  0  0  0  # atno 6908 bound_to 6896
  151.4239  133.3650  159.2795 H   0  0  0  0  0  0  0  0  0  0  0  0  # atno 6909 bound_to 6896
  146.0525  140.6462  142.9035 H   0  0  0  0  0  0  0  0  0  0  0  0  # atno 7974 bound_to 7965
  155.9958  140.1210  157.0595 H   0  0  0  0  0  0  0  0  0  0  0  0  # atno 8008 bound_to 7997
  154.4226  140.1116  156.5697 H   0  0  0  0  0  0  0  0  0  0  0  0  # atno 8009 bound_to 7997
  155.6280  140.3472  155.4676 H   0  0  0  0  0  0  0  0  0  0  0  0  # atno 8010 bound_to 7997
  140.2599  143.3414  152.0635 H   0  0  0  0  0  0  0  0  0  0  0  0  # atno 10167 bound_to 10162
  157.4438  130.8097  149.7721 H   0  0  0  0  0  0  0  0  0  0  0  0  # atno 10718 bound_to 10713
  153.0085  135.5367  154.6624 H   0  0  0  0  0  0  0  0  0  0  0  0  # atno 10763 bound_to 10752
  154.5829  135.2851  155.0716 H   0  0  0  0  0  0  0  0  0  0  0  0  # atno 10764 bound_to 10752
  154.1839  135.6511  153.5094 H   0  0  0  0  0  0  0  0  0  0  0  0  # atno 10765 bound_to 10752
  140.6185  133.9683  155.8213 H   0  0  0  0  0  0  0  0  0  0  0  0  # atno 11005 bound_to 11000
  144.7130  140.4109  143.7066 LP  0  0  0  0  0  0  0  0  0  0  0  0  # atno 17320 bound_to 7965
  145.6700  139.1597  143.2760 LP  0  0  0  0  0  0  0  0  0  0  0  0  # atno 17321 bound_to 7965
  139.5020  144.6725  151.6208 LP  0  0  0  0  0  0  0  0  0  0  0  0  # atno 17342 bound_to 10162
  140.5974  143.9672  150.6363 LP  0  0  0  0  0  0  0  0  0  0  0  0  # atno 17343 bound_to 10162
  155.9959  130.3909  150.2799 LP  0  0  0  0  0  0  0  0  0  0  0  0  # atno 17370 bound_to 10713
  157.0966  131.0184  151.3101 LP  0  0  0  0  0  0  0  0  0  0  0  0  # atno 17371 bound_to 10713
  141.0759  134.0136  157.3459 LP  0  0  0  0  0  0  0  0  0  0  0  0  # atno 17394 bound_to 11000
  139.9163  135.0197  156.7893 LP  0  0  0  0  0  0  0  0  0  0  0  0  # atno 17395 bound_to 11000

$$$$
