AV-unprocessed.smi:2316|AV-procd|sdf|9269|dock3
  -GOLD-   2272012493D 1   1.00000     0.00000
 Structure written by MMmdl.
 31 32  0  0  0  0  0  0  0  0  1 V2000
  151.2376  141.2467  156.5022 O   0  0  0  0  0  0  0  0  0  0  0  0
  150.4681  142.1892  156.3295 C   0  0  0  0  0  0  0  0  0  0  0  0
  149.3732  142.1546  155.5450 N   0  0  0  0  0  0  0  0  0  0  0  0
  148.8569  141.0799  154.7715 C   0  0  0  0  0  0  0  0  0  0  0  0
  149.4515  139.7974  154.6915 C   0  0  0  0  0  0  0  0  0  0  0  0
  148.8267  138.8125  153.9005 C   0  0  0  0  0  0  0  0  0  0  0  0
  147.6822  139.0228  153.2162 N   0  0  0  0  0  0  0  0  0  0  0  0
  147.1112  140.2425  153.3056 C   0  0  0  0  0  0  0  0  0  0  0  0
  147.6530  141.2965  154.0683 C   0  0  0  0  0  0  0  0  0  0  0  0
  147.0260  142.4968  154.1183 F   0  0  0  0  0  0  0  0  0  0  0  0
  150.6890  143.3812  156.9153 N   0  0  0  0  0  0  0  0  0  0  0  0
  151.7741  143.7684  157.8201 C   0  0  2  0  0  0  0  0  0  0  0  0
  152.1855  142.5963  158.7029 C   0  0  0  0  0  0  0  0  0  0  0  0
  152.4133  142.6994  160.0234 C   0  0  0  0  0  0  0  0  0  0  0  0
  152.3015  144.0020  160.7932 C   0  0  0  0  0  0  0  0  0  0  0  0
  152.2615  145.2243  159.8593 C   0  0  0  0  0  0  0  0  0  0  0  0
  151.3342  144.9889  158.6572 C   0  0  0  0  0  0  0  0  0  0  0  0
  148.8818  143.0305  155.4407 H   0  0  0  0  0  0  0  0  0  0  0  0
  150.3559  139.5459  155.2230 H   0  0  0  0  0  0  0  0  0  0  0  0
  149.2560  137.8247  153.8208 H   0  0  0  0  0  0  0  0  0  0  0  0
  146.1935  140.3831  152.7537 H   0  0  0  0  0  0  0  0  0  0  0  0
  150.0325  144.1146  156.6896 H   0  0  0  0  0  0  0  0  0  0  0  0
  152.6519  144.0585  157.2402 H   0  0  0  0  0  0  0  0  0  0  0  0
  152.2952  141.6349  158.2224 H   0  0  0  0  0  0  0  0  0  0  0  0
  152.6810  141.8203  160.5912 H   0  0  0  0  0  0  0  0  0  0  0  0
  151.3967  143.9602  161.4001 H   0  0  0  0  0  0  0  0  0  0  0  0
  153.1432  144.0878  161.4808 H   0  0  0  0  0  0  0  0  0  0  0  0
  151.9444  146.1067  160.4156 H   0  0  0  0  0  0  0  0  0  0  0  0
  153.2682  145.4350  159.4959 H   0  0  0  0  0  0  0  0  0  0  0  0
  151.3010  145.8795  158.0286 H   0  0  0  0  0  0  0  0  0  0  0  0
  150.3192  144.8373  159.0282 H   0  0  0  0  0  0  0  0  0  0  0  0
  1  2  2  0  0  0  0
  2  3  1  0  0  0  0
  2 11  1  0  0  0  0
  3  4  1  0  0  0  0
  3 18  1  0  0  0  0
  4  9  1  0  0  0  0
  4  5  2  0  0  0  0
  5  6  1  0  0  0  0
  5 19  1  0  0  0  0
  6  7  2  0  0  0  0
  6 20  1  0  0  0  0
  7  8  1  0  0  0  0
  8  9  2  0  0  0  0
  8 21  1  0  0  0  0
  9 10  1  0  0  0  0
 11 12  1  0  0  0  0
 11 22  1  0  0  0  0
 12 17  1  0  0  0  0
 12 13  1  0  0  0  0
 12 23  1  0  0  0  0
 13 14  2  0  0  0  0
 13 24  1  0  0  0  0
 14 15  1  0  0  0  0
 14 25  1  0  0  0  0
 15 16  1  0  0  0  0
 15 26  1  0  0  0  0
 15 27  1  0  0  0  0
 16 17  1  0  0  0  0
 16 28  1  0  0  0  0
 16 29  1  0  0  0  0
 17 30  1  0  0  0  0
 17 31  1  0  0  0  0
M  END
> <s_m_source_file>
AV-unprocessed.smi

> <i_m_source_file_index>
2316

> <i_lp_mmshare_version>
43012

> <i_f3d_flags>
0

> <s_epik_input>
W0NIMl0xW0NIMl1bQ0gyXVtDSF09W0NIXVtDQEhdMVtOSF1DKD1PKVtOSF1jMltjSF1bY0hdbltjSF1jMkY=

> <s_epik_cmdline>
J2VwaWtfcHl0aG9uJywgJy1waCcsICc3LjAnLCAnLXRuJywgJzgnLCAnLW1hJywgJzIwMCcsICctbWV0YWxfYmluZGluZycsICctaW1hZScsICc8aW5maWxlLm1hZT4nLCAnLW9tYWUnLCAnPG91dGZpbGUubWFlPic=

> <r_epik_Ionization_Penalty>
0.0032416

> <r_epik_Ionization_Penalty_Charging>
0

> <r_epik_Ionization_Penalty_Neutral>
0.0032416

> <r_epik_State_Penalty>
0.00226065

> <r_epik_Charging_Adjusted_Penalty>
0.00226065

> <i_epik_Tot_Q>
0

> <i_epik_Tot_abs_Q>
0

> <r_epik_Metal_State_Penalty>
-0

> <b_epik_Metal_Only>
0

> <s_lp_Force_Field>
OPLS_2005

> <r_lp_Energy>
22.3144

> <b_lp_Chiralities_Consistent>
1

> <s_lp_Variant>
AV-unprocessed.smi:2316-1

> <Gold.Version>
5.8.1

> <Gold.Id.Protein>
6NUR|6NUR_protein|mol2

> <Gold.PLP.Fitness>
51.3017

> <Gold.PLP.PLP>
-40.2473

> <Gold.PLP.part.hbond>
-2.0000

> <Gold.PLP.part.metal>
0.0000

> <Gold.PLP.part.buried>
-3.7126

> <Gold.PLP.part.nonpolar>
-35.1721

> <Gold.PLP.part.repulsive>
1.4274

> <Gold.PLP.ligand.clash>
0.0000

> <Gold.PLP.ligand.torsion>
0.3393

> <Gold.PLP.Chemscore.Hbond>
1.9760

> <Gold.PLP.Chemscore.CHOScore>
1.9325

> <Gold.PLP.Chemscore.Metal>
0.0000

> <Gold.Chemscore.Hbonds>
donor molecule, donor type, donor heavy atom, donor atom, acceptor molecule, acceptor atom, score
      L1  H     3    18       P1  8028  0.98
      L1  H    11    22       P1  8028  1.00
      L1  C     6    20       P1  7948  0.92
      L1  C     8    21       P1 10175  1.00

> <Gold.PLP.Chemscore.Internal.Correction>
0.0074

> <Gold.Rescore>
     Score         DG    S(hbond)    S(metal)    S(lipo)     H(rot)  DE(clash)    DE(int)     intcor
     18.56     -21.57       1.90        0.00     105.23       1.00       0.17       2.83       ----

> <Gold.Chemscore.Fitness>
18.5638

> <Gold.Chemscore.DG>
-21.5673

> <Gold.Chemscore.ZeroCoef>
-5.4800

> <Gold.Chemscore.Hbond>
1.8968

> <Gold.Chemscore.Metal>
0.0000

> <Gold.Chemscore.Lipo>
105.2302

> <Gold.Chemscore.Internal_Hbond>
0.0000

> <Gold.Chemscore.DEClash>
0.1687

> <Gold.Chemscore.DEInternal>
2.8347

> <Gold.Chemscore.Rot>
1.0000

> <Gold.Chemscore.Internal.Correction>
   9.000000E+99

> <Gold.Chemscore.Hbonds>
donor molecule, donor type, donor heavy atom, donor atom, acceptor molecule, acceptor atom, score
      L1  H     3    18       P1  8028  0.93
      L1  H    11    22       P1  8028  0.93

> <Gold.Chemscore.Hbond.Weighted>
-6.3353

> <Gold.Chemscore.Metal.Weighted>
-0.0000

> <Gold.Chemscore.Lipo.Weighted>
-12.3119

> <Gold.Chemscore.Internal_Hbond.Weighted>
0.0000

> <Gold.Chemscore.DEClash.Weighted>
0.1687

> <Gold.Chemscore.DEInternal.Weighted>
2.8347

> <Gold.Chemscore.Rot.Weighted>
2.5600

> <Gold.Chemscore.Internal.Correction.Weighted>
   9.000000E+99

> <Gold.Protein.RotatedTorsions>
[ 6907 6896 6895 6894 ] final   28.20 input  -60.11 | X-H torsion
[ 7974 7965 7964 7962 ] final   33.67 input  175.53 | X-H torsion
[ 8008 7997 7996 7995 ] final -132.89 input   59.86 | X-H torsion
[ 10167 10162 10161 10158 ] final  -86.26 input  -65.29 | X-H torsion
[ 10718 10713 10712 10709 ] final    3.71 input   66.30 | X-H torsion
[ 10763 10752 10751 10750 ] final -172.23 input  -60.55 | X-H torsion
[ 11005 11000 10999 10996 ] final   54.16 input  -57.11 | X-H torsion

> <Gold.Protein.ActiveResidues>
 VAL166  LYS551  ARG553  GLY616  TRP617  ASP618  TYR619  PRO620  LYS621  CYS622 
 ASP623  PHE694  ASN695  SER759  ASP760  ASP761  ALA762  ILE779  LEU786  VAL792 
 PHE793  MET794  SER795  GLU796  ALA797  LYS798  CYS799  TRP800  GLU811  SER814 

> <Gold.Protein.RotatedAtoms>
  152.0135  134.9863  160.0568 H   0  0  0  0  0  0  0  0  0  0  0  0  # atno 6907 bound_to 6896
  152.1406  133.4457  159.4773 H   0  0  0  0  0  0  0  0  0  0  0  0  # atno 6908 bound_to 6896
  150.6865  134.2228  159.4446 H   0  0  0  0  0  0  0  0  0  0  0  0  # atno 6909 bound_to 6896
  146.1405  139.6367  142.9166 H   0  0  0  0  0  0  0  0  0  0  0  0  # atno 7974 bound_to 7965
  155.3365  140.0470  157.3044 H   0  0  0  0  0  0  0  0  0  0  0  0  # atno 8008 bound_to 7997
  154.5300  140.2254  155.8786 H   0  0  0  0  0  0  0  0  0  0  0  0  # atno 8009 bound_to 7997
  156.1779  140.3081  155.9099 H   0  0  0  0  0  0  0  0  0  0  0  0  # atno 8010 bound_to 7997
  140.3959  143.2684  151.9205 H   0  0  0  0  0  0  0  0  0  0  0  0  # atno 10167 bound_to 10162
  156.8819  130.5657  149.5653 H   0  0  0  0  0  0  0  0  0  0  0  0  # atno 10718 bound_to 10713
  154.6216  135.2876  155.0319 H   0  0  0  0  0  0  0  0  0  0  0  0  # atno 10763 bound_to 10752
  154.1512  135.6503  153.4968 H   0  0  0  0  0  0  0  0  0  0  0  0  # atno 10764 bound_to 10752
  153.0238  135.5356  154.7008 H   0  0  0  0  0  0  0  0  0  0  0  0  # atno 10765 bound_to 10752
  140.0708  134.5472  155.9048 H   0  0  0  0  0  0  0  0  0  0  0  0  # atno 11005 bound_to 11000
  145.5058  141.0436  143.2515 LP  0  0  0  0  0  0  0  0  0  0  0  0  # atno 17320 bound_to 7965
  144.7787  139.6574  143.7164 LP  0  0  0  0  0  0  0  0  0  0  0  0  # atno 17321 bound_to 7965
  139.4787  144.5682  151.8131 LP  0  0  0  0  0  0  0  0  0  0  0  0  # atno 17342 bound_to 10162
  140.4791  144.1475  150.5929 LP  0  0  0  0  0  0  0  0  0  0  0  0  # atno 17343 bound_to 10162
  156.0673  130.5713  150.9313 LP  0  0  0  0  0  0  0  0  0  0  0  0  # atno 17370 bound_to 10713
  157.6135  131.0935  150.8752 LP  0  0  0  0  0  0  0  0  0  0  0  0  # atno 17371 bound_to 10713
  141.2011  133.6616  156.5933 LP  0  0  0  0  0  0  0  0  0  0  0  0  # atno 17394 bound_to 11000
  140.3629  134.7672  157.4546 LP  0  0  0  0  0  0  0  0  0  0  0  0  # atno 17395 bound_to 11000

$$$$
