AV-unprocessed.smi:1835|AV-procd|sdf|7474|dock10
  -GOLD-   22720 9173D 1   1.00000     0.00000
 Structure written by MMmdl.
 41 42  0  0  0  0  0  0  0  0  1 V2000
  154.1746  142.0634  161.6053 C   0  0  0  0  0  0  0  0  0  0  0  0
  153.6474  142.0083  160.1489 C   0  0  1  0  0  0  0  0  0  0  0  0
  153.3517  140.5251  159.7797 C   0  0  0  0  0  0  0  0  0  0  0  0
  154.4998  139.6402  159.9580 N   0  0  0  0  0  0  0  0  0  0  0  0
  154.4520  138.2999  159.9248 C   0  0  0  0  0  0  0  0  0  0  0  0
  153.4140  137.6682  159.7217 O   0  0  0  0  0  0  0  0  0  0  0  0
  155.7889  137.5748  160.1355 C   0  0  0  0  0  0  0  0  0  0  0  0
  155.8320  136.7774  161.3727 N   0  0  0  0  0  0  0  0  0  0  0  0
  155.6514  137.4688  162.5873 C   0  0  0  0  0  0  0  0  0  0  0  0
  155.6764  136.8397  163.7728 C   0  0  0  0  0  0  0  0  0  0  0  0
  155.8952  135.4127  163.7839 C   0  0  0  0  0  0  0  0  0  0  0  0
  156.0726  134.7422  162.6281 C   0  0  0  0  0  0  0  0  0  0  0  0
  156.0495  135.4264  161.3299 C   0  0  0  0  0  0  0  0  0  0  0  0
  156.2155  134.8223  160.2697 O   0  0  0  0  0  0  0  0  0  0  0  0
  152.4936  142.9099  159.9216 N   0  0  0  0  0  0  0  0  0  0  0  0
  152.5898  144.1528  160.6965 C   0  0  0  0  0  0  0  0  0  0  0  0
  151.4103  145.1077  160.4442 C   0  0  0  0  0  0  0  0  0  0  0  0
  151.3268  145.4076  159.0580 O   0  0  0  0  0  0  0  0  0  0  0  0
  151.1548  144.2380  158.2701 C   0  0  0  0  0  0  0  0  0  0  0  0
  152.3286  143.2721  158.5086 C   0  0  0  0  0  0  0  0  0  0  0  0
  154.9899  141.3622  161.7794 H   0  0  0  0  0  0  0  0  0  0  0  0
  153.3843  141.8307  162.3199 H   0  0  0  0  0  0  0  0  0  0  0  0
  154.5836  143.0400  161.8598 H   0  0  0  0  0  0  0  0  0  0  0  0
  154.4617  142.3437  159.5050 H   0  0  0  0  0  0  0  0  0  0  0  0
  152.5337  140.1466  160.3934 H   0  0  0  0  0  0  0  0  0  0  0  0
  153.0325  140.4146  158.7446 H   0  0  0  0  0  0  0  0  0  0  0  0
  155.3933  140.0802  160.1244 H   0  0  0  0  0  0  0  0  0  0  0  0
  155.9716  136.9411  159.2665 H   0  0  0  0  0  0  0  0  0  0  0  0
  156.6011  138.3045  160.1314 H   0  0  0  0  0  0  0  0  0  0  0  0
  155.5007  138.5343  162.4927 H   0  0  0  0  0  0  0  0  0  0  0  0
  155.5403  137.3869  164.6940 H   0  0  0  0  0  0  0  0  0  0  0  0
  155.9177  134.8806  164.7234 H   0  0  0  0  0  0  0  0  0  0  0  0
  156.2358  133.6746  162.6560 H   0  0  0  0  0  0  0  0  0  0  0  0
  152.6037  143.9401  161.7638 H   0  0  0  0  0  0  0  0  0  0  0  0
  153.5249  144.6636  160.4618 H   0  0  0  0  0  0  0  0  0  0  0  0
  150.4738  144.6647  160.7868 H   0  0  0  0  0  0  0  0  0  0  0  0
  151.5483  146.0346  161.0007 H   0  0  0  0  0  0  0  0  0  0  0  0
  150.2048  143.7602  158.5154 H   0  0  0  0  0  0  0  0  0  0  0  0
  151.1073  144.5222  157.2189 H   0  0  0  0  0  0  0  0  0  0  0  0
  153.2491  143.7212  158.1320 H   0  0  0  0  0  0  0  0  0  0  0  0
  152.1351  142.3898  157.9026 H   0  0  0  0  0  0  0  0  0  0  0  0
  1  2  1  0  0  0  0
  1 21  1  0  0  0  0
  1 22  1  0  0  0  0
  1 23  1  0  0  0  0
  2  3  1  0  0  0  0
  2 15  1  0  0  0  0
  2 24  1  0  0  0  0
  3  4  1  0  0  0  0
  3 25  1  0  0  0  0
  3 26  1  0  0  0  0
  4  5  1  0  0  0  0
  4 27  1  0  0  0  0
  5  6  2  0  0  0  0
  5  7  1  0  0  0  0
  7  8  1  0  0  0  0
  7 28  1  0  0  0  0
  7 29  1  0  0  0  0
  8 13  1  0  0  0  0
  8  9  1  0  0  0  0
  9 10  2  0  0  0  0
  9 30  1  0  0  0  0
 10 11  1  0  0  0  0
 10 31  1  0  0  0  0
 11 12  2  0  0  0  0
 11 32  1  0  0  0  0
 12 13  1  0  0  0  0
 12 33  1  0  0  0  0
 13 14  2  0  0  0  0
 15 20  1  0  0  0  0
 15 16  1  0  0  0  0
 16 17  1  0  0  0  0
 16 34  1  0  0  0  0
 16 35  1  0  0  0  0
 17 18  1  0  0  0  0
 17 36  1  0  0  0  0
 17 37  1  0  0  0  0
 18 19  1  0  0  0  0
 19 20  1  0  0  0  0
 19 38  1  0  0  0  0
 19 39  1  0  0  0  0
 20 40  1  0  0  0  0
 20 41  1  0  0  0  0
M  END
> <s_m_source_file>
AV-unprocessed.smi

> <i_m_source_file_index>
1835

> <i_lp_mmshare_version>
43012

> <i_f3d_flags>
0

> <s_epik_input>
W0NIMl0xW0NIMl1PW0NIMl1bQ0gyXU4xW0NASF0oW0NIM10pW0NIMl1bTkhdQyg9TylbQ0gyXW4yW2NIXVtjSF1bY0hdW2NIXWMyPU8=

> <s_epik_cmdline>
J2VwaWtfcHl0aG9uJywgJy1waCcsICc3LjAnLCAnLXRuJywgJzgnLCAnLW1hJywgJzIwMCcsICctbWV0YWxfYmluZGluZycsICctaW1hZScsICc8aW5maWxlLm1hZT4nLCAnLW9tYWUnLCAnPG91dGZpbGUubWFlPic=

> <r_lp_tautomer_probability>
1

> <r_epik_Ionization_Penalty>
0.237383

> <r_epik_Ionization_Penalty_Charging>
3.58805e-07

> <r_epik_Ionization_Penalty_Neutral>
0.237382

> <r_epik_State_Penalty>
0.228245

> <r_epik_Charging_Adjusted_Penalty>
0.228245

> <i_epik_Tot_Q>
0

> <i_epik_Tot_abs_Q>
0

> <r_epik_Metal_State_Penalty>
0.22822

> <b_epik_Metal_Only>
0

> <s_lp_Force_Field>
OPLS_2005

> <r_lp_Energy>
38.1368

> <b_lp_Chiralities_Consistent>
1

> <s_lp_Variant>
AV-unprocessed.smi:1835-2

> <Gold.Version>
5.8.1

> <Gold.Id.Protein>
6NUR|6NUR_protein|mol2

> <Gold.PLP.Fitness>
45.2125

> <Gold.PLP.PLP>
-46.2577

> <Gold.PLP.part.hbond>
-1.0000

> <Gold.PLP.part.metal>
0.0000

> <Gold.PLP.part.buried>
-6.1273

> <Gold.PLP.part.nonpolar>
-39.4573

> <Gold.PLP.part.repulsive>
0.1494

> <Gold.PLP.ligand.clash>
0.0000

> <Gold.PLP.ligand.torsion>
0.5427

> <Gold.PLP.Chemscore.Hbond>
0.0000

> <Gold.PLP.Chemscore.CHOScore>
0.0000

> <Gold.PLP.Chemscore.Metal>
0.0000

> <Gold.PLP.Chemscore.Internal.Correction>
0.0402

> <Gold.Rescore>
     Score         DG    S(hbond)    S(metal)    S(lipo)     H(rot)  DE(clash)    DE(int)     intcor
     14.11     -14.25       0.00        0.00     116.23       1.89       0.02       0.12       ----

> <Gold.Chemscore.Fitness>
14.1093

> <Gold.Chemscore.DG>
-14.2451

> <Gold.Chemscore.ZeroCoef>
-5.4800

> <Gold.Chemscore.Hbond>
0.0000

> <Gold.Chemscore.Metal>
0.0000

> <Gold.Chemscore.Lipo>
116.2298

> <Gold.Chemscore.Internal_Hbond>
0.0000

> <Gold.Chemscore.DEClash>
0.0163

> <Gold.Chemscore.DEInternal>
0.1194

> <Gold.Chemscore.Rot>
1.8882

> <Gold.Chemscore.Internal.Correction>
   9.000000E+99

> <Gold.Chemscore.Hbond.Weighted>
-0.0000

> <Gold.Chemscore.Metal.Weighted>
-0.0000

> <Gold.Chemscore.Lipo.Weighted>
-13.5989

> <Gold.Chemscore.Internal_Hbond.Weighted>
0.0000

> <Gold.Chemscore.DEClash.Weighted>
0.0163

> <Gold.Chemscore.DEInternal.Weighted>
0.1194

> <Gold.Chemscore.Rot.Weighted>
4.8338

> <Gold.Chemscore.Internal.Correction.Weighted>
   9.000000E+99

> <Gold.Protein.RotatedTorsions>
[ 6907 6896 6895 6894 ] final   59.47 input  -60.11 | X-H torsion
[ 7974 7965 7964 7962 ] final  105.85 input  175.53 | X-H torsion
[ 8008 7997 7996 7995 ] final  -84.05 input   59.86 | X-H torsion
[ 10167 10162 10161 10158 ] final -110.36 input  -65.29 | X-H torsion
[ 10718 10713 10712 10709 ] final   84.23 input   66.30 | X-H torsion
[ 10763 10752 10751 10750 ] final  112.46 input  -60.55 | X-H torsion
[ 11005 11000 10999 10996 ] final  150.74 input  -57.11 | X-H torsion

> <Gold.Protein.ActiveResidues>
 VAL166  LYS551  ARG553  GLY616  TRP617  ASP618  TYR619  PRO620  LYS621  CYS622 
 ASP623  PHE694  ASN695  SER759  ASP760  ASP761  ALA762  ILE779  LEU786  VAL792 
 PHE793  MET794  SER795  GLU796  ALA797  LYS798  CYS799  TRP800  GLU811  SER814 

> <Gold.Protein.RotatedAtoms>
  152.3917  134.6430  160.0104 H   0  0  0  0  0  0  0  0  0  0  0  0  # atno 6907 bound_to 6896
  151.6662  133.3310  159.3193 H   0  0  0  0  0  0  0  0  0  0  0  0  # atno 6908 bound_to 6896
  150.7832  134.6838  159.6503 H   0  0  0  0  0  0  0  0  0  0  0  0  # atno 6909 bound_to 6896
  145.3143  139.2531  143.3746 H   0  0  0  0  0  0  0  0  0  0  0  0  # atno 7974 bound_to 7965
  154.6257  140.0610  156.9670 H   0  0  0  0  0  0  0  0  0  0  0  0  # atno 8008 bound_to 7997
  155.1746  140.3294  155.4368 H   0  0  0  0  0  0  0  0  0  0  0  0  # atno 8009 bound_to 7997
  156.2456  140.1908  156.6846 H   0  0  0  0  0  0  0  0  0  0  0  0  # atno 8010 bound_to 7997
  140.1453  143.4244  152.1533 H   0  0  0  0  0  0  0  0  0  0  0  0  # atno 10167 bound_to 10162
  157.6894  131.0124  150.2642 H   0  0  0  0  0  0  0  0  0  0  0  0  # atno 10718 bound_to 10713
  153.4782  135.3685  155.2428 H   0  0  0  0  0  0  0  0  0  0  0  0  # atno 10763 bound_to 10752
  154.8756  135.3948  154.3731 H   0  0  0  0  0  0  0  0  0  0  0  0  # atno 10764 bound_to 10752
  153.4331  135.7083  153.6283 H   0  0  0  0  0  0  0  0  0  0  0  0  # atno 10765 bound_to 10752
  140.1158  134.8895  157.2001 H   0  0  0  0  0  0  0  0  0  0  0  0  # atno 11005 bound_to 11000
  146.3106  140.3687  142.8672 LP  0  0  0  0  0  0  0  0  0  0  0  0  # atno 17320 bound_to 7965
  144.8990  140.7619  143.5879 LP  0  0  0  0  0  0  0  0  0  0  0  0  # atno 17321 bound_to 7965
  139.5452  144.7292  151.4607 LP  0  0  0  0  0  0  0  0  0  0  0  0  # atno 17342 bound_to 10162
  140.6735  143.8240  150.7029 LP  0  0  0  0  0  0  0  0  0  0  0  0  # atno 17343 bound_to 10162
  156.3216  130.3786  149.7570 LP  0  0  0  0  0  0  0  0  0  0  0  0  # atno 17370 bound_to 10713
  156.5138  130.8184  151.3179 LP  0  0  0  0  0  0  0  0  0  0  0  0  # atno 17371 bound_to 10713
  140.3031  134.3109  155.7285 LP  0  0  0  0  0  0  0  0  0  0  0  0  # atno 17394 bound_to 11000
  141.2141  133.7604  156.9669 LP  0  0  0  0  0  0  0  0  0  0  0  0  # atno 17395 bound_to 11000

$$$$
