AV-unprocessed.smi:2481|AV-procd|sdf|9773|dock1
  -GOLD-   2272013413D 1   1.00000     0.00000
 Structure written by MMmdl.
 37 38  0  0  0  0  0  0  0  0  1 V2000
  151.3575  138.2590  154.2402 C   0  0  0  0  0  0  0  0  0  0  0  0
  150.2923  139.2314  154.3908 N   0  0  0  0  0  0  0  0  0  0  0  0
  150.5562  140.4963  154.7948 N   0  0  0  0  0  0  0  0  0  0  0  0
  149.3470  141.0575  154.8104 C   0  0  0  0  0  0  0  0  0  0  0  0
  148.3072  140.2503  154.4461 N   0  0  0  0  0  0  0  0  0  0  0  0
  148.9741  139.1272  154.1991 C   0  0  0  0  0  0  0  0  0  0  0  0
  148.4109  137.8959  153.7691 N   0  0  0  0  0  0  0  0  0  0  0  0
  147.2202  137.3726  154.1069 C   0  0  0  0  0  0  0  0  0  0  0  0
  146.4098  137.8893  154.8764 O   0  0  0  0  0  0  0  0  0  0  0  0
  147.0190  136.1959  153.4969 N   0  0  0  0  0  0  0  0  0  0  0  0
  145.8291  135.3555  153.6399 C   0  0  2  0  0  0  0  0  0  0  0  0
  146.1306  133.9024  153.2135 C   0  0  0  0  0  0  0  0  0  0  0  0
  146.3584  133.7789  151.6976 C   0  0  0  0  0  0  0  0  0  0  0  0
  145.1713  134.3515  150.9097 C   0  0  0  0  0  0  0  0  0  0  0  0
  144.8730  135.8028  151.3192 C   0  0  0  0  0  0  0  0  0  0  0  0
  144.6313  135.9328  152.8387 C   0  0  2  0  0  0  0  0  0  0  0  0
  144.2734  137.3855  153.2192 C   0  0  0  0  0  0  0  0  0  0  0  0
  143.1596  137.8407  152.4800 O   0  0  0  0  0  0  0  0  0  0  0  0
  151.2895  137.7866  153.2598 H   0  0  0  0  0  0  0  0  0  0  0  0
  151.2659  137.4949  155.0126 H   0  0  0  0  0  0  0  0  0  0  0  0
  152.3321  138.7408  154.3316 H   0  0  0  0  0  0  0  0  0  0  0  0
  149.2087  142.0899  155.0962 H   0  0  0  0  0  0  0  0  0  0  0  0
  148.9769  137.3571  153.1306 H   0  0  0  0  0  0  0  0  0  0  0  0
  147.7434  135.8490  152.8856 H   0  0  0  0  0  0  0  0  0  0  0  0
  145.5492  135.3404  154.6950 H   0  0  0  0  0  0  0  0  0  0  0  0
  146.9966  133.5175  153.7532 H   0  0  0  0  0  0  0  0  0  0  0  0
  145.2924  133.2659  153.4998 H   0  0  0  0  0  0  0  0  0  0  0  0
  147.2726  134.3031  151.4170 H   0  0  0  0  0  0  0  0  0  0  0  0
  146.5104  132.7327  151.4302 H   0  0  0  0  0  0  0  0  0  0  0  0
  145.3778  134.3024  149.8403 H   0  0  0  0  0  0  0  0  0  0  0  0
  144.2881  133.7352  151.0822 H   0  0  0  0  0  0  0  0  0  0  0  0
  145.7016  136.4445  151.0171 H   0  0  0  0  0  0  0  0  0  0  0  0
  143.9984  136.1570  150.7726 H   0  0  0  0  0  0  0  0  0  0  0  0
  143.7598  135.3185  153.0725 H   0  0  0  0  0  0  0  0  0  0  0  0
  144.0641  137.4802  154.2848 H   0  0  0  0  0  0  0  0  0  0  0  0
  145.1119  138.0482  153.0028 H   0  0  0  0  0  0  0  0  0  0  0  0
  143.0720  138.7727  152.6100 H   0  0  0  0  0  0  0  0  0  0  0  0
  1  2  1  0  0  0  0
  1 19  1  0  0  0  0
  1 20  1  0  0  0  0
  1 21  1  0  0  0  0
  2  6  1  0  0  0  0
  2  3  1  0  0  0  0
  3  4  2  0  0  0  0
  4  5  1  0  0  0  0
  4 22  1  0  0  0  0
  5  6  2  0  0  0  0
  6  7  1  0  0  0  0
  7  8  1  0  0  0  0
  7 23  1  0  0  0  0
  8  9  2  0  0  0  0
  8 10  1  0  0  0  0
 10 11  1  0  0  0  0
 10 24  1  0  0  0  0
 11 16  1  0  0  0  0
 11 12  1  0  0  0  0
 11 25  1  0  0  0  0
 12 13  1  0  0  0  0
 12 26  1  0  0  0  0
 12 27  1  0  0  0  0
 13 14  1  0  0  0  0
 13 28  1  0  0  0  0
 13 29  1  0  0  0  0
 14 15  1  0  0  0  0
 14 30  1  0  0  0  0
 14 31  1  0  0  0  0
 15 16  1  0  0  0  0
 15 32  1  0  0  0  0
 15 33  1  0  0  0  0
 16 17  1  0  0  0  0
 16 34  1  0  0  0  0
 17 18  1  0  0  0  0
 17 35  1  0  0  0  0
 17 36  1  0  0  0  0
 18 37  1  0  0  0  0
M  END
> <s_m_source_file>
AV-unprocessed.smi

> <i_m_source_file_index>
2481

> <i_lp_mmshare_version>
43012

> <i_f3d_flags>
0

> <s_epik_input>
W0NIM11uMW5bY0hdbmMxW05IXUMoPU8pW05IXVtDQEBIXTJbQ0gyXVtDSDJdW0NIMl1bQ0gyXVtDQEhdMltDSDJdW09IXQ==

> <s_epik_cmdline>
J2VwaWtfcHl0aG9uJywgJy1waCcsICc3LjAnLCAnLXRuJywgJzgnLCAnLW1hJywgJzIwMCcsICctbWV0YWxfYmluZGluZycsICctaW1hZScsICc8aW5maWxlLm1hZT4nLCAnLW9tYWUnLCAnPG91dGZpbGUubWFlPic=

> <r_lp_tautomer_probability>
1

> <r_epik_Ionization_Penalty>
2.32704e-05

> <r_epik_Ionization_Penalty_Charging>
0

> <r_epik_Ionization_Penalty_Neutral>
2.32704e-05

> <r_epik_State_Penalty>
-0

> <r_epik_Charging_Adjusted_Penalty>
0

> <i_epik_Tot_Q>
0

> <i_epik_Tot_abs_Q>
0

> <r_epik_Metal_State_Penalty>
-0

> <b_epik_Metal_Only>
0

> <s_lp_Force_Field>
OPLS_2005

> <r_lp_Energy>
12.0515

> <b_lp_Chiralities_Consistent>
1

> <s_lp_Variant>
AV-unprocessed.smi:2481-3

> <Gold.Version>
5.8.1

> <Gold.Id.Protein>
6NUR|6NUR_protein|mol2

> <Gold.PLP.Fitness>
39.7138

> <Gold.PLP.PLP>
-27.7995

> <Gold.PLP.part.hbond>
-4.9775

> <Gold.PLP.part.metal>
0.0000

> <Gold.PLP.part.buried>
-1.8550

> <Gold.PLP.part.nonpolar>
-20.7078

> <Gold.PLP.part.repulsive>
0.2718

> <Gold.PLP.ligand.clash>
0.0000

> <Gold.PLP.ligand.torsion>
0.4906

> <Gold.PLP.Chemscore.Hbond>
3.6900

> <Gold.PLP.Chemscore.CHOScore>
0.5984

> <Gold.PLP.Chemscore.Metal>
0.0000

> <Gold.Chemscore.Hbonds>
donor molecule, donor type, donor heavy atom, donor atom, acceptor molecule, acceptor atom, score
      L1  H     7    23       P1  7948  0.93
      L1  H    10    24       P1  7948  0.94
      L1  H    18    37       P1 10175  1.00
      P1  H  7989  7998       L1     3  0.80
      L1  C     4    22       P1  8028  0.57

> <Gold.PLP.Chemscore.Internal.Correction>
0.0305

> <Gold.Rescore>
     Score         DG    S(hbond)    S(metal)    S(lipo)     H(rot)  DE(clash)    DE(int)     intcor
     13.57     -15.24       3.24        0.00      34.42       1.99       0.15       1.53       ----

> <Gold.Chemscore.Fitness>
13.5677

> <Gold.Chemscore.DG>
-15.2431

> <Gold.Chemscore.ZeroCoef>
-5.4800

> <Gold.Chemscore.Hbond>
3.2408

> <Gold.Chemscore.Metal>
0.0000

> <Gold.Chemscore.Lipo>
34.4207

> <Gold.Chemscore.Internal_Hbond>
0.0000

> <Gold.Chemscore.DEClash>
0.1490

> <Gold.Chemscore.DEInternal>
1.5264

> <Gold.Chemscore.Rot>
1.9877

> <Gold.Chemscore.Internal.Correction>
   9.000000E+99

> <Gold.Chemscore.Hbonds>
donor molecule, donor type, donor heavy atom, donor atom, acceptor molecule, acceptor atom, score
      L1  H     7    23       P1  7948  0.91
      L1  H    10    24       P1  7948  0.90
      L1  H    18    37       P1 10175  0.97
      P1  H  7989  7998       L1     3  0.11

> <Gold.Chemscore.Hbond.Weighted>
-10.8244

> <Gold.Chemscore.Metal.Weighted>
-0.0000

> <Gold.Chemscore.Lipo.Weighted>
-4.0272

> <Gold.Chemscore.Internal_Hbond.Weighted>
0.0000

> <Gold.Chemscore.DEClash.Weighted>
0.1490

> <Gold.Chemscore.DEInternal.Weighted>
1.5264

> <Gold.Chemscore.Rot.Weighted>
5.0885

> <Gold.Chemscore.Internal.Correction.Weighted>
   9.000000E+99

> <Gold.Protein.RotatedTorsions>
[ 6907 6896 6895 6894 ] final   80.35 input  -60.11 | X-H torsion
[ 7974 7965 7964 7962 ] final  -36.52 input  175.53 | X-H torsion
[ 8008 7997 7996 7995 ] final  -16.09 input   59.86 | X-H torsion
[ 10167 10162 10161 10158 ] final  -90.48 input  -65.29 | X-H torsion
[ 10718 10713 10712 10709 ] final  176.98 input   66.30 | X-H torsion
[ 10763 10752 10751 10750 ] final  -47.88 input  -60.55 | X-H torsion
[ 11005 11000 10999 10996 ] final  135.43 input  -57.11 | X-H torsion

> <Gold.Protein.ActiveResidues>
 VAL166  LYS551  ARG553  GLY616  TRP617  ASP618  TYR619  PRO620  LYS621  CYS622 
 ASP623  PHE694  ASN695  SER759  ASP760  ASP761  ALA762  ILE779  LEU786  VAL792 
 PHE793  MET794  SER795  GLU796  ALA797  LYS798  CYS799  TRP800  GLU811  SER814 

> <Gold.Protein.RotatedAtoms>
  152.5231  134.3371  159.9203 H   0  0  0  0  0  0  0  0  0  0  0  0  # atno 6907 bound_to 6896
  151.3321  133.3990  159.2671 H   0  0  0  0  0  0  0  0  0  0  0  0  # atno 6908 bound_to 6896
  150.9872  134.9233  159.7936 H   0  0  0  0  0  0  0  0  0  0  0  0  # atno 6909 bound_to 6896
  146.0655  140.6287  142.8977 H   0  0  0  0  0  0  0  0  0  0  0  0  # atno 7974 bound_to 7965
  154.5079  140.2179  155.9214 H   0  0  0  0  0  0  0  0  0  0  0  0  # atno 8008 bound_to 7997
  156.1517  140.3160  155.8625 H   0  0  0  0  0  0  0  0  0  0  0  0  # atno 8009 bound_to 7997
  155.3926  140.0479  157.3031 H   0  0  0  0  0  0  0  0  0  0  0  0  # atno 8010 bound_to 7997
  140.3545  143.2874  151.9687 H   0  0  0  0  0  0  0  0  0  0  0  0  # atno 10167 bound_to 10162
  156.9121  130.9913  151.3019 H   0  0  0  0  0  0  0  0  0  0  0  0  # atno 10718 bound_to 10713
  154.0687  135.6608  153.4821 H   0  0  0  0  0  0  0  0  0  0  0  0  # atno 10763 bound_to 10752
  153.0399  135.5152  154.7588 H   0  0  0  0  0  0  0  0  0  0  0  0  # atno 10764 bound_to 10752
  154.6647  135.3020  154.9788 H   0  0  0  0  0  0  0  0  0  0  0  0  # atno 10765 bound_to 10752
  139.9979  134.9490  157.0006 H   0  0  0  0  0  0  0  0  0  0  0  0  # atno 11005 bound_to 11000
  144.7200  140.4340  143.7015 LP  0  0  0  0  0  0  0  0  0  0  0  0  # atno 17320 bound_to 7965
  145.6485  139.1561  143.2875 LP  0  0  0  0  0  0  0  0  0  0  0  0  # atno 17321 bound_to 7965
  139.4822  144.6047  151.7542 LP  0  0  0  0  0  0  0  0  0  0  0  0  # atno 17342 bound_to 10162
  140.5187  144.0913  150.6016 LP  0  0  0  0  0  0  0  0  0  0  0  0  # atno 17343 bound_to 10162
  157.5961  130.8478  149.8731 LP  0  0  0  0  0  0  0  0  0  0  0  0  # atno 17370 bound_to 10713
  156.0531  130.3713  150.1154 LP  0  0  0  0  0  0  0  0  0  0  0  0  # atno 17371 bound_to 10713
  140.4783  134.1316  155.7213 LP  0  0  0  0  0  0  0  0  0  0  0  0  # atno 17394 bound_to 11000
  141.1619  133.8776  157.1824 LP  0  0  0  0  0  0  0  0  0  0  0  0  # atno 17395 bound_to 11000

$$$$
