AV-unprocessed.smi:1945|AV-procd|sdf|7859|dock6
  -GOLD-   2272010 03D 1   1.00000     0.00000
 Structure written by MMmdl.
 47 48  0  0  0  0  0  0  0  0  1 V2000
  146.6017  129.0844  152.6827 C   0  0  0  0  0  0  0  0  0  0  0  0
  146.9485  130.5328  152.5036 C   0  0  0  0  0  0  0  0  0  0  0  0
  147.9572  131.2834  153.1739 C   0  0  0  0  0  0  0  0  0  0  0  0
  147.8219  132.5289  152.6238 C   0  0  0  0  0  0  0  0  0  0  0  0
  148.5325  133.6569  152.8891 N   0  0  0  0  0  0  0  0  0  0  0  0
  149.2065  133.9747  154.0075 C   0  0  0  0  0  0  0  0  0  0  0  0
  149.3999  133.2213  154.9619 O   0  0  0  0  0  0  0  0  0  0  0  0
  149.6283  135.2472  153.9722 N   0  0  0  0  0  0  0  0  0  0  0  0
  150.2283  135.9585  155.0964 C   0  0  0  0  0  0  0  0  0  0  0  0
  150.9914  137.2008  154.6125 C   0  0  0  0  0  0  0  0  0  0  0  0
  150.3298  138.3622  155.0903 O   0  0  0  0  0  0  0  0  0  0  0  0
  151.0923  139.5608  155.0272 C   0  0  2  0  0  0  0  0  0  0  0  0
  152.2277  139.4396  156.0605 C   0  0  0  0  0  0  0  0  0  0  0  0
  151.6903  139.3958  157.5015 C   0  0  0  0  0  0  0  0  0  0  0  0
  150.7979  140.6094  157.8021 C   0  0  0  0  0  0  0  0  0  0  0  0
  149.6558  140.7295  156.7809 C   0  0  0  0  0  0  0  0  0  0  0  0
  150.1931  140.7836  155.3364 C   0  0  2  0  0  0  0  0  0  0  0  0
  149.0590  140.9686  154.3166 C   0  0  0  0  0  0  0  0  0  0  0  0
  146.8053  132.4963  151.6932 N   0  0  0  0  0  0  0  0  0  0  0  0
  146.2769  133.5476  150.8449 C   0  0  0  0  0  0  0  0  0  0  0  0
  146.2681  131.2594  151.6245 N   0  0  0  0  0  0  0  0  0  0  0  0
  147.2200  128.6237  153.4533 H   0  0  0  0  0  0  0  0  0  0  0  0
  146.7544  128.5272  151.7582 H   0  0  0  0  0  0  0  0  0  0  0  0
  145.5593  128.9638  152.9783 H   0  0  0  0  0  0  0  0  0  0  0  0
  148.6525  130.9452  153.9274 H   0  0  0  0  0  0  0  0  0  0  0  0
  148.4618  134.3832  152.1922 H   0  0  0  0  0  0  0  0  0  0  0  0
  149.4401  135.7887  153.1414 H   0  0  0  0  0  0  0  0  0  0  0  0
  149.4753  136.2311  155.8377 H   0  0  0  0  0  0  0  0  0  0  0  0
  150.9193  135.2769  155.5925 H   0  0  0  0  0  0  0  0  0  0  0  0
  152.0140  137.1897  154.9916 H   0  0  0  0  0  0  0  0  0  0  0  0
  151.0491  137.1991  153.5232 H   0  0  0  0  0  0  0  0  0  0  0  0
  151.5453  139.6792  154.0408 H   0  0  0  0  0  0  0  0  0  0  0  0
  152.8215  138.5478  155.8580 H   0  0  0  0  0  0  0  0  0  0  0  0
  152.9044  140.2882  155.9546 H   0  0  0  0  0  0  0  0  0  0  0  0
  151.1208  138.4780  157.6539 H   0  0  0  0  0  0  0  0  0  0  0  0
  152.5213  139.3625  158.2062 H   0  0  0  0  0  0  0  0  0  0  0  0
  150.3884  140.5288  158.8095 H   0  0  0  0  0  0  0  0  0  0  0  0
  151.4000  141.5187  157.7851 H   0  0  0  0  0  0  0  0  0  0  0  0
  148.9745  139.8856  156.8943 H   0  0  0  0  0  0  0  0  0  0  0  0
  149.0704  141.6242  156.9954 H   0  0  0  0  0  0  0  0  0  0  0  0
  150.8242  141.6703  155.2609 H   0  0  0  0  0  0  0  0  0  0  0  0
  148.3473  140.1446  154.3545 H   0  0  0  0  0  0  0  0  0  0  0  0
  149.4499  141.0284  153.3007 H   0  0  0  0  0  0  0  0  0  0  0  0
  148.5059  141.8876  154.5109 H   0  0  0  0  0  0  0  0  0  0  0  0
  146.7334  134.5069  151.0886 H   0  0  0  0  0  0  0  0  0  0  0  0
  145.1987  133.6277  150.9870 H   0  0  0  0  0  0  0  0  0  0  0  0
  146.4826  133.3132  149.8003 H   0  0  0  0  0  0  0  0  0  0  0  0
  1  2  1  0  0  0  0
  1 22  1  0  0  0  0
  1 23  1  0  0  0  0
  1 24  1  0  0  0  0
  2 21  2  0  0  0  0
  2  3  1  0  0  0  0
  3  4  2  0  0  0  0
  3 25  1  0  0  0  0
  4  5  1  0  0  0  0
  4 19  1  0  0  0  0
  5  6  1  0  0  0  0
  5 26  1  0  0  0  0
  6  7  2  0  0  0  0
  6  8  1  0  0  0  0
  8  9  1  0  0  0  0
  8 27  1  0  0  0  0
  9 10  1  0  0  0  0
  9 28  1  0  0  0  0
  9 29  1  0  0  0  0
 10 11  1  0  0  0  0
 10 30  1  0  0  0  0
 10 31  1  0  0  0  0
 11 12  1  0  0  0  0
 12 17  1  0  0  0  0
 12 13  1  0  0  0  0
 12 32  1  0  0  0  0
 13 14  1  0  0  0  0
 13 33  1  0  0  0  0
 13 34  1  0  0  0  0
 14 15  1  0  0  0  0
 14 35  1  0  0  0  0
 14 36  1  0  0  0  0
 15 16  1  0  0  0  0
 15 37  1  0  0  0  0
 15 38  1  0  0  0  0
 16 17  1  0  0  0  0
 16 39  1  0  0  0  0
 16 40  1  0  0  0  0
 17 18  1  0  0  0  0
 17 41  1  0  0  0  0
 18 42  1  0  0  0  0
 18 43  1  0  0  0  0
 18 44  1  0  0  0  0
 19 20  1  0  0  0  0
 19 21  1  0  0  0  0
 20 45  1  0  0  0  0
 20 46  1  0  0  0  0
 20 47  1  0  0  0  0
M  END
> <s_m_source_file>
AV-unprocessed.smi

> <i_m_source_file_index>
1945

> <i_lp_mmshare_version>
43012

> <i_f3d_flags>
0

> <s_epik_input>
W0NIM11jMVtjSF1jKG4objEpW0NIM10pW05IXUMoPU8pW05IXVtDSDJdW0NIMl1PW0NAQEhdMltDSDJdW0NIMl1bQ0gyXVtDSDJdW0NASF0yW0NIM10=

> <s_epik_cmdline>
J2VwaWtfcHl0aG9uJywgJy1waCcsICc3LjAnLCAnLXRuJywgJzgnLCAnLW1hJywgJzIwMCcsICctbWV0YWxfYmluZGluZycsICctaW1hZScsICc8aW5maWxlLm1hZT4nLCAnLW9tYWUnLCAnPG91dGZpbGUubWFlPic=

> <r_lp_tautomer_probability>
1

> <r_epik_Ionization_Penalty>
9.47735e-05

> <r_epik_Ionization_Penalty_Charging>
0

> <r_epik_Ionization_Penalty_Neutral>
9.47735e-05

> <r_epik_State_Penalty>
-0

> <r_epik_Charging_Adjusted_Penalty>
0

> <i_epik_Tot_Q>
0

> <i_epik_Tot_abs_Q>
0

> <r_epik_Metal_State_Penalty>
-0

> <b_epik_Metal_Only>
0

> <s_lp_Force_Field>
OPLS_2005

> <r_lp_Energy>
12.3815

> <b_lp_Chiralities_Consistent>
1

> <s_lp_Variant>
AV-unprocessed.smi:1945-3

> <Gold.Version>
5.8.1

> <Gold.Id.Protein>
6NUR|6NUR_protein|mol2

> <Gold.PLP.Fitness>
40.3649

> <Gold.PLP.PLP>
-36.3917

> <Gold.PLP.part.hbond>
-2.1991

> <Gold.PLP.part.metal>
0.0000

> <Gold.PLP.part.buried>
-1.4406

> <Gold.PLP.part.nonpolar>
-32.1205

> <Gold.PLP.part.repulsive>
0.2663

> <Gold.PLP.ligand.clash>
0.0000

> <Gold.PLP.ligand.torsion>
0.7191

> <Gold.PLP.Chemscore.Hbond>
1.8000

> <Gold.PLP.Chemscore.CHOScore>
0.0000

> <Gold.PLP.Chemscore.Metal>
0.0000

> <Gold.Chemscore.Hbonds>
donor molecule, donor type, donor heavy atom, donor atom, acceptor molecule, acceptor atom, score
      L1  H     5    26       P1  7948  0.34
      L1  H     8    27       P1  7948  0.60

> <Gold.PLP.Chemscore.Internal.Correction>
0.0115

> <Gold.Rescore>
     Score         DG    S(hbond)    S(metal)    S(lipo)     H(rot)  DE(clash)    DE(int)     intcor
     12.78     -15.19       1.51        0.00      75.69       1.63       1.42       0.99       ----

> <Gold.Chemscore.Fitness>
12.7806

> <Gold.Chemscore.DG>
-15.1922

> <Gold.Chemscore.ZeroCoef>
-5.4800

> <Gold.Chemscore.Hbond>
1.5070

> <Gold.Chemscore.Metal>
0.0000

> <Gold.Chemscore.Lipo>
75.6898

> <Gold.Chemscore.Internal_Hbond>
0.0000

> <Gold.Chemscore.DEClash>
1.4169

> <Gold.Chemscore.DEInternal>
0.9947

> <Gold.Chemscore.Rot>
1.6316

> <Gold.Chemscore.Internal.Correction>
   9.000000E+99

> <Gold.Chemscore.Hbonds>
donor molecule, donor type, donor heavy atom, donor atom, acceptor molecule, acceptor atom, score
      L1  H     5    26       P1  7948  0.01
      L1  H     8    27       P1  7948  0.12

> <Gold.Chemscore.Hbond.Weighted>
-5.0333

> <Gold.Chemscore.Metal.Weighted>
-0.0000

> <Gold.Chemscore.Lipo.Weighted>
-8.8557

> <Gold.Chemscore.Internal_Hbond.Weighted>
0.0000

> <Gold.Chemscore.DEClash.Weighted>
1.4169

> <Gold.Chemscore.DEInternal.Weighted>
0.9947

> <Gold.Chemscore.Rot.Weighted>
4.1768

> <Gold.Chemscore.Internal.Correction.Weighted>
   9.000000E+99

> <Gold.Protein.RotatedTorsions>
[ 6907 6896 6895 6894 ] final  165.01 input  -60.11 | X-H torsion
[ 7974 7965 7964 7962 ] final  -27.08 input  175.53 | X-H torsion
[ 8008 7997 7996 7995 ] final  167.26 input   59.86 | X-H torsion
[ 10167 10162 10161 10158 ] final   19.33 input  -65.29 | X-H torsion
[ 10718 10713 10712 10709 ] final  -77.49 input   66.30 | X-H torsion
[ 10763 10752 10751 10750 ] final   62.88 input  -60.55 | X-H torsion
[ 11005 11000 10999 10996 ] final  179.10 input  -57.11 | X-H torsion

> <Gold.Protein.ActiveResidues>
 VAL166  LYS551  ARG553  GLY616  TRP617  ASP618  TYR619  PRO620  LYS621  CYS622 
 ASP623  PHE694  ASN695  SER759  ASP760  ASP761  ALA762  ILE779  LEU786  VAL792 
 PHE793  MET794  SER795  GLU796  ALA797  LYS798  CYS799  TRP800  GLU811  SER814 

> <Gold.Protein.RotatedAtoms>
  151.9011  133.3538  159.3830 H   0  0  0  0  0  0  0  0  0  0  0  0  # atno 6907 bound_to 6896
  150.7080  134.4827  159.5487 H   0  0  0  0  0  0  0  0  0  0  0  0  # atno 6908 bound_to 6896
  152.2416  134.8223  160.0510 H   0  0  0  0  0  0  0  0  0  0  0  0  # atno 6909 bound_to 6896
  146.1382  140.5104  142.8663 H   0  0  0  0  0  0  0  0  0  0  0  0  # atno 7974 bound_to 7965
  156.1649  140.1621  156.8548 H   0  0  0  0  0  0  0  0  0  0  0  0  # atno 8008 bound_to 7997
  154.5197  140.0781  156.8184 H   0  0  0  0  0  0  0  0  0  0  0  0  # atno 8009 bound_to 7997
  155.3632  140.3396  155.4243 H   0  0  0  0  0  0  0  0  0  0  0  0  # atno 8010 bound_to 7997
  140.5587  143.9377  150.6627 H   0  0  0  0  0  0  0  0  0  0  0  0  # atno 10167 bound_to 10162
  156.0143  130.4493  150.3353 H   0  0  0  0  0  0  0  0  0  0  0  0  # atno 10718 bound_to 10713
  152.9998  135.5449  154.6264 H   0  0  0  0  0  0  0  0  0  0  0  0  # atno 10763 bound_to 10752
  154.5551  135.2829  155.0974 H   0  0  0  0  0  0  0  0  0  0  0  0  # atno 10764 bound_to 10752
  154.2198  135.6452  153.5194 H   0  0  0  0  0  0  0  0  0  0  0  0  # atno 10765 bound_to 10752
  140.4024  134.6765  157.4569 H   0  0  0  0  0  0  0  0  0  0  0  0  # atno 11005 bound_to 11000
  144.7763  140.5747  143.6636 LP  0  0  0  0  0  0  0  0  0  0  0  0  # atno 17320 bound_to 7965
  145.5107  139.1479  143.3606 LP  0  0  0  0  0  0  0  0  0  0  0  0  # atno 17321 bound_to 7965
  140.2822  143.3381  152.1140 LP  0  0  0  0  0  0  0  0  0  0  0  0  # atno 17342 bound_to 10162
  139.5060  144.6805  151.6021 LP  0  0  0  0  0  0  0  0  0  0  0  0  # atno 17343 bound_to 10162
  157.1450  131.0306  151.2910 LP  0  0  0  0  0  0  0  0  0  0  0  0  # atno 17370 bound_to 10713
  157.4440  130.7560  149.7093 LP  0  0  0  0  0  0  0  0  0  0  0  0  # atno 17371 bound_to 10713
  140.0326  134.6383  155.9086 LP  0  0  0  0  0  0  0  0  0  0  0  0  # atno 17394 bound_to 11000
  141.1851  133.6554  156.5186 LP  0  0  0  0  0  0  0  0  0  0  0  0  # atno 17395 bound_to 11000

$$$$
