#       Name:                AV-unprocessed.smi:1680
#       Creating user name   scv26
#       Creation time:       Fri Mar 27 07:49:12 2020


#       File generated by GOLD software.
#

@<TRIPOS>MOLECULE
AV-unprocessed.smi:1680
    45    46     1
SMALL
NO_CHARGES


@<TRIPOS>ATOM
      1 ****        -3.0370   1.4544   4.6227 C.3            1 S1                 0.0000
      2 ****        -3.3148   1.6761   3.1343 C.2            1 S1                 0.0000
      3 ****        -4.4848   1.6445   2.7533 O.2            1 S1                 0.0000
      4 ****        -2.2775   1.8964   2.2911 N.am           1 S1                 0.0000
      5 ****        -2.4499   2.0652   0.8455 C.3            1 S1                 0.0000
      6 ****        -1.8111   0.8678   0.1190 C.3            1 S1                 0.0000
      7 ****        -0.3831   0.6965   0.4989 N.4            1 S1                 1.0000
      8 ****         0.2481  -0.4466  -0.2060 C.3            1 S1                 0.0000
      9 ****         1.7826  -0.3284  -0.2635 C.3            1 S1                 0.0000
     10 ****         2.3700  -1.4303  -1.0161 N.am           1 S1                 0.0000
     11 ****         2.4322  -1.5185  -2.3524 C.2            1 S1                 0.0000
     12 ****         1.9720  -0.6110  -3.0493 O.2            1 S1                 0.0000
     13 ****         3.0166  -2.6536  -2.7960 N.pl3          1 S1                -1.0000
     14 ****         3.1542  -2.8670  -4.1152 C.2            1 S1                 0.0000
     15 ****         4.3090  -2.6411  -4.7616 N.2            1 S1                 0.0000
     16 ****         4.2413  -2.9299  -6.1178 N.2            1 S1                 0.0000
     17 ****         3.0326  -3.3755  -6.4598 C.2            1 S1                 0.0000
     18 ****         1.8690  -3.4865  -5.1561 S.3            1 S1                 0.0000
     19 ****        -0.1812   0.6684   1.9745 C.3            1 S1                 0.0000
     20 ****        -0.8586   1.8700   2.6595 C.3            1 S1                 0.0000
     21 ****        -2.4036   0.5796   4.7728 H              1 S1                 0.0000
     22 ****        -3.9676   1.2878   5.1668 H              1 S1                 0.0000
     23 ****        -2.5491   2.3265   5.0593 H              1 S1                 0.0000
     24 ****        -3.4958   2.1592   0.5502 H              1 S1                 0.0000
     25 ****        -1.9689   2.9933   0.5333 H              1 S1                 0.0000
     26 ****        -2.3599  -0.0450   0.3573 H              1 S1                 0.0000
     27 ****        -1.8892   1.0134  -0.9590 H              1 S1                 0.0000
     28 ****        -0.0510  -1.3842   0.2650 H              1 S1                 0.0000
     29 ****        -0.1337  -0.4812  -1.2275 H              1 S1                 0.0000
     30 ****         2.0795   0.6255  -0.7029 H              1 S1                 0.0000
     31 ****         2.2134  -0.3580   0.7365 H              1 S1                 0.0000
     32 ****         2.7637  -2.1924  -0.4833 H              1 S1                 0.0000
     33 ****         2.8260  -3.6431  -7.4852 H              1 S1                 0.0000
     34 ****        -0.5865  -0.2611   2.3781 H              1 S1                 0.0000
     35 ****         0.8820   0.6792   2.2111 H              1 S1                 0.0000
     36 ****        -0.3905   2.7982   2.3282 H              1 S1                 0.0000
     37 ****        -0.6844   1.8246   3.7335 H              1 S1                 0.0000
     38 ****         0.0859   1.5255   0.1625 H              1 S1                 0.0000
     39 ****        -5.2202   1.4777   3.4100 LP             1 S1                 0.0000
     40 ****        -4.6999   1.7857   1.7869 LP             1 S1                 0.0000
     41 ****         1.5538   0.1881  -2.6174 LP             1 S1                 0.0000
     42 ****         2.0171  -0.6742  -4.0463 LP             1 S1                 0.0000
     43 ****         3.3466  -3.3345  -2.1423 LP             1 S1                 0.0000
     44 ****         5.1342  -2.2994  -4.3118 LP             1 S1                 0.0000
     45 ****         5.0024  -2.8178  -6.7567 LP             1 S1                 0.0000
@<TRIPOS>BOND
    1    1    2 1     
    2    1   21 1     
    3    1   22 1     
    4    1   23 1     
    5    2    3 2     
    6    2    4 am    
    7    4   20 1     
    8    4    5 1     
    9    5    6 1     
   10    5   24 1     
   11    5   25 1     
   12    6    7 1     
   13    6   26 1     
   14    6   27 1     
   15    7    8 1     
   16    7   19 1     
   17    7   38 1     
   18    8    9 1     
   19    8   28 1     
   20    8   29 1     
   21    9   10 1     
   22    9   30 1     
   23    9   31 1     
   24   10   11 am    
   25   10   32 1     
   26   11   12 2     
   27   11   13 1     
   28   13   14 1     
   29   14   18 1     
   30   14   15 2     
   31   15   16 1     
   32   16   17 2     
   33   17   18 1     
   34   17   33 1     
   35   19   20 1     
   36   19   34 1     
   37   19   35 1     
   38   20   36 1     
   39   20   37 1     
   40    3   39 1     
   41    3   40 1     
   42   12   41 1     
   43   12   42 1     
   44   13   43 1     
   45   15   44 1     
   46   16   45 1     
@<TRIPOS>SUBSTRUCTURE
      1 S1             1
@<TRIPOS>SET
LONE_PAIRS      STATIC     ATOMS    <user>   **** ""
7 39 40 41 42 43 44 45
DONOR_HYDROGENS      STATIC     ATOMS    <user>   **** ""
2 38 32
ATOM$BLUE        STATIC     ATOMS    COLORGROUP SYSTEM
7 39 40 41 42 43 44 45
ATOM$RED        STATIC     ATOMS    COLORGROUP SYSTEM
2 38 32
