AV-unprocessed.smi:9|AV-procd|sdf|51|dock1
  -GOLD-   2262015163D 1   1.00000     0.00000
 Structure written by MMmdl.
 35 37  0  0  0  0  0  0  0  0  1 V2000
  152.3640  138.2223  154.4328 O   0  0  0  0  0  0  0  0  0  0  0  0
  152.1459  138.7800  155.5061 C   0  0  0  0  0  0  0  0  0  0  0  0
  152.7043  138.3955  156.6797 N   0  0  0  0  0  0  0  0  0  0  0  0
  152.4473  139.0420  157.9159 C   0  0  0  0  0  0  0  0  0  0  0  0
  153.2167  138.3835  159.0502 C   0  0  0  0  0  0  0  0  0  0  0  0
  153.9990  137.4030  158.5965 F   0  0  0  0  0  0  0  0  0  0  0  0
  153.9897  139.2759  159.6700 F   0  0  0  0  0  0  0  0  0  0  0  0
  152.3748  137.8625  159.9431 F   0  0  0  0  0  0  0  0  0  0  0  0
  151.6595  140.0711  158.0957 N   0  0  0  0  0  0  0  0  0  0  0  0
  151.0841  140.4817  156.9098 C   0  0  0  0  0  0  0  0  0  0  0  0
  151.2431  139.9477  155.6576 C   0  0  0  0  0  0  0  0  0  0  0  0
  150.4875  140.6350  154.7156 N   0  0  0  0  0  0  0  0  0  0  0  0
  149.8974  141.5719  155.4550 C   0  0  0  0  0  0  0  0  0  0  0  0
  150.2094  141.5536  156.7655 N   0  0  0  0  0  0  0  0  0  0  0  0
  149.7165  142.4555  157.7977 C   0  0  0  0  0  0  0  0  0  0  0  0
  150.7791  143.4445  158.3428 C   0  0  1  0  0  0  0  0  0  0  0  0
  151.3203  144.1381  157.2336 O   0  0  0  0  0  0  0  0  0  0  0  0
  150.1720  144.4629  159.3334 C   0  0  0  0  0  0  0  0  0  0  0  0
  151.2563  145.2592  160.0662 C   0  0  0  0  0  0  0  0  0  0  0  0
  152.2817  144.3059  160.6897 C   0  0  0  0  0  0  0  0  0  0  0  0
  152.8633  143.5136  159.6639 O   0  0  0  0  0  0  0  0  0  0  0  0
  151.9374  142.6565  159.0004 C   0  0  0  0  0  0  0  0  0  0  0  0
  153.3344  137.6066  156.6676 H   0  0  0  0  0  0  0  0  0  0  0  0
  149.2214  142.2993  155.0293 H   0  0  0  0  0  0  0  0  0  0  0  0
  148.8765  143.0112  157.3787 H   0  0  0  0  0  0  0  0  0  0  0  0
  149.3026  141.8562  158.6099 H   0  0  0  0  0  0  0  0  0  0  0  0
  150.6053  144.4862  156.7230 H   0  0  0  0  0  0  0  0  0  0  0  0
  149.4917  145.1475  158.8255 H   0  0  0  0  0  0  0  0  0  0  0  0
  149.5746  143.9291  160.0738 H   0  0  0  0  0  0  0  0  0  0  0  0
  151.7579  145.9336  159.3715 H   0  0  0  0  0  0  0  0  0  0  0  0
  150.8050  145.8844  160.8372 H   0  0  0  0  0  0  0  0  0  0  0  0
  153.0691  144.8743  161.1849 H   0  0  0  0  0  0  0  0  0  0  0  0
  151.8210  143.6696  161.4470 H   0  0  0  0  0  0  0  0  0  0  0  0
  151.5433  141.9482  159.7309 H   0  0  0  0  0  0  0  0  0  0  0  0
  152.4730  142.0644  158.2570 H   0  0  0  0  0  0  0  0  0  0  0  0
  1  2  2  0  0  0  0
  2 11  1  0  0  0  0
  2  3  1  0  0  0  0
  3 23  1  0  0  0  0
  3  4  1  0  0  0  0
  4  5  1  0  0  0  0
  4  9  2  0  0  0  0
  5  6  1  0  0  0  0
  5  7  1  0  0  0  0
  5  8  1  0  0  0  0
  9 10  1  0  0  0  0
 10 14  1  0  0  0  0
 10 11  2  0  0  0  0
 11 12  1  0  0  0  0
 12 13  2  0  0  0  0
 13 14  1  0  0  0  0
 13 24  1  0  0  0  0
 14 15  1  0  0  0  0
 15 16  1  0  0  0  0
 15 25  1  0  0  0  0
 15 26  1  0  0  0  0
 16 22  1  0  0  0  0
 16 17  1  0  0  0  0
 16 18  1  0  0  0  0
 17 27  1  0  0  0  0
 18 19  1  0  0  0  0
 18 28  1  0  0  0  0
 18 29  1  0  0  0  0
 19 20  1  0  0  0  0
 19 30  1  0  0  0  0
 19 31  1  0  0  0  0
 20 21  1  0  0  0  0
 20 32  1  0  0  0  0
 20 33  1  0  0  0  0
 21 22  1  0  0  0  0
 22 34  1  0  0  0  0
 22 35  1  0  0  0  0
M  END
> <s_m_source_file>
AV-unprocessed.smi

> <i_m_source_file_index>
9

> <i_lp_mmshare_version>
43012

> <i_f3d_flags>
0

> <s_epik_input>
RkMoRikoRiljKG4xKVtuSF1jKD1PKWMoYzEyKW5bY0hdbjJbQ0gyXVtDQEBdMyhbT0hdKVtDSDJdW0NIMl1bQ0gyXU9bQ0gyXTM=

> <s_epik_cmdline>
J2VwaWtfcHl0aG9uJywgJy1waCcsICc3LjAnLCAnLXRuJywgJzgnLCAnLW1hJywgJzIwMCcsICctbWV0YWxfYmluZGluZycsICctaW1hZScsICc8aW5maWxlLm1hZT4nLCAnLW9tYWUnLCAnPG91dGZpbGUubWFlPic=

> <r_lp_tautomer_probability>
0.85571

> <r_epik_Ionization_Penalty>
0.770127

> <r_epik_Ionization_Penalty_Charging>
0.770101

> <r_epik_Ionization_Penalty_Neutral>
2.64604e-05

> <r_epik_State_Penalty>
2.30539

> <r_epik_Charging_Adjusted_Penalty>
3.07549

> <i_epik_Tot_Q>
0

> <i_epik_Tot_abs_Q>
0

> <r_epik_Metal_State_Penalty>
2.4903

> <b_epik_Metal_Only>
0

> <s_lp_Force_Field>
OPLS_2005

> <r_lp_Energy>
27.1686

> <b_lp_Chiralities_Consistent>
1

> <s_lp_Variant>
AV-unprocessed.smi:9-3

> <Gold.Version>
5.8.1

> <Gold.Id.Protein>
6NUR|6NUR_protein|mol2

> <Gold.PLP.Fitness>
46.2687

> <Gold.PLP.PLP>
-37.7556

> <Gold.PLP.part.hbond>
-2.0000

> <Gold.PLP.part.metal>
0.0000

> <Gold.PLP.part.buried>
-7.5740

> <Gold.PLP.part.nonpolar>
-28.5527

> <Gold.PLP.part.repulsive>
0.3336

> <Gold.PLP.ligand.clash>
0.0000

> <Gold.PLP.ligand.torsion>
0.1564

> <Gold.PLP.Chemscore.Hbond>
1.9440

> <Gold.PLP.Chemscore.CHOScore>
0.9951

> <Gold.PLP.Chemscore.Metal>
0.0000

> <Gold.Chemscore.Hbonds>
donor molecule, donor type, donor heavy atom, donor atom, acceptor molecule, acceptor atom, score
      L1  H    17    27       P1  8028  1.00
      P1  H  7989  7998       L1    12  0.93
      L1  C    13    24       P1  8028  1.00

> <Gold.PLP.Chemscore.Internal.Correction>
0.0085

> <Gold.Rescore>
     Score         DG    S(hbond)    S(metal)    S(lipo)     H(rot)  DE(clash)    DE(int)     intcor
     12.67     -14.43       2.11        0.00      63.15       2.14       0.22       1.53       ----

> <Gold.Chemscore.Fitness>
12.6728

> <Gold.Chemscore.DG>
-14.4284

> <Gold.Chemscore.ZeroCoef>
-5.4800

> <Gold.Chemscore.Hbond>
2.1051

> <Gold.Chemscore.Metal>
0.0000

> <Gold.Chemscore.Lipo>
63.1514

> <Gold.Chemscore.Internal_Hbond>
0.0000

> <Gold.Chemscore.DEClash>
0.2218

> <Gold.Chemscore.DEInternal>
1.5339

> <Gold.Chemscore.Rot>
2.1373

> <Gold.Chemscore.Internal.Correction>
   9.000000E+99

> <Gold.Chemscore.Hbonds>
donor molecule, donor type, donor heavy atom, donor atom, acceptor molecule, acceptor atom, score
      L1  H    17    27       P1  8028  0.93
      P1  H  7989  7998       L1    12  0.31

> <Gold.Chemscore.Hbond.Weighted>
-7.0311

> <Gold.Chemscore.Metal.Weighted>
-0.0000

> <Gold.Chemscore.Lipo.Weighted>
-7.3887

> <Gold.Chemscore.Internal_Hbond.Weighted>
0.0000

> <Gold.Chemscore.DEClash.Weighted>
0.2218

> <Gold.Chemscore.DEInternal.Weighted>
1.5339

> <Gold.Chemscore.Rot.Weighted>
5.4714

> <Gold.Chemscore.Internal.Correction.Weighted>
   9.000000E+99

> <Gold.Protein.RotatedTorsions>
[ 6907 6896 6895 6894 ] final   83.25 input  -60.11 | X-H torsion
[ 7974 7965 7964 7962 ] final  -53.08 input  175.53 | X-H torsion
[ 8008 7997 7996 7995 ] final -100.50 input   59.86 | X-H torsion
[ 10167 10162 10161 10158 ] final  -28.88 input  -65.29 | X-H torsion
[ 10718 10713 10712 10709 ] final   34.00 input   66.30 | X-H torsion
[ 10763 10752 10751 10750 ] final   48.32 input  -60.55 | X-H torsion
[ 11005 11000 10999 10996 ] final    3.90 input  -57.11 | X-H torsion

> <Gold.Protein.ActiveResidues>
 VAL166  LYS551  ARG553  GLY616  TRP617  ASP618  TYR619  PRO620  LYS621  CYS622 
 ASP623  PHE694  ASN695  SER759  ASP760  ASP761  ALA762  ILE779  LEU786  VAL792 
 PHE793  MET794  SER795  GLU796  ALA797  LYS798  CYS799  TRP800  GLU811  SER814 

> <Gold.Protein.RotatedAtoms>
  152.5322  134.2925  159.9048 H   0  0  0  0  0  0  0  0  0  0  0  0  # atno 6907 bound_to 6896
  151.2877  133.4173  159.2638 H   0  0  0  0  0  0  0  0  0  0  0  0  # atno 6908 bound_to 6896
  151.0228  134.9497  159.8126 H   0  0  0  0  0  0  0  0  0  0  0  0  # atno 6909 bound_to 6896
  145.9009  140.7995  142.9744 H   0  0  0  0  0  0  0  0  0  0  0  0  # atno 7974 bound_to 7965
  154.8295  140.0440  157.1467 H   0  0  0  0  0  0  0  0  0  0  0  0  # atno 8008 bound_to 7997
  154.9168  140.3021  155.5217 H   0  0  0  0  0  0  0  0  0  0  0  0  # atno 8009 bound_to 7997
  156.2986  140.2348  156.4214 H   0  0  0  0  0  0  0  0  0  0  0  0  # atno 8010 bound_to 7997
  140.7266  143.3974  151.1324 H   0  0  0  0  0  0  0  0  0  0  0  0  # atno 10167 bound_to 10162
  157.3049  130.7369  149.6689 H   0  0  0  0  0  0  0  0  0  0  0  0  # atno 10718 bound_to 10713
  152.9793  135.5948  154.3906 H   0  0  0  0  0  0  0  0  0  0  0  0  # atno 10763 bound_to 10752
  154.3562  135.2767  155.2347 H   0  0  0  0  0  0  0  0  0  0  0  0  # atno 10764 bound_to 10752
  154.4364  135.6024  153.6156 H   0  0  0  0  0  0  0  0  0  0  0  0  # atno 10765 bound_to 10752
  140.5880  133.9951  155.8076 H   0  0  0  0  0  0  0  0  0  0  0  0  # atno 11005 bound_to 11000
  144.6736  140.1675  143.7417 LP  0  0  0  0  0  0  0  0  0  0  0  0  # atno 17320 bound_to 7965
  145.8793  139.2314  143.1615 LP  0  0  0  0  0  0  0  0  0  0  0  0  # atno 17321 bound_to 7965
  139.7589  143.8666  152.3095 LP  0  0  0  0  0  0  0  0  0  0  0  0  # atno 17342 bound_to 10162
  139.8545  144.7148  150.9174 LP  0  0  0  0  0  0  0  0  0  0  0  0  # atno 17343 bound_to 10162
  155.9674  130.4269  150.4718 LP  0  0  0  0  0  0  0  0  0  0  0  0  # atno 17370 bound_to 10713
  157.2706  131.0586  151.2262 LP  0  0  0  0  0  0  0  0  0  0  0  0  # atno 17371 bound_to 10713
  141.0953  133.9852  157.3169 LP  0  0  0  0  0  0  0  0  0  0  0  0  # atno 17394 bound_to 11000
  139.9287  135.0201  156.8325 LP  0  0  0  0  0  0  0  0  0  0  0  0  # atno 17395 bound_to 11000

$$$$
