#       Name:                AV-unprocessed.smi:1200
#       Creating user name   scv26
#       Creation time:       Fri Mar 27 04:04:39 2020


#       File generated by GOLD software.
#

@<TRIPOS>MOLECULE
AV-unprocessed.smi:1200
    48    49     1
SMALL
NO_CHARGES


@<TRIPOS>ATOM
      1 ****        -4.9492   4.2852  -1.7792 C.3            1 S1                 0.0000
      2 ****        -4.3862   2.9554  -1.5997 N.am           1 S1                 0.0000
      3 ****        -3.1901   2.5746  -2.0694 C.2            1 S1                 0.0000
      4 ****        -2.4478   3.3204  -2.7094 O.2            1 S1                 0.0000
      5 ****        -2.7807   1.1255  -1.7867 C.3            1 S1                 0.0000
      6 ****        -1.3156   0.9048  -1.8952 N.4            1 S1                 1.0000
      7 ****        -0.9751  -0.5061  -2.2090 C.3            1 S1                 0.0000
      8 ****         0.5338  -0.6707  -2.4676 C.3            1 S1                 0.0000
      9 ****         1.3840  -0.1500  -1.2956 C.3            1 S1                 0.0000
     10 ****         1.2828  -1.0517  -0.1481 N.am           1 S1                 0.0000
     11 ****         2.1759  -1.1390   0.8484 C.2            1 S1                 0.0000
     12 ****         3.1806  -0.4321   0.9207 O.2            1 S1                 0.0000
     13 ****         1.8138  -2.0727   1.7448 N.am           1 S1                 0.0000
     14 ****         2.5034  -2.4933   2.9144 C.ar           1 S1                 0.0000
     15 ****         3.8892  -2.3025   3.1369 C.ar           1 S1                 0.0000
     16 ****         4.4586  -2.7851   4.3310 C.ar           1 S1                 0.0000
     17 ****         3.6260  -3.4462   5.2547 C.ar           1 S1                 0.0000
     18 ****         2.3070  -3.6464   5.0504 N.ar           1 S1                 0.0000
     19 ****         1.7683  -3.1816   3.9031 C.ar           1 S1                 0.0000
     20 ****         0.9561   1.2873  -0.9375 C.3            1 S1                 0.0000
     21 ****        -0.5617   1.3981  -0.7118 C.3            1 S1                 0.0000
     22 ****        -5.9191   4.3490  -1.2857 H              1 S1                 0.0000
     23 ****        -5.0907   4.5068  -2.8378 H              1 S1                 0.0000
     24 ****        -4.2974   5.0463  -1.3484 H              1 S1                 0.0000
     25 ****        -4.9435   2.2842  -1.0908 H              1 S1                 0.0000
     26 ****        -3.1358   0.8102  -0.8041 H              1 S1                 0.0000
     27 ****        -3.3008   0.5082  -2.5205 H              1 S1                 0.0000
     28 ****        -1.2951  -1.1501  -1.3883 H              1 S1                 0.0000
     29 ****        -1.5232  -0.8282  -3.0952 H              1 S1                 0.0000
     30 ****         0.7683  -1.7164  -2.6710 H              1 S1                 0.0000
     31 ****         0.7994  -0.1207  -3.3714 H              1 S1                 0.0000
     32 ****         2.4268  -0.1353  -1.6184 H              1 S1                 0.0000
     33 ****         0.4872  -1.6726  -0.1236 H              1 S1                 0.0000
     34 ****         0.9172  -2.5111   1.5935 H              1 S1                 0.0000
     35 ****         4.5266  -1.8135   2.4169 H              1 S1                 0.0000
     36 ****         5.5119  -2.6558   4.5315 H              1 S1                 0.0000
     37 ****         4.0317  -3.8299   6.1791 H              1 S1                 0.0000
     38 ****         0.7114  -3.3637   3.7726 H              1 S1                 0.0000
     39 ****         1.4924   1.6416  -0.0564 H              1 S1                 0.0000
     40 ****         1.2421   1.9563  -1.7503 H              1 S1                 0.0000
     41 ****        -0.8155   2.4395  -0.5123 H              1 S1                 0.0000
     42 ****        -0.8547   0.8304   0.1727 H              1 S1                 0.0000
     43 ****        -1.0105   1.4530  -2.6876 H              1 S1                 0.0000
     44 ****        -2.7285   4.2608  -2.9012 LP             1 S1                 0.0000
     45 ****        -1.5645   2.9855  -3.0373 LP             1 S1                 0.0000
     46 ****         3.3638   0.2502   0.2130 LP             1 S1                 0.0000
     47 ****         3.8137  -0.5401   1.6871 LP             1 S1                 0.0000
     48 ****         1.7466  -4.1238   5.7273 LP             1 S1                 0.0000
@<TRIPOS>BOND
    1    1    2 1     
    2    1   22 1     
    3    1   23 1     
    4    1   24 1     
    5    2    3 am    
    6    2   25 1     
    7    3    4 2     
    8    3    5 1     
    9    5    6 1     
   10    5   26 1     
   11    5   27 1     
   12    6   21 1     
   13    6    7 1     
   14    6   43 1     
   15    7    8 1     
   16    7   28 1     
   17    7   29 1     
   18    8    9 1     
   19    8   30 1     
   20    8   31 1     
   21    9   10 1     
   22    9   20 1     
   23    9   32 1     
   24   10   11 am    
   25   10   33 1     
   26   11   12 2     
   27   11   13 am    
   28   13   14 1     
   29   13   34 1     
   30   14   19 ar    
   31   14   15 ar    
   32   15   16 ar    
   33   15   35 1     
   34   16   17 ar    
   35   16   36 1     
   36   17   18 ar    
   37   17   37 1     
   38   18   19 ar    
   39   19   38 1     
   40   20   21 1     
   41   20   39 1     
   42   20   40 1     
   43   21   41 1     
   44   21   42 1     
   45    4   44 1     
   46    4   45 1     
   47   12   46 1     
   48   12   47 1     
   49   18   48 1     
@<TRIPOS>SUBSTRUCTURE
      1 S1             1
@<TRIPOS>SET
LONE_PAIRS      STATIC     ATOMS    <user>   **** ""
5 44 45 46 47 48
DONOR_HYDROGENS      STATIC     ATOMS    <user>   **** ""
4 25 43 33 34
ATOM$BLUE        STATIC     ATOMS    COLORGROUP SYSTEM
5 44 45 46 47 48
ATOM$RED        STATIC     ATOMS    COLORGROUP SYSTEM
4 25 43 33 34
