AV-unprocessed.smi:3125|AV-procd|sdf|11909|dock8
  -GOLD-   2272017293D 1   1.00000     0.00000
 Structure written by MMmdl.
 28 29  0  0  0  0  0  0  0  0  2 V2000
  151.9345  144.6491  159.2921 C   0  0  0  0  0  0  0  0  0  0  0  0
  152.3663  143.2911  159.5626 N   0  0  0  0  0  0  0  0  0  0  0  0
  153.1828  142.8984  160.6152 C   0  0  0  0  0  0  0  0  0  0  0  0
  153.3488  141.5400  160.5017 C   0  0  0  0  0  0  0  0  0  0  0  0
  152.6471  141.0829  159.3925 N   0  0  0  0  0  0  0  0  0  0  0  0
  152.0766  142.1678  158.8742 C   0  0  0  0  0  0  0  0  0  0  0  0
  151.2168  142.1408  157.6408 C   0  0  1  0  0  0  0  0  0  0  0  0
  151.2825  140.7777  156.9251 C   0  0  0  0  0  0  0  0  0  0  0  0
  150.3742  140.7736  155.6858 C   0  0  0  0  0  0  0  0  0  0  0  0
  148.9380  141.1781  156.0571 C   0  0  0  0  0  0  0  0  0  0  0  0
  148.9243  142.4955  156.7294 N   0  3  0  0  0  0  0  0  0  0  0  0
  149.7560  142.5274  157.9528 C   0  0  0  0  0  0  0  0  0  0  0  0
  152.3685  145.3348  160.0206 H   0  0  0  0  0  0  0  0  0  0  0  0
  150.8478  144.7107  159.3559 H   0  0  0  0  0  0  0  0  0  0  0  0
  152.2568  144.9482  158.2944 H   0  0  0  0  0  0  0  0  0  0  0  0
  153.5706  143.6002  161.3392 H   0  0  0  0  0  0  0  0  0  0  0  0
  153.9136  140.8634  161.1260 H   0  0  0  0  0  0  0  0  0  0  0  0
  151.5957  142.8860  156.9417 H   0  0  0  0  0  0  0  0  0  0  0  0
  152.3095  140.5534  156.6345 H   0  0  0  0  0  0  0  0  0  0  0  0
  150.9702  139.9833  157.6046 H   0  0  0  0  0  0  0  0  0  0  0  0
  150.7688  141.4638  154.9387 H   0  0  0  0  0  0  0  0  0  0  0  0
  150.3763  139.7853  155.2251 H   0  0  0  0  0  0  0  0  0  0  0  0
  148.3154  141.2268  155.1634 H   0  0  0  0  0  0  0  0  0  0  0  0
  148.4915  140.4327  156.7170 H   0  0  0  0  0  0  0  0  0  0  0  0
  149.2743  143.1892  156.0841 H   0  0  0  0  0  0  0  0  0  0  0  0
  149.3254  141.8466  158.6888 H   0  0  0  0  0  0  0  0  0  0  0  0
  149.7124  143.5288  158.3819 H   0  0  0  0  0  0  0  0  0  0  0  0
  147.9725  142.7291  156.9740 H   0  0  0  0  0  0  0  0  0  0  0  0
  1  2  1  0  0  0  0
  1 13  1  0  0  0  0
  1 14  1  0  0  0  0
  1 15  1  0  0  0  0
  2  6  1  0  0  0  0
  2  3  1  0  0  0  0
  3  4  2  0  0  0  0
  3 16  1  0  0  0  0
  4  5  1  0  0  0  0
  4 17  1  0  0  0  0
  5  6  2  0  0  0  0
  6  7  1  0  0  0  0
  7 12  1  0  0  0  0
  7  8  1  0  0  0  0
  7 18  1  0  0  0  0
  8  9  1  0  0  0  0
  8 19  1  0  0  0  0
  8 20  1  0  0  0  0
  9 10  1  0  0  0  0
  9 21  1  0  0  0  0
  9 22  1  0  0  0  0
 10 11  1  0  0  0  0
 10 23  1  0  0  0  0
 10 24  1  0  0  0  0
 11 12  1  0  0  0  0
 11 25  1  0  0  0  0
 11 28  1  0  0  0  0
 12 26  1  0  0  0  0
 12 27  1  0  0  0  0
M  CHG  1  11   1
M  END
> <s_m_source_file>
AV-unprocessed.smi

> <i_m_source_file_index>
3125

> <i_lp_mmshare_version>
43012

> <i_f3d_flags>
0

> <s_epik_input>
W0NIM11uMVtjSF1bY0hdbmMxW0NAQEhdMltDSDJdW0NIMl1bQ0gyXVtOSF1bQ0gyXTI=

> <s_epik_cmdline>
J2VwaWtfcHl0aG9uJywgJy1waCcsICc3LjAnLCAnLXRuJywgJzgnLCAnLW1hJywgJzIwMCcsICctbWV0YWxfYmluZGluZycsICctaW1hZScsICc8aW5maWxlLm1hZT4nLCAnLW9tYWUnLCAnPG91dGZpbGUubWFlPic=

> <r_lp_tautomer_probability>
1

> <r_epik_Ionization_Penalty>
0.177191

> <r_epik_Ionization_Penalty_Charging>
0.177191

> <r_epik_Ionization_Penalty_Neutral>
7.05152e-14

> <r_epik_State_Penalty>
0.46716

> <r_epik_Charging_Adjusted_Penalty>
0.644351

> <i_epik_Tot_Q>
1

> <i_epik_Tot_abs_Q>
1

> <r_epik_Metal_State_Penalty>
0.000708398

> <b_epik_Metal_Only>
0

> <s_lp_Force_Field>
OPLS_2005

> <r_lp_Energy>
12.4076

> <b_lp_Chiralities_Consistent>
1

> <s_lp_Variant>
AV-unprocessed.smi:3125-4

> <Gold.Version>
5.8.1

> <Gold.Id.Protein>
6NUR|6NUR_protein|mol2

> <Gold.PLP.Fitness>
34.7475

> <Gold.PLP.PLP>
-28.9803

> <Gold.PLP.part.hbond>
-1.0000

> <Gold.PLP.part.metal>
0.0000

> <Gold.PLP.part.buried>
-3.7805

> <Gold.PLP.part.nonpolar>
-24.7851

> <Gold.PLP.part.repulsive>
0.0000

> <Gold.PLP.ligand.clash>
0.0000

> <Gold.PLP.ligand.torsion>
0.1295

> <Gold.PLP.Chemscore.Hbond>
2.0000

> <Gold.PLP.Chemscore.CHOScore>
0.0000

> <Gold.PLP.Chemscore.Metal>
0.0000

> <Gold.Chemscore.Hbonds>
donor molecule, donor type, donor heavy atom, donor atom, acceptor molecule, acceptor atom, score
      L1  H    11    25       P1  8028  1.44

> <Gold.PLP.Chemscore.Internal.Correction>
0.0262

> <Gold.Rescore>
     Score         DG    S(hbond)    S(metal)    S(lipo)     H(rot)  DE(clash)    DE(int)     intcor
     13.69     -13.82       0.99        0.00      64.88       1.00       0.00       0.13       ----

> <Gold.Chemscore.Fitness>
13.6896

> <Gold.Chemscore.DG>
-13.8163

> <Gold.Chemscore.ZeroCoef>
-5.4800

> <Gold.Chemscore.Hbond>
0.9895

> <Gold.Chemscore.Metal>
0.0000

> <Gold.Chemscore.Lipo>
64.8849

> <Gold.Chemscore.Internal_Hbond>
0.0000

> <Gold.Chemscore.DEClash>
0.0000

> <Gold.Chemscore.DEInternal>
0.1267

> <Gold.Chemscore.Rot>
1.0000

> <Gold.Chemscore.Internal.Correction>
   9.000000E+99

> <Gold.Chemscore.Hbonds>
donor molecule, donor type, donor heavy atom, donor atom, acceptor molecule, acceptor atom, score
      L1  H    11    25       P1  8028  0.72

> <Gold.Chemscore.Hbond.Weighted>
-3.3048

> <Gold.Chemscore.Metal.Weighted>
-0.0000

> <Gold.Chemscore.Lipo.Weighted>
-7.5915

> <Gold.Chemscore.Internal_Hbond.Weighted>
0.0000

> <Gold.Chemscore.DEClash.Weighted>
0.0000

> <Gold.Chemscore.DEInternal.Weighted>
0.1267

> <Gold.Chemscore.Rot.Weighted>
2.5600

> <Gold.Chemscore.Internal.Correction.Weighted>
   9.000000E+99

> <Gold.Protein.RotatedTorsions>
[ 6907 6896 6895 6894 ] final  -31.92 input  -60.11 | X-H torsion
[ 7974 7965 7964 7962 ] final   55.98 input  175.53 | X-H torsion
[ 8008 7997 7996 7995 ] final  177.88 input   59.86 | X-H torsion
[ 10167 10162 10161 10158 ] final  137.01 input  -65.29 | X-H torsion
[ 10718 10713 10712 10709 ] final  143.35 input   66.30 | X-H torsion
[ 10763 10752 10751 10750 ] final   88.54 input  -60.55 | X-H torsion
[ 11005 11000 10999 10996 ] final -118.16 input  -57.11 | X-H torsion

> <Gold.Protein.ActiveResidues>
 VAL166  LYS551  ARG553  GLY616  TRP617  ASP618  TYR619  PRO620  LYS621  CYS622 
 ASP623  PHE694  ASN695  SER759  ASP760  ASP761  ALA762  ILE779  LEU786  VAL792 
 PHE793  MET794  SER795  GLU796  ALA797  LYS798  CYS799  TRP800  GLU811  SER814 

> <Gold.Protein.RotatedAtoms>
  151.0857  134.9885  159.8377 H   0  0  0  0  0  0  0  0  0  0  0  0  # atno 6907 bound_to 6896
  152.5424  134.2127  159.8766 H   0  0  0  0  0  0  0  0  0  0  0  0  # atno 6908 bound_to 6896
  151.2160  133.4485  159.2633 H   0  0  0  0  0  0  0  0  0  0  0  0  # atno 6909 bound_to 6896
  145.9447  139.3919  143.0342 H   0  0  0  0  0  0  0  0  0  0  0  0  # atno 7974 bound_to 7965
  156.0608  140.1347  156.9943 H   0  0  0  0  0  0  0  0  0  0  0  0  # atno 8008 bound_to 7997
  154.4481  140.0992  156.6585 H   0  0  0  0  0  0  0  0  0  0  0  0  # atno 8009 bound_to 7997
  155.5380  140.3460  155.4443 H   0  0  0  0  0  0  0  0  0  0  0  0  # atno 8010 bound_to 7997
  139.5159  144.6433  151.5508 H   0  0  0  0  0  0  0  0  0  0  0  0  # atno 10167 bound_to 10162
  157.3699  131.0977  151.0837 H   0  0  0  0  0  0  0  0  0  0  0  0  # atno 10718 bound_to 10713
  153.1779  135.4503  154.9989 H   0  0  0  0  0  0  0  0  0  0  0  0  # atno 10763 bound_to 10752
  154.8010  135.3256  154.7551 H   0  0  0  0  0  0  0  0  0  0  0  0  # atno 10764 bound_to 10752
  153.8019  135.6962  153.4909 H   0  0  0  0  0  0  0  0  0  0  0  0  # atno 10765 bound_to 10752
  141.0305  133.9988  157.3150 H   0  0  0  0  0  0  0  0  0  0  0  0  # atno 11005 bound_to 11000
  145.8252  140.9659  143.0878 LP  0  0  0  0  0  0  0  0  0  0  0  0  # atno 17320 bound_to 7965
  144.6785  140.0092  143.7484 LP  0  0  0  0  0  0  0  0  0  0  0  0  # atno 17321 bound_to 7965
  140.6209  143.9261  150.6525 LP  0  0  0  0  0  0  0  0  0  0  0  0  # atno 17342 bound_to 10162
  140.2534  143.3576  152.1386 LP  0  0  0  0  0  0  0  0  0  0  0  0  # atno 17343 bound_to 10162
  157.1945  130.6367  149.5716 LP  0  0  0  0  0  0  0  0  0  0  0  0  # atno 17370 bound_to 10713
  155.9753  130.4711  150.6453 LP  0  0  0  0  0  0  0  0  0  0  0  0  # atno 17371 bound_to 10713
  139.9205  135.0200  156.8044 LP  0  0  0  0  0  0  0  0  0  0  0  0  # atno 17394 bound_to 11000
  140.6415  133.9814  155.7710 LP  0  0  0  0  0  0  0  0  0  0  0  0  # atno 17395 bound_to 11000

$$$$
