AV-unprocessed.smi:1174|AV-procd|sdf|4948|dock10
  -GOLD-   22720 3533D 1   1.00000     0.00000
 Structure written by MMmdl.
 41 42  0  0  0  0  0  0  0  0  1 V2000
  150.9281  140.3063  156.3256 C   0  0  0  0  0  0  0  0  0  0  0  0
  150.2912  141.6977  156.4408 C   0  0  2  0  0  0  0  0  0  0  0  0
  150.0783  142.0978  157.9172 C   0  0  0  0  0  0  0  0  0  0  0  0
  151.1069  142.9971  158.4101 N   0  0  0  0  0  0  0  0  0  0  0  0
  151.5028  144.2124  157.8918 C   0  0  0  0  0  0  0  0  0  0  0  0
  152.5199  144.6764  158.6753 C   0  0  0  0  0  0  0  0  0  0  0  0
  152.6714  143.6650  159.6649 C   0  0  0  0  0  0  0  0  0  0  0  0
  151.8216  142.6632  159.5059 N   0  0  0  0  0  0  0  0  0  0  0  0
  149.0215  141.6992  155.7147 N   0  0  0  0  0  0  0  0  0  0  0  0
  148.8613  141.4071  154.4136 C   0  0  0  0  0  0  0  0  0  0  0  0
  149.7917  141.0612  153.6854 O   0  0  0  0  0  0  0  0  0  0  0  0
  147.4354  141.5601  153.8518 C   0  0  1  0  0  0  0  0  0  0  0  0
  146.8610  140.2089  153.3594 C   0  0  0  0  0  0  0  0  0  0  0  0
  146.3223  139.3224  154.5001 C   0  0  0  0  0  0  0  0  0  0  0  0
  145.3799  140.1197  155.4177 C   0  0  0  0  0  0  0  0  0  0  0  0
  146.0928  141.3000  155.9376 N   0  0  0  0  0  0  0  0  0  0  0  0
  146.4312  141.5323  157.2319 C   0  0  0  0  0  0  0  0  0  0  0  0
  146.0330  140.6015  158.1046 N   0  0  0  0  0  0  0  0  0  0  0  0
  147.0664  142.5166  157.6066 O   0  0  0  0  0  0  0  0  0  0  0  0
  146.4608  142.2271  154.8551 C   0  0  0  0  0  0  0  0  0  0  0  0
  151.8943  140.2750  156.8299 H   0  0  0  0  0  0  0  0  0  0  0  0
  151.0939  140.0353  155.2822 H   0  0  0  0  0  0  0  0  0  0  0  0
  150.2941  139.5399  156.7731 H   0  0  0  0  0  0  0  0  0  0  0  0
  150.9829  142.4060  155.9809 H   0  0  0  0  0  0  0  0  0  0  0  0
  149.1058  142.5743  158.0484 H   0  0  0  0  0  0  0  0  0  0  0  0
  150.0755  141.2095  158.5505 H   0  0  0  0  0  0  0  0  0  0  0  0
  151.0408  144.6344  157.0115 H   0  0  0  0  0  0  0  0  0  0  0  0
  153.0735  145.5958  158.5579 H   0  0  0  0  0  0  0  0  0  0  0  0
  153.3696  143.6291  160.4881 H   0  0  0  0  0  0  0  0  0  0  0  0
  148.2025  141.9716  156.2383 H   0  0  0  0  0  0  0  0  0  0  0  0
  147.5056  142.2175  152.9835 H   0  0  0  0  0  0  0  0  0  0  0  0
  146.0457  140.4132  152.6644 H   0  0  0  0  0  0  0  0  0  0  0  0
  147.6080  139.6588  152.7852 H   0  0  0  0  0  0  0  0  0  0  0  0
  145.7965  138.4639  154.0815 H   0  0  0  0  0  0  0  0  0  0  0  0
  147.1477  138.9163  155.0853 H   0  0  0  0  0  0  0  0  0  0  0  0
  144.5095  140.4542  154.8515 H   0  0  0  0  0  0  0  0  0  0  0  0
  144.9841  139.4626  156.1915 H   0  0  0  0  0  0  0  0  0  0  0  0
  146.2421  140.7098  159.0859 H   0  0  0  0  0  0  0  0  0  0  0  0
  145.5181  139.7975  157.7769 H   0  0  0  0  0  0  0  0  0  0  0  0
  146.8947  143.1567  155.2271 H   0  0  0  0  0  0  0  0  0  0  0  0
  145.5515  142.5281  154.3333 H   0  0  0  0  0  0  0  0  0  0  0  0
  1  2  1  0  0  0  0
  1 21  1  0  0  0  0
  1 22  1  0  0  0  0
  1 23  1  0  0  0  0
  2  3  1  0  0  0  0
  2  9  1  0  0  0  0
  2 24  1  0  0  0  0
  3  4  1  0  0  0  0
  3 25  1  0  0  0  0
  3 26  1  0  0  0  0
  4  8  1  0  0  0  0
  4  5  1  0  0  0  0
  5  6  2  0  0  0  0
  5 27  1  0  0  0  0
  6  7  1  0  0  0  0
  6 28  1  0  0  0  0
  7  8  2  0  0  0  0
  7 29  1  0  0  0  0
  9 10  1  0  0  0  0
  9 30  1  0  0  0  0
 10 11  2  0  0  0  0
 10 12  1  0  0  0  0
 12 20  1  0  0  0  0
 12 13  1  0  0  0  0
 12 31  1  0  0  0  0
 13 14  1  0  0  0  0
 13 32  1  0  0  0  0
 13 33  1  0  0  0  0
 14 15  1  0  0  0  0
 14 34  1  0  0  0  0
 14 35  1  0  0  0  0
 15 16  1  0  0  0  0
 15 36  1  0  0  0  0
 15 37  1  0  0  0  0
 16 17  1  0  0  0  0
 16 20  1  0  0  0  0
 17 18  1  0  0  0  0
 17 19  2  0  0  0  0
 18 38  1  0  0  0  0
 18 39  1  0  0  0  0
 20 40  1  0  0  0  0
 20 41  1  0  0  0  0
M  END
> <s_m_source_file>
AV-unprocessed.smi

> <i_m_source_file_index>
1174

> <i_lp_mmshare_version>
43012

> <i_f3d_flags>
0

> <s_epik_input>
bjFbY0hdW2NIXVtjSF1uMVtDSDJdW0NAQEhdKFtDSDNdKVtOSF1DKD1PKVtDQEBIXTJbQ0gyXVtDSDJdW0NIMl1OKFtDSDJdMilDKD1PKVtOSDJd

> <s_epik_cmdline>
J2VwaWtfcHl0aG9uJywgJy1waCcsICc3LjAnLCAnLXRuJywgJzgnLCAnLW1hJywgJzIwMCcsICctbWV0YWxfYmluZGluZycsICctaW1hZScsICc8aW5maWxlLm1hZT4nLCAnLW9tYWUnLCAnPG91dGZpbGUubWFlPic=

> <r_lp_tautomer_probability>
1

> <r_epik_Ionization_Penalty>
0.000372452

> <r_epik_Ionization_Penalty_Charging>
0

> <r_epik_Ionization_Penalty_Neutral>
0.000372452

> <r_epik_State_Penalty>
-0

> <r_epik_Charging_Adjusted_Penalty>
0

> <i_epik_Tot_Q>
0

> <i_epik_Tot_abs_Q>
0

> <r_epik_Metal_State_Penalty>
-0

> <b_epik_Metal_Only>
0

> <s_lp_Force_Field>
OPLS_2005

> <r_lp_Energy>
23.1922

> <b_lp_Chiralities_Consistent>
1

> <s_lp_Variant>
AV-unprocessed.smi:1174-3

> <Gold.Version>
5.8.1

> <Gold.Id.Protein>
6NUR|6NUR_protein|mol2

> <Gold.PLP.Fitness>
41.3889

> <Gold.PLP.PLP>
-35.6936

> <Gold.PLP.part.hbond>
-2.8432

> <Gold.PLP.part.metal>
0.0000

> <Gold.PLP.part.buried>
-5.0291

> <Gold.PLP.part.nonpolar>
-32.4468

> <Gold.PLP.part.repulsive>
3.2247

> <Gold.PLP.ligand.clash>
0.0000

> <Gold.PLP.ligand.torsion>
0.6906

> <Gold.PLP.Chemscore.Hbond>
1.3440

> <Gold.PLP.Chemscore.CHOScore>
1.0000

> <Gold.PLP.Chemscore.Metal>
0.0000

> <Gold.Chemscore.Hbonds>
donor molecule, donor type, donor heavy atom, donor atom, acceptor molecule, acceptor atom, score
      P1  H  7989  7998       L1    11  0.30
      P1  H  8011  8017       L1    11  0.93
      L1  C     5    27       P1  8028  1.00

> <Gold.PLP.Chemscore.Internal.Correction>
0.0445

> <Gold.Rescore>
     Score         DG    S(hbond)    S(metal)    S(lipo)     H(rot)  DE(clash)    DE(int)     intcor
     11.52     -13.75       0.92        0.00      84.32       1.82       0.23       2.01       ----

> <Gold.Chemscore.Fitness>
11.5189

> <Gold.Chemscore.DG>
-13.7503

> <Gold.Chemscore.ZeroCoef>
-5.4800

> <Gold.Chemscore.Hbond>
0.9178

> <Gold.Chemscore.Metal>
0.0000

> <Gold.Chemscore.Lipo>
84.3200

> <Gold.Chemscore.Internal_Hbond>
0.0000

> <Gold.Chemscore.DEClash>
0.2263

> <Gold.Chemscore.DEInternal>
2.0052

> <Gold.Chemscore.Rot>
1.8206

> <Gold.Chemscore.Internal.Correction>
   9.000000E+99

> <Gold.Chemscore.Hbonds>
donor molecule, donor type, donor heavy atom, donor atom, acceptor molecule, acceptor atom, score
      P1  H  7989  7998       L1    11  0.30
      P1  H  8011  8017       L1    11  0.36

> <Gold.Chemscore.Hbond.Weighted>
-3.0656

> <Gold.Chemscore.Metal.Weighted>
-0.0000

> <Gold.Chemscore.Lipo.Weighted>
-9.8654

> <Gold.Chemscore.Internal_Hbond.Weighted>
0.0000

> <Gold.Chemscore.DEClash.Weighted>
0.2263

> <Gold.Chemscore.DEInternal.Weighted>
2.0052

> <Gold.Chemscore.Rot.Weighted>
4.6607

> <Gold.Chemscore.Internal.Correction.Weighted>
   9.000000E+99

> <Gold.Protein.RotatedTorsions>
[ 6907 6896 6895 6894 ] final  158.07 input  -60.11 | X-H torsion
[ 7974 7965 7964 7962 ] final  140.06 input  175.53 | X-H torsion
[ 8008 7997 7996 7995 ] final  -91.03 input   59.86 | X-H torsion
[ 10167 10162 10161 10158 ] final  -44.95 input  -65.29 | X-H torsion
[ 10718 10713 10712 10709 ] final  -88.94 input   66.30 | X-H torsion
[ 10763 10752 10751 10750 ] final    4.90 input  -60.55 | X-H torsion
[ 11005 11000 10999 10996 ] final    5.45 input  -57.11 | X-H torsion

> <Gold.Protein.ActiveResidues>
 VAL166  LYS551  ARG553  GLY616  TRP617  ASP618  TYR619  PRO620  LYS621  CYS622 
 ASP623  PHE694  ASN695  SER759  ASP760  ASP761  ALA762  ILE779  LEU786  VAL792 
 PHE793  MET794  SER795  GLU796  ALA797  LYS798  CYS799  TRP800  GLU811  SER814 

> <Gold.Protein.RotatedAtoms>
  152.0058  133.3843  159.4199 H   0  0  0  0  0  0  0  0  0  0  0  0  # atno 6907 bound_to 6896
  150.6905  134.3784  159.5032 H   0  0  0  0  0  0  0  0  0  0  0  0  # atno 6908 bound_to 6896
  152.1537  134.8967  160.0597 H   0  0  0  0  0  0  0  0  0  0  0  0  # atno 6909 bound_to 6896
  144.9221  139.5155  143.5658 H   0  0  0  0  0  0  0  0  0  0  0  0  # atno 7974 bound_to 7965
  154.7058  140.0524  157.0502 H   0  0  0  0  0  0  0  0  0  0  0  0  # atno 8008 bound_to 7997
  155.0622  140.3190  155.4638 H   0  0  0  0  0  0  0  0  0  0  0  0  # atno 8009 bound_to 7997
  156.2774  140.2097  156.5749 H   0  0  0  0  0  0  0  0  0  0  0  0  # atno 8010 bound_to 7997
  140.6877  143.2904  151.3569 H   0  0  0  0  0  0  0  0  0  0  0  0  # atno 10167 bound_to 10162
  155.9984  130.4854  150.5096 H   0  0  0  0  0  0  0  0  0  0  0  0  # atno 10718 bound_to 10713
  153.2657  135.6927  153.7532 H   0  0  0  0  0  0  0  0  0  0  0  0  # atno 10763 bound_to 10752
  153.6574  135.3366  155.3118 H   0  0  0  0  0  0  0  0  0  0  0  0  # atno 10764 bound_to 10752
  154.8446  135.4469  154.1663 H   0  0  0  0  0  0  0  0  0  0  0  0  # atno 10765 bound_to 10752
  140.5706  134.0106  155.8007 H   0  0  0  0  0  0  0  0  0  0  0  0  # atno 11005 bound_to 11000
  146.3209  139.8108  142.8946 LP  0  0  0  0  0  0  0  0  0  0  0  0  # atno 17320 bound_to 7965
  145.3279  141.0260  143.3463 LP  0  0  0  0  0  0  0  0  0  0  0  0  # atno 17321 bound_to 7965
  139.6250  144.0832  152.2426 LP  0  0  0  0  0  0  0  0  0  0  0  0  # atno 17342 bound_to 10162
  140.0288  144.6097  150.7505 LP  0  0  0  0  0  0  0  0  0  0  0  0  # atno 17343 bound_to 10162
  157.3071  131.0656  151.2028 LP  0  0  0  0  0  0  0  0  0  0  0  0  # atno 17370 bound_to 10713
  157.2987  130.6832  149.6152 LP  0  0  0  0  0  0  0  0  0  0  0  0  # atno 17371 bound_to 10713
  141.1058  133.9695  157.2998 LP  0  0  0  0  0  0  0  0  0  0  0  0  # atno 17394 bound_to 11000
  139.9364  135.0196  156.8568 LP  0  0  0  0  0  0  0  0  0  0  0  0  # atno 17395 bound_to 11000

$$$$
