AV-unprocessed.smi:1475|AV-procd|sdf|5977|dock4
  -GOLD-   22720 6 73D 1   1.00000     0.00000
 Structure written by MMmdl.
 50 51  0  0  0  0  0  0  0  0  2 V2000
  153.5841  140.0754  160.6684 C   0  0  0  0  0  0  0  0  0  0  0  0
  152.7730  140.9750  159.7833 C   0  0  0  0  0  0  0  0  0  0  0  0
  152.7494  142.3972  159.7573 C   0  0  0  0  0  0  0  0  0  0  0  0
  151.8517  142.7028  158.7735 C   0  0  0  0  0  0  0  0  0  0  0  0
  151.3939  144.0315  158.2674 C   0  0  0  0  0  0  0  0  0  0  0  0
  151.3868  141.5012  158.2678 N   0  0  0  0  0  0  0  0  0  0  0  0
  150.4275  141.2629  157.2013 C   0  0  0  0  0  0  0  0  0  0  0  0
  150.9402  140.1965  156.2328 C   0  0  0  0  0  0  0  0  0  0  0  0
  152.0798  139.7480  156.3550 O   0  0  0  0  0  0  0  0  0  0  0  0
  150.0872  139.7948  155.2778 N   0  0  0  0  0  0  0  0  0  0  0  0
  150.3654  138.7610  154.2883 C   0  0  0  0  0  0  0  0  0  0  0  0
  150.7071  137.4117  154.9521 C   0  0  0  0  0  0  0  0  0  0  0  0
  149.6301  136.4038  154.7853 N   0  3  1  0  0  0  0  0  0  0  0  0
  149.9866  135.1013  155.4066 C   0  0  0  0  0  0  0  0  0  0  0  0
  148.9353  134.0156  155.1043 C   0  0  2  0  0  0  0  0  0  0  0  0
  148.9952  133.5396  153.6423 C   0  0  0  0  0  0  0  0  0  0  0  0
  147.5319  134.4898  155.5249 C   0  0  0  0  0  0  0  0  0  0  0  0
  147.1908  135.8646  154.9224 C   0  0  1  0  0  0  0  0  0  0  0  0
  145.8181  136.3593  155.4005 C   0  0  0  0  0  0  0  0  0  0  0  0
  148.3006  136.8823  155.2504 C   0  0  0  0  0  0  0  0  0  0  0  0
  151.9554  140.4443  158.8888 N   0  0  0  0  0  0  0  0  0  0  0  0
  154.1789  140.6522  161.3770 H   0  0  0  0  0  0  0  0  0  0  0  0
  154.2690  139.4619  160.0827 H   0  0  0  0  0  0  0  0  0  0  0  0
  152.9426  139.4058  161.2420 H   0  0  0  0  0  0  0  0  0  0  0  0
  153.3090  143.0897  160.3687 H   0  0  0  0  0  0  0  0  0  0  0  0
  151.9166  144.8426  158.7746 H   0  0  0  0  0  0  0  0  0  0  0  0
  150.3254  144.1651  158.4369 H   0  0  0  0  0  0  0  0  0  0  0  0
  151.5845  144.1297  157.1988 H   0  0  0  0  0  0  0  0  0  0  0  0
  149.4737  140.9552  157.6334 H   0  0  0  0  0  0  0  0  0  0  0  0
  150.2445  142.1955  156.6664 H   0  0  0  0  0  0  0  0  0  0  0  0
  149.1675  140.2127  155.2597 H   0  0  0  0  0  0  0  0  0  0  0  0
  149.5071  138.6786  153.6214 H   0  0  0  0  0  0  0  0  0  0  0  0
  151.2032  139.0967  153.6763 H   0  0  0  0  0  0  0  0  0  0  0  0
  151.6237  137.0365  154.4944 H   0  0  0  0  0  0  0  0  0  0  0  0
  150.9235  137.5353  156.0142 H   0  0  0  0  0  0  0  0  0  0  0  0
  150.9624  134.7697  155.0492 H   0  0  0  0  0  0  0  0  0  0  0  0
  150.0801  135.2370  156.4853 H   0  0  0  0  0  0  0  0  0  0  0  0
  149.1790  133.1467  155.7171 H   0  0  0  0  0  0  0  0  0  0  0  0
  148.8006  134.3503  152.9404 H   0  0  0  0  0  0  0  0  0  0  0  0
  148.2618  132.7547  153.4552 H   0  0  0  0  0  0  0  0  0  0  0  0
  149.9779  133.1301  153.4060 H   0  0  0  0  0  0  0  0  0  0  0  0
  146.7829  133.7511  155.2369 H   0  0  0  0  0  0  0  0  0  0  0  0
  147.4907  134.5547  156.6132 H   0  0  0  0  0  0  0  0  0  0  0  0
  147.1358  135.7618  153.8378 H   0  0  0  0  0  0  0  0  0  0  0  0
  145.7980  136.4912  156.4829 H   0  0  0  0  0  0  0  0  0  0  0  0
  145.0321  135.6508  155.1371 H   0  0  0  0  0  0  0  0  0  0  0  0
  145.5640  137.3165  154.9441 H   0  0  0  0  0  0  0  0  0  0  0  0
  148.3380  137.0709  156.3247 H   0  0  0  0  0  0  0  0  0  0  0  0
  148.0544  137.8313  154.7761 H   0  0  0  0  0  0  0  0  0  0  0  0
  149.5518  136.2307  153.7934 H   0  0  0  0  0  0  0  0  0  0  0  0
  1  2  1  0  0  0  0
  1 22  1  0  0  0  0
  1 23  1  0  0  0  0
  1 24  1  0  0  0  0
  2 21  2  0  0  0  0
  2  3  1  0  0  0  0
  3  4  2  0  0  0  0
  3 25  1  0  0  0  0
  4  5  1  0  0  0  0
  4  6  1  0  0  0  0
  5 26  1  0  0  0  0
  5 27  1  0  0  0  0
  5 28  1  0  0  0  0
  6  7  1  0  0  0  0
  6 21  1  0  0  0  0
  7  8  1  0  0  0  0
  7 29  1  0  0  0  0
  7 30  1  0  0  0  0
  8  9  2  0  0  0  0
  8 10  1  0  0  0  0
 10 11  1  0  0  0  0
 10 31  1  0  0  0  0
 11 12  1  0  0  0  0
 11 32  1  0  0  0  0
 11 33  1  0  0  0  0
 12 13  1  0  0  0  0
 12 34  1  0  0  0  0
 12 35  1  0  0  0  0
 13 20  1  0  0  0  0
 13 14  1  0  0  0  0
 13 50  1  0  0  0  0
 14 15  1  0  0  0  0
 14 36  1  0  0  0  0
 14 37  1  0  0  0  0
 15 16  1  0  0  0  0
 15 17  1  0  0  0  0
 15 38  1  0  0  0  0
 16 39  1  0  0  0  0
 16 40  1  0  0  0  0
 16 41  1  0  0  0  0
 17 18  1  0  0  0  0
 17 42  1  0  0  0  0
 17 43  1  0  0  0  0
 18 19  1  0  0  0  0
 18 20  1  0  0  0  0
 18 44  1  0  0  0  0
 19 45  1  0  0  0  0
 19 46  1  0  0  0  0
 19 47  1  0  0  0  0
 20 48  1  0  0  0  0
 20 49  1  0  0  0  0
M  CHG  1  13   1
M  END
> <s_m_source_file>
AV-unprocessed.smi

> <i_m_source_file_index>
1475

> <i_lp_mmshare_version>
43012

> <i_f3d_flags>
0

> <s_epik_input>
W0NIM11jMVtjSF1jKFtDSDNdKW4objEpW0NIMl1DKD1PKVtOSF1bQ0gyXVtDSDJdTjJbQ0gyXVtDQEBIXShbQ0gzXSlbQ0gyXVtDQEBIXShbQ0gzXSlbQ0gyXTI=

> <s_epik_cmdline>
J2VwaWtfcHl0aG9uJywgJy1waCcsICc3LjAnLCAnLXRuJywgJzgnLCAnLW1hJywgJzIwMCcsICctbWV0YWxfYmluZGluZycsICctaW1hZScsICc8aW5maWxlLm1hZT4nLCAnLW9tYWUnLCAnPG91dGZpbGUubWFlPic=

> <r_lp_tautomer_probability>
1

> <r_epik_Ionization_Penalty>
0.00206431

> <r_epik_Ionization_Penalty_Charging>
0.00187095

> <r_epik_Ionization_Penalty_Neutral>
0.000193364

> <r_epik_State_Penalty>
-0

> <r_epik_Charging_Adjusted_Penalty>
0.00187095

> <i_epik_Tot_Q>
1

> <i_epik_Tot_abs_Q>
1

> <r_epik_Metal_State_Penalty>
-0

> <b_epik_Metal_Only>
0

> <s_lp_Force_Field>
OPLS_2005

> <r_lp_Energy>
16.4698

> <b_lp_Chiralities_Consistent>
1

> <s_lp_Variant>
AV-unprocessed.smi:1475-2

> <Gold.Version>
5.8.1

> <Gold.Id.Protein>
6NUR|6NUR_protein|mol2

> <Gold.PLP.Fitness>
47.3234

> <Gold.PLP.PLP>
-39.3765

> <Gold.PLP.part.hbond>
-2.0000

> <Gold.PLP.part.metal>
0.0000

> <Gold.PLP.part.buried>
-4.3966

> <Gold.PLP.part.nonpolar>
-32.0142

> <Gold.PLP.part.repulsive>
0.4202

> <Gold.PLP.ligand.clash>
0.0000

> <Gold.PLP.ligand.torsion>
0.5576

> <Gold.PLP.Chemscore.Hbond>
3.0000

> <Gold.PLP.Chemscore.CHOScore>
0.0000

> <Gold.PLP.Chemscore.Metal>
0.0000

> <Gold.Chemscore.Hbonds>
donor molecule, donor type, donor heavy atom, donor atom, acceptor molecule, acceptor atom, score
      L1  H    13    50       P1  7948  2.00
      P1  H  7997  8008       L1     9  0.36

> <Gold.PLP.Chemscore.Internal.Correction>
0.0622

> <Gold.Rescore>
     Score         DG    S(hbond)    S(metal)    S(lipo)     H(rot)  DE(clash)    DE(int)     intcor
     14.85     -18.28       1.81        0.00      93.70       1.64       0.28       3.14       ----

> <Gold.Chemscore.Fitness>
14.8546

> <Gold.Chemscore.DG>
-18.2764

> <Gold.Chemscore.ZeroCoef>
-5.4800

> <Gold.Chemscore.Hbond>
1.8060

> <Gold.Chemscore.Metal>
0.0000

> <Gold.Chemscore.Lipo>
93.6971

> <Gold.Chemscore.Internal_Hbond>
0.0000

> <Gold.Chemscore.DEClash>
0.2835

> <Gold.Chemscore.DEInternal>
3.1383

> <Gold.Chemscore.Rot>
1.6399

> <Gold.Chemscore.Internal.Correction>
   9.000000E+99

> <Gold.Chemscore.Hbonds>
donor molecule, donor type, donor heavy atom, donor atom, acceptor molecule, acceptor atom, score
      L1  H    13    50       P1  7948  0.58
      P1  H  7997  8008       L1     9  0.35

> <Gold.Chemscore.Hbond.Weighted>
-6.0320

> <Gold.Chemscore.Metal.Weighted>
-0.0000

> <Gold.Chemscore.Lipo.Weighted>
-10.9626

> <Gold.Chemscore.Internal_Hbond.Weighted>
0.0000

> <Gold.Chemscore.DEClash.Weighted>
0.2835

> <Gold.Chemscore.DEInternal.Weighted>
3.1383

> <Gold.Chemscore.Rot.Weighted>
4.1982

> <Gold.Chemscore.Internal.Correction.Weighted>
   9.000000E+99

> <Gold.Protein.RotatedTorsions>
[ 6907 6896 6895 6894 ] final  -45.40 input  -60.11 | X-H torsion
[ 7974 7965 7964 7962 ] final  -20.95 input  175.53 | X-H torsion
[ 8008 7997 7996 7995 ] final  -39.23 input   59.86 | X-H torsion
[ 10167 10162 10161 10158 ] final  139.43 input  -65.29 | X-H torsion
[ 10718 10713 10712 10709 ] final  -46.68 input   66.30 | X-H torsion
[ 10763 10752 10751 10750 ] final -142.43 input  -60.55 | X-H torsion
[ 11005 11000 10999 10996 ] final  140.98 input  -57.11 | X-H torsion

> <Gold.Protein.ActiveResidues>
 VAL166  LYS551  ARG553  GLY616  TRP617  ASP618  TYR619  PRO620  LYS621  CYS622 
 ASP623  PHE694  ASN695  SER759  ASP760  ASP761  ALA762  ILE779  LEU786  VAL792 
 PHE793  MET794  SER795  GLU796  ALA797  LYS798  CYS799  TRP800  GLU811  SER814 

> <Gold.Protein.RotatedAtoms>
  150.9224  134.8641  159.7497 H   0  0  0  0  0  0  0  0  0  0  0  0  # atno 6907 bound_to 6896
  152.4999  134.4199  159.9487 H   0  0  0  0  0  0  0  0  0  0  0  0  # atno 6908 bound_to 6896
  151.4232  133.3652  159.2794 H   0  0  0  0  0  0  0  0  0  0  0  0  # atno 6909 bound_to 6896
  146.1760  140.4273  142.8513 H   0  0  0  0  0  0  0  0  0  0  0  0  # atno 7974 bound_to 7965
  154.4026  140.1557  156.2830 H   0  0  0  0  0  0  0  0  0  0  0  0  # atno 8008 bound_to 7997
  155.8853  140.3441  155.5895 H   0  0  0  0  0  0  0  0  0  0  0  0  # atno 8009 bound_to 7997
  155.7621  140.0819  157.2141 H   0  0  0  0  0  0  0  0  0  0  0  0  # atno 8010 bound_to 7997
  139.5079  144.6295  151.5854 H   0  0  0  0  0  0  0  0  0  0  0  0  # atno 10167 bound_to 10162
  156.2159  130.4163  149.9055 H   0  0  0  0  0  0  0  0  0  0  0  0  # atno 10718 bound_to 10713
  154.8509  135.3496  154.6027 H   0  0  0  0  0  0  0  0  0  0  0  0  # atno 10763 bound_to 10752
  153.6636  135.6988  153.5174 H   0  0  0  0  0  0  0  0  0  0  0  0  # atno 10764 bound_to 10752
  153.2798  135.4267  155.1025 H   0  0  0  0  0  0  0  0  0  0  0  0  # atno 10765 bound_to 10752
  140.0367  134.9325  157.0766 H   0  0  0  0  0  0  0  0  0  0  0  0  # atno 11005 bound_to 11000
  144.8237  140.6592  143.6336 LP  0  0  0  0  0  0  0  0  0  0  0  0  # atno 17320 bound_to 7965
  145.4210  139.1564  143.4074 LP  0  0  0  0  0  0  0  0  0  0  0  0  # atno 17321 bound_to 7965
  140.6023  143.9588  150.6394 LP  0  0  0  0  0  0  0  0  0  0  0  0  # atno 17342 bound_to 10162
  140.2803  143.3394  152.1157 LP  0  0  0  0  0  0  0  0  0  0  0  0  # atno 17343 bound_to 10162
  156.6717  130.8823  151.3563 LP  0  0  0  0  0  0  0  0  0  0  0  0  # atno 17370 bound_to 10713
  157.7063  130.9388  150.0941 LP  0  0  0  0  0  0  0  0  0  0  0  0  # atno 17371 bound_to 10713
  140.4136  134.1955  155.7163 LP  0  0  0  0  0  0  0  0  0  0  0  0  # atno 17394 bound_to 11000
  141.1861  133.8309  157.1080 LP  0  0  0  0  0  0  0  0  0  0  0  0  # atno 17395 bound_to 11000

$$$$
