AV-unprocessed.smi:38|AV-procd|sdf|339|dock5
  -GOLD-   2262016173D 1   1.00000     0.00000
 Structure written by MMmdl.
 28 29  0  0  0  0  0  0  0  0  1 V2000
  153.3812  139.1255  157.4781 O   0  0  0  0  0  0  0  0  0  0  0  0
  152.2770  139.3575  156.9896 C   0  0  0  0  0  0  0  0  0  0  0  0
  151.2033  139.7076  157.8136 N   0  0  0  0  0  0  0  0  0  0  0  0
  149.9064  139.9914  157.3807 C   0  0  0  0  0  0  0  0  0  0  0  0
  149.0432  140.3055  158.1991 O   0  0  0  0  0  0  0  0  0  0  0  0
  149.6583  139.9079  155.9922 N   0  0  0  0  0  0  0  0  0  0  0  0
  148.2735  140.1962  155.4600 C   0  0  1  0  0  0  0  0  0  0  0  0
  148.2757  141.4498  154.5791 C   0  0  0  0  0  0  0  0  0  0  0  0
  147.3340  141.0553  153.4587 C   0  0  2  0  0  0  0  0  0  0  0  0
  145.9947  141.3558  153.8045 O   0  0  0  0  0  0  0  0  0  0  0  0
  147.5837  139.5444  153.3454 C   0  0  2  0  0  0  0  0  0  0  0  0
  146.4657  138.6984  152.7118 C   0  0  0  0  0  0  0  0  0  0  0  0
  146.2401  139.1040  151.3785 O   0  0  0  0  0  0  0  0  0  0  0  0
  147.8556  139.1155  154.6776 O   0  0  0  0  0  0  0  0  0  0  0  0
  150.6990  139.5764  155.1348 C   0  0  0  0  0  0  0  0  0  0  0  0
  151.9534  139.3073  155.5670 C   0  0  0  0  0  0  0  0  0  0  0  0
  152.9100  138.9961  154.6759 F   0  0  0  0  0  0  0  0  0  0  0  0
  151.3821  139.7637  158.8058 H   0  0  0  0  0  0  0  0  0  0  0  0
  147.5898  140.2668  156.3072 H   0  0  0  0  0  0  0  0  0  0  0  0
  147.5716  141.5739  152.5293 H   0  0  0  0  0  0  0  0  0  0  0  0
  148.5017  139.3946  152.7751 H   0  0  0  0  0  0  0  0  0  0  0  0
  147.9695  142.3335  155.1403 H   0  0  0  0  0  0  0  0  0  0  0  0
  149.2771  141.6175  154.1797 H   0  0  0  0  0  0  0  0  0  0  0  0
  145.4356  141.0964  153.0876 H   0  0  0  0  0  0  0  0  0  0  0  0
  146.7565  137.6478  152.7041 H   0  0  0  0  0  0  0  0  0  0  0  0
  145.5384  138.7661  153.2809 H   0  0  0  0  0  0  0  0  0  0  0  0
  145.3206  139.0017  151.1852 H   0  0  0  0  0  0  0  0  0  0  0  0
  150.5148  139.5326  154.0721 H   0  0  0  0  0  0  0  0  0  0  0  0
  1  2  2  0  0  0  0
  2 16  1  0  0  0  0
  2  3  1  0  0  0  0
  3 18  1  0  0  0  0
  3  4  1  0  0  0  0
  4  5  2  0  0  0  0
  4  6  1  0  0  0  0
  6  7  1  0  0  0  0
  6 15  1  0  0  0  0
  7 19  1  0  0  0  0
  7 14  1  0  0  0  0
  7  8  1  0  0  0  0
  8  9  1  0  0  0  0
  8 22  1  0  0  0  0
  8 23  1  0  0  0  0
  9 20  1  0  0  0  0
  9 10  1  0  0  0  0
  9 11  1  0  0  0  0
 10 24  1  0  0  0  0
 11 21  1  0  0  0  0
 11 12  1  0  0  0  0
 11 14  1  0  0  0  0
 12 13  1  0  0  0  0
 12 25  1  0  0  0  0
 12 26  1  0  0  0  0
 13 27  1  0  0  0  0
 15 16  2  0  0  0  0
 15 28  1  0  0  0  0
 16 17  1  0  0  0  0
M  END
> <s_m_source_file>
AV-unprocessed.smi

> <i_m_source_file_index>
38

> <i_lp_mmshare_version>
43012

> <i_f3d_flags>
0

> <s_epik_input>
Tz1jMVtuSF1jKD1PKW4oW2NIXWMxRilbQ0BIXTJbQ0gyXVtDQEhdKFtPSF0pW0NASF0oTzIpW0NIMl1bT0hd

> <s_epik_cmdline>
J2VwaWtfcHl0aG9uJywgJy1waCcsICc3LjAnLCAnLXRuJywgJzgnLCAnLW1hJywgJzIwMCcsICctbWV0YWxfYmluZGluZycsICctaW1hZScsICc8aW5maWxlLm1hZT4nLCAnLW9tYWUnLCAnPG91dGZpbGUubWFlPic=

> <r_lp_tautomer_probability>
0.999537

> <r_epik_Ionization_Penalty>
0.0357432

> <r_epik_Ionization_Penalty_Charging>
0.0357431

> <r_epik_Ionization_Penalty_Neutral>
1.19946e-07

> <r_epik_State_Penalty>
0.0298169

> <r_epik_Charging_Adjusted_Penalty>
0.06556

> <i_epik_Tot_Q>
0

> <i_epik_Tot_abs_Q>
0

> <r_epik_Metal_State_Penalty>
2.348

> <b_epik_Metal_Only>
0

> <s_epik_Chemistry_Notes>
This compound contains an acetal/aminal-like group ( X-CH(R)-Y where X, Y are N, S, or O) that may be acid/base labile, releasing an aldehyde.

> <s_lp_Force_Field>
OPLS_2005

> <r_lp_Energy>
29.3974

> <b_lp_Chiralities_Consistent>
1

> <s_lp_Variant>
AV-unprocessed.smi:38-5

> <Gold.Version>
5.8.1

> <Gold.Id.Protein>
6NUR|6NUR_protein|mol2

> <Gold.PLP.Fitness>
35.2498

> <Gold.PLP.PLP>
-26.5118

> <Gold.PLP.part.hbond>
-4.2716

> <Gold.PLP.part.metal>
0.0000

> <Gold.PLP.part.buried>
-2.5069

> <Gold.PLP.part.nonpolar>
-20.7843

> <Gold.PLP.part.repulsive>
0.1606

> <Gold.PLP.ligand.clash>
0.0000

> <Gold.PLP.ligand.torsion>
0.0601

> <Gold.PLP.Chemscore.Hbond>
2.9520

> <Gold.PLP.Chemscore.CHOScore>
0.0000

> <Gold.PLP.Chemscore.Metal>
0.0000

> <Gold.Chemscore.Hbonds>
donor molecule, donor type, donor heavy atom, donor atom, acceptor molecule, acceptor atom, score
      L1  H    10    24       P1 10175  0.98
      L1  H    13    27       P1 10171  0.96
      P1  H  7997  8009       L1     1  1.00

> <Gold.PLP.Chemscore.Internal.Correction>
0.0022

> <Gold.Rescore>
     Score         DG    S(hbond)    S(metal)    S(lipo)     H(rot)  DE(clash)    DE(int)     intcor
     11.76     -12.32       2.90        0.00      39.53       2.91       0.49       0.07       ----

> <Gold.Chemscore.Fitness>
11.7595

> <Gold.Chemscore.DG>
-12.3227

> <Gold.Chemscore.ZeroCoef>
-5.4800

> <Gold.Chemscore.Hbond>
2.8975

> <Gold.Chemscore.Metal>
0.0000

> <Gold.Chemscore.Lipo>
39.5304

> <Gold.Chemscore.Internal_Hbond>
0.0000

> <Gold.Chemscore.DEClash>
0.4915

> <Gold.Chemscore.DEInternal>
0.0718

> <Gold.Chemscore.Rot>
2.9141

> <Gold.Chemscore.Internal.Correction>
   9.000000E+99

> <Gold.Chemscore.Hbonds>
donor molecule, donor type, donor heavy atom, donor atom, acceptor molecule, acceptor atom, score
      L1  H    10    24       P1 10175  0.24
      L1  H    13    27       P1 10171  0.87
      P1  H  7997  8009       L1     1  0.68

> <Gold.Chemscore.Hbond.Weighted>
-9.6778

> <Gold.Chemscore.Metal.Weighted>
-0.0000

> <Gold.Chemscore.Lipo.Weighted>
-4.6251

> <Gold.Chemscore.Internal_Hbond.Weighted>
0.0000

> <Gold.Chemscore.DEClash.Weighted>
0.4915

> <Gold.Chemscore.DEInternal.Weighted>
0.0718

> <Gold.Chemscore.Rot.Weighted>
7.4601

> <Gold.Chemscore.Internal.Correction.Weighted>
   9.000000E+99

> <Gold.Protein.RotatedTorsions>
[ 6907 6896 6895 6894 ] final  100.87 input  -60.11 | X-H torsion
[ 7974 7965 7964 7962 ] final  139.00 input  175.53 | X-H torsion
[ 8008 7997 7996 7995 ] final  171.89 input   59.86 | X-H torsion
[ 10167 10162 10161 10158 ] final -172.71 input  -65.29 | X-H torsion
[ 10718 10713 10712 10709 ] final   22.27 input   66.30 | X-H torsion
[ 10763 10752 10751 10750 ] final -104.66 input  -60.55 | X-H torsion
[ 11005 11000 10999 10996 ] final -164.91 input  -57.11 | X-H torsion

> <Gold.Protein.ActiveResidues>
 VAL166  LYS551  ARG553  GLY616  TRP617  ASP618  TYR619  PRO620  LYS621  CYS622 
 ASP623  PHE694  ASN695  SER759  ASP760  ASP761  ALA762  ILE779  LEU786  VAL792 
 PHE793  MET794  SER795  GLU796  ALA797  LYS798  CYS799  TRP800  GLU811  SER814 

> <Gold.Protein.RotatedAtoms>
  152.5362  134.0212  159.7982 H   0  0  0  0  0  0  0  0  0  0  0  0  # atno 6907 bound_to 6896
  151.0398  133.5708  159.2659 H   0  0  0  0  0  0  0  0  0  0  0  0  # atno 6908 bound_to 6896
  151.2682  135.0683  159.9177 H   0  0  0  0  0  0  0  0  0  0  0  0  # atno 6909 bound_to 6896
  144.9320  139.5036  143.5613 H   0  0  0  0  0  0  0  0  0  0  0  0  # atno 7974 bound_to 7965
  156.1227  140.1500  156.9181 H   0  0  0  0  0  0  0  0  0  0  0  0  # atno 8008 bound_to 7997
  154.4848  140.0868  156.7502 H   0  0  0  0  0  0  0  0  0  0  0  0  # atno 8009 bound_to 7997
  155.4399  140.3430  155.4291 H   0  0  0  0  0  0  0  0  0  0  0  0  # atno 8010 bound_to 7997
  139.5729  144.1599  152.1410 H   0  0  0  0  0  0  0  0  0  0  0  0  # atno 10167 bound_to 10162
  157.1500  130.6670  149.6008 H   0  0  0  0  0  0  0  0  0  0  0  0  # atno 10718 bound_to 10713
  154.7893  135.4778  154.0017 H   0  0  0  0  0  0  0  0  0  0  0  0  # atno 10763 bound_to 10752
  153.1607  135.6808  153.8753 H   0  0  0  0  0  0  0  0  0  0  0  0  # atno 10764 bound_to 10752
  153.8368  135.3184  155.3401 H   0  0  0  0  0  0  0  0  0  0  0  0  # atno 10765 bound_to 10752
  140.5816  134.5136  157.5179 H   0  0  0  0  0  0  0  0  0  0  0  0  # atno 11005 bound_to 11000
  146.3251  139.8277  142.8914 LP  0  0  0  0  0  0  0  0  0  0  0  0  # atno 17320 bound_to 7965
  145.3127  141.0224  143.3545 LP  0  0  0  0  0  0  0  0  0  0  0  0  # atno 17321 bound_to 7965
  140.1136  144.5435  150.6909 LP  0  0  0  0  0  0  0  0  0  0  0  0  # atno 17342 bound_to 10162
  140.7013  143.2437  151.4856 LP  0  0  0  0  0  0  0  0  0  0  0  0  # atno 17343 bound_to 10162
  155.9772  130.4748  150.6580 LP  0  0  0  0  0  0  0  0  0  0  0  0  # atno 17370 bound_to 10713
  157.4229  131.0839  151.1113 LP  0  0  0  0  0  0  0  0  0  0  0  0  # atno 17371 bound_to 10713
  139.9315  134.7955  156.0919 LP  0  0  0  0  0  0  0  0  0  0  0  0  # atno 17394 bound_to 11000
  141.0993  133.6683  156.2716 LP  0  0  0  0  0  0  0  0  0  0  0  0  # atno 17395 bound_to 11000

$$$$
