AV-unprocessed.smi:2028|AV-procd|sdf|8221|dock5
  -GOLD-   2272010493D 1   1.00000     0.00000
 Structure written by MMmdl.
 38 39  0  0  0  0  0  0  0  0  1 V2000
  151.4889  145.5971  160.0250 C   0  0  0  0  0  0  0  0  0  0  0  0
  152.0166  144.4598  159.1330 C   0  0  0  0  0  0  0  0  0  0  0  0
  150.8223  143.7612  158.4501 C   0  0  0  0  0  0  0  0  0  0  0  0
  152.9761  145.0529  158.0794 C   0  0  0  0  0  0  0  0  0  0  0  0
  152.7212  143.5221  160.0142 N   0  0  0  0  0  0  0  0  0  0  0  0
  152.2414  142.8440  161.0726 C   0  0  0  0  0  0  0  0  0  0  0  0
  151.0717  142.8919  161.4520 O   0  0  0  0  0  0  0  0  0  0  0  0
  153.2518  141.9849  161.8340 C   0  0  0  0  0  0  0  0  0  0  0  0
  153.3292  140.6196  161.2155 C   0  0  0  0  0  0  0  0  0  0  0  0
  153.2337  140.3160  159.8794 C   0  0  0  0  0  0  0  0  0  0  0  0
  153.3611  138.6031  159.5875 S   0  0  0  0  0  0  0  0  0  0  0  0
  153.5476  138.3548  161.3262 C   0  0  0  0  0  0  0  0  0  0  0  0
  153.7047  137.1022  161.9901 N   0  0  0  0  0  0  0  0  0  0  0  0
  153.6820  136.9967  163.4459 C   0  0  0  0  0  0  0  0  0  0  0  0
  153.6480  135.4967  163.7588 C   0  0  0  0  0  0  0  0  0  0  0  0
  154.0292  134.8020  162.4528 C   0  0  0  0  0  0  0  0  0  0  0  0
  153.9078  135.9043  161.4137 C   0  0  0  0  0  0  0  0  0  0  0  0
  154.0016  135.6660  160.2106 O   0  0  0  0  0  0  0  0  0  0  0  0
  153.5158  139.4938  162.0259 N   0  0  0  0  0  0  0  0  0  0  0  0
  150.9455  146.3411  159.4412 H   0  0  0  0  0  0  0  0  0  0  0  0
  152.3033  146.1131  160.5353 H   0  0  0  0  0  0  0  0  0  0  0  0
  150.8085  145.2203  160.7898 H   0  0  0  0  0  0  0  0  0  0  0  0
  150.1520  143.3129  159.1847 H   0  0  0  0  0  0  0  0  0  0  0  0
  151.1434  142.9701  157.7724 H   0  0  0  0  0  0  0  0  0  0  0  0
  150.2370  144.4688  157.8619 H   0  0  0  0  0  0  0  0  0  0  0  0
  152.4799  145.8234  157.4883 H   0  0  0  0  0  0  0  0  0  0  0  0
  153.3359  144.2991  157.3793 H   0  0  0  0  0  0  0  0  0  0  0  0
  153.8475  145.5110  158.5485 H   0  0  0  0  0  0  0  0  0  0  0  0
  153.7020  143.3947  159.8108 H   0  0  0  0  0  0  0  0  0  0  0  0
  154.2257  142.4754  161.8100 H   0  0  0  0  0  0  0  0  0  0  0  0
  152.9669  141.9193  162.8853 H   0  0  0  0  0  0  0  0  0  0  0  0
  153.0893  140.9949  159.0520 H   0  0  0  0  0  0  0  0  0  0  0  0
  154.5838  137.4563  163.8534 H   0  0  0  0  0  0  0  0  0  0  0  0
  152.8174  137.5082  163.8717 H   0  0  0  0  0  0  0  0  0  0  0  0
  154.3241  135.2379  164.5743 H   0  0  0  0  0  0  0  0  0  0  0  0
  152.6423  135.1979  164.0576 H   0  0  0  0  0  0  0  0  0  0  0  0
  155.0585  134.4426  162.4791 H   0  0  0  0  0  0  0  0  0  0  0  0
  153.3707  133.9634  162.2245 H   0  0  0  0  0  0  0  0  0  0  0  0
  1  2  1  0  0  0  0
  1 20  1  0  0  0  0
  1 21  1  0  0  0  0
  1 22  1  0  0  0  0
  2  3  1  0  0  0  0
  2  4  1  0  0  0  0
  2  5  1  0  0  0  0
  3 23  1  0  0  0  0
  3 24  1  0  0  0  0
  3 25  1  0  0  0  0
  4 26  1  0  0  0  0
  4 27  1  0  0  0  0
  4 28  1  0  0  0  0
  5  6  1  0  0  0  0
  5 29  1  0  0  0  0
  6  7  2  0  0  0  0
  6  8  1  0  0  0  0
  8  9  1  0  0  0  0
  8 30  1  0  0  0  0
  8 31  1  0  0  0  0
  9 19  1  0  0  0  0
  9 10  2  0  0  0  0
 10 11  1  0  0  0  0
 10 32  1  0  0  0  0
 11 12  1  0  0  0  0
 12 13  1  0  0  0  0
 12 19  2  0  0  0  0
 13 17  1  0  0  0  0
 13 14  1  0  0  0  0
 14 15  1  0  0  0  0
 14 33  1  0  0  0  0
 14 34  1  0  0  0  0
 15 16  1  0  0  0  0
 15 35  1  0  0  0  0
 15 36  1  0  0  0  0
 16 17  1  0  0  0  0
 16 37  1  0  0  0  0
 16 38  1  0  0  0  0
 17 18  2  0  0  0  0
M  END
> <s_m_source_file>
AV-unprocessed.smi

> <i_m_source_file_index>
2028

> <i_lp_mmshare_version>
43012

> <i_f3d_flags>
0

> <s_epik_input>
W0NIM11DKFtDSDNdKShbQ0gzXSlbTkhdQyg9TylbQ0gyXWMxW2NIXXNjKG4xKU4yW0NIMl1bQ0gyXVtDSDJdQzI9Tw==

> <s_epik_cmdline>
J2VwaWtfcHl0aG9uJywgJy1waCcsICc3LjAnLCAnLXRuJywgJzgnLCAnLW1hJywgJzIwMCcsICctbWV0YWxfYmluZGluZycsICctaW1hZScsICc8aW5maWxlLm1hZT4nLCAnLW9tYWUnLCAnPG91dGZpbGUubWFlPic=

> <r_lp_tautomer_probability>
1

> <r_epik_Ionization_Penalty>
2.98188e-05

> <r_epik_Ionization_Penalty_Charging>
0

> <r_epik_Ionization_Penalty_Neutral>
2.98188e-05

> <r_epik_State_Penalty>
-0

> <r_epik_Charging_Adjusted_Penalty>
0

> <i_epik_Tot_Q>
0

> <i_epik_Tot_abs_Q>
0

> <r_epik_Metal_State_Penalty>
-0

> <b_epik_Metal_Only>
0

> <s_lp_Force_Field>
OPLS_2005

> <r_lp_Energy>
17.4642

> <b_lp_Chiralities_Consistent>
1

> <s_lp_Variant>
AV-unprocessed.smi:2028-1

> <Gold.Version>
5.8.1

> <Gold.Id.Protein>
6NUR|6NUR_protein|mol2

> <Gold.PLP.Fitness>
45.6754

> <Gold.PLP.PLP>
-42.4110

> <Gold.PLP.part.hbond>
-2.0000

> <Gold.PLP.part.metal>
0.0000

> <Gold.PLP.part.buried>
-5.6399

> <Gold.PLP.part.nonpolar>
-35.3744

> <Gold.PLP.part.repulsive>
0.1546

> <Gold.PLP.ligand.clash>
0.0000

> <Gold.PLP.ligand.torsion>
0.7406

> <Gold.PLP.Chemscore.Hbond>
1.5760

> <Gold.PLP.Chemscore.CHOScore>
0.0000

> <Gold.PLP.Chemscore.Metal>
0.0000

> <Gold.Chemscore.Hbonds>
donor molecule, donor type, donor heavy atom, donor atom, acceptor molecule, acceptor atom, score
      P1  H  6896  6909       L1    18  0.90
      P1  H  6933  6945       L1     7  0.34

> <Gold.PLP.Chemscore.Internal.Correction>
0.0177

> <Gold.Rescore>
     Score         DG    S(hbond)    S(metal)    S(lipo)     H(rot)  DE(clash)    DE(int)     intcor
     16.81     -18.83       1.37        0.00     106.48       1.44       0.55       1.47       ----

> <Gold.Chemscore.Fitness>
16.8095

> <Gold.Chemscore.DG>
-18.8259

> <Gold.Chemscore.ZeroCoef>
-5.4800

> <Gold.Chemscore.Hbond>
1.3672

> <Gold.Chemscore.Metal>
0.0000

> <Gold.Chemscore.Lipo>
106.4816

> <Gold.Chemscore.Internal_Hbond>
0.0000

> <Gold.Chemscore.DEClash>
0.5471

> <Gold.Chemscore.DEInternal>
1.4692

> <Gold.Chemscore.Rot>
1.4371

> <Gold.Chemscore.Internal.Correction>
   9.000000E+99

> <Gold.Chemscore.Hbonds>
donor molecule, donor type, donor heavy atom, donor atom, acceptor molecule, acceptor atom, score
      P1  H  6896  6909       L1    18  0.18
      P1  H  6933  6945       L1     7  0.34

> <Gold.Chemscore.Hbond.Weighted>
-4.5664

> <Gold.Chemscore.Metal.Weighted>
-0.0000

> <Gold.Chemscore.Lipo.Weighted>
-12.4583

> <Gold.Chemscore.Internal_Hbond.Weighted>
0.0000

> <Gold.Chemscore.DEClash.Weighted>
0.5471

> <Gold.Chemscore.DEInternal.Weighted>
1.4692

> <Gold.Chemscore.Rot.Weighted>
3.6789

> <Gold.Chemscore.Internal.Correction.Weighted>
   9.000000E+99

> <Gold.Protein.RotatedTorsions>
[ 6907 6896 6895 6894 ] final  177.28 input  -60.11 | X-H torsion
[ 7974 7965 7964 7962 ] final  -31.46 input  175.53 | X-H torsion
[ 8008 7997 7996 7995 ] final -129.39 input   59.86 | X-H torsion
[ 10167 10162 10161 10158 ] final   68.10 input  -65.29 | X-H torsion
[ 10718 10713 10712 10709 ] final   24.75 input   66.30 | X-H torsion
[ 10763 10752 10751 10750 ] final  -86.67 input  -60.55 | X-H torsion
[ 11005 11000 10999 10996 ] final  -70.64 input  -57.11 | X-H torsion

> <Gold.Protein.ActiveResidues>
 VAL166  LYS551  ARG553  GLY616  TRP617  ASP618  TYR619  PRO620  LYS621  CYS622 
 ASP623  PHE694  ASN695  SER759  ASP760  ASP761  ALA762  ILE779  LEU786  VAL792 
 PHE793  MET794  SER795  GLU796  ALA797  LYS798  CYS799  TRP800  GLU811  SER814 

> <Gold.Protein.RotatedAtoms>
  151.7065  133.3311  159.3279 H   0  0  0  0  0  0  0  0  0  0  0  0  # atno 6907 bound_to 6896
  150.7712  134.6569  159.6328 H   0  0  0  0  0  0  0  0  0  0  0  0  # atno 6908 bound_to 6896
  152.3737  134.6698  160.0219 H   0  0  0  0  0  0  0  0  0  0  0  0  # atno 6909 bound_to 6896
  146.1065  140.5670  142.8797 H   0  0  0  0  0  0  0  0  0  0  0  0  # atno 7974 bound_to 7965
  155.2785  140.0443  157.3013 H   0  0  0  0  0  0  0  0  0  0  0  0  # atno 8008 bound_to 7997
  154.5611  140.2346  155.8302 H   0  0  0  0  0  0  0  0  0  0  0  0  # atno 8009 bound_to 7997
  156.2048  140.3015  155.9610 H   0  0  0  0  0  0  0  0  0  0  0  0  # atno 8010 bound_to 7997
  140.0824  144.5060  150.7153 H   0  0  0  0  0  0  0  0  0  0  0  0  # atno 10167 bound_to 10162
  157.1841  130.6816  149.6124 H   0  0  0  0  0  0  0  0  0  0  0  0  # atno 10718 bound_to 10713
  154.6250  135.5441  153.7617 H   0  0  0  0  0  0  0  0  0  0  0  0  # atno 10763 bound_to 10752
  153.0257  135.6422  154.1384 H   0  0  0  0  0  0  0  0  0  0  0  0  # atno 10764 bound_to 10752
  154.1317  135.2914  155.3163 H   0  0  0  0  0  0  0  0  0  0  0  0  # atno 10765 bound_to 10752
  141.1578  133.6795  156.6784 H   0  0  0  0  0  0  0  0  0  0  0  0  # atno 11005 bound_to 11000
  144.7475  140.5106  143.6825 LP  0  0  0  0  0  0  0  0  0  0  0  0  # atno 17320 bound_to 7965
  145.5750  139.1485  143.3267 LP  0  0  0  0  0  0  0  0  0  0  0  0  # atno 17321 bound_to 7965
  140.7071  143.2476  151.4693 LP  0  0  0  0  0  0  0  0  0  0  0  0  # atno 17342 bound_to 10162
  139.5772  144.1792  152.1919 LP  0  0  0  0  0  0  0  0  0  0  0  0  # atno 17343 bound_to 10162
  155.9720  130.4637  150.6190 LP  0  0  0  0  0  0  0  0  0  0  0  0  # atno 17370 bound_to 10713
  157.3924  131.0797  151.1382 LP  0  0  0  0  0  0  0  0  0  0  0  0  # atno 17371 bound_to 10713
  140.3121  134.8077  157.4185 LP  0  0  0  0  0  0  0  0  0  0  0  0  # atno 17394 bound_to 11000
  140.1169  134.5271  155.8217 LP  0  0  0  0  0  0  0  0  0  0  0  0  # atno 17395 bound_to 11000

$$$$
