AV-unprocessed.smi:1401|AV-procd|sdf|5688|dock2
  -GOLD-   22720 5313D 1   1.00000     0.00000
 Structure written by MMmdl.
 48 50  0  0  0  0  0  0  0  0  1 V2000
  146.5502  138.1653  153.8139 C   0  0  0  0  0  0  0  0  0  0  0  0
  147.9733  137.8052  154.1447 C   0  0  0  0  0  0  0  0  0  0  0  0
  148.1948  136.5821  154.4983 N   0  0  0  0  0  0  0  0  0  0  0  0
  149.4669  136.1409  154.8096 N   0  0  0  0  0  0  0  0  0  0  0  0
  149.5374  134.7036  155.1240 C   0  0  0  0  0  0  0  0  0  0  0  0
  148.2174  133.9405  154.9125 C   0  0  0  0  0  0  0  0  0  0  0  0
  147.4975  133.7042  155.8818 O   0  0  0  0  0  0  0  0  0  0  0  0
  147.8966  133.5780  153.6589 N   0  0  0  0  0  0  0  0  0  0  0  0
  146.6602  132.9332  153.2308 C   0  0  2  0  0  0  0  0  0  0  0  0
  146.5539  131.5306  153.8535 C   0  0  0  0  0  0  0  0  0  0  0  0
  146.6369  132.8931  151.6844 C   0  0  2  0  0  0  0  0  0  0  0  0
  146.1416  134.1914  151.0047 C   0  0  0  0  0  0  0  0  0  0  0  0
  145.1080  133.6754  149.9865 C   0  0  2  0  0  0  0  0  0  0  0  0
  143.8325  133.2529  150.7378 C   0  0  0  0  0  0  0  0  0  0  0  0
  144.2667  131.9496  151.4331 C   0  0  0  0  0  0  0  0  0  0  0  0
  145.7466  131.8151  151.0182 C   0  0  1  0  0  0  0  0  0  0  0  0
  145.6954  132.3279  149.5821 C   0  0  0  0  0  0  0  0  0  0  0  0
  150.5863  136.9206  154.7845 C   0  0  0  0  0  0  0  0  0  0  0  0
  151.7060  136.4812  155.0492 O   0  0  0  0  0  0  0  0  0  0  0  0
  150.3259  138.3084  154.3954 C   0  0  0  0  0  0  0  0  0  0  0  0
  151.4709  139.1598  154.3565 C   0  0  0  0  0  0  0  0  0  0  0  0
  152.4089  139.8379  154.3396 N   0  0  0  0  0  0  0  0  0  0  0  0
  149.0823  138.7515  154.0834 C   0  0  0  0  0  0  0  0  0  0  0  0
  148.7610  140.1791  153.6631 C   0  0  0  0  0  0  0  0  0  0  0  0
  146.1761  138.9296  154.4952 H   0  0  0  0  0  0  0  0  0  0  0  0
  145.8847  137.3039  153.8877 H   0  0  0  0  0  0  0  0  0  0  0  0
  146.4749  138.5504  152.7969 H   0  0  0  0  0  0  0  0  0  0  0  0
  150.3191  134.2145  154.5404 H   0  0  0  0  0  0  0  0  0  0  0  0
  149.8371  134.5752  156.1655 H   0  0  0  0  0  0  0  0  0  0  0  0
  148.5535  133.8105  152.9284 H   0  0  0  0  0  0  0  0  0  0  0  0
  145.8285  133.5409  153.5878 H   0  0  0  0  0  0  0  0  0  0  0  0
  145.6175  131.0458  153.5776 H   0  0  0  0  0  0  0  0  0  0  0  0
  146.5831  131.5766  154.9425 H   0  0  0  0  0  0  0  0  0  0  0  0
  147.3717  130.8878  153.5263 H   0  0  0  0  0  0  0  0  0  0  0  0
  147.6609  132.7160  151.3490 H   0  0  0  0  0  0  0  0  0  0  0  0
  145.6958  134.8990  151.7052 H   0  0  0  0  0  0  0  0  0  0  0  0
  146.9677  134.6999  150.5056 H   0  0  0  0  0  0  0  0  0  0  0  0
  144.9220  134.3660  149.1633 H   0  0  0  0  0  0  0  0  0  0  0  0
  143.4983  134.0115  151.4466 H   0  0  0  0  0  0  0  0  0  0  0  0
  143.0148  133.0620  150.0418 H   0  0  0  0  0  0  0  0  0  0  0  0
  144.1161  131.9733  152.5115 H   0  0  0  0  0  0  0  0  0  0  0  0
  143.6883  131.1089  151.0476 H   0  0  0  0  0  0  0  0  0  0  0  0
  146.1372  130.8021  151.1187 H   0  0  0  0  0  0  0  0  0  0  0  0
  145.0367  131.7447  148.9359 H   0  0  0  0  0  0  0  0  0  0  0  0
  146.6772  132.4071  149.1119 H   0  0  0  0  0  0  0  0  0  0  0  0
  149.6368  140.8262  153.6951 H   0  0  0  0  0  0  0  0  0  0  0  0
  148.0108  140.6150  154.3234 H   0  0  0  0  0  0  0  0  0  0  0  0
  148.3749  140.1982  152.6436 H   0  0  0  0  0  0  0  0  0  0  0  0
  1  2  1  0  0  0  0
  1 25  1  0  0  0  0
  1 26  1  0  0  0  0
  1 27  1  0  0  0  0
  2 23  1  0  0  0  0
  2  3  2  0  0  0  0
  3  4  1  0  0  0  0
  4  5  1  0  0  0  0
  4 18  1  0  0  0  0
  5  6  1  0  0  0  0
  5 28  1  0  0  0  0
  5 29  1  0  0  0  0
  6  7  2  0  0  0  0
  6  8  1  0  0  0  0
  8  9  1  0  0  0  0
  8 30  1  0  0  0  0
  9 10  1  0  0  0  0
  9 11  1  0  0  0  0
  9 31  1  0  0  0  0
 10 32  1  0  0  0  0
 10 33  1  0  0  0  0
 10 34  1  0  0  0  0
 11 16  1  0  0  0  0
 11 12  1  0  0  0  0
 11 35  1  0  0  0  0
 12 13  1  0  0  0  0
 12 36  1  0  0  0  0
 12 37  1  0  0  0  0
 13 17  1  0  0  0  0
 13 14  1  0  0  0  0
 13 38  1  0  0  0  0
 14 15  1  0  0  0  0
 14 39  1  0  0  0  0
 14 40  1  0  0  0  0
 15 16  1  0  0  0  0
 15 41  1  0  0  0  0
 15 42  1  0  0  0  0
 16 17  1  0  0  0  0
 16 43  1  0  0  0  0
 17 44  1  0  0  0  0
 17 45  1  0  0  0  0
 18 19  2  0  0  0  0
 18 20  1  0  0  0  0
 20 21  1  0  0  0  0
 20 23  2  0  0  0  0
 21 22  3  0  0  0  0
 23 24  1  0  0  0  0
 24 46  1  0  0  0  0
 24 47  1  0  0  0  0
 24 48  1  0  0  0  0
M  END
> <s_m_source_file>
AV-unprocessed.smi

> <i_m_source_file_index>
1401

> <i_lp_mmshare_version>
43012

> <i_f3d_flags>
0

> <s_epik_input>
TiNDYyhjMVtDSDNdKWMoPU8pbihuYzFbQ0gzXSlbQ0gyXUMoPU8pW05IXVtDQEhdKFtDSDNdKVtDQEhdKFtDSDJdW0NASF0yMylbQ0BIXShbQ0gyXTMpW0NIMl1bQ0gyXTI=

> <s_epik_cmdline>
J2VwaWtfcHl0aG9uJywgJy1waCcsICc3LjAnLCAnLXRuJywgJzgnLCAnLW1hJywgJzIwMCcsICctbWV0YWxfYmluZGluZycsICctaW1hZScsICc8aW5maWxlLm1hZT4nLCAnLW9tYWUnLCAnPG91dGZpbGUubWFlPic=

> <r_lp_tautomer_probability>
1

> <r_epik_Ionization_Penalty>
2.16501e-08

> <r_epik_Ionization_Penalty_Charging>
2.29436e-11

> <r_epik_Ionization_Penalty_Neutral>
2.16271e-08

> <r_epik_State_Penalty>
-0

> <r_epik_Charging_Adjusted_Penalty>
2.29436e-11

> <i_epik_Tot_Q>
0

> <i_epik_Tot_abs_Q>
0

> <r_epik_Metal_State_Penalty>
-0

> <b_epik_Metal_Only>
0

> <s_lp_Force_Field>
OPLS_2005

> <r_lp_Energy>
65.8104

> <b_lp_Chiralities_Consistent>
1

> <s_lp_Variant>
AV-unprocessed.smi:1401-1

> <Gold.Version>
5.8.1

> <Gold.Id.Protein>
6NUR|6NUR_protein|mol2

> <Gold.PLP.Fitness>
40.3948

> <Gold.PLP.PLP>
-36.2593

> <Gold.PLP.part.hbond>
-2.0000

> <Gold.PLP.part.metal>
0.0000

> <Gold.PLP.part.buried>
-3.8973

> <Gold.PLP.part.nonpolar>
-30.9758

> <Gold.PLP.part.repulsive>
0.5217

> <Gold.PLP.ligand.clash>
0.0000

> <Gold.PLP.ligand.torsion>
0.9034

> <Gold.PLP.Chemscore.Hbond>
1.9760

> <Gold.PLP.Chemscore.CHOScore>
0.0000

> <Gold.PLP.Chemscore.Metal>
0.0000

> <Gold.Chemscore.Hbonds>
donor molecule, donor type, donor heavy atom, donor atom, acceptor molecule, acceptor atom, score
      P1  H  7989  7998       L1    22  0.29
      P1  H 10752 10763       L1    19  1.00

> <Gold.PLP.Chemscore.Internal.Correction>
0.0143

> <Gold.Rescore>
     Score         DG    S(hbond)    S(metal)    S(lipo)     H(rot)  DE(clash)    DE(int)     intcor
     16.97     -18.30       1.98        0.00      88.73       1.63       0.12       1.21       ----

> <Gold.Chemscore.Fitness>
16.9672

> <Gold.Chemscore.DG>
-18.2981

> <Gold.Chemscore.ZeroCoef>
-5.4800

> <Gold.Chemscore.Hbond>
1.9775

> <Gold.Chemscore.Metal>
0.0000

> <Gold.Chemscore.Lipo>
88.7269

> <Gold.Chemscore.Internal_Hbond>
0.0000

> <Gold.Chemscore.DEClash>
0.1227

> <Gold.Chemscore.DEInternal>
1.2083

> <Gold.Chemscore.Rot>
1.6281

> <Gold.Chemscore.Internal.Correction>
   9.000000E+99

> <Gold.Chemscore.Hbonds>
donor molecule, donor type, donor heavy atom, donor atom, acceptor molecule, acceptor atom, score
      P1  H  7989  7998       L1    22  0.02
      P1  H 10752 10763       L1    19  0.98

> <Gold.Chemscore.Hbond.Weighted>
-6.6049

> <Gold.Chemscore.Metal.Weighted>
-0.0000

> <Gold.Chemscore.Lipo.Weighted>
-10.3810

> <Gold.Chemscore.Internal_Hbond.Weighted>
0.0000

> <Gold.Chemscore.DEClash.Weighted>
0.1227

> <Gold.Chemscore.DEInternal.Weighted>
1.2083

> <Gold.Chemscore.Rot.Weighted>
4.1678

> <Gold.Chemscore.Internal.Correction.Weighted>
   9.000000E+99

> <Gold.Protein.RotatedTorsions>
[ 6907 6896 6895 6894 ] final  170.83 input  -60.11 | X-H torsion
[ 7974 7965 7964 7962 ] final   93.44 input  175.53 | X-H torsion
[ 8008 7997 7996 7995 ] final  -12.15 input   59.86 | X-H torsion
[ 10167 10162 10161 10158 ] final    8.90 input  -65.29 | X-H torsion
[ 10718 10713 10712 10709 ] final  -71.05 input   66.30 | X-H torsion
[ 10763 10752 10751 10750 ] final   54.07 input  -60.55 | X-H torsion
[ 11005 11000 10999 10996 ] final  -76.05 input  -57.11 | X-H torsion

> <Gold.Protein.ActiveResidues>
 VAL166  LYS551  ARG553  GLY616  TRP617  ASP618  TYR619  PRO620  LYS621  CYS622 
 ASP623  PHE694  ASN695  SER759  ASP760  ASP761  ALA762  ILE779  LEU786  VAL792 
 PHE793  MET794  SER795  GLU796  ALA797  LYS798  CYS799  TRP800  GLU811  SER814 

> <Gold.Protein.RotatedAtoms>
  151.8098  133.3380  159.3551 H   0  0  0  0  0  0  0  0  0  0  0  0  # atno 6907 bound_to 6896
  150.7330  134.5674  159.5882 H   0  0  0  0  0  0  0  0  0  0  0  0  # atno 6908 bound_to 6896
  152.3083  134.7529  160.0393 H   0  0  0  0  0  0  0  0  0  0  0  0  # atno 6909 bound_to 6896
  145.4789  139.2279  143.2893 H   0  0  0  0  0  0  0  0  0  0  0  0  # atno 7974 bound_to 7965
  154.5403  140.2284  155.8653 H   0  0  0  0  0  0  0  0  0  0  0  0  # atno 8008 bound_to 7997
  156.1851  140.3091  155.9186 H   0  0  0  0  0  0  0  0  0  0  0  0  # atno 8009 bound_to 7997
  155.3272  140.0443  157.3032 H   0  0  0  0  0  0  0  0  0  0  0  0  # atno 8010 bound_to 7997
  140.6287  143.8043  150.7266 H   0  0  0  0  0  0  0  0  0  0  0  0  # atno 10167 bound_to 10162
  156.0380  130.4343  150.2386 H   0  0  0  0  0  0  0  0  0  0  0  0  # atno 10718 bound_to 10713
  152.9801  135.5757  154.4844 H   0  0  0  0  0  0  0  0  0  0  0  0  # atno 10763 bound_to 10752
  154.4388  135.2775  155.1864 H   0  0  0  0  0  0  0  0  0  0  0  0  # atno 10764 bound_to 10752
  154.3541  135.6203  153.5711 H   0  0  0  0  0  0  0  0  0  0  0  0  # atno 10765 bound_to 10752
  141.1651  133.6969  156.7610 H   0  0  0  0  0  0  0  0  0  0  0  0  # atno 11005 bound_to 11000
  146.2352  140.5574  142.8958 LP  0  0  0  0  0  0  0  0  0  0  0  0  # atno 17320 bound_to 7965
  144.7900  140.6013  143.6548 LP  0  0  0  0  0  0  0  0  0  0  0  0  # atno 17321 bound_to 7965
  140.1649  143.4243  152.2041 LP  0  0  0  0  0  0  0  0  0  0  0  0  # atno 17342 bound_to 10162
  139.5504  144.7332  151.4454 LP  0  0  0  0  0  0  0  0  0  0  0  0  # atno 17343 bound_to 10162
  157.0483  131.0055  151.3261 LP  0  0  0  0  0  0  0  0  0  0  0  0  # atno 17370 bound_to 10713
  157.5159  130.7967  149.7755 LP  0  0  0  0  0  0  0  0  0  0  0  0  # atno 17371 bound_to 10713
  140.2534  134.8523  157.3689 LP  0  0  0  0  0  0  0  0  0  0  0  0  # atno 17394 bound_to 11000
  140.1681  134.4644  155.7850 LP  0  0  0  0  0  0  0  0  0  0  0  0  # atno 17395 bound_to 11000

$$$$
