#       Name:                AV-unprocessed.smi:1224
#       Creating user name   scv26
#       Creation time:       Fri Mar 27 04:18:46 2020


#       File generated by GOLD software.
#

@<TRIPOS>MOLECULE
AV-unprocessed.smi:1224
    47    49     1
SMALL
NO_CHARGES


@<TRIPOS>ATOM
      1 ****        -2.4367   5.1657  -3.1583 C.3            1 S1                 0.0000
      2 ****        -2.1699   4.0161  -2.2027 C.ar           1 S1                 0.0000
      3 ****        -2.4524   4.1852  -0.8285 C.ar           1 S1                 0.0000
      4 ****        -2.2223   3.1395   0.0921 C.ar           1 S1                 0.0000
      5 ****        -2.4248   3.0848   1.4605 N.2            1 S1                 0.0000
      6 ****        -2.0237   1.8486   1.7421 C.2            1 S1                 0.0000
      7 ****        -1.5825   1.0951   0.7163 N.pl3          1 S1                 0.0000
      8 ****        -1.0967  -0.2717   0.7733 C.3            1 S1                 0.0000
      9 ****         0.4415  -0.3494   0.7376 C.3            1 S1                 0.0000
     10 ****         0.9699   0.3130   1.8710 O.3            1 S1                 0.0000
     11 ****         0.9452  -1.8013   0.7278 C.3            1 S1                 0.0000
     12 ****         2.4031  -1.8602   0.4876 N.4            1 S1                 1.0000
     13 ****         2.9620  -3.2226   0.3635 C.3            1 S1                 0.0000
     14 ****         2.8725  -4.0002   1.6366 C.2            1 S1                 0.0000
     15 ****         1.9782  -4.9912   1.9537 C.2            1 S1                 0.0000
     16 ****         2.1700  -5.5214   3.2629 C.2            1 S1                 0.0000
     17 ****         3.2091  -4.9279   3.9284 C.2            1 S1                 0.0000
     18 ****         3.9744  -3.7007   2.9569 S.3            1 S1                 0.0000
     19 ****        -1.6970   1.9107  -0.4039 C.ar           1 S1                 0.0000
     20 ****        -1.4105   1.7306  -1.7685 C.ar           1 S1                 0.0000
     21 ****        -1.6471   2.7853  -2.6747 C.ar           1 S1                 0.0000
     22 ****        -1.3369   2.5808  -4.1471 C.3            1 S1                 0.0000
     23 ****        -2.8073   6.0450  -2.6308 H              1 S1                 0.0000
     24 ****        -3.1842   4.8794  -3.8985 H              1 S1                 0.0000
     25 ****        -1.5229   5.4505  -3.6800 H              1 S1                 0.0000
     26 ****        -2.8511   5.1224  -0.4689 H              1 S1                 0.0000
     27 ****        -2.0495   1.4696   2.7533 H              1 S1                 0.0000
     28 ****        -1.4857  -0.7458   1.6759 H              1 S1                 0.0000
     29 ****        -1.5218  -0.8152  -0.0713 H              1 S1                 0.0000
     30 ****         0.8024   0.1619  -0.1562 H              1 S1                 0.0000
     31 ****         0.5960  -0.0711   2.6498 H              1 S1                 0.0000
     32 ****         0.6945  -2.2947   1.6678 H              1 S1                 0.0000
     33 ****         0.4451  -2.3563  -0.0673 H              1 S1                 0.0000
     34 ****         2.5973  -1.3630  -0.3698 H              1 S1                 0.0000
     35 ****         2.4529  -3.7522  -0.4427 H              1 S1                 0.0000
     36 ****         4.0068  -3.1355   0.0640 H              1 S1                 0.0000
     37 ****         1.1987  -5.3509   1.2983 H              1 S1                 0.0000
     38 ****         1.5486  -6.3082   3.6648 H              1 S1                 0.0000
     39 ****         3.5707  -5.1363   4.9247 H              1 S1                 0.0000
     40 ****        -1.0132   0.7880  -2.1147 H              1 S1                 0.0000
     41 ****        -0.9627   1.5748  -4.3387 H              1 S1                 0.0000
     42 ****        -0.5778   3.2893  -4.4792 H              1 S1                 0.0000
     43 ****        -2.2333   2.7247  -4.7506 H              1 S1                 0.0000
     44 ****         2.8730  -1.3847   1.2449 H              1 S1                 0.0000
     45 ****        -2.7794   3.7893   2.0752 LP             1 S1                 0.0000
     46 ****         0.7379   1.2849   1.8308 LP             1 S1                 0.0000
     47 ****         1.9642   0.2081   1.8885 LP             1 S1                 0.0000
@<TRIPOS>BOND
    1    1    2 1     
    2    1   23 1     
    3    1   24 1     
    4    1   25 1     
    5    2   21 ar    
    6    2    3 ar    
    7    3    4 ar    
    8    3   26 1     
    9    4   19 ar    
   10    4    5 1     
   11    5    6 2     
   12    6    7 1     
   13    6   27 1     
   14    7    8 1     
   15    7   19 1     
   16    8    9 1     
   17    8   28 1     
   18    8   29 1     
   19    9   10 1     
   20    9   11 1     
   21    9   30 1     
   22   10   31 1     
   23   11   12 1     
   24   11   32 1     
   25   11   33 1     
   26   12   13 1     
   27   12   34 1     
   28   12   44 1     
   29   13   14 1     
   30   13   35 1     
   31   13   36 1     
   32   14   18 1     
   33   14   15 2     
   34   15   16 1     
   35   15   37 1     
   36   16   17 2     
   37   16   38 1     
   38   17   18 1     
   39   17   39 1     
   40   19   20 ar    
   41   20   21 ar    
   42   20   40 1     
   43   21   22 1     
   44   22   41 1     
   45   22   42 1     
   46   22   43 1     
   47    5   45 1     
   48   10   46 1     
   49   10   47 1     
@<TRIPOS>SUBSTRUCTURE
      1 S1             1
@<TRIPOS>SET
LONE_PAIRS      STATIC     ATOMS    <user>   **** ""
3 45 46 47
DONOR_HYDROGENS      STATIC     ATOMS    <user>   **** ""
3 31 34 44
ATOM$BLUE        STATIC     ATOMS    COLORGROUP SYSTEM
3 45 46 47
ATOM$RED        STATIC     ATOMS    COLORGROUP SYSTEM
3 31 34 44
