AV-unprocessed.smi:3056|AV-procd|sdf|11659|dock4
  -GOLD-   2272017 63D 1   1.00000     0.00000
 Structure written by MMmdl.
 47 48  0  0  0  0  0  0  0  0  1 V2000
  144.2190  132.4986  149.4492 C   0  0  0  0  0  0  0  0  0  0  0  0
  145.3596  132.8459  150.3618 C   0  0  0  0  0  0  0  0  0  0  0  0
  145.9676  134.1180  150.5594 C   0  0  0  0  0  0  0  0  0  0  0  0
  146.9620  134.0825  151.4305 N   0  0  0  0  0  0  0  0  0  0  0  0
  147.0226  132.7906  151.8263 N   0  0  0  0  0  0  0  0  0  0  0  0
  148.0395  132.3551  152.7769 C   0  0  2  0  0  0  0  0  0  0  0  0
  147.9540  130.8283  152.9714 C   0  0  0  0  0  0  0  0  0  0  0  0
  147.9600  133.1487  154.1131 C   0  0  1  0  0  0  0  0  0  0  0  0
  148.3871  132.3094  155.3303 C   0  0  0  0  0  0  0  0  0  0  0  0
  148.8707  134.2959  154.0763 N   0  0  0  0  0  0  0  0  0  0  0  0
  148.9857  135.0449  155.3423 C   0  0  0  0  0  0  0  0  0  0  0  0
  150.3695  135.6632  155.6265 C   0  0  0  0  0  0  0  0  0  0  0  0
  151.3661  134.9386  155.6031 O   0  0  0  0  0  0  0  0  0  0  0  0
  150.4546  136.9920  155.8784 N   0  0  0  0  0  0  0  0  0  0  0  0
  151.7258  137.6819  156.1150 C   0  0  0  0  0  0  0  0  0  0  0  0
  151.9597  138.6720  154.9609 C   0  0  0  0  0  0  0  0  0  0  0  0
  150.8674  139.5854  154.8865 O   0  0  0  0  0  0  0  0  0  0  0  0
  149.6077  138.9466  154.6847 C   0  0  2  0  0  0  0  0  0  0  0  0
  148.5284  140.0315  154.6008 C   0  0  0  0  0  0  0  0  0  0  0  0
  149.3498  137.9562  155.8383 C   0  0  0  0  0  0  0  0  0  0  0  0
  146.0642  132.0247  151.1956 C   0  0  0  0  0  0  0  0  0  0  0  0
  143.9293  133.3418  148.8221 H   0  0  0  0  0  0  0  0  0  0  0  0
  143.3341  132.1960  150.0092 H   0  0  0  0  0  0  0  0  0  0  0  0
  144.4754  131.6758  148.7815 H   0  0  0  0  0  0  0  0  0  0  0  0
  145.7204  135.0606  150.0936 H   0  0  0  0  0  0  0  0  0  0  0  0
  149.0080  132.5620  152.3182 H   0  0  0  0  0  0  0  0  0  0  0  0
  148.8181  130.4431  153.5122 H   0  0  0  0  0  0  0  0  0  0  0  0
  147.9267  130.3133  152.0106 H   0  0  0  0  0  0  0  0  0  0  0  0
  147.0594  130.5439  153.5263 H   0  0  0  0  0  0  0  0  0  0  0  0
  146.9315  133.4714  154.2805 H   0  0  0  0  0  0  0  0  0  0  0  0
  147.6937  131.4892  155.5152 H   0  0  0  0  0  0  0  0  0  0  0  0
  148.4069  132.9129  156.2387 H   0  0  0  0  0  0  0  0  0  0  0  0
  149.3818  131.8835  155.1938 H   0  0  0  0  0  0  0  0  0  0  0  0
  148.6230  134.8957  153.3029 H   0  0  0  0  0  0  0  0  0  0  0  0
  148.2588  135.8571  155.3197 H   0  0  0  0  0  0  0  0  0  0  0  0
  148.7005  134.3912  156.1640 H   0  0  0  0  0  0  0  0  0  0  0  0
  151.6779  138.2154  157.0654 H   0  0  0  0  0  0  0  0  0  0  0  0
  152.5740  137.0007  156.1942 H   0  0  0  0  0  0  0  0  0  0  0  0
  152.8795  139.2336  155.1241 H   0  0  0  0  0  0  0  0  0  0  0  0
  152.0709  138.1445  154.0121 H   0  0  0  0  0  0  0  0  0  0  0  0
  149.6322  138.4058  153.7369 H   0  0  0  0  0  0  0  0  0  0  0  0
  147.5436  139.5938  154.4364 H   0  0  0  0  0  0  0  0  0  0  0  0
  148.7285  140.7170  153.7772 H   0  0  0  0  0  0  0  0  0  0  0  0
  148.4856  140.6174  155.5194 H   0  0  0  0  0  0  0  0  0  0  0  0
  148.3703  137.5006  155.7077 H   0  0  0  0  0  0  0  0  0  0  0  0
  149.3059  138.4872  156.7907 H   0  0  0  0  0  0  0  0  0  0  0  0
  145.9693  130.9654  151.3839 H   0  0  0  0  0  0  0  0  0  0  0  0
  1  2  1  0  0  0  0
  1 22  1  0  0  0  0
  1 23  1  0  0  0  0
  1 24  1  0  0  0  0
  2 21  2  0  0  0  0
  2  3  1  0  0  0  0
  3  4  2  0  0  0  0
  3 25  1  0  0  0  0
  4  5  1  0  0  0  0
  5  6  1  0  0  0  0
  5 21  1  0  0  0  0
  6  7  1  0  0  0  0
  6  8  1  0  0  0  0
  6 26  1  0  0  0  0
  7 27  1  0  0  0  0
  7 28  1  0  0  0  0
  7 29  1  0  0  0  0
  8  9  1  0  0  0  0
  8 10  1  0  0  0  0
  8 30  1  0  0  0  0
  9 31  1  0  0  0  0
  9 32  1  0  0  0  0
  9 33  1  0  0  0  0
 10 11  1  0  0  0  0
 10 34  1  0  0  0  0
 11 12  1  0  0  0  0
 11 35  1  0  0  0  0
 11 36  1  0  0  0  0
 12 13  2  0  0  0  0
 12 14  1  0  0  0  0
 14 20  1  0  0  0  0
 14 15  1  0  0  0  0
 15 16  1  0  0  0  0
 15 37  1  0  0  0  0
 15 38  1  0  0  0  0
 16 17  1  0  0  0  0
 16 39  1  0  0  0  0
 16 40  1  0  0  0  0
 17 18  1  0  0  0  0
 18 19  1  0  0  0  0
 18 20  1  0  0  0  0
 18 41  1  0  0  0  0
 19 42  1  0  0  0  0
 19 43  1  0  0  0  0
 19 44  1  0  0  0  0
 20 45  1  0  0  0  0
 20 46  1  0  0  0  0
 21 47  1  0  0  0  0
M  END
> <s_m_source_file>
AV-unprocessed.smi

> <i_m_source_file_index>
3056

> <i_lp_mmshare_version>
43012

> <i_f3d_flags>
0

> <s_epik_input>
W0NIM11jMVtjSF1ubihbY0hdMSlbQ0BIXShbQ0gzXSlbQ0BIXShbQ0gzXSlbTkhdW0NIMl1DKD1PKU4yW0NIMl1bQ0gyXU9bQ0BASF0oW0NIM10pW0NIMl0y

> <s_epik_cmdline>
J2VwaWtfcHl0aG9uJywgJy1waCcsICc3LjAnLCAnLXRuJywgJzgnLCAnLW1hJywgJzIwMCcsICctbWV0YWxfYmluZGluZycsICctaW1hZScsICc8aW5maWxlLm1hZT4nLCAnLW9tYWUnLCAnPG91dGZpbGUubWFlPic=

> <r_lp_tautomer_probability>
1

> <r_epik_Ionization_Penalty>
0.667689

> <r_epik_Ionization_Penalty_Charging>
0

> <r_epik_Ionization_Penalty_Neutral>
0.667689

> <r_epik_State_Penalty>
0.684601

> <r_epik_Charging_Adjusted_Penalty>
0.684601

> <i_epik_Tot_Q>
0

> <i_epik_Tot_abs_Q>
0

> <r_epik_Metal_State_Penalty>
0.681448

> <b_epik_Metal_Only>
0

> <s_lp_Force_Field>
OPLS_2005

> <r_lp_Energy>
30.5855

> <b_lp_Chiralities_Consistent>
1

> <s_lp_Variant>
AV-unprocessed.smi:3056-15

> <Gold.Version>
5.8.1

> <Gold.Id.Protein>
6NUR|6NUR_protein|mol2

> <Gold.PLP.Fitness>
42.6235

> <Gold.PLP.PLP>
-33.9712

> <Gold.PLP.part.hbond>
-3.0000

> <Gold.PLP.part.metal>
0.0000

> <Gold.PLP.part.buried>
-2.8102

> <Gold.PLP.part.nonpolar>
-28.5622

> <Gold.PLP.part.repulsive>
1.0032

> <Gold.PLP.ligand.clash>
0.0000

> <Gold.PLP.ligand.torsion>
1.2469

> <Gold.PLP.Chemscore.Hbond>
2.9600

> <Gold.PLP.Chemscore.CHOScore>
0.6968

> <Gold.PLP.Chemscore.Metal>
0.0000

> <Gold.Chemscore.Hbonds>
donor molecule, donor type, donor heavy atom, donor atom, acceptor molecule, acceptor atom, score
      L1  H    10    34       P1  7948  1.00
      P1  H  7989  7998       L1    17  0.88
      P1  H 10752 10763       L1    13  0.88
      L1  C     3    25       P1  7921  0.55

> <Gold.PLP.Chemscore.Internal.Correction>
0.1755

> <Gold.Rescore>
     Score         DG    S(hbond)    S(metal)    S(lipo)     H(rot)  DE(clash)    DE(int)     intcor
     17.54     -19.40       2.42        0.00      86.77       1.68       0.13       1.74       ----

> <Gold.Chemscore.Fitness>
17.5358

> <Gold.Chemscore.DG>
-19.4032

> <Gold.Chemscore.ZeroCoef>
-5.4800

> <Gold.Chemscore.Hbond>
2.4161

> <Gold.Chemscore.Metal>
0.0000

> <Gold.Chemscore.Lipo>
86.7732

> <Gold.Chemscore.Internal_Hbond>
0.0000

> <Gold.Chemscore.DEClash>
0.1290

> <Gold.Chemscore.DEInternal>
1.7384

> <Gold.Chemscore.Rot>
1.6793

> <Gold.Chemscore.Internal.Correction>
   9.000000E+99

> <Gold.Chemscore.Hbonds>
donor molecule, donor type, donor heavy atom, donor atom, acceptor molecule, acceptor atom, score
      L1  H    10    34       P1  7948  0.58
      P1  H  7989  7998       L1    17  0.16
      P1  H 10752 10763       L1    13  0.86

> <Gold.Chemscore.Hbond.Weighted>
-8.0698

> <Gold.Chemscore.Metal.Weighted>
-0.0000

> <Gold.Chemscore.Lipo.Weighted>
-10.1525

> <Gold.Chemscore.Internal_Hbond.Weighted>
0.0000

> <Gold.Chemscore.DEClash.Weighted>
0.1290

> <Gold.Chemscore.DEInternal.Weighted>
1.7384

> <Gold.Chemscore.Rot.Weighted>
4.2990

> <Gold.Chemscore.Internal.Correction.Weighted>
   9.000000E+99

> <Gold.Protein.RotatedTorsions>
[ 6907 6896 6895 6894 ] final  -89.22 input  -60.11 | X-H torsion
[ 7974 7965 7964 7962 ] final   11.78 input  175.53 | X-H torsion
[ 8008 7997 7996 7995 ] final  -69.82 input   59.86 | X-H torsion
[ 10167 10162 10161 10158 ] final  -33.17 input  -65.29 | X-H torsion
[ 10718 10713 10712 10709 ] final   72.39 input   66.30 | X-H torsion
[ 10763 10752 10751 10750 ] final   76.69 input  -60.55 | X-H torsion
[ 11005 11000 10999 10996 ] final  -78.36 input  -57.11 | X-H torsion

> <Gold.Protein.ActiveResidues>
 VAL166  LYS551  ARG553  GLY616  TRP617  ASP618  TYR619  PRO620  LYS621  CYS622 
 ASP623  PHE694  ASN695  SER759  ASP760  ASP761  ALA762  ILE779  LEU786  VAL792 
 PHE793  MET794  SER795  GLU796  ALA797  LYS798  CYS799  TRP800  GLU811  SER814 

> <Gold.Protein.RotatedAtoms>
  150.6872  134.2620  159.4552 H   0  0  0  0  0  0  0  0  0  0  0  0  # atno 6907 bound_to 6896
  152.0549  134.9628  160.0584 H   0  0  0  0  0  0  0  0  0  0  0  0  # atno 6908 bound_to 6896
  152.1078  133.4249  159.4653 H   0  0  0  0  0  0  0  0  0  0  0  0  # atno 6909 bound_to 6896
  146.2364  139.9434  142.8480 H   0  0  0  0  0  0  0  0  0  0  0  0  # atno 7974 bound_to 7965
  154.4966  140.0846  156.7710 H   0  0  0  0  0  0  0  0  0  0  0  0  # atno 8008 bound_to 7997
  155.4102  140.3441  155.4245 H   0  0  0  0  0  0  0  0  0  0  0  0  # atno 8009 bound_to 7997
  156.1402  140.1527  156.8920 H   0  0  0  0  0  0  0  0  0  0  0  0  # atno 8010 bound_to 7997
  140.7209  143.3640  151.1906 H   0  0  0  0  0  0  0  0  0  0  0  0  # atno 10167 bound_to 10162
  157.6498  130.9576  150.0922 H   0  0  0  0  0  0  0  0  0  0  0  0  # atno 10718 bound_to 10713
  153.0743  135.4942  154.8372 H   0  0  0  0  0  0  0  0  0  0  0  0  # atno 10763 bound_to 10752
  154.7066  135.3012  154.9263 H   0  0  0  0  0  0  0  0  0  0  0  0  # atno 10764 bound_to 10752
  153.9970  135.6771  153.4810 H   0  0  0  0  0  0  0  0  0  0  0  0  # atno 10765 bound_to 10752
  141.1664  133.7060  156.7961 H   0  0  0  0  0  0  0  0  0  0  0  0  # atno 11005 bound_to 11000
  145.1930  140.9820  143.4199 LP  0  0  0  0  0  0  0  0  0  0  0  0  # atno 17320 bound_to 7965
  144.9840  139.3755  143.6248 LP  0  0  0  0  0  0  0  0  0  0  0  0  # atno 17321 bound_to 7965
  139.7198  143.9241  152.2981 LP  0  0  0  0  0  0  0  0  0  0  0  0  # atno 17342 bound_to 10162
  139.8994  144.6920  150.8681 LP  0  0  0  0  0  0  0  0  0  0  0  0  # atno 17343 bound_to 10162
  156.1868  130.3652  149.8962 LP  0  0  0  0  0  0  0  0  0  0  0  0  # atno 17370 bound_to 10713
  156.6901  130.8892  151.3587 LP  0  0  0  0  0  0  0  0  0  0  0  0  # atno 17371 bound_to 10713
  140.2290  134.8700  157.3457 LP  0  0  0  0  0  0  0  0  0  0  0  0  # atno 17394 bound_to 11000
  140.1910  134.4372  155.7716 LP  0  0  0  0  0  0  0  0  0  0  0  0  # atno 17395 bound_to 11000

$$$$
