AV-unprocessed.smi:2115|AV-procd|sdf|8624|dock10
  -GOLD-   2272011373D 1   1.00000     0.00000
 Structure written by MMmdl.
 37 38  0  0  0  0  0  0  0  0  1 V2000
  139.3790  145.6733  160.2048 C   0  0  0  0  0  0  0  0  0  0  0  0
  140.1474  145.7932  161.3891 O   0  0  0  0  0  0  0  0  0  0  0  0
  141.5422  145.7444  161.1388 C   0  0  0  0  0  0  0  0  0  0  0  0
  141.9634  144.2887  160.9167 C   0  0  0  0  0  0  0  0  0  0  0  0
  143.0987  144.0084  161.7303 O   0  0  0  0  0  0  0  0  0  0  0  0
  144.3524  144.3095  161.2386 C   0  0  0  0  0  0  0  0  0  0  0  0
  145.4751  144.0366  162.0448 C   0  0  0  0  0  0  0  0  0  0  0  0
  146.7568  144.3359  161.5461 C   0  0  0  0  0  0  0  0  0  0  0  0
  146.8811  144.8880  160.2554 C   0  0  0  0  0  0  0  0  0  0  0  0
  148.1853  145.1944  159.7821 N   0  0  0  0  0  0  0  0  0  0  0  0
  149.3667  144.9924  160.3940 C   0  0  0  0  0  0  0  0  0  0  0  0
  149.4986  144.4935  161.5119 O   0  0  0  0  0  0  0  0  0  0  0  0
  150.6060  145.4391  159.6095 C   0  0  1  0  0  0  0  0  0  0  0  0
  151.9269  145.2859  160.3872 C   0  0  0  0  0  0  0  0  0  0  0  0
  152.6440  144.1632  159.6632 C   0  0  0  0  0  0  0  0  0  0  0  0
  152.1021  144.3066  158.2486 C   0  0  0  0  0  0  0  0  0  0  0  0
  150.7309  144.6011  158.4619 O   0  0  0  0  0  0  0  0  0  0  0  0
  145.6917  145.1406  159.5294 C   0  0  0  0  0  0  0  0  0  0  0  0
  144.4595  144.8573  160.0029 N   0  0  0  0  0  0  0  0  0  0  0  0
  138.3180  145.7159  160.4503 H   0  0  0  0  0  0  0  0  0  0  0  0
  139.5712  144.7231  159.7051 H   0  0  0  0  0  0  0  0  0  0  0  0
  139.5963  146.4853  159.5095 H   0  0  0  0  0  0  0  0  0  0  0  0
  141.8076  146.3550  160.2741 H   0  0  0  0  0  0  0  0  0  0  0  0
  142.0746  146.1482  162.0012 H   0  0  0  0  0  0  0  0  0  0  0  0
  141.1404  143.6323  161.2042 H   0  0  0  0  0  0  0  0  0  0  0  0
  142.1783  144.1151  159.8609 H   0  0  0  0  0  0  0  0  0  0  0  0
  145.3548  143.6054  163.0278 H   0  0  0  0  0  0  0  0  0  0  0  0
  147.6320  144.1369  162.1476 H   0  0  0  0  0  0  0  0  0  0  0  0
  148.2238  145.6848  158.9003 H   0  0  0  0  0  0  0  0  0  0  0  0
  150.4938  146.4739  159.2806 H   0  0  0  0  0  0  0  0  0  0  0  0
  152.5053  146.2078  160.3118 H   0  0  0  0  0  0  0  0  0  0  0  0
  151.7984  145.0701  161.4490 H   0  0  0  0  0  0  0  0  0  0  0  0
  153.7301  144.2428  159.7158 H   0  0  0  0  0  0  0  0  0  0  0  0
  152.3483  143.1994  160.0798 H   0  0  0  0  0  0  0  0  0  0  0  0
  152.5797  145.1389  157.7295 H   0  0  0  0  0  0  0  0  0  0  0  0
  152.2322  143.4039  157.6516 H   0  0  0  0  0  0  0  0  0  0  0  0
  145.7048  145.5995  158.5531 H   0  0  0  0  0  0  0  0  0  0  0  0
  1  2  1  0  0  0  0
  1 20  1  0  0  0  0
  1 21  1  0  0  0  0
  1 22  1  0  0  0  0
  2  3  1  0  0  0  0
  3  4  1  0  0  0  0
  3 23  1  0  0  0  0
  3 24  1  0  0  0  0
  4  5  1  0  0  0  0
  4 25  1  0  0  0  0
  4 26  1  0  0  0  0
  5  6  1  0  0  0  0
  6 19  1  0  0  0  0
  6  7  2  0  0  0  0
  7  8  1  0  0  0  0
  7 27  1  0  0  0  0
  8  9  2  0  0  0  0
  8 28  1  0  0  0  0
  9 10  1  0  0  0  0
  9 18  1  0  0  0  0
 10 11  1  0  0  0  0
 10 29  1  0  0  0  0
 11 12  2  0  0  0  0
 11 13  1  0  0  0  0
 13 17  1  0  0  0  0
 13 14  1  0  0  0  0
 13 30  1  0  0  0  0
 14 15  1  0  0  0  0
 14 31  1  0  0  0  0
 14 32  1  0  0  0  0
 15 16  1  0  0  0  0
 15 33  1  0  0  0  0
 15 34  1  0  0  0  0
 16 17  1  0  0  0  0
 16 35  1  0  0  0  0
 16 36  1  0  0  0  0
 18 19  2  0  0  0  0
 18 37  1  0  0  0  0
M  END
> <s_m_source_file>
AV-unprocessed.smi

> <i_m_source_file_index>
2115

> <i_lp_mmshare_version>
43012

> <i_f3d_flags>
0

> <s_epik_input>
W0NIM11PW0NIMl1bQ0gyXU9jMVtjSF1bY0hdYyhbY0hdbjEpW05IXUMoPU8pW0NAQEhdMltDSDJdW0NIMl1bQ0gyXU8y

> <s_epik_cmdline>
J2VwaWtfcHl0aG9uJywgJy1waCcsICc3LjAnLCAnLXRuJywgJzgnLCAnLW1hJywgJzIwMCcsICctbWV0YWxfYmluZGluZycsICctaW1hZScsICc8aW5maWxlLm1hZT4nLCAnLW9tYWUnLCAnPG91dGZpbGUubWFlPic=

> <r_lp_tautomer_probability>
1

> <r_epik_Ionization_Penalty>
1.60185e-05

> <r_epik_Ionization_Penalty_Charging>
0

> <r_epik_Ionization_Penalty_Neutral>
1.60185e-05

> <r_epik_State_Penalty>
-0

> <r_epik_Charging_Adjusted_Penalty>
0

> <i_epik_Tot_Q>
0

> <i_epik_Tot_abs_Q>
0

> <r_epik_Metal_State_Penalty>
-0

> <b_epik_Metal_Only>
0

> <s_lp_Force_Field>
OPLS_2005

> <r_lp_Energy>
23.9239

> <b_lp_Chiralities_Consistent>
1

> <s_lp_Variant>
AV-unprocessed.smi:2115-2

> <Gold.Version>
5.8.1

> <Gold.Id.Protein>
6NUR|6NUR_protein|mol2

> <Gold.PLP.Fitness>
44.8037

> <Gold.PLP.PLP>
-39.7342

> <Gold.PLP.part.hbond>
-2.9154

> <Gold.PLP.part.metal>
0.0000

> <Gold.PLP.part.buried>
-7.8478

> <Gold.PLP.part.nonpolar>
-30.4260

> <Gold.PLP.part.repulsive>
0.7801

> <Gold.PLP.ligand.clash>
0.1273

> <Gold.PLP.ligand.torsion>
0.6333

> <Gold.PLP.Chemscore.Hbond>
1.3200

> <Gold.PLP.Chemscore.CHOScore>
0.7977

> <Gold.PLP.Chemscore.Metal>
0.0000

> <Gold.Chemscore.Hbonds>
donor molecule, donor type, donor heavy atom, donor atom, acceptor molecule, acceptor atom, score
      L1  H    10    29       P1  8029  1.00
      P1  H  6933  6944       L1    12  0.10
      L1  C    18    37       P1  8029  0.86

> <Gold.PLP.Chemscore.Internal.Correction>
0.1104

> <Gold.Rescore>
     Score         DG    S(hbond)    S(metal)    S(lipo)     H(rot)  DE(clash)    DE(int)     intcor
     12.07     -14.71       1.28        0.00      82.72       1.84       0.33       2.30       ----

> <Gold.Chemscore.Fitness>
12.0736

> <Gold.Chemscore.DG>
-14.7097

> <Gold.Chemscore.ZeroCoef>
-5.4800

> <Gold.Chemscore.Hbond>
1.2759

> <Gold.Chemscore.Metal>
0.0000

> <Gold.Chemscore.Lipo>
82.7200

> <Gold.Chemscore.Internal_Hbond>
0.0000

> <Gold.Chemscore.DEClash>
0.3348

> <Gold.Chemscore.DEInternal>
2.3013

> <Gold.Chemscore.Rot>
1.8398

> <Gold.Chemscore.Internal.Correction>
   9.000000E+99

> <Gold.Chemscore.Hbonds>
donor molecule, donor type, donor heavy atom, donor atom, acceptor molecule, acceptor atom, score
      L1  H    10    29       P1  8029  0.99
      P1  H  6933  6944       L1    12  0.07

> <Gold.Chemscore.Hbond.Weighted>
-4.2614

> <Gold.Chemscore.Metal.Weighted>
-0.0000

> <Gold.Chemscore.Lipo.Weighted>
-9.6782

> <Gold.Chemscore.Internal_Hbond.Weighted>
0.0000

> <Gold.Chemscore.DEClash.Weighted>
0.3348

> <Gold.Chemscore.DEInternal.Weighted>
2.3013

> <Gold.Chemscore.Rot.Weighted>
4.7099

> <Gold.Chemscore.Internal.Correction.Weighted>
   9.000000E+99

> <Gold.Protein.RotatedTorsions>
[ 6907 6896 6895 6894 ] final -110.85 input  -60.11 | X-H torsion
[ 7974 7965 7964 7962 ] final -155.61 input  175.53 | X-H torsion
[ 8008 7997 7996 7995 ] final  144.45 input   59.86 | X-H torsion
[ 10167 10162 10161 10158 ] final   72.41 input  -65.29 | X-H torsion
[ 10718 10713 10712 10709 ] final -145.13 input   66.30 | X-H torsion
[ 10763 10752 10751 10750 ] final  -33.50 input  -60.55 | X-H torsion
[ 11005 11000 10999 10996 ] final  -11.86 input  -57.11 | X-H torsion

> <Gold.Protein.ActiveResidues>
 VAL166  LYS551  ARG553  GLY616  TRP617  ASP618  TYR619  PRO620  LYS621  CYS622 
 ASP623  PHE694  ASN695  SER759  ASP760  ASP761  ALA762  ILE779  LEU786  VAL792 
 PHE793  MET794  SER795  GLU796  ALA797  LYS798  CYS799  TRP800  GLU811  SER814 

> <Gold.Protein.RotatedAtoms>
  150.7652  133.9321  159.3429 H   0  0  0  0  0  0  0  0  0  0  0  0  # atno 6907 bound_to 6896
  151.7221  135.0890  160.0295 H   0  0  0  0  0  0  0  0  0  0  0  0  # atno 6908 bound_to 6896
  152.3643  133.6299  159.6074 H   0  0  0  0  0  0  0  0  0  0  0  0  # atno 6909 bound_to 6896
  144.7632  140.4225  143.5961 H   0  0  0  0  0  0  0  0  0  0  0  0  # atno 7974 bound_to 7965
  156.2907  140.2235  156.5056 H   0  0  0  0  0  0  0  0  0  0  0  0  # atno 8008 bound_to 7997
  154.7653  140.0470  157.1028 H   0  0  0  0  0  0  0  0  0  0  0  0  # atno 8009 bound_to 7997
  154.9941  140.3093  155.4897 H   0  0  0  0  0  0  0  0  0  0  0  0  # atno 8010 bound_to 7997
  140.0355  144.5431  150.7474 H   0  0  0  0  0  0  0  0  0  0  0  0  # atno 10167 bound_to 10162
  156.3786  130.7825  151.2015 H   0  0  0  0  0  0  0  0  0  0  0  0  # atno 10718 bound_to 10713
  153.8313  135.6866  153.4814 H   0  0  0  0  0  0  0  0  0  0  0  0  # atno 10763 bound_to 10752
  153.1509  135.4618  154.9633 H   0  0  0  0  0  0  0  0  0  0  0  0  # atno 10764 bound_to 10752
  154.7885  135.3293  154.7776 H   0  0  0  0  0  0  0  0  0  0  0  0  # atno 10765 bound_to 10752
  140.7596  133.8525  155.9114 H   0  0  0  0  0  0  0  0  0  0  0  0  # atno 11005 bound_to 11000
  145.6553  139.1572  143.2839 LP  0  0  0  0  0  0  0  0  0  0  0  0  # atno 17320 bound_to 7965
  146.1715  140.6638  142.9231 LP  0  0  0  0  0  0  0  0  0  0  0  0  # atno 17321 bound_to 7965
  140.7283  143.2660  151.4042 LP  0  0  0  0  0  0  0  0  0  0  0  0  # atno 17342 bound_to 10162
  139.6048  144.1221  152.2237 LP  0  0  0  0  0  0  0  0  0  0  0  0  # atno 17343 bound_to 10162
  157.7490  131.0351  150.4347 LP  0  0  0  0  0  0  0  0  0  0  0  0  # atno 17370 bound_to 10713
  156.4586  130.4027  149.6590 LP  0  0  0  0  0  0  0  0  0  0  0  0  # atno 17371 bound_to 10713
  140.9675  134.1575  157.4604 LP  0  0  0  0  0  0  0  0  0  0  0  0  # atno 17394 bound_to 11000
  139.8773  134.9967  156.5807 LP  0  0  0  0  0  0  0  0  0  0  0  0  # atno 17395 bound_to 11000

$$$$
