AV-unprocessed.smi:781|AV-procd|sdf|3714|dock1
  -GOLD-   22720 1133D 1   1.00000     0.00000
 Structure written by MMmdl.
 38 40  0  0  0  0  0  0  0  0  1 V2000
  149.0896  129.4576  153.1049 C   0  0  0  0  0  0  0  0  0  0  0  0
  149.4646  130.8158  153.5907 C   0  0  0  0  0  0  0  0  0  0  0  0
  149.1760  132.0756  153.1465 C   0  0  0  0  0  0  0  0  0  0  0  0
  149.8535  132.9064  154.0782 C   0  0  0  0  0  0  0  0  0  0  0  0
  149.8001  134.3189  153.9657 N   0  0  0  0  0  0  0  0  0  0  0  0
  150.1977  135.2291  154.8710 C   0  0  0  0  0  0  0  0  0  0  0  0
  150.6974  134.9705  155.9661 O   0  0  0  0  0  0  0  0  0  0  0  0
  149.9770  136.4768  154.4337 N   0  0  0  0  0  0  0  0  0  0  0  0
  150.2641  137.6942  155.1883 C   0  0  1  0  0  0  0  0  0  0  0  0
  151.7027  137.6542  155.7495 C   0  0  2  0  0  0  0  0  0  0  0  0
  151.8365  138.7260  156.8460 C   0  0  0  0  0  0  0  0  0  0  0  0
  151.8432  140.0341  156.0330 C   0  0  0  0  0  0  0  0  0  0  0  0
  151.6957  139.5392  154.5778 C   0  0  1  0  0  0  0  0  0  0  0  0
  152.5280  138.2641  154.6196 C   0  0  0  0  0  0  0  0  0  0  0  0
  150.2849  138.9635  154.2972 C   0  0  2  0  0  0  0  0  0  0  0  0
  149.1003  139.9208  154.5345 C   0  0  0  0  0  0  0  0  0  0  0  0
  149.1619  141.0118  153.6402 O   0  0  0  0  0  0  0  0  0  0  0  0
  150.4982  132.2164  155.0067 N   0  0  0  0  0  0  0  0  0  0  0  0
  150.2521  130.8731  154.6987 O   0  0  0  0  0  0  0  0  0  0  0  0
  148.4527  129.5209  152.2224 H   0  0  0  0  0  0  0  0  0  0  0  0
  148.5471  128.9078  153.8743 H   0  0  0  0  0  0  0  0  0  0  0  0
  149.9776  128.8833  152.8406 H   0  0  0  0  0  0  0  0  0  0  0  0
  148.5756  132.3544  152.2936 H   0  0  0  0  0  0  0  0  0  0  0  0
  149.4056  134.6750  153.1079 H   0  0  0  0  0  0  0  0  0  0  0  0
  149.5684  136.5965  153.5184 H   0  0  0  0  0  0  0  0  0  0  0  0
  149.5454  137.7834  156.0056 H   0  0  0  0  0  0  0  0  0  0  0  0
  152.0263  136.6650  156.0762 H   0  0  0  0  0  0  0  0  0  0  0  0
  151.0221  138.6883  157.5702 H   0  0  0  0  0  0  0  0  0  0  0  0
  152.7737  138.6099  157.3918 H   0  0  0  0  0  0  0  0  0  0  0  0
  151.0598  140.7261  156.3385 H   0  0  0  0  0  0  0  0  0  0  0  0
  152.7948  140.5514  156.1619 H   0  0  0  0  0  0  0  0  0  0  0  0
  152.0229  140.2675  153.8352 H   0  0  0  0  0  0  0  0  0  0  0  0
  153.5722  138.4347  154.8884 H   0  0  0  0  0  0  0  0  0  0  0  0
  152.4895  137.6888  153.6929 H   0  0  0  0  0  0  0  0  0  0  0  0
  150.2582  138.6652  153.2468 H   0  0  0  0  0  0  0  0  0  0  0  0
  148.1598  139.3963  154.3657 H   0  0  0  0  0  0  0  0  0  0  0  0
  149.0697  140.2887  155.5593 H   0  0  0  0  0  0  0  0  0  0  0  0
  149.5739  140.7217  152.8407 H   0  0  0  0  0  0  0  0  0  0  0  0
  1  2  1  0  0  0  0
  1 20  1  0  0  0  0
  1 21  1  0  0  0  0
  1 22  1  0  0  0  0
  2 19  1  0  0  0  0
  2  3  2  0  0  0  0
  3  4  1  0  0  0  0
  3 23  1  0  0  0  0
  4  5  1  0  0  0  0
  4 18  2  0  0  0  0
  5  6  1  0  0  0  0
  5 24  1  0  0  0  0
  6  7  2  0  0  0  0
  6  8  1  0  0  0  0
  8  9  1  0  0  0  0
  8 25  1  0  0  0  0
  9 15  1  0  0  0  0
  9 10  1  0  0  0  0
  9 26  1  0  0  0  0
 10 14  1  0  0  0  0
 10 11  1  0  0  0  0
 10 27  1  0  0  0  0
 11 12  1  0  0  0  0
 11 28  1  0  0  0  0
 11 29  1  0  0  0  0
 12 13  1  0  0  0  0
 12 30  1  0  0  0  0
 12 31  1  0  0  0  0
 13 14  1  0  0  0  0
 13 15  1  0  0  0  0
 13 32  1  0  0  0  0
 14 33  1  0  0  0  0
 14 34  1  0  0  0  0
 15 16  1  0  0  0  0
 15 35  1  0  0  0  0
 16 17  1  0  0  0  0
 16 36  1  0  0  0  0
 16 37  1  0  0  0  0
 17 38  1  0  0  0  0
 18 19  1  0  0  0  0
M  END
> <s_m_source_file>
AV-unprocessed.smi

> <i_m_source_file_index>
781

> <i_lp_mmshare_version>
43012

> <i_f3d_flags>
0

> <s_epik_input>
W0NIM11jMVtjSF1jKG5vMSlbTkhdQyg9TylbTkhdW0NASF0oW0NAQEhdMjMpW0NASF0oW0NIMl1bT0hdKVtDQEBIXShbQ0gyXTMpW0NIMl1bQ0gyXTI=

> <s_epik_cmdline>
J2VwaWtfcHl0aG9uJywgJy1waCcsICc3LjAnLCAnLXRuJywgJzgnLCAnLW1hJywgJzIwMCcsICctbWV0YWxfYmluZGluZycsICctaW1hZScsICc8aW5maWxlLm1hZT4nLCAnLW9tYWUnLCAnPG91dGZpbGUubWFlPic=

> <r_lp_tautomer_probability>
1

> <r_epik_Ionization_Penalty>
2.32222e-05

> <r_epik_Ionization_Penalty_Charging>
0

> <r_epik_Ionization_Penalty_Neutral>
2.32222e-05

> <r_epik_State_Penalty>
-0

> <r_epik_Charging_Adjusted_Penalty>
0

> <i_epik_Tot_Q>
0

> <i_epik_Tot_abs_Q>
0

> <r_epik_Metal_State_Penalty>
-0

> <b_epik_Metal_Only>
0

> <s_lp_Force_Field>
OPLS_2005

> <r_lp_Energy>
47.0207

> <b_lp_Chiralities_Consistent>
1

> <s_lp_Variant>
AV-unprocessed.smi:781-8

> <Gold.Version>
5.8.1

> <Gold.Id.Protein>
6NUR|6NUR_protein|mol2

> <Gold.PLP.Fitness>
41.0101

> <Gold.PLP.PLP>
-32.5463

> <Gold.PLP.part.hbond>
-5.0000

> <Gold.PLP.part.metal>
0.0000

> <Gold.PLP.part.buried>
-1.7887

> <Gold.PLP.part.nonpolar>
-26.2481

> <Gold.PLP.part.repulsive>
0.1023

> <Gold.PLP.ligand.clash>
0.0000

> <Gold.PLP.ligand.torsion>
0.1923

> <Gold.PLP.Chemscore.Hbond>
2.9424

> <Gold.PLP.Chemscore.CHOScore>
0.0000

> <Gold.PLP.Chemscore.Metal>
0.0000

> <Gold.Chemscore.Hbonds>
donor molecule, donor type, donor heavy atom, donor atom, acceptor molecule, acceptor atom, score
      L1  H     5    24       P1  7948  0.20
      L1  H     8    25       P1  7948  1.00
      L1  H    17    38       P1  7957  1.00

> <Gold.PLP.Chemscore.Internal.Correction>
0.0213

> <Gold.Rescore>
     Score         DG    S(hbond)    S(metal)    S(lipo)     H(rot)  DE(clash)    DE(int)     intcor
     14.76     -16.41       2.47        0.00      63.66       1.86       0.16       1.49       ----

> <Gold.Chemscore.Fitness>
14.7613

> <Gold.Chemscore.DG>
-16.4062

> <Gold.Chemscore.ZeroCoef>
-5.4800

> <Gold.Chemscore.Hbond>
2.4660

> <Gold.Chemscore.Metal>
0.0000

> <Gold.Chemscore.Lipo>
63.6576

> <Gold.Chemscore.Internal_Hbond>
0.0000

> <Gold.Chemscore.DEClash>
0.1596

> <Gold.Chemscore.DEInternal>
1.4852

> <Gold.Chemscore.Rot>
1.8587

> <Gold.Chemscore.Internal.Correction>
   9.000000E+99

> <Gold.Chemscore.Hbonds>
donor molecule, donor type, donor heavy atom, donor atom, acceptor molecule, acceptor atom, score
      L1  H     8    25       P1  7948  0.65
      L1  H    17    38       P1  7957  0.99

> <Gold.Chemscore.Hbond.Weighted>
-8.2365

> <Gold.Chemscore.Metal.Weighted>
-0.0000

> <Gold.Chemscore.Lipo.Weighted>
-7.4479

> <Gold.Chemscore.Internal_Hbond.Weighted>
0.0000

> <Gold.Chemscore.DEClash.Weighted>
0.1596

> <Gold.Chemscore.DEInternal.Weighted>
1.4852

> <Gold.Chemscore.Rot.Weighted>
4.7583

> <Gold.Chemscore.Internal.Correction.Weighted>
   9.000000E+99

> <Gold.Protein.RotatedTorsions>
[ 6907 6896 6895 6894 ] final   73.75 input  -60.11 | X-H torsion
[ 7974 7965 7964 7962 ] final -140.25 input  175.53 | X-H torsion
[ 8008 7997 7996 7995 ] final  -59.28 input   59.86 | X-H torsion
[ 10167 10162 10161 10158 ] final -141.94 input  -65.29 | X-H torsion
[ 10718 10713 10712 10709 ] final   58.80 input   66.30 | X-H torsion
[ 10763 10752 10751 10750 ] final  -63.43 input  -60.55 | X-H torsion
[ 11005 11000 10999 10996 ] final   65.78 input  -57.11 | X-H torsion

> <Gold.Protein.ActiveResidues>
 VAL166  LYS551  ARG553  GLY616  TRP617  ASP618  TYR619  PRO620  LYS621  CYS622 
 ASP623  PHE694  ASN695  SER759  ASP760  ASP761  ALA762  ILE779  LEU786  VAL792 
 PHE793  MET794  SER795  GLU796  ALA797  LYS798  CYS799  TRP800  GLU811  SER814 

> <Gold.Protein.RotatedAtoms>
  152.4940  134.4375  159.9532 H   0  0  0  0  0  0  0  0  0  0  0  0  # atno 6907 bound_to 6896
  151.4357  133.3651  159.2782 H   0  0  0  0  0  0  0  0  0  0  0  0  # atno 6908 bound_to 6896
  150.9123  134.8563  159.7493 H   0  0  0  0  0  0  0  0  0  0  0  0  # atno 6909 bound_to 6896
  144.8612  140.6222  143.5327 H   0  0  0  0  0  0  0  0  0  0  0  0  # atno 7974 bound_to 7965
  154.4345  140.1065  156.6091 H   0  0  0  0  0  0  0  0  0  0  0  0  # atno 8008 bound_to 7997
  155.5829  140.3491  155.4526 H   0  0  0  0  0  0  0  0  0  0  0  0  # atno 8009 bound_to 7997
  156.0305  140.1259  157.0252 H   0  0  0  0  0  0  0  0  0  0  0  0  # atno 8010 bound_to 7997
  139.8136  143.7669  152.2664 H   0  0  0  0  0  0  0  0  0  0  0  0  # atno 10167 bound_to 10162
  157.5625  130.8846  149.9134 H   0  0  0  0  0  0  0  0  0  0  0  0  # atno 10718 bound_to 10713
  154.3148  135.6208  153.5482 H   0  0  0  0  0  0  0  0  0  0  0  0  # atno 10763 bound_to 10752
  152.9826  135.5710  154.5136 H   0  0  0  0  0  0  0  0  0  0  0  0  # atno 10764 bound_to 10752
  154.4793  135.2862  155.1560 H   0  0  0  0  0  0  0  0  0  0  0  0  # atno 10765 bound_to 10752
  139.9873  134.6648  156.0154 H   0  0  0  0  0  0  0  0  0  0  0  0  # atno 11005 bound_to 11000
  145.4309  139.1549  143.4023 LP  0  0  0  0  0  0  0  0  0  0  0  0  # atno 17320 bound_to 7965
  146.2861  140.4425  142.8757 LP  0  0  0  0  0  0  0  0  0  0  0  0  # atno 17321 bound_to 7965
  139.7826  144.7439  151.0067 LP  0  0  0  0  0  0  0  0  0  0  0  0  # atno 17342 bound_to 10162
  140.7817  143.4526  151.0391 LP  0  0  0  0  0  0  0  0  0  0  0  0  # atno 17343 bound_to 10162
  156.0676  130.3690  150.0844 LP  0  0  0  0  0  0  0  0  0  0  0  0  # atno 17370 bound_to 10713
  156.9006  130.9619  151.3577 LP  0  0  0  0  0  0  0  0  0  0  0  0  # atno 17371 bound_to 10713
  141.1535  133.6545  156.4089 LP  0  0  0  0  0  0  0  0  0  0  0  0  # atno 17394 bound_to 11000
  140.4978  134.6515  157.5236 LP  0  0  0  0  0  0  0  0  0  0  0  0  # atno 17395 bound_to 11000

$$$$
