AV-unprocessed.smi:278|AV-procd|sdf|2088|dock3
  -GOLD-   2262021363D 1   1.00000     0.00000
 Structure written by MMmdl.
 50 54  0  0  0  0  0  0  0  0  1 V2000
  146.2250  137.5641  160.5941 O   0  0  0  0  0  0  0  0  0  0  0  0
  146.0938  137.1360  161.9956 S   0  0  0  0  0  0  0  0  0  0  0  0
  146.3601  138.0747  163.0960 O   0  0  0  0  0  0  0  0  0  0  0  0
  144.4368  136.3861  162.2393 C   0  0  0  0  0  0  0  0  0  0  0  0
  144.6800  134.9757  162.7932 C   0  0  0  0  0  0  0  0  0  0  0  0
  146.0359  134.4578  162.2792 C   0  0  1  0  0  0  0  0  0  0  0  0
  146.0181  134.0251  160.8092 C   0  0  0  0  0  0  0  0  0  0  0  0
  147.3667  134.2727  160.3165 N   0  0  0  0  0  0  0  0  0  0  0  0
  147.6487  134.1955  158.9891 C   0  0  0  0  0  0  0  0  0  0  0  0
  148.8933  134.5385  158.5608 N   0  0  0  0  0  0  0  0  0  0  0  0
  149.2136  134.4609  157.2662 C   0  0  0  0  0  0  0  0  0  0  0  0
  148.4523  134.0771  156.2408 N   0  0  0  0  0  0  0  0  0  0  0  0
  147.1961  133.7499  156.6565 C   0  0  0  0  0  0  0  0  0  0  0  0
  146.7108  133.7841  157.9957 C   0  0  0  0  0  0  0  0  0  0  0  0
  145.3749  133.3950  158.0163 N   0  0  0  0  0  0  0  0  0  0  0  0
  145.0938  133.1320  156.7697 C   0  0  0  0  0  0  0  0  0  0  0  0
  146.1337  133.3109  155.8875 N   0  0  0  0  0  0  0  0  0  0  0  0
  146.1106  133.0830  154.4536 C   0  0  0  0  0  0  0  0  0  0  0  0
  146.3010  134.3863  153.6522 C   0  0  1  0  0  0  0  0  0  0  0  0
  147.6392  134.8246  153.7934 O   0  0  0  0  0  0  0  0  0  0  0  0
  145.9889  134.2056  152.1553 C   0  0  2  0  0  0  0  0  0  0  0  0
  144.5404  133.8118  151.8554 C   0  0  0  0  0  0  0  0  0  0  0  0
  144.6800  133.1237  150.5176 C   0  0  0  0  0  0  0  0  0  0  0  0
  145.9921  132.3680  150.6980 C   0  0  0  0  0  0  0  0  0  0  0  0
  146.7682  133.1429  151.6084 O   0  0  0  0  0  0  0  0  0  0  0  0
  148.0336  135.2660  161.1494 C   0  0  0  0  0  0  0  0  0  0  0  0
  147.0596  135.5934  162.2892 C   0  0  1  0  0  0  0  0  0  0  0  0
  146.3943  133.6276  162.8896 H   0  0  0  0  0  0  0  0  0  0  0  0
  147.5614  135.6880  163.2525 H   0  0  0  0  0  0  0  0  0  0  0  0
  143.8360  137.0072  162.9040 H   0  0  0  0  0  0  0  0  0  0  0  0
  143.9429  136.3417  161.2684 H   0  0  0  0  0  0  0  0  0  0  0  0
  144.7221  135.0320  163.8815 H   0  0  0  0  0  0  0  0  0  0  0  0
  143.8629  134.2978  162.5443 H   0  0  0  0  0  0  0  0  0  0  0  0
  145.7436  132.9747  160.7056 H   0  0  0  0  0  0  0  0  0  0  0  0
  145.3068  134.6207  160.2352 H   0  0  0  0  0  0  0  0  0  0  0  0
  150.2258  134.7439  157.0171 H   0  0  0  0  0  0  0  0  0  0  0  0
  144.1167  132.7914  156.4588 H   0  0  0  0  0  0  0  0  0  0  0  0
  146.8885  132.3611  154.2010 H   0  0  0  0  0  0  0  0  0  0  0  0
  145.1578  132.6164  154.2007 H   0  0  0  0  0  0  0  0  0  0  0  0
  145.6499  135.1598  154.0619 H   0  0  0  0  0  0  0  0  0  0  0  0
  147.9270  135.1749  152.9642 H   0  0  0  0  0  0  0  0  0  0  0  0
  146.2343  135.1146  151.6034 H   0  0  0  0  0  0  0  0  0  0  0  0
  144.1696  133.1057  152.6002 H   0  0  0  0  0  0  0  0  0  0  0  0
  143.8638  134.6663  151.8278 H   0  0  0  0  0  0  0  0  0  0  0  0
  143.8397  132.4715  150.2783 H   0  0  0  0  0  0  0  0  0  0  0  0
  144.7770  133.8652  149.7235 H   0  0  0  0  0  0  0  0  0  0  0  0
  145.8097  131.3904  151.1460 H   0  0  0  0  0  0  0  0  0  0  0  0
  146.5177  132.2156  149.7550 H   0  0  0  0  0  0  0  0  0  0  0  0
  148.9440  134.8206  161.5513 H   0  0  0  0  0  0  0  0  0  0  0  0
  148.3192  136.1582  160.5923 H   0  0  0  0  0  0  0  0  0  0  0  0
  1  2  2  0  0  0  0
  2 27  1  0  0  0  0
  2  3  2  0  0  0  0
  2  4  1  0  0  0  0
  4  5  1  0  0  0  0
  4 30  1  0  0  0  0
  4 31  1  0  0  0  0
  5  6  1  0  0  0  0
  5 32  1  0  0  0  0
  5 33  1  0  0  0  0
  6 28  1  0  0  0  0
  6 27  1  0  0  0  0
  6  7  1  0  0  0  0
  7  8  1  0  0  0  0
  7 34  1  0  0  0  0
  7 35  1  0  0  0  0
  8  9  1  0  0  0  0
  8 26  1  0  0  0  0
  9 14  1  0  0  0  0
  9 10  2  0  0  0  0
 10 11  1  0  0  0  0
 11 12  2  0  0  0  0
 11 36  1  0  0  0  0
 12 13  1  0  0  0  0
 13 17  1  0  0  0  0
 13 14  2  0  0  0  0
 14 15  1  0  0  0  0
 15 16  2  0  0  0  0
 16 17  1  0  0  0  0
 16 37  1  0  0  0  0
 17 18  1  0  0  0  0
 18 19  1  0  0  0  0
 18 38  1  0  0  0  0
 18 39  1  0  0  0  0
 19 20  1  0  0  0  0
 19 21  1  0  0  0  0
 19 40  1  0  0  0  0
 20 41  1  0  0  0  0
 21 25  1  0  0  0  0
 21 22  1  0  0  0  0
 21 42  1  0  0  0  0
 22 23  1  0  0  0  0
 22 43  1  0  0  0  0
 22 44  1  0  0  0  0
 23 24  1  0  0  0  0
 23 45  1  0  0  0  0
 23 46  1  0  0  0  0
 24 25  1  0  0  0  0
 24 47  1  0  0  0  0
 24 48  1  0  0  0  0
 26 27  1  0  0  0  0
 26 49  1  0  0  0  0
 26 50  1  0  0  0  0
 27 29  1  0  0  0  0
M  END
> <s_m_source_file>
AV-unprocessed.smi

> <i_m_source_file_index>
278

> <i_lp_mmshare_version>
43012

> <i_f3d_flags>
0

> <s_epik_input>
W0NIMl0xW0NIMl1TKD1PKSg9TylbQ0BASF0oW0NAQEhdMTIpW0NIMl1OKFtDSDJdMiljKG5bY0hdbjMpYyhjMzQpbltjSF1uNFtDSDJdW0NASF0oW09IXSlbQ0BASF01W0NIMl1bQ0gyXVtDSDJdTzU=

> <s_epik_cmdline>
J2VwaWtfcHl0aG9uJywgJy1waCcsICc3LjAnLCAnLXRuJywgJzgnLCAnLW1hJywgJzIwMCcsICctbWV0YWxfYmluZGluZycsICctaW1hZScsICc8aW5maWxlLm1hZT4nLCAnLW9tYWUnLCAnPG91dGZpbGUubWFlPic=

> <r_lp_tautomer_probability>
1

> <r_epik_Ionization_Penalty>
0.000636766

> <r_epik_Ionization_Penalty_Charging>
0

> <r_epik_Ionization_Penalty_Neutral>
0.000636766

> <r_epik_State_Penalty>
0.000329976

> <r_epik_Charging_Adjusted_Penalty>
0.000329976

> <i_epik_Tot_Q>
0

> <i_epik_Tot_abs_Q>
0

> <r_epik_Metal_State_Penalty>
-0

> <b_epik_Metal_Only>
0

> <s_lp_Force_Field>
OPLS_2005

> <r_lp_Energy>
48.1975

> <b_lp_Chiralities_Consistent>
1

> <s_lp_Variant>
AV-unprocessed.smi:278-2

> <Gold.Version>
5.8.1

> <Gold.Id.Protein>
6NUR|6NUR_protein|mol2

> <Gold.PLP.Fitness>
43.9351

> <Gold.PLP.PLP>
-32.7175

> <Gold.PLP.part.hbond>
-4.4502

> <Gold.PLP.part.metal>
0.0000

> <Gold.PLP.part.buried>
-5.8805

> <Gold.PLP.part.nonpolar>
-22.6270

> <Gold.PLP.part.repulsive>
0.2015

> <Gold.PLP.ligand.clash>
0.0000

> <Gold.PLP.ligand.torsion>
0.3140

> <Gold.PLP.Chemscore.Hbond>
2.8500

> <Gold.PLP.Chemscore.CHOScore>
1.0000

> <Gold.PLP.Chemscore.Metal>
0.0000

> <Gold.Chemscore.Hbonds>
donor molecule, donor type, donor heavy atom, donor atom, acceptor molecule, acceptor atom, score
      L1  H    20    41       P1  7948  1.00
      P1  H  6896  6907       L1    10  1.00
      P1  H  6934  6947       L1     1  0.80
      L1  C    16    37       P1 10957  1.00

> <Gold.PLP.Chemscore.Internal.Correction>
0.2955

> <Gold.Rescore>
     Score         DG    S(hbond)    S(metal)    S(lipo)     H(rot)  DE(clash)    DE(int)     intcor
     14.00     -15.98       2.32        0.00      70.13       2.13       0.37       1.61       ----

> <Gold.Chemscore.Fitness>
13.9998

> <Gold.Chemscore.DG>
-15.9806

> <Gold.Chemscore.ZeroCoef>
-5.4800

> <Gold.Chemscore.Hbond>
2.3233

> <Gold.Chemscore.Metal>
0.0000

> <Gold.Chemscore.Lipo>
70.1317

> <Gold.Chemscore.Internal_Hbond>
0.0000

> <Gold.Chemscore.DEClash>
0.3669

> <Gold.Chemscore.DEInternal>
1.6139

> <Gold.Chemscore.Rot>
2.1346

> <Gold.Chemscore.Internal.Correction>
   9.000000E+99

> <Gold.Chemscore.Hbonds>
donor molecule, donor type, donor heavy atom, donor atom, acceptor molecule, acceptor atom, score
      L1  H    20    41       P1  7948  0.98
      P1  H  6896  6907       L1    10  0.39
      P1  H  6934  6947       L1     1  0.12

> <Gold.Chemscore.Hbond.Weighted>
-7.7598

> <Gold.Chemscore.Metal.Weighted>
-0.0000

> <Gold.Chemscore.Lipo.Weighted>
-8.2054

> <Gold.Chemscore.Internal_Hbond.Weighted>
0.0000

> <Gold.Chemscore.DEClash.Weighted>
0.3669

> <Gold.Chemscore.DEInternal.Weighted>
1.6139

> <Gold.Chemscore.Rot.Weighted>
5.4646

> <Gold.Chemscore.Internal.Correction.Weighted>
   9.000000E+99

> <Gold.Protein.RotatedTorsions>
[ 6907 6896 6895 6894 ] final  -85.59 input  -60.11 | X-H torsion
[ 7974 7965 7964 7962 ] final   40.98 input  175.53 | X-H torsion
[ 8008 7997 7996 7995 ] final  -27.90 input   59.86 | X-H torsion
[ 10167 10162 10161 10158 ] final   12.48 input  -65.29 | X-H torsion
[ 10718 10713 10712 10709 ] final   -6.06 input   66.30 | X-H torsion
[ 10763 10752 10751 10750 ] final  157.02 input  -60.55 | X-H torsion
[ 11005 11000 10999 10996 ] final -150.89 input  -57.11 | X-H torsion

> <Gold.Protein.ActiveResidues>
 VAL166  LYS551  ARG553  GLY616  TRP617  ASP618  TYR619  PRO620  LYS621  CYS622 
 ASP623  PHE694  ASN695  SER759  ASP760  ASP761  ALA762  ILE779  LEU786  VAL792 
 PHE793  MET794  SER795  GLU796  ALA797  LYS798  CYS799  TRP800  GLU811  SER814 

> <Gold.Protein.RotatedAtoms>
  150.6869  134.3181  159.4774 H   0  0  0  0  0  0  0  0  0  0  0  0  # atno 6907 bound_to 6896
  152.1060  134.9306  160.0577 H   0  0  0  0  0  0  0  0  0  0  0  0  # atno 6908 bound_to 6896
  152.0567  133.4008  159.4437 H   0  0  0  0  0  0  0  0  0  0  0  0  # atno 6909 bound_to 6896
  146.0861  139.5470  142.9506 H   0  0  0  0  0  0  0  0  0  0  0  0  # atno 7974 bound_to 7965
  154.4356  140.1860  156.1005 H   0  0  0  0  0  0  0  0  0  0  0  0  # atno 8008 bound_to 7997
  156.0296  140.3332  155.7099 H   0  0  0  0  0  0  0  0  0  0  0  0  # atno 8009 bound_to 7997
  155.5859  140.0626  157.2762 H   0  0  0  0  0  0  0  0  0  0  0  0  # atno 8010 bound_to 7997
  140.6065  143.8497  150.7019 H   0  0  0  0  0  0  0  0  0  0  0  0  # atno 10167 bound_to 10162
  156.7374  130.5199  149.5831 H   0  0  0  0  0  0  0  0  0  0  0  0  # atno 10718 bound_to 10713
  154.1936  135.2793  155.3014 H   0  0  0  0  0  0  0  0  0  0  0  0  # atno 10763 bound_to 10752
  154.5910  135.5560  153.7281 H   0  0  0  0  0  0  0  0  0  0  0  0  # atno 10764 bound_to 10752
  153.0106  135.6368  154.2074 H   0  0  0  0  0  0  0  0  0  0  0  0  # atno 10765 bound_to 10752
  140.7354  134.3574  157.5158 H   0  0  0  0  0  0  0  0  0  0  0  0  # atno 11005 bound_to 11000
  145.6127  141.0337  143.1958 LP  0  0  0  0  0  0  0  0  0  0  0  0  # atno 17320 bound_to 7965
  144.7327  139.7678  143.7341 LP  0  0  0  0  0  0  0  0  0  0  0  0  # atno 17321 bound_to 7965
  140.2055  143.3925  152.1759 LP  0  0  0  0  0  0  0  0  0  0  0  0  # atno 17342 bound_to 10162
  139.5329  144.7178  151.4994 LP  0  0  0  0  0  0  0  0  0  0  0  0  # atno 17343 bound_to 10162
  156.1487  130.6295  151.0567 LP  0  0  0  0  0  0  0  0  0  0  0  0  # atno 17370 bound_to 10713
  157.6833  131.0832  150.7312 LP  0  0  0  0  0  0  0  0  0  0  0  0  # atno 17371 bound_to 10713
  139.8817  134.9046  156.2880 LP  0  0  0  0  0  0  0  0  0  0  0  0  # atno 17394 bound_to 11000
  140.9884  133.7224  156.0777 LP  0  0  0  0  0  0  0  0  0  0  0  0  # atno 17395 bound_to 11000

$$$$
