#       Name:                AV-unprocessed.smi:740
#       Creating user name   scv26
#       Creation time:       Fri Mar 27 00:54:37 2020


#       File generated by GOLD software.
#

@<TRIPOS>MOLECULE
AV-unprocessed.smi:740
    51    53     1
SMALL
NO_CHARGES


@<TRIPOS>ATOM
      1 ****        -3.6655   4.4970  -2.4971 C.3            1 S1                 0.0000
      2 ****        -3.1297   3.3971  -1.5966 C.ar           1 S1                 0.0000
      3 ****        -3.0311   3.6494  -0.2098 C.ar           1 S1                 0.0000
      4 ****        -2.5368   2.6244   0.5880 C.ar           1 S1                 0.0000
      5 ****        -2.3181   2.5637   1.9659 N.pl3          1 S1                 1.0000
      6 ****        -1.8143   1.3417   2.2924 C.2            1 S1                 0.0000
      7 ****        -1.7113   0.6195   1.1439 N.pl3          1 S1                 0.0000
      8 ****        -1.2269  -0.7538   0.9450 C.3            1 S1                 0.0000
      9 ****         0.3086  -0.8333   0.8400 C.3            1 S1                 0.0000
     10 ****         0.7280  -0.1047  -0.2975 O.3            1 S1                 0.0000
     11 ****         0.7929  -2.2910   0.7017 C.3            1 S1                 0.0000
     12 ****         2.2185  -2.4306   1.0206 N.am           1 S1                 0.0000
     13 ****         2.7045  -2.5111   2.2667 C.2            1 S1                 0.0000
     14 ****         2.0479  -2.4837   3.3074 O.2            1 S1                 0.0000
     15 ****         4.2216  -2.6350   2.2545 C.3            1 S1                 0.0000
     16 ****         4.5656  -2.6105   0.7574 C.3            1 S1                 0.0000
     17 ****         5.3153  -3.8627   0.2736 C.3            1 S1                 0.0000
     18 ****         3.1925  -2.4801   0.1010 C.2            1 S1                 0.0000
     19 ****         3.0409  -2.4278  -1.1198 O.2            1 S1                 0.0000
     20 ****        -2.1490   1.3804   0.0530 C.ar           1 S1                 0.0000
     21 ****        -2.2387   1.1163  -1.3120 C.ar           1 S1                 0.0000
     22 ****        -2.7360   2.1472  -2.1409 C.ar           1 S1                 0.0000
     23 ****        -2.8384   1.8892  -3.6346 C.3            1 S1                 0.0000
     24 ****        -3.9516   5.3786  -1.9230 H              1 S1                 0.0000
     25 ****        -4.5466   4.1536  -3.0397 H              1 S1                 0.0000
     26 ****        -2.9088   4.8012  -3.2206 H              1 S1                 0.0000
     27 ****        -3.3254   4.5996   0.2114 H              1 S1                 0.0000
     28 ****        -1.5436   1.0060   3.2832 H              1 S1                 0.0000
     29 ****        -1.5680  -1.3345   1.8029 H              1 S1                 0.0000
     30 ****        -1.7114  -1.1898   0.0711 H              1 S1                 0.0000
     31 ****         0.7435  -0.3733   1.7285 H              1 S1                 0.0000
     32 ****         0.4153  -0.5480  -1.0712 H              1 S1                 0.0000
     33 ****         0.2310  -2.9270   1.3882 H              1 S1                 0.0000
     34 ****         0.5666  -2.6795  -0.2931 H              1 S1                 0.0000
     35 ****         4.6761  -1.7995   2.7880 H              1 S1                 0.0000
     36 ****         4.5261  -3.5635   2.7392 H              1 S1                 0.0000
     37 ****         5.1485  -1.7187   0.5234 H              1 S1                 0.0000
     38 ****         5.5403  -3.8018  -0.7918 H              1 S1                 0.0000
     39 ****         4.7321  -4.7692   0.4405 H              1 S1                 0.0000
     40 ****         6.2621  -3.9758   0.8022 H              1 S1                 0.0000
     41 ****        -1.9366   0.1674  -1.7291 H              1 S1                 0.0000
     42 ****        -2.4676   0.8972  -3.8947 H              1 S1                 0.0000
     43 ****        -2.2509   2.6194  -4.1914 H              1 S1                 0.0000
     44 ****        -3.8755   1.9541  -3.9641 H              1 S1                 0.0000
     45 ****        -2.4965   3.3010   2.6360 H              1 S1                 0.0000
     46 ****         1.7266  -0.0562  -0.3173 LP             1 S1                 0.0000
     47 ****         0.3500   0.8205  -0.2632 LP             1 S1                 0.0000
     48 ****         1.0527  -2.3939   3.2685 LP             1 S1                 0.0000
     49 ****         2.5096  -2.5512   4.1919 LP             1 S1                 0.0000
     50 ****         2.1228  -2.3401  -1.5063 LP             1 S1                 0.0000
     51 ****         3.8359  -2.4729  -1.7247 LP             1 S1                 0.0000
@<TRIPOS>BOND
    1    1    2 1     
    2    1   24 1     
    3    1   25 1     
    4    1   26 1     
    5    2   22 ar    
    6    2    3 ar    
    7    3    4 ar    
    8    3   27 1     
    9    4   20 ar    
   10    4    5 1     
   11    5    6 2     
   12    5   45 1     
   13    6    7 1     
   14    6   28 1     
   15    7    8 1     
   16    7   20 1     
   17    8    9 1     
   18    8   29 1     
   19    8   30 1     
   20    9   10 1     
   21    9   11 1     
   22    9   31 1     
   23   10   32 1     
   24   11   12 1     
   25   11   33 1     
   26   11   34 1     
   27   12   18 am    
   28   12   13 am    
   29   13   14 2     
   30   13   15 1     
   31   15   16 1     
   32   15   35 1     
   33   15   36 1     
   34   16   17 1     
   35   16   18 1     
   36   16   37 1     
   37   17   38 1     
   38   17   39 1     
   39   17   40 1     
   40   18   19 2     
   41   20   21 ar    
   42   21   22 ar    
   43   21   41 1     
   44   22   23 1     
   45   23   42 1     
   46   23   43 1     
   47   23   44 1     
   48   10   46 1     
   49   10   47 1     
   50   14   48 1     
   51   14   49 1     
   52   19   50 1     
   53   19   51 1     
@<TRIPOS>SUBSTRUCTURE
      1 S1             1
@<TRIPOS>SET
LONE_PAIRS      STATIC     ATOMS    <user>   **** ""
6 46 47 48 49 50 51
DONOR_HYDROGENS      STATIC     ATOMS    <user>   **** ""
2 45 32
ATOM$BLUE        STATIC     ATOMS    COLORGROUP SYSTEM
6 46 47 48 49 50 51
ATOM$RED        STATIC     ATOMS    COLORGROUP SYSTEM
2 45 32
