#       Name:                AV-unprocessed.smi:148
#       Creating user name   scv26
#       Creation time:       Thu Mar 26 18:40:57 2020


#       File generated by GOLD software.
#

@<TRIPOS>MOLECULE
AV-unprocessed.smi:148
    73    77     1
SMALL
NO_CHARGES


@<TRIPOS>ATOM
      1 ****        -3.4645  -0.8070   2.9577 O.3            1 S1                 0.0000
      2 ****        -2.2134  -1.3477   2.5869 C.3            1 S1                 0.0000
      3 ****        -1.1544  -1.1335   3.6955 C.3            1 S1                 0.0000
      4 ****         0.2721  -1.4969   3.2057 C.3            1 S1                 0.0000
      5 ****         0.6944  -0.7122   2.0590 N.pl3          1 S1                 0.0000
      6 ****         1.1512   0.5864   2.0785 C.2            1 S1                 0.0000
      7 ****         1.4810   1.0781   0.9153 N.2            1 S1                 0.0000
      8 ****         1.2310   0.0387   0.0285 C.ar           1 S1                 0.0000
      9 ****         1.3592  -0.1093  -1.3777 C.ar           1 S1                 0.0000
     10 ****         1.8364   0.8883  -2.1602 N.3            1 S1                 0.0000
     11 ****         3.2958   0.7782  -2.2179 C.3            1 S1                 0.0000
     12 ****         3.9340   1.9896  -2.9074 C.3            1 S1                 0.0000
     13 ****         3.3230   2.1878  -4.2966 C.3            1 S1                 0.0000
     14 ****         1.8034   2.3434  -4.1677 C.3            1 S1                 0.0000
     15 ****         1.1542   1.1309  -3.4475 C.3            1 S1                 0.0000
     16 ****        -0.3989   1.2696  -3.3111 C.3            1 S1                 0.0000
     17 ****        -1.1710   1.2035  -4.6430 C.3            1 S1                 0.0000
     18 ****        -2.4536   2.0289  -4.4474 C.3            1 S1                 0.0000
     19 ****        -2.4232   2.5345  -3.0023 C.3            1 S1                 0.0000
     20 ****        -0.9416   2.5375  -2.6281 C.3            1 S1                 0.0000
     21 ****        -0.7778   2.5220  -1.2255 O.3            1 S1                 0.0000
     22 ****         1.0261  -1.3105  -1.9219 N.ar           1 S1                 0.0000
     23 ****         0.5729  -2.2955  -1.1404 C.ar           1 S1                 0.0000
     24 ****         0.3906  -2.2960   0.1822 N.ar           1 S1                 0.0000
     25 ****         0.7400  -1.0967   0.7304 C.ar           1 S1                 0.0000
     26 ****        -1.5572  -1.8479   5.0165 C.3            1 S1                 0.0000
     27 ****        -1.5960  -3.3760   4.9918 C.3            1 S1                 0.0000
     28 ****        -1.0266  -3.7867   6.3530 C.3            1 S1                 0.0000
     29 ****        -1.0249  -2.5959   7.1268 O.3            1 S1                 0.0000
     30 ****        -0.7009  -1.5336   6.2465 C.3            1 S1                 0.0000
     31 ****        -4.0778  -0.9591   2.2549 H              1 S1                 0.0000
     32 ****        -2.3302  -2.4077   2.3601 H              1 S1                 0.0000
     33 ****        -1.9210  -0.8561   1.6598 H              1 S1                 0.0000
     34 ****        -1.1426  -0.0647   3.9156 H              1 S1                 0.0000
     35 ****         1.0115  -1.3349   3.9878 H              1 S1                 0.0000
     36 ****         0.3362  -2.5511   2.9381 H              1 S1                 0.0000
     37 ****         1.2329   1.1610   2.9899 H              1 S1                 0.0000
     38 ****         3.7063   0.6842  -1.2113 H              1 S1                 0.0000
     39 ****         3.5650  -0.1328  -2.7549 H              1 S1                 0.0000
     40 ****         3.7770   2.8833  -2.3019 H              1 S1                 0.0000
     41 ****         5.0125   1.8505  -2.9860 H              1 S1                 0.0000
     42 ****         3.7531   3.0685  -4.7741 H              1 S1                 0.0000
     43 ****         3.5584   1.3354  -4.9351 H              1 S1                 0.0000
     44 ****         1.6091   3.2623  -3.6156 H              1 S1                 0.0000
     45 ****         1.3808   2.4851  -5.1609 H              1 S1                 0.0000
     46 ****         1.3446   0.2532  -4.0672 H              1 S1                 0.0000
     47 ****        -0.7838   0.4246  -2.7403 H              1 S1                 0.0000
     48 ****        -0.6016   1.6203  -5.4720 H              1 S1                 0.0000
     49 ****        -1.3976   0.1702  -4.9083 H              1 S1                 0.0000
     50 ****        -2.4539   2.8742  -5.1368 H              1 S1                 0.0000
     51 ****        -3.3522   1.4449  -4.6481 H              1 S1                 0.0000
     52 ****        -2.8879   3.5145  -2.8898 H              1 S1                 0.0000
     53 ****        -2.9683   1.8348  -2.3663 H              1 S1                 0.0000
     54 ****        -0.4842   3.4382  -3.0349 H              1 S1                 0.0000
     55 ****        -1.1925   1.7453  -0.8827 H              1 S1                 0.0000
     56 ****         0.3219  -3.2154  -1.6477 H              1 S1                 0.0000
     57 ****        -2.5625  -1.5183   5.2826 H              1 S1                 0.0000
     58 ****        -2.6224  -3.7249   4.8725 H              1 S1                 0.0000
     59 ****        -1.0091  -3.8153   4.1867 H              1 S1                 0.0000
     60 ****        -1.6110  -4.5715   6.8337 H              1 S1                 0.0000
     61 ****        -0.0012  -4.1432   6.2456 H              1 S1                 0.0000
     62 ****         0.3685  -1.5645   6.0423 H              1 S1                 0.0000
     63 ****        -0.9374  -0.5640   6.6851 H              1 S1                 0.0000
     64 ****        -3.3728   0.1758   3.1184 LP             1 S1                 0.0000
     65 ****        -3.7904  -1.2521   3.7918 LP             1 S1                 0.0000
     66 ****         1.8323   1.9916   0.7101 LP             1 S1                 0.0000
     67 ****         1.5936   1.7507  -1.7161 LP             1 S1                 0.0000
     68 ****        -1.2032   3.3348  -0.8275 LP             1 S1                 0.0000
     69 ****         0.1964   2.5114  -1.0000 LP             1 S1                 0.0000
     70 ****         1.1202  -1.4566  -2.9067 LP             1 S1                 0.0000
     71 ****         0.0427  -3.0751   0.7037 LP             1 S1                 0.0000
     72 ****        -0.3422  -2.6597   7.8547 LP             1 S1                 0.0000
     73 ****        -1.9281  -2.4459   7.5291 LP             1 S1                 0.0000
@<TRIPOS>BOND
    1    1    2 1     
    2    1   31 1     
    3    2    3 1     
    4    2   32 1     
    5    2   33 1     
    6    3    4 1     
    7    3   26 1     
    8    3   34 1     
    9    4    5 1     
   10    4   35 1     
   11    4   36 1     
   12    5   25 1     
   13    5    6 1     
   14    6    7 2     
   15    6   37 1     
   16    7    8 1     
   17    8   25 ar    
   18    8    9 ar    
   19    9   10 1     
   20    9   22 ar    
   21   10   15 1     
   22   10   11 1     
   23   11   12 1     
   24   11   38 1     
   25   11   39 1     
   26   12   13 1     
   27   12   40 1     
   28   12   41 1     
   29   13   14 1     
   30   13   42 1     
   31   13   43 1     
   32   14   15 1     
   33   14   44 1     
   34   14   45 1     
   35   15   16 1     
   36   15   46 1     
   37   16   20 1     
   38   16   17 1     
   39   16   47 1     
   40   17   18 1     
   41   17   48 1     
   42   17   49 1     
   43   18   19 1     
   44   18   50 1     
   45   18   51 1     
   46   19   20 1     
   47   19   52 1     
   48   19   53 1     
   49   20   21 1     
   50   20   54 1     
   51   21   55 1     
   52   22   23 ar    
   53   23   24 ar    
   54   23   56 1     
   55   24   25 ar    
   56   26   30 1     
   57   26   27 1     
   58   26   57 1     
   59   27   28 1     
   60   27   58 1     
   61   27   59 1     
   62   28   29 1     
   63   28   60 1     
   64   28   61 1     
   65   29   30 1     
   66   30   62 1     
   67   30   63 1     
   68    1   64 1     
   69    1   65 1     
   70    7   66 1     
   71   10   67 1     
   72   21   68 1     
   73   21   69 1     
   74   22   70 1     
   75   24   71 1     
   76   29   72 1     
   77   29   73 1     
@<TRIPOS>SUBSTRUCTURE
      1 S1             1
@<TRIPOS>SET
LONE_PAIRS      STATIC     ATOMS    <user>   **** ""
10 64 65 66 67 68 69 70 71 72 73
DONOR_HYDROGENS      STATIC     ATOMS    <user>   **** ""
2 31 55
ATOM$BLUE        STATIC     ATOMS    COLORGROUP SYSTEM
10 64 65 66 67 68 69 70 71 72 73
ATOM$RED        STATIC     ATOMS    COLORGROUP SYSTEM
2 31 55
