#       Name:                AV-unprocessed.smi:1307
#       Creating user name   scv26
#       Creation time:       Fri Mar 27 05:00:18 2020


#       File generated by GOLD software.
#

@<TRIPOS>MOLECULE
AV-unprocessed.smi:1307
    47    47     1
SMALL
NO_CHARGES


@<TRIPOS>ATOM
      1 ****        -2.4852   0.9169  -0.7860 C.3            1 S1                 0.0000
      2 ****        -2.7675  -0.3621   0.0281 C.3            1 S1                 0.0000
      3 ****        -4.2874  -0.5918   0.1104 C.3            1 S1                 0.0000
      4 ****        -2.0991  -0.3328   1.4287 C.3            1 S1                 0.0000
      5 ****        -2.2620  -1.6518   2.2080 C.3            1 S1                 0.0000
      6 ****        -0.6749  -0.0365   1.2948 N.am           1 S1                 0.0000
      7 ****         0.0906   0.5994   2.1986 C.2            1 S1                 0.0000
      8 ****        -0.3381   0.9810   3.2866 O.2            1 S1                 0.0000
      9 ****         1.5676   0.8575   1.8430 C.3            1 S1                 0.0000
     10 ****         1.9542   0.4983   0.4527 N.am           1 S1                 0.0000
     11 ****         2.6034  -0.7487   0.1886 C.2            1 S1                 0.0000
     12 ****         2.8681  -1.7219   1.3464 C.3            1 S1                 0.0000
     13 ****         3.3095  -2.8974   0.8963 F              1 S1                 0.0000
     14 ****         3.8072  -1.2433   2.1629 F              1 S1                 0.0000
     15 ****         1.7630  -1.9755   2.0471 F              1 S1                 0.0000
     16 ****         2.9475  -1.0700  -1.0721 C.2            1 S1                 0.0000
     17 ****         2.6674  -0.1643  -2.1516 C.2            1 S1                 0.0000
     18 ****         2.0534   1.0181  -1.9199 C.2            1 S1                 0.0000
     19 ****         1.7313   1.9777  -3.0010 C.2            1 S1                 0.0000
     20 ****         2.1122   1.5801  -4.2216 N.am           1 S1                 0.0000
     21 ****         1.1653   3.0642  -2.8831 O.2            1 S1                 0.0000
     22 ****         1.6625   1.4075  -0.5406 C.2            1 S1                 0.0000
     23 ****         1.0984   2.4694  -0.2600 O.2            1 S1                 0.0000
     24 ****        -2.8301   1.8058  -0.2569 H              1 S1                 0.0000
     25 ****        -2.9928   0.8886  -1.7505 H              1 S1                 0.0000
     26 ****        -1.4228   1.0440  -0.9939 H              1 S1                 0.0000
     27 ****        -2.3426  -1.1972  -0.5310 H              1 S1                 0.0000
     28 ****        -4.7730   0.1808   0.7076 H              1 S1                 0.0000
     29 ****        -4.5301  -1.5586   0.5503 H              1 S1                 0.0000
     30 ****        -4.7404  -0.5756  -0.8813 H              1 S1                 0.0000
     31 ****        -2.5668   0.4670   2.0062 H              1 S1                 0.0000
     32 ****        -3.3064  -1.8589   2.4387 H              1 S1                 0.0000
     33 ****        -1.7323  -1.6155   3.1606 H              1 S1                 0.0000
     34 ****        -1.8680  -2.4975   1.6436 H              1 S1                 0.0000
     35 ****        -0.2396  -0.3169   0.4283 H              1 S1                 0.0000
     36 ****         1.7738   1.9129   2.0306 H              1 S1                 0.0000
     37 ****         2.1812   0.3660   2.5916 H              1 S1                 0.0000
     38 ****         3.4308  -2.0095  -1.2957 H              1 S1                 0.0000
     39 ****         2.9614  -0.4748  -3.1434 H              1 S1                 0.0000
     40 ****         1.9359   2.1668  -5.0237 H              1 S1                 0.0000
     41 ****         2.5763   0.6901  -4.3341 H              1 S1                 0.0000
     42 ****        -1.2947   0.8220   3.5308 LP             1 S1                 0.0000
     43 ****         0.2700   1.4502   3.9270 LP             1 S1                 0.0000
     44 ****         0.8710   3.3793  -1.9808 LP             1 S1                 0.0000
     45 ****         0.9998   3.6319  -3.6895 LP             1 S1                 0.0000
     46 ****         0.8531   2.6698   0.6885 LP             1 S1                 0.0000
     47 ****         0.8869   3.1290  -0.9812 LP             1 S1                 0.0000
@<TRIPOS>BOND
    1    1    2 1     
    2    1   24 1     
    3    1   25 1     
    4    1   26 1     
    5    2    3 1     
    6    2    4 1     
    7    2   27 1     
    8    3   28 1     
    9    3   29 1     
   10    3   30 1     
   11    4    5 1     
   12    4    6 1     
   13    4   31 1     
   14    5   32 1     
   15    5   33 1     
   16    5   34 1     
   17    6    7 am    
   18    6   35 1     
   19    7    8 2     
   20    7    9 1     
   21    9   10 1     
   22    9   36 1     
   23    9   37 1     
   24   10   22 am    
   25   10   11 1     
   26   11   12 1     
   27   11   16 2     
   28   12   13 1     
   29   12   14 1     
   30   12   15 1     
   31   16   17 1     
   32   16   38 1     
   33   17   18 2     
   34   17   39 1     
   35   18   19 1     
   36   18   22 1     
   37   19   20 am    
   38   19   21 2     
   39   20   40 1     
   40   20   41 1     
   41   22   23 2     
   42    8   42 1     
   43    8   43 1     
   44   21   44 1     
   45   21   45 1     
   46   23   46 1     
   47   23   47 1     
@<TRIPOS>SUBSTRUCTURE
      1 S1             1
@<TRIPOS>SET
LONE_PAIRS      STATIC     ATOMS    <user>   **** ""
6 42 43 44 45 46 47
DONOR_HYDROGENS      STATIC     ATOMS    <user>   **** ""
3 35 40 41
ATOM$BLUE        STATIC     ATOMS    COLORGROUP SYSTEM
6 42 43 44 45 46 47
ATOM$RED        STATIC     ATOMS    COLORGROUP SYSTEM
3 35 40 41
