AV-unprocessed.smi:519|AV-procd|sdf|2796|dock1
  -GOLD-   2262023273D 1   1.00000     0.00000
 Structure written by MMmdl.
 37 39  0  0  0  0  0  0  0  0  2 V2000
  151.2919  135.9940  154.2841 O   0  0  0  0  0  0  0  0  0  0  0  0
  151.7757  137.3116  154.4422 C   0  0  0  0  0  0  0  0  0  0  0  0
  150.6887  138.3369  154.5068 C   0  0  0  0  0  0  0  0  0  0  0  0
  149.5639  138.3746  153.7365 N   0  3  0  0  0  0  0  0  0  0  0  0
  148.7904  139.4834  154.0804 C   0  0  0  0  0  0  0  0  0  0  0  0
  147.5771  139.9400  153.5746 C   0  0  0  0  0  0  0  0  0  0  0  0
  147.0560  141.1185  154.1477 C   0  0  0  0  0  0  0  0  0  0  0  0
  147.7346  141.7934  155.1829 C   0  0  0  0  0  0  0  0  0  0  0  0
  148.9622  141.3185  155.6896 C   0  0  0  0  0  0  0  0  0  0  0  0
  149.4729  140.1545  155.1152 C   0  0  0  0  0  0  0  0  0  0  0  0
  150.6386  139.4128  155.3436 N   0  0  0  0  0  0  0  0  0  0  0  0
  151.5956  139.8595  156.3669 C   0  0  0  0  0  0  0  0  0  0  0  0
  150.9122  140.1704  157.7068 C   0  0  0  0  0  0  0  0  0  0  0  0
  151.8985  140.3169  158.7198 O   0  0  0  0  0  0  0  0  0  0  0  0
  151.9863  141.5202  159.3872 C   0  0  0  0  0  0  0  0  0  0  0  0
  151.4781  142.7436  158.8805 C   0  0  0  0  0  0  0  0  0  0  0  0
  151.6082  143.9336  159.6223 C   0  0  0  0  0  0  0  0  0  0  0  0
  152.2472  143.9188  160.8753 C   0  0  0  0  0  0  0  0  0  0  0  0
  152.7551  142.7111  161.3872 C   0  0  0  0  0  0  0  0  0  0  0  0
  152.6239  141.5188  160.6486 C   0  0  0  0  0  0  0  0  0  0  0  0
  153.2524  140.0492  161.3040 Cl  0  0  0  0  0  0  0  0  0  0  0  0
  150.9860  135.8905  153.3958 H   0  0  0  0  0  0  0  0  0  0  0  0
  152.3696  137.3621  155.3551 H   0  0  0  0  0  0  0  0  0  0  0  0
  152.4386  137.5465  153.6093 H   0  0  0  0  0  0  0  0  0  0  0  0
  147.0572  139.4253  152.7800 H   0  0  0  0  0  0  0  0  0  0  0  0
  146.1185  141.5140  153.7843 H   0  0  0  0  0  0  0  0  0  0  0  0
  147.3079  142.6964  155.5949 H   0  0  0  0  0  0  0  0  0  0  0  0
  149.4772  141.8496  156.4762 H   0  0  0  0  0  0  0  0  0  0  0  0
  152.3710  139.1031  156.4888 H   0  0  0  0  0  0  0  0  0  0  0  0
  152.0951  140.7512  155.9874 H   0  0  0  0  0  0  0  0  0  0  0  0
  150.3295  141.0877  157.6124 H   0  0  0  0  0  0  0  0  0  0  0  0
  150.2274  139.3603  157.9622 H   0  0  0  0  0  0  0  0  0  0  0  0
  150.9832  142.7973  157.9228 H   0  0  0  0  0  0  0  0  0  0  0  0
  151.2171  144.8600  159.2283 H   0  0  0  0  0  0  0  0  0  0  0  0
  152.3477  144.8321  161.4430 H   0  0  0  0  0  0  0  0  0  0  0  0
  153.2462  142.7003  162.3492 H   0  0  0  0  0  0  0  0  0  0  0  0
  149.3507  137.6888  153.0235 H   0  0  0  0  0  0  0  0  0  0  0  0
  1  2  1  0  0  0  0
  1 22  1  0  0  0  0
  2  3  1  0  0  0  0
  2 23  1  0  0  0  0
  2 24  1  0  0  0  0
  3 11  1  0  0  0  0
  3  4  2  0  0  0  0
  4  5  1  0  0  0  0
  4 37  1  0  0  0  0
  5 10  2  0  0  0  0
  5  6  1  0  0  0  0
  6  7  2  0  0  0  0
  6 25  1  0  0  0  0
  7  8  1  0  0  0  0
  7 26  1  0  0  0  0
  8  9  2  0  0  0  0
  8 27  1  0  0  0  0
  9 10  1  0  0  0  0
  9 28  1  0  0  0  0
 10 11  1  0  0  0  0
 11 12  1  0  0  0  0
 12 13  1  0  0  0  0
 12 29  1  0  0  0  0
 12 30  1  0  0  0  0
 13 14  1  0  0  0  0
 13 31  1  0  0  0  0
 13 32  1  0  0  0  0
 14 15  1  0  0  0  0
 15 20  1  0  0  0  0
 15 16  2  0  0  0  0
 16 17  1  0  0  0  0
 16 33  1  0  0  0  0
 17 18  2  0  0  0  0
 17 34  1  0  0  0  0
 18 19  1  0  0  0  0
 18 35  1  0  0  0  0
 19 20  2  0  0  0  0
 19 36  1  0  0  0  0
 20 21  1  0  0  0  0
M  CHG  1   4   1
M  END
> <s_m_source_file>
AV-unprocessed.smi

> <i_m_source_file_index>
519

> <i_lp_mmshare_version>
43012

> <i_f3d_flags>
0

> <s_epik_input>
W2NIXTFbY0hdW2NIXVtjSF1jKGMxMiluKGMobjIpW0NIMl1bT0hdKVtDSDJdW0NIMl1PYzNbY0hdW2NIXVtjSF1bY0hdYzNDbA==

> <s_epik_cmdline>
J2VwaWtfcHl0aG9uJywgJy1waCcsICc3LjAnLCAnLXRuJywgJzgnLCAnLW1hJywgJzIwMCcsICctbWV0YWxfYmluZGluZycsICctaW1hZScsICc8aW5maWxlLm1hZT4nLCAnLW9tYWUnLCAnPG91dGZpbGUubWFlPic=

> <r_lp_tautomer_probability>
1

> <r_epik_Ionization_Penalty>
1.54869

> <r_epik_Ionization_Penalty_Charging>
1.54784

> <r_epik_Ionization_Penalty_Neutral>
0.000855784

> <r_epik_State_Penalty>
1.6418

> <r_epik_Charging_Adjusted_Penalty>
3.18963

> <i_epik_Tot_Q>
1

> <i_epik_Tot_abs_Q>
1

> <r_epik_Metal_State_Penalty>
5.69628

> <b_epik_Metal_Only>
0

> <s_lp_Force_Field>
OPLS_2005

> <r_lp_Energy>
16.8459

> <b_lp_Chiralities_Consistent>
1

> <s_lp_Variant>
AV-unprocessed.smi:519-2

> <Gold.Version>
5.8.1

> <Gold.Id.Protein>
6NUR|6NUR_protein|mol2

> <Gold.PLP.Fitness>
63.6486

> <Gold.PLP.PLP>
-53.6987

> <Gold.PLP.part.hbond>
-4.0000

> <Gold.PLP.part.metal>
0.0000

> <Gold.PLP.part.buried>
-0.6415

> <Gold.PLP.part.nonpolar>
-49.2799

> <Gold.PLP.part.repulsive>
0.0741

> <Gold.PLP.ligand.clash>
0.0000

> <Gold.PLP.ligand.torsion>
1.0796

> <Gold.PLP.Chemscore.Hbond>
4.0000

> <Gold.PLP.Chemscore.CHOScore>
0.0000

> <Gold.PLP.Chemscore.Metal>
0.0000

> <Gold.Chemscore.Hbonds>
donor molecule, donor type, donor heavy atom, donor atom, acceptor molecule, acceptor atom, score
      L1  H     1    22       P1  7949  0.85
      L1  H     4    37       P1  7948  2.00
      P1  H 10752 10765       L1     1  0.10

> <Gold.PLP.Chemscore.Internal.Correction>
0.1091

> <Gold.Rescore>
     Score         DG    S(hbond)    S(metal)    S(lipo)     H(rot)  DE(clash)    DE(int)     intcor
     22.47     -23.56       2.79        0.00     124.14       2.25       0.23       0.86       ----

> <Gold.Chemscore.Fitness>
22.4742

> <Gold.Chemscore.DG>
-23.5639

> <Gold.Chemscore.ZeroCoef>
-5.4800

> <Gold.Chemscore.Hbond>
2.7910

> <Gold.Chemscore.Metal>
0.0000

> <Gold.Chemscore.Lipo>
124.1411

> <Gold.Chemscore.Internal_Hbond>
0.0000

> <Gold.Chemscore.DEClash>
0.2282

> <Gold.Chemscore.DEInternal>
0.8615

> <Gold.Chemscore.Rot>
2.2510

> <Gold.Chemscore.Internal.Correction>
   9.000000E+99

> <Gold.Chemscore.Hbonds>
donor molecule, donor type, donor heavy atom, donor atom, acceptor molecule, acceptor atom, score
      L1  H     1    22       P1  7949  0.14
      L1  H     4    37       P1  7948  0.94

> <Gold.Chemscore.Hbond.Weighted>
-9.3220

> <Gold.Chemscore.Metal.Weighted>
-0.0000

> <Gold.Chemscore.Lipo.Weighted>
-14.5245

> <Gold.Chemscore.Internal_Hbond.Weighted>
0.0000

> <Gold.Chemscore.DEClash.Weighted>
0.2282

> <Gold.Chemscore.DEInternal.Weighted>
0.8615

> <Gold.Chemscore.Rot.Weighted>
5.7626

> <Gold.Chemscore.Internal.Correction.Weighted>
   9.000000E+99

> <Gold.Protein.RotatedTorsions>
[ 6907 6896 6895 6894 ] final   98.69 input  -60.11 | X-H torsion
[ 7974 7965 7964 7962 ] final  170.76 input  175.53 | X-H torsion
[ 8008 7997 7996 7995 ] final -113.97 input   59.86 | X-H torsion
[ 10167 10162 10161 10158 ] final -113.34 input  -65.29 | X-H torsion
[ 10718 10713 10712 10709 ] final  -96.28 input   66.30 | X-H torsion
[ 10763 10752 10751 10750 ] final  165.04 input  -60.55 | X-H torsion
[ 11005 11000 10999 10996 ] final -163.37 input  -57.11 | X-H torsion

> <Gold.Protein.ActiveResidues>
 VAL166  LYS551  ARG553  GLY616  TRP617  ASP618  TYR619  PRO620  LYS621  CYS622 
 ASP623  PHE694  ASN695  SER759  ASP760  ASP761  ALA762  ILE779  LEU786  VAL792 
 PHE793  MET794  SER795  GLU796  ALA797  LYS798  CYS799  TRP800  GLU811  SER814 

> <Gold.Protein.RotatedAtoms>
  152.5405  134.0542  159.8123 H   0  0  0  0  0  0  0  0  0  0  0  0  # atno 6907 bound_to 6896
  151.0679  133.5483  159.2636 H   0  0  0  0  0  0  0  0  0  0  0  0  # atno 6908 bound_to 6896
  151.2357  135.0579  159.9059 H   0  0  0  0  0  0  0  0  0  0  0  0  # atno 6909 bound_to 6896
  144.7314  139.9249  143.6422 H   0  0  0  0  0  0  0  0  0  0  0  0  # atno 7974 bound_to 7965
  155.0290  140.0393  157.2466 H   0  0  0  0  0  0  0  0  0  0  0  0  # atno 8008 bound_to 7997
  154.7313  140.2731  155.6430 H   0  0  0  0  0  0  0  0  0  0  0  0  # atno 8009 bound_to 7997
  156.2842  140.2683  156.2014 H   0  0  0  0  0  0  0  0  0  0  0  0  # atno 8010 bound_to 7997
  140.1129  143.4512  152.1741 H   0  0  0  0  0  0  0  0  0  0  0  0  # atno 10167 bound_to 10162
  156.0059  130.5145  150.6202 H   0  0  0  0  0  0  0  0  0  0  0  0  # atno 10718 bound_to 10713
  154.3180  135.2756  155.2533 H   0  0  0  0  0  0  0  0  0  0  0  0  # atno 10763 bound_to 10752
  154.4899  135.5836  153.6455 H   0  0  0  0  0  0  0  0  0  0  0  0  # atno 10764 bound_to 10752
  152.9880  135.6132  154.3362 H   0  0  0  0  0  0  0  0  0  0  0  0  # atno 10765 bound_to 10752
  140.5988  134.4968  157.5202 H   0  0  0  0  0  0  0  0  0  0  0  0  # atno 11005 bound_to 11000
  146.0901  139.3891  143.0411 LP  0  0  0  0  0  0  0  0  0  0  0  0  # atno 17320 bound_to 7965
  145.7722  140.9891  143.1143 LP  0  0  0  0  0  0  0  0  0  0  0  0  # atno 17321 bound_to 7965
  139.5610  144.7405  151.4156 LP  0  0  0  0  0  0  0  0  0  0  0  0  # atno 17342 bound_to 10162
  140.6916  143.7849  150.7263 LP  0  0  0  0  0  0  0  0  0  0  0  0  # atno 17343 bound_to 10162
  157.4019  131.0811  151.1301 LP  0  0  0  0  0  0  0  0  0  0  0  0  # atno 17370 bound_to 10713
  157.1959  130.6373  149.5721 LP  0  0  0  0  0  0  0  0  0  0  0  0  # atno 17371 bound_to 10713
  139.9241  134.8090  156.1121 LP  0  0  0  0  0  0  0  0  0  0  0  0  # atno 17394 bound_to 11000
  141.0886  133.6724  156.2490 LP  0  0  0  0  0  0  0  0  0  0  0  0  # atno 17395 bound_to 11000

$$$$
