#       Name:                AV-unprocessed.smi:2529
#       Creating user name   scv26
#       Creation time:       Fri Mar 27 14:00:11 2020


#       File generated by GOLD software.
#

@<TRIPOS>MOLECULE
AV-unprocessed.smi:2529
    49    51     1
SMALL
NO_CHARGES


@<TRIPOS>ATOM
      1 ****        -1.4158  -4.3159   2.0973 C.3            1 S1                 0.0000
      2 ****        -1.7752  -3.4236   0.9007 C.3            1 S1                 0.0000
      3 ****        -1.1097  -3.9247  -0.3932 C.3            1 S1                 0.0000
      4 ****        -1.4692  -3.0320  -1.5943 C.3            1 S1                 0.0000
      5 ****        -1.1193  -1.5410  -1.3681 C.3            1 S1                 0.0000
      6 ****        -1.7716  -0.8628  -2.4257 O.3            1 S1                 0.0000
      7 ****         0.4122  -1.2842  -1.5415 C.3            1 S1                 0.0000
      8 ****         0.9042   0.0060  -1.0128 N.am           1 S1                 0.0000
      9 ****         0.6473   1.1398  -1.8099 C.2            1 S1                 0.0000
     10 ****         1.0157   2.3282  -1.4523 N.2            1 S1                 0.0000
     11 ****         1.7036   2.5098  -0.2480 C.2            1 S1                 0.0000
     12 ****         2.0688   3.9336   0.1482 C.3            1 S1                 0.0000
     13 ****         1.8079   4.3100   1.6161 C.3            1 S1                 0.0000
     14 ****         1.3624   5.6886   1.1154 C.3            1 S1                 0.0000
     15 ****         1.0544   5.0258  -0.2319 C.3            1 S1                 0.0000
     16 ****         2.0046   1.4497   0.5380 C.2            1 S1                 0.0000
     17 ****         1.6221   0.0928   0.1475 C.2            1 S1                 0.0000
     18 ****         1.9292  -0.8914   0.8194 O.2            1 S1                 0.0000
     19 ****        -1.7486  -1.0538  -0.0376 C.3            1 S1                 0.0000
     20 ****        -1.3972  -1.9546   1.1597 C.3            1 S1                 0.0000
     21 ****        -0.3420  -4.3100   2.2876 H              1 S1                 0.0000
     22 ****        -1.7172  -5.3489   1.9209 H              1 S1                 0.0000
     23 ****        -1.9162  -3.9773   3.0049 H              1 S1                 0.0000
     24 ****        -2.8567  -3.4746   0.7658 H              1 S1                 0.0000
     25 ****        -0.0282  -3.9652  -0.2629 H              1 S1                 0.0000
     26 ****        -1.4267  -4.9479  -0.5979 H              1 S1                 0.0000
     27 ****        -0.9768  -3.4057  -2.4931 H              1 S1                 0.0000
     28 ****        -2.5409  -3.1333  -1.7759 H              1 S1                 0.0000
     29 ****        -1.4613  -1.2157  -3.2456 H              1 S1                 0.0000
     30 ****         0.9614  -2.0992  -1.0716 H              1 S1                 0.0000
     31 ****         0.6876  -1.3734  -2.5947 H              1 S1                 0.0000
     32 ****         0.1202   0.9449  -2.7450 H              1 S1                 0.0000
     33 ****         3.0821   4.1930  -0.1640 H              1 S1                 0.0000
     34 ****         0.9899   3.7479   2.0708 H              1 S1                 0.0000
     35 ****         2.6944   4.3189   2.2509 H              1 S1                 0.0000
     36 ****         0.4953   6.1045   1.6291 H              1 S1                 0.0000
     37 ****         2.1837   6.4050   1.0573 H              1 S1                 0.0000
     38 ****         1.3263   5.6176  -1.1062 H              1 S1                 0.0000
     39 ****         0.0248   4.6675  -0.2903 H              1 S1                 0.0000
     40 ****         2.5330   1.5984   1.4684 H              1 S1                 0.0000
     41 ****        -1.4759  -0.0203   0.1760 H              1 S1                 0.0000
     42 ****        -2.8351  -1.0491  -0.1398 H              1 S1                 0.0000
     43 ****        -1.9142  -1.5904   2.0481 H              1 S1                 0.0000
     44 ****        -0.3345  -1.8882   1.3813 H              1 S1                 0.0000
     45 ****        -1.5635   0.1142  -2.3789 LP             1 S1                 0.0000
     46 ****        -2.7599  -0.9969  -2.3534 LP             1 S1                 0.0000
     47 ****         0.8091   3.1140  -2.0353 LP             1 S1                 0.0000
     48 ****         1.6522  -1.8054   0.5230 LP             1 S1                 0.0000
     49 ****         2.4558  -0.7771   1.6618 LP             1 S1                 0.0000
@<TRIPOS>BOND
    1    1    2 1     
    2    1   21 1     
    3    1   22 1     
    4    1   23 1     
    5    2   20 1     
    6    2    3 1     
    7    2   24 1     
    8    3    4 1     
    9    3   25 1     
   10    3   26 1     
   11    4    5 1     
   12    4   27 1     
   13    4   28 1     
   14    5    6 1     
   15    5    7 1     
   16    5   19 1     
   17    6   29 1     
   18    7    8 1     
   19    7   30 1     
   20    7   31 1     
   21    8   17 am    
   22    8    9 1     
   23    9   10 2     
   24    9   32 1     
   25   10   11 1     
   26   11   12 1     
   27   11   16 2     
   28   12   15 1     
   29   12   13 1     
   30   12   33 1     
   31   13   14 1     
   32   13   34 1     
   33   13   35 1     
   34   14   15 1     
   35   14   36 1     
   36   14   37 1     
   37   15   38 1     
   38   15   39 1     
   39   16   17 1     
   40   16   40 1     
   41   17   18 2     
   42   19   20 1     
   43   19   41 1     
   44   19   42 1     
   45   20   43 1     
   46   20   44 1     
   47    6   45 1     
   48    6   46 1     
   49   10   47 1     
   50   18   48 1     
   51   18   49 1     
@<TRIPOS>SUBSTRUCTURE
      1 S1             1
@<TRIPOS>SET
LONE_PAIRS      STATIC     ATOMS    <user>   **** ""
5 45 46 47 48 49
DONOR_HYDROGENS      STATIC     ATOMS    <user>   **** ""
1 29
ATOM$BLUE        STATIC     ATOMS    COLORGROUP SYSTEM
5 45 46 47 48 49
ATOM$RED        STATIC     ATOMS    COLORGROUP SYSTEM
1 29
