#       Name:                AV-unprocessed.smi:1033
#       Creating user name   scv26
#       Creation time:       Fri Mar 27 02:50:03 2020


#       File generated by GOLD software.
#

@<TRIPOS>MOLECULE
AV-unprocessed.smi:1033
    62    64     1
SMALL
NO_CHARGES


@<TRIPOS>ATOM
      1 ****        -4.0766   2.3788  -4.8374 C.3            1 S1                 0.0000
      2 ****        -3.8772   1.8753  -3.4179 C.ar           1 S1                 0.0000
      3 ****        -4.9898   1.3405  -2.7293 C.ar           1 S1                 0.0000
      4 ****        -4.7761   0.8902  -1.4319 C.ar           1 S1                 0.0000
      5 ****        -5.6508   0.3217  -0.5028 N.pl3          1 S1                 1.0000
      6 ****        -4.9745   0.0407   0.6457 C.2            1 S1                 0.0000
      7 ****        -3.6799   0.4172   0.4605 N.pl3          1 S1                 0.0000
      8 ****        -2.5309   0.3401   1.3712 C.3            1 S1                 0.0000
      9 ****        -1.6052  -0.8550   1.0652 C.3            1 S1                 0.0000
     10 ****        -2.3422  -2.0534   1.1940 O.3            1 S1                 0.0000
     11 ****        -0.4017  -0.9320   2.0241 C.3            1 S1                 0.0000
     12 ****         0.5354   0.1953   1.9481 N.3            1 S1                 0.0000
     13 ****         1.5003   0.2029   3.0471 C.3            1 S1                 0.0000
     14 ****         2.5641  -0.9083   2.9323 C.3            1 S1                 0.0000
     15 ****         3.2869  -0.8034   1.6385 N.4            1 S1                 1.0000
     16 ****         4.3726  -1.8095   1.5132 C.3            1 S1                 0.0000
     17 ****         5.4577  -1.3918   0.5010 C.3            1 S1                 0.0000
     18 ****         6.5102  -2.4896   0.2986 C.3            1 S1                 0.0000
     19 ****         6.1157  -0.2337   0.9742 O.3            1 S1                 0.0000
     20 ****         2.3284  -0.8114   0.5008 C.3            1 S1                 0.0000
     21 ****         1.2715   0.2967   0.6849 C.3            1 S1                 0.0000
     22 ****        -3.5106   0.9568  -0.8182 C.ar           1 S1                 0.0000
     23 ****        -2.4039   1.4811  -1.4810 C.ar           1 S1                 0.0000
     24 ****        -2.6006   1.9446  -2.8015 C.ar           1 S1                 0.0000
     25 ****        -1.4119   2.5219  -3.5506 C.3            1 S1                 0.0000
     26 ****        -5.1063   2.2411  -5.1689 H              1 S1                 0.0000
     27 ****        -3.4301   1.8400  -5.5303 H              1 S1                 0.0000
     28 ****        -3.8453   3.4423  -4.9022 H              1 S1                 0.0000
     29 ****        -5.9644   1.2853  -3.1921 H              1 S1                 0.0000
     30 ****        -5.3891  -0.4026   1.5399 H              1 S1                 0.0000
     31 ****        -1.9881   1.2844   1.3136 H              1 S1                 0.0000
     32 ****        -2.9204   0.2698   2.3879 H              1 S1                 0.0000
     33 ****        -1.2628  -0.8096   0.0322 H              1 S1                 0.0000
     34 ****        -3.0574  -2.0331   0.5766 H              1 S1                 0.0000
     35 ****        -0.7916  -0.9976   3.0409 H              1 S1                 0.0000
     36 ****         0.1275  -1.8696   1.8550 H              1 S1                 0.0000
     37 ****         2.0028   1.1708   3.0718 H              1 S1                 0.0000
     38 ****         0.9775   0.1176   4.0003 H              1 S1                 0.0000
     39 ****         3.2736  -0.8094   3.7547 H              1 S1                 0.0000
     40 ****         2.1100  -1.8956   3.0270 H              1 S1                 0.0000
     41 ****         4.8457  -1.9613   2.4851 H              1 S1                 0.0000
     42 ****         3.9386  -2.7711   1.2344 H              1 S1                 0.0000
     43 ****         5.0141  -1.1619  -0.4669 H              1 S1                 0.0000
     44 ****         6.0539  -3.4018  -0.0875 H              1 S1                 0.0000
     45 ****         7.0119  -2.7402   1.2340 H              1 S1                 0.0000
     46 ****         7.2732  -2.1771  -0.4153 H              1 S1                 0.0000
     47 ****         6.6053  -0.4578   1.7514 H              1 S1                 0.0000
     48 ****         2.8549  -0.6383  -0.4368 H              1 S1                 0.0000
     49 ****         1.8553  -1.7903   0.4152 H              1 S1                 0.0000
     50 ****         0.5861   0.3015  -0.1611 H              1 S1                 0.0000
     51 ****         1.7746   1.2641   0.6497 H              1 S1                 0.0000
     52 ****        -1.4336   1.5343  -1.0102 H              1 S1                 0.0000
     53 ****        -0.5055   2.4917  -2.9451 H              1 S1                 0.0000
     54 ****        -1.5986   3.5618  -3.8201 H              1 S1                 0.0000
     55 ****        -1.2216   1.9558  -4.4626 H              1 S1                 0.0000
     56 ****         3.7353   0.1020   1.6405 H              1 S1                 0.0000
     57 ****        -6.6370   0.1397  -0.6391 H              1 S1                 0.0000
     58 ****        -2.7014  -2.1303   2.1241 LP             1 S1                 0.0000
     59 ****        -1.7506  -2.8359   0.9994 LP             1 S1                 0.0000
     60 ****        -0.0658   0.9916   2.0155 LP             1 S1                 0.0000
     61 ****         5.4405   0.4705   1.1936 LP             1 S1                 0.0000
     62 ****         6.7390   0.1095   0.2716 LP             1 S1                 0.0000
@<TRIPOS>BOND
    1    1    2 1     
    2    1   26 1     
    3    1   27 1     
    4    1   28 1     
    5    2   24 ar    
    6    2    3 ar    
    7    3    4 ar    
    8    3   29 1     
    9    4   22 ar    
   10    4    5 1     
   11    5    6 2     
   12    5   57 1     
   13    6    7 1     
   14    6   30 1     
   15    7    8 1     
   16    7   22 1     
   17    8    9 1     
   18    8   31 1     
   19    8   32 1     
   20    9   10 1     
   21    9   11 1     
   22    9   33 1     
   23   10   34 1     
   24   11   12 1     
   25   11   35 1     
   26   11   36 1     
   27   12   21 1     
   28   12   13 1     
   29   13   14 1     
   30   13   37 1     
   31   13   38 1     
   32   14   15 1     
   33   14   39 1     
   34   14   40 1     
   35   15   16 1     
   36   15   20 1     
   37   15   56 1     
   38   16   17 1     
   39   16   41 1     
   40   16   42 1     
   41   17   18 1     
   42   17   19 1     
   43   17   43 1     
   44   18   44 1     
   45   18   45 1     
   46   18   46 1     
   47   19   47 1     
   48   20   21 1     
   49   20   48 1     
   50   20   49 1     
   51   21   50 1     
   52   21   51 1     
   53   22   23 ar    
   54   23   24 ar    
   55   23   52 1     
   56   24   25 1     
   57   25   53 1     
   58   25   54 1     
   59   25   55 1     
   60   10   58 1     
   61   10   59 1     
   62   12   60 1     
   63   19   61 1     
   64   19   62 1     
@<TRIPOS>SUBSTRUCTURE
      1 S1             1
@<TRIPOS>SET
LONE_PAIRS      STATIC     ATOMS    <user>   **** ""
5 58 59 60 61 62
DONOR_HYDROGENS      STATIC     ATOMS    <user>   **** ""
4 57 34 56 47
ATOM$BLUE        STATIC     ATOMS    COLORGROUP SYSTEM
5 58 59 60 61 62
ATOM$RED        STATIC     ATOMS    COLORGROUP SYSTEM
4 57 34 56 47
