AV-unprocessed.smi:523|AV-procd|sdf|2803|dock5
  -GOLD-   2262023283D 1   1.00000     0.00000
 Structure written by MMmdl.
 41 43  0  0  0  0  0  0  0  0  1 V2000
  149.2879  139.9935  154.5461 C   0  0  0  0  0  0  0  0  0  0  0  0
  150.6006  140.2974  154.9813 O   0  0  0  0  0  0  0  0  0  0  0  0
  150.6426  141.4248  155.8411 C   0  0  0  0  0  0  0  0  0  0  0  0
  150.0271  141.0661  157.2005 C   0  0  0  0  0  0  0  0  0  0  0  0
  151.0532  140.7939  158.2057 N   0  0  0  0  0  0  0  0  0  0  0  0
  151.7861  141.6836  158.9302 C   0  0  0  0  0  0  0  0  0  0  0  0
  151.6044  143.0625  158.8210 N   0  0  0  0  0  0  0  0  0  0  0  0
  152.6422  144.0710  158.6258 C   0  0  0  0  0  0  0  0  0  0  0  0
  152.4525  145.2463  159.6015 C   0  0  0  0  0  0  0  0  0  0  0  0
  151.1715  145.8282  159.3866 O   0  0  0  0  0  0  0  0  0  0  0  0
  150.1221  144.8846  159.5725 C   0  0  0  0  0  0  0  0  0  0  0  0
  150.3130  143.7045  158.6021 C   0  0  0  0  0  0  0  0  0  0  0  0
  152.7212  141.1319  159.7081 N   0  0  0  0  0  0  0  0  0  0  0  0
  152.5560  139.7743  159.4841 C   0  0  0  0  0  0  0  0  0  0  0  0
  151.5667  139.5498  158.5818 C   0  0  0  0  0  0  0  0  0  0  0  0
  151.2130  138.1972  158.1256 C   0  0  0  0  0  0  0  0  0  0  0  0
  150.3334  137.9643  157.2996 O   0  0  0  0  0  0  0  0  0  0  0  0
  151.9621  137.2273  158.7039 N   0  0  0  0  0  0  0  0  0  0  0  0
  152.9654  137.3856  159.6194 C   0  0  0  0  0  0  0  0  0  0  0  0
  153.5641  136.4012  160.0525 O   0  0  0  0  0  0  0  0  0  0  0  0
  153.2666  138.6622  160.0196 N   0  0  0  0  0  0  0  0  0  0  0  0
  154.3361  138.8907  160.9929 C   0  0  0  0  0  0  0  0  0  0  0  0
  151.7596  136.2789  158.4229 H   0  0  0  0  0  0  0  0  0  0  0  0
  149.3122  139.1223  153.8918 H   0  0  0  0  0  0  0  0  0  0  0  0
  148.8566  140.8239  153.9854 H   0  0  0  0  0  0  0  0  0  0  0  0
  148.6363  139.7635  155.3899 H   0  0  0  0  0  0  0  0  0  0  0  0
  151.6754  141.7496  155.9768 H   0  0  0  0  0  0  0  0  0  0  0  0
  150.0958  142.2566  155.3954 H   0  0  0  0  0  0  0  0  0  0  0  0
  149.3774  141.8694  157.5350 H   0  0  0  0  0  0  0  0  0  0  0  0
  149.3706  140.2045  157.1026 H   0  0  0  0  0  0  0  0  0  0  0  0
  153.6328  143.6310  158.7314 H   0  0  0  0  0  0  0  0  0  0  0  0
  152.5903  144.4346  157.5986 H   0  0  0  0  0  0  0  0  0  0  0  0
  152.5482  144.9186  160.6376 H   0  0  0  0  0  0  0  0  0  0  0  0
  153.2174  146.0042  159.4330 H   0  0  0  0  0  0  0  0  0  0  0  0
  150.1080  144.5390  160.6075 H   0  0  0  0  0  0  0  0  0  0  0  0
  149.1669  145.3754  159.3862 H   0  0  0  0  0  0  0  0  0  0  0  0
  150.2451  144.0451  157.5680 H   0  0  0  0  0  0  0  0  0  0  0  0
  149.5130  142.9779  158.7475 H   0  0  0  0  0  0  0  0  0  0  0  0
  154.1745  138.2965  161.8936 H   0  0  0  0  0  0  0  0  0  0  0  0
  154.4044  139.9329  161.3037 H   0  0  0  0  0  0  0  0  0  0  0  0
  155.3006  138.6093  160.5679 H   0  0  0  0  0  0  0  0  0  0  0  0
  1  2  1  0  0  0  0
  1 24  1  0  0  0  0
  1 25  1  0  0  0  0
  1 26  1  0  0  0  0
  2  3  1  0  0  0  0
  3  4  1  0  0  0  0
  3 27  1  0  0  0  0
  3 28  1  0  0  0  0
  4  5  1  0  0  0  0
  4 29  1  0  0  0  0
  4 30  1  0  0  0  0
  5 15  1  0  0  0  0
  5  6  1  0  0  0  0
  6  7  1  0  0  0  0
  6 13  2  0  0  0  0
  7 12  1  0  0  0  0
  7  8  1  0  0  0  0
  8  9  1  0  0  0  0
  8 31  1  0  0  0  0
  8 32  1  0  0  0  0
  9 10  1  0  0  0  0
  9 33  1  0  0  0  0
  9 34  1  0  0  0  0
 10 11  1  0  0  0  0
 11 12  1  0  0  0  0
 11 35  1  0  0  0  0
 11 36  1  0  0  0  0
 12 37  1  0  0  0  0
 12 38  1  0  0  0  0
 13 14  1  0  0  0  0
 14 21  1  0  0  0  0
 14 15  2  0  0  0  0
 15 16  1  0  0  0  0
 16 17  2  0  0  0  0
 16 18  1  0  0  0  0
 18 23  1  0  0  0  0
 18 19  1  0  0  0  0
 19 20  2  0  0  0  0
 19 21  1  0  0  0  0
 21 22  1  0  0  0  0
 22 39  1  0  0  0  0
 22 40  1  0  0  0  0
 22 41  1  0  0  0  0
M  END
> <s_m_source_file>
AV-unprocessed.smi

> <i_m_source_file_index>
523

> <i_lp_mmshare_version>
43012

> <i_f3d_flags>
0

> <s_epik_input>
W0NIM11uMWMoPU8pW25IXWMoPU8pYyhjMTIpbihbQ0gyXVtDSDJdT1tDSDNdKWMobjIpTjNbQ0gyXVtDSDJdT1tDSDJdW0NIMl0z

> <s_epik_cmdline>
J2VwaWtfcHl0aG9uJywgJy1waCcsICc3LjAnLCAnLXRuJywgJzgnLCAnLW1hJywgJzIwMCcsICctbWV0YWxfYmluZGluZycsICctaW1hZScsICc8aW5maWxlLm1hZT4nLCAnLW9tYWUnLCAnPG91dGZpbGUubWFlPic=

> <r_lp_tautomer_probability>
1

> <r_epik_Ionization_Penalty>
0.000208431

> <r_epik_Ionization_Penalty_Charging>
0.000208146

> <r_epik_Ionization_Penalty_Neutral>
2.85359e-07

> <r_epik_State_Penalty>
-0

> <r_epik_Charging_Adjusted_Penalty>
0.000208146

> <i_epik_Tot_Q>
0

> <i_epik_Tot_abs_Q>
0

> <r_epik_Metal_State_Penalty>
0.136977

> <b_epik_Metal_Only>
0

> <s_lp_Force_Field>
OPLS_2005

> <r_lp_Energy>
38.6509

> <b_lp_Chiralities_Consistent>
1

> <s_lp_Variant>
AV-unprocessed.smi:523-1

> <Gold.Version>
5.8.1

> <Gold.Id.Protein>
6NUR|6NUR_protein|mol2

> <Gold.PLP.Fitness>
41.5685

> <Gold.PLP.PLP>
-37.6911

> <Gold.PLP.part.hbond>
-3.6478

> <Gold.PLP.part.metal>
0.0000

> <Gold.PLP.part.buried>
-6.6172

> <Gold.PLP.part.nonpolar>
-27.9879

> <Gold.PLP.part.repulsive>
0.3875

> <Gold.PLP.ligand.clash>
0.0000

> <Gold.PLP.ligand.torsion>
1.2784

> <Gold.PLP.Chemscore.Hbond>
1.9913

> <Gold.PLP.Chemscore.CHOScore>
0.0000

> <Gold.PLP.Chemscore.Metal>
0.0000

> <Gold.Chemscore.Hbonds>
donor molecule, donor type, donor heavy atom, donor atom, acceptor molecule, acceptor atom, score
      P1  H  6896  6907       L1    20  1.00
      P1  H  7989  7998       L1     2  1.00

> <Gold.PLP.Chemscore.Internal.Correction>
0.4605

> <Gold.Rescore>
     Score         DG    S(hbond)    S(metal)    S(lipo)     H(rot)  DE(clash)    DE(int)     intcor
     12.75     -15.22       1.71        0.00      68.18       1.53       0.15       2.33       ----

> <Gold.Chemscore.Fitness>
12.7507

> <Gold.Chemscore.DG>
-15.2243

> <Gold.Chemscore.ZeroCoef>
-5.4800

> <Gold.Chemscore.Hbond>
1.7056

> <Gold.Chemscore.Metal>
0.0000

> <Gold.Chemscore.Lipo>
68.1750

> <Gold.Chemscore.Internal_Hbond>
0.0000

> <Gold.Chemscore.DEClash>
0.1461

> <Gold.Chemscore.DEInternal>
2.3274

> <Gold.Chemscore.Rot>
1.5348

> <Gold.Chemscore.Internal.Correction>
   9.000000E+99

> <Gold.Chemscore.Hbonds>
donor molecule, donor type, donor heavy atom, donor atom, acceptor molecule, acceptor atom, score
      P1  H  6896  6907       L1    20  0.63
      P1  H  7989  7998       L1     2  0.24

> <Gold.Chemscore.Hbond.Weighted>
-5.6968

> <Gold.Chemscore.Metal.Weighted>
-0.0000

> <Gold.Chemscore.Lipo.Weighted>
-7.9765

> <Gold.Chemscore.Internal_Hbond.Weighted>
0.0000

> <Gold.Chemscore.DEClash.Weighted>
0.1461

> <Gold.Chemscore.DEInternal.Weighted>
2.3274

> <Gold.Chemscore.Rot.Weighted>
3.9290

> <Gold.Chemscore.Internal.Correction.Weighted>
   9.000000E+99

> <Gold.Protein.RotatedTorsions>
[ 6907 6896 6895 6894 ] final   47.78 input  -60.11 | X-H torsion
[ 7974 7965 7964 7962 ] final  143.99 input  175.53 | X-H torsion
[ 8008 7997 7996 7995 ] final   13.58 input   59.86 | X-H torsion
[ 10167 10162 10161 10158 ] final -141.14 input  -65.29 | X-H torsion
[ 10718 10713 10712 10709 ] final   53.31 input   66.30 | X-H torsion
[ 10763 10752 10751 10750 ] final -151.64 input  -60.55 | X-H torsion
[ 11005 11000 10999 10996 ] final  -10.85 input  -57.11 | X-H torsion

> <Gold.Protein.ActiveResidues>
 VAL166  LYS551  ARG553  GLY616  TRP617  ASP618  TYR619  PRO620  LYS621  CYS622 
 ASP623  PHE694  ASN695  SER759  ASP760  ASP761  ALA762  ILE779  LEU786  VAL792 
 PHE793  MET794  SER795  GLU796  ALA797  LYS798  CYS799  TRP800  GLU811  SER814 

> <Gold.Protein.RotatedAtoms>
  152.2720  134.7922  160.0412 H   0  0  0  0  0  0  0  0  0  0  0  0  # atno 6907 bound_to 6896
  151.8532  133.3438  159.3688 H   0  0  0  0  0  0  0  0  0  0  0  0  # atno 6908 bound_to 6896
  150.7155  134.5207  159.5696 H   0  0  0  0  0  0  0  0  0  0  0  0  # atno 6909 bound_to 6896
  144.8873  139.5609  143.5815 H   0  0  0  0  0  0  0  0  0  0  0  0  # atno 7974 bound_to 7965
  154.8364  140.2907  155.5688 H   0  0  0  0  0  0  0  0  0  0  0  0  # atno 8008 bound_to 7997
  156.3009  140.2522  156.3230 H   0  0  0  0  0  0  0  0  0  0  0  0  # atno 8009 bound_to 7997
  154.9174  140.0387  157.1968 H   0  0  0  0  0  0  0  0  0  0  0  0  # atno 8010 bound_to 7997
  139.8213  143.7570  152.2666 H   0  0  0  0  0  0  0  0  0  0  0  0  # atno 10167 bound_to 10162
  157.5155  130.8529  149.8490 H   0  0  0  0  0  0  0  0  0  0  0  0  # atno 10718 bound_to 10713
  154.8045  135.3255  154.7466 H   0  0  0  0  0  0  0  0  0  0  0  0  # atno 10763 bound_to 10752
  153.8128  135.6894  153.4843 H   0  0  0  0  0  0  0  0  0  0  0  0  # atno 10764 bound_to 10752
  153.1781  135.4597  154.9937 H   0  0  0  0  0  0  0  0  0  0  0  0  # atno 10765 bound_to 10752
  140.7491  133.8607  155.9030 H   0  0  0  0  0  0  0  0  0  0  0  0  # atno 11005 bound_to 11000
  146.3032  139.7495  142.9075 LP  0  0  0  0  0  0  0  0  0  0  0  0  # atno 17320 bound_to 7965
  145.3845  141.0363  143.3158 LP  0  0  0  0  0  0  0  0  0  0  0  0  # atno 17321 bound_to 7965
  139.7749  144.7464  151.0171 LP  0  0  0  0  0  0  0  0  0  0  0  0  # atno 17342 bound_to 10162
  140.7813  143.4605  151.0285 LP  0  0  0  0  0  0  0  0  0  0  0  0  # atno 17343 bound_to 10162
  156.0317  130.3762  150.1669 LP  0  0  0  0  0  0  0  0  0  0  0  0  # atno 17370 bound_to 10713
  156.9858  130.9878  151.3426 LP  0  0  0  0  0  0  0  0  0  0  0  0  # atno 17371 bound_to 10713
  140.9767  134.1459  157.4530 LP  0  0  0  0  0  0  0  0  0  0  0  0  # atno 17394 bound_to 11000
  139.8791  134.9997  156.5969 LP  0  0  0  0  0  0  0  0  0  0  0  0  # atno 17395 bound_to 11000

$$$$
