#       Name:                AV-unprocessed.smi:99
#       Creating user name   scv26
#       Creation time:       Thu Mar 26 17:36:42 2020


#       File generated by GOLD software.
#

@<TRIPOS>MOLECULE
AV-unprocessed.smi:99
    65    68     1
SMALL
NO_CHARGES


@<TRIPOS>ATOM
      1 ****        -2.5855   0.7561   0.4679 O.2            1 S1                 0.0000
      2 ****        -1.8601   1.7014   0.1525 C.2            1 S1                 0.0000
      3 ****        -0.5830   1.5597  -0.2511 O.3            1 S1                 0.0000
      4 ****         0.0159   0.2754  -0.2696 C.3            1 S1                 0.0000
      5 ****         1.5297   0.4229  -0.5210 C.3            1 S1                 0.0000
      6 ****         2.1684   1.0585   0.5833 O.3            1 S1                 0.0000
      7 ****         2.5425   0.1267   1.5606 C.3            1 S1                 0.0000
      8 ****         1.5606   0.1940   2.7227 N.am           1 S1                 0.0000
      9 ****         0.6509   1.2358   2.8323 C.2            1 S1                 0.0000
     10 ****        -0.2024   1.3257   3.8724 C.2            1 S1                 0.0000
     11 ****        -0.1538   0.3182   4.9261 C.2            1 S1                 0.0000
     12 ****        -0.9652   0.3792   5.8476 O.2            1 S1                 0.0000
     13 ****         0.8046  -0.6482   4.8434 N.pl3          1 S1                -1.0000
     14 ****         1.6833  -0.7270   3.8020 C.2            1 S1                 0.0000
     15 ****         2.5912  -1.5570   3.7576 O.2            1 S1                 0.0000
     16 ****         2.5462  -1.2532   0.8573 C.3            1 S1                 0.0000
     17 ****         3.7996  -1.8957   0.9630 O.3            1 S1                 0.0000
     18 ****         2.2827  -0.9074  -0.6016 C.3            1 S1                 0.0000
     19 ****         1.5231  -1.9376  -1.2234 O.3            1 S1                 0.0000
     20 ****         1.5098  -2.0711  -2.5662 C.2            1 S1                 0.0000
     21 ****         2.1308  -1.3326  -3.3330 O.2            1 S1                 0.0000
     22 ****         0.6540  -3.2027  -3.0251 C.ar           1 S1                 0.0000
     23 ****         0.5452  -3.4733  -4.4092 C.ar           1 S1                 0.0000
     24 ****        -0.2552  -4.5361  -4.8713 C.ar           1 S1                 0.0000
     25 ****        -0.9577  -5.3404  -3.9551 C.ar           1 S1                 0.0000
     26 ****        -0.8591  -5.0803  -2.5759 C.ar           1 S1                 0.0000
     27 ****        -0.0588  -4.0184  -2.1117 C.ar           1 S1                 0.0000
     28 ****        -2.3018   3.1250   0.1846 C.ar           1 S1                 0.0000
     29 ****        -3.6301   3.4299   0.5622 C.ar           1 S1                 0.0000
     30 ****        -4.0743   4.7656   0.6069 C.ar           1 S1                 0.0000
     31 ****        -3.1951   5.8129   0.2757 C.ar           1 S1                 0.0000
     32 ****        -1.8709   5.5228  -0.1004 C.ar           1 S1                 0.0000
     33 ****        -1.4249   4.1876  -0.1461 C.ar           1 S1                 0.0000
     34 ****        -0.1744  -0.2580   0.6622 H              1 S1                 0.0000
     35 ****        -0.4454  -0.3037  -1.0702 H              1 S1                 0.0000
     36 ****         1.6892   1.0060  -1.4285 H              1 S1                 0.0000
     37 ****         3.5005   0.4112   1.9990 H              1 S1                 0.0000
     38 ****         0.6111   2.0105   2.0828 H              1 S1                 0.0000
     39 ****        -0.9038   2.1449   3.9341 H              1 S1                 0.0000
     40 ****         1.7479  -1.8847   1.2502 H              1 S1                 0.0000
     41 ****         3.9560  -2.0812   1.8774 H              1 S1                 0.0000
     42 ****         3.2347  -0.7505  -1.1124 H              1 S1                 0.0000
     43 ****         1.0747  -2.8689  -5.1318 H              1 S1                 0.0000
     44 ****        -0.3301  -4.7340  -5.9304 H              1 S1                 0.0000
     45 ****        -1.5710  -6.1554  -4.3100 H              1 S1                 0.0000
     46 ****        -1.3980  -5.6965  -1.8712 H              1 S1                 0.0000
     47 ****        -0.0059  -3.8468  -1.0464 H              1 S1                 0.0000
     48 ****        -4.3230   2.6424   0.8219 H              1 S1                 0.0000
     49 ****        -5.0911   4.9863   0.8958 H              1 S1                 0.0000
     50 ****        -3.5359   6.8372   0.3105 H              1 S1                 0.0000
     51 ****        -1.1947   6.3258  -0.3543 H              1 S1                 0.0000
     52 ****        -0.4015   4.0004  -0.4366 H              1 S1                 0.0000
     53 ****        -2.2325  -0.1789   0.4316 LP             1 S1                 0.0000
     54 ****        -3.5270   0.9241   0.7601 LP             1 S1                 0.0000
     55 ****         1.5369   1.7196   0.9884 LP             1 S1                 0.0000
     56 ****         2.9853   1.5343   0.2573 LP             1 S1                 0.0000
     57 ****        -1.6454   1.1119   5.8672 LP             1 S1                 0.0000
     58 ****        -0.9450  -0.3040   6.5776 LP             1 S1                 0.0000
     59 ****         0.8662  -1.3267   5.5754 LP             1 S1                 0.0000
     60 ****         3.2176  -1.5717   2.9782 LP             1 S1                 0.0000
     61 ****         2.7024  -2.2167   4.5009 LP             1 S1                 0.0000
     62 ****         4.5188  -1.2972   0.6101 LP             1 S1                 0.0000
     63 ****         3.7893  -2.7483   0.4405 LP             1 S1                 0.0000
     64 ****         2.6840  -0.5840  -2.9676 LP             1 S1                 0.0000
     65 ****         2.0815  -1.4821  -4.3205 LP             1 S1                 0.0000
@<TRIPOS>BOND
    1    1    2 2     
    2    2    3 1     
    3    2   28 1     
    4    3    4 1     
    5    4    5 1     
    6    4   34 1     
    7    4   35 1     
    8    5   18 1     
    9    5    6 1     
   10    5   36 1     
   11    6    7 1     
   12    7    8 1     
   13    7   16 1     
   14    7   37 1     
   15    8   14 am    
   16    8    9 1     
   17    9   10 2     
   18    9   38 1     
   19   10   11 1     
   20   10   39 1     
   21   11   12 2     
   22   11   13 1     
   23   13   14 1     
   24   14   15 2     
   25   16   17 1     
   26   16   18 1     
   27   16   40 1     
   28   17   41 1     
   29   18   19 1     
   30   18   42 1     
   31   19   20 1     
   32   20   21 2     
   33   20   22 1     
   34   22   27 ar    
   35   22   23 ar    
   36   23   24 ar    
   37   23   43 1     
   38   24   25 ar    
   39   24   44 1     
   40   25   26 ar    
   41   25   45 1     
   42   26   27 ar    
   43   26   46 1     
   44   27   47 1     
   45   28   33 ar    
   46   28   29 ar    
   47   29   30 ar    
   48   29   48 1     
   49   30   31 ar    
   50   30   49 1     
   51   31   32 ar    
   52   31   50 1     
   53   32   33 ar    
   54   32   51 1     
   55   33   52 1     
   56    1   53 1     
   57    1   54 1     
   58    6   55 1     
   59    6   56 1     
   60   12   57 1     
   61   12   58 1     
   62   13   59 1     
   63   15   60 1     
   64   15   61 1     
   65   17   62 1     
   66   17   63 1     
   67   21   64 1     
   68   21   65 1     
@<TRIPOS>SUBSTRUCTURE
      1 S1             1
@<TRIPOS>SET
LONE_PAIRS      STATIC     ATOMS    <user>   **** ""
13 53 54 55 56 57 58 59 60 61 62 63 64 65
DONOR_HYDROGENS      STATIC     ATOMS    <user>   **** ""
1 41
ATOM$BLUE        STATIC     ATOMS    COLORGROUP SYSTEM
13 53 54 55 56 57 58 59 60 61 62 63 64 65
ATOM$RED        STATIC     ATOMS    COLORGROUP SYSTEM
1 41
