AV-unprocessed.smi:1479|AV-procd|sdf|5983|dock3
  -GOLD-   22720 6 73D 1   1.00000     0.00000
 Structure written by MMmdl.
 40 41  0  0  0  0  0  0  0  0  1 V2000
  150.0459  132.2666  155.5797 C   0  0  0  0  0  0  0  0  0  0  0  0
  150.2182  133.7894  156.5959 S   0  0  0  0  0  0  0  0  0  0  0  0
  149.3106  133.6805  157.7481 O   0  0  0  0  0  0  0  0  0  0  0  0
  151.6497  134.0415  156.8214 O   0  0  0  0  0  0  0  0  0  0  0  0
  149.5702  135.0847  155.4492 C   0  0  0  0  0  0  0  0  0  0  0  0
  150.6364  136.1361  155.1078 C   0  0  0  0  0  0  0  0  0  0  0  0
  150.0637  137.1993  154.2985 N   0  0  0  0  0  0  0  0  0  0  0  0
  151.0795  138.1916  153.9897 C   0  0  0  0  0  0  0  0  0  0  0  0
  151.3150  139.1479  155.1405 C   0  0  0  0  0  0  0  0  0  0  0  0
  150.4244  140.2020  155.4285 C   0  0  0  0  0  0  0  0  0  0  0  0
  150.6364  141.0456  156.4609 N   0  0  0  0  0  0  0  0  0  0  0  0
  151.7270  140.8523  157.2156 C   0  0  0  0  0  0  0  0  0  0  0  0
  151.9405  141.7330  158.2845 N   0  0  0  0  0  0  0  0  0  0  0  0
  151.1419  142.9492  158.4580 C   0  0  0  0  0  0  0  0  0  0  0  0
  151.9678  144.0559  159.1351 C   0  0  0  0  0  0  0  0  0  0  0  0
  152.5011  143.5764  160.3630 O   0  0  0  0  0  0  0  0  0  0  0  0
  153.3765  142.4749  160.1565 C   0  0  0  0  0  0  0  0  0  0  0  0
  152.6040  141.3075  159.5197 C   0  0  0  0  0  0  0  0  0  0  0  0
  152.6285  139.8787  157.0230 N   0  0  0  0  0  0  0  0  0  0  0  0
  152.4292  139.0275  155.9941 C   0  0  0  0  0  0  0  0  0  0  0  0
  150.3971  131.4087  156.1527 H   0  0  0  0  0  0  0  0  0  0  0  0
  150.6414  132.3628  154.6722 H   0  0  0  0  0  0  0  0  0  0  0  0
  148.9989  132.1199  155.3153 H   0  0  0  0  0  0  0  0  0  0  0  0
  149.2490  134.5813  154.5375 H   0  0  0  0  0  0  0  0  0  0  0  0
  148.6870  135.5407  155.8979 H   0  0  0  0  0  0  0  0  0  0  0  0
  151.0625  136.5462  156.0244 H   0  0  0  0  0  0  0  0  0  0  0  0
  151.4498  135.6669  154.5531 H   0  0  0  0  0  0  0  0  0  0  0  0
  149.7204  136.7955  153.4387 H   0  0  0  0  0  0  0  0  0  0  0  0
  152.0259  137.6938  153.7737 H   0  0  0  0  0  0  0  0  0  0  0  0
  150.7930  138.7450  153.0946 H   0  0  0  0  0  0  0  0  0  0  0  0
  149.5399  140.3702  154.8316 H   0  0  0  0  0  0  0  0  0  0  0  0
  150.7686  143.3356  157.5100 H   0  0  0  0  0  0  0  0  0  0  0  0
  150.2693  142.7085  159.0663 H   0  0  0  0  0  0  0  0  0  0  0  0
  152.7738  144.3948  158.4820 H   0  0  0  0  0  0  0  0  0  0  0  0
  151.3380  144.9220  159.3376 H   0  0  0  0  0  0  0  0  0  0  0  0
  154.2158  142.7748  159.5267 H   0  0  0  0  0  0  0  0  0  0  0  0
  153.7929  142.1691  161.1163 H   0  0  0  0  0  0  0  0  0  0  0  0
  151.8472  140.9372  160.2120 H   0  0  0  0  0  0  0  0  0  0  0  0
  153.3037  140.4898  159.3499 H   0  0  0  0  0  0  0  0  0  0  0  0
  153.1641  138.2484  155.8545 H   0  0  0  0  0  0  0  0  0  0  0  0
  1  2  1  0  0  0  0
  1 21  1  0  0  0  0
  1 22  1  0  0  0  0
  1 23  1  0  0  0  0
  2  3  2  0  0  0  0
  2  4  2  0  0  0  0
  2  5  1  0  0  0  0
  5  6  1  0  0  0  0
  5 24  1  0  0  0  0
  5 25  1  0  0  0  0
  6  7  1  0  0  0  0
  6 26  1  0  0  0  0
  6 27  1  0  0  0  0
  7  8  1  0  0  0  0
  7 28  1  0  0  0  0
  8  9  1  0  0  0  0
  8 29  1  0  0  0  0
  8 30  1  0  0  0  0
  9 20  1  0  0  0  0
  9 10  2  0  0  0  0
 10 11  1  0  0  0  0
 10 31  1  0  0  0  0
 11 12  2  0  0  0  0
 12 13  1  0  0  0  0
 12 19  1  0  0  0  0
 13 18  1  0  0  0  0
 13 14  1  0  0  0  0
 14 15  1  0  0  0  0
 14 32  1  0  0  0  0
 14 33  1  0  0  0  0
 15 16  1  0  0  0  0
 15 34  1  0  0  0  0
 15 35  1  0  0  0  0
 16 17  1  0  0  0  0
 17 18  1  0  0  0  0
 17 36  1  0  0  0  0
 17 37  1  0  0  0  0
 18 38  1  0  0  0  0
 18 39  1  0  0  0  0
 19 20  2  0  0  0  0
 20 40  1  0  0  0  0
M  END
> <s_m_source_file>
AV-unprocessed.smi

> <i_m_source_file_index>
1479

> <i_lp_mmshare_version>
43012

> <i_f3d_flags>
0

> <s_epik_input>
W0NIM11TKD1PKSg9TylbQ0gyXVtDSDJdW05IXVtDSDJdYzFbY0hdbmMobltjSF0xKU4yW0NIMl1bQ0gyXU9bQ0gyXVtDSDJdMg==

> <s_epik_cmdline>
J2VwaWtfcHl0aG9uJywgJy1waCcsICc3LjAnLCAnLXRuJywgJzgnLCAnLW1hJywgJzIwMCcsICctbWV0YWxfYmluZGluZycsICctaW1hZScsICc8aW5maWxlLm1hZT4nLCAnLW9tYWUnLCAnPG91dGZpbGUubWFlPic=

> <r_lp_tautomer_probability>
1

> <r_epik_Ionization_Penalty>
0.401462

> <r_epik_Ionization_Penalty_Charging>
0

> <r_epik_Ionization_Penalty_Neutral>
0.401462

> <r_epik_State_Penalty>
0.400842

> <r_epik_Charging_Adjusted_Penalty>
0.400842

> <i_epik_Tot_Q>
0

> <i_epik_Tot_abs_Q>
0

> <r_epik_Metal_State_Penalty>
0.400839

> <b_epik_Metal_Only>
0

> <s_lp_Force_Field>
OPLS_2005

> <r_lp_Energy>
7.63479

> <b_lp_Chiralities_Consistent>
1

> <s_lp_Variant>
AV-unprocessed.smi:1479-1

> <Gold.Version>
5.8.1

> <Gold.Id.Protein>
6NUR|6NUR_protein|mol2

> <Gold.PLP.Fitness>
46.5997

> <Gold.PLP.PLP>
-38.8473

> <Gold.PLP.part.hbond>
-4.0000

> <Gold.PLP.part.metal>
0.0000

> <Gold.PLP.part.buried>
-5.3782

> <Gold.PLP.part.nonpolar>
-29.5474

> <Gold.PLP.part.repulsive>
0.0772

> <Gold.PLP.ligand.clash>
0.0000

> <Gold.PLP.ligand.torsion>
0.6008

> <Gold.PLP.Chemscore.Hbond>
2.9000

> <Gold.PLP.Chemscore.CHOScore>
0.0000

> <Gold.PLP.Chemscore.Metal>
0.0000

> <Gold.Chemscore.Hbonds>
donor molecule, donor type, donor heavy atom, donor atom, acceptor molecule, acceptor atom, score
      L1  H     7    28       P1  7948  1.00
      P1  H  6896  6909       L1     3  0.80
      P1  H  7997  8009       L1    19  0.85

> <Gold.PLP.Chemscore.Internal.Correction>
0.2540

> <Gold.Rescore>
     Score         DG    S(hbond)    S(metal)    S(lipo)     H(rot)  DE(clash)    DE(int)     intcor
     20.03     -21.02       3.15        0.00      88.32       2.08       0.37       0.62       ----

> <Gold.Chemscore.Fitness>
20.0350

> <Gold.Chemscore.DG>
-21.0204

> <Gold.Chemscore.ZeroCoef>
-5.4800

> <Gold.Chemscore.Hbond>
3.1540

> <Gold.Chemscore.Metal>
0.0000

> <Gold.Chemscore.Lipo>
88.3188

> <Gold.Chemscore.Internal_Hbond>
0.0000

> <Gold.Chemscore.DEClash>
0.3696

> <Gold.Chemscore.DEInternal>
0.6158

> <Gold.Chemscore.Rot>
2.0810

> <Gold.Chemscore.Internal.Correction>
   9.000000E+99

> <Gold.Chemscore.Hbonds>
donor molecule, donor type, donor heavy atom, donor atom, acceptor molecule, acceptor atom, score
      L1  H     7    28       P1  7948  0.50
      P1  H  6896  6909       L1     3  0.20
      P1  H  7997  8009       L1    19  0.14

> <Gold.Chemscore.Hbond.Weighted>
-10.5344

> <Gold.Chemscore.Metal.Weighted>
-0.0000

> <Gold.Chemscore.Lipo.Weighted>
-10.3333

> <Gold.Chemscore.Internal_Hbond.Weighted>
0.0000

> <Gold.Chemscore.DEClash.Weighted>
0.3696

> <Gold.Chemscore.DEInternal.Weighted>
0.6158

> <Gold.Chemscore.Rot.Weighted>
5.3273

> <Gold.Chemscore.Internal.Correction.Weighted>
   9.000000E+99

> <Gold.Protein.RotatedTorsions>
[ 6907 6896 6895 6894 ] final   14.95 input  -60.11 | X-H torsion
[ 7974 7965 7964 7962 ] final  -43.64 input  175.53 | X-H torsion
[ 8008 7997 7996 7995 ] final  167.66 input   59.86 | X-H torsion
[ 10167 10162 10161 10158 ] final  -50.46 input  -65.29 | X-H torsion
[ 10718 10713 10712 10709 ] final   97.29 input   66.30 | X-H torsion
[ 10763 10752 10751 10750 ] final    0.70 input  -60.55 | X-H torsion
[ 11005 11000 10999 10996 ] final  154.53 input  -57.11 | X-H torsion

> <Gold.Protein.ActiveResidues>
 VAL166  LYS551  ARG553  GLY616  TRP617  ASP618  TYR619  PRO620  LYS621  CYS622 
 ASP623  PHE694  ASN695  SER759  ASP760  ASP761  ALA762  ILE779  LEU786  VAL792 
 PHE793  MET794  SER795  GLU796  ALA797  LYS798  CYS799  TRP800  GLU811  SER814 

> <Gold.Protein.RotatedAtoms>
  151.8103  135.0682  160.0411 H   0  0  0  0  0  0  0  0  0  0  0  0  # atno 6907 bound_to 6896
  152.3025  133.5665  159.5636 H   0  0  0  0  0  0  0  0  0  0  0  0  # atno 6908 bound_to 6896
  150.7280  134.0187  159.3736 H   0  0  0  0  0  0  0  0  0  0  0  0  # atno 6909 bound_to 6896
  145.9999  140.7086  142.9275 H   0  0  0  0  0  0  0  0  0  0  0  0  # atno 7974 bound_to 7965
  156.1614  140.1611  156.8605 H   0  0  0  0  0  0  0  0  0  0  0  0  # atno 8008 bound_to 7997
  154.5165  140.0788  156.8126 H   0  0  0  0  0  0  0  0  0  0  0  0  # atno 8009 bound_to 7997
  155.3699  140.3399  155.4245 H   0  0  0  0  0  0  0  0  0  0  0  0  # atno 8010 bound_to 7997
  140.6636  143.2657  151.4363 H   0  0  0  0  0  0  0  0  0  0  0  0  # atno 10167 bound_to 10162
  157.6915  131.0605  150.4621 H   0  0  0  0  0  0  0  0  0  0  0  0  # atno 10718 bound_to 10713
  153.3174  135.6967  153.7061 H   0  0  0  0  0  0  0  0  0  0  0  0  # atno 10763 bound_to 10752
  153.5915  135.3479  155.2913 H   0  0  0  0  0  0  0  0  0  0  0  0  # atno 10764 bound_to 10752
  154.8589  135.4319  154.2328 H   0  0  0  0  0  0  0  0  0  0  0  0  # atno 10765 bound_to 10752
  140.1497  134.8683  157.2439 H   0  0  0  0  0  0  0  0  0  0  0  0  # atno 11005 bound_to 11000
  144.6916  140.3215  143.7231 LP  0  0  0  0  0  0  0  0  0  0  0  0  # atno 17320 bound_to 7965
  145.7503  139.1791  143.2325 LP  0  0  0  0  0  0  0  0  0  0  0  0  # atno 17321 bound_to 7965
  139.5877  144.1567  152.2050 LP  0  0  0  0  0  0  0  0  0  0  0  0  # atno 17342 bound_to 10162
  140.0912  144.5619  150.7053 LP  0  0  0  0  0  0  0  0  0  0  0  0  # atno 17343 bound_to 10162
  156.4964  130.4107  149.6377 LP  0  0  0  0  0  0  0  0  0  0  0  0  # atno 17370 bound_to 10713
  156.3369  130.7361  151.2300 LP  0  0  0  0  0  0  0  0  0  0  0  0  # atno 17371 bound_to 10713
  140.2619  134.3561  155.7403 LP  0  0  0  0  0  0  0  0  0  0  0  0  # atno 17394 bound_to 11000
  141.2197  133.7374  156.9093 LP  0  0  0  0  0  0  0  0  0  0  0  0  # atno 17395 bound_to 11000

$$$$
