AV-unprocessed.smi:2473|AV-procd|sdf|9749|dock7
  -GOLD-   2272013393D 1   1.00000     0.00000
 Structure written by MMmdl.
 47 48  0  0  0  0  0  0  0  0  1 V2000
  153.6911  141.3222  161.1586 C   0  0  0  0  0  0  0  0  0  0  0  0
  152.6646  141.6625  160.0688 C   0  0  2  0  0  0  0  0  0  0  0  0
  152.7950  140.7131  158.8658 C   0  0  0  0  0  0  0  0  0  0  0  0
  151.7617  141.0417  157.7704 C   0  0  2  0  0  0  0  0  0  0  0  0
  151.9186  140.0836  156.5823 C   0  0  0  0  0  0  0  0  0  0  0  0
  152.9905  139.5109  156.3853 O   0  0  0  0  0  0  0  0  0  0  0  0
  150.8306  139.8956  155.8178 N   0  0  0  0  0  0  0  0  0  0  0  0
  150.7190  138.9340  154.7238 C   0  0  0  0  0  0  0  0  0  0  0  0
  149.2520  138.6516  154.3437 C   0  0  0  0  0  0  0  0  0  0  0  0
  148.4229  139.8885  154.1546 C   0  0  0  0  0  0  0  0  0  0  0  0
  148.8089  141.0963  154.5544 N   0  0  0  0  0  0  0  0  0  0  0  0
  147.7845  141.9477  154.1559 C   0  0  0  0  0  0  0  0  0  0  0  0
  146.8039  141.2184  153.5285 C   0  0  0  0  0  0  0  0  0  0  0  0
  147.2253  139.8956  153.5348 N   0  0  0  0  0  0  0  0  0  0  0  0
  146.4990  138.7725  152.9730 C   0  0  0  0  0  0  0  0  0  0  0  0
  151.9084  142.5130  157.3221 C   0  0  0  0  0  0  0  0  0  0  0  0
  151.8040  143.5271  158.4890 C   0  0  0  0  0  0  0  0  0  0  0  0
  152.1819  144.9265  157.9649 C   0  0  0  0  0  0  0  0  0  0  0  0
  150.3592  143.6022  159.0299 C   0  0  0  0  0  0  0  0  0  0  0  0
  152.7969  143.1300  159.6107 C   0  0  0  0  0  0  0  0  0  0  0  0
  154.7117  141.4338  160.7911 H   0  0  0  0  0  0  0  0  0  0  0  0
  153.5718  140.2945  161.5026 H   0  0  0  0  0  0  0  0  0  0  0  0
  153.5753  141.9745  162.0245 H   0  0  0  0  0  0  0  0  0  0  0  0
  151.6768  141.5209  160.5076 H   0  0  0  0  0  0  0  0  0  0  0  0
  153.8060  140.7804  158.4597 H   0  0  0  0  0  0  0  0  0  0  0  0
  152.6681  139.6825  159.1988 H   0  0  0  0  0  0  0  0  0  0  0  0
  150.7641  140.8967  158.1867 H   0  0  0  0  0  0  0  0  0  0  0  0
  149.9973  140.4164  156.0499 H   0  0  0  0  0  0  0  0  0  0  0  0
  151.2490  139.3352  153.8601 H   0  0  0  0  0  0  0  0  0  0  0  0
  151.2221  137.9999  154.9791 H   0  0  0  0  0  0  0  0  0  0  0  0
  149.2154  138.0439  153.4397 H   0  0  0  0  0  0  0  0  0  0  0  0
  148.7884  138.0475  155.1240 H   0  0  0  0  0  0  0  0  0  0  0  0
  147.8320  143.0089  154.3492 H   0  0  0  0  0  0  0  0  0  0  0  0
  145.8666  141.5241  153.0877 H   0  0  0  0  0  0  0  0  0  0  0  0
  145.6006  139.1228  152.4643 H   0  0  0  0  0  0  0  0  0  0  0  0
  146.2090  138.0857  153.7684 H   0  0  0  0  0  0  0  0  0  0  0  0
  147.1241  138.2457  152.2527 H   0  0  0  0  0  0  0  0  0  0  0  0
  152.8761  142.6386  156.8327 H   0  0  0  0  0  0  0  0  0  0  0  0
  151.1594  142.7450  156.5633 H   0  0  0  0  0  0  0  0  0  0  0  0
  152.1293  145.6752  158.7561 H   0  0  0  0  0  0  0  0  0  0  0  0
  151.5121  145.2459  157.1656 H   0  0  0  0  0  0  0  0  0  0  0  0
  153.1969  144.9449  157.5660 H   0  0  0  0  0  0  0  0  0  0  0  0
  150.2778  144.3336  159.8347 H   0  0  0  0  0  0  0  0  0  0  0  0
  150.0078  142.6508  159.4258 H   0  0  0  0  0  0  0  0  0  0  0  0
  149.6615  143.9015  158.2473 H   0  0  0  0  0  0  0  0  0  0  0  0
  152.6726  143.7949  160.4666 H   0  0  0  0  0  0  0  0  0  0  0  0
  153.8169  143.2890  159.2570 H   0  0  0  0  0  0  0  0  0  0  0  0
  1  2  1  0  0  0  0
  1 21  1  0  0  0  0
  1 22  1  0  0  0  0
  1 23  1  0  0  0  0
  2 20  1  0  0  0  0
  2  3  1  0  0  0  0
  2 24  1  0  0  0  0
  3  4  1  0  0  0  0
  3 25  1  0  0  0  0
  3 26  1  0  0  0  0
  4  5  1  0  0  0  0
  4 16  1  0  0  0  0
  4 27  1  0  0  0  0
  5  6  2  0  0  0  0
  5  7  1  0  0  0  0
  7  8  1  0  0  0  0
  7 28  1  0  0  0  0
  8  9  1  0  0  0  0
  8 29  1  0  0  0  0
  8 30  1  0  0  0  0
  9 10  1  0  0  0  0
  9 31  1  0  0  0  0
  9 32  1  0  0  0  0
 10 14  1  0  0  0  0
 10 11  2  0  0  0  0
 11 12  1  0  0  0  0
 12 13  2  0  0  0  0
 12 33  1  0  0  0  0
 13 14  1  0  0  0  0
 13 34  1  0  0  0  0
 14 15  1  0  0  0  0
 15 35  1  0  0  0  0
 15 36  1  0  0  0  0
 15 37  1  0  0  0  0
 16 17  1  0  0  0  0
 16 38  1  0  0  0  0
 16 39  1  0  0  0  0
 17 18  1  0  0  0  0
 17 19  1  0  0  0  0
 17 20  1  0  0  0  0
 18 40  1  0  0  0  0
 18 41  1  0  0  0  0
 18 42  1  0  0  0  0
 19 43  1  0  0  0  0
 19 44  1  0  0  0  0
 19 45  1  0  0  0  0
 20 46  1  0  0  0  0
 20 47  1  0  0  0  0
M  END
> <s_m_source_file>
AV-unprocessed.smi

> <i_m_source_file_index>
2473

> <i_lp_mmshare_version>
43012

> <i_f3d_flags>
0

> <s_epik_input>
W0NIM11bQ0BASF0oW0NIMl0xKVtDSDJdW0NASF0oW0NIMl1DMShbQ0gzXSlbQ0gzXSlDKD1PKVtOSF1bQ0gyXVtDSDJdYzJuW2NIXVtjSF1uMltDSDNd

> <s_epik_cmdline>
J2VwaWtfcHl0aG9uJywgJy1waCcsICc3LjAnLCAnLXRuJywgJzgnLCAnLW1hJywgJzIwMCcsICctbWV0YWxfYmluZGluZycsICctaW1hZScsICc8aW5maWxlLm1hZT4nLCAnLW9tYWUnLCAnPG91dGZpbGUubWFlPic=

> <r_lp_tautomer_probability>
1

> <r_epik_Ionization_Penalty>
1.22858

> <r_epik_Ionization_Penalty_Charging>
1.22858

> <r_epik_Ionization_Penalty_Neutral>
2.12671e-08

> <r_epik_State_Penalty>
1.2965

> <r_epik_Charging_Adjusted_Penalty>
2.52508

> <i_epik_Tot_Q>
0

> <i_epik_Tot_abs_Q>
0

> <r_epik_Metal_State_Penalty>
0.411461

> <b_epik_Metal_Only>
0

> <s_lp_Force_Field>
OPLS_2005

> <r_lp_Energy>
12.8127

> <b_lp_Chiralities_Consistent>
1

> <s_lp_Variant>
AV-unprocessed.smi:2473-7

> <Gold.Version>
5.8.1

> <Gold.Id.Protein>
6NUR|6NUR_protein|mol2

> <Gold.PLP.Fitness>
48.5587

> <Gold.PLP.PLP>
-42.8267

> <Gold.PLP.part.hbond>
-0.7671

> <Gold.PLP.part.metal>
0.0000

> <Gold.PLP.part.buried>
-5.4377

> <Gold.PLP.part.nonpolar>
-36.5977

> <Gold.PLP.part.repulsive>
0.2392

> <Gold.PLP.ligand.clash>
0.0000

> <Gold.PLP.ligand.torsion>
0.9821

> <Gold.PLP.Chemscore.Hbond>
1.0000

> <Gold.PLP.Chemscore.CHOScore>
1.5601

> <Gold.PLP.Chemscore.Metal>
0.0000

> <Gold.Chemscore.Hbonds>
donor molecule, donor type, donor heavy atom, donor atom, acceptor molecule, acceptor atom, score
      P1  H  7997  8010       L1     6  1.00
      L1  C    12    33       P1  8028  1.00
      L1  C    13    34       P1 10175  0.63

> <Gold.PLP.Chemscore.Internal.Correction>
0.0160

> <Gold.Rescore>
     Score         DG    S(hbond)    S(metal)    S(lipo)     H(rot)  DE(clash)    DE(int)     intcor
     15.49     -19.14       0.95        0.00     122.69       1.51       1.30       2.35       ----

> <Gold.Chemscore.Fitness>
15.4911

> <Gold.Chemscore.DG>
-19.1369

> <Gold.Chemscore.ZeroCoef>
-5.4800

> <Gold.Chemscore.Hbond>
0.9491

> <Gold.Chemscore.Metal>
0.0000

> <Gold.Chemscore.Lipo>
122.6902

> <Gold.Chemscore.Internal_Hbond>
0.0000

> <Gold.Chemscore.DEClash>
1.2991

> <Gold.Chemscore.DEInternal>
2.3466

> <Gold.Chemscore.Rot>
1.5109

> <Gold.Chemscore.Internal.Correction>
   9.000000E+99

> <Gold.Chemscore.Hbonds>
donor molecule, donor type, donor heavy atom, donor atom, acceptor molecule, acceptor atom, score
      P1  H  7997  8010       L1     6  0.92

> <Gold.Chemscore.Hbond.Weighted>
-3.1701

> <Gold.Chemscore.Metal.Weighted>
-0.0000

> <Gold.Chemscore.Lipo.Weighted>
-14.3548

> <Gold.Chemscore.Internal_Hbond.Weighted>
0.0000

> <Gold.Chemscore.DEClash.Weighted>
1.2991

> <Gold.Chemscore.DEInternal.Weighted>
2.3466

> <Gold.Chemscore.Rot.Weighted>
3.8680

> <Gold.Chemscore.Internal.Correction.Weighted>
   9.000000E+99

> <Gold.Protein.RotatedTorsions>
[ 6907 6896 6895 6894 ] final -173.43 input  -60.11 | X-H torsion
[ 7974 7965 7964 7962 ] final  -67.68 input  175.53 | X-H torsion
[ 8008 7997 7996 7995 ] final   54.94 input   59.86 | X-H torsion
[ 10167 10162 10161 10158 ] final -154.40 input  -65.29 | X-H torsion
[ 10718 10713 10712 10709 ] final -175.02 input   66.30 | X-H torsion
[ 10763 10752 10751 10750 ] final  121.69 input  -60.55 | X-H torsion
[ 11005 11000 10999 10996 ] final   62.47 input  -57.11 | X-H torsion

> <Gold.Protein.ActiveResidues>
 VAL166  LYS551  ARG553  GLY616  TRP617  ASP618  TYR619  PRO620  LYS621  CYS622 
 ASP623  PHE694  ASN695  SER759  ASP760  ASP761  ALA762  ILE779  LEU786  VAL792 
 PHE793  MET794  SER795  GLU796  ALA797  LYS798  CYS799  TRP800  GLU811  SER814 

> <Gold.Protein.RotatedAtoms>
  151.5561  133.3410  159.2961 H   0  0  0  0  0  0  0  0  0  0  0  0  # atno 6907 bound_to 6896
  150.8450  134.7758  159.6974 H   0  0  0  0  0  0  0  0  0  0  0  0  # atno 6908 bound_to 6896
  152.4510  134.5402  159.9888 H   0  0  0  0  0  0  0  0  0  0  0  0  # atno 6909 bound_to 6896
  145.7261  140.9017  143.0605 H   0  0  0  0  0  0  0  0  0  0  0  0  # atno 7974 bound_to 7965
  155.4930  140.3472  155.4358 H   0  0  0  0  0  0  0  0  0  0  0  0  # atno 8008 bound_to 7997
  156.0964  140.1424  156.9553 H   0  0  0  0  0  0  0  0  0  0  0  0  # atno 8009 bound_to 7997
  154.4666  140.0915  156.7014 H   0  0  0  0  0  0  0  0  0  0  0  0  # atno 8010 bound_to 7997
  139.7017  143.9253  152.2431 H   0  0  0  0  0  0  0  0  0  0  0  0  # atno 10167 bound_to 10162
  156.7937  130.9527  151.3120 H   0  0  0  0  0  0  0  0  0  0  0  0  # atno 10718 bound_to 10713
  153.6181  135.3418  155.3001 H   0  0  0  0  0  0  0  0  0  0  0  0  # atno 10763 bound_to 10752
  154.8605  135.4266  154.2237 H   0  0  0  0  0  0  0  0  0  0  0  0  # atno 10764 bound_to 10752
  153.3103  135.7031  153.7194 H   0  0  0  0  0  0  0  0  0  0  0  0  # atno 10765 bound_to 10752
  140.0090  134.6326  155.9810 H   0  0  0  0  0  0  0  0  0  0  0  0  # atno 11005 bound_to 11000
  144.6904  139.9267  143.7470 LP  0  0  0  0  0  0  0  0  0  0  0  0  # atno 17320 bound_to 7965
  146.0581  139.3576  143.0598 LP  0  0  0  0  0  0  0  0  0  0  0  0  # atno 17321 bound_to 7965
  139.9097  144.6864  150.8576 LP  0  0  0  0  0  0  0  0  0  0  0  0  # atno 17342 bound_to 10162
  140.7711  143.3452  151.2125 LP  0  0  0  0  0  0  0  0  0  0  0  0  # atno 17343 bound_to 10162
  157.6588  130.8948  149.9786 LP  0  0  0  0  0  0  0  0  0  0  0  0  # atno 17370 bound_to 10713
  156.1143  130.3648  149.9994 LP  0  0  0  0  0  0  0  0  0  0  0  0  # atno 17371 bound_to 10713
  141.1697  133.6537  156.4607 LP  0  0  0  0  0  0  0  0  0  0  0  0  # atno 17394 bound_to 11000
  140.4589  134.6859  157.5076 LP  0  0  0  0  0  0  0  0  0  0  0  0  # atno 17395 bound_to 11000

$$$$
