#       Name:                AV-unprocessed.smi:2724
#       Creating user name   scv26
#       Creation time:       Fri Mar 27 14:55:10 2020


#       File generated by GOLD software.
#

@<TRIPOS>MOLECULE
AV-unprocessed.smi:2724
    28    29     1
SMALL
NO_CHARGES


@<TRIPOS>ATOM
      1 ****        -1.0383   1.3684  -1.3659 O.3            1 S1                 0.0000
      2 ****         0.3515   1.1221  -1.2690 C.3            1 S1                 0.0000
      3 ****         0.8282   0.3323  -2.4987 C.3            1 S1                 0.0000
      4 ****         1.9026  -0.6192  -1.9740 C.3            1 S1                 0.0000
      5 ****         1.3942  -1.0073  -0.5876 C.3            1 S1                 0.0000
      6 ****         0.7801   0.2890  -0.0337 C.3            1 S1                 0.0000
      7 ****        -0.2807   0.0821   1.0454 C.ar           1 S1                 0.0000
      8 ****        -1.3856  -0.7767   0.8502 C.ar           1 S1                 0.0000
      9 ****        -2.3286  -0.9228   1.8854 C.ar           1 S1                 0.0000
     10 ****        -2.1301  -0.2024   3.0793 C.ar           1 S1                 0.0000
     11 ****        -1.0809   0.6230   3.2802 N.ar           1 S1                 0.0000
     12 ****        -0.1814   0.7569   2.2821 C.ar           1 S1                 0.0000
     13 ****        -1.3169   1.8215  -0.5847 H              1 S1                 0.0000
     14 ****         0.8539   2.0897  -1.2336 H              1 S1                 0.0000
     15 ****         0.0092  -0.2602  -2.9105 H              1 S1                 0.0000
     16 ****         1.1949   0.9803  -3.2952 H              1 S1                 0.0000
     17 ****         2.0529  -1.4818  -2.6239 H              1 S1                 0.0000
     18 ****         2.8545  -0.0937  -1.8870 H              1 S1                 0.0000
     19 ****         0.6369  -1.7820  -0.7076 H              1 S1                 0.0000
     20 ****         2.1760  -1.4112   0.0563 H              1 S1                 0.0000
     21 ****         1.6031   0.8349   0.4312 H              1 S1                 0.0000
     22 ****        -1.5183  -1.3101  -0.0793 H              1 S1                 0.0000
     23 ****        -3.1850  -1.5700   1.7663 H              1 S1                 0.0000
     24 ****        -2.8339  -0.2901   3.8936 H              1 S1                 0.0000
     25 ****         0.6427   1.4264   2.4799 H              1 S1                 0.0000
     26 ****        -1.5300   0.5014  -1.4467 LP             1 S1                 0.0000
     27 ****        -1.2257   1.9339  -2.1690 LP             1 S1                 0.0000
     28 ****        -0.9733   1.1198   4.1414 LP             1 S1                 0.0000
@<TRIPOS>BOND
    1    1    2 1     
    2    1   13 1     
    3    2    6 1     
    4    2    3 1     
    5    2   14 1     
    6    3    4 1     
    7    3   15 1     
    8    3   16 1     
    9    4    5 1     
   10    4   17 1     
   11    4   18 1     
   12    5    6 1     
   13    5   19 1     
   14    5   20 1     
   15    6    7 1     
   16    6   21 1     
   17    7   12 ar    
   18    7    8 ar    
   19    8    9 ar    
   20    8   22 1     
   21    9   10 ar    
   22    9   23 1     
   23   10   11 ar    
   24   10   24 1     
   25   11   12 ar    
   26   12   25 1     
   27    1   26 1     
   28    1   27 1     
   29   11   28 1     
@<TRIPOS>SUBSTRUCTURE
      1 S1             1
@<TRIPOS>SET
LONE_PAIRS      STATIC     ATOMS    <user>   **** ""
3 26 27 28
DONOR_HYDROGENS      STATIC     ATOMS    <user>   **** ""
1 13
ATOM$BLUE        STATIC     ATOMS    COLORGROUP SYSTEM
3 26 27 28
ATOM$RED        STATIC     ATOMS    COLORGROUP SYSTEM
1 13
