AV-unprocessed.smi:2126|AV-procd|sdf|8677|dock4
  -GOLD-   2272011433D 1   1.00000     0.00000
 Structure written by MMmdl.
 41 43  0  0  0  0  0  0  0  0  2 V2000
  147.1613  135.4629  161.4816 C   0  0  0  0  0  0  0  0  0  0  0  0
  148.3162  136.2222  161.1564 O   0  0  0  0  0  0  0  0  0  0  0  0
  148.6866  136.3039  159.8314 C   0  0  0  0  0  0  0  0  0  0  0  0
  147.9387  135.7586  158.7590 C   0  0  0  0  0  0  0  0  0  0  0  0
  148.3952  135.8904  157.4334 C   0  0  0  0  0  0  0  0  0  0  0  0
  149.5980  136.5643  157.1439 C   0  0  0  0  0  0  0  0  0  0  0  0
  149.9677  136.6464  155.8185 O   0  0  0  0  0  0  0  0  0  0  0  0
  151.1622  137.3458  155.4945 C   0  0  0  0  0  0  0  0  0  0  0  0
  150.9011  138.8557  155.6011 C   0  0  2  0  0  0  0  0  0  0  0  0
  151.3030  139.4662  154.3908 O   0  0  0  0  0  0  0  0  0  0  0  0
  151.6423  139.4990  156.7904 C   0  0  0  0  0  0  0  0  0  0  0  0
  151.2886  140.9126  156.9839 N   0  0  0  0  0  0  0  0  0  0  0  0
  150.5219  141.7273  156.2097 C   0  0  0  0  0  0  0  0  0  0  0  0
  150.4881  142.9510  156.8063 N   0  3  0  0  0  0  0  0  0  0  0  0
  151.2445  142.9186  157.9796 C   0  0  0  0  0  0  0  0  0  0  0  0
  151.5080  143.9095  158.9204 C   0  0  0  0  0  0  0  0  0  0  0  0
  152.3252  143.5461  160.0110 C   0  0  0  0  0  0  0  0  0  0  0  0
  152.8489  142.2427  160.1337 C   0  0  0  0  0  0  0  0  0  0  0  0
  152.5765  141.2465  159.1730 C   0  0  0  0  0  0  0  0  0  0  0  0
  151.7640  141.6120  158.0998 C   0  0  0  0  0  0  0  0  0  0  0  0
  150.3460  137.1087  158.2164 C   0  0  0  0  0  0  0  0  0  0  0  0
  149.8901  136.9763  159.5420 C   0  0  0  0  0  0  0  0  0  0  0  0
  147.0031  135.4940  162.5594 H   0  0  0  0  0  0  0  0  0  0  0  0
  147.2780  134.4166  161.1957 H   0  0  0  0  0  0  0  0  0  0  0  0
  146.2688  135.8707  161.0052 H   0  0  0  0  0  0  0  0  0  0  0  0
  147.0105  135.2339  158.9264 H   0  0  0  0  0  0  0  0  0  0  0  0
  147.8125  135.4682  156.6279 H   0  0  0  0  0  0  0  0  0  0  0  0
  151.9745  137.0577  156.1640 H   0  0  0  0  0  0  0  0  0  0  0  0
  151.4594  137.0971  154.4741 H   0  0  0  0  0  0  0  0  0  0  0  0
  149.8285  139.0226  155.7092 H   0  0  0  0  0  0  0  0  0  0  0  0
  151.7577  138.8238  153.8673 H   0  0  0  0  0  0  0  0  0  0  0  0
  151.3849  138.9788  157.7138 H   0  0  0  0  0  0  0  0  0  0  0  0
  152.7232  139.4070  156.6825 H   0  0  0  0  0  0  0  0  0  0  0  0
  150.0287  141.4522  155.2883 H   0  0  0  0  0  0  0  0  0  0  0  0
  151.1107  144.9096  158.8270 H   0  0  0  0  0  0  0  0  0  0  0  0
  152.5565  144.2822  160.7673 H   0  0  0  0  0  0  0  0  0  0  0  0
  153.4740  142.0019  160.9814 H   0  0  0  0  0  0  0  0  0  0  0  0
  152.9890  140.2537  159.2738 H   0  0  0  0  0  0  0  0  0  0  0  0
  151.2746  137.6331  158.0504 H   0  0  0  0  0  0  0  0  0  0  0  0
  150.4732  137.3972  160.3480 H   0  0  0  0  0  0  0  0  0  0  0  0
  149.9843  143.7474  156.4374 H   0  0  0  0  0  0  0  0  0  0  0  0
  1  2  1  0  0  0  0
  1 23  1  0  0  0  0
  1 24  1  0  0  0  0
  1 25  1  0  0  0  0
  2  3  1  0  0  0  0
  3 22  1  0  0  0  0
  3  4  2  0  0  0  0
  4  5  1  0  0  0  0
  4 26  1  0  0  0  0
  5  6  2  0  0  0  0
  5 27  1  0  0  0  0
  6  7  1  0  0  0  0
  6 21  1  0  0  0  0
  7  8  1  0  0  0  0
  8  9  1  0  0  0  0
  8 28  1  0  0  0  0
  8 29  1  0  0  0  0
  9 10  1  0  0  0  0
  9 11  1  0  0  0  0
  9 30  1  0  0  0  0
 10 31  1  0  0  0  0
 11 12  1  0  0  0  0
 11 32  1  0  0  0  0
 11 33  1  0  0  0  0
 12 20  1  0  0  0  0
 12 13  1  0  0  0  0
 13 14  2  0  0  0  0
 13 34  1  0  0  0  0
 14 15  1  0  0  0  0
 14 41  1  0  0  0  0
 15 20  2  0  0  0  0
 15 16  1  0  0  0  0
 16 17  2  0  0  0  0
 16 35  1  0  0  0  0
 17 18  1  0  0  0  0
 17 36  1  0  0  0  0
 18 19  2  0  0  0  0
 18 37  1  0  0  0  0
 19 20  1  0  0  0  0
 19 38  1  0  0  0  0
 21 22  2  0  0  0  0
 21 39  1  0  0  0  0
 22 40  1  0  0  0  0
M  CHG  1  14   1
M  END
> <s_m_source_file>
AV-unprocessed.smi

> <i_m_source_file_index>
2126

> <i_lp_mmshare_version>
43012

> <i_f3d_flags>
0

> <s_epik_input>
W0NIM11PYzFbY0hdW2NIXWMoW2NIXVtjSF0xKU9bQ0gyXVtDQEhdKFtPSF0pW0NIMl1uKFtjSF1uMiljKGMyMylbY0hdW2NIXVtjSF1bY0hdMw==

> <s_epik_cmdline>
J2VwaWtfcHl0aG9uJywgJy1waCcsICc3LjAnLCAnLXRuJywgJzgnLCAnLW1hJywgJzIwMCcsICctbWV0YWxfYmluZGluZycsICctaW1hZScsICc8aW5maWxlLm1hZT4nLCAnLW9tYWUnLCAnPG91dGZpbGUubWFlPic=

> <r_lp_tautomer_probability>
1

> <r_epik_Ionization_Penalty>
1.37822

> <r_epik_Ionization_Penalty_Charging>
1.37822

> <r_epik_Ionization_Penalty_Neutral>
2.3993e-06

> <r_epik_State_Penalty>
1.45852

> <r_epik_Charging_Adjusted_Penalty>
2.83674

> <i_epik_Tot_Q>
1

> <i_epik_Tot_abs_Q>
1

> <r_epik_Metal_State_Penalty>
5.4985

> <b_epik_Metal_Only>
0

> <s_lp_Force_Field>
OPLS_2005

> <r_lp_Energy>
23.2038

> <b_lp_Chiralities_Consistent>
1

> <s_lp_Variant>
AV-unprocessed.smi:2126-3

> <Gold.Version>
5.8.1

> <Gold.Id.Protein>
6NUR|6NUR_protein|mol2

> <Gold.PLP.Fitness>
50.6420

> <Gold.PLP.PLP>
-40.2853

> <Gold.PLP.part.hbond>
-3.0000

> <Gold.PLP.part.metal>
0.0000

> <Gold.PLP.part.buried>
-4.4718

> <Gold.PLP.part.nonpolar>
-32.6961

> <Gold.PLP.part.repulsive>
0.1029

> <Gold.PLP.ligand.clash>
0.0000

> <Gold.PLP.ligand.torsion>
0.8561

> <Gold.PLP.Chemscore.Hbond>
4.0000

> <Gold.PLP.Chemscore.CHOScore>
0.0000

> <Gold.PLP.Chemscore.Metal>
0.0000

> <Gold.Chemscore.Hbonds>
donor molecule, donor type, donor heavy atom, donor atom, acceptor molecule, acceptor atom, score
      L1  H    14    41       P1  8028  2.00
      P1  H  6931  6943       L1     2  0.39
      P1  H  7989  7998       L1    10  0.95

> <Gold.PLP.Chemscore.Internal.Correction>
0.0688

> <Gold.Rescore>
     Score         DG    S(hbond)    S(metal)    S(lipo)     H(rot)  DE(clash)    DE(int)     intcor
     18.19     -19.45       2.37        0.00     108.79       2.60       0.27       0.98       ----

> <Gold.Chemscore.Fitness>
18.1903

> <Gold.Chemscore.DG>
-19.4480

> <Gold.Chemscore.ZeroCoef>
-5.4800

> <Gold.Chemscore.Hbond>
2.3672

> <Gold.Chemscore.Metal>
0.0000

> <Gold.Chemscore.Lipo>
108.7921

> <Gold.Chemscore.Internal_Hbond>
0.0000

> <Gold.Chemscore.DEClash>
0.2739

> <Gold.Chemscore.DEInternal>
0.9838

> <Gold.Chemscore.Rot>
2.6043

> <Gold.Chemscore.Internal.Correction>
   9.000000E+99

> <Gold.Chemscore.Hbonds>
donor molecule, donor type, donor heavy atom, donor atom, acceptor molecule, acceptor atom, score
      L1  H    14    41       P1  8028  1.00
      P1  H  6931  6943       L1     2  0.10
      P1  H  7989  7998       L1    10  0.22

> <Gold.Chemscore.Hbond.Weighted>
-7.9064

> <Gold.Chemscore.Metal.Weighted>
-0.0000

> <Gold.Chemscore.Lipo.Weighted>
-12.7287

> <Gold.Chemscore.Internal_Hbond.Weighted>
0.0000

> <Gold.Chemscore.DEClash.Weighted>
0.2739

> <Gold.Chemscore.DEInternal.Weighted>
0.9838

> <Gold.Chemscore.Rot.Weighted>
6.6670

> <Gold.Chemscore.Internal.Correction.Weighted>
   9.000000E+99

> <Gold.Protein.RotatedTorsions>
[ 6907 6896 6895 6894 ] final -109.28 input  -60.11 | X-H torsion
[ 7974 7965 7964 7962 ] final  -52.66 input  175.53 | X-H torsion
[ 8008 7997 7996 7995 ] final   52.18 input   59.86 | X-H torsion
[ 10167 10162 10161 10158 ] final  138.39 input  -65.29 | X-H torsion
[ 10718 10713 10712 10709 ] final   83.38 input   66.30 | X-H torsion
[ 10763 10752 10751 10750 ] final  -54.28 input  -60.55 | X-H torsion
[ 11005 11000 10999 10996 ] final   22.07 input  -57.11 | X-H torsion

> <Gold.Protein.ActiveResidues>
 VAL166  LYS551  ARG553  GLY616  TRP617  ASP618  TYR619  PRO620  LYS621  CYS622 
 ASP623  PHE694  ASN695  SER759  ASP760  ASP761  ALA762  ILE779  LEU786  VAL792 
 PHE793  MET794  SER795  GLU796  ALA797  LYS798  CYS799  TRP800  GLU811  SER814 

> <Gold.Protein.RotatedAtoms>
  150.7552  133.9553  159.3498 H   0  0  0  0  0  0  0  0  0  0  0  0  # atno 6907 bound_to 6896
  151.7474  135.0838  160.0335 H   0  0  0  0  0  0  0  0  0  0  0  0  # atno 6908 bound_to 6896
  152.3489  133.6118  159.5966 H   0  0  0  0  0  0  0  0  0  0  0  0  # atno 6909 bound_to 6896
  145.9055  140.7959  142.9721 H   0  0  0  0  0  0  0  0  0  0  0  0  # atno 7974 bound_to 7965
  155.4476  140.3457  155.4297 H   0  0  0  0  0  0  0  0  0  0  0  0  # atno 8008 bound_to 7997
  156.1240  140.1495  156.9193 H   0  0  0  0  0  0  0  0  0  0  0  0  # atno 8009 bound_to 7997
  154.4844  140.0860  156.7432 H   0  0  0  0  0  0  0  0  0  0  0  0  # atno 8010 bound_to 7997
  139.5112  144.6356  151.5705 H   0  0  0  0  0  0  0  0  0  0  0  0  # atno 10167 bound_to 10162
  157.6878  131.0088  150.2515 H   0  0  0  0  0  0  0  0  0  0  0  0  # atno 10718 bound_to 10713
  154.1723  135.6457  153.5012 H   0  0  0  0  0  0  0  0  0  0  0  0  # atno 10763 bound_to 10752
  153.0081  135.5386  154.6600 H   0  0  0  0  0  0  0  0  0  0  0  0  # atno 10764 bound_to 10752
  154.5942  135.2937  155.0576 H   0  0  0  0  0  0  0  0  0  0  0  0  # atno 10765 bound_to 10752
  140.3846  134.1884  155.7663 H   0  0  0  0  0  0  0  0  0  0  0  0  # atno 11005 bound_to 11000
  144.6739  140.1744  143.7411 LP  0  0  0  0  0  0  0  0  0  0  0  0  # atno 17320 bound_to 7965
  145.8737  139.2286  143.1646 LP  0  0  0  0  0  0  0  0  0  0  0  0  # atno 17321 bound_to 7965
  140.6104  143.9447  150.6449 LP  0  0  0  0  0  0  0  0  0  0  0  0  # atno 17342 bound_to 10162
  140.2688  143.3471  152.1257 LP  0  0  0  0  0  0  0  0  0  0  0  0  # atno 17343 bound_to 10162
  156.3111  130.3772  149.7661 LP  0  0  0  0  0  0  0  0  0  0  0  0  # atno 17370 bound_to 10713
  156.5261  130.8236  151.3220 LP  0  0  0  0  0  0  0  0  0  0  0  0  # atno 17371 bound_to 10713
  141.1912  133.8201  157.0890 LP  0  0  0  0  0  0  0  0  0  0  0  0  # atno 17394 bound_to 11000
  140.0452  134.9834  157.1036 LP  0  0  0  0  0  0  0  0  0  0  0  0  # atno 17395 bound_to 11000

$$$$
