#       Name:                AV-unprocessed.smi:2922
#       Creating user name   scv26
#       Creation time:       Fri Mar 27 16:09:11 2020


#       File generated by GOLD software.
#

@<TRIPOS>MOLECULE
AV-unprocessed.smi:2922
    36    37     1
SMALL
NO_CHARGES


@<TRIPOS>ATOM
      1 ****        -2.6333   3.7191   0.6497 N.am           1 S1                 0.0000
      2 ****        -3.4276   2.6916   0.3358 C.2            1 S1                 0.0000
      3 ****        -4.5090   2.8566  -0.2259 O.2            1 S1                 0.0000
      4 ****        -2.9562   1.2822   0.7253 C.3            1 S1                 0.0000
      5 ****        -3.2236   0.2016  -0.3401 C.3            1 S1                 0.0000
      6 ****        -1.8424  -0.3330  -0.6736 C.3            1 S1                 0.0000
      7 ****        -1.0439  -0.0066   0.5852 C.3            1 S1                 0.0000
      8 ****         0.4751   0.0525   0.3777 C.3            1 S1                 0.0000
      9 ****         1.0352  -1.2654   0.1187 N.pl3          1 S1                 0.0000
     10 ****         2.3717  -1.5038  -0.1385 C.ar           1 S1                 0.0000
     11 ****         3.2064  -0.4574  -0.1755 N.ar           1 S1                 0.0000
     12 ****         4.5080  -0.7183  -0.4275 C.ar           1 S1                 0.0000
     13 ****         4.9680  -2.0329  -0.6411 C.ar           1 S1                 0.0000
     14 ****         6.6286  -2.3731  -0.9616 Cl             1 S1                 0.0000
     15 ****         4.0004  -3.0554  -0.5789 C.ar           1 S1                 0.0000
     16 ****         2.7003  -2.7849  -0.3271 N.ar           1 S1                 0.0000
     17 ****        -1.5421   1.2776   0.9211 O.3            1 S1                 0.0000
     18 ****        -2.9072   4.6600   0.4070 H              1 S1                 0.0000
     19 ****        -1.7594   3.5473   1.1261 H              1 S1                 0.0000
     20 ****        -3.4365   0.9994   1.6631 H              1 S1                 0.0000
     21 ****        -3.8435  -0.5890   0.0845 H              1 S1                 0.0000
     22 ****        -3.7288   0.5684  -1.2346 H              1 S1                 0.0000
     23 ****        -1.8441  -1.3966  -0.9137 H              1 S1                 0.0000
     24 ****        -1.4352   0.2080  -1.5291 H              1 S1                 0.0000
     25 ****        -1.2971  -0.7002   1.3895 H              1 S1                 0.0000
     26 ****         0.7177   0.7226  -0.4480 H              1 S1                 0.0000
     27 ****         0.9498   0.4606   1.2707 H              1 S1                 0.0000
     28 ****         0.4184  -2.0643   0.1482 H              1 S1                 0.0000
     29 ****         5.1823   0.1249  -0.4576 H              1 S1                 0.0000
     30 ****         4.2672  -4.0908  -0.7306 H              1 S1                 0.0000
     31 ****        -4.8151   3.7793  -0.4601 LP             1 S1                 0.0000
     32 ****        -5.0823   2.0680  -0.4484 LP             1 S1                 0.0000
     33 ****         2.8809   0.4758  -0.0233 LP             1 S1                 0.0000
     34 ****         2.0147  -3.5116  -0.2839 LP             1 S1                 0.0000
     35 ****        -1.3336   1.4803   1.8779 LP             1 S1                 0.0000
     36 ****        -1.1183   1.9676   0.3343 LP             1 S1                 0.0000
@<TRIPOS>BOND
    1    1    2 am    
    2    1   18 1     
    3    1   19 1     
    4    2    3 2     
    5    2    4 1     
    6    4   17 1     
    7    4    5 1     
    8    4   20 1     
    9    5    6 1     
   10    5   21 1     
   11    5   22 1     
   12    6    7 1     
   13    6   23 1     
   14    6   24 1     
   15    7    8 1     
   16    7   17 1     
   17    7   25 1     
   18    8    9 1     
   19    8   26 1     
   20    8   27 1     
   21    9   10 1     
   22    9   28 1     
   23   10   16 ar    
   24   10   11 ar    
   25   11   12 ar    
   26   12   13 ar    
   27   12   29 1     
   28   13   14 1     
   29   13   15 ar    
   30   15   16 ar    
   31   15   30 1     
   32    3   31 1     
   33    3   32 1     
   34   11   33 1     
   35   16   34 1     
   36   17   35 1     
   37   17   36 1     
@<TRIPOS>SUBSTRUCTURE
      1 S1             1
@<TRIPOS>SET
LONE_PAIRS      STATIC     ATOMS    <user>   **** ""
6 31 32 33 34 35 36
DONOR_HYDROGENS      STATIC     ATOMS    <user>   **** ""
3 18 19 28
ATOM$BLUE        STATIC     ATOMS    COLORGROUP SYSTEM
6 31 32 33 34 35 36
ATOM$RED        STATIC     ATOMS    COLORGROUP SYSTEM
3 18 19 28
