AV-unprocessed.smi:1776|AV-procd|sdf|7176|dock6
  -GOLD-   22720 8413D 1   1.00000     0.00000
 Structure written by MMmdl.
 30 31  0  0  0  0  0  0  0  0  2 V2000
  151.6586  140.3274  154.9794 O   0  0  0  0  0  0  0  0  0  0  0  0
  150.5240  140.4125  155.4494 C   0  0  0  0  0  0  0  0  0  0  0  0
  150.2198  140.9230  156.6597 N   0  0  0  0  0  0  0  0  0  0  0  0
  151.0506  141.4688  157.6548 C   0  0  0  0  0  0  0  0  0  0  0  0
  150.7784  142.5884  158.3820 C   0  0  0  0  0  0  0  0  0  0  0  0
  151.6849  143.0948  159.4052 C   0  0  0  0  0  0  0  0  0  0  0  0
  151.4573  144.3885  160.1671 C   0  0  0  0  0  0  0  0  0  0  0  0
  150.1720  144.5369  160.4890 F   0  0  0  0  0  0  0  0  0  0  0  0
  152.1775  144.4154  161.2887 F   0  0  0  0  0  0  0  0  0  0  0  0
  151.8200  145.4271  159.4157 F   0  0  0  0  0  0  0  0  0  0  0  0
  152.8246  142.3237  159.5242 C   0  0  0  0  0  0  0  0  0  0  0  0
  153.1603  141.1945  158.8633 N   0  5  0  0  0  0  0  0  0  0  0  0
  152.3041  140.7282  157.9110 C   0  0  0  0  0  0  0  0  0  0  0  0
  152.5530  139.7083  157.2669 O   0  0  0  0  0  0  0  0  0  0  0  0
  149.3189  139.9253  154.6307 C   0  0  1  0  0  0  0  0  0  0  0  0
  148.5016  138.8219  155.3430 C   0  0  0  0  0  0  0  0  0  0  0  0
  147.3887  138.4635  154.5335 O   0  0  0  0  0  0  0  0  0  0  0  0
  146.5415  139.5788  154.2952 C   0  0  0  0  0  0  0  0  0  0  0  0
  147.3470  140.6722  153.5756 C   0  0  0  0  0  0  0  0  0  0  0  0
  148.4581  141.0346  154.3836 O   0  0  0  0  0  0  0  0  0  0  0  0
  149.2417  140.9002  156.9106 H   0  0  0  0  0  0  0  0  0  0  0  0
  149.8680  143.1435  158.2352 H   0  0  0  0  0  0  0  0  0  0  0  0
  153.5833  142.6686  160.2585 H   0  0  0  0  0  0  0  0  0  0  0  0
  149.6986  139.5451  153.6805 H   0  0  0  0  0  0  0  0  0  0  0  0
  149.1110  137.9315  155.5008 H   0  0  0  0  0  0  0  0  0  0  0  0
  148.1562  139.1543  156.3238 H   0  0  0  0  0  0  0  0  0  0  0  0
  145.6987  139.2618  153.6811 H   0  0  0  0  0  0  0  0  0  0  0  0
  146.1327  139.9516  155.2357 H   0  0  0  0  0  0  0  0  0  0  0  0
  147.6876  140.3269  152.5981 H   0  0  0  0  0  0  0  0  0  0  0  0
  146.7267  141.5527  153.4081 H   0  0  0  0  0  0  0  0  0  0  0  0
  1  2  2  0  0  0  0
  2  3  1  0  0  0  0
  2 15  1  0  0  0  0
  3  4  1  0  0  0  0
  3 21  1  0  0  0  0
  4 13  1  0  0  0  0
  4  5  2  0  0  0  0
  5  6  1  0  0  0  0
  5 22  1  0  0  0  0
  6  7  1  0  0  0  0
  6 11  2  0  0  0  0
  7  8  1  0  0  0  0
  7  9  1  0  0  0  0
  7 10  1  0  0  0  0
 11 12  1  0  0  0  0
 11 23  1  0  0  0  0
 12 13  1  0  0  0  0
 13 14  2  0  0  0  0
 15 20  1  0  0  0  0
 15 16  1  0  0  0  0
 15 24  1  0  0  0  0
 16 17  1  0  0  0  0
 16 25  1  0  0  0  0
 16 26  1  0  0  0  0
 17 18  1  0  0  0  0
 18 19  1  0  0  0  0
 18 27  1  0  0  0  0
 18 28  1  0  0  0  0
 19 20  1  0  0  0  0
 19 29  1  0  0  0  0
 19 30  1  0  0  0  0
M  CHG  1  12  -1
M  END
> <s_m_source_file>
AV-unprocessed.smi

> <i_m_source_file_index>
1776

> <i_lp_mmshare_version>
43012

> <i_f3d_flags>
0

> <s_epik_input>
TzFbQ0gyXVtDSDJdT1tDSDJdW0NASF0xQyg9TylbTkhdYzJbY0hdYyhDKEYpKEYpRilbY0hdW25IXWMyPU8=

> <s_epik_cmdline>
J2VwaWtfcHl0aG9uJywgJy1waCcsICc3LjAnLCAnLXRuJywgJzgnLCAnLW1hJywgJzIwMCcsICctbWV0YWxfYmluZGluZycsICctaW1hZScsICc8aW5maWxlLm1hZT4nLCAnLW9tYWUnLCAnPG91dGZpbGUubWFlPic=

> <r_epik_Ionization_Penalty>
2.46925

> <r_epik_Ionization_Penalty_Charging>
0.0509887

> <r_epik_Ionization_Penalty_Neutral>
2.41826

> <r_epik_State_Penalty>
2.57741

> <r_epik_Charging_Adjusted_Penalty>
2.6284

> <i_epik_Tot_Q>
-1

> <i_epik_Tot_abs_Q>
1

> <r_epik_Metal_State_Penalty>
0.510263

> <b_epik_Metal_Only>
0

> <s_lp_Force_Field>
OPLS_2005

> <r_lp_Energy>
25.1464

> <b_lp_Chiralities_Consistent>
1

> <s_lp_Variant>
AV-unprocessed.smi:1776-4

> <Gold.Version>
5.8.1

> <Gold.Id.Protein>
6NUR|6NUR_protein|mol2

> <Gold.PLP.Fitness>
40.0640

> <Gold.PLP.PLP>
-36.8754

> <Gold.PLP.part.hbond>
-2.0000

> <Gold.PLP.part.metal>
0.0000

> <Gold.PLP.part.buried>
-4.5132

> <Gold.PLP.part.nonpolar>
-31.0613

> <Gold.PLP.part.repulsive>
0.3309

> <Gold.PLP.ligand.clash>
0.0000

> <Gold.PLP.ligand.torsion>
1.2760

> <Gold.PLP.Chemscore.Hbond>
1.8960

> <Gold.PLP.Chemscore.CHOScore>
0.0000

> <Gold.PLP.Chemscore.Metal>
0.0000

> <Gold.Chemscore.Hbonds>
donor molecule, donor type, donor heavy atom, donor atom, acceptor molecule, acceptor atom, score
      P1  H  7989  7998       L1     1  0.91
      P1  H  7997  8010       L1    14  1.00

> <Gold.PLP.Chemscore.Internal.Correction>
0.0525

> <Gold.Rescore>
     Score         DG    S(hbond)    S(metal)    S(lipo)     H(rot)  DE(clash)    DE(int)     intcor
      8.77     -14.37       1.27        0.00      61.71       1.00       0.04       5.56       ----

> <Gold.Chemscore.Fitness>
8.7698

> <Gold.Chemscore.DG>
-14.3692

> <Gold.Chemscore.ZeroCoef>
-5.4800

> <Gold.Chemscore.Hbond>
1.2662

> <Gold.Chemscore.Metal>
0.0000

> <Gold.Chemscore.Lipo>
61.7105

> <Gold.Chemscore.Internal_Hbond>
0.0000

> <Gold.Chemscore.DEClash>
0.0426

> <Gold.Chemscore.DEInternal>
5.5568

> <Gold.Chemscore.Rot>
1.0000

> <Gold.Chemscore.Internal.Correction>
   9.000000E+99

> <Gold.Chemscore.Hbonds>
donor molecule, donor type, donor heavy atom, donor atom, acceptor molecule, acceptor atom, score
      P1  H  7989  7998       L1     1  0.64
      P1  H  7997  8010       L1    14  0.25

> <Gold.Chemscore.Hbond.Weighted>
-4.2291

> <Gold.Chemscore.Metal.Weighted>
-0.0000

> <Gold.Chemscore.Lipo.Weighted>
-7.2201

> <Gold.Chemscore.Internal_Hbond.Weighted>
0.0000

> <Gold.Chemscore.DEClash.Weighted>
0.0426

> <Gold.Chemscore.DEInternal.Weighted>
5.5568

> <Gold.Chemscore.Rot.Weighted>
2.5600

> <Gold.Chemscore.Internal.Correction.Weighted>
   9.000000E+99

> <Gold.Protein.RotatedTorsions>
[ 6907 6896 6895 6894 ] final   -1.14 input  -60.11 | X-H torsion
[ 7974 7965 7964 7962 ] final  -11.11 input  175.53 | X-H torsion
[ 8008 7997 7996 7995 ] final   53.27 input   59.86 | X-H torsion
[ 10167 10162 10161 10158 ] final   92.06 input  -65.29 | X-H torsion
[ 10718 10713 10712 10709 ] final  -32.92 input   66.30 | X-H torsion
[ 10763 10752 10751 10750 ] final   11.00 input  -60.55 | X-H torsion
[ 11005 11000 10999 10996 ] final   45.56 input  -57.11 | X-H torsion

> <Gold.Protein.ActiveResidues>
 VAL166  LYS551  ARG553  GLY616  TRP617  ASP618  TYR619  PRO620  LYS621  CYS622 
 ASP623  PHE694  ASN695  SER759  ASP760  ASP761  ALA762  ILE779  LEU786  VAL792 
 PHE793  MET794  SER795  GLU796  ALA797  LYS798  CYS799  TRP800  GLU811  SER814 

> <Gold.Protein.RotatedAtoms>
  151.5509  135.1067  159.9949 H   0  0  0  0  0  0  0  0  0  0  0  0  # atno 6907 bound_to 6896
  152.4492  133.7591  159.6747 H   0  0  0  0  0  0  0  0  0  0  0  0  # atno 6908 bound_to 6896
  150.8415  133.7861  159.3083 H   0  0  0  0  0  0  0  0  0  0  0  0  # atno 6909 bound_to 6896
  146.2198  140.2862  142.8365 H   0  0  0  0  0  0  0  0  0  0  0  0  # atno 7974 bound_to 7965
  155.4655  140.3463  155.4318 H   0  0  0  0  0  0  0  0  0  0  0  0  # atno 8008 bound_to 7997
  156.1133  140.1467  156.9336 H   0  0  0  0  0  0  0  0  0  0  0  0  # atno 8009 bound_to 7997
  154.4772  140.0881  156.7269 H   0  0  0  0  0  0  0  0  0  0  0  0  # atno 8010 bound_to 7997
  139.8314  144.6685  150.9396 H   0  0  0  0  0  0  0  0  0  0  0  0  # atno 10167 bound_to 10162
  156.3690  130.4336  149.7561 H   0  0  0  0  0  0  0  0  0  0  0  0  # atno 10718 bound_to 10713
  153.1972  135.6851  153.8276 H   0  0  0  0  0  0  0  0  0  0  0  0  # atno 10763 bound_to 10752
  153.7555  135.3217  155.3329 H   0  0  0  0  0  0  0  0  0  0  0  0  # atno 10764 bound_to 10752
  154.8151  135.4691  154.0722 H   0  0  0  0  0  0  0  0  0  0  0  0  # atno 10765 bound_to 10752
  140.1448  134.4536  155.8423 H   0  0  0  0  0  0  0  0  0  0  0  0  # atno 11005 bound_to 11000
  144.9160  140.7813  143.5778 LP  0  0  0  0  0  0  0  0  0  0  0  0  # atno 17320 bound_to 7965
  145.2796  139.1923  143.4798 LP  0  0  0  0  0  0  0  0  0  0  0  0  # atno 17321 bound_to 7965
  140.7806  143.3998  151.1169 LP  0  0  0  0  0  0  0  0  0  0  0  0  # atno 17342 bound_to 10162
  139.7651  143.8577  152.3109 LP  0  0  0  0  0  0  0  0  0  0  0  0  # atno 17343 bound_to 10162
  156.4695  130.7990  151.3008 LP  0  0  0  0  0  0  0  0  0  0  0  0  # atno 17370 bound_to 10713
  157.7482  131.0040  150.3060 LP  0  0  0  0  0  0  0  0  0  0  0  0  # atno 17371 bound_to 10713
  141.2191  133.6848  156.7314 LP  0  0  0  0  0  0  0  0  0  0  0  0  # atno 17394 bound_to 11000
  140.2677  134.8417  157.3818 LP  0  0  0  0  0  0  0  0  0  0  0  0  # atno 17395 bound_to 11000

$$$$
