AV-unprocessed.smi:930|AV-procd|sdf|4196|dock2
  -GOLD-   22720 2103D 1   1.00000     0.00000
 Structure written by MMmdl.
 32 33  0  0  0  0  0  0  0  0  1 V2000
  146.5432  138.6971  152.1862 C   0  0  0  0  0  0  0  0  0  0  0  0
  147.4572  139.3698  153.1527 C   0  0  0  0  0  0  0  0  0  0  0  0
  148.4245  138.7191  153.8107 N   0  0  0  0  0  0  0  0  0  0  0  0
  149.1428  139.5564  154.6527 N   0  0  0  0  0  0  0  0  0  0  0  0
  148.6934  140.8180  154.6057 C   0  0  0  0  0  0  0  0  0  0  0  0
  149.2456  141.8815  155.3676 N   0  0  0  0  0  0  0  0  0  0  0  0
  150.2217  141.8264  156.2907 C   0  0  0  0  0  0  0  0  0  0  0  0
  150.8173  140.8059  156.6375 O   0  0  0  0  0  0  0  0  0  0  0  0
  150.4751  143.0403  156.8013 N   0  0  0  0  0  0  0  0  0  0  0  0
  151.4787  143.3331  157.8205 C   0  0  0  0  0  0  0  0  0  0  0  0
  151.4743  142.2492  158.9190 C   0  0  0  0  0  0  0  0  0  0  0  0
  152.4732  142.5803  160.0395 C   0  0  0  0  0  0  0  0  0  0  0  0
  152.2014  143.9698  160.6366 C   0  0  0  0  0  0  0  0  0  0  0  0
  152.2093  145.0528  159.5463 C   0  0  0  0  0  0  0  0  0  0  0  0
  151.2098  144.7241  158.4254 C   0  0  0  0  0  0  0  0  0  0  0  0
  147.3430  141.0871  153.5170 S   0  0  0  0  0  0  0  0  0  0  0  0
  146.8355  137.6568  152.0394 H   0  0  0  0  0  0  0  0  0  0  0  0
  146.5774  139.2081  151.2239 H   0  0  0  0  0  0  0  0  0  0  0  0
  145.5202  138.7232  152.5615 H   0  0  0  0  0  0  0  0  0  0  0  0
  148.8509  142.7927  155.1877 H   0  0  0  0  0  0  0  0  0  0  0  0
  149.9364  143.8223  156.4586 H   0  0  0  0  0  0  0  0  0  0  0  0
  152.4639  143.3546  157.3505 H   0  0  0  0  0  0  0  0  0  0  0  0
  150.4734  142.1579  159.3435 H   0  0  0  0  0  0  0  0  0  0  0  0
  151.7178  141.2757  158.4915 H   0  0  0  0  0  0  0  0  0  0  0  0
  152.4188  141.8227  160.8215 H   0  0  0  0  0  0  0  0  0  0  0  0
  153.4893  142.5444  159.6445 H   0  0  0  0  0  0  0  0  0  0  0  0
  151.2358  143.9674  161.1439 H   0  0  0  0  0  0  0  0  0  0  0  0
  152.9491  144.2011  161.3956 H   0  0  0  0  0  0  0  0  0  0  0  0
  151.9715  146.0227  159.9838 H   0  0  0  0  0  0  0  0  0  0  0  0
  153.2122  145.1406  159.1262 H   0  0  0  0  0  0  0  0  0  0  0  0
  151.2677  145.4875  157.6485 H   0  0  0  0  0  0  0  0  0  0  0  0
  150.1949  144.7653  158.8240 H   0  0  0  0  0  0  0  0  0  0  0  0
  1  2  1  0  0  0  0
  1 17  1  0  0  0  0
  1 18  1  0  0  0  0
  1 19  1  0  0  0  0
  2 16  1  0  0  0  0
  2  3  2  0  0  0  0
  3  4  1  0  0  0  0
  4  5  2  0  0  0  0
  5  6  1  0  0  0  0
  5 16  1  0  0  0  0
  6  7  1  0  0  0  0
  6 20  1  0  0  0  0
  7  8  2  0  0  0  0
  7  9  1  0  0  0  0
  9 10  1  0  0  0  0
  9 21  1  0  0  0  0
 10 15  1  0  0  0  0
 10 11  1  0  0  0  0
 10 22  1  0  0  0  0
 11 12  1  0  0  0  0
 11 23  1  0  0  0  0
 11 24  1  0  0  0  0
 12 13  1  0  0  0  0
 12 25  1  0  0  0  0
 12 26  1  0  0  0  0
 13 14  1  0  0  0  0
 13 27  1  0  0  0  0
 13 28  1  0  0  0  0
 14 15  1  0  0  0  0
 14 29  1  0  0  0  0
 14 30  1  0  0  0  0
 15 31  1  0  0  0  0
 15 32  1  0  0  0  0
M  END
> <s_m_source_file>
AV-unprocessed.smi

> <i_m_source_file_index>
930

> <i_lp_mmshare_version>
43012

> <i_f3d_flags>
0

> <s_epik_input>
W0NIM11jMW5uYyhzMSlbTkhdQyg9TylbTkhdW0NIXTJbQ0gyXVtDSDJdW0NIMl1bQ0gyXVtDSDJdMg==

> <s_epik_cmdline>
J2VwaWtfcHl0aG9uJywgJy1waCcsICc3LjAnLCAnLXRuJywgJzgnLCAnLW1hJywgJzIwMCcsICctbWV0YWxfYmluZGluZycsICctaW1hZScsICc8aW5maWxlLm1hZT4nLCAnLW9tYWUnLCAnPG91dGZpbGUubWFlPic=

> <r_lp_tautomer_probability>
1

> <r_epik_Ionization_Penalty>
0.000369052

> <r_epik_Ionization_Penalty_Charging>
0

> <r_epik_Ionization_Penalty_Neutral>
0.000369052

> <r_epik_State_Penalty>
-0

> <r_epik_Charging_Adjusted_Penalty>
0

> <i_epik_Tot_Q>
0

> <i_epik_Tot_abs_Q>
0

> <r_epik_Metal_State_Penalty>
0.185018

> <b_epik_Metal_Only>
0

> <s_lp_Force_Field>
OPLS_2005

> <r_lp_Energy>
7.80656

> <b_lp_Chiralities_Consistent>
1

> <s_lp_Variant>
AV-unprocessed.smi:930-1

> <Gold.Version>
5.8.1

> <Gold.Id.Protein>
6NUR|6NUR_protein|mol2

> <Gold.PLP.Fitness>
41.9821

> <Gold.PLP.PLP>
-36.6057

> <Gold.PLP.part.hbond>
-2.0000

> <Gold.PLP.part.metal>
0.0000

> <Gold.PLP.part.buried>
-4.8306

> <Gold.PLP.part.nonpolar>
-31.4825

> <Gold.PLP.part.repulsive>
0.5581

> <Gold.PLP.ligand.clash>
0.0000

> <Gold.PLP.ligand.torsion>
0.2294

> <Gold.PLP.Chemscore.Hbond>
1.9440

> <Gold.PLP.Chemscore.CHOScore>
0.0000

> <Gold.PLP.Chemscore.Metal>
0.0000

> <Gold.Chemscore.Hbonds>
donor molecule, donor type, donor heavy atom, donor atom, acceptor molecule, acceptor atom, score
      L1  H     6    20       P1  8028  0.94
      L1  H     9    21       P1  8028  1.00

> <Gold.PLP.Chemscore.Internal.Correction>
0.0033

> <Gold.Rescore>
     Score         DG    S(hbond)    S(metal)    S(lipo)     H(rot)  DE(clash)    DE(int)     intcor
     17.35     -20.22       1.95        0.00      92.32       1.00       0.02       2.85       ----

> <Gold.Chemscore.Fitness>
17.3502

> <Gold.Chemscore.DG>
-20.2242

> <Gold.Chemscore.ZeroCoef>
-5.4800

> <Gold.Chemscore.Hbond>
1.9468

> <Gold.Chemscore.Metal>
0.0000

> <Gold.Chemscore.Lipo>
92.3236

> <Gold.Chemscore.Internal_Hbond>
0.0000

> <Gold.Chemscore.DEClash>
0.0247

> <Gold.Chemscore.DEInternal>
2.8493

> <Gold.Chemscore.Rot>
1.0000

> <Gold.Chemscore.Internal.Correction>
   9.000000E+99

> <Gold.Chemscore.Hbonds>
donor molecule, donor type, donor heavy atom, donor atom, acceptor molecule, acceptor atom, score
      L1  H     6    20       P1  8028  0.89
      L1  H     9    21       P1  8028  0.98

> <Gold.Chemscore.Hbond.Weighted>
-6.5023

> <Gold.Chemscore.Metal.Weighted>
-0.0000

> <Gold.Chemscore.Lipo.Weighted>
-10.8019

> <Gold.Chemscore.Internal_Hbond.Weighted>
0.0000

> <Gold.Chemscore.DEClash.Weighted>
0.0247

> <Gold.Chemscore.DEInternal.Weighted>
2.8493

> <Gold.Chemscore.Rot.Weighted>
2.5600

> <Gold.Chemscore.Internal.Correction.Weighted>
   9.000000E+99

> <Gold.Protein.RotatedTorsions>
[ 6907 6896 6895 6894 ] final  -52.09 input  -60.11 | X-H torsion
[ 7974 7965 7964 7962 ] final   16.57 input  175.53 | X-H torsion
[ 8008 7997 7996 7995 ] final   24.97 input   59.86 | X-H torsion
[ 10167 10162 10161 10158 ] final  -61.98 input  -65.29 | X-H torsion
[ 10718 10713 10712 10709 ] final   80.80 input   66.30 | X-H torsion
[ 10763 10752 10751 10750 ] final -110.51 input  -60.55 | X-H torsion
[ 11005 11000 10999 10996 ] final  -52.16 input  -57.11 | X-H torsion

> <Gold.Protein.ActiveResidues>
 VAL166  LYS551  ARG553  GLY616  TRP617  ASP618  TYR619  PRO620  LYS621  CYS622 
 ASP623  PHE694  ASN695  SER759  ASP760  ASP761  ALA762  ILE779  LEU786  VAL792 
 PHE793  MET794  SER795  GLU796  ALA797  LYS798  CYS799  TRP800  GLU811  SER814 

> <Gold.Protein.RotatedAtoms>
  150.8550  134.7886  159.7038 H   0  0  0  0  0  0  0  0  0  0  0  0  # atno 6907 bound_to 6896
  152.4604  134.5194  159.9787 H   0  0  0  0  0  0  0  0  0  0  0  0  # atno 6908 bound_to 6896
  151.5308  133.3411  159.2953 H   0  0  0  0  0  0  0  0  0  0  0  0  # atno 6909 bound_to 6896
  146.2245  139.8729  142.8584 H   0  0  0  0  0  0  0  0  0  0  0  0  # atno 7974 bound_to 7965
  155.0045  140.3129  155.4854 H   0  0  0  0  0  0  0  0  0  0  0  0  # atno 8008 bound_to 7997
  156.2919  140.2226  156.5098 H   0  0  0  0  0  0  0  0  0  0  0  0  # atno 8009 bound_to 7997
  154.7589  140.0460  157.0944 H   0  0  0  0  0  0  0  0  0  0  0  0  # atno 8010 bound_to 7997
  140.5970  143.2353  151.6015 H   0  0  0  0  0  0  0  0  0  0  0  0  # atno 10167 bound_to 10162
  157.6816  130.9976  150.2133 H   0  0  0  0  0  0  0  0  0  0  0  0  # atno 10718 bound_to 10713
  154.8252  135.4561  154.0897 H   0  0  0  0  0  0  0  0  0  0  0  0  # atno 10763 bound_to 10752
  153.2217  135.6895  153.7999 H   0  0  0  0  0  0  0  0  0  0  0  0  # atno 10764 bound_to 10752
  153.7413  135.3312  155.3281 H   0  0  0  0  0  0  0  0  0  0  0  0  # atno 10765 bound_to 10752
  141.0910  133.6633  156.3984 H   0  0  0  0  0  0  0  0  0  0  0  0  # atno 11005 bound_to 11000
  145.2590  141.0070  143.3837 LP  0  0  0  0  0  0  0  0  0  0  0  0  # atno 17320 bound_to 7965
  144.9313  139.4295  143.6493 LP  0  0  0  0  0  0  0  0  0  0  0  0  # atno 17321 bound_to 7965
  139.5265  144.3045  152.1045 LP  0  0  0  0  0  0  0  0  0  0  0  0  # atno 17342 bound_to 10162
  140.2219  144.4457  150.6338 LP  0  0  0  0  0  0  0  0  0  0  0  0  # atno 17343 bound_to 10162
  156.2799  130.3732  149.7945 LP  0  0  0  0  0  0  0  0  0  0  0  0  # atno 17370 bound_to 10713
  156.5637  130.8394  151.3336 LP  0  0  0  0  0  0  0  0  0  0  0  0  # atno 17371 bound_to 10713
  140.5253  134.6265  157.5332 LP  0  0  0  0  0  0  0  0  0  0  0  0  # atno 17394 bound_to 11000
  139.9736  134.7253  155.9994 LP  0  0  0  0  0  0  0  0  0  0  0  0  # atno 17395 bound_to 11000

$$$$
