AV-unprocessed.smi:3316|AV-procd|sdf|12755|dock8
  -GOLD-   2272019 93D 1   1.00000     0.00000
 Structure written by MMmdl.
 41 43  0  0  0  0  0  0  0  0  2 V2000
  145.3242  135.1803  153.3953 C   0  0  0  0  0  0  0  0  0  0  0  0
  145.9043  135.1797  151.9725 C   0  0  2  0  0  0  0  0  0  0  0  0
  145.6075  136.5041  151.2420 C   0  0  0  0  0  0  0  0  0  0  0  0
  146.6390  137.5238  151.5239 N   0  3  0  0  0  0  0  0  0  0  0  0
  146.3855  138.3199  152.7407 C   0  0  0  0  0  0  0  0  0  0  0  0
  147.5340  139.3214  153.0079 C   0  0  1  0  0  0  0  0  0  0  0  0
  147.1023  140.8232  152.9295 C   0  0  0  0  0  0  0  0  0  0  0  0
  147.5160  141.3835  154.3092 C   0  0  2  0  0  0  0  0  0  0  0  0
  149.0258  141.3339  154.4023 C   0  0  0  0  0  0  0  0  0  0  0  0
  149.3751  140.0496  154.4913 C   0  0  0  0  0  0  0  0  0  0  0  0
  148.1004  139.2320  154.4503 C   0  0  1  0  0  0  0  0  0  0  0  0
  147.1522  140.1847  155.1893 C   0  0  0  0  0  0  0  0  0  0  0  0
  145.4225  133.9687  151.1819 C   0  0  0  0  0  0  0  0  0  0  0  0
  146.3404  132.9999  150.7235 C   0  0  0  0  0  0  0  0  0  0  0  0
  145.8517  131.9017  149.9874 C   0  0  0  0  0  0  0  0  0  0  0  0
  144.5455  131.7292  149.6929 N   0  0  0  0  0  0  0  0  0  0  0  0
  143.6704  132.6568  150.1350 C   0  0  0  0  0  0  0  0  0  0  0  0
  144.0549  133.7902  150.8791 C   0  0  0  0  0  0  0  0  0  0  0  0
  145.5868  134.2640  153.9251 H   0  0  0  0  0  0  0  0  0  0  0  0
  144.2366  135.2592  153.3867 H   0  0  0  0  0  0  0  0  0  0  0  0
  145.7113  136.0173  153.9772 H   0  0  0  0  0  0  0  0  0  0  0  0
  146.9878  135.0988  152.0727 H   0  0  0  0  0  0  0  0  0  0  0  0
  145.5475  136.3386  150.1655 H   0  0  0  0  0  0  0  0  0  0  0  0
  144.6377  136.8923  151.5561 H   0  0  0  0  0  0  0  0  0  0  0  0
  147.5328  137.0629  151.6193 H   0  0  0  0  0  0  0  0  0  0  0  0
  145.4313  138.8339  152.6236 H   0  0  0  0  0  0  0  0  0  0  0  0
  146.2642  137.6395  153.5847 H   0  0  0  0  0  0  0  0  0  0  0  0
  148.3443  139.1420  152.2980 H   0  0  0  0  0  0  0  0  0  0  0  0
  147.5991  141.3490  152.1130 H   0  0  0  0  0  0  0  0  0  0  0  0
  146.0279  140.9413  152.7856 H   0  0  0  0  0  0  0  0  0  0  0  0
  147.0684  142.3339  154.6005 H   0  0  0  0  0  0  0  0  0  0  0  0
  149.6752  142.1963  154.3684 H   0  0  0  0  0  0  0  0  0  0  0  0
  150.3719  139.6371  154.5434 H   0  0  0  0  0  0  0  0  0  0  0  0
  148.1940  138.2338  154.8789 H   0  0  0  0  0  0  0  0  0  0  0  0
  147.4234  140.3285  156.2375 H   0  0  0  0  0  0  0  0  0  0  0  0
  146.0999  139.8988  155.1352 H   0  0  0  0  0  0  0  0  0  0  0  0
  147.3973  133.0886  150.9288 H   0  0  0  0  0  0  0  0  0  0  0  0
  146.5287  131.1433  149.6233 H   0  0  0  0  0  0  0  0  0  0  0  0
  142.6322  132.4935  149.8864 H   0  0  0  0  0  0  0  0  0  0  0  0
  143.3113  134.5013  151.2075 H   0  0  0  0  0  0  0  0  0  0  0  0
  146.6844  138.1546  150.7360 H   0  0  0  0  0  0  0  0  0  0  0  0
  1  2  1  0  0  0  0
  1 19  1  0  0  0  0
  1 20  1  0  0  0  0
  1 21  1  0  0  0  0
  2  3  1  0  0  0  0
  2 13  1  0  0  0  0
  2 22  1  0  0  0  0
  3  4  1  0  0  0  0
  3 23  1  0  0  0  0
  3 24  1  0  0  0  0
  4  5  1  0  0  0  0
  4 25  1  0  0  0  0
  4 41  1  0  0  0  0
  5  6  1  0  0  0  0
  5 26  1  0  0  0  0
  5 27  1  0  0  0  0
  6 11  1  0  0  0  0
  6  7  1  0  0  0  0
  6 28  1  0  0  0  0
  7  8  1  0  0  0  0
  7 29  1  0  0  0  0
  7 30  1  0  0  0  0
  8 12  1  0  0  0  0
  8  9  1  0  0  0  0
  8 31  1  0  0  0  0
  9 10  2  0  0  0  0
  9 32  1  0  0  0  0
 10 11  1  0  0  0  0
 10 33  1  0  0  0  0
 11 12  1  0  0  0  0
 11 34  1  0  0  0  0
 12 35  1  0  0  0  0
 12 36  1  0  0  0  0
 13 18  1  0  0  0  0
 13 14  2  0  0  0  0
 14 15  1  0  0  0  0
 14 37  1  0  0  0  0
 15 16  2  0  0  0  0
 15 38  1  0  0  0  0
 16 17  1  0  0  0  0
 17 18  2  0  0  0  0
 17 39  1  0  0  0  0
 18 40  1  0  0  0  0
M  CHG  1   4   1
M  END
> <s_m_source_file>
AV-unprocessed.smi

> <i_m_source_file_index>
3316

> <i_lp_mmshare_version>
43012

> <i_f3d_flags>
0

> <s_epik_input>
W2NIXTFbY0hdbltjSF1bY0hdYzFbQ0BIXShbQ0gzXSlbQ0gyXVtOSF1bQ0gyXVtDQEhdKFtDSDJdW0NASF0yMylbQ0BIXShbQ0gyXTMpW0NIXT1bQ0hdMg==

> <s_epik_cmdline>
J2VwaWtfcHl0aG9uJywgJy1waCcsICc3LjAnLCAnLXRuJywgJzgnLCAnLW1hJywgJzIwMCcsICctbWV0YWxfYmluZGluZycsICctaW1hZScsICc8aW5maWxlLm1hZT4nLCAnLW9tYWUnLCAnPG91dGZpbGUubWFlPic=

> <r_lp_tautomer_probability>
1

> <r_epik_Ionization_Penalty>
0.00280406

> <r_epik_Ionization_Penalty_Charging>
0.000446589

> <r_epik_Ionization_Penalty_Neutral>
0.00235747

> <r_epik_State_Penalty>
-0

> <r_epik_Charging_Adjusted_Penalty>
0.000446589

> <i_epik_Tot_Q>
1

> <i_epik_Tot_abs_Q>
1

> <r_epik_Metal_State_Penalty>
-0

> <b_epik_Metal_Only>
0

> <s_lp_Force_Field>
OPLS_2005

> <r_lp_Energy>
68.7939

> <b_lp_Chiralities_Consistent>
1

> <s_lp_Variant>
AV-unprocessed.smi:3316-3

> <Gold.Version>
5.8.1

> <Gold.Id.Protein>
6NUR|6NUR_protein|mol2

> <Gold.PLP.Fitness>
45.3307

> <Gold.PLP.PLP>
-34.9861

> <Gold.PLP.part.hbond>
-2.0000

> <Gold.PLP.part.metal>
0.0000

> <Gold.PLP.part.buried>
-0.2874

> <Gold.PLP.part.nonpolar>
-32.3993

> <Gold.PLP.part.repulsive>
0.2444

> <Gold.PLP.ligand.clash>
0.0000

> <Gold.PLP.ligand.torsion>
1.2702

> <Gold.PLP.Chemscore.Hbond>
2.2015

> <Gold.PLP.Chemscore.CHOScore>
2.0731

> <Gold.PLP.Chemscore.Metal>
0.0000

> <Gold.Chemscore.Hbonds>
donor molecule, donor type, donor heavy atom, donor atom, acceptor molecule, acceptor atom, score
      L1  H     4    25       P1  7948  2.00
      P1  H 10785 10796       L1    16  0.19
      L1  C    15    38       P1 10747  0.95
      L1  C    17    39       P1 10186  0.84
      L1  C    17    39       P1 10952  0.28

> <Gold.PLP.Chemscore.Internal.Correction>
0.0612

> <Gold.Rescore>
     Score         DG    S(hbond)    S(metal)    S(lipo)     H(rot)  DE(clash)    DE(int)     intcor
     15.84     -17.88       1.11        0.00     104.21       1.36       0.64       1.40       ----

> <Gold.Chemscore.Fitness>
15.8413

> <Gold.Chemscore.DG>
-17.8809

> <Gold.Chemscore.ZeroCoef>
-5.4800

> <Gold.Chemscore.Hbond>
1.1078

> <Gold.Chemscore.Metal>
0.0000

> <Gold.Chemscore.Lipo>
104.2121

> <Gold.Chemscore.Internal_Hbond>
0.0000

> <Gold.Chemscore.DEClash>
0.6429

> <Gold.Chemscore.DEInternal>
1.3966

> <Gold.Chemscore.Rot>
1.3640

> <Gold.Chemscore.Internal.Correction>
   9.000000E+99

> <Gold.Chemscore.Hbonds>
donor molecule, donor type, donor heavy atom, donor atom, acceptor molecule, acceptor atom, score
      L1  H     4    25       P1  7948  1.00
      P1  H 10785 10796       L1    16  0.08

> <Gold.Chemscore.Hbond.Weighted>
-3.7000

> <Gold.Chemscore.Metal.Weighted>
-0.0000

> <Gold.Chemscore.Lipo.Weighted>
-12.1928

> <Gold.Chemscore.Internal_Hbond.Weighted>
0.0000

> <Gold.Chemscore.DEClash.Weighted>
0.6429

> <Gold.Chemscore.DEInternal.Weighted>
1.3966

> <Gold.Chemscore.Rot.Weighted>
3.4919

> <Gold.Chemscore.Internal.Correction.Weighted>
   9.000000E+99

> <Gold.Protein.RotatedTorsions>
[ 6907 6896 6895 6894 ] final   93.21 input  -60.11 | X-H torsion
[ 7974 7965 7964 7962 ] final   87.20 input  175.53 | X-H torsion
[ 8008 7997 7996 7995 ] final  132.34 input   59.86 | X-H torsion
[ 10167 10162 10161 10158 ] final   94.34 input  -65.29 | X-H torsion
[ 10718 10713 10712 10709 ] final   61.81 input   66.30 | X-H torsion
[ 10763 10752 10751 10750 ] final  174.89 input  -60.55 | X-H torsion
[ 11005 11000 10999 10996 ] final  107.17 input  -57.11 | X-H torsion

> <Gold.Protein.ActiveResidues>
 VAL166  LYS551  ARG553  GLY616  TRP617  ASP618  TYR619  PRO620  LYS621  CYS622 
 ASP623  PHE694  ASN695  SER759  ASP760  ASP761  ALA762  ILE779  LEU786  VAL792 
 PHE793  MET794  SER795  GLU796  ALA797  LYS798  CYS799  TRP800  GLU811  SER814 

> <Gold.Protein.RotatedAtoms>
  152.5452  134.1382  159.8467 H   0  0  0  0  0  0  0  0  0  0  0  0  # atno 6907 bound_to 6896
  151.1421  133.4957  159.2604 H   0  0  0  0  0  0  0  0  0  0  0  0  # atno 6908 bound_to 6896
  151.1562  135.0261  159.8745 H   0  0  0  0  0  0  0  0  0  0  0  0  # atno 6909 bound_to 6896
  145.5621  139.2305  143.2453 H   0  0  0  0  0  0  0  0  0  0  0  0  # atno 7974 bound_to 7965
  156.2981  140.2549  156.3073 H   0  0  0  0  0  0  0  0  0  0  0  0  # atno 8008 bound_to 7997
  154.9359  140.0397  157.2091 H   0  0  0  0  0  0  0  0  0  0  0  0  # atno 8009 bound_to 7997
  154.8173  140.2854  155.5816 H   0  0  0  0  0  0  0  0  0  0  0  0  # atno 8010 bound_to 7997
  139.8093  144.6780  150.9662 H   0  0  0  0  0  0  0  0  0  0  0  0  # atno 10167 bound_to 10162
  157.5855  130.9015  149.9508 H   0  0  0  0  0  0  0  0  0  0  0  0  # atno 10718 bound_to 10713
  154.4602  135.2767  155.1718 H   0  0  0  0  0  0  0  0  0  0  0  0  # atno 10763 bound_to 10752
  154.3510  135.6150  153.5646 H   0  0  0  0  0  0  0  0  0  0  0  0  # atno 10764 bound_to 10752
  152.9854  135.5811  154.4962 H   0  0  0  0  0  0  0  0  0  0  0  0  # atno 10765 bound_to 10752
  139.8824  134.9392  156.5779 H   0  0  0  0  0  0  0  0  0  0  0  0  # atno 11005 bound_to 11000
  146.1844  140.6446  142.9174 LP  0  0  0  0  0  0  0  0  0  0  0  0  # atno 17320 bound_to 7965
  144.7478  140.5112  143.6823 LP  0  0  0  0  0  0  0  0  0  0  0  0  # atno 17321 bound_to 7965
  140.7818  143.4202  151.0854 LP  0  0  0  0  0  0  0  0  0  0  0  0  # atno 17342 bound_to 10162
  139.7869  143.8274  152.3146 LP  0  0  0  0  0  0  0  0  0  0  0  0  # atno 17343 bound_to 10162
  156.0904  130.3664  150.0407 LP  0  0  0  0  0  0  0  0  0  0  0  0  # atno 17370 bound_to 10713
  156.8539  130.9468  151.3623 LP  0  0  0  0  0  0  0  0  0  0  0  0  # atno 17371 bound_to 10713
  140.8049  133.8475  155.8759 LP  0  0  0  0  0  0  0  0  0  0  0  0  # atno 17394 bound_to 11000
  140.9559  134.1719  157.4692 LP  0  0  0  0  0  0  0  0  0  0  0  0  # atno 17395 bound_to 11000

$$$$
