AV-unprocessed.smi:3275|AV-procd|sdf|12533|dock2
  -GOLD-   2272018443D 1   1.00000     0.00000
 Structure written by MMmdl.
 34 35  0  0  0  0  0  0  0  0  1 V2000
  151.6236  136.7953  154.1141 O   0  0  0  0  0  0  0  0  0  0  0  0
  151.8394  138.1801  154.2798 C   0  0  0  0  0  0  0  0  0  0  0  0
  150.5855  138.8374  154.8659 C   0  0  0  0  0  0  0  0  0  0  0  0
  150.3615  140.0678  154.1929 O   0  0  0  0  0  0  0  0  0  0  0  0
  149.7771  141.0826  154.9993 C   0  0  1  0  0  0  0  0  0  0  0  0
  148.3929  140.6479  155.5262 C   0  0  0  0  0  0  0  0  0  0  0  0
  147.8498  141.6837  156.5243 C   0  0  0  0  0  0  0  0  0  0  0  0
  148.8593  141.9474  157.6537 C   0  0  0  0  0  0  0  0  0  0  0  0
  150.1604  142.3180  157.1034 N   0  0  0  0  0  0  0  0  0  0  0  0
  151.0323  142.8926  158.0462 C   0  0  0  0  0  0  0  0  0  0  0  0
  151.2398  144.2910  158.1110 C   0  0  0  0  0  0  0  0  0  0  0  0
  152.1368  144.8036  159.0687 C   0  0  0  0  0  0  0  0  0  0  0  0
  152.8167  144.0288  159.9387 N   0  0  0  0  0  0  0  0  0  0  0  0
  152.6173  142.6956  159.8798 C   0  0  0  0  0  0  0  0  0  0  0  0
  151.7440  142.0779  158.9613 C   0  0  0  0  0  0  0  0  0  0  0  0
  151.5493  140.3594  159.0006 Cl  0  0  0  0  0  0  0  0  0  0  0  0
  150.7337  141.3443  156.1767 C   0  0  0  0  0  0  0  0  0  0  0  0
  151.2648  136.6484  153.2522 H   0  0  0  0  0  0  0  0  0  0  0  0
  152.6950  138.3321  154.9384 H   0  0  0  0  0  0  0  0  0  0  0  0
  152.0867  138.6206  153.3134 H   0  0  0  0  0  0  0  0  0  0  0  0
  149.7248  138.1791  154.7365 H   0  0  0  0  0  0  0  0  0  0  0  0
  150.7192  139.0007  155.9354 H   0  0  0  0  0  0  0  0  0  0  0  0
  149.6813  142.0060  154.4250 H   0  0  0  0  0  0  0  0  0  0  0  0
  147.6831  140.5266  154.7085 H   0  0  0  0  0  0  0  0  0  0  0  0
  148.4750  139.6770  156.0163 H   0  0  0  0  0  0  0  0  0  0  0  0
  147.6383  142.6174  156.0013 H   0  0  0  0  0  0  0  0  0  0  0  0
  146.9029  141.3410  156.9424 H   0  0  0  0  0  0  0  0  0  0  0  0
  148.4797  142.7292  158.3119 H   0  0  0  0  0  0  0  0  0  0  0  0
  148.9770  141.0516  158.2649 H   0  0  0  0  0  0  0  0  0  0  0  0
  150.7373  144.9702  157.4388 H   0  0  0  0  0  0  0  0  0  0  0  0
  152.3151  145.8666  159.1349 H   0  0  0  0  0  0  0  0  0  0  0  0
  153.1697  142.1012  160.5927 H   0  0  0  0  0  0  0  0  0  0  0  0
  150.9246  140.4094  156.7049 H   0  0  0  0  0  0  0  0  0  0  0  0
  151.6920  141.7076  155.8029 H   0  0  0  0  0  0  0  0  0  0  0  0
  1  2  1  0  0  0  0
  1 18  1  0  0  0  0
  2  3  1  0  0  0  0
  2 19  1  0  0  0  0
  2 20  1  0  0  0  0
  3  4  1  0  0  0  0
  3 21  1  0  0  0  0
  3 22  1  0  0  0  0
  4  5  1  0  0  0  0
  5 17  1  0  0  0  0
  5  6  1  0  0  0  0
  5 23  1  0  0  0  0
  6  7  1  0  0  0  0
  6 24  1  0  0  0  0
  6 25  1  0  0  0  0
  7  8  1  0  0  0  0
  7 26  1  0  0  0  0
  7 27  1  0  0  0  0
  8  9  1  0  0  0  0
  8 28  1  0  0  0  0
  8 29  1  0  0  0  0
  9 10  1  0  0  0  0
  9 17  1  0  0  0  0
 10 15  1  0  0  0  0
 10 11  2  0  0  0  0
 11 12  1  0  0  0  0
 11 30  1  0  0  0  0
 12 13  2  0  0  0  0
 12 31  1  0  0  0  0
 13 14  1  0  0  0  0
 14 15  2  0  0  0  0
 14 32  1  0  0  0  0
 15 16  1  0  0  0  0
 17 33  1  0  0  0  0
 17 34  1  0  0  0  0
M  END
> <s_m_source_file>
AV-unprocessed.smi

> <i_m_source_file_index>
3275

> <i_lp_mmshare_version>
43012

> <i_f3d_flags>
0

> <s_epik_input>
W09IXVtDSDJdW0NIMl1PW0NAQEhdMVtDSDJdW0NIMl1bQ0gyXU4oW0NIMl0xKWMyW2NIXVtjSF1uW2NIXWMyQ2w=

> <s_epik_cmdline>
J2VwaWtfcHl0aG9uJywgJy1waCcsICc3LjAnLCAnLXRuJywgJzgnLCAnLW1hJywgJzIwMCcsICctbWV0YWxfYmluZGluZycsICctaW1hZScsICc8aW5maWxlLm1hZT4nLCAnLW9tYWUnLCAnPG91dGZpbGUubWFlPic=

> <r_lp_tautomer_probability>
1

> <r_epik_Ionization_Penalty>
1.24095

> <r_epik_Ionization_Penalty_Charging>
0

> <r_epik_Ionization_Penalty_Neutral>
1.24095

> <r_epik_State_Penalty>
1.30987

> <r_epik_Charging_Adjusted_Penalty>
1.30987

> <i_epik_Tot_Q>
0

> <i_epik_Tot_abs_Q>
0

> <r_epik_Metal_State_Penalty>
0.00479332

> <b_epik_Metal_Only>
0

> <s_lp_Force_Field>
OPLS_2005

> <r_lp_Energy>
20.7809

> <b_lp_Chiralities_Consistent>
1

> <s_lp_Variant>
AV-unprocessed.smi:3275-4

> <Gold.Version>
5.8.1

> <Gold.Id.Protein>
6NUR|6NUR_protein|mol2

> <Gold.PLP.Fitness>
44.7261

> <Gold.PLP.PLP>
-36.9643

> <Gold.PLP.part.hbond>
-3.0000

> <Gold.PLP.part.metal>
0.0000

> <Gold.PLP.part.buried>
-5.2696

> <Gold.PLP.part.nonpolar>
-29.3528

> <Gold.PLP.part.repulsive>
0.5911

> <Gold.PLP.ligand.clash>
0.0000

> <Gold.PLP.ligand.torsion>
0.7771

> <Gold.PLP.Chemscore.Hbond>
3.0000

> <Gold.PLP.Chemscore.CHOScore>
0.0000

> <Gold.PLP.Chemscore.Metal>
0.0000

> <Gold.Chemscore.Hbonds>
donor molecule, donor type, donor heavy atom, donor atom, acceptor molecule, acceptor atom, score
      L1  H     1    18       P1  7949  1.00
      P1  H  7989  7998       L1     4  1.00
      P1  H 10752 10763       L1     1  1.00

> <Gold.PLP.Chemscore.Internal.Correction>
0.3159

> <Gold.Rescore>
     Score         DG    S(hbond)    S(metal)    S(lipo)     H(rot)  DE(clash)    DE(int)     intcor
     18.56     -19.36       2.37        0.00      95.94       2.06       0.05       0.75       ----

> <Gold.Chemscore.Fitness>
18.5648

> <Gold.Chemscore.DG>
-19.3644

> <Gold.Chemscore.ZeroCoef>
-5.4800

> <Gold.Chemscore.Hbond>
2.3730

> <Gold.Chemscore.Metal>
0.0000

> <Gold.Chemscore.Lipo>
95.9368

> <Gold.Chemscore.Internal_Hbond>
0.0000

> <Gold.Chemscore.DEClash>
0.0465

> <Gold.Chemscore.DEInternal>
0.7531

> <Gold.Chemscore.Rot>
2.0570

> <Gold.Chemscore.Internal.Correction>
   9.000000E+99

> <Gold.Chemscore.Hbonds>
donor molecule, donor type, donor heavy atom, donor atom, acceptor molecule, acceptor atom, score
      L1  H     1    18       P1  7949  0.65
      P1  H  7989  7998       L1     4  0.33
      P1  H 10752 10763       L1     1  0.68

> <Gold.Chemscore.Hbond.Weighted>
-7.9258

> <Gold.Chemscore.Metal.Weighted>
-0.0000

> <Gold.Chemscore.Lipo.Weighted>
-11.2246

> <Gold.Chemscore.Internal_Hbond.Weighted>
0.0000

> <Gold.Chemscore.DEClash.Weighted>
0.0465

> <Gold.Chemscore.DEInternal.Weighted>
0.7531

> <Gold.Chemscore.Rot.Weighted>
5.2660

> <Gold.Chemscore.Internal.Correction.Weighted>
   9.000000E+99

> <Gold.Protein.RotatedTorsions>
[ 6907 6896 6895 6894 ] final -166.42 input  -60.11 | X-H torsion
[ 7974 7965 7964 7962 ] final  152.29 input  175.53 | X-H torsion
[ 8008 7997 7996 7995 ] final   25.14 input   59.86 | X-H torsion
[ 10167 10162 10161 10158 ] final  139.95 input  -65.29 | X-H torsion
[ 10718 10713 10712 10709 ] final  100.47 input   66.30 | X-H torsion
[ 10763 10752 10751 10750 ] final   49.34 input  -60.55 | X-H torsion
[ 11005 11000 10999 10996 ] final   23.65 input  -57.11 | X-H torsion

> <Gold.Protein.ActiveResidues>
 VAL166  LYS551  ARG553  GLY616  TRP617  ASP618  TYR619  PRO620  LYS621  CYS622 
 ASP623  PHE694  ASN695  SER759  ASP760  ASP761  ALA762  ILE779  LEU786  VAL792 
 PHE793  MET794  SER795  GLU796  ALA797  LYS798  CYS799  TRP800  GLU811  SER814 

> <Gold.Protein.RotatedAtoms>
  151.4433  133.3637  159.2784 H   0  0  0  0  0  0  0  0  0  0  0  0  # atno 6907 bound_to 6896
  150.9142  134.8561  159.7456 H   0  0  0  0  0  0  0  0  0  0  0  0  # atno 6908 bound_to 6896
  152.4948  134.4365  159.9581 H   0  0  0  0  0  0  0  0  0  0  0  0  # atno 6909 bound_to 6896
  144.8232  139.6649  143.6091 H   0  0  0  0  0  0  0  0  0  0  0  0  # atno 7974 bound_to 7965
  155.0071  140.3132  155.4844 H   0  0  0  0  0  0  0  0  0  0  0  0  # atno 8008 bound_to 7997
  156.2915  140.2221  156.5125 H   0  0  0  0  0  0  0  0  0  0  0  0  # atno 8009 bound_to 7997
  154.7567  140.0462  157.0927 H   0  0  0  0  0  0  0  0  0  0  0  0  # atno 8010 bound_to 7997
  139.5063  144.6264  151.5927 H   0  0  0  0  0  0  0  0  0  0  0  0  # atno 10167 bound_to 10162
  157.6853  131.0699  150.5105 H   0  0  0  0  0  0  0  0  0  0  0  0  # atno 10718 bound_to 10713
  152.9787  135.5915  154.4073 H   0  0  0  0  0  0  0  0  0  0  0  0  # atno 10763 bound_to 10752
  154.3712  135.2767  155.2267 H   0  0  0  0  0  0  0  0  0  0  0  0  # atno 10764 bound_to 10752
  154.4222  135.6056  153.6071 H   0  0  0  0  0  0  0  0  0  0  0  0  # atno 10765 bound_to 10752
  140.3673  134.2061  155.7668 H   0  0  0  0  0  0  0  0  0  0  0  0  # atno 11005 bound_to 11000
  146.2538  139.6257  142.9409 LP  0  0  0  0  0  0  0  0  0  0  0  0  # atno 17320 bound_to 7965
  145.5058  141.0436  143.2515 LP  0  0  0  0  0  0  0  0  0  0  0  0  # atno 17321 bound_to 7965
  140.5982  143.9658  150.6368 LP  0  0  0  0  0  0  0  0  0  0  0  0  # atno 17342 bound_to 10162
  140.2861  143.3356  152.1106 LP  0  0  0  0  0  0  0  0  0  0  0  0  # atno 17343 bound_to 10162
  156.5423  130.4211  149.6148 LP  0  0  0  0  0  0  0  0  0  0  0  0  # atno 17370 bound_to 10713
  156.2975  130.7158  151.2022 LP  0  0  0  0  0  0  0  0  0  0  0  0  # atno 17371 bound_to 10713
  141.1966  133.8079  157.0666 LP  0  0  0  0  0  0  0  0  0  0  0  0  # atno 17394 bound_to 11000
  140.0579  134.9770  157.1254 LP  0  0  0  0  0  0  0  0  0  0  0  0  # atno 17395 bound_to 11000

$$$$
