AV-unprocessed.smi:2001|AV-procd|sdf|8102|dock4
  -GOLD-   2272010323D 1   1.00000     0.00000
 Structure written by MMmdl.
 50 51  0  0  0  0  0  0  0  0  1 V2000
  155.4611  140.1777  163.3996 C   0  0  0  0  0  0  0  0  0  0  0  0
  155.3181  140.7865  162.1282 O   0  0  0  0  0  0  0  0  0  0  0  0
  154.2810  140.2016  161.3593 C   0  0  0  0  0  0  0  0  0  0  0  0
  154.5219  140.5245  159.8770 C   0  0  0  0  0  0  0  0  0  0  0  0
  153.2950  140.9838  159.2183 N   0  0  0  0  0  0  0  0  0  0  0  0
  152.9888  140.2981  158.0543 N   0  0  0  0  0  0  0  0  0  0  0  0
  151.9339  140.6116  157.3735 C   0  0  0  0  0  0  0  0  0  0  0  0
  151.5738  139.9054  156.1128 C   0  0  0  0  0  0  0  0  0  0  0  0
  151.0600  140.4956  155.1609 O   0  0  0  0  0  0  0  0  0  0  0  0
  151.8533  138.5898  156.0889 N   0  0  0  0  0  0  0  0  0  0  0  0
  151.6126  137.7005  154.9596 C   0  0  0  0  0  0  0  0  0  0  0  0
  150.1069  137.4382  154.7752 C   0  0  0  0  0  0  0  0  0  0  0  0
  149.5351  136.4462  155.6839 N   0  0  0  0  0  0  0  0  0  0  0  0
  149.4661  136.9193  157.0643 C   0  0  0  0  0  0  0  0  0  0  0  0
  148.8809  135.8527  158.0099 C   0  0  2  0  0  0  0  0  0  0  0  0
  148.8793  136.3105  159.4721 C   0  0  0  0  0  0  0  0  0  0  0  0
  149.6626  134.6654  157.9136 O   0  0  0  0  0  0  0  0  0  0  0  0
  149.7215  134.1360  156.5922 C   0  0  2  0  0  0  0  0  0  0  0  0
  150.5758  132.8643  156.6212 C   0  0  0  0  0  0  0  0  0  0  0  0
  150.3021  135.2059  155.6475 C   0  0  0  0  0  0  0  0  0  0  0  0
  151.0521  141.6784  157.8168 C   0  0  0  0  0  0  0  0  0  0  0  0
  151.3593  142.3321  158.9587 C   0  0  0  0  0  0  0  0  0  0  0  0
  152.5457  141.9971  159.7478 C   0  0  0  0  0  0  0  0  0  0  0  0
  152.8423  142.5725  160.7944 O   0  0  0  0  0  0  0  0  0  0  0  0
  156.2627  140.6679  163.9522 H   0  0  0  0  0  0  0  0  0  0  0  0
  155.7157  139.1213  163.3044 H   0  0  0  0  0  0  0  0  0  0  0  0
  154.5454  140.2666  163.9856 H   0  0  0  0  0  0  0  0  0  0  0  0
  154.2690  139.1209  161.5106 H   0  0  0  0  0  0  0  0  0  0  0  0
  153.3144  140.5914  161.6825 H   0  0  0  0  0  0  0  0  0  0  0  0
  155.3106  141.2729  159.7799 H   0  0  0  0  0  0  0  0  0  0  0  0
  154.9032  139.6354  159.3711 H   0  0  0  0  0  0  0  0  0  0  0  0
  152.2731  138.1804  156.9113 H   0  0  0  0  0  0  0  0  0  0  0  0
  152.0337  138.1788  154.0760 H   0  0  0  0  0  0  0  0  0  0  0  0
  152.1517  136.7613  155.0940 H   0  0  0  0  0  0  0  0  0  0  0  0
  149.5836  138.3841  154.9227 H   0  0  0  0  0  0  0  0  0  0  0  0
  149.9116  137.1470  153.7417 H   0  0  0  0  0  0  0  0  0  0  0  0
  150.4623  137.2037  157.4070 H   0  0  0  0  0  0  0  0  0  0  0  0
  148.8468  137.8136  157.1254 H   0  0  0  0  0  0  0  0  0  0  0  0
  147.8554  135.6259  157.7131 H   0  0  0  0  0  0  0  0  0  0  0  0
  148.2886  137.2182  159.5990 H   0  0  0  0  0  0  0  0  0  0  0  0
  149.8910  136.5171  159.8220 H   0  0  0  0  0  0  0  0  0  0  0  0
  148.4530  135.5438  160.1193 H   0  0  0  0  0  0  0  0  0  0  0  0
  148.7120  133.8738  156.2707 H   0  0  0  0  0  0  0  0  0  0  0  0
  150.6397  132.4119  155.6313 H   0  0  0  0  0  0  0  0  0  0  0  0
  150.1489  132.1235  157.2978 H   0  0  0  0  0  0  0  0  0  0  0  0
  151.5904  133.0782  156.9585 H   0  0  0  0  0  0  0  0  0  0  0  0
  150.3198  134.8142  154.6296 H   0  0  0  0  0  0  0  0  0  0  0  0
  151.3393  135.4067  155.9212 H   0  0  0  0  0  0  0  0  0  0  0  0
  150.1695  141.9468  157.2547 H   0  0  0  0  0  0  0  0  0  0  0  0
  150.7115  143.1258  159.3011 H   0  0  0  0  0  0  0  0  0  0  0  0
  1  2  1  0  0  0  0
  1 25  1  0  0  0  0
  1 26  1  0  0  0  0
  1 27  1  0  0  0  0
  2  3  1  0  0  0  0
  3  4  1  0  0  0  0
  3 28  1  0  0  0  0
  3 29  1  0  0  0  0
  4  5  1  0  0  0  0
  4 30  1  0  0  0  0
  4 31  1  0  0  0  0
  5 23  1  0  0  0  0
  5  6  1  0  0  0  0
  6  7  2  0  0  0  0
  7  8  1  0  0  0  0
  7 21  1  0  0  0  0
  8  9  2  0  0  0  0
  8 10  1  0  0  0  0
 10 11  1  0  0  0  0
 10 32  1  0  0  0  0
 11 12  1  0  0  0  0
 11 33  1  0  0  0  0
 11 34  1  0  0  0  0
 12 13  1  0  0  0  0
 12 35  1  0  0  0  0
 12 36  1  0  0  0  0
 13 20  1  0  0  0  0
 13 14  1  0  0  0  0
 14 15  1  0  0  0  0
 14 37  1  0  0  0  0
 14 38  1  0  0  0  0
 15 16  1  0  0  0  0
 15 17  1  0  0  0  0
 15 39  1  0  0  0  0
 16 40  1  0  0  0  0
 16 41  1  0  0  0  0
 16 42  1  0  0  0  0
 17 18  1  0  0  0  0
 18 19  1  0  0  0  0
 18 20  1  0  0  0  0
 18 43  1  0  0  0  0
 19 44  1  0  0  0  0
 19 45  1  0  0  0  0
 19 46  1  0  0  0  0
 20 47  1  0  0  0  0
 20 48  1  0  0  0  0
 21 22  2  0  0  0  0
 21 49  1  0  0  0  0
 22 23  1  0  0  0  0
 22 50  1  0  0  0  0
 23 24  2  0  0  0  0
M  END
> <s_m_source_file>
AV-unprocessed.smi

> <i_m_source_file_index>
2001

> <i_lp_mmshare_version>
43012

> <i_f3d_flags>
0

> <s_epik_input>
W0NIM11PW0NIMl1bQ0gyXW4xbmMoW2NIXVtjSF1jMT1PKUMoPU8pW05IXVtDSDJdW0NIMl1OMltDSDJdW0NAQEhdKFtDSDNdKU9bQ0BASF0oW0NIM10pW0NIMl0y

> <s_epik_cmdline>
J2VwaWtfcHl0aG9uJywgJy1waCcsICc3LjAnLCAnLXRuJywgJzgnLCAnLW1hJywgJzIwMCcsICctbWV0YWxfYmluZGluZycsICctaW1hZScsICc8aW5maWxlLm1hZT4nLCAnLW9tYWUnLCAnPG91dGZpbGUubWFlPic=

> <r_lp_tautomer_probability>
1

> <r_epik_Ionization_Penalty>
0.206669

> <r_epik_Ionization_Penalty_Charging>
5.55992e-09

> <r_epik_Ionization_Penalty_Neutral>
0.206669

> <r_epik_State_Penalty>
0.196651

> <r_epik_Charging_Adjusted_Penalty>
0.196651

> <i_epik_Tot_Q>
0

> <i_epik_Tot_abs_Q>
0

> <r_epik_Metal_State_Penalty>
0.198372

> <b_epik_Metal_Only>
0

> <s_lp_Force_Field>
OPLS_2005

> <r_lp_Energy>
38.6275

> <b_lp_Chiralities_Consistent>
1

> <s_lp_Variant>
AV-unprocessed.smi:2001-1

> <Gold.Version>
5.8.1

> <Gold.Id.Protein>
6NUR|6NUR_protein|mol2

> <Gold.PLP.Fitness>
42.7857

> <Gold.PLP.PLP>
-36.5245

> <Gold.PLP.part.hbond>
-4.0000

> <Gold.PLP.part.metal>
0.0000

> <Gold.PLP.part.buried>
-4.9433

> <Gold.PLP.part.nonpolar>
-27.7749

> <Gold.PLP.part.repulsive>
0.2695

> <Gold.PLP.ligand.clash>
0.0000

> <Gold.PLP.ligand.torsion>
1.1992

> <Gold.PLP.Chemscore.Hbond>
2.8720

> <Gold.PLP.Chemscore.CHOScore>
0.0000

> <Gold.PLP.Chemscore.Metal>
0.0000

> <Gold.Chemscore.Hbonds>
donor molecule, donor type, donor heavy atom, donor atom, acceptor molecule, acceptor atom, score
      P1  H  6896  6907       L1    17  1.00
      P1  H  7989  7998       L1     9  0.98
      P1  H  7997  8009       L1     6  0.88

> <Gold.PLP.Chemscore.Internal.Correction>
0.0437

> <Gold.Rescore>
     Score         DG    S(hbond)    S(metal)    S(lipo)     H(rot)  DE(clash)    DE(int)     intcor
     14.01     -17.78       2.48        0.00      78.20       2.00       1.37       2.40       ----

> <Gold.Chemscore.Fitness>
14.0111

> <Gold.Chemscore.DG>
-17.7773

> <Gold.Chemscore.ZeroCoef>
-5.4800

> <Gold.Chemscore.Hbond>
2.4768

> <Gold.Chemscore.Metal>
0.0000

> <Gold.Chemscore.Lipo>
78.2049

> <Gold.Chemscore.Internal_Hbond>
0.0000

> <Gold.Chemscore.DEClash>
1.3697

> <Gold.Chemscore.DEInternal>
2.3966

> <Gold.Chemscore.Rot>
2.0020

> <Gold.Chemscore.Internal.Correction>
   9.000000E+99

> <Gold.Chemscore.Hbonds>
donor molecule, donor type, donor heavy atom, donor atom, acceptor molecule, acceptor atom, score
      P1  H  6896  6907       L1    17  0.94
      P1  H  7989  7998       L1     9  0.93
      P1  H  7997  8009       L1     6  0.52

> <Gold.Chemscore.Hbond.Weighted>
-8.2725

> <Gold.Chemscore.Metal.Weighted>
-0.0000

> <Gold.Chemscore.Lipo.Weighted>
-9.1500

> <Gold.Chemscore.Internal_Hbond.Weighted>
0.0000

> <Gold.Chemscore.DEClash.Weighted>
1.3697

> <Gold.Chemscore.DEInternal.Weighted>
2.3966

> <Gold.Chemscore.Rot.Weighted>
5.1252

> <Gold.Chemscore.Internal.Correction.Weighted>
   9.000000E+99

> <Gold.Protein.RotatedTorsions>
[ 6907 6896 6895 6894 ] final -104.50 input  -60.11 | X-H torsion
[ 7974 7965 7964 7962 ] final -121.69 input  175.53 | X-H torsion
[ 8008 7997 7996 7995 ] final  153.03 input   59.86 | X-H torsion
[ 10167 10162 10161 10158 ] final   87.27 input  -65.29 | X-H torsion
[ 10718 10713 10712 10709 ] final -126.11 input   66.30 | X-H torsion
[ 10763 10752 10751 10750 ] final   97.65 input  -60.55 | X-H torsion
[ 11005 11000 10999 10996 ] final  -53.50 input  -57.11 | X-H torsion

> <Gold.Protein.ActiveResidues>
 VAL166  LYS551  ARG553  GLY616  TRP617  ASP618  TYR619  PRO620  LYS621  CYS622 
 ASP623  PHE694  ASN695  SER759  ASP760  ASP761  ALA762  ILE779  LEU786  VAL792 
 PHE793  MET794  SER795  GLU796  ALA797  LYS798  CYS799  TRP800  GLU811  SER814 

> <Gold.Protein.RotatedAtoms>
  150.7290  134.0268  159.3719 H   0  0  0  0  0  0  0  0  0  0  0  0  # atno 6907 bound_to 6896
  151.8236  135.0642  160.0437 H   0  0  0  0  0  0  0  0  0  0  0  0  # atno 6908 bound_to 6896
  152.2985  133.5596  159.5640 H   0  0  0  0  0  0  0  0  0  0  0  0  # atno 6909 bound_to 6896
  145.0376  140.8118  143.4286 H   0  0  0  0  0  0  0  0  0  0  0  0  # atno 7974 bound_to 7965
  156.2601  140.2005  156.6426 H   0  0  0  0  0  0  0  0  0  0  0  0  # atno 8008 bound_to 7997
  154.6598  140.0562  157.0074 H   0  0  0  0  0  0  0  0  0  0  0  0  # atno 8009 bound_to 7997
  155.1293  140.3232  155.4481 H   0  0  0  0  0  0  0  0  0  0  0  0  # atno 8010 bound_to 7997
  139.8791  144.6450  150.8863 H   0  0  0  0  0  0  0  0  0  0  0  0  # atno 10167 bound_to 10162
  156.1735  130.6684  151.0212 H   0  0  0  0  0  0  0  0  0  0  0  0  # atno 10718 bound_to 10713
  153.2795  135.4176  155.1065 H   0  0  0  0  0  0  0  0  0  0  0  0  # atno 10763 bound_to 10752
  154.8484  135.3492  154.6132 H   0  0  0  0  0  0  0  0  0  0  0  0  # atno 10764 bound_to 10752
  153.6552  135.7051  153.5253 H   0  0  0  0  0  0  0  0  0  0  0  0  # atno 10765 bound_to 10752
  141.0979  133.6622  156.4181 H   0  0  0  0  0  0  0  0  0  0  0  0  # atno 11005 bound_to 11000
  145.1689  139.2415  143.5352 LP  0  0  0  0  0  0  0  0  0  0  0  0  # atno 17320 bound_to 7965
  146.3506  140.1435  142.8594 LP  0  0  0  0  0  0  0  0  0  0  0  0  # atno 17321 bound_to 7965
  140.7747  143.3600  151.1846 LP  0  0  0  0  0  0  0  0  0  0  0  0  # atno 17342 bound_to 10162
  139.7212  143.9220  152.2986 LP  0  0  0  0  0  0  0  0  0  0  0  0  # atno 17343 bound_to 10162
  157.6820  131.0835  150.7345 LP  0  0  0  0  0  0  0  0  0  0  0  0  # atno 17370 bound_to 10713
  156.7404  130.4737  149.5479 LP  0  0  0  0  0  0  0  0  0  0  0  0  # atno 17371 bound_to 10713
  140.5095  134.6409  157.5279 LP  0  0  0  0  0  0  0  0  0  0  0  0  # atno 17394 bound_to 11000
  139.9821  134.7121  155.9841 LP  0  0  0  0  0  0  0  0  0  0  0  0  # atno 17395 bound_to 11000

$$$$
