AV-unprocessed.smi:1641|AV-procd|sdf|6568|dock3
  -GOLD-   22720 7253D 1   1.00000     0.00000
 Structure written by MMmdl.
 41 42  0  0  0  0  0  0  0  0  3 V2000
  152.3527  140.5026  159.1788 C   0  0  0  0  0  0  0  0  0  0  0  0
  151.9855  140.1954  157.7674 C   0  0  0  0  0  0  0  0  0  0  0  0
  152.7444  139.4399  156.9697 N   0  0  0  0  0  0  0  0  0  0  0  0
  152.1945  139.3002  155.7035 N   0  0  0  0  0  0  0  0  0  0  0  0
  151.0364  139.9598  155.5578 C   0  0  0  0  0  0  0  0  0  0  0  0
  150.3413  139.9550  154.4084 N   0  5  0  0  0  0  0  0  0  0  0  0
  148.9902  139.9263  154.4375 C   0  0  0  0  0  0  0  0  0  0  0  0
  148.2725  140.2190  155.3967 O   0  0  0  0  0  0  0  0  0  0  0  0
  148.4343  139.5251  153.2855 N   0  0  0  0  0  0  0  0  0  0  0  0
  147.0051  139.3812  153.0357 C   0  0  0  0  0  0  0  0  0  0  0  0
  146.7373  138.6146  151.7260 C   0  0  0  0  0  0  0  0  0  0  0  0
  146.2841  137.2226  151.9659 N   0  3  1  0  0  0  0  0  0  0  0  0
  145.4398  137.1066  153.1773 C   0  0  0  0  0  0  0  0  0  0  0  0
  145.0806  135.6345  153.4468 C   0  0  1  0  0  0  0  0  0  0  0  0
  144.1300  135.4845  154.6397 C   0  0  0  0  0  0  0  0  0  0  0  0
  144.4345  135.0846  152.3016 O   0  0  0  0  0  0  0  0  0  0  0  0
  145.1922  135.1551  151.0938 C   0  0  2  0  0  0  0  0  0  0  0  0
  146.3814  134.1775  151.0936 C   0  0  0  0  0  0  0  0  0  0  0  0
  145.5948  136.6138  150.8012 C   0  0  0  0  0  0  0  0  0  0  0  0
  150.5194  140.8032  157.0174 S   0  0  0  0  0  0  0  0  0  0  0  0
  153.0136  141.3689  159.2108 H   0  0  0  0  0  0  0  0  0  0  0  0
  152.8636  139.6526  159.6320 H   0  0  0  0  0  0  0  0  0  0  0  0
  151.4582  140.7222  159.7620 H   0  0  0  0  0  0  0  0  0  0  0  0
  149.0587  139.3000  152.5246 H   0  0  0  0  0  0  0  0  0  0  0  0
  146.5438  138.8903  153.8929 H   0  0  0  0  0  0  0  0  0  0  0  0
  146.5701  140.3791  152.9778 H   0  0  0  0  0  0  0  0  0  0  0  0
  145.9650  139.1517  151.1736 H   0  0  0  0  0  0  0  0  0  0  0  0
  147.6208  138.6031  151.0859 H   0  0  0  0  0  0  0  0  0  0  0  0
  145.9718  137.5149  154.0375 H   0  0  0  0  0  0  0  0  0  0  0  0
  144.5345  137.7025  153.0479 H   0  0  0  0  0  0  0  0  0  0  0  0
  145.9874  135.0700  153.6651 H   0  0  0  0  0  0  0  0  0  0  0  0
  144.5757  135.8836  155.5512 H   0  0  0  0  0  0  0  0  0  0  0  0
  143.8928  134.4355  154.8186 H   0  0  0  0  0  0  0  0  0  0  0  0
  143.1919  136.0125  154.4667 H   0  0  0  0  0  0  0  0  0  0  0  0
  144.5205  134.8316  150.2982 H   0  0  0  0  0  0  0  0  0  0  0  0
  146.8598  134.1522  150.1141 H   0  0  0  0  0  0  0  0  0  0  0  0
  146.0517  133.1643  151.3244 H   0  0  0  0  0  0  0  0  0  0  0  0
  147.1464  134.4545  151.8185 H   0  0  0  0  0  0  0  0  0  0  0  0
  144.7032  137.1993  150.5708 H   0  0  0  0  0  0  0  0  0  0  0  0
  146.2258  136.6446  149.9137 H   0  0  0  0  0  0  0  0  0  0  0  0
  147.1144  136.6753  152.1420 H   0  0  0  0  0  0  0  0  0  0  0  0
  1  2  1  0  0  0  0
  1 21  1  0  0  0  0
  1 22  1  0  0  0  0
  1 23  1  0  0  0  0
  2 20  1  0  0  0  0
  2  3  2  0  0  0  0
  3  4  1  0  0  0  0
  4  5  2  0  0  0  0
  5  6  1  0  0  0  0
  5 20  1  0  0  0  0
  6  7  1  0  0  0  0
  7  8  2  0  0  0  0
  7  9  1  0  0  0  0
  9 10  1  0  0  0  0
  9 24  1  0  0  0  0
 10 11  1  0  0  0  0
 10 25  1  0  0  0  0
 10 26  1  0  0  0  0
 11 12  1  0  0  0  0
 11 27  1  0  0  0  0
 11 28  1  0  0  0  0
 12 19  1  0  0  0  0
 12 13  1  0  0  0  0
 12 41  1  0  0  0  0
 13 14  1  0  0  0  0
 13 29  1  0  0  0  0
 13 30  1  0  0  0  0
 14 15  1  0  0  0  0
 14 16  1  0  0  0  0
 14 31  1  0  0  0  0
 15 32  1  0  0  0  0
 15 33  1  0  0  0  0
 15 34  1  0  0  0  0
 16 17  1  0  0  0  0
 17 18  1  0  0  0  0
 17 19  1  0  0  0  0
 17 35  1  0  0  0  0
 18 36  1  0  0  0  0
 18 37  1  0  0  0  0
 18 38  1  0  0  0  0
 19 39  1  0  0  0  0
 19 40  1  0  0  0  0
M  CHG  1   6  -1
M  CHG  1  12   1
M  END
> <s_m_source_file>
AV-unprocessed.smi

> <i_m_source_file_index>
1641

> <i_lp_mmshare_version>
43012

> <i_f3d_flags>
0

> <s_epik_input>
W0NIM11jMW5uYyhzMSlbTkhdQyg9TylbTkhdW0NIMl1bQ0gyXU4yW0NIMl1bQ0BASF0oW0NIM10pT1tDQEBIXShbQ0gzXSlbQ0gyXTI=

> <s_epik_cmdline>
J2VwaWtfcHl0aG9uJywgJy1waCcsICc3LjAnLCAnLXRuJywgJzgnLCAnLW1hJywgJzIwMCcsICctbWV0YWxfYmluZGluZycsICctaW1hZScsICc8aW5maWxlLm1hZT4nLCAnLW9tYWUnLCAnPG91dGZpbGUubWFlPic=

> <r_lp_tautomer_probability>
1

> <r_epik_Ionization_Penalty>
3.5343

> <r_epik_Ionization_Penalty_Charging>
3.42778

> <r_epik_Ionization_Penalty_Neutral>
0.106519

> <r_epik_State_Penalty>
3.62118

> <r_epik_Charging_Adjusted_Penalty>
7.04896

> <i_epik_Tot_Q>
0

> <i_epik_Tot_abs_Q>
2

> <r_epik_Metal_State_Penalty>
1.13984

> <b_epik_Metal_Only>
1

> <s_lp_Force_Field>
OPLS_2005

> <r_lp_Energy>
9.90371

> <b_lp_Chiralities_Consistent>
1

> <s_lp_Variant>
AV-unprocessed.smi:1641-13

> <Gold.Version>
5.8.1

> <Gold.Id.Protein>
6NUR|6NUR_protein|mol2

> <Gold.PLP.Fitness>
42.4392

> <Gold.PLP.PLP>
-30.9449

> <Gold.PLP.part.hbond>
-3.7760

> <Gold.PLP.part.metal>
0.0000

> <Gold.PLP.part.buried>
-2.3926

> <Gold.PLP.part.nonpolar>
-24.8373

> <Gold.PLP.part.repulsive>
0.4264

> <Gold.PLP.ligand.clash>
0.0000

> <Gold.PLP.ligand.torsion>
0.9673

> <Gold.PLP.Chemscore.Hbond>
4.4500

> <Gold.PLP.Chemscore.CHOScore>
0.0000

> <Gold.PLP.Chemscore.Metal>
0.0000

> <Gold.Chemscore.Hbonds>
donor molecule, donor type, donor heavy atom, donor atom, acceptor molecule, acceptor atom, score
      L1  H     9    24       P1  7957  0.75
      L1  H    12    41       P1  7948  2.00
      P1  H  7989  7998       L1     6  0.70
      P1  H  7997  8008       L1     3  1.00

> <Gold.PLP.Chemscore.Internal.Correction>
0.0788

> <Gold.Rescore>
     Score         DG    S(hbond)    S(metal)    S(lipo)     H(rot)  DE(clash)    DE(int)     intcor
     14.97     -17.49       2.87        0.00      56.03       1.61       0.14       2.39       ----

> <Gold.Chemscore.Fitness>
14.9692

> <Gold.Chemscore.DG>
-17.4946

> <Gold.Chemscore.ZeroCoef>
-5.4800

> <Gold.Chemscore.Hbond>
2.8662

> <Gold.Chemscore.Metal>
0.0000

> <Gold.Chemscore.Lipo>
56.0280

> <Gold.Chemscore.Internal_Hbond>
0.0000

> <Gold.Chemscore.DEClash>
0.1372

> <Gold.Chemscore.DEInternal>
2.3882

> <Gold.Chemscore.Rot>
1.6070

> <Gold.Chemscore.Internal.Correction>
   9.000000E+99

> <Gold.Chemscore.Hbonds>
donor molecule, donor type, donor heavy atom, donor atom, acceptor molecule, acceptor atom, score
      L1  H     9    24       P1  7957  0.75
      L1  H    12    41       P1  7948  0.96
      P1  H  7989  7998       L1     6  0.07
      P1  H  7997  8008       L1     3  0.49

> <Gold.Chemscore.Hbond.Weighted>
-9.5732

> <Gold.Chemscore.Metal.Weighted>
-0.0000

> <Gold.Chemscore.Lipo.Weighted>
-6.5553

> <Gold.Chemscore.Internal_Hbond.Weighted>
0.0000

> <Gold.Chemscore.DEClash.Weighted>
0.1372

> <Gold.Chemscore.DEInternal.Weighted>
2.3882

> <Gold.Chemscore.Rot.Weighted>
4.1139

> <Gold.Chemscore.Internal.Correction.Weighted>
   9.000000E+99

> <Gold.Protein.RotatedTorsions>
[ 6907 6896 6895 6894 ] final   34.31 input  -60.11 | X-H torsion
[ 7974 7965 7964 7962 ] final   57.91 input  175.53 | X-H torsion
[ 8008 7997 7996 7995 ] final  -66.10 input   59.86 | X-H torsion
[ 10167 10162 10161 10158 ] final  162.18 input  -65.29 | X-H torsion
[ 10718 10713 10712 10709 ] final -109.40 input   66.30 | X-H torsion
[ 10763 10752 10751 10750 ] final   72.48 input  -60.55 | X-H torsion
[ 11005 11000 10999 10996 ] final  -11.01 input  -57.11 | X-H torsion

> <Gold.Protein.ActiveResidues>
 VAL166  LYS551  ARG553  GLY616  TRP617  ASP618  TYR619  PRO620  LYS621  CYS622 
 ASP623  PHE694  ASN695  SER759  ASP760  ASP761  ALA762  ILE779  LEU786  VAL792 
 PHE793  MET794  SER795  GLU796  ALA797  LYS798  CYS799  TRP800  GLU811  SER814 

> <Gold.Protein.RotatedAtoms>
  152.1006  134.9344  160.0569 H   0  0  0  0  0  0  0  0  0  0  0  0  # atno 6907 bound_to 6896
  152.0560  133.4035  159.4405 H   0  0  0  0  0  0  0  0  0  0  0  0  # atno 6908 bound_to 6896
  150.6839  134.3174  159.4816 H   0  0  0  0  0  0  0  0  0  0  0  0  # atno 6909 bound_to 6896
  145.9240  139.3752  143.0461 H   0  0  0  0  0  0  0  0  0  0  0  0  # atno 7974 bound_to 7965
  154.4713  140.0919  156.7152 H   0  0  0  0  0  0  0  0  0  0  0  0  # atno 8008 bound_to 7997
  155.4716  140.3464  155.4308 H   0  0  0  0  0  0  0  0  0  0  0  0  # atno 8009 bound_to 7997
  156.1044  140.1431  156.9413 H   0  0  0  0  0  0  0  0  0  0  0  0  # atno 8010 bound_to 7997
  139.4857  144.4462  151.8888 H   0  0  0  0  0  0  0  0  0  0  0  0  # atno 10167 bound_to 10162
  156.0535  130.5762  150.8094 H   0  0  0  0  0  0  0  0  0  0  0  0  # atno 10718 bound_to 10713
  153.0462  135.5098  154.7751 H   0  0  0  0  0  0  0  0  0  0  0  0  # atno 10763 bound_to 10752
  154.6649  135.2944  154.9820 H   0  0  0  0  0  0  0  0  0  0  0  0  # atno 10764 bound_to 10752
  154.0659  135.6684  153.4870 H   0  0  0  0  0  0  0  0  0  0  0  0  # atno 10765 bound_to 10752
  140.7508  133.8594  155.9043 H   0  0  0  0  0  0  0  0  0  0  0  0  # atno 11005 bound_to 11000
  145.8513  140.9527  143.0748 LP  0  0  0  0  0  0  0  0  0  0  0  0  # atno 17320 bound_to 7965
  144.6756  140.0411  143.7481 LP  0  0  0  0  0  0  0  0  0  0  0  0  # atno 17321 bound_to 7965
  140.3917  144.2607  150.5899 LP  0  0  0  0  0  0  0  0  0  0  0  0  # atno 17342 bound_to 10162
  140.5140  143.2283  151.8492 LP  0  0  0  0  0  0  0  0  0  0  0  0  # atno 17343 bound_to 10162
  157.5484  131.0943  150.9730 LP  0  0  0  0  0  0  0  0  0  0  0  0  # atno 17370 bound_to 10713
  156.9996  130.5595  149.5310 LP  0  0  0  0  0  0  0  0  0  0  0  0  # atno 17371 bound_to 10713
  140.9753  134.1478  157.4542 LP  0  0  0  0  0  0  0  0  0  0  0  0  # atno 17394 bound_to 11000
  139.8788  134.9992  156.5943 LP  0  0  0  0  0  0  0  0  0  0  0  0  # atno 17395 bound_to 11000

$$$$
