AV-unprocessed.smi:1464|AV-procd|sdf|5949|dock1
  -GOLD-   22720 6 33D 1   1.00000     0.00000
 Structure written by MMmdl.
 41 42  0  0  0  0  0  0  0  0  1 V2000
  150.6574  145.2690  160.0981 C   0  0  0  0  0  0  0  0  0  0  0  0
  151.1873  143.8392  159.8993 C   0  0  2  0  0  0  0  0  0  0  0  0
  152.6169  143.6741  160.4545 C   0  0  0  0  0  0  0  0  0  0  0  0
  153.0993  142.2188  160.3436 C   0  0  0  0  0  0  0  0  0  0  0  0
  152.9846  141.6908  158.9051 C   0  0  0  0  0  0  0  0  0  0  0  0
  151.5527  141.8584  158.3614 C   0  0  2  0  0  0  0  0  0  0  0  0
  151.4646  141.3124  157.0088 N   0  0  0  0  0  0  0  0  0  0  0  0
  152.0401  140.1736  156.5932 C   0  0  0  0  0  0  0  0  0  0  0  0
  152.7021  139.4430  157.3317 O   0  0  0  0  0  0  0  0  0  0  0  0
  151.8067  139.7974  155.1230 C   0  0  0  0  0  0  0  0  0  0  0  0
  150.3859  139.7895  154.7448 N   0  0  0  0  0  0  0  0  0  0  0  0
  149.8294  141.0516  154.5984 N   0  0  0  0  0  0  0  0  0  0  0  0
  148.5849  141.1739  154.2807 C   0  0  0  0  0  0  0  0  0  0  0  0
  148.0733  142.4414  154.1493 O   0  0  0  0  0  0  0  0  0  0  0  0
  147.7485  140.0132  154.0675 C   0  0  0  0  0  0  0  0  0  0  0  0
  148.3002  138.7884  154.2090 C   0  0  0  0  0  0  0  0  0  0  0  0
  149.7088  138.6131  154.5680 C   0  0  0  0  0  0  0  0  0  0  0  0
  150.2382  137.5098  154.6998 O   0  0  0  0  0  0  0  0  0  0  0  0
  151.0820  143.3368  158.4347 C   0  0  2  0  0  0  0  0  0  0  0  0
  151.7934  144.2547  157.4133 C   0  0  0  0  0  0  0  0  0  0  0  0
  148.4890  142.9509  154.8277 H   0  0  0  0  0  0  0  0  0  0  0  0
  151.3014  146.0102  159.6247 H   0  0  0  0  0  0  0  0  0  0  0  0
  150.6017  145.5178  161.1581 H   0  0  0  0  0  0  0  0  0  0  0  0
  149.6550  145.3782  159.6833 H   0  0  0  0  0  0  0  0  0  0  0  0
  150.5403  143.1950  160.4970 H   0  0  0  0  0  0  0  0  0  0  0  0
  153.3060  144.3317  159.9240 H   0  0  0  0  0  0  0  0  0  0  0  0
  152.6470  143.9837  161.4997 H   0  0  0  0  0  0  0  0  0  0  0  0
  154.1314  142.1420  160.6865 H   0  0  0  0  0  0  0  0  0  0  0  0
  152.5065  141.5895  161.0085 H   0  0  0  0  0  0  0  0  0  0  0  0
  153.6969  142.2128  158.2653 H   0  0  0  0  0  0  0  0  0  0  0  0
  153.2699  140.6382  158.8830 H   0  0  0  0  0  0  0  0  0  0  0  0
  150.8982  141.2625  159.0012 H   0  0  0  0  0  0  0  0  0  0  0  0
  150.9310  141.8453  156.3375 H   0  0  0  0  0  0  0  0  0  0  0  0
  152.3589  140.5063  154.5035 H   0  0  0  0  0  0  0  0  0  0  0  0
  152.2506  138.8215  154.9172 H   0  0  0  0  0  0  0  0  0  0  0  0
  146.7085  140.1336  153.8022 H   0  0  0  0  0  0  0  0  0  0  0  0
  147.6871  137.9126  154.0545 H   0  0  0  0  0  0  0  0  0  0  0  0
  150.0236  143.3504  158.1704 H   0  0  0  0  0  0  0  0  0  0  0  0
  152.8631  144.3325  157.6046 H   0  0  0  0  0  0  0  0  0  0  0  0
  151.3823  145.2634  157.4297 H   0  0  0  0  0  0  0  0  0  0  0  0
  151.6689  143.8909  156.3935 H   0  0  0  0  0  0  0  0  0  0  0  0
  1  2  1  0  0  0  0
  1 22  1  0  0  0  0
  1 23  1  0  0  0  0
  1 24  1  0  0  0  0
  2 19  1  0  0  0  0
  2  3  1  0  0  0  0
  2 25  1  0  0  0  0
  3  4  1  0  0  0  0
  3 26  1  0  0  0  0
  3 27  1  0  0  0  0
  4  5  1  0  0  0  0
  4 28  1  0  0  0  0
  4 29  1  0  0  0  0
  5  6  1  0  0  0  0
  5 30  1  0  0  0  0
  5 31  1  0  0  0  0
  6  7  1  0  0  0  0
  6 19  1  0  0  0  0
  6 32  1  0  0  0  0
  7  8  1  0  0  0  0
  7 33  1  0  0  0  0
  8  9  2  0  0  0  0
  8 10  1  0  0  0  0
 10 34  1  0  0  0  0
 10 35  1  0  0  0  0
 10 11  1  0  0  0  0
 11 12  1  0  0  0  0
 11 17  1  0  0  0  0
 12 13  2  0  0  0  0
 13 14  1  0  0  0  0
 13 15  1  0  0  0  0
 14 21  1  0  0  0  0
 15 36  1  0  0  0  0
 15 16  2  0  0  0  0
 16 37  1  0  0  0  0
 16 17  1  0  0  0  0
 17 18  2  0  0  0  0
 19 20  1  0  0  0  0
 19 38  1  0  0  0  0
 20 39  1  0  0  0  0
 20 40  1  0  0  0  0
 20 41  1  0  0  0  0
M  END
> <s_m_source_file>
AV-unprocessed.smi

> <i_m_source_file_index>
1464

> <i_lp_mmshare_version>
43012

> <i_f3d_flags>
0

> <s_epik_input>
W0NIM11bQ0BASF0xW0NIMl1bQ0gyXVtDSDJdW0NASF0oW0NASF0xW0NIM10pW05IXUMoPU8pW0NIMl1uMltuSF1jKD1PKVtjSF1bY0hdYzI9Tw==

> <s_epik_cmdline>
J2VwaWtfcHl0aG9uJywgJy1waCcsICc3LjAnLCAnLXRuJywgJzgnLCAnLW1hJywgJzIwMCcsICctbWV0YWxfYmluZGluZycsICctaW1hZScsICc8aW5maWxlLm1hZT4nLCAnLW9tYWUnLCAnPG91dGZpbGUubWFlPic=

> <r_lp_tautomer_probability>
0.9996

> <r_epik_Ionization_Penalty>
2.10335

> <r_epik_Ionization_Penalty_Charging>
3.98079e-08

> <r_epik_Ionization_Penalty_Neutral>
2.10335

> <r_epik_State_Penalty>
1.67957

> <r_epik_Charging_Adjusted_Penalty>
1.67957

> <i_epik_Tot_Q>
0

> <i_epik_Tot_abs_Q>
0

> <r_epik_Metal_State_Penalty>
1.67957

> <b_epik_Metal_Only>
0

> <s_lp_Force_Field>
OPLS_2005

> <r_lp_Energy>
25.7664

> <b_lp_Chiralities_Consistent>
1

> <s_lp_Variant>
AV-unprocessed.smi:1464-15

> <Gold.Version>
5.8.1

> <Gold.Id.Protein>
6NUR|6NUR_protein|mol2

> <Gold.PLP.Fitness>
47.3222

> <Gold.PLP.PLP>
-42.3343

> <Gold.PLP.part.hbond>
-4.4062

> <Gold.PLP.part.metal>
0.0000

> <Gold.PLP.part.buried>
-0.6993

> <Gold.PLP.part.nonpolar>
-36.0960

> <Gold.PLP.part.repulsive>
0.4290

> <Gold.PLP.ligand.clash>
0.0000

> <Gold.PLP.ligand.torsion>
0.4433

> <Gold.PLP.Chemscore.Hbond>
1.9513

> <Gold.PLP.Chemscore.CHOScore>
0.0000

> <Gold.PLP.Chemscore.Metal>
0.0000

> <Gold.Chemscore.Hbonds>
donor molecule, donor type, donor heavy atom, donor atom, acceptor molecule, acceptor atom, score
      L1  H    14    21       P1  8028  0.98
      P1  H  7997  8010       L1     9  1.00

> <Gold.PLP.Chemscore.Internal.Correction>
0.0208

> <Gold.Rescore>
     Score         DG    S(hbond)    S(metal)    S(lipo)     H(rot)  DE(clash)    DE(int)     intcor
     11.99     -16.31       1.31        0.00     103.69       2.22       1.40       2.92       ----

> <Gold.Chemscore.Fitness>
11.9929

> <Gold.Chemscore.DG>
-16.3112

> <Gold.Chemscore.ZeroCoef>
-5.4800

> <Gold.Chemscore.Hbond>
1.3141

> <Gold.Chemscore.Metal>
0.0000

> <Gold.Chemscore.Lipo>
103.6868

> <Gold.Chemscore.Internal_Hbond>
0.0000

> <Gold.Chemscore.DEClash>
1.3990

> <Gold.Chemscore.DEInternal>
2.9193

> <Gold.Chemscore.Rot>
2.2224

> <Gold.Chemscore.Internal.Correction>
   9.000000E+99

> <Gold.Chemscore.Hbonds>
donor molecule, donor type, donor heavy atom, donor atom, acceptor molecule, acceptor atom, score
      L1  H    14    21       P1  8028  0.91
      P1  H  7997  8010       L1     9  0.33

> <Gold.Chemscore.Hbond.Weighted>
-4.3892

> <Gold.Chemscore.Metal.Weighted>
-0.0000

> <Gold.Chemscore.Lipo.Weighted>
-12.1314

> <Gold.Chemscore.Internal_Hbond.Weighted>
0.0000

> <Gold.Chemscore.DEClash.Weighted>
1.3990

> <Gold.Chemscore.DEInternal.Weighted>
2.9193

> <Gold.Chemscore.Rot.Weighted>
5.6893

> <Gold.Chemscore.Internal.Correction.Weighted>
   9.000000E+99

> <Gold.Protein.RotatedTorsions>
[ 6907 6896 6895 6894 ] final  -18.96 input  -60.11 | X-H torsion
[ 7974 7965 7964 7962 ] final  -82.13 input  175.53 | X-H torsion
[ 8008 7997 7996 7995 ] final   37.37 input   59.86 | X-H torsion
[ 10167 10162 10161 10158 ] final  135.32 input  -65.29 | X-H torsion
[ 10718 10713 10712 10709 ] final  -15.92 input   66.30 | X-H torsion
[ 10763 10752 10751 10750 ] final   40.48 input  -60.55 | X-H torsion
[ 11005 11000 10999 10996 ] final  -96.65 input  -57.11 | X-H torsion

> <Gold.Protein.ActiveResidues>
 VAL166  LYS551  ARG553  GLY616  TRP617  ASP618  TYR619  PRO620  LYS621  CYS622 
 ASP623  PHE694  ASN695  SER759  ASP760  ASP761  ALA762  ILE779  LEU786  VAL792 
 PHE793  MET794  SER795  GLU796  ALA797  LYS798  CYS799  TRP800  GLU811  SER814 

> <Gold.Protein.RotatedAtoms>
  151.2703  135.0682  159.9131 H   0  0  0  0  0  0  0  0  0  0  0  0  # atno 6907 bound_to 6896
  152.5351  134.0138  159.7960 H   0  0  0  0  0  0  0  0  0  0  0  0  # atno 6908 bound_to 6896
  151.0375  133.5685  159.2685 H   0  0  0  0  0  0  0  0  0  0  0  0  # atno 6909 bound_to 6896
  145.5374  140.9514  143.1569 H   0  0  0  0  0  0  0  0  0  0  0  0  # atno 7974 bound_to 7965
  155.2027  140.3317  155.4341 H   0  0  0  0  0  0  0  0  0  0  0  0  # atno 8008 bound_to 7997
  156.2401  140.1891  156.7062 H   0  0  0  0  0  0  0  0  0  0  0  0  # atno 8009 bound_to 7997
  154.6131  140.0606  156.9505 H   0  0  0  0  0  0  0  0  0  0  0  0  # atno 8010 bound_to 7997
  139.5222  144.6523  151.5266 H   0  0  0  0  0  0  0  0  0  0  0  0  # atno 10167 bound_to 10162
  156.5950  130.4809  149.6263 H   0  0  0  0  0  0  0  0  0  0  0  0  # atno 10718 bound_to 10713
  152.9935  135.6190  154.2632 H   0  0  0  0  0  0  0  0  0  0  0  0  # atno 10763 bound_to 10752
  154.2368  135.2790  155.2871 H   0  0  0  0  0  0  0  0  0  0  0  0  # atno 10764 bound_to 10752
  154.5403  135.5763  153.6892 H   0  0  0  0  0  0  0  0  0  0  0  0  # atno 10765 bound_to 10752
  141.1404  133.8113  157.0600 H   0  0  0  0  0  0  0  0  0  0  0  0  # atno 11005 bound_to 11000
  144.7594  139.6993  143.7240 LP  0  0  0  0  0  0  0  0  0  0  0  0  # atno 17320 bound_to 7965
  146.2004  139.5295  142.9747 LP  0  0  0  0  0  0  0  0  0  0  0  0  # atno 17321 bound_to 7965
  140.6333  143.9033  150.6625 LP  0  0  0  0  0  0  0  0  0  0  0  0  # atno 17342 bound_to 10162
  140.2344  143.3711  152.1539 LP  0  0  0  0  0  0  0  0  0  0  0  0  # atno 17343 bound_to 10162
  156.2518  130.6911  151.1651 LP  0  0  0  0  0  0  0  0  0  0  0  0  # atno 17370 bound_to 10713
  157.7294  131.0624  150.5775 LP  0  0  0  0  0  0  0  0  0  0  0  0  # atno 17371 bound_to 10713
  140.0577  134.9771  157.1250 LP  0  0  0  0  0  0  0  0  0  0  0  0  # atno 17394 bound_to 11000
  140.3894  134.2200  155.7167 LP  0  0  0  0  0  0  0  0  0  0  0  0  # atno 17395 bound_to 11000

$$$$
