AV-unprocessed.smi:2330|AV-procd|sdf|9311|dock8
  -GOLD-   2272012533D 1   1.00000     0.00000
 Structure written by MMmdl.
 42 43  0  0  0  0  0  0  0  0  1 V2000
  143.8849  131.7484  150.5793 C   0  0  0  0  0  0  0  0  0  0  0  0
  144.8482  132.9002  150.8993 C   0  0  2  0  0  0  0  0  0  0  0  0
  145.2626  132.8931  152.3833 C   0  0  0  0  0  0  0  0  0  0  0  0
  146.2265  134.0460  152.7087 C   0  0  0  0  0  0  0  0  0  0  0  0
  145.6300  135.4107  152.3152 C   0  0  1  0  0  0  0  0  0  0  0  0
  146.6072  136.4695  152.5482 N   0  0  0  0  0  0  0  0  0  0  0  0
  146.4763  137.4750  153.4241 C   0  0  0  0  0  0  0  0  0  0  0  0
  145.5053  137.6312  154.1644 O   0  0  0  0  0  0  0  0  0  0  0  0
  147.5273  138.3045  153.3810 N   0  0  0  0  0  0  0  0  0  0  0  0
  147.6477  139.5468  154.1385 C   0  0  0  0  0  0  0  0  0  0  0  0
  149.0687  140.1497  154.0746 C   0  0  1  0  0  0  0  0  0  0  0  0
  149.1726  141.5128  154.7731 C   0  0  0  0  0  0  0  0  0  0  0  0
  150.1342  139.1976  154.5290 C   0  0  0  0  0  0  0  0  0  0  0  0
  151.4437  139.4556  154.4511 N   0  0  0  0  0  0  0  0  0  0  0  0
  152.2254  138.4185  154.9656 C   0  0  0  0  0  0  0  0  0  0  0  0
  151.4901  137.3626  155.4407 C   0  0  0  0  0  0  0  0  0  0  0  0
  149.7790  137.6331  155.2567 S   0  0  0  0  0  0  0  0  0  0  0  0
  145.2072  135.4183  150.8351 C   0  0  0  0  0  0  0  0  0  0  0  0
  144.2418  134.2646  150.5201 C   0  0  0  0  0  0  0  0  0  0  0  0
  142.9628  131.8309  151.1553 H   0  0  0  0  0  0  0  0  0  0  0  0
  144.3370  130.7833  150.8099 H   0  0  0  0  0  0  0  0  0  0  0  0
  143.6180  131.7422  149.5221 H   0  0  0  0  0  0  0  0  0  0  0  0
  145.7465  132.7525  150.2980 H   0  0  0  0  0  0  0  0  0  0  0  0
  144.3764  132.9737  153.0144 H   0  0  0  0  0  0  0  0  0  0  0  0
  145.7342  131.9425  152.6348 H   0  0  0  0  0  0  0  0  0  0  0  0
  146.4649  134.0350  153.7729 H   0  0  0  0  0  0  0  0  0  0  0  0
  147.1676  133.8878  152.1799 H   0  0  0  0  0  0  0  0  0  0  0  0
  144.7378  135.5863  152.9193 H   0  0  0  0  0  0  0  0  0  0  0  0
  147.4456  136.4403  151.9869 H   0  0  0  0  0  0  0  0  0  0  0  0
  148.2785  138.0884  152.7422 H   0  0  0  0  0  0  0  0  0  0  0  0
  146.9061  140.2712  153.7973 H   0  0  0  0  0  0  0  0  0  0  0  0
  147.3974  139.3156  155.1742 H   0  0  0  0  0  0  0  0  0  0  0  0
  149.2730  140.3419  153.0206 H   0  0  0  0  0  0  0  0  0  0  0  0
  150.1570  141.9568  154.6218 H   0  0  0  0  0  0  0  0  0  0  0  0
  149.0095  141.4214  155.8473 H   0  0  0  0  0  0  0  0  0  0  0  0
  148.4317  142.2111  154.3830 H   0  0  0  0  0  0  0  0  0  0  0  0
  153.3008  138.5161  154.9556 H   0  0  0  0  0  0  0  0  0  0  0  0
  151.8491  136.4467  155.8860 H   0  0  0  0  0  0  0  0  0  0  0  0
  144.7350  136.3699  150.5872 H   0  0  0  0  0  0  0  0  0  0  0  0
  146.0880  135.3352  150.1965 H   0  0  0  0  0  0  0  0  0  0  0  0
  143.9902  134.2803  149.4591 H   0  0  0  0  0  0  0  0  0  0  0  0
  143.3064  134.4164  151.0606 H   0  0  0  0  0  0  0  0  0  0  0  0
  1  2  1  0  0  0  0
  1 20  1  0  0  0  0
  1 21  1  0  0  0  0
  1 22  1  0  0  0  0
  2 19  1  0  0  0  0
  2  3  1  0  0  0  0
  2 23  1  0  0  0  0
  3  4  1  0  0  0  0
  3 24  1  0  0  0  0
  3 25  1  0  0  0  0
  4  5  1  0  0  0  0
  4 26  1  0  0  0  0
  4 27  1  0  0  0  0
  5  6  1  0  0  0  0
  5 18  1  0  0  0  0
  5 28  1  0  0  0  0
  6  7  1  0  0  0  0
  6 29  1  0  0  0  0
  7  8  2  0  0  0  0
  7  9  1  0  0  0  0
  9 10  1  0  0  0  0
  9 30  1  0  0  0  0
 10 11  1  0  0  0  0
 10 31  1  0  0  0  0
 10 32  1  0  0  0  0
 11 12  1  0  0  0  0
 11 13  1  0  0  0  0
 11 33  1  0  0  0  0
 12 34  1  0  0  0  0
 12 35  1  0  0  0  0
 12 36  1  0  0  0  0
 13 17  1  0  0  0  0
 13 14  2  0  0  0  0
 14 15  1  0  0  0  0
 15 16  2  0  0  0  0
 15 37  1  0  0  0  0
 16 17  1  0  0  0  0
 16 38  1  0  0  0  0
 18 19  1  0  0  0  0
 18 39  1  0  0  0  0
 18 40  1  0  0  0  0
 19 41  1  0  0  0  0
 19 42  1  0  0  0  0
M  END
> <s_m_source_file>
AV-unprocessed.smi

> <i_m_source_file_index>
2330

> <i_lp_mmshare_version>
43012

> <i_f3d_flags>
0

> <s_epik_input>
W0NIM11bQ0BASF0xW0NIMl1bQ0gyXVtDQEhdKFtDSDJdW0NIMl0xKVtOSF1DKD1PKVtOSF1bQ0gyXVtDQEhdKFtDSDNdKWMybltjSF1bY0hdczI=

> <s_epik_cmdline>
J2VwaWtfcHl0aG9uJywgJy1waCcsICc3LjAnLCAnLXRuJywgJzgnLCAnLW1hJywgJzIwMCcsICctbWV0YWxfYmluZGluZycsICctaW1hZScsICc8aW5maWxlLm1hZT4nLCAnLW9tYWUnLCAnPG91dGZpbGUubWFlPic=

> <r_lp_tautomer_probability>
1

> <r_epik_Ionization_Penalty>
0.000331107

> <r_epik_Ionization_Penalty_Charging>
0

> <r_epik_Ionization_Penalty_Neutral>
0.000331107

> <r_epik_State_Penalty>
-0

> <r_epik_Charging_Adjusted_Penalty>
0

> <i_epik_Tot_Q>
0

> <i_epik_Tot_abs_Q>
0

> <r_epik_Metal_State_Penalty>
-0

> <b_epik_Metal_Only>
0

> <s_lp_Force_Field>
OPLS_2005

> <r_lp_Energy>
-1.29202

> <b_lp_Chiralities_Consistent>
1

> <s_lp_Variant>
AV-unprocessed.smi:2330-2

> <Gold.Version>
5.8.1

> <Gold.Id.Protein>
6NUR|6NUR_protein|mol2

> <Gold.PLP.Fitness>
40.1602

> <Gold.PLP.PLP>
-32.9411

> <Gold.PLP.part.hbond>
-2.7486

> <Gold.PLP.part.metal>
0.0000

> <Gold.PLP.part.buried>
-2.9075

> <Gold.PLP.part.nonpolar>
-29.0951

> <Gold.PLP.part.repulsive>
0.2860

> <Gold.PLP.ligand.clash>
0.0000

> <Gold.PLP.ligand.torsion>
0.1229

> <Gold.PLP.Chemscore.Hbond>
2.4504

> <Gold.PLP.Chemscore.CHOScore>
0.0000

> <Gold.PLP.Chemscore.Metal>
0.0000

> <Gold.Chemscore.Hbonds>
donor molecule, donor type, donor heavy atom, donor atom, acceptor molecule, acceptor atom, score
      L1  H     6    29       P1  7948  0.94
      L1  H     9    30       P1  7948  0.48
      P1  H  7989  7998       L1    14  1.00

> <Gold.PLP.Chemscore.Internal.Correction>
0.1137

> <Gold.Rescore>
     Score         DG    S(hbond)    S(metal)    S(lipo)     H(rot)  DE(clash)    DE(int)     intcor
     18.27     -19.46       2.21        0.00      88.16       1.45       0.16       1.03       ----

> <Gold.Chemscore.Fitness>
18.2695

> <Gold.Chemscore.DG>
-19.4619

> <Gold.Chemscore.ZeroCoef>
-5.4800

> <Gold.Chemscore.Hbond>
2.2119

> <Gold.Chemscore.Metal>
0.0000

> <Gold.Chemscore.Lipo>
88.1646

> <Gold.Chemscore.Internal_Hbond>
0.0000

> <Gold.Chemscore.DEClash>
0.1632

> <Gold.Chemscore.DEInternal>
1.0292

> <Gold.Chemscore.Rot>
1.4536

> <Gold.Chemscore.Internal.Correction>
   9.000000E+99

> <Gold.Chemscore.Hbonds>
donor molecule, donor type, donor heavy atom, donor atom, acceptor molecule, acceptor atom, score
      L1  H     6    29       P1  7948  0.87
      L1  H     9    30       P1  7948  0.48
      P1  H  7989  7998       L1    14  0.65

> <Gold.Chemscore.Hbond.Weighted>
-7.3878

> <Gold.Chemscore.Metal.Weighted>
-0.0000

> <Gold.Chemscore.Lipo.Weighted>
-10.3153

> <Gold.Chemscore.Internal_Hbond.Weighted>
0.0000

> <Gold.Chemscore.DEClash.Weighted>
0.1632

> <Gold.Chemscore.DEInternal.Weighted>
1.0292

> <Gold.Chemscore.Rot.Weighted>
3.7212

> <Gold.Chemscore.Internal.Correction.Weighted>
   9.000000E+99

> <Gold.Protein.RotatedTorsions>
[ 6907 6896 6895 6894 ] final   69.14 input  -60.11 | X-H torsion
[ 7974 7965 7964 7962 ] final -118.56 input  175.53 | X-H torsion
[ 8008 7997 7996 7995 ] final   62.03 input   59.86 | X-H torsion
[ 10167 10162 10161 10158 ] final -118.08 input  -65.29 | X-H torsion
[ 10718 10713 10712 10709 ] final -132.17 input   66.30 | X-H torsion
[ 10763 10752 10751 10750 ] final  173.76 input  -60.55 | X-H torsion
[ 11005 11000 10999 10996 ] final   99.08 input  -57.11 | X-H torsion

> <Gold.Protein.ActiveResidues>
 VAL166  LYS551  ARG553  GLY616  TRP617  ASP618  TYR619  PRO620  LYS621  CYS622 
 ASP623  PHE694  ASN695  SER759  ASP760  ASP761  ALA762  ILE779  LEU786  VAL792 
 PHE793  MET794  SER795  GLU796  ALA797  LYS798  CYS799  TRP800  GLU811  SER814 

> <Gold.Protein.RotatedAtoms>
  152.4667  134.5059  159.9738 H   0  0  0  0  0  0  0  0  0  0  0  0  # atno 6907 bound_to 6896
  151.5095  133.3482  159.2890 H   0  0  0  0  0  0  0  0  0  0  0  0  # atno 6908 bound_to 6896
  150.8655  134.8045  159.7177 H   0  0  0  0  0  0  0  0  0  0  0  0  # atno 6909 bound_to 6896
  145.0724  140.8368  143.4088 H   0  0  0  0  0  0  0  0  0  0  0  0  # atno 7974 bound_to 7965
  155.6078  140.3494  155.4613 H   0  0  0  0  0  0  0  0  0  0  0  0  # atno 8008 bound_to 7997
  156.0178  140.1247  157.0413 H   0  0  0  0  0  0  0  0  0  0  0  0  # atno 8009 bound_to 7997
  154.4304  140.1068  156.5906 H   0  0  0  0  0  0  0  0  0  0  0  0  # atno 8010 bound_to 7997
  140.0614  143.4965  152.2030 H   0  0  0  0  0  0  0  0  0  0  0  0  # atno 10167 bound_to 10162
  156.2318  130.7042  151.0866 H   0  0  0  0  0  0  0  0  0  0  0  0  # atno 10718 bound_to 10713
  154.4445  135.2763  155.1824 H   0  0  0  0  0  0  0  0  0  0  0  0  # atno 10763 bound_to 10752
  154.3677  135.6115  153.5727 H   0  0  0  0  0  0  0  0  0  0  0  0  # atno 10764 bound_to 10752
  152.9843  135.5850  154.4778 H   0  0  0  0  0  0  0  0  0  0  0  0  # atno 10765 bound_to 10752
  139.8771  134.9079  156.4552 H   0  0  0  0  0  0  0  0  0  0  0  0  # atno 11005 bound_to 11000
  145.1276  139.2652  143.5556 LP  0  0  0  0  0  0  0  0  0  0  0  0  # atno 17320 bound_to 7965
  146.3529  140.0918  142.8612 LP  0  0  0  0  0  0  0  0  0  0  0  0  # atno 17321 bound_to 7965
  139.5892  144.7543  151.3444 LP  0  0  0  0  0  0  0  0  0  0  0  0  # atno 17342 bound_to 10162
  140.7170  143.7239  150.7675 LP  0  0  0  0  0  0  0  0  0  0  0  0  # atno 17343 bound_to 10162
  157.7136  131.0721  150.6409 LP  0  0  0  0  0  0  0  0  0  0  0  0  # atno 17370 bound_to 10713
  156.6477  130.4476  149.5730 LP  0  0  0  0  0  0  0  0  0  0  0  0  # atno 17371 bound_to 10713
  140.8903  133.7853  155.9565 LP  0  0  0  0  0  0  0  0  0  0  0  0  # atno 17394 bound_to 11000
  140.8760  134.2669  157.5167 LP  0  0  0  0  0  0  0  0  0  0  0  0  # atno 17395 bound_to 11000

$$$$
