AV-unprocessed.smi:1570|AV-procd|sdf|6316|dock5
  -GOLD-   22720 6523D 1   1.00000     0.00000
 Structure written by MMmdl.
 51 53  0  0  0  0  0  0  0  0  1 V2000
  154.6828  140.5561  160.2431 C   0  0  0  0  0  0  0  0  0  0  0  0
  153.2282  140.8066  160.6600 C   0  0  0  0  0  0  0  0  0  0  0  0
  152.4984  141.5329  159.6240 N   0  0  0  0  0  0  0  0  0  0  0  0
  152.2172  141.0917  158.3754 C   0  0  0  0  0  0  0  0  0  0  0  0
  152.5289  139.9963  157.9076 O   0  0  0  0  0  0  0  0  0  0  0  0
  151.5421  142.0691  157.7257 N   0  0  0  0  0  0  0  0  0  0  0  0
  151.0407  142.0143  156.3533 C   0  0  0  0  0  0  0  0  0  0  0  0
  150.6026  140.5901  155.9574 C   0  0  2  0  0  0  0  0  0  0  0  0
  151.6567  139.9946  155.2275 O   0  0  0  0  0  0  0  0  0  0  0  0
  149.3683  140.6214  155.0325 C   0  0  0  0  0  0  0  0  0  0  0  0
  148.2566  141.4593  155.4869 N   0  0  0  0  0  0  0  0  0  0  0  0
  147.4313  140.7406  156.4525 C   0  0  0  0  0  0  0  0  0  0  0  0
  146.2397  141.5749  156.9625 C   0  0  1  0  0  0  0  0  0  0  0  0
  146.6482  142.6890  157.9412 C   0  0  0  0  0  0  0  0  0  0  0  0
  145.4884  142.0851  155.8601 O   0  0  0  0  0  0  0  0  0  0  0  0
  146.2480  142.7980  154.8859 C   0  0  2  0  0  0  0  0  0  0  0  0
  145.3042  143.2015  153.7482 C   0  0  0  0  0  0  0  0  0  0  0  0
  147.4074  141.9150  154.3894 C   0  0  0  0  0  0  0  0  0  0  0  0
  151.4030  143.1744  158.5772 C   0  0  0  0  0  0  0  0  0  0  0  0
  150.8037  144.4301  158.3748 C   0  0  0  0  0  0  0  0  0  0  0  0
  150.8377  145.3446  159.4535 C   0  0  0  0  0  0  0  0  0  0  0  0
  151.4567  144.9971  160.6822 C   0  0  0  0  0  0  0  0  0  0  0  0
  152.0555  143.7277  160.8582 C   0  0  0  0  0  0  0  0  0  0  0  0
  152.0051  142.8371  159.7715 C   0  0  0  0  0  0  0  0  0  0  0  0
  155.2214  140.0170  161.0224 H   0  0  0  0  0  0  0  0  0  0  0  0
  155.2088  141.4940  160.0629 H   0  0  0  0  0  0  0  0  0  0  0  0
  154.7345  139.9610  159.3308 H   0  0  0  0  0  0  0  0  0  0  0  0
  152.7331  139.8563  160.8652 H   0  0  0  0  0  0  0  0  0  0  0  0
  153.1982  141.3695  161.5933 H   0  0  0  0  0  0  0  0  0  0  0  0
  150.1850  142.6888  156.2930 H   0  0  0  0  0  0  0  0  0  0  0  0
  151.7732  142.4126  155.6502 H   0  0  0  0  0  0  0  0  0  0  0  0
  150.4018  140.0045  156.8533 H   0  0  0  0  0  0  0  0  0  0  0  0
  151.5815  139.0560  155.3118 H   0  0  0  0  0  0  0  0  0  0  0  0
  149.6736  140.9529  154.0388 H   0  0  0  0  0  0  0  0  0  0  0  0
  149.0182  139.5957  154.9041 H   0  0  0  0  0  0  0  0  0  0  0  0
  147.0479  139.8291  155.9909 H   0  0  0  0  0  0  0  0  0  0  0  0
  148.0393  140.4213  157.2999 H   0  0  0  0  0  0  0  0  0  0  0  0
  145.5708  140.9060  157.5044 H   0  0  0  0  0  0  0  0  0  0  0  0
  147.1218  142.2697  158.8292 H   0  0  0  0  0  0  0  0  0  0  0  0
  145.7775  143.2572  158.2686 H   0  0  0  0  0  0  0  0  0  0  0  0
  147.3555  143.3881  157.4956 H   0  0  0  0  0  0  0  0  0  0  0  0
  146.6503  143.7065  155.3350 H   0  0  0  0  0  0  0  0  0  0  0  0
  145.8343  143.7645  152.9797 H   0  0  0  0  0  0  0  0  0  0  0  0
  144.4930  143.8286  154.1188 H   0  0  0  0  0  0  0  0  0  0  0  0
  144.8590  142.3257  153.2754 H   0  0  0  0  0  0  0  0  0  0  0  0
  147.9893  142.4894  153.6703 H   0  0  0  0  0  0  0  0  0  0  0  0
  147.0072  141.0544  153.8509 H   0  0  0  0  0  0  0  0  0  0  0  0
  150.3390  144.6926  157.4362 H   0  0  0  0  0  0  0  0  0  0  0  0
  150.3888  146.3203  159.3392 H   0  0  0  0  0  0  0  0  0  0  0  0
  151.4727  145.7112  161.4924 H   0  0  0  0  0  0  0  0  0  0  0  0
  152.5319  143.4598  161.7896 H   0  0  0  0  0  0  0  0  0  0  0  0
  1  2  1  0  0  0  0
  1 25  1  0  0  0  0
  1 26  1  0  0  0  0
  1 27  1  0  0  0  0
  2  3  1  0  0  0  0
  2 28  1  0  0  0  0
  2 29  1  0  0  0  0
  3 24  1  0  0  0  0
  3  4  1  0  0  0  0
  4  5  2  0  0  0  0
  4  6  1  0  0  0  0
  6  7  1  0  0  0  0
  6 19  1  0  0  0  0
  7  8  1  0  0  0  0
  7 30  1  0  0  0  0
  7 31  1  0  0  0  0
  8  9  1  0  0  0  0
  8 10  1  0  0  0  0
  8 32  1  0  0  0  0
  9 33  1  0  0  0  0
 10 11  1  0  0  0  0
 10 34  1  0  0  0  0
 10 35  1  0  0  0  0
 11 18  1  0  0  0  0
 11 12  1  0  0  0  0
 12 13  1  0  0  0  0
 12 36  1  0  0  0  0
 12 37  1  0  0  0  0
 13 14  1  0  0  0  0
 13 15  1  0  0  0  0
 13 38  1  0  0  0  0
 14 39  1  0  0  0  0
 14 40  1  0  0  0  0
 14 41  1  0  0  0  0
 15 16  1  0  0  0  0
 16 17  1  0  0  0  0
 16 18  1  0  0  0  0
 16 42  1  0  0  0  0
 17 43  1  0  0  0  0
 17 44  1  0  0  0  0
 17 45  1  0  0  0  0
 18 46  1  0  0  0  0
 18 47  1  0  0  0  0
 19 24  2  0  0  0  0
 19 20  1  0  0  0  0
 20 21  2  0  0  0  0
 20 48  1  0  0  0  0
 21 22  1  0  0  0  0
 21 49  1  0  0  0  0
 22 23  2  0  0  0  0
 22 50  1  0  0  0  0
 23 24  1  0  0  0  0
 23 51  1  0  0  0  0
M  END
> <s_m_source_file>
AV-unprocessed.smi

> <i_m_source_file_index>
1570

> <i_lp_mmshare_version>
43012

> <i_f3d_flags>
0

> <s_epik_input>
W2NIXTFbY0hdW2NIXVtjSF1jKGMxMiluKFtDSDJdW0NIM10pYyg9TyluMltDSDJdW0NASF0oW09IXSlbQ0gyXU4zW0NIMl1bQ0BASF0oW0NIM10pT1tDQEBIXShbQ0gzXSlbQ0gyXTM=

> <s_epik_cmdline>
J2VwaWtfcHl0aG9uJywgJy1waCcsICc3LjAnLCAnLXRuJywgJzgnLCAnLW1hJywgJzIwMCcsICctbWV0YWxfYmluZGluZycsICctaW1hZScsICc8aW5maWxlLm1hZT4nLCAnLW9tYWUnLCAnPG91dGZpbGUubWFlPic=

> <r_epik_Ionization_Penalty>
0.214359

> <r_epik_Ionization_Penalty_Charging>
2.30976e-09

> <r_epik_Ionization_Penalty_Neutral>
0.214359

> <r_epik_State_Penalty>
0.204533

> <r_epik_Charging_Adjusted_Penalty>
0.204533

> <i_epik_Tot_Q>
0

> <i_epik_Tot_abs_Q>
0

> <r_epik_Metal_State_Penalty>
0.204533

> <b_epik_Metal_Only>
0

> <s_lp_Force_Field>
OPLS_2005

> <r_lp_Energy>
63.3527

> <b_lp_Chiralities_Consistent>
1

> <s_lp_Variant>
AV-unprocessed.smi:1570-5

> <Gold.Version>
5.8.1

> <Gold.Id.Protein>
6NUR|6NUR_protein|mol2

> <Gold.PLP.Fitness>
55.1069

> <Gold.PLP.PLP>
-51.4391

> <Gold.PLP.part.hbond>
-2.0000

> <Gold.PLP.part.metal>
0.0000

> <Gold.PLP.part.buried>
-7.7743

> <Gold.PLP.part.nonpolar>
-41.5547

> <Gold.PLP.part.repulsive>
0.2040

> <Gold.PLP.ligand.clash>
0.0000

> <Gold.PLP.ligand.torsion>
1.2316

> <Gold.PLP.Chemscore.Hbond>
2.0000

> <Gold.PLP.Chemscore.CHOScore>
0.0000

> <Gold.PLP.Chemscore.Metal>
0.0000

> <Gold.Chemscore.Hbonds>
donor molecule, donor type, donor heavy atom, donor atom, acceptor molecule, acceptor atom, score
      P1  H  7989  7998       L1     9  0.99
      P1  H  7997  8010       L1     5  0.57

> <Gold.PLP.Chemscore.Internal.Correction>
0.1309

> <Gold.Rescore>
     Score         DG    S(hbond)    S(metal)    S(lipo)     H(rot)  DE(clash)    DE(int)     intcor
     17.61     -20.31       1.65        0.00     124.56       2.06       0.02       2.68       ----

> <Gold.Chemscore.Fitness>
17.6077

> <Gold.Chemscore.DG>
-20.3118

> <Gold.Chemscore.ZeroCoef>
-5.4800

> <Gold.Chemscore.Hbond>
1.6543

> <Gold.Chemscore.Metal>
0.0000

> <Gold.Chemscore.Lipo>
124.5583

> <Gold.Chemscore.Internal_Hbond>
0.0000

> <Gold.Chemscore.DEClash>
0.0245

> <Gold.Chemscore.DEInternal>
2.6797

> <Gold.Chemscore.Rot>
2.0574

> <Gold.Chemscore.Internal.Correction>
   9.000000E+99

> <Gold.Chemscore.Hbonds>
donor molecule, donor type, donor heavy atom, donor atom, acceptor molecule, acceptor atom, score
      P1  H  7989  7998       L1     9  0.51
      P1  H  7997  8010       L1     5  0.45

> <Gold.Chemscore.Hbond.Weighted>
-5.5254

> <Gold.Chemscore.Metal.Weighted>
-0.0000

> <Gold.Chemscore.Lipo.Weighted>
-14.5733

> <Gold.Chemscore.Internal_Hbond.Weighted>
0.0000

> <Gold.Chemscore.DEClash.Weighted>
0.0245

> <Gold.Chemscore.DEInternal.Weighted>
2.6797

> <Gold.Chemscore.Rot.Weighted>
5.2669

> <Gold.Chemscore.Internal.Correction.Weighted>
   9.000000E+99

> <Gold.Protein.RotatedTorsions>
[ 6907 6896 6895 6894 ] final  -48.25 input  -60.11 | X-H torsion
[ 7974 7965 7964 7962 ] final  -78.52 input  175.53 | X-H torsion
[ 8008 7997 7996 7995 ] final   45.77 input   59.86 | X-H torsion
[ 10167 10162 10161 10158 ] final -167.28 input  -65.29 | X-H torsion
[ 10718 10713 10712 10709 ] final -130.94 input   66.30 | X-H torsion
[ 10763 10752 10751 10750 ] final -113.00 input  -60.55 | X-H torsion
[ 11005 11000 10999 10996 ] final    0.19 input  -57.11 | X-H torsion

> <Gold.Protein.ActiveResidues>
 VAL166  LYS551  ARG553  GLY616  TRP617  ASP618  TYR619  PRO620  LYS621  CYS622 
 ASP623  PHE694  ASN695  SER759  ASP760  ASP761  ALA762  ILE779  LEU786  VAL792 
 PHE793  MET794  SER795  GLU796  ALA797  LYS798  CYS799  TRP800  GLU811  SER814 

> <Gold.Protein.RotatedAtoms>
  150.8925  134.8330  159.7302 H   0  0  0  0  0  0  0  0  0  0  0  0  # atno 6907 bound_to 6896
  152.4845  134.4626  159.9620 H   0  0  0  0  0  0  0  0  0  0  0  0  # atno 6908 bound_to 6896
  151.4687  133.3535  159.2855 H   0  0  0  0  0  0  0  0  0  0  0  0  # atno 6909 bound_to 6896
  145.5854  140.9440  143.1321 H   0  0  0  0  0  0  0  0  0  0  0  0  # atno 7974 bound_to 7965
  155.3414  140.3408  155.4239 H   0  0  0  0  0  0  0  0  0  0  0  0  # atno 8008 bound_to 7997
  156.1811  140.1664  156.8308 H   0  0  0  0  0  0  0  0  0  0  0  0  # atno 8009 bound_to 7997
  154.5335  140.0740  156.8369 H   0  0  0  0  0  0  0  0  0  0  0  0  # atno 8010 bound_to 7997
  139.6060  144.0913  152.1793 H   0  0  0  0  0  0  0  0  0  0  0  0  # atno 10167 bound_to 10162
  156.2194  130.6969  151.0739 H   0  0  0  0  0  0  0  0  0  0  0  0  # atno 10718 bound_to 10713
  154.8376  135.4470  154.1282 H   0  0  0  0  0  0  0  0  0  0  0  0  # atno 10763 bound_to 10752
  153.2499  135.6925  153.7696 H   0  0  0  0  0  0  0  0  0  0  0  0  # atno 10764 bound_to 10752
  153.7012  135.3371  155.3201 H   0  0  0  0  0  0  0  0  0  0  0  0  # atno 10765 bound_to 10752
  140.6293  133.9589  155.8266 H   0  0  0  0  0  0  0  0  0  0  0  0  # atno 11005 bound_to 11000
  144.7375  139.7543  143.7323 LP  0  0  0  0  0  0  0  0  0  0  0  0  # atno 17320 bound_to 7965
  146.1686  139.4827  142.9942 LP  0  0  0  0  0  0  0  0  0  0  0  0  # atno 17321 bound_to 7965
  140.0520  144.5925  150.7329 LP  0  0  0  0  0  0  0  0  0  0  0  0  # atno 17342 bound_to 10162
  140.7285  143.2662  151.4037 LP  0  0  0  0  0  0  0  0  0  0  0  0  # atno 17343 bound_to 10162
  157.7080  131.0748  150.6601 LP  0  0  0  0  0  0  0  0  0  0  0  0  # atno 17370 bound_to 10713
  156.6664  130.4527  149.5671 LP  0  0  0  0  0  0  0  0  0  0  0  0  # atno 17371 bound_to 10713
  141.0686  134.0239  157.3558 LP  0  0  0  0  0  0  0  0  0  0  0  0  # atno 17394 bound_to 11000
  139.9122  135.0192  156.7738 LP  0  0  0  0  0  0  0  0  0  0  0  0  # atno 17395 bound_to 11000

$$$$
