AV-unprocessed.smi:2078|AV-procd|sdf|8463|dock5
  -GOLD-   2272011163D 1   1.00000     0.00000
 Structure written by MMmdl.
 42 43  0  0  0  0  0  0  0  0  2 V2000
  151.6570  141.1782  157.8003 C   0  0  0  0  0  0  0  0  0  0  0  0
  151.3790  140.4002  156.5601 C   0  0  0  0  0  0  0  0  0  0  0  0
  150.2420  140.1790  155.8348 C   0  0  0  0  0  0  0  0  0  0  0  0
  150.6957  139.3505  154.7744 C   0  0  0  0  0  0  0  0  0  0  0  0
  149.8001  138.8884  153.7764 N   0  0  0  0  0  0  0  0  0  0  0  0
  148.5052  139.2151  153.6261 C   0  0  0  0  0  0  0  0  0  0  0  0
  147.8782  139.9879  154.3515 O   0  0  0  0  0  0  0  0  0  0  0  0
  147.9587  138.5857  152.5755 N   0  0  0  0  0  0  0  0  0  0  0  0
  146.5711  138.7330  152.1518 C   0  0  0  0  0  0  0  0  0  0  0  0
  145.6632  137.6782  152.8136 C   0  0  0  0  0  0  0  0  0  0  0  0
  145.9513  136.3040  152.3320 N   0  3  1  0  0  0  0  0  0  0  0  0
  146.1283  135.3424  153.4505 C   0  0  0  0  0  0  0  0  0  0  0  0
  146.5604  133.9622  152.9309 C   0  0  0  0  0  0  0  0  0  0  0  0
  145.5559  133.4227  151.9051 C   0  0  0  0  0  0  0  0  0  0  0  0
  145.3557  134.4396  150.7687 C   0  0  1  0  0  0  0  0  0  0  0  0
  144.3309  133.9382  149.7413 C   0  0  0  0  0  0  0  0  0  0  0  0
  144.9531  135.8127  151.3439 C   0  0  0  0  0  0  0  0  0  0  0  0
  151.9919  139.0890  154.8459 N   0  0  0  0  0  0  0  0  0  0  0  0
  152.4363  139.7606  155.9909 O   0  0  0  0  0  0  0  0  0  0  0  0
  150.7432  141.6220  158.1956 H   0  0  0  0  0  0  0  0  0  0  0  0
  152.3651  141.9825  157.6006 H   0  0  0  0  0  0  0  0  0  0  0  0
  152.0823  140.5363  158.5719 H   0  0  0  0  0  0  0  0  0  0  0  0
  149.2481  140.5525  156.0337 H   0  0  0  0  0  0  0  0  0  0  0  0
  150.1870  138.2392  153.1077 H   0  0  0  0  0  0  0  0  0  0  0  0
  148.5431  137.9700  152.0288 H   0  0  0  0  0  0  0  0  0  0  0  0
  146.2378  139.7472  152.3737 H   0  0  0  0  0  0  0  0  0  0  0  0
  146.5340  138.6257  151.0675 H   0  0  0  0  0  0  0  0  0  0  0  0
  145.8265  137.7266  153.8912 H   0  0  0  0  0  0  0  0  0  0  0  0
  144.6078  137.9053  152.6544 H   0  0  0  0  0  0  0  0  0  0  0  0
  146.8847  135.7145  154.1427 H   0  0  0  0  0  0  0  0  0  0  0  0
  145.1964  135.2601  154.0125 H   0  0  0  0  0  0  0  0  0  0  0  0
  147.5487  134.0340  152.4748 H   0  0  0  0  0  0  0  0  0  0  0  0
  146.6541  133.2635  153.7628 H   0  0  0  0  0  0  0  0  0  0  0  0
  145.9089  132.4713  151.5053 H   0  0  0  0  0  0  0  0  0  0  0  0
  144.6033  133.2202  152.3970 H   0  0  0  0  0  0  0  0  0  0  0  0
  146.3085  134.5581  150.2500 H   0  0  0  0  0  0  0  0  0  0  0  0
  143.3488  133.7991  150.1948 H   0  0  0  0  0  0  0  0  0  0  0  0
  144.6384  132.9832  149.3142 H   0  0  0  0  0  0  0  0  0  0  0  0
  144.2203  134.6454  148.9189 H   0  0  0  0  0  0  0  0  0  0  0  0
  143.9730  135.7495  151.8200 H   0  0  0  0  0  0  0  0  0  0  0  0
  144.8566  136.5245  150.5249 H   0  0  0  0  0  0  0  0  0  0  0  0
  146.8412  136.3479  151.8568 H   0  0  0  0  0  0  0  0  0  0  0  0
  1  2  1  0  0  0  0
  1 20  1  0  0  0  0
  1 21  1  0  0  0  0
  1 22  1  0  0  0  0
  2 19  1  0  0  0  0
  2  3  2  0  0  0  0
  3  4  1  0  0  0  0
  3 23  1  0  0  0  0
  4  5  1  0  0  0  0
  4 18  2  0  0  0  0
  5  6  1  0  0  0  0
  5 24  1  0  0  0  0
  6  7  2  0  0  0  0
  6  8  1  0  0  0  0
  8  9  1  0  0  0  0
  8 25  1  0  0  0  0
  9 10  1  0  0  0  0
  9 26  1  0  0  0  0
  9 27  1  0  0  0  0
 10 11  1  0  0  0  0
 10 28  1  0  0  0  0
 10 29  1  0  0  0  0
 11 17  1  0  0  0  0
 11 12  1  0  0  0  0
 11 42  1  0  0  0  0
 12 13  1  0  0  0  0
 12 30  1  0  0  0  0
 12 31  1  0  0  0  0
 13 14  1  0  0  0  0
 13 32  1  0  0  0  0
 13 33  1  0  0  0  0
 14 15  1  0  0  0  0
 14 34  1  0  0  0  0
 14 35  1  0  0  0  0
 15 16  1  0  0  0  0
 15 17  1  0  0  0  0
 15 36  1  0  0  0  0
 16 37  1  0  0  0  0
 16 38  1  0  0  0  0
 16 39  1  0  0  0  0
 17 40  1  0  0  0  0
 17 41  1  0  0  0  0
 18 19  1  0  0  0  0
M  CHG  1  11   1
M  END
> <s_m_source_file>
AV-unprocessed.smi

> <i_m_source_file_index>
2078

> <i_lp_mmshare_version>
43012

> <i_f3d_flags>
0

> <s_epik_input>
W0NIM11jMVtjSF1jKG5vMSlbTkhdQyg9TylbTkhdW0NIMl1bQ0gyXU4yW0NIMl1bQ0gyXVtDSDJdW0NAQEhdKFtDSDNdKVtDSDJdMg==

> <s_epik_cmdline>
J2VwaWtfcHl0aG9uJywgJy1waCcsICc3LjAnLCAnLXRuJywgJzgnLCAnLW1hJywgJzIwMCcsICctbWV0YWxfYmluZGluZycsICctaW1hZScsICc8aW5maWxlLm1hZT4nLCAnLW9tYWUnLCAnPG91dGZpbGUubWFlPic=

> <r_epik_Ionization_Penalty>
0.00216453

> <r_epik_Ionization_Penalty_Charging>
0.00212879

> <r_epik_Ionization_Penalty_Neutral>
3.57418e-05

> <r_epik_State_Penalty>
0.00146033

> <r_epik_Charging_Adjusted_Penalty>
0.00358912

> <i_epik_Tot_Q>
1

> <i_epik_Tot_abs_Q>
1

> <r_epik_Metal_State_Penalty>
0.0215827

> <b_epik_Metal_Only>
0

> <s_lp_Force_Field>
OPLS_2005

> <r_lp_Energy>
12.7312

> <b_lp_Chiralities_Consistent>
1

> <s_lp_Variant>
AV-unprocessed.smi:2078-1

> <Gold.Version>
5.8.1

> <Gold.Id.Protein>
6NUR|6NUR_protein|mol2

> <Gold.PLP.Fitness>
42.4283

> <Gold.PLP.PLP>
-32.5282

> <Gold.PLP.part.hbond>
-6.0000

> <Gold.PLP.part.metal>
0.0000

> <Gold.PLP.part.buried>
-0.4407

> <Gold.PLP.part.nonpolar>
-26.5877

> <Gold.PLP.part.repulsive>
0.3535

> <Gold.PLP.ligand.clash>
0.0000

> <Gold.PLP.ligand.torsion>
0.8616

> <Gold.PLP.Chemscore.Hbond>
3.8640

> <Gold.PLP.Chemscore.CHOScore>
0.0000

> <Gold.PLP.Chemscore.Metal>
0.0000

> <Gold.Chemscore.Hbonds>
donor molecule, donor type, donor heavy atom, donor atom, acceptor molecule, acceptor atom, score
      L1  H     8    25       P1  7948  0.85
      L1  H    11    42       P1  7948  1.69
      P1  H  7997  8009       L1    19  1.00

> <Gold.PLP.Chemscore.Internal.Correction>
0.0313

> <Gold.Rescore>
     Score         DG    S(hbond)    S(metal)    S(lipo)     H(rot)  DE(clash)    DE(int)     intcor
     14.55     -17.83       2.84        0.00      58.75       1.57       1.09       2.20       ----

> <Gold.Chemscore.Fitness>
14.5473

> <Gold.Chemscore.DG>
-17.8335

> <Gold.Chemscore.ZeroCoef>
-5.4800

> <Gold.Chemscore.Hbond>
2.8436

> <Gold.Chemscore.Metal>
0.0000

> <Gold.Chemscore.Lipo>
58.7537

> <Gold.Chemscore.Internal_Hbond>
0.0000

> <Gold.Chemscore.DEClash>
1.0883

> <Gold.Chemscore.DEInternal>
2.1979

> <Gold.Chemscore.Rot>
1.5697

> <Gold.Chemscore.Internal.Correction>
   9.000000E+99

> <Gold.Chemscore.Hbonds>
donor molecule, donor type, donor heavy atom, donor atom, acceptor molecule, acceptor atom, score
      L1  H     8    25       P1  7948  0.85
      L1  H    11    42       P1  7948  0.81
      P1  H  7997  8009       L1    19  0.85

> <Gold.Chemscore.Hbond.Weighted>
-9.4978

> <Gold.Chemscore.Metal.Weighted>
-0.0000

> <Gold.Chemscore.Lipo.Weighted>
-6.8742

> <Gold.Chemscore.Internal_Hbond.Weighted>
0.0000

> <Gold.Chemscore.DEClash.Weighted>
1.0883

> <Gold.Chemscore.DEInternal.Weighted>
2.1979

> <Gold.Chemscore.Rot.Weighted>
4.0185

> <Gold.Chemscore.Internal.Correction.Weighted>
   9.000000E+99

> <Gold.Protein.RotatedTorsions>
[ 6907 6896 6895 6894 ] final  -27.52 input  -60.11 | X-H torsion
[ 7974 7965 7964 7962 ] final  -69.37 input  175.53 | X-H torsion
[ 8008 7997 7996 7995 ] final -141.40 input   59.86 | X-H torsion
[ 10167 10162 10161 10158 ] final   57.82 input  -65.29 | X-H torsion
[ 10718 10713 10712 10709 ] final  124.65 input   66.30 | X-H torsion
[ 10763 10752 10751 10750 ] final  -53.33 input  -60.55 | X-H torsion
[ 11005 11000 10999 10996 ] final  -51.49 input  -57.11 | X-H torsion

> <Gold.Protein.ActiveResidues>
 VAL166  LYS551  ARG553  GLY616  TRP617  ASP618  TYR619  PRO620  LYS621  CYS622 
 ASP623  PHE694  ASN695  SER759  ASP760  ASP761  ALA762  ILE779  LEU786  VAL792 
 PHE793  MET794  SER795  GLU796  ALA797  LYS798  CYS799  TRP800  GLU811  SER814 

> <Gold.Protein.RotatedAtoms>
  151.1457  135.0202  159.8645 H   0  0  0  0  0  0  0  0  0  0  0  0  # atno 6907 bound_to 6896
  152.5453  134.1447  159.8503 H   0  0  0  0  0  0  0  0  0  0  0  0  # atno 6908 bound_to 6896
  151.1527  133.4851  159.2628 H   0  0  0  0  0  0  0  0  0  0  0  0  # atno 6909 bound_to 6896
  145.7046  140.9103  143.0713 H   0  0  0  0  0  0  0  0  0  0  0  0  # atno 7974 bound_to 7965
  155.4772  140.0557  157.2972 H   0  0  0  0  0  0  0  0  0  0  0  0  # atno 8008 bound_to 7997
  154.4674  140.2025  156.0034 H   0  0  0  0  0  0  0  0  0  0  0  0  # atno 8009 bound_to 7997
  156.0998  140.3221  155.7932 H   0  0  0  0  0  0  0  0  0  0  0  0  # atno 8010 bound_to 7997
  140.1938  144.4058  150.6559 H   0  0  0  0  0  0  0  0  0  0  0  0  # atno 10167 bound_to 10162
  157.5568  131.1091  150.8608 H   0  0  0  0  0  0  0  0  0  0  0  0  # atno 10718 bound_to 10713
  154.1571  135.6481  153.4977 H   0  0  0  0  0  0  0  0  0  0  0  0  # atno 10763 bound_to 10752
  153.0121  135.5352  154.6749 H   0  0  0  0  0  0  0  0  0  0  0  0  # atno 10764 bound_to 10752
  154.6052  135.2948  155.0463 H   0  0  0  0  0  0  0  0  0  0  0  0  # atno 10765 bound_to 10752
  141.0874  133.6639  156.3885 H   0  0  0  0  0  0  0  0  0  0  0  0  # atno 11005 bound_to 11000
  144.6959  139.8993  143.7457 LP  0  0  0  0  0  0  0  0  0  0  0  0  # atno 17320 bound_to 7965
  146.0767  139.3755  143.0489 LP  0  0  0  0  0  0  0  0  0  0  0  0  # atno 17321 bound_to 7965
  140.6437  143.2209  151.6233 LP  0  0  0  0  0  0  0  0  0  0  0  0  # atno 17342 bound_to 10162
  139.5245  144.3102  152.0999 LP  0  0  0  0  0  0  0  0  0  0  0  0  # atno 17343 bound_to 10162
  156.9117  130.5283  149.5280 LP  0  0  0  0  0  0  0  0  0  0  0  0  # atno 17370 bound_to 10713
  156.0625  130.5675  150.9223 LP  0  0  0  0  0  0  0  0  0  0  0  0  # atno 17371 bound_to 10713
  140.5332  134.6192  157.5356 LP  0  0  0  0  0  0  0  0  0  0  0  0  # atno 17394 bound_to 11000
  139.9694  134.7318  156.0072 LP  0  0  0  0  0  0  0  0  0  0  0  0  # atno 17395 bound_to 11000

$$$$
