AV-unprocessed.smi:3274|AV-procd|sdf|12523|dock3
  -GOLD-   2272018433D 1   1.00000     0.00000
 Structure written by MMmdl.
 43 44  0  0  0  0  0  0  0  0  2 V2000
  147.8505  132.4614  152.9087 C   0  0  0  0  0  0  0  0  0  0  0  0
  146.5400  132.6279  152.1570 C   0  0  0  0  0  0  0  0  0  0  0  0
  145.8740  131.5386  151.7282 C   0  0  0  0  0  0  0  0  0  0  0  0
  144.6072  131.5835  150.9061 C   0  0  0  0  0  0  0  0  0  0  0  0
  144.4608  132.9327  150.1993 C   0  0  0  0  0  0  0  0  0  0  0  0
  144.6510  134.1022  151.1789 C   0  0  2  0  0  0  0  0  0  0  0  0
  144.4035  135.4327  150.4414 C   0  0  0  0  0  0  0  0  0  0  0  0
  146.0390  134.0631  151.8910 C   0  0  1  0  0  0  0  0  0  0  0  0
  146.0000  134.9346  153.1748 C   0  0  0  0  0  0  0  0  0  0  0  0
  147.3370  135.4238  153.5776 N   0  3  0  0  0  0  0  0  0  0  0  0
  147.3539  136.3845  154.7030 C   0  0  2  0  0  0  0  0  0  0  0  0
  146.7629  137.7441  154.2808 C   0  0  0  0  0  0  0  0  0  0  0  0
  148.7945  136.5035  155.2408 C   0  0  0  0  0  0  0  0  0  0  0  0
  149.4060  137.7868  154.9461 N   0  0  0  0  0  0  0  0  0  0  0  0
  150.4237  138.0995  154.1418 C   0  0  0  0  0  0  0  0  0  0  0  0
  150.7096  139.3934  154.1191 N   0  0  0  0  0  0  0  0  0  0  0  0
  149.7594  139.8532  154.9869 C   0  0  0  0  0  0  0  0  0  0  0  0
  148.9518  138.9304  155.5105 N   0  0  0  0  0  0  0  0  0  0  0  0
  148.6284  133.0821  152.4635 H   0  0  0  0  0  0  0  0  0  0  0  0
  148.1967  131.4278  152.8757 H   0  0  0  0  0  0  0  0  0  0  0  0
  147.7359  132.7305  153.9585 H   0  0  0  0  0  0  0  0  0  0  0  0
  146.2505  130.5515  151.9550 H   0  0  0  0  0  0  0  0  0  0  0  0
  144.6314  130.7815  150.1679 H   0  0  0  0  0  0  0  0  0  0  0  0
  143.7568  131.3918  151.5612 H   0  0  0  0  0  0  0  0  0  0  0  0
  145.1967  133.0052  149.3968 H   0  0  0  0  0  0  0  0  0  0  0  0
  143.4806  132.9869  149.7242 H   0  0  0  0  0  0  0  0  0  0  0  0
  143.8777  133.9997  151.9422 H   0  0  0  0  0  0  0  0  0  0  0  0
  145.1542  135.6013  149.6687 H   0  0  0  0  0  0  0  0  0  0  0  0
  144.4200  136.2909  151.1111 H   0  0  0  0  0  0  0  0  0  0  0  0
  143.4278  135.4321  149.9544 H   0  0  0  0  0  0  0  0  0  0  0  0
  146.7650  134.4994  151.2030 H   0  0  0  0  0  0  0  0  0  0  0  0
  145.3629  135.8043  153.0305 H   0  0  0  0  0  0  0  0  0  0  0  0
  145.5553  134.3615  153.9896 H   0  0  0  0  0  0  0  0  0  0  0  0
  147.8698  134.6147  153.8633 H   0  0  0  0  0  0  0  0  0  0  0  0
  146.7381  135.9740  155.5050 H   0  0  0  0  0  0  0  0  0  0  0  0
  146.7420  138.4471  155.1137 H   0  0  0  0  0  0  0  0  0  0  0  0
  145.7358  137.6485  153.9296 H   0  0  0  0  0  0  0  0  0  0  0  0
  147.3480  138.1978  153.4803 H   0  0  0  0  0  0  0  0  0  0  0  0
  148.8036  136.3693  156.3234 H   0  0  0  0  0  0  0  0  0  0  0  0
  149.4201  135.7116  154.8247 H   0  0  0  0  0  0  0  0  0  0  0  0
  150.9686  137.3666  153.5648 H   0  0  0  0  0  0  0  0  0  0  0  0
  149.6600  140.8985  155.2403 H   0  0  0  0  0  0  0  0  0  0  0  0
  147.7958  135.8410  152.7802 H   0  0  0  0  0  0  0  0  0  0  0  0
  1  2  1  0  0  0  0
  1 19  1  0  0  0  0
  1 20  1  0  0  0  0
  1 21  1  0  0  0  0
  2  8  1  0  0  0  0
  2  3  2  0  0  0  0
  3  4  1  0  0  0  0
  3 22  1  0  0  0  0
  4  5  1  0  0  0  0
  4 23  1  0  0  0  0
  4 24  1  0  0  0  0
  5  6  1  0  0  0  0
  5 25  1  0  0  0  0
  5 26  1  0  0  0  0
  6  7  1  0  0  0  0
  6  8  1  0  0  0  0
  6 27  1  0  0  0  0
  7 28  1  0  0  0  0
  7 29  1  0  0  0  0
  7 30  1  0  0  0  0
  8  9  1  0  0  0  0
  8 31  1  0  0  0  0
  9 10  1  0  0  0  0
  9 32  1  0  0  0  0
  9 33  1  0  0  0  0
 10 11  1  0  0  0  0
 10 34  1  0  0  0  0
 10 43  1  0  0  0  0
 11 12  1  0  0  0  0
 11 13  1  0  0  0  0
 11 35  1  0  0  0  0
 12 36  1  0  0  0  0
 12 37  1  0  0  0  0
 12 38  1  0  0  0  0
 13 14  1  0  0  0  0
 13 39  1  0  0  0  0
 13 40  1  0  0  0  0
 14 18  1  0  0  0  0
 14 15  1  0  0  0  0
 15 16  2  0  0  0  0
 15 41  1  0  0  0  0
 16 17  1  0  0  0  0
 17 18  2  0  0  0  0
 17 42  1  0  0  0  0
M  CHG  1  10   1
M  END
> <s_m_source_file>
AV-unprocessed.smi

> <i_m_source_file_index>
3274

> <i_lp_mmshare_version>
43012

> <i_f3d_flags>
0

> <s_epik_input>
W0NIM11DMT1bQ0hdW0NIMl1bQ0gyXVtDQEBIXShbQ0gzXSlbQ0BIXTFbQ0gyXVtOSF1bQ0BIXShbQ0gzXSlbQ0gyXW4yW2NIXW5bY0hdbjI=

> <s_epik_cmdline>
J2VwaWtfcHl0aG9uJywgJy1waCcsICc3LjAnLCAnLXRuJywgJzgnLCAnLW1hJywgJzIwMCcsICctbWV0YWxfYmluZGluZycsICctaW1hZScsICc8aW5maWxlLm1hZT4nLCAnLW9tYWUnLCAnPG91dGZpbGUubWFlPic=

> <r_lp_tautomer_probability>
1

> <r_epik_Ionization_Penalty>
0.0017527

> <r_epik_Ionization_Penalty_Charging>
0.00175191

> <r_epik_Ionization_Penalty_Neutral>
7.94565e-07

> <r_epik_State_Penalty>
0.00118605

> <r_epik_Charging_Adjusted_Penalty>
0.00293796

> <i_epik_Tot_Q>
1

> <i_epik_Tot_abs_Q>
1

> <r_epik_Metal_State_Penalty>
-0

> <b_epik_Metal_Only>
0

> <s_lp_Force_Field>
OPLS_2005

> <r_lp_Energy>
18.9317

> <b_lp_Chiralities_Consistent>
1

> <s_lp_Variant>
AV-unprocessed.smi:3274-2

> <Gold.Version>
5.8.1

> <Gold.Id.Protein>
6NUR|6NUR_protein|mol2

> <Gold.PLP.Fitness>
39.3314

> <Gold.PLP.PLP>
-29.0724

> <Gold.PLP.part.hbond>
-1.8634

> <Gold.PLP.part.metal>
0.0000

> <Gold.PLP.part.buried>
-3.6655

> <Gold.PLP.part.nonpolar>
-24.1800

> <Gold.PLP.part.repulsive>
0.2233

> <Gold.PLP.ligand.clash>
0.0000

> <Gold.PLP.ligand.torsion>
1.0322

> <Gold.PLP.Chemscore.Hbond>
3.0000

> <Gold.PLP.Chemscore.CHOScore>
1.0544

> <Gold.PLP.Chemscore.Metal>
0.0000

> <Gold.Chemscore.Hbonds>
donor molecule, donor type, donor heavy atom, donor atom, acceptor molecule, acceptor atom, score
      L1  H    10    43       P1  7948  1.95
      P1  H  7989  7998       L1    16  1.00
      L1  C    15    41       P1  7948  0.04
      L1  C    15    41       P1  7949  1.00

> <Gold.PLP.Chemscore.Internal.Correction>
0.1600

> <Gold.Rescore>
     Score         DG    S(hbond)    S(metal)    S(lipo)     H(rot)  DE(clash)    DE(int)     intcor
     11.07     -13.64       1.91        0.00      66.88       2.36       0.09       2.48       ----

> <Gold.Chemscore.Fitness>
11.0722

> <Gold.Chemscore.DG>
-13.6423

> <Gold.Chemscore.ZeroCoef>
-5.4800

> <Gold.Chemscore.Hbond>
1.9111

> <Gold.Chemscore.Metal>
0.0000

> <Gold.Chemscore.Lipo>
66.8776

> <Gold.Chemscore.Internal_Hbond>
0.0000

> <Gold.Chemscore.DEClash>
0.0904

> <Gold.Chemscore.DEInternal>
2.4797

> <Gold.Chemscore.Rot>
2.3615

> <Gold.Chemscore.Internal.Correction>
   9.000000E+99

> <Gold.Chemscore.Hbonds>
donor molecule, donor type, donor heavy atom, donor atom, acceptor molecule, acceptor atom, score
      L1  H    10    43       P1  7948  0.90
      P1  H  7989  7998       L1    16  0.65

> <Gold.Chemscore.Hbond.Weighted>
-6.3831

> <Gold.Chemscore.Metal.Weighted>
-0.0000

> <Gold.Chemscore.Lipo.Weighted>
-7.8247

> <Gold.Chemscore.Internal_Hbond.Weighted>
0.0000

> <Gold.Chemscore.DEClash.Weighted>
0.0904

> <Gold.Chemscore.DEInternal.Weighted>
2.4797

> <Gold.Chemscore.Rot.Weighted>
6.0454

> <Gold.Chemscore.Internal.Correction.Weighted>
   9.000000E+99

> <Gold.Protein.RotatedTorsions>
[ 6907 6896 6895 6894 ] final  132.99 input  -60.11 | X-H torsion
[ 7974 7965 7964 7962 ] final  -78.74 input  175.53 | X-H torsion
[ 8008 7997 7996 7995 ] final   19.64 input   59.86 | X-H torsion
[ 10167 10162 10161 10158 ] final  123.22 input  -65.29 | X-H torsion
[ 10718 10713 10712 10709 ] final  -13.88 input   66.30 | X-H torsion
[ 10763 10752 10751 10750 ] final   77.22 input  -60.55 | X-H torsion
[ 11005 11000 10999 10996 ] final  116.35 input  -57.11 | X-H torsion

> <Gold.Protein.ActiveResidues>
 VAL166  LYS551  ARG553  GLY616  TRP617  ASP618  TYR619  PRO620  LYS621  CYS622 
 ASP623  PHE694  ASN695  SER759  ASP760  ASP761  ALA762  ILE779  LEU786  VAL792 
 PHE793  MET794  SER795  GLU796  ALA797  LYS798  CYS799  TRP800  GLU811  SER814 

> <Gold.Protein.RotatedAtoms>
  152.3267  133.5912  159.5780 H   0  0  0  0  0  0  0  0  0  0  0  0  # atno 6907 bound_to 6896
  150.7400  133.9930  159.3622 H   0  0  0  0  0  0  0  0  0  0  0  0  # atno 6908 bound_to 6896
  151.7809  135.0762  160.0424 H   0  0  0  0  0  0  0  0  0  0  0  0  # atno 6909 bound_to 6896
  145.5825  140.9445  143.1336 H   0  0  0  0  0  0  0  0  0  0  0  0  # atno 7974 bound_to 7965
  154.9237  140.3031  155.5203 H   0  0  0  0  0  0  0  0  0  0  0  0  # atno 8008 bound_to 7997
  156.3008  140.2366  156.4226 H   0  0  0  0  0  0  0  0  0  0  0  0  # atno 8009 bound_to 7997
  154.8305  140.0418  157.1462 H   0  0  0  0  0  0  0  0  0  0  0  0  # atno 8010 bound_to 7997
  139.5812  144.6987  151.3524 H   0  0  0  0  0  0  0  0  0  0  0  0  # atno 10167 bound_to 10162
  156.6239  130.4883  149.6154 H   0  0  0  0  0  0  0  0  0  0  0  0  # atno 10718 bound_to 10713
  153.0782  135.4922  154.8448 H   0  0  0  0  0  0  0  0  0  0  0  0  # atno 10763 bound_to 10752
  154.7116  135.3021  154.9191 H   0  0  0  0  0  0  0  0  0  0  0  0  # atno 10764 bound_to 10752
  153.9883  135.6781  153.4806 H   0  0  0  0  0  0  0  0  0  0  0  0  # atno 10765 bound_to 10752
  139.9038  134.9597  156.7184 H   0  0  0  0  0  0  0  0  0  0  0  0  # atno 11005 bound_to 11000
  144.7387  139.7510  143.7319 LP  0  0  0  0  0  0  0  0  0  0  0  0  # atno 17320 bound_to 7965
  146.1706  139.4855  142.9930 LP  0  0  0  0  0  0  0  0  0  0  0  0  # atno 17321 bound_to 7965
  140.7090  143.7440  150.7533 LP  0  0  0  0  0  0  0  0  0  0  0  0  # atno 17342 bound_to 10162
  140.0973  143.4821  152.2445 LP  0  0  0  0  0  0  0  0  0  0  0  0  # atno 17343 bound_to 10162
  156.2289  130.6783  151.1444 LP  0  0  0  0  0  0  0  0  0  0  0  0  # atno 17370 bound_to 10713
  157.7220  131.0675  150.6096 LP  0  0  0  0  0  0  0  0  0  0  0  0  # atno 17371 bound_to 10713
  140.7020  133.9298  155.8030 LP  0  0  0  0  0  0  0  0  0  0  0  0  # atno 17394 bound_to 11000
  141.0365  134.0683  157.3953 LP  0  0  0  0  0  0  0  0  0  0  0  0  # atno 17395 bound_to 11000

$$$$
