AV-unprocessed.smi:1674|AV-procd|sdf|6714|dock3
  -GOLD-   22720 7453D 1   1.00000     0.00000
 Structure written by MMmdl.
 47 48  0  0  0  0  0  0  0  0  1 V2000
  150.5321  144.4909  159.4897 C   0  0  0  0  0  0  0  0  0  0  0  0
  151.4104  143.2734  159.3893 C   0  0  0  0  0  0  0  0  0  0  0  0
  151.3384  142.5949  158.2920 N   0  0  0  0  0  0  0  0  0  0  0  0
  152.1137  141.4696  158.0896 N   0  0  0  0  0  0  0  0  0  0  0  0
  151.9540  140.8580  156.7625 C   0  0  0  0  0  0  0  0  0  0  0  0
  150.4845  140.4969  156.4417 C   0  0  1  0  0  0  0  0  0  0  0  0
  150.3688  140.2872  155.0492 O   0  0  0  0  0  0  0  0  0  0  0  0
  149.9785  139.3071  157.2479 C   0  0  0  0  0  0  0  0  0  0  0  0
  148.6156  138.9456  157.1924 C   0  0  0  0  0  0  0  0  0  0  0  0
  148.1341  137.8692  157.9615 C   0  0  0  0  0  0  0  0  0  0  0  0
  149.0124  137.1417  158.7911 C   0  0  0  0  0  0  0  0  0  0  0  0
  148.4962  135.9790  159.6215 C   0  0  0  0  0  0  0  0  0  0  0  0
  147.6160  136.4153  160.8109 C   0  0  0  0  0  0  0  0  0  0  0  0
  147.6536  135.4055  161.9706 C   0  0  0  0  0  0  0  0  0  0  0  0
  146.1714  136.6702  160.3560 C   0  0  0  0  0  0  0  0  0  0  0  0
  150.3746  137.5012  158.8486 C   0  0  0  0  0  0  0  0  0  0  0  0
  150.8555  138.5793  158.0813 C   0  0  0  0  0  0  0  0  0  0  0  0
  152.9884  140.9554  158.9999 C   0  0  0  0  0  0  0  0  0  0  0  0
  153.6574  139.9453  158.7777 O   0  0  0  0  0  0  0  0  0  0  0  0
  153.0595  141.7245  160.2444 C   0  0  0  0  0  0  0  0  0  0  0  0
  153.9701  141.2245  161.2233 C   0  0  0  0  0  0  0  0  0  0  0  0
  154.7126  140.8027  162.0051 N   0  0  0  0  0  0  0  0  0  0  0  0
  152.3146  142.8396  160.4492 C   0  0  0  0  0  0  0  0  0  0  0  0
  152.3557  143.6777  161.7195 C   0  0  0  0  0  0  0  0  0  0  0  0
  149.8448  144.4038  160.3312 H   0  0  0  0  0  0  0  0  0  0  0  0
  149.9331  144.6362  158.5892 H   0  0  0  0  0  0  0  0  0  0  0  0
  151.1326  145.3893  159.6331 H   0  0  0  0  0  0  0  0  0  0  0  0
  152.3570  141.5192  155.9932 H   0  0  0  0  0  0  0  0  0  0  0  0
  152.5642  139.9537  156.7106 H   0  0  0  0  0  0  0  0  0  0  0  0
  149.8538  141.3557  156.6746 H   0  0  0  0  0  0  0  0  0  0  0  0
  150.2992  139.3578  154.8923 H   0  0  0  0  0  0  0  0  0  0  0  0
  147.9311  139.5002  156.5673 H   0  0  0  0  0  0  0  0  0  0  0  0
  147.0883  137.6035  157.9109 H   0  0  0  0  0  0  0  0  0  0  0  0
  147.9253  135.3246  158.9613 H   0  0  0  0  0  0  0  0  0  0  0  0
  149.3386  135.3846  159.9784 H   0  0  0  0  0  0  0  0  0  0  0  0
  148.0036  137.3634  161.1860 H   0  0  0  0  0  0  0  0  0  0  0  0
  147.3061  134.4226  161.6505 H   0  0  0  0  0  0  0  0  0  0  0  0
  147.0178  135.7309  162.7945 H   0  0  0  0  0  0  0  0  0  0  0  0
  148.6617  135.2893  162.3687 H   0  0  0  0  0  0  0  0  0  0  0  0
  145.7144  135.7626  159.9605 H   0  0  0  0  0  0  0  0  0  0  0  0
  146.1328  137.4300  159.5746 H   0  0  0  0  0  0  0  0  0  0  0  0
  145.5537  137.0207  161.1834 H   0  0  0  0  0  0  0  0  0  0  0  0
  151.0543  136.9515  159.4833 H   0  0  0  0  0  0  0  0  0  0  0  0
  151.8991  138.8516  158.1411 H   0  0  0  0  0  0  0  0  0  0  0  0
  153.0504  143.2771  162.4570 H   0  0  0  0  0  0  0  0  0  0  0  0
  151.3705  143.7157  162.1851 H   0  0  0  0  0  0  0  0  0  0  0  0
  152.6697  144.6975  161.4944 H   0  0  0  0  0  0  0  0  0  0  0  0
  1  2  1  0  0  0  0
  1 25  1  0  0  0  0
  1 26  1  0  0  0  0
  1 27  1  0  0  0  0
  2 23  1  0  0  0  0
  2  3  2  0  0  0  0
  3  4  1  0  0  0  0
  4  5  1  0  0  0  0
  4 18  1  0  0  0  0
  5  6  1  0  0  0  0
  5 28  1  0  0  0  0
  5 29  1  0  0  0  0
  6  7  1  0  0  0  0
  6  8  1  0  0  0  0
  6 30  1  0  0  0  0
  7 31  1  0  0  0  0
  8 17  1  0  0  0  0
  8  9  2  0  0  0  0
  9 10  1  0  0  0  0
  9 32  1  0  0  0  0
 10 11  2  0  0  0  0
 10 33  1  0  0  0  0
 11 12  1  0  0  0  0
 11 16  1  0  0  0  0
 12 13  1  0  0  0  0
 12 34  1  0  0  0  0
 12 35  1  0  0  0  0
 13 14  1  0  0  0  0
 13 15  1  0  0  0  0
 13 36  1  0  0  0  0
 14 37  1  0  0  0  0
 14 38  1  0  0  0  0
 14 39  1  0  0  0  0
 15 40  1  0  0  0  0
 15 41  1  0  0  0  0
 15 42  1  0  0  0  0
 16 17  2  0  0  0  0
 16 43  1  0  0  0  0
 17 44  1  0  0  0  0
 18 19  2  0  0  0  0
 18 20  1  0  0  0  0
 20 21  1  0  0  0  0
 20 23  2  0  0  0  0
 21 22  3  0  0  0  0
 23 24  1  0  0  0  0
 24 45  1  0  0  0  0
 24 46  1  0  0  0  0
 24 47  1  0  0  0  0
M  END
> <s_m_source_file>
AV-unprocessed.smi

> <i_m_source_file_index>
1674

> <i_lp_mmshare_version>
43012

> <i_f3d_flags>
0

> <s_epik_input>
TiNDYyhjMVtDSDNdKWMoPU8pbihuYzFbQ0gzXSlbQ0gyXVtDQEhdKFtPSF0pYzJbY0hdW2NIXWMoW2NIXVtjSF0yKVtDSDJdW0NIXShbQ0gzXSlbQ0gzXQ==

> <s_epik_cmdline>
J2VwaWtfcHl0aG9uJywgJy1waCcsICc3LjAnLCAnLXRuJywgJzgnLCAnLW1hJywgJzIwMCcsICctbWV0YWxfYmluZGluZycsICctaW1hZScsICc8aW5maWxlLm1hZT4nLCAnLW9tYWUnLCAnPG91dGZpbGUubWFlPic=

> <r_lp_tautomer_probability>
1

> <r_epik_Ionization_Penalty>
4.60566e-08

> <r_epik_Ionization_Penalty_Charging>
1.40848e-10

> <r_epik_Ionization_Penalty_Neutral>
4.59158e-08

> <r_epik_State_Penalty>
-0

> <r_epik_Charging_Adjusted_Penalty>
1.40848e-10

> <i_epik_Tot_Q>
0

> <i_epik_Tot_abs_Q>
0

> <r_epik_Metal_State_Penalty>
-0

> <b_epik_Metal_Only>
0

> <s_lp_Force_Field>
OPLS_2005

> <r_lp_Energy>
26.1271

> <b_lp_Chiralities_Consistent>
1

> <s_lp_Variant>
AV-unprocessed.smi:1674-2

> <Gold.Version>
5.8.1

> <Gold.Id.Protein>
6NUR|6NUR_protein|mol2

> <Gold.PLP.Fitness>
49.5409

> <Gold.PLP.PLP>
-44.8131

> <Gold.PLP.part.hbond>
-3.0000

> <Gold.PLP.part.metal>
0.0000

> <Gold.PLP.part.buried>
-6.7902

> <Gold.PLP.part.nonpolar>
-33.2407

> <Gold.PLP.part.repulsive>
0.0462

> <Gold.PLP.ligand.clash>
0.0000

> <Gold.PLP.ligand.torsion>
0.5838

> <Gold.PLP.Chemscore.Hbond>
1.9263

> <Gold.PLP.Chemscore.CHOScore>
0.0000

> <Gold.PLP.Chemscore.Metal>
0.0000

> <Gold.Chemscore.Hbonds>
donor molecule, donor type, donor heavy atom, donor atom, acceptor molecule, acceptor atom, score
      P1  H  7989  7998       L1     7  0.88
      P1  H  7997  8010       L1    19  1.00

> <Gold.PLP.Chemscore.Internal.Correction>
0.1167

> <Gold.Rescore>
     Score         DG    S(hbond)    S(metal)    S(lipo)     H(rot)  DE(clash)    DE(int)     intcor
     16.49     -17.15       1.64        0.00      99.41       2.13       0.06       0.60       ----

> <Gold.Chemscore.Fitness>
16.4871

> <Gold.Chemscore.DG>
-17.1503

> <Gold.Chemscore.ZeroCoef>
-5.4800

> <Gold.Chemscore.Hbond>
1.6442

> <Gold.Chemscore.Metal>
0.0000

> <Gold.Chemscore.Lipo>
99.4126

> <Gold.Chemscore.Internal_Hbond>
0.0000

> <Gold.Chemscore.DEClash>
0.0605

> <Gold.Chemscore.DEInternal>
0.6027

> <Gold.Chemscore.Rot>
2.1299

> <Gold.Chemscore.Internal.Correction>
   9.000000E+99

> <Gold.Chemscore.Hbonds>
donor molecule, donor type, donor heavy atom, donor atom, acceptor molecule, acceptor atom, score
      P1  H  7989  7998       L1     7  0.29
      P1  H  7997  8010       L1    19  0.88

> <Gold.Chemscore.Hbond.Weighted>
-5.4916

> <Gold.Chemscore.Metal.Weighted>
-0.0000

> <Gold.Chemscore.Lipo.Weighted>
-11.6313

> <Gold.Chemscore.Internal_Hbond.Weighted>
0.0000

> <Gold.Chemscore.DEClash.Weighted>
0.0605

> <Gold.Chemscore.DEInternal.Weighted>
0.6027

> <Gold.Chemscore.Rot.Weighted>
5.4526

> <Gold.Chemscore.Internal.Correction.Weighted>
   9.000000E+99

> <Gold.Protein.RotatedTorsions>
[ 6907 6896 6895 6894 ] final  -40.03 input  -60.11 | X-H torsion
[ 7974 7965 7964 7962 ] final  103.99 input  175.53 | X-H torsion
[ 8008 7997 7996 7995 ] final   22.24 input   59.86 | X-H torsion
[ 10167 10162 10161 10158 ] final  -21.93 input  -65.29 | X-H torsion
[ 10718 10713 10712 10709 ] final   58.33 input   66.30 | X-H torsion
[ 10763 10752 10751 10750 ] final   26.52 input  -60.55 | X-H torsion
[ 11005 11000 10999 10996 ] final   21.97 input  -57.11 | X-H torsion

> <Gold.Protein.ActiveResidues>
 VAL166  LYS551  ARG553  GLY616  TRP617  ASP618  TYR619  PRO620  LYS621  CYS622 
 ASP623  PHE694  ASN695  SER759  ASP760  ASP761  ALA762  ILE779  LEU786  VAL792 
 PHE793  MET794  SER795  GLU796  ALA797  LYS798  CYS799  TRP800  GLU811  SER814 

> <Gold.Protein.RotatedAtoms>
  150.9832  134.9183  159.7856 H   0  0  0  0  0  0  0  0  0  0  0  0  # atno 6907 bound_to 6896
  152.5228  134.3382  159.9217 H   0  0  0  0  0  0  0  0  0  0  0  0  # atno 6908 bound_to 6896
  151.3388  133.3929  159.2704 H   0  0  0  0  0  0  0  0  0  0  0  0  # atno 6909 bound_to 6896
  145.3387  139.2468  143.3621 H   0  0  0  0  0  0  0  0  0  0  0  0  # atno 7974 bound_to 7965
  154.9627  140.3080  155.5023 H   0  0  0  0  0  0  0  0  0  0  0  0  # atno 8008 bound_to 7997
  156.2975  140.2298  156.4652 H   0  0  0  0  0  0  0  0  0  0  0  0  # atno 8009 bound_to 7997
  154.7950  140.0437  157.1218 H   0  0  0  0  0  0  0  0  0  0  0  0  # atno 8010 bound_to 7997
  140.7284  143.4581  151.0418 H   0  0  0  0  0  0  0  0  0  0  0  0  # atno 10167 bound_to 10162
  157.5588  130.8820  149.9077 H   0  0  0  0  0  0  0  0  0  0  0  0  # atno 10718 bound_to 10713
  153.0617  135.6558  154.0448 H   0  0  0  0  0  0  0  0  0  0  0  0  # atno 10763 bound_to 10752
  154.0114  135.2928  155.3393 H   0  0  0  0  0  0  0  0  0  0  0  0  # atno 10764 bound_to 10752
  154.6958  135.5264  153.8524 H   0  0  0  0  0  0  0  0  0  0  0  0  # atno 10765 bound_to 10752
  140.3857  134.1873  155.7663 H   0  0  0  0  0  0  0  0  0  0  0  0  # atno 11005 bound_to 11000
  146.3016  140.3980  142.8702 LP  0  0  0  0  0  0  0  0  0  0  0  0  # atno 17320 bound_to 7965
  144.8807  140.7397  143.5988 LP  0  0  0  0  0  0  0  0  0  0  0  0  # atno 17321 bound_to 7965
  139.8264  143.7751  152.3178 LP  0  0  0  0  0  0  0  0  0  0  0  0  # atno 17342 bound_to 10162
  139.7851  144.7431  151.0034 LP  0  0  0  0  0  0  0  0  0  0  0  0  # atno 17343 bound_to 10162
  156.0643  130.3695  150.0913 LP  0  0  0  0  0  0  0  0  0  0  0  0  # atno 17370 bound_to 10713
  156.9079  130.9642  151.3567 LP  0  0  0  0  0  0  0  0  0  0  0  0  # atno 17371 bound_to 10713
  141.1908  133.8208  157.0903 LP  0  0  0  0  0  0  0  0  0  0  0  0  # atno 17394 bound_to 11000
  140.0445  134.9837  157.1023 LP  0  0  0  0  0  0  0  0  0  0  0  0  # atno 17395 bound_to 11000

$$$$
