#       Name:                AV-unprocessed.smi:2448
#       Creating user name   scv26
#       Creation time:       Fri Mar 27 13:29:50 2020


#       File generated by GOLD software.
#

@<TRIPOS>MOLECULE
AV-unprocessed.smi:2448
    41    42     1
SMALL
NO_CHARGES


@<TRIPOS>ATOM
      1 ****        -3.6536  -0.2209   0.9620 O.3            1 S1                 0.0000
      2 ****        -3.0338   0.9096   0.3742 C.3            1 S1                 0.0000
      3 ****        -1.5436   0.9029   0.7733 C.3            1 S1                 0.0000
      4 ****        -0.8162  -0.2039   0.1467 N.3            1 S1                 0.0000
      5 ****         0.6462  -0.2108   0.3021 C.3            1 S1                 0.0000
      6 ****         1.2052  -1.2682  -0.6801 C.3            1 S1                 0.0000
      7 ****         2.7189  -1.2844  -0.8095 C.ar           1 S1                 0.0000
      8 ****         3.4659  -2.4017  -0.3730 C.ar           1 S1                 0.0000
      9 ****         4.8693  -2.3870  -0.5067 C.ar           1 S1                 0.0000
     10 ****         5.4820  -1.3128  -1.0506 N.pl3          1 S1                 1.0000
     11 ****         4.8061  -0.2267  -1.4849 C.ar           1 S1                 0.0000
     12 ****         3.4008  -0.1848  -1.3768 C.ar           1 S1                 0.0000
     13 ****         1.0844  -0.4622   1.7730 C.3            1 S1                 0.0000
     14 ****         0.6807   0.5195   2.5769 F              1 S1                 0.0000
     15 ****         0.5806  -1.6152   2.2138 F              1 S1                 0.0000
     16 ****         2.4116  -0.5123   1.8760 F              1 S1                 0.0000
     17 ****        -3.7581   2.1571   0.9062 C.3            1 S1                 0.0000
     18 ****        -5.1230   2.2389   0.2149 C.3            1 S1                 0.0000
     19 ****        -4.9231   1.5966  -1.4655 S.3            1 S1                 0.0000
     20 ****        -3.2740   0.9135  -1.1467 C.3            1 S1                 0.0000
     21 ****        -3.2773  -0.9998   0.5821 H              1 S1                 0.0000
     22 ****        -1.0882   1.8489   0.4782 H              1 S1                 0.0000
     23 ****        -1.4787   0.8479   1.8588 H              1 S1                 0.0000
     24 ****        -1.1959  -1.0836   0.4820 H              1 S1                 0.0000
     25 ****         1.0305   0.7626  -0.0052 H              1 S1                 0.0000
     26 ****         0.8568  -2.2613  -0.3925 H              1 S1                 0.0000
     27 ****         0.8017  -1.0889  -1.6780 H              1 S1                 0.0000
     28 ****         2.9735  -3.2589   0.0631 H              1 S1                 0.0000
     29 ****         5.5150  -3.1958  -0.1972 H              1 S1                 0.0000
     30 ****         5.4051   0.5693  -1.9028 H              1 S1                 0.0000
     31 ****         2.8559   0.6811  -1.7241 H              1 S1                 0.0000
     32 ****        -3.8560   2.1494   1.9925 H              1 S1                 0.0000
     33 ****        -3.1826   3.0471   0.6479 H              1 S1                 0.0000
     34 ****        -5.8455   1.6096   0.7353 H              1 S1                 0.0000
     35 ****        -5.5171   3.2551   0.2022 H              1 S1                 0.0000
     36 ****        -2.5529   1.5699  -1.6351 H              1 S1                 0.0000
     37 ****        -3.1675  -0.0753  -1.5938 H              1 S1                 0.0000
     38 ****         6.4987  -1.3229  -1.1379 H              1 S1                 0.0000
     39 ****        -4.6370  -0.1986   0.7815 LP             1 S1                 0.0000
     40 ****        -3.4958  -0.2170   1.9494 LP             1 S1                 0.0000
     41 ****        -0.9570  -0.0723  -0.8346 LP             1 S1                 0.0000
@<TRIPOS>BOND
    1    1    2 1     
    2    1   21 1     
    3    2   20 1     
    4    2    3 1     
    5    2   17 1     
    6    3    4 1     
    7    3   22 1     
    8    3   23 1     
    9    4    5 1     
   10    4   24 1     
   11    5    6 1     
   12    5   13 1     
   13    5   25 1     
   14    6    7 1     
   15    6   26 1     
   16    6   27 1     
   17    7   12 ar    
   18    7    8 ar    
   19    8    9 ar    
   20    8   28 1     
   21    9   10 ar    
   22    9   29 1     
   23   10   11 ar    
   24   10   38 1     
   25   11   12 ar    
   26   11   30 1     
   27   12   31 1     
   28   13   14 1     
   29   13   15 1     
   30   13   16 1     
   31   17   18 1     
   32   17   32 1     
   33   17   33 1     
   34   18   19 1     
   35   18   34 1     
   36   18   35 1     
   37   19   20 1     
   38   20   36 1     
   39   20   37 1     
   40    1   39 1     
   41    1   40 1     
   42    4   41 1     
@<TRIPOS>SUBSTRUCTURE
      1 S1             1
@<TRIPOS>SET
LONE_PAIRS      STATIC     ATOMS    <user>   **** ""
3 39 40 41
DONOR_HYDROGENS      STATIC     ATOMS    <user>   **** ""
3 21 24 38
ATOM$BLUE        STATIC     ATOMS    COLORGROUP SYSTEM
3 39 40 41
ATOM$RED        STATIC     ATOMS    COLORGROUP SYSTEM
3 21 24 38
