AV-unprocessed.smi:104|AV-procd|sdf|1003|dock5
  -GOLD-   2262017593D 1   1.00000     0.00000
 Structure written by MMmdl.
 47 49  0  0  0  0  0  0  0  0  1 V2000
  147.4428  135.1863  162.4603 C   0  0  0  0  0  0  0  0  0  0  0  0
  147.6939  136.2924  161.4440 C   0  0  0  0  0  0  0  0  0  0  0  0
  147.7166  137.4758  161.7803 O   0  0  0  0  0  0  0  0  0  0  0  0
  147.8758  135.8144  160.2005 O   0  0  0  0  0  0  0  0  0  0  0  0
  148.7035  136.4993  159.2698 C   0  0  0  0  0  0  0  0  0  0  0  0
  147.8524  137.3184  158.2829 C   0  0  2  0  0  0  0  0  0  0  0  0
  146.5635  136.7526  158.1205 O   0  0  0  0  0  0  0  0  0  0  0  0
  145.9836  137.3547  157.0093 C   0  0  2  0  0  0  0  0  0  0  0  0
  145.0348  136.3850  156.3878 N   0  0  0  0  0  0  0  0  0  0  0  0
  144.5130  135.2201  156.9027 C   0  0  0  0  0  0  0  0  0  0  0  0
  144.9419  134.5923  158.6491 Br  0  0  0  0  0  0  0  0  0  0  0  0
  143.6878  134.5531  156.1449 N   0  0  0  0  0  0  0  0  0  0  0  0
  143.6300  135.3316  154.9951 C   0  0  0  0  0  0  0  0  0  0  0  0
  142.9340  135.2235  153.7648 C   0  0  0  0  0  0  0  0  0  0  0  0
  142.1075  134.2082  153.4788 N   0  0  0  0  0  0  0  0  0  0  0  0
  143.1097  136.1911  152.8343 N   0  0  0  0  0  0  0  0  0  0  0  0
  143.9279  137.2159  153.0945 C   0  0  0  0  0  0  0  0  0  0  0  0
  144.6459  137.4526  154.1954 N   0  0  0  0  0  0  0  0  0  0  0  0
  144.4675  136.4765  155.1334 C   0  0  0  0  0  0  0  0  0  0  0  0
  147.1152  137.7019  156.0284 C   0  0  1  0  0  0  0  0  0  0  0  0
  147.0509  139.0668  155.6382 O   0  0  0  0  0  0  0  0  0  0  0  0
  147.7467  139.4958  154.5707 C   0  0  0  0  0  0  0  0  0  0  0  0
  147.6751  141.0071  154.4002 C   0  0  0  0  0  0  0  0  0  0  0  0
  148.3777  138.7888  153.7846 O   0  0  0  0  0  0  0  0  0  0  0  0
  148.3794  137.4518  156.8484 C   0  0  2  0  0  0  0  0  0  0  0  0
  149.0095  136.2528  156.4121 O   0  0  0  0  0  0  0  0  0  0  0  0
  149.8465  136.2655  155.3606 C   0  0  0  0  0  0  0  0  0  0  0  0
  150.3414  134.8716  154.9996 C   0  0  0  0  0  0  0  0  0  0  0  0
  150.1987  137.2602  154.7266 O   0  0  0  0  0  0  0  0  0  0  0  0
  146.3773  134.9648  162.5193 H   0  0  0  0  0  0  0  0  0  0  0  0
  147.7880  135.4925  163.4478 H   0  0  0  0  0  0  0  0  0  0  0  0
  147.9717  134.2756  162.1783 H   0  0  0  0  0  0  0  0  0  0  0  0
  149.4690  137.1070  159.7538 H   0  0  0  0  0  0  0  0  0  0  0  0
  149.2398  135.7322  158.7110 H   0  0  0  0  0  0  0  0  0  0  0  0
  147.6980  138.3173  158.6960 H   0  0  0  0  0  0  0  0  0  0  0  0
  145.3875  138.2141  157.3162 H   0  0  0  0  0  0  0  0  0  0  0  0
  141.9587  133.4748  154.1570 H   0  0  0  0  0  0  0  0  0  0  0  0
  141.6328  134.1798  152.5881 H   0  0  0  0  0  0  0  0  0  0  0  0
  144.0210  137.9517  152.3095 H   0  0  0  0  0  0  0  0  0  0  0  0
  147.0838  137.0435  155.1583 H   0  0  0  0  0  0  0  0  0  0  0  0
  146.6620  141.3087  154.1340 H   0  0  0  0  0  0  0  0  0  0  0  0
  148.3518  141.3358  153.6113 H   0  0  0  0  0  0  0  0  0  0  0  0
  147.9554  141.5082  155.3268 H   0  0  0  0  0  0  0  0  0  0  0  0
  149.0862  138.2811  156.7832 H   0  0  0  0  0  0  0  0  0  0  0  0
  150.9473  134.4652  155.8095 H   0  0  0  0  0  0  0  0  0  0  0  0
  150.9485  134.9026  154.0946 H   0  0  0  0  0  0  0  0  0  0  0  0
  149.4977  134.2031  154.8275 H   0  0  0  0  0  0  0  0  0  0  0  0
  1  2  1  0  0  0  0
  1 30  1  0  0  0  0
  1 31  1  0  0  0  0
  1 32  1  0  0  0  0
  2  3  2  0  0  0  0
  2  4  1  0  0  0  0
  4  5  1  0  0  0  0
  5  6  1  0  0  0  0
  5 33  1  0  0  0  0
  5 34  1  0  0  0  0
  6 25  1  0  0  0  0
  6  7  1  0  0  0  0
  6 35  1  0  0  0  0
  7  8  1  0  0  0  0
  8  9  1  0  0  0  0
  8 20  1  0  0  0  0
  8 36  1  0  0  0  0
  9 19  1  0  0  0  0
  9 10  1  0  0  0  0
 10 11  1  0  0  0  0
 10 12  2  0  0  0  0
 12 13  1  0  0  0  0
 13 19  2  0  0  0  0
 13 14  1  0  0  0  0
 14 15  1  0  0  0  0
 14 16  2  0  0  0  0
 15 37  1  0  0  0  0
 15 38  1  0  0  0  0
 16 17  1  0  0  0  0
 17 18  2  0  0  0  0
 17 39  1  0  0  0  0
 18 19  1  0  0  0  0
 20 21  1  0  0  0  0
 20 25  1  0  0  0  0
 20 40  1  0  0  0  0
 21 22  1  0  0  0  0
 22 23  1  0  0  0  0
 22 24  2  0  0  0  0
 23 41  1  0  0  0  0
 23 42  1  0  0  0  0
 23 43  1  0  0  0  0
 25 26  1  0  0  0  0
 25 44  1  0  0  0  0
 26 27  1  0  0  0  0
 27 28  1  0  0  0  0
 27 29  2  0  0  0  0
 28 45  1  0  0  0  0
 28 46  1  0  0  0  0
 28 47  1  0  0  0  0
M  END
> <s_m_source_file>
AV-unprocessed.smi

> <i_m_source_file_index>
104

> <i_lp_mmshare_version>
43012

> <i_f3d_flags>
0

> <s_epik_input>
W0NIM11DKD1PKU9bQ0gyXVtDQEBIXTFPW0NASF0oW0NAQEhdKE9DKD1PKVtDSDNdKVtDQEhdMU9DKD1PKVtDSDNdKW4oYyhCciluMiljKGMyMyluW2NIXW5jM1tOSDJd

> <s_epik_cmdline>
J2VwaWtfcHl0aG9uJywgJy1waCcsICc3LjAnLCAnLXRuJywgJzgnLCAnLW1hJywgJzIwMCcsICctbWV0YWxfYmluZGluZycsICctaW1hZScsICc8aW5maWxlLm1hZT4nLCAnLW9tYWUnLCAnPG91dGZpbGUubWFlPic=

> <r_lp_tautomer_probability>
1

> <r_epik_Ionization_Penalty>
7.36622e-05

> <r_epik_Ionization_Penalty_Charging>
0

> <r_epik_Ionization_Penalty_Neutral>
7.36622e-05

> <r_epik_State_Penalty>
-0

> <r_epik_Charging_Adjusted_Penalty>
0

> <i_epik_Tot_Q>
0

> <i_epik_Tot_abs_Q>
0

> <r_epik_Metal_State_Penalty>
-0

> <b_epik_Metal_Only>
0

> <s_epik_Chemistry_Notes>
This compound has an ester and may undergo hydrolysis at high or low pH. This compound contains an acetal/aminal-like group ( X-CH(R)-Y where X, Y are N, S, or O) that may be acid/base labile, releasing an aldehyde.

> <s_lp_Force_Field>
OPLS_2005

> <r_lp_Energy>
15.0278

> <b_lp_Chiralities_Consistent>
1

> <s_lp_Variant>
AV-unprocessed.smi:104-11

> <Gold.Version>
5.8.1

> <Gold.Id.Protein>
6NUR|6NUR_protein|mol2

> <Gold.PLP.Fitness>
35.6695

> <Gold.PLP.PLP>
-25.5187

> <Gold.PLP.part.hbond>
-3.2446

> <Gold.PLP.part.metal>
0.0000

> <Gold.PLP.part.buried>
-6.3603

> <Gold.PLP.part.nonpolar>
-16.4459

> <Gold.PLP.part.repulsive>
1.1108

> <Gold.PLP.ligand.clash>
0.0000

> <Gold.PLP.ligand.torsion>
1.8374

> <Gold.PLP.Chemscore.Hbond>
2.5920

> <Gold.PLP.Chemscore.CHOScore>
1.9736

> <Gold.PLP.Chemscore.Metal>
0.0000

> <Gold.Chemscore.Hbonds>
donor molecule, donor type, donor heavy atom, donor atom, acceptor molecule, acceptor atom, score
      L1  H    15    37       P1 10957  0.88
      P1  H  6931  6943       L1     3  0.87
      P1  H  6934  6947       L1     3  0.61
      L1  C    17    39       P1 10171  0.90
      L1  C    17    39       P1 10175  0.97

> <Gold.PLP.Chemscore.Internal.Correction>
0.1288

> <Gold.Rescore>
     Score         DG    S(hbond)    S(metal)    S(lipo)     H(rot)  DE(clash)    DE(int)     intcor
      2.38      -5.90       2.38        0.00      29.99       4.31       0.13       3.39       ----

> <Gold.Chemscore.Fitness>
2.3806

> <Gold.Chemscore.DG>
-5.8961

> <Gold.Chemscore.ZeroCoef>
-5.4800

> <Gold.Chemscore.Hbond>
2.3751

> <Gold.Chemscore.Metal>
0.0000

> <Gold.Chemscore.Lipo>
29.9918

> <Gold.Chemscore.Internal_Hbond>
0.0000

> <Gold.Chemscore.DEClash>
0.1298

> <Gold.Chemscore.DEInternal>
3.3856

> <Gold.Chemscore.Rot>
4.3070

> <Gold.Chemscore.Internal.Correction>
   9.000000E+99

> <Gold.Chemscore.Hbonds>
donor molecule, donor type, donor heavy atom, donor atom, acceptor molecule, acceptor atom, score
      L1  H    15    37       P1 10957  0.86
      P1  H  6931  6943       L1     3  0.79
      P1  H  6934  6947       L1     3  0.60

> <Gold.Chemscore.Hbond.Weighted>
-7.9329

> <Gold.Chemscore.Metal.Weighted>
-0.0000

> <Gold.Chemscore.Lipo.Weighted>
-3.5090

> <Gold.Chemscore.Internal_Hbond.Weighted>
0.0000

> <Gold.Chemscore.DEClash.Weighted>
0.1298

> <Gold.Chemscore.DEInternal.Weighted>
3.3856

> <Gold.Chemscore.Rot.Weighted>
11.0259

> <Gold.Chemscore.Internal.Correction.Weighted>
   9.000000E+99

> <Gold.Protein.RotatedTorsions>
[ 6907 6896 6895 6894 ] final   69.14 input  -60.11 | X-H torsion
[ 7974 7965 7964 7962 ] final -174.19 input  175.53 | X-H torsion
[ 8008 7997 7996 7995 ] final -147.20 input   59.86 | X-H torsion
[ 10167 10162 10161 10158 ] final   78.66 input  -65.29 | X-H torsion
[ 10718 10713 10712 10709 ] final -135.67 input   66.30 | X-H torsion
[ 10763 10752 10751 10750 ] final   51.61 input  -60.55 | X-H torsion
[ 11005 11000 10999 10996 ] final   66.96 input  -57.11 | X-H torsion

> <Gold.Protein.ActiveResidues>
 VAL166  LYS551  ARG553  GLY616  TRP617  ASP618  TYR619  PRO620  LYS621  CYS622 
 ASP623  PHE694  ASN695  SER759  ASP760  ASP761  ALA762  ILE779  LEU786  VAL792 
 PHE793  MET794  SER795  GLU796  ALA797  LYS798  CYS799  TRP800  GLU811  SER814 

> <Gold.Protein.RotatedAtoms>
  152.4667  134.5059  159.9738 H   0  0  0  0  0  0  0  0  0  0  0  0  # atno 6907 bound_to 6896
  151.5095  133.3482  159.2890 H   0  0  0  0  0  0  0  0  0  0  0  0  # atno 6908 bound_to 6896
  150.8655  134.8045  159.7177 H   0  0  0  0  0  0  0  0  0  0  0  0  # atno 6909 bound_to 6896
  144.7133  140.1509  143.6384 H   0  0  0  0  0  0  0  0  0  0  0  0  # atno 7974 bound_to 7965
  155.5716  140.0635  157.2805 H   0  0  0  0  0  0  0  0  0  0  0  0  # atno 8008 bound_to 7997
  154.4359  140.1868  156.0931 H   0  0  0  0  0  0  0  0  0  0  0  0  # atno 8009 bound_to 7997
  156.0372  140.3300  155.7207 H   0  0  0  0  0  0  0  0  0  0  0  0  # atno 8010 bound_to 7997
  139.9686  144.5910  150.8006 H   0  0  0  0  0  0  0  0  0  0  0  0  # atno 10167 bound_to 10162
  156.2687  130.7253  151.1212 H   0  0  0  0  0  0  0  0  0  0  0  0  # atno 10718 bound_to 10713
  152.9786  135.5840  154.4444 H   0  0  0  0  0  0  0  0  0  0  0  0  # atno 10763 bound_to 10752
  154.4041  135.2769  155.2080 H   0  0  0  0  0  0  0  0  0  0  0  0  # atno 10764 bound_to 10752
  154.3898  135.6128  153.5891 H   0  0  0  0  0  0  0  0  0  0  0  0  # atno 10765 bound_to 10752
  139.9799  134.6760  156.0281 H   0  0  0  0  0  0  0  0  0  0  0  0  # atno 11005 bound_to 11000
  145.9117  139.2491  143.1433 LP  0  0  0  0  0  0  0  0  0  0  0  0  # atno 17320 bound_to 7965
  145.9709  140.8761  143.0163 LP  0  0  0  0  0  0  0  0  0  0  0  0  # atno 17321 bound_to 7965
  140.7529  143.2999  151.3106 LP  0  0  0  0  0  0  0  0  0  0  0  0  # atno 17342 bound_to 10162
  139.6499  144.0382  152.2618 LP  0  0  0  0  0  0  0  0  0  0  0  0  # atno 17343 bound_to 10162
  157.7276  131.0638  150.5856 LP  0  0  0  0  0  0  0  0  0  0  0  0  # atno 17370 bound_to 10713
  156.5951  130.4339  149.5920 LP  0  0  0  0  0  0  0  0  0  0  0  0  # atno 17371 bound_to 10713
  141.1473  133.6554  156.3905 LP  0  0  0  0  0  0  0  0  0  0  0  0  # atno 17394 bound_to 11000
  140.5117  134.6389  157.5286 LP  0  0  0  0  0  0  0  0  0  0  0  0  # atno 17395 bound_to 11000

$$$$
