AV-unprocessed.smi:671|AV-procd|sdf|3287|dock4
  -GOLD-   22720 0243D 1   1.00000     0.00000
 Structure written by MMmdl.
 50 51  0  0  0  0  0  0  0  0  2 V2000
  147.5356  141.6986  154.0448 C   0  0  0  0  0  0  0  0  0  0  0  0
  148.8021  141.3905  154.7708 C   0  0  0  0  0  0  0  0  0  0  0  0
  149.4445  142.2546  155.6012 N   0  3  0  0  0  0  0  0  0  0  0  0
  150.5490  141.6817  156.1004 N   0  0  0  0  0  0  0  0  0  0  0  0
  151.3903  142.4455  157.0221 C   0  0  0  0  0  0  0  0  0  0  0  0
  150.6848  140.4148  155.6150 C   0  0  0  0  0  0  0  0  0  0  0  0
  151.8081  139.4951  155.9694 C   0  0  0  0  0  0  0  0  0  0  0  0
  149.5780  140.2260  154.7758 C   0  0  0  0  0  0  0  0  0  0  0  0
  149.2522  138.9852  153.9933 C   0  0  0  0  0  0  0  0  0  0  0  0
  147.8587  138.4090  154.3272 C   0  0  2  0  0  0  0  0  0  0  0  0
  147.8151  137.7297  155.7047 C   0  0  0  0  0  0  0  0  0  0  0  0
  147.4596  137.4361  153.3076 N   0  0  0  0  0  0  0  0  0  0  0  0
  146.2173  137.1370  152.8844 C   0  0  0  0  0  0  0  0  0  0  0  0
  145.2238  137.6939  153.3465 O   0  0  0  0  0  0  0  0  0  0  0  0
  146.1631  136.1938  151.9286 N   0  0  0  0  0  0  0  0  0  0  0  0
  144.9453  135.6732  151.3151 C   0  0  1  0  0  0  0  0  0  0  0  0
  145.2936  134.6912  150.1797 C   0  0  0  0  0  0  0  0  0  0  0  0
  144.8318  133.3106  150.6482 C   0  0  0  0  0  0  0  0  0  0  0  0
  143.6715  133.6046  151.5927 C   0  0  0  0  0  0  0  0  0  0  0  0
  144.1032  134.8732  152.3342 C   0  0  2  0  0  0  0  0  0  0  0  0
  142.9274  135.6636  152.9253 C   0  0  0  0  0  0  0  0  0  0  0  0
  146.7498  141.0069  154.3489 H   0  0  0  0  0  0  0  0  0  0  0  0
  147.6853  141.6017  152.9692 H   0  0  0  0  0  0  0  0  0  0  0  0
  147.2044  142.7152  154.2592 H   0  0  0  0  0  0  0  0  0  0  0  0
  151.7785  141.7786  157.7924 H   0  0  0  0  0  0  0  0  0  0  0  0
  150.8060  143.2367  157.4939 H   0  0  0  0  0  0  0  0  0  0  0  0
  152.2199  142.8832  156.4663 H   0  0  0  0  0  0  0  0  0  0  0  0
  151.8235  138.6232  155.3166 H   0  0  0  0  0  0  0  0  0  0  0  0
  151.6999  139.1532  156.9988 H   0  0  0  0  0  0  0  0  0  0  0  0
  152.7633  140.0116  155.8732 H   0  0  0  0  0  0  0  0  0  0  0  0
  149.3038  139.2219  152.9301 H   0  0  0  0  0  0  0  0  0  0  0  0
  150.0134  138.2197  154.1442 H   0  0  0  0  0  0  0  0  0  0  0  0
  147.1287  139.2201  154.3448 H   0  0  0  0  0  0  0  0  0  0  0  0
  148.0301  138.4378  156.5047 H   0  0  0  0  0  0  0  0  0  0  0  0
  148.5413  136.9189  155.7723 H   0  0  0  0  0  0  0  0  0  0  0  0
  146.8285  137.3093  155.9027 H   0  0  0  0  0  0  0  0  0  0  0  0
  148.2159  136.9480  152.8494 H   0  0  0  0  0  0  0  0  0  0  0  0
  147.0346  135.7990  151.6074 H   0  0  0  0  0  0  0  0  0  0  0  0
  144.3592  136.4903  150.8893 H   0  0  0  0  0  0  0  0  0  0  0  0
  144.7392  134.9708  149.2828 H   0  0  0  0  0  0  0  0  0  0  0  0
  146.3514  134.6943  149.9126 H   0  0  0  0  0  0  0  0  0  0  0  0
  144.5466  132.6608  149.8204 H   0  0  0  0  0  0  0  0  0  0  0  0
  145.6351  132.8178  151.1963 H   0  0  0  0  0  0  0  0  0  0  0  0
  142.7692  133.7967  151.0101 H   0  0  0  0  0  0  0  0  0  0  0  0
  143.4610  132.7751  152.2684 H   0  0  0  0  0  0  0  0  0  0  0  0
  144.7493  134.5577  153.1560 H   0  0  0  0  0  0  0  0  0  0  0  0
  142.2408  135.9963  152.1462 H   0  0  0  0  0  0  0  0  0  0  0  0
  143.2791  136.5471  153.4586 H   0  0  0  0  0  0  0  0  0  0  0  0
  142.3617  135.0545  153.6303 H   0  0  0  0  0  0  0  0  0  0  0  0
  149.1865  143.2008  155.8519 H   0  0  0  0  0  0  0  0  0  0  0  0
  1  2  1  0  0  0  0
  1 22  1  0  0  0  0
  1 23  1  0  0  0  0
  1 24  1  0  0  0  0
  2  8  1  0  0  0  0
  2  3  2  0  0  0  0
  3  4  1  0  0  0  0
  3 50  1  0  0  0  0
  4  5  1  0  0  0  0
  4  6  1  0  0  0  0
  5 25  1  0  0  0  0
  5 26  1  0  0  0  0
  5 27  1  0  0  0  0
  6  7  1  0  0  0  0
  6  8  2  0  0  0  0
  7 28  1  0  0  0  0
  7 29  1  0  0  0  0
  7 30  1  0  0  0  0
  8  9  1  0  0  0  0
  9 10  1  0  0  0  0
  9 31  1  0  0  0  0
  9 32  1  0  0  0  0
 10 11  1  0  0  0  0
 10 12  1  0  0  0  0
 10 33  1  0  0  0  0
 11 34  1  0  0  0  0
 11 35  1  0  0  0  0
 11 36  1  0  0  0  0
 12 13  1  0  0  0  0
 12 37  1  0  0  0  0
 13 14  2  0  0  0  0
 13 15  1  0  0  0  0
 15 16  1  0  0  0  0
 15 38  1  0  0  0  0
 16 20  1  0  0  0  0
 16 17  1  0  0  0  0
 16 39  1  0  0  0  0
 17 18  1  0  0  0  0
 17 40  1  0  0  0  0
 17 41  1  0  0  0  0
 18 19  1  0  0  0  0
 18 42  1  0  0  0  0
 18 43  1  0  0  0  0
 19 20  1  0  0  0  0
 19 44  1  0  0  0  0
 19 45  1  0  0  0  0
 20 21  1  0  0  0  0
 20 46  1  0  0  0  0
 21 47  1  0  0  0  0
 21 48  1  0  0  0  0
 21 49  1  0  0  0  0
M  CHG  1   3   1
M  END
> <s_m_source_file>
AV-unprocessed.smi

> <i_m_source_file_index>
671

> <i_lp_mmshare_version>
43012

> <i_f3d_flags>
0

> <s_epik_input>
W0NIM11jMW5uKFtDSDNdKWMoW0NIM10pYzFbQ0gyXVtDQEhdKFtDSDNdKVtOSF1DKD1PKVtOSF1bQ0BASF0yW0NIMl1bQ0gyXVtDSDJdW0NASF0yW0NIM10=

> <s_epik_cmdline>
J2VwaWtfcHl0aG9uJywgJy1waCcsICc3LjAnLCAnLXRuJywgJzgnLCAnLW1hJywgJzIwMCcsICctbWV0YWxfYmluZGluZycsICctaW1hZScsICc8aW5maWxlLm1hZT4nLCAnLW9tYWUnLCAnPG91dGZpbGUubWFlPic=

> <r_lp_tautomer_probability>
1

> <r_epik_Ionization_Penalty>
2.28705

> <r_epik_Ionization_Penalty_Charging>
2.28698

> <r_epik_Ionization_Penalty_Neutral>
6.23157e-05

> <r_epik_State_Penalty>
2.43671

> <r_epik_Charging_Adjusted_Penalty>
4.72369

> <i_epik_Tot_Q>
1

> <i_epik_Tot_abs_Q>
1

> <r_epik_Metal_State_Penalty>
2.44911

> <b_epik_Metal_Only>
0

> <s_lp_Force_Field>
OPLS_2005

> <r_lp_Energy>
34.681

> <b_lp_Chiralities_Consistent>
1

> <s_lp_Variant>
AV-unprocessed.smi:671-15

> <Gold.Version>
5.8.1

> <Gold.Id.Protein>
6NUR|6NUR_protein|mol2

> <Gold.PLP.Fitness>
47.3487

> <Gold.PLP.PLP>
-37.1031

> <Gold.PLP.part.hbond>
-2.9034

> <Gold.PLP.part.metal>
0.0000

> <Gold.PLP.part.buried>
-3.9469

> <Gold.PLP.part.nonpolar>
-31.0135

> <Gold.PLP.part.repulsive>
0.3914

> <Gold.PLP.ligand.clash>
0.0000

> <Gold.PLP.ligand.torsion>
0.5089

> <Gold.PLP.Chemscore.Hbond>
3.7505

> <Gold.PLP.Chemscore.CHOScore>
0.0000

> <Gold.PLP.Chemscore.Metal>
0.0000

> <Gold.Chemscore.Hbonds>
donor molecule, donor type, donor heavy atom, donor atom, acceptor molecule, acceptor atom, score
      L1  H     3    50       P1  8028  2.00
      L1  H    12    37       P1  7948  0.73
      L1  H    15    38       P1  7948  0.74

> <Gold.PLP.Chemscore.Internal.Correction>
0.0119

> <Gold.Rescore>
     Score         DG    S(hbond)    S(metal)    S(lipo)     H(rot)  DE(clash)    DE(int)     intcor
     18.62     -20.70       2.70        0.00      85.96       1.51       1.49       0.59       ----

> <Gold.Chemscore.Fitness>
18.6192

> <Gold.Chemscore.DG>
-20.6956

> <Gold.Chemscore.ZeroCoef>
-5.4800

> <Gold.Chemscore.Hbond>
2.6985

> <Gold.Chemscore.Metal>
0.0000

> <Gold.Chemscore.Lipo>
85.9593

> <Gold.Chemscore.Internal_Hbond>
0.0000

> <Gold.Chemscore.DEClash>
1.4879

> <Gold.Chemscore.DEInternal>
0.5886

> <Gold.Chemscore.Rot>
1.5057

> <Gold.Chemscore.Internal.Correction>
   9.000000E+99

> <Gold.Chemscore.Hbonds>
donor molecule, donor type, donor heavy atom, donor atom, acceptor molecule, acceptor atom, score
      L1  H     3    50       P1  8028  0.95
      L1  H    12    37       P1  7948  0.73
      L1  H    15    38       P1  7948  0.73

> <Gold.Chemscore.Hbond.Weighted>
-9.0130

> <Gold.Chemscore.Metal.Weighted>
-0.0000

> <Gold.Chemscore.Lipo.Weighted>
-10.0572

> <Gold.Chemscore.Internal_Hbond.Weighted>
0.0000

> <Gold.Chemscore.DEClash.Weighted>
1.4879

> <Gold.Chemscore.DEInternal.Weighted>
0.5886

> <Gold.Chemscore.Rot.Weighted>
3.8547

> <Gold.Chemscore.Internal.Correction.Weighted>
   9.000000E+99

> <Gold.Protein.RotatedTorsions>
[ 6907 6896 6895 6894 ] final   95.62 input  -60.11 | X-H torsion
[ 7974 7965 7964 7962 ] final  109.19 input  175.53 | X-H torsion
[ 8008 7997 7996 7995 ] final  -14.70 input   59.86 | X-H torsion
[ 10167 10162 10161 10158 ] final  159.05 input  -65.29 | X-H torsion
[ 10718 10713 10712 10709 ] final -158.56 input   66.30 | X-H torsion
[ 10763 10752 10751 10750 ] final   56.73 input  -60.55 | X-H torsion
[ 11005 11000 10999 10996 ] final   72.34 input  -57.11 | X-H torsion

> <Gold.Protein.ActiveResidues>
 VAL166  LYS551  ARG553  GLY616  TRP617  ASP618  TYR619  PRO620  LYS621  CYS622 
 ASP623  PHE694  ASN695  SER759  ASP760  ASP761  ALA762  ILE779  LEU786  VAL792 
 PHE793  MET794  SER795  GLU796  ALA797  LYS798  CYS799  TRP800  GLU811  SER814 

> <Gold.Protein.RotatedAtoms>
  152.5442  134.1011  159.8317 H   0  0  0  0  0  0  0  0  0  0  0  0  # atno 6907 bound_to 6896
  151.1089  133.5180  159.2614 H   0  0  0  0  0  0  0  0  0  0  0  0  # atno 6908 bound_to 6896
  151.1907  135.0410  159.8886 H   0  0  0  0  0  0  0  0  0  0  0  0  # atno 6909 bound_to 6896
  145.2710  139.2667  143.3966 H   0  0  0  0  0  0  0  0  0  0  0  0  # atno 7974 bound_to 7965
  154.5189  140.2216  155.9014 H   0  0  0  0  0  0  0  0  0  0  0  0  # atno 8008 bound_to 7997
  156.1639  140.3136  155.8820 H   0  0  0  0  0  0  0  0  0  0  0  0  # atno 8009 bound_to 7997
  155.3696  140.0466  157.3036 H   0  0  0  0  0  0  0  0  0  0  0  0  # atno 8010 bound_to 7997
  139.4830  144.4767  151.8502 H   0  0  0  0  0  0  0  0  0  0  0  0  # atno 10167 bound_to 10162
  156.5559  130.8626  151.2794 H   0  0  0  0  0  0  0  0  0  0  0  0  # atno 10718 bound_to 10713
  152.9837  135.5666  154.5277 H   0  0  0  0  0  0  0  0  0  0  0  0  # atno 10763 bound_to 10752
  154.4754  135.2786  155.1613 H   0  0  0  0  0  0  0  0  0  0  0  0  # atno 10764 bound_to 10752
  154.3144  135.6282  153.5533 H   0  0  0  0  0  0  0  0  0  0  0  0  # atno 10765 bound_to 10752
  139.9496  134.7251  156.0895 H   0  0  0  0  0  0  0  0  0  0  0  0  # atno 11005 bound_to 11000
  146.3246  140.3152  142.8629 LP  0  0  0  0  0  0  0  0  0  0  0  0  # atno 17320 bound_to 7965
  144.9335  140.8001  143.5674 LP  0  0  0  0  0  0  0  0  0  0  0  0  # atno 17321 bound_to 7965
  140.4239  144.2206  150.5887 LP  0  0  0  0  0  0  0  0  0  0  0  0  # atno 17342 bound_to 10162
  140.4846  143.2367  151.8906 LP  0  0  0  0  0  0  0  0  0  0  0  0  # atno 17343 bound_to 10162
  157.7378  130.9802  150.2216 LP  0  0  0  0  0  0  0  0  0  0  0  0  # atno 17370 bound_to 10713
  156.2842  130.3737  149.7905 LP  0  0  0  0  0  0  0  0  0  0  0  0  # atno 17371 bound_to 10713
  141.1156  133.6629  156.3085 LP  0  0  0  0  0  0  0  0  0  0  0  0  # atno 17394 bound_to 11000
  140.5751  134.5802  157.5466 LP  0  0  0  0  0  0  0  0  0  0  0  0  # atno 17395 bound_to 11000

$$$$
