AV-unprocessed.smi:1958|AV-procd|sdf|7906|dock9
  -GOLD-   2272010 63D 1   1.00000     0.00000
 Structure written by MMmdl.
 47 48  0  0  0  0  0  0  0  0  1 V2000
  150.2662  138.9214  154.5113 C   0  0  0  0  0  0  0  0  0  0  0  0
  150.7894  140.1687  154.9326 O   0  0  0  0  0  0  0  0  0  0  0  0
  151.6801  140.0423  156.0293 C   0  0  0  0  0  0  0  0  0  0  0  0
  151.0717  140.7270  157.2642 C   0  0  0  0  0  0  0  0  0  0  0  0
  151.9880  140.6989  158.4099 N   0  0  0  0  0  0  0  0  0  0  0  0
  152.2559  139.4264  158.8853 N   0  0  0  0  0  0  0  0  0  0  0  0
  153.0349  139.2632  159.9056 C   0  0  0  0  0  0  0  0  0  0  0  0
  153.3430  137.9120  160.4498 C   0  0  0  0  0  0  0  0  0  0  0  0
  152.6422  136.9314  160.1935 O   0  0  0  0  0  0  0  0  0  0  0  0
  154.4285  137.8489  161.2412 N   0  0  0  0  0  0  0  0  0  0  0  0
  154.9197  136.6608  161.9353 C   0  0  0  0  0  0  0  0  0  0  0  0
  154.0136  136.2563  163.1283 C   0  0  2  0  0  0  0  0  0  0  0  0
  154.0423  137.3935  164.1743 C   0  0  0  0  0  0  0  0  0  0  0  0
  154.3256  134.9257  163.6948 N   0  0  0  0  0  0  0  0  0  0  0  0
  154.1354  133.8433  162.7246 C   0  0  0  0  0  0  0  0  0  0  0  0
  154.4509  132.4588  163.3161 C   0  0  0  0  0  0  0  0  0  0  0  0
  153.6446  132.2356  164.4653 O   0  0  0  0  0  0  0  0  0  0  0  0
  153.8444  133.2276  165.4639 C   0  0  0  0  0  0  0  0  0  0  0  0
  153.5281  134.6177  164.8853 C   0  0  0  0  0  0  0  0  0  0  0  0
  153.6459  140.4049  160.5648 C   0  0  0  0  0  0  0  0  0  0  0  0
  153.3754  141.6405  160.0895 C   0  0  0  0  0  0  0  0  0  0  0  0
  152.4925  141.8531  158.9416 C   0  0  0  0  0  0  0  0  0  0  0  0
  152.2237  142.9686  158.4968 O   0  0  0  0  0  0  0  0  0  0  0  0
  149.5872  139.0736  153.6722 H   0  0  0  0  0  0  0  0  0  0  0  0
  149.7070  138.4372  155.3129 H   0  0  0  0  0  0  0  0  0  0  0  0
  151.0612  138.2504  154.1835 H   0  0  0  0  0  0  0  0  0  0  0  0
  151.8440  138.9854  156.2433 H   0  0  0  0  0  0  0  0  0  0  0  0
  152.6510  140.4766  155.7860 H   0  0  0  0  0  0  0  0  0  0  0  0
  150.8025  141.7555  157.0171 H   0  0  0  0  0  0  0  0  0  0  0  0
  150.1312  140.2399  157.5282 H   0  0  0  0  0  0  0  0  0  0  0  0
  154.9407  138.7050  161.3985 H   0  0  0  0  0  0  0  0  0  0  0  0
  155.0314  135.8255  161.2422 H   0  0  0  0  0  0  0  0  0  0  0  0
  155.9336  136.8675  162.2766 H   0  0  0  0  0  0  0  0  0  0  0  0
  152.9942  136.2248  162.7402 H   0  0  0  0  0  0  0  0  0  0  0  0
  153.9277  138.3690  163.7013 H   0  0  0  0  0  0  0  0  0  0  0  0
  154.9814  137.4050  164.7283 H   0  0  0  0  0  0  0  0  0  0  0  0
  153.2284  137.3081  164.8935 H   0  0  0  0  0  0  0  0  0  0  0  0
  153.1086  133.8533  162.3559 H   0  0  0  0  0  0  0  0  0  0  0  0
  154.7819  133.9851  161.8602 H   0  0  0  0  0  0  0  0  0  0  0  0
  154.2481  131.6784  162.5824 H   0  0  0  0  0  0  0  0  0  0  0  0
  155.5066  132.3831  163.5810 H   0  0  0  0  0  0  0  0  0  0  0  0
  153.1945  133.0143  166.3127 H   0  0  0  0  0  0  0  0  0  0  0  0
  154.8720  133.1859  165.8284 H   0  0  0  0  0  0  0  0  0  0  0  0
  153.7161  135.3486  165.6704 H   0  0  0  0  0  0  0  0  0  0  0  0
  152.4656  134.6778  164.6449 H   0  0  0  0  0  0  0  0  0  0  0  0
  154.3014  140.2779  161.4141 H   0  0  0  0  0  0  0  0  0  0  0  0
  153.8224  142.4984  160.5703 H   0  0  0  0  0  0  0  0  0  0  0  0
  1  2  1  0  0  0  0
  1 24  1  0  0  0  0
  1 25  1  0  0  0  0
  1 26  1  0  0  0  0
  2  3  1  0  0  0  0
  3  4  1  0  0  0  0
  3 27  1  0  0  0  0
  3 28  1  0  0  0  0
  4  5  1  0  0  0  0
  4 29  1  0  0  0  0
  4 30  1  0  0  0  0
  5 22  1  0  0  0  0
  5  6  1  0  0  0  0
  6  7  2  0  0  0  0
  7  8  1  0  0  0  0
  7 20  1  0  0  0  0
  8  9  2  0  0  0  0
  8 10  1  0  0  0  0
 10 11  1  0  0  0  0
 10 31  1  0  0  0  0
 11 12  1  0  0  0  0
 11 32  1  0  0  0  0
 11 33  1  0  0  0  0
 12 13  1  0  0  0  0
 12 14  1  0  0  0  0
 12 34  1  0  0  0  0
 13 35  1  0  0  0  0
 13 36  1  0  0  0  0
 13 37  1  0  0  0  0
 14 19  1  0  0  0  0
 14 15  1  0  0  0  0
 15 16  1  0  0  0  0
 15 38  1  0  0  0  0
 15 39  1  0  0  0  0
 16 17  1  0  0  0  0
 16 40  1  0  0  0  0
 16 41  1  0  0  0  0
 17 18  1  0  0  0  0
 18 19  1  0  0  0  0
 18 42  1  0  0  0  0
 18 43  1  0  0  0  0
 19 44  1  0  0  0  0
 19 45  1  0  0  0  0
 20 21  2  0  0  0  0
 20 46  1  0  0  0  0
 21 22  1  0  0  0  0
 21 47  1  0  0  0  0
 22 23  2  0  0  0  0
M  END
> <s_m_source_file>
AV-unprocessed.smi

> <i_m_source_file_index>
1958

> <i_lp_mmshare_version>
43012

> <i_f3d_flags>
0

> <s_epik_input>
W0NIM11PW0NIMl1bQ0gyXW4xbmMoW2NIXVtjSF1jMT1PKUMoPU8pW05IXVtDSDJdW0NASF0oW0NIM10pTjJbQ0gyXVtDSDJdT1tDSDJdW0NIMl0y

> <s_epik_cmdline>
J2VwaWtfcHl0aG9uJywgJy1waCcsICc3LjAnLCAnLXRuJywgJzgnLCAnLW1hJywgJzIwMCcsICctbWV0YWxfYmluZGluZycsICctaW1hZScsICc8aW5maWxlLm1hZT4nLCAnLW9tYWUnLCAnPG91dGZpbGUubWFlPic=

> <r_lp_tautomer_probability>
1

> <r_epik_Ionization_Penalty>
0.206669

> <r_epik_Ionization_Penalty_Charging>
5.75808e-09

> <r_epik_Ionization_Penalty_Neutral>
0.206669

> <r_epik_State_Penalty>
0.196651

> <r_epik_Charging_Adjusted_Penalty>
0.196651

> <i_epik_Tot_Q>
0

> <i_epik_Tot_abs_Q>
0

> <r_epik_Metal_State_Penalty>
0.198415

> <b_epik_Metal_Only>
0

> <s_lp_Force_Field>
OPLS_2005

> <r_lp_Energy>
53.7992

> <b_lp_Chiralities_Consistent>
1

> <s_lp_Variant>
AV-unprocessed.smi:1958-1

> <Gold.Version>
5.8.1

> <Gold.Id.Protein>
6NUR|6NUR_protein|mol2

> <Gold.PLP.Fitness>
46.3512

> <Gold.PLP.PLP>
-41.6442

> <Gold.PLP.part.hbond>
-1.9415

> <Gold.PLP.part.metal>
0.0000

> <Gold.PLP.part.buried>
-6.8851

> <Gold.PLP.part.nonpolar>
-33.1573

> <Gold.PLP.part.repulsive>
0.1023

> <Gold.PLP.ligand.clash>
0.0000

> <Gold.PLP.ligand.torsion>
0.6737

> <Gold.PLP.Chemscore.Hbond>
1.9750

> <Gold.PLP.Chemscore.CHOScore>
0.0000

> <Gold.PLP.Chemscore.Metal>
0.0000

> <Gold.Chemscore.Hbonds>
donor molecule, donor type, donor heavy atom, donor atom, acceptor molecule, acceptor atom, score
      P1  H  6896  6909       L1     9  1.00
      P1  H  7989  7998       L1     2  1.00

> <Gold.PLP.Chemscore.Internal.Correction>
0.1294

> <Gold.Rescore>
     Score         DG    S(hbond)    S(metal)    S(lipo)     H(rot)  DE(clash)    DE(int)     intcor
     16.65     -17.37       1.84        0.00      93.69       2.04       0.04       0.68       ----

> <Gold.Chemscore.Fitness>
16.6482

> <Gold.Chemscore.DG>
-17.3715

> <Gold.Chemscore.ZeroCoef>
-5.4800

> <Gold.Chemscore.Hbond>
1.8429

> <Gold.Chemscore.Metal>
0.0000

> <Gold.Chemscore.Lipo>
93.6908

> <Gold.Chemscore.Internal_Hbond>
0.0000

> <Gold.Chemscore.DEClash>
0.0383

> <Gold.Chemscore.DEInternal>
0.6850

> <Gold.Chemscore.Rot>
2.0413

> <Gold.Chemscore.Internal.Correction>
   9.000000E+99

> <Gold.Chemscore.Hbonds>
donor molecule, donor type, donor heavy atom, donor atom, acceptor molecule, acceptor atom, score
      P1  H  6896  6909       L1     9  0.98
      P1  H  7989  7998       L1     2  0.43

> <Gold.Chemscore.Hbond.Weighted>
-6.1553

> <Gold.Chemscore.Metal.Weighted>
-0.0000

> <Gold.Chemscore.Lipo.Weighted>
-10.9618

> <Gold.Chemscore.Internal_Hbond.Weighted>
0.0000

> <Gold.Chemscore.DEClash.Weighted>
0.0383

> <Gold.Chemscore.DEInternal.Weighted>
0.6850

> <Gold.Chemscore.Rot.Weighted>
5.2257

> <Gold.Chemscore.Internal.Correction.Weighted>
   9.000000E+99

> <Gold.Protein.RotatedTorsions>
[ 6907 6896 6895 6894 ] final  145.79 input  -60.11 | X-H torsion
[ 7974 7965 7964 7962 ] final -133.49 input  175.53 | X-H torsion
[ 8008 7997 7996 7995 ] final    1.23 input   59.86 | X-H torsion
[ 10167 10162 10161 10158 ] final  -99.52 input  -65.29 | X-H torsion
[ 10718 10713 10712 10709 ] final  100.27 input   66.30 | X-H torsion
[ 10763 10752 10751 10750 ] final  168.74 input  -60.55 | X-H torsion
[ 11005 11000 10999 10996 ] final   -9.31 input  -57.11 | X-H torsion

> <Gold.Protein.ActiveResidues>
 VAL166  LYS551  ARG553  GLY616  TRP617  ASP618  TYR619  PRO620  LYS621  CYS622 
 ASP623  PHE694  ASN695  SER759  ASP760  ASP761  ALA762  ILE779  LEU786  VAL792 
 PHE793  MET794  SER795  GLU796  ALA797  LYS798  CYS799  TRP800  GLU811  SER814 

> <Gold.Protein.RotatedAtoms>
  152.1763  133.4677  159.4934 H   0  0  0  0  0  0  0  0  0  0  0  0  # atno 6907 bound_to 6896
  150.6927  134.1890  159.4287 H   0  0  0  0  0  0  0  0  0  0  0  0  # atno 6908 bound_to 6896
  151.9799  135.0033  160.0607 H   0  0  0  0  0  0  0  0  0  0  0  0  # atno 6909 bound_to 6896
  144.9188  140.6988  143.4978 H   0  0  0  0  0  0  0  0  0  0  0  0  # atno 7974 bound_to 7965
  154.6773  140.2625  155.6945 H   0  0  0  0  0  0  0  0  0  0  0  0  # atno 8008 bound_to 7997
  156.2683  140.2817  156.1227 H   0  0  0  0  0  0  0  0  0  0  0  0  # atno 8009 bound_to 7997
  155.1082  140.0375  157.2706 H   0  0  0  0  0  0  0  0  0  0  0  0  # atno 8010 bound_to 7997
  140.2616  143.3404  152.0620 H   0  0  0  0  0  0  0  0  0  0  0  0  # atno 10167 bound_to 10162
  157.6858  131.0693  150.5075 H   0  0  0  0  0  0  0  0  0  0  0  0  # atno 10718 bound_to 10713
  154.3730  135.2753  155.2255 H   0  0  0  0  0  0  0  0  0  0  0  0  # atno 10763 bound_to 10752
  154.4394  135.5958  153.6123 H   0  0  0  0  0  0  0  0  0  0  0  0  # atno 10764 bound_to 10752
  152.9837  135.6015  154.3964 H   0  0  0  0  0  0  0  0  0  0  0  0  # atno 10765 bound_to 10752
  140.7328  133.8735  155.8906 H   0  0  0  0  0  0  0  0  0  0  0  0  # atno 11005 bound_to 11000
  145.3330  139.1754  143.4526 LP  0  0  0  0  0  0  0  0  0  0  0  0  # atno 17320 bound_to 7965
  146.3195  140.3362  142.8644 LP  0  0  0  0  0  0  0  0  0  0  0  0  # atno 17321 bound_to 7965
  139.5015  144.6715  151.6231 LP  0  0  0  0  0  0  0  0  0  0  0  0  # atno 17342 bound_to 10162
  140.5961  143.9693  150.6355 LP  0  0  0  0  0  0  0  0  0  0  0  0  # atno 17343 bound_to 10162
  156.5394  130.4204  149.6161 LP  0  0  0  0  0  0  0  0  0  0  0  0  # atno 17370 bound_to 10713
  156.2999  130.7171  151.2040 LP  0  0  0  0  0  0  0  0  0  0  0  0  # atno 17371 bound_to 10713
  140.9906  134.1283  157.4411 LP  0  0  0  0  0  0  0  0  0  0  0  0  # atno 17394 bound_to 11000
  139.8822  135.0039  156.6217 LP  0  0  0  0  0  0  0  0  0  0  0  0  # atno 17395 bound_to 11000

$$$$
