AV-unprocessed.smi:1416|AV-procd|sdf|5764|dock1
  -GOLD-   22720 5403D 1   1.00000     0.00000
 Structure written by MMmdl.
 44 45  0  0  0  0  0  0  0  0  1 V2000
  144.0132  146.2413  153.6443 C   0  0  0  0  0  0  0  0  0  0  0  0
  145.0632  145.1650  153.3560 C   0  0  0  0  0  0  0  0  0  0  0  0
  145.1548  143.9479  154.6960 S   0  0  0  0  0  0  0  0  0  0  0  0
  146.3019  142.7572  153.9440 C   0  0  0  0  0  0  0  0  0  0  0  0
  147.2677  142.1426  154.9737 C   0  0  0  0  0  0  0  0  0  0  0  0
  148.4895  141.4626  154.3451 C   0  0  0  0  0  0  0  0  0  0  0  0
  149.2775  142.1065  153.6516 O   0  0  0  0  0  0  0  0  0  0  0  0
  148.6375  140.1551  154.6019 N   0  0  0  0  0  0  0  0  0  0  0  0
  149.7296  139.3296  154.1006 C   0  0  0  0  0  0  0  0  0  0  0  0
  150.9113  139.2588  155.0538 C   0  0  0  0  0  0  0  0  0  0  0  0
  151.8948  138.2546  154.9356 C   0  0  0  0  0  0  0  0  0  0  0  0
  152.9512  138.2406  155.8647 C   0  0  0  0  0  0  0  0  0  0  0  0
  153.0719  139.1411  156.8622 N   0  0  0  0  0  0  0  0  0  0  0  0
  152.1341  140.1129  156.9861 C   0  0  0  0  0  0  0  0  0  0  0  0
  152.2757  141.0501  158.0329 N   0  0  0  0  0  0  0  0  0  0  0  0
  152.4744  140.4839  159.3650 C   0  0  0  0  0  0  0  0  0  0  0  0
  152.9148  141.5780  160.3529 C   0  0  0  0  0  0  0  0  0  0  0  0
  151.9739  142.6465  160.3415 O   0  0  0  0  0  0  0  0  0  0  0  0
  151.8819  143.2561  159.0581 C   0  0  0  0  0  0  0  0  0  0  0  0
  151.4007  142.2216  158.0268 C   0  0  0  0  0  0  0  0  0  0  0  0
  151.0324  140.1959  156.1007 C   0  0  0  0  0  0  0  0  0  0  0  0
  143.9676  146.9664  152.8316 H   0  0  0  0  0  0  0  0  0  0  0  0
  144.2471  146.7830  154.5611 H   0  0  0  0  0  0  0  0  0  0  0  0
  143.0212  145.8029  153.7558 H   0  0  0  0  0  0  0  0  0  0  0  0
  144.8231  144.6491  152.4259 H   0  0  0  0  0  0  0  0  0  0  0  0
  146.0437  145.6240  153.2265 H   0  0  0  0  0  0  0  0  0  0  0  0
  145.7320  141.9830  153.4285 H   0  0  0  0  0  0  0  0  0  0  0  0
  146.8755  143.2792  153.1777 H   0  0  0  0  0  0  0  0  0  0  0  0
  147.6356  142.9292  155.6331 H   0  0  0  0  0  0  0  0  0  0  0  0
  146.7298  141.4366  155.6086 H   0  0  0  0  0  0  0  0  0  0  0  0
  147.9480  139.6987  155.1816 H   0  0  0  0  0  0  0  0  0  0  0  0
  149.3491  138.3249  153.9105 H   0  0  0  0  0  0  0  0  0  0  0  0
  150.0880  139.7221  153.1476 H   0  0  0  0  0  0  0  0  0  0  0  0
  151.8433  137.5035  154.1612 H   0  0  0  0  0  0  0  0  0  0  0  0
  153.7198  137.4842  155.8068 H   0  0  0  0  0  0  0  0  0  0  0  0
  151.5373  140.0360  159.6989 H   0  0  0  0  0  0  0  0  0  0  0  0
  153.2203  139.6902  159.3610 H   0  0  0  0  0  0  0  0  0  0  0  0
  152.9747  141.1694  161.3618 H   0  0  0  0  0  0  0  0  0  0  0  0
  153.9090  141.9513  160.1012 H   0  0  0  0  0  0  0  0  0  0  0  0
  151.1804  144.0886  159.1098 H   0  0  0  0  0  0  0  0  0  0  0  0
  152.8490  143.6717  158.7705 H   0  0  0  0  0  0  0  0  0  0  0  0
  151.3883  142.6786  157.0365 H   0  0  0  0  0  0  0  0  0  0  0  0
  150.3802  141.9122  158.2572 H   0  0  0  0  0  0  0  0  0  0  0  0
  150.2776  140.9584  156.2228 H   0  0  0  0  0  0  0  0  0  0  0  0
  1  2  1  0  0  0  0
  1 22  1  0  0  0  0
  1 23  1  0  0  0  0
  1 24  1  0  0  0  0
  2  3  1  0  0  0  0
  2 25  1  0  0  0  0
  2 26  1  0  0  0  0
  3  4  1  0  0  0  0
  4  5  1  0  0  0  0
  4 27  1  0  0  0  0
  4 28  1  0  0  0  0
  5  6  1  0  0  0  0
  5 29  1  0  0  0  0
  5 30  1  0  0  0  0
  6  7  2  0  0  0  0
  6  8  1  0  0  0  0
  8  9  1  0  0  0  0
  8 31  1  0  0  0  0
  9 10  1  0  0  0  0
  9 32  1  0  0  0  0
  9 33  1  0  0  0  0
 10 21  1  0  0  0  0
 10 11  2  0  0  0  0
 11 12  1  0  0  0  0
 11 34  1  0  0  0  0
 12 13  2  0  0  0  0
 12 35  1  0  0  0  0
 13 14  1  0  0  0  0
 14 15  1  0  0  0  0
 14 21  2  0  0  0  0
 15 20  1  0  0  0  0
 15 16  1  0  0  0  0
 16 17  1  0  0  0  0
 16 36  1  0  0  0  0
 16 37  1  0  0  0  0
 17 18  1  0  0  0  0
 17 38  1  0  0  0  0
 17 39  1  0  0  0  0
 18 19  1  0  0  0  0
 19 20  1  0  0  0  0
 19 40  1  0  0  0  0
 19 41  1  0  0  0  0
 20 42  1  0  0  0  0
 20 43  1  0  0  0  0
 21 44  1  0  0  0  0
M  END
> <s_m_source_file>
AV-unprocessed.smi

> <i_m_source_file_index>
1416

> <i_lp_mmshare_version>
43012

> <i_f3d_flags>
0

> <s_epik_input>
W0NIM11bQ0gyXVNbQ0gyXVtDSDJdQyg9TylbTkhdW0NIMl1jMVtjSF1bY0hdbmMoW2NIXTEpTjJbQ0gyXVtDSDJdT1tDSDJdW0NIMl0y

> <s_epik_cmdline>
J2VwaWtfcHl0aG9uJywgJy1waCcsICc3LjAnLCAnLXRuJywgJzgnLCAnLW1hJywgJzIwMCcsICctbWV0YWxfYmluZGluZycsICctaW1hZScsICc8aW5maWxlLm1hZT4nLCAnLW9tYWUnLCAnPG91dGZpbGUubWFlPic=

> <r_lp_tautomer_probability>
1

> <r_epik_Ionization_Penalty>
0.00571449

> <r_epik_Ionization_Penalty_Charging>
0

> <r_epik_Ionization_Penalty_Neutral>
0.00571449

> <r_epik_State_Penalty>
0.00419227

> <r_epik_Charging_Adjusted_Penalty>
0.00419227

> <i_epik_Tot_Q>
0

> <i_epik_Tot_abs_Q>
0

> <r_epik_Metal_State_Penalty>
-0

> <b_epik_Metal_Only>
0

> <s_lp_Force_Field>
OPLS_2005

> <r_lp_Energy>
16.5768

> <b_lp_Chiralities_Consistent>
1

> <s_lp_Variant>
AV-unprocessed.smi:1416-1

> <Gold.Version>
5.8.1

> <Gold.Id.Protein>
6NUR|6NUR_protein|mol2

> <Gold.PLP.Fitness>
46.1894

> <Gold.PLP.PLP>
-43.0587

> <Gold.PLP.part.hbond>
-2.1592

> <Gold.PLP.part.metal>
0.0000

> <Gold.PLP.part.buried>
-2.8210

> <Gold.PLP.part.nonpolar>
-38.0116

> <Gold.PLP.part.repulsive>
0.3072

> <Gold.PLP.ligand.clash>
0.0000

> <Gold.PLP.ligand.torsion>
0.9022

> <Gold.PLP.Chemscore.Hbond>
1.4640

> <Gold.PLP.Chemscore.CHOScore>
0.0000

> <Gold.PLP.Chemscore.Metal>
0.0000

> <Gold.Chemscore.Hbonds>
donor molecule, donor type, donor heavy atom, donor atom, acceptor molecule, acceptor atom, score
      P1  H  7997  8009       L1    13  0.90
      P1  H  8011  8017       L1     7  0.32

> <Gold.PLP.Chemscore.Internal.Correction>
0.5431

> <Gold.Rescore>
     Score         DG    S(hbond)    S(metal)    S(lipo)     H(rot)  DE(clash)    DE(int)     intcor
     15.23     -16.37       1.06        0.00     103.67       1.87       0.09       1.06       ----

> <Gold.Chemscore.Fitness>
15.2251

> <Gold.Chemscore.DG>
-16.3723

> <Gold.Chemscore.ZeroCoef>
-5.4800

> <Gold.Chemscore.Hbond>
1.0630

> <Gold.Chemscore.Metal>
0.0000

> <Gold.Chemscore.Lipo>
103.6740

> <Gold.Chemscore.Internal_Hbond>
0.0000

> <Gold.Chemscore.DEClash>
0.0901

> <Gold.Chemscore.DEInternal>
1.0571

> <Gold.Chemscore.Rot>
1.8704

> <Gold.Chemscore.Internal.Correction>
   9.000000E+99

> <Gold.Chemscore.Hbonds>
donor molecule, donor type, donor heavy atom, donor atom, acceptor molecule, acceptor atom, score
      P1  H  7997  8009       L1    13  0.10
      P1  H  8011  8017       L1     7  0.32

> <Gold.Chemscore.Hbond.Weighted>
-3.5506

> <Gold.Chemscore.Metal.Weighted>
-0.0000

> <Gold.Chemscore.Lipo.Weighted>
-12.1299

> <Gold.Chemscore.Internal_Hbond.Weighted>
0.0000

> <Gold.Chemscore.DEClash.Weighted>
0.0901

> <Gold.Chemscore.DEInternal.Weighted>
1.0571

> <Gold.Chemscore.Rot.Weighted>
4.7881

> <Gold.Chemscore.Internal.Correction.Weighted>
   9.000000E+99

> <Gold.Protein.RotatedTorsions>
[ 6907 6896 6895 6894 ] final   32.70 input  -60.11 | X-H torsion
[ 7974 7965 7964 7962 ] final  -39.62 input  175.53 | X-H torsion
[ 8008 7997 7996 7995 ] final -169.55 input   59.86 | X-H torsion
[ 10167 10162 10161 10158 ] final -142.80 input  -65.29 | X-H torsion
[ 10718 10713 10712 10709 ] final   94.98 input   66.30 | X-H torsion
[ 10763 10752 10751 10750 ] final   45.08 input  -60.55 | X-H torsion
[ 11005 11000 10999 10996 ] final   54.44 input  -57.11 | X-H torsion

> <Gold.Protein.ActiveResidues>
 VAL166  LYS551  ARG553  GLY616  TRP617  ASP618  TYR619  PRO620  LYS621  CYS622 
 ASP623  PHE694  ASN695  SER759  ASP760  ASP761  ALA762  ILE779  LEU786  VAL792 
 PHE793  MET794  SER795  GLU796  ALA797  LYS798  CYS799  TRP800  GLU811  SER814 

> <Gold.Protein.RotatedAtoms>
  152.0782  134.9489  160.0573 H   0  0  0  0  0  0  0  0  0  0  0  0  # atno 6907 bound_to 6896
  152.0788  133.4137  159.4500 H   0  0  0  0  0  0  0  0  0  0  0  0  # atno 6908 bound_to 6896
  150.6836  134.2926  159.4716 H   0  0  0  0  0  0  0  0  0  0  0  0  # atno 6909 bound_to 6896
  146.0379  140.6647  142.9101 H   0  0  0  0  0  0  0  0  0  0  0  0  # atno 7974 bound_to 7965
  155.9065  140.1050  157.1311 H   0  0  0  0  0  0  0  0  0  0  0  0  # atno 8008 bound_to 7997
  154.4033  140.1282  156.4567 H   0  0  0  0  0  0  0  0  0  0  0  0  # atno 8009 bound_to 7997
  155.7361  140.3467  155.5084 H   0  0  0  0  0  0  0  0  0  0  0  0  # atno 8010 bound_to 7997
  139.8053  143.7776  152.2660 H   0  0  0  0  0  0  0  0  0  0  0  0  # atno 10167 bound_to 10162
  157.6943  131.0530  150.4268 H   0  0  0  0  0  0  0  0  0  0  0  0  # atno 10718 bound_to 10713
  152.9830  135.6050  154.3379 H   0  0  0  0  0  0  0  0  0  0  0  0  # atno 10763 bound_to 10752
  154.3077  135.2771  155.2582 H   0  0  0  0  0  0  0  0  0  0  0  0  # atno 10764 bound_to 10752
  154.4806  135.5918  153.6443 H   0  0  0  0  0  0  0  0  0  0  0  0  # atno 10765 bound_to 10752
  140.0686  134.5501  155.9071 H   0  0  0  0  0  0  0  0  0  0  0  0  # atno 11005 bound_to 11000
  144.7060  140.3854  143.7117 LP  0  0  0  0  0  0  0  0  0  0  0  0  # atno 17320 bound_to 7965
  145.6933  139.1644  143.2634 LP  0  0  0  0  0  0  0  0  0  0  0  0  # atno 17321 bound_to 7965
  139.7909  144.7410  150.9956 LP  0  0  0  0  0  0  0  0  0  0  0  0  # atno 17342 bound_to 10162
  140.7819  143.4443  151.0505 LP  0  0  0  0  0  0  0  0  0  0  0  0  # atno 17343 bound_to 10162
  156.4638  130.4038  149.6559 LP  0  0  0  0  0  0  0  0  0  0  0  0  # atno 17370 bound_to 10713
  156.3665  130.7508  151.2486 LP  0  0  0  0  0  0  0  0  0  0  0  0  # atno 17371 bound_to 10713
  141.2003  133.6611  156.5889 LP  0  0  0  0  0  0  0  0  0  0  0  0  # atno 17394 bound_to 11000
  140.3661  134.7646  157.4567 LP  0  0  0  0  0  0  0  0  0  0  0  0  # atno 17395 bound_to 11000

$$$$
