AV-unprocessed.smi:45|AV-procd|sdf|409|dock1
  -GOLD-   2262016263D 1   1.00000     0.00000
 Structure written by MMmdl.
 61 64  0  0  0  0  0  0  0  0  2 V2000
  147.4111  136.7779  162.6831 C   0  0  0  0  0  0  0  0  0  0  0  0
  146.7421  137.3952  161.5932 O   0  0  0  0  0  0  0  0  0  0  0  0
  146.7605  136.7568  160.3705 C   0  0  0  0  0  0  0  0  0  0  0  0
  147.6477  135.6998  160.0458 C   0  0  0  0  0  0  0  0  0  0  0  0
  147.6196  135.1089  158.7684 C   0  0  0  0  0  0  0  0  0  0  0  0
  146.7075  135.5567  157.7934 C   0  0  0  0  0  0  0  0  0  0  0  0
  146.7140  134.9024  156.4177 C   0  0  0  0  0  0  0  0  0  0  0  0
  147.6429  133.7925  156.2266 N   0  0  0  0  0  0  0  0  0  0  0  0
  147.8251  133.1778  154.9741 C   0  0  0  0  0  0  0  0  0  0  0  0
  146.7954  133.2021  154.0970 N   0  0  0  0  0  0  0  0  0  0  0  0
  146.9221  132.6441  152.8856 C   0  0  0  0  0  0  0  0  0  0  0  0
  145.8462  132.6722  152.0024 N   0  0  0  0  0  0  0  0  0  0  0  0
  145.6139  131.5927  151.0508 C   0  0  0  0  0  0  0  0  0  0  0  0
  144.9738  132.2463  149.8273 C   0  0  0  0  0  0  0  0  0  0  0  0
  144.2356  133.4379  150.4245 C   0  0  0  0  0  0  0  0  0  0  0  0
  145.1471  133.8847  151.5771 C   0  0  1  0  0  0  0  0  0  0  0  0
  144.3674  134.5597  152.7239 C   0  0  0  0  0  0  0  0  0  0  0  0
  143.1473  133.8845  152.9417 O   0  0  0  0  0  0  0  0  0  0  0  0
  148.0629  132.0609  152.4871 N   0  3  0  0  0  0  0  0  0  0  0  0
  149.1236  132.0062  153.3267 C   0  0  0  0  0  0  0  0  0  0  0  0
  149.0557  132.5704  154.6185 C   0  0  0  0  0  0  0  0  0  0  0  0
  150.2297  132.4652  155.5553 C   0  0  0  0  0  0  0  0  0  0  0  0
  150.3844  133.2635  156.4796 O   0  0  0  0  0  0  0  0  0  0  0  0
  151.0853  131.4653  155.2900 N   0  0  0  0  0  0  0  0  0  0  0  0
  152.2639  131.1453  156.0871 C   0  0  0  0  0  0  0  0  0  0  0  0
  153.0229  129.9426  155.5523 C   0  0  0  0  0  0  0  0  0  0  0  0
  154.2948  130.1422  155.1937 N   0  0  0  0  0  0  0  0  0  0  0  0
  154.9737  129.0715  154.7281 C   0  0  0  0  0  0  0  0  0  0  0  0
  154.3726  127.8010  154.6239 C   0  0  0  0  0  0  0  0  0  0  0  0
  153.0265  127.7121  155.0320 C   0  0  0  0  0  0  0  0  0  0  0  0
  152.3522  128.7864  155.4969 N   0  0  0  0  0  0  0  0  0  0  0  0
  145.8050  136.5917  158.1198 C   0  0  0  0  0  0  0  0  0  0  0  0
  145.8378  137.1911  159.3934 C   0  0  0  0  0  0  0  0  0  0  0  0
  144.7357  138.4732  159.7453 Cl  0  0  0  0  0  0  0  0  0  0  0  0
  145.8971  134.5750  151.1880 H   0  0  0  0  0  0  0  0  0  0  0  0
  147.3120  137.4067  163.5678 H   0  0  0  0  0  0  0  0  0  0  0  0
  148.4764  136.6585  162.4809 H   0  0  0  0  0  0  0  0  0  0  0  0
  146.9756  135.8061  162.9197 H   0  0  0  0  0  0  0  0  0  0  0  0
  148.3684  135.3275  160.7578 H   0  0  0  0  0  0  0  0  0  0  0  0
  148.3102  134.3112  158.5368 H   0  0  0  0  0  0  0  0  0  0  0  0
  145.7065  134.5587  156.1798 H   0  0  0  0  0  0  0  0  0  0  0  0
  146.9553  135.6700  155.6822 H   0  0  0  0  0  0  0  0  0  0  0  0
  147.9482  133.2931  157.0504 H   0  0  0  0  0  0  0  0  0  0  0  0
  146.5347  131.0733  150.7819 H   0  0  0  0  0  0  0  0  0  0  0  0
  144.9342  130.8690  151.5017 H   0  0  0  0  0  0  0  0  0  0  0  0
  145.7495  132.5982  149.1456 H   0  0  0  0  0  0  0  0  0  0  0  0
  144.3203  131.5693  149.2764 H   0  0  0  0  0  0  0  0  0  0  0  0
  144.0526  134.2314  149.6991 H   0  0  0  0  0  0  0  0  0  0  0  0
  143.2690  133.1062  150.8072 H   0  0  0  0  0  0  0  0  0  0  0  0
  144.9493  134.5580  153.6461 H   0  0  0  0  0  0  0  0  0  0  0  0
  144.1419  135.6002  152.4954 H   0  0  0  0  0  0  0  0  0  0  0  0
  143.2827  133.2243  153.6047 H   0  0  0  0  0  0  0  0  0  0  0  0
  149.9940  131.4998  152.9345 H   0  0  0  0  0  0  0  0  0  0  0  0
  150.8935  130.8626  154.5034 H   0  0  0  0  0  0  0  0  0  0  0  0
  152.9287  132.0095  156.0813 H   0  0  0  0  0  0  0  0  0  0  0  0
  151.9768  130.9864  157.1285 H   0  0  0  0  0  0  0  0  0  0  0  0
  156.0014  129.2294  154.4363 H   0  0  0  0  0  0  0  0  0  0  0  0
  154.9133  126.9434  154.2520 H   0  0  0  0  0  0  0  0  0  0  0  0
  152.4893  126.7765  154.9859 H   0  0  0  0  0  0  0  0  0  0  0  0
  145.0860  136.9417  157.3936 H   0  0  0  0  0  0  0  0  0  0  0  0
  148.1357  131.6415  151.5599 H   0  0  0  0  0  0  0  0  0  0  0  0
  1  2  1  0  0  0  0
  1 36  1  0  0  0  0
  1 37  1  0  0  0  0
  1 38  1  0  0  0  0
  2  3  1  0  0  0  0
  3 33  1  0  0  0  0
  3  4  2  0  0  0  0
  4  5  1  0  0  0  0
  4 39  1  0  0  0  0
  5  6  2  0  0  0  0
  5 40  1  0  0  0  0
  6  7  1  0  0  0  0
  6 32  1  0  0  0  0
  7  8  1  0  0  0  0
  7 41  1  0  0  0  0
  7 42  1  0  0  0  0
  8  9  1  0  0  0  0
  8 43  1  0  0  0  0
  9 21  1  0  0  0  0
  9 10  2  0  0  0  0
 10 11  1  0  0  0  0
 11 12  1  0  0  0  0
 11 19  2  0  0  0  0
 12 16  1  0  0  0  0
 12 13  1  0  0  0  0
 13 14  1  0  0  0  0
 13 44  1  0  0  0  0
 13 45  1  0  0  0  0
 14 15  1  0  0  0  0
 14 46  1  0  0  0  0
 14 47  1  0  0  0  0
 15 16  1  0  0  0  0
 15 48  1  0  0  0  0
 15 49  1  0  0  0  0
 16 35  1  0  0  0  0
 16 17  1  0  0  0  0
 17 18  1  0  0  0  0
 17 50  1  0  0  0  0
 17 51  1  0  0  0  0
 18 52  1  0  0  0  0
 19 20  1  0  0  0  0
 19 61  1  0  0  0  0
 20 21  2  0  0  0  0
 20 53  1  0  0  0  0
 21 22  1  0  0  0  0
 22 23  2  0  0  0  0
 22 24  1  0  0  0  0
 24 25  1  0  0  0  0
 24 54  1  0  0  0  0
 25 26  1  0  0  0  0
 25 55  1  0  0  0  0
 25 56  1  0  0  0  0
 26 31  1  0  0  0  0
 26 27  2  0  0  0  0
 27 28  1  0  0  0  0
 28 29  2  0  0  0  0
 28 57  1  0  0  0  0
 29 30  1  0  0  0  0
 29 58  1  0  0  0  0
 30 31  2  0  0  0  0
 30 59  1  0  0  0  0
 32 33  2  0  0  0  0
 32 60  1  0  0  0  0
 33 34  1  0  0  0  0
M  CHG  1  19   1
M  END
> <s_m_source_file>
AV-unprocessed.smi

> <i_m_source_file_index>
45

> <i_lp_mmshare_version>
43012

> <i_f3d_flags>
0

> <s_epik_input>
W0NIM11PYzFbY0hdW2NIXWMoW2NIXWMxQ2wpW0NIMl1bTkhdYzJuYyhOM1tDSDJdW0NIMl1bQ0gyXVtDQEhdM1tDSDJdW09IXSluW2NIXWMyQyg9TylbTkhdW0NIMl1jNG5bY0hdW2NIXVtjSF1uNA==

> <s_epik_cmdline>
J2VwaWtfcHl0aG9uJywgJy1waCcsICc3LjAnLCAnLXRuJywgJzgnLCAnLW1hJywgJzIwMCcsICctbWV0YWxfYmluZGluZycsICctaW1hZScsICc8aW5maWxlLm1hZT4nLCAnLW9tYWUnLCAnPG91dGZpbGUubWFlPic=

> <r_lp_tautomer_probability>
0.575011

> <r_epik_Ionization_Penalty>
1.61454

> <r_epik_Ionization_Penalty_Charging>
1.61448

> <r_epik_Ionization_Penalty_Neutral>
6.30284e-05

> <r_epik_State_Penalty>
1.91123

> <r_epik_Charging_Adjusted_Penalty>
3.52572

> <i_epik_Tot_Q>
1

> <i_epik_Tot_abs_Q>
1

> <r_epik_Metal_State_Penalty>
1.95488

> <b_epik_Metal_Only>
0

> <s_epik_Chemistry_Notes>
This compound contains an electron-poor aromatic ring that is susceptible to covalent hydrolysis at low pH, typically resulting in measured values for nitrogen ring protonation that are around two units higher than predicted values.

> <s_lp_Force_Field>
OPLS_2005

> <r_lp_Energy>
32.8606

> <b_lp_Chiralities_Consistent>
1

> <s_lp_Variant>
AV-unprocessed.smi:45-3

> <Gold.Version>
5.8.1

> <Gold.Id.Protein>
6NUR|6NUR_protein|mol2

> <Gold.PLP.Fitness>
48.8934

> <Gold.PLP.PLP>
-42.8333

> <Gold.PLP.part.hbond>
-3.2648

> <Gold.PLP.part.metal>
0.0000

> <Gold.PLP.part.buried>
-6.9985

> <Gold.PLP.part.nonpolar>
-32.2588

> <Gold.PLP.part.repulsive>
0.1486

> <Gold.PLP.ligand.clash>
0.0000

> <Gold.PLP.ligand.torsion>
1.5407

> <Gold.PLP.Chemscore.Hbond>
2.8000

> <Gold.PLP.Chemscore.CHOScore>
0.0000

> <Gold.PLP.Chemscore.Metal>
0.0000

> <Gold.Chemscore.Hbonds>
donor molecule, donor type, donor heavy atom, donor atom, acceptor molecule, acceptor atom, score
      L1  H    18    52       P1 10957  1.00
      L1  H    19    61       P1 10747  1.00
      P1  H  6934  6947       L1     2  0.80

> <Gold.PLP.Chemscore.Internal.Correction>
0.7413

> <Gold.Rescore>
     Score         DG    S(hbond)    S(metal)    S(lipo)     H(rot)  DE(clash)    DE(int)     intcor
     12.73     -15.52       2.01        0.00      92.73       2.94       0.02       2.76       ----

> <Gold.Chemscore.Fitness>
12.7324

> <Gold.Chemscore.DG>
-15.5212

> <Gold.Chemscore.ZeroCoef>
-5.4800

> <Gold.Chemscore.Hbond>
2.0112

> <Gold.Chemscore.Metal>
0.0000

> <Gold.Chemscore.Lipo>
92.7259

> <Gold.Chemscore.Internal_Hbond>
0.0000

> <Gold.Chemscore.DEClash>
0.0243

> <Gold.Chemscore.DEInternal>
2.7644

> <Gold.Chemscore.Rot>
2.9395

> <Gold.Chemscore.Internal.Correction>
   9.000000E+99

> <Gold.Chemscore.Hbonds>
donor molecule, donor type, donor heavy atom, donor atom, acceptor molecule, acceptor atom, score
      L1  H    18    52       P1 10957  0.93
      L1  H    19    61       P1 10747  0.97
      P1  H  6934  6947       L1     2  0.11

> <Gold.Chemscore.Hbond.Weighted>
-6.7174

> <Gold.Chemscore.Metal.Weighted>
-0.0000

> <Gold.Chemscore.Lipo.Weighted>
-10.8489

> <Gold.Chemscore.Internal_Hbond.Weighted>
0.0000

> <Gold.Chemscore.DEClash.Weighted>
0.0243

> <Gold.Chemscore.DEInternal.Weighted>
2.7644

> <Gold.Chemscore.Rot.Weighted>
7.5251

> <Gold.Chemscore.Internal.Correction.Weighted>
   9.000000E+99

> <Gold.Protein.RotatedTorsions>
[ 6907 6896 6895 6894 ] final  126.29 input  -60.11 | X-H torsion
[ 7974 7965 7964 7962 ] final   49.63 input  175.53 | X-H torsion
[ 8008 7997 7996 7995 ] final  -23.86 input   59.86 | X-H torsion
[ 10167 10162 10161 10158 ] final  -74.62 input  -65.29 | X-H torsion
[ 10718 10713 10712 10709 ] final -104.74 input   66.30 | X-H torsion
[ 10763 10752 10751 10750 ] final -101.43 input  -60.55 | X-H torsion
[ 11005 11000 10999 10996 ] final   33.41 input  -57.11 | X-H torsion

> <Gold.Protein.ActiveResidues>
 VAL166  LYS551  ARG553  GLY616  TRP617  ASP618  TYR619  PRO620  LYS621  CYS622 
 ASP623  PHE694  ASN695  SER759  ASP760  ASP761  ALA762  ILE779  LEU786  VAL792 
 PHE793  MET794  SER795  GLU796  ALA797  LYS798  CYS799  TRP800  GLU811  SER814 

> <Gold.Protein.RotatedAtoms>
  152.3916  133.6687  159.6242 H   0  0  0  0  0  0  0  0  0  0  0  0  # atno 6907 bound_to 6896
  150.7823  133.8944  159.3331 H   0  0  0  0  0  0  0  0  0  0  0  0  # atno 6908 bound_to 6896
  151.6730  135.0975  160.0253 H   0  0  0  0  0  0  0  0  0  0  0  0  # atno 6909 bound_to 6896
  146.0090  139.4522  142.9968 H   0  0  0  0  0  0  0  0  0  0  0  0  # atno 7974 bound_to 7965
  154.4561  140.1969  156.0375 H   0  0  0  0  0  0  0  0  0  0  0  0  # atno 8008 bound_to 7997
  156.0749  140.3279  155.7593 H   0  0  0  0  0  0  0  0  0  0  0  0  # atno 8009 bound_to 7997
  155.5205  140.0569  157.2898 H   0  0  0  0  0  0  0  0  0  0  0  0  # atno 8010 bound_to 7997
  140.5011  143.2361  151.7750 H   0  0  0  0  0  0  0  0  0  0  0  0  # atno 10167 bound_to 10162
  156.0317  130.5529  150.7439 H   0  0  0  0  0  0  0  0  0  0  0  0  # atno 10718 bound_to 10713
  154.7657  135.4898  153.9549 H   0  0  0  0  0  0  0  0  0  0  0  0  # atno 10763 bound_to 10752
  153.1304  135.6751  153.9195 H   0  0  0  0  0  0  0  0  0  0  0  0  # atno 10764 bound_to 10752
  153.8900  135.3122  155.3426 H   0  0  0  0  0  0  0  0  0  0  0  0  # atno 10765 bound_to 10752
  140.2634  134.3165  155.7850 H   0  0  0  0  0  0  0  0  0  0  0  0  # atno 11005 bound_to 11000
  145.7371  141.0021  143.1320 LP  0  0  0  0  0  0  0  0  0  0  0  0  # atno 17320 bound_to 7965
  144.6946  139.9055  143.7461 LP  0  0  0  0  0  0  0  0  0  0  0  0  # atno 17321 bound_to 7965
  139.4872  144.4520  151.9642 LP  0  0  0  0  0  0  0  0  0  0  0  0  # atno 17342 bound_to 10162
  140.3609  144.2974  150.5933 LP  0  0  0  0  0  0  0  0  0  0  0  0  # atno 17343 bound_to 10162
  157.5001  131.0918  151.0325 LP  0  0  0  0  0  0  0  0  0  0  0  0  # atno 17370 bound_to 10713
  157.0708  130.5863  149.5402 LP  0  0  0  0  0  0  0  0  0  0  0  0  # atno 17371 bound_to 10713
  141.2187  133.7423  156.9223 LP  0  0  0  0  0  0  0  0  0  0  0  0  # atno 17394 bound_to 11000
  140.1442  134.9273  157.2508 LP  0  0  0  0  0  0  0  0  0  0  0  0  # atno 17395 bound_to 11000

$$$$
