AV-unprocessed.smi:464|AV-procd|sdf|2636|dock2
  -GOLD-   2262023 43D 1   1.00000     0.00000
 Structure written by MMmdl.
 25 26  0  0  0  0  0  0  0  0  1 V2000
  150.4924  138.6349  153.9470 O   0  0  0  0  0  0  0  0  0  0  0  0
  150.6631  139.4579  154.8428 C   0  0  0  0  0  0  0  0  0  0  0  0
  149.8941  140.6193  154.9272 N   0  0  0  0  0  0  0  0  0  0  0  0
  150.0966  141.5346  155.9384 C   0  0  0  0  0  0  0  0  0  0  0  0
  151.0410  141.3671  156.8982 C   0  0  0  0  0  0  0  0  0  0  0  0
  151.2390  142.2933  157.9099 N   0  0  0  0  0  0  0  0  0  0  0  0
  151.1494  143.7316  157.7027 C   0  0  0  0  0  0  0  0  0  0  0  0
  152.5058  144.3942  158.0018 C   0  0  0  0  0  0  0  0  0  0  0  0
  152.9223  144.0536  159.3214 O   0  0  0  0  0  0  0  0  0  0  0  0
  153.0850  142.6477  159.4887 C   0  0  0  0  0  0  0  0  0  0  0  0
  151.7439  141.9388  159.2287 C   0  0  0  0  0  0  0  0  0  0  0  0
  151.8926  140.1684  156.8790 C   0  0  0  0  0  0  0  0  0  0  0  0
  152.7787  139.9054  157.6909 O   0  0  0  0  0  0  0  0  0  0  0  0
  151.6351  139.2798  155.8276 N   0  0  0  0  0  0  0  0  0  0  0  0
  149.1844  140.7719  154.2251 H   0  0  0  0  0  0  0  0  0  0  0  0
  152.1986  138.4435  155.7791 H   0  0  0  0  0  0  0  0  0  0  0  0
  149.4712  142.4158  155.9531 H   0  0  0  0  0  0  0  0  0  0  0  0
  150.8432  143.9478  156.6783 H   0  0  0  0  0  0  0  0  0  0  0  0
  150.3766  144.1376  158.3567 H   0  0  0  0  0  0  0  0  0  0  0  0
  153.2612  144.0816  157.2793 H   0  0  0  0  0  0  0  0  0  0  0  0
  152.4207  145.4780  157.9241 H   0  0  0  0  0  0  0  0  0  0  0  0
  153.8591  142.2786  158.8139 H   0  0  0  0  0  0  0  0  0  0  0  0
  153.4263  142.4474  160.5043 H   0  0  0  0  0  0  0  0  0  0  0  0
  151.0092  142.2289  159.9808 H   0  0  0  0  0  0  0  0  0  0  0  0
  151.8686  140.8579  159.3080 H   0  0  0  0  0  0  0  0  0  0  0  0
  1  2  2  0  0  0  0
  2 14  1  0  0  0  0
  2  3  1  0  0  0  0
  3 15  1  0  0  0  0
  3  4  1  0  0  0  0
  4  5  2  0  0  0  0
  4 17  1  0  0  0  0
  5  6  1  0  0  0  0
  5 12  1  0  0  0  0
  6 11  1  0  0  0  0
  6  7  1  0  0  0  0
  7  8  1  0  0  0  0
  7 18  1  0  0  0  0
  7 19  1  0  0  0  0
  8  9  1  0  0  0  0
  8 20  1  0  0  0  0
  8 21  1  0  0  0  0
  9 10  1  0  0  0  0
 10 11  1  0  0  0  0
 10 22  1  0  0  0  0
 10 23  1  0  0  0  0
 11 24  1  0  0  0  0
 11 25  1  0  0  0  0
 12 13  2  0  0  0  0
 12 14  1  0  0  0  0
 14 16  1  0  0  0  0
M  END
> <s_m_source_file>
AV-unprocessed.smi

> <i_m_source_file_index>
464

> <i_lp_mmshare_version>
43012

> <i_f3d_flags>
0

> <s_epik_input>
Tz1jMVtuSF1bY0hdYyhjKD1PKVtuSF0xKU4yW0NIMl1bQ0gyXU9bQ0gyXVtDSDJdMg==

> <s_epik_cmdline>
J2VwaWtfcHl0aG9uJywgJy1waCcsICc3LjAnLCAnLXRuJywgJzgnLCAnLW1hJywgJzIwMCcsICctbWV0YWxfYmluZGluZycsICctaW1hZScsICc8aW5maWxlLm1hZT4nLCAnLW9tYWUnLCAnPG91dGZpbGUubWFlPic=

> <r_lp_tautomer_probability>
0.999801

> <r_epik_Ionization_Penalty>
0.0101854

> <r_epik_Ionization_Penalty_Charging>
0.0101853

> <r_epik_Ionization_Penalty_Neutral>
7.32569e-08

> <r_epik_State_Penalty>
0.00491364

> <r_epik_Charging_Adjusted_Penalty>
0.015099

> <i_epik_Tot_Q>
0

> <i_epik_Tot_abs_Q>
0

> <r_epik_Metal_State_Penalty>
1.54201

> <b_epik_Metal_Only>
0

> <s_lp_Force_Field>
OPLS_2005

> <r_lp_Energy>
18.7327

> <b_lp_Chiralities_Consistent>
1

> <s_lp_Variant>
AV-unprocessed.smi:464-1

> <Gold.Version>
5.8.1

> <Gold.Id.Protein>
6NUR|6NUR_protein|mol2

> <Gold.PLP.Fitness>
32.7223

> <Gold.PLP.PLP>
-27.1145

> <Gold.PLP.part.hbond>
-1.0000

> <Gold.PLP.part.metal>
0.0000

> <Gold.PLP.part.buried>
-2.5815

> <Gold.PLP.part.nonpolar>
-23.8956

> <Gold.PLP.part.repulsive>
0.6064

> <Gold.PLP.ligand.clash>
0.0000

> <Gold.PLP.ligand.torsion>
0.4587

> <Gold.PLP.Chemscore.Hbond>
1.0000

> <Gold.PLP.Chemscore.CHOScore>
1.0000

> <Gold.PLP.Chemscore.Metal>
0.0000

> <Gold.Chemscore.Hbonds>
donor molecule, donor type, donor heavy atom, donor atom, acceptor molecule, acceptor atom, score
      P1  H  7997  8010       L1    13  1.00
      L1  C     4    17       P1  8028  1.00

> <Gold.PLP.Chemscore.Internal.Correction>
0.5253

> <Gold.Rescore>
     Score         DG    S(hbond)    S(metal)    S(lipo)     H(rot)  DE(clash)    DE(int)     intcor
     13.67     -15.60       0.94        0.00      59.57       0.00       0.02       1.91       ----

> <Gold.Chemscore.Fitness>
13.6685

> <Gold.Chemscore.DG>
-15.6000

> <Gold.Chemscore.ZeroCoef>
-5.4800

> <Gold.Chemscore.Hbond>
0.9434

> <Gold.Chemscore.Metal>
0.0000

> <Gold.Chemscore.Lipo>
59.5655

> <Gold.Chemscore.Internal_Hbond>
0.0000

> <Gold.Chemscore.DEClash>
0.0225

> <Gold.Chemscore.DEInternal>
1.9090

> <Gold.Chemscore.Rot>
0.0000

> <Gold.Chemscore.Internal.Correction>
   9.000000E+99

> <Gold.Chemscore.Hbonds>
donor molecule, donor type, donor heavy atom, donor atom, acceptor molecule, acceptor atom, score
      P1  H  7997  8010       L1    13  0.83

> <Gold.Chemscore.Hbond.Weighted>
-3.1509

> <Gold.Chemscore.Metal.Weighted>
-0.0000

> <Gold.Chemscore.Lipo.Weighted>
-6.9692

> <Gold.Chemscore.Internal_Hbond.Weighted>
0.0000

> <Gold.Chemscore.DEClash.Weighted>
0.0225

> <Gold.Chemscore.DEInternal.Weighted>
1.9090

> <Gold.Chemscore.Rot.Weighted>
0.0000

> <Gold.Chemscore.Internal.Correction.Weighted>
   9.000000E+99

> <Gold.Protein.RotatedTorsions>
[ 6907 6896 6895 6894 ] final  102.60 input  -60.11 | X-H torsion
[ 7974 7965 7964 7962 ] final   38.67 input  175.53 | X-H torsion
[ 8008 7997 7996 7995 ] final   39.36 input   59.86 | X-H torsion
[ 10167 10162 10161 10158 ] final  137.13 input  -65.29 | X-H torsion
[ 10718 10713 10712 10709 ] final   37.70 input   66.30 | X-H torsion
[ 10763 10752 10751 10750 ] final  -55.21 input  -60.55 | X-H torsion
[ 11005 11000 10999 10996 ] final -122.48 input  -57.11 | X-H torsion

> <Gold.Protein.ActiveResidues>
 VAL166  LYS551  ARG553  GLY616  TRP617  ASP618  TYR619  PRO620  LYS621  CYS622 
 ASP623  PHE694  ASN695  SER759  ASP760  ASP761  ALA762  ILE779  LEU786  VAL792 
 PHE793  MET794  SER795  GLU796  ALA797  LYS798  CYS799  TRP800  GLU811  SER814 

> <Gold.Protein.RotatedAtoms>
  152.5319  133.9952  159.7868 H   0  0  0  0  0  0  0  0  0  0  0  0  # atno 6907 bound_to 6896
  151.0180  133.5895  159.2681 H   0  0  0  0  0  0  0  0  0  0  0  0  # atno 6908 bound_to 6896
  151.2945  135.0758  159.9269 H   0  0  0  0  0  0  0  0  0  0  0  0  # atno 6909 bound_to 6896
  146.1044  139.5744  142.9393 H   0  0  0  0  0  0  0  0  0  0  0  0  # atno 7974 bound_to 7965
  155.2353  140.3341  155.4298 H   0  0  0  0  0  0  0  0  0  0  0  0  # atno 8008 bound_to 7997
  156.2278  140.1837  156.7365 H   0  0  0  0  0  0  0  0  0  0  0  0  # atno 8009 bound_to 7997
  154.5927  140.0635  156.9247 H   0  0  0  0  0  0  0  0  0  0  0  0  # atno 8010 bound_to 7997
  139.5155  144.6427  151.5526 H   0  0  0  0  0  0  0  0  0  0  0  0  # atno 10167 bound_to 10162
  157.3501  130.7594  149.6972 H   0  0  0  0  0  0  0  0  0  0  0  0  # atno 10718 bound_to 10713
  154.1872  135.6433  153.5050 H   0  0  0  0  0  0  0  0  0  0  0  0  # atno 10763 bound_to 10752
  153.0044  135.5420  154.6453 H   0  0  0  0  0  0  0  0  0  0  0  0  # atno 10764 bound_to 10752
  154.5832  135.2927  155.0684 H   0  0  0  0  0  0  0  0  0  0  0  0  # atno 10765 bound_to 10752
  140.9992  134.0427  157.3559 H   0  0  0  0  0  0  0  0  0  0  0  0  # atno 11005 bound_to 11000
  145.5790  141.0385  143.2132 LP  0  0  0  0  0  0  0  0  0  0  0  0  # atno 17320 bound_to 7965
  144.7459  139.7323  143.7292 LP  0  0  0  0  0  0  0  0  0  0  0  0  # atno 17321 bound_to 7965
  140.6199  143.9277  150.6518 LP  0  0  0  0  0  0  0  0  0  0  0  0  # atno 17342 bound_to 10162
  140.2548  143.3567  152.1374 LP  0  0  0  0  0  0  0  0  0  0  0  0  # atno 17343 bound_to 10162
  155.9720  130.4143  150.4125 LP  0  0  0  0  0  0  0  0  0  0  0  0  # atno 17370 bound_to 10713
  157.2186  131.0477  151.2559 LP  0  0  0  0  0  0  0  0  0  0  0  0  # atno 17371 bound_to 10713
  139.9030  135.0171  156.7358 LP  0  0  0  0  0  0  0  0  0  0  0  0  # atno 17394 bound_to 11000
  140.6916  133.9385  155.7970 LP  0  0  0  0  0  0  0  0  0  0  0  0  # atno 17395 bound_to 11000

$$$$
