#       Name:                AV-unprocessed.smi:148
#       Creating user name   scv26
#       Creation time:       Thu Mar 26 18:37:17 2020


#       File generated by GOLD software.
#

@<TRIPOS>MOLECULE
AV-unprocessed.smi:148
    73    77     1
SMALL
NO_CHARGES


@<TRIPOS>ATOM
      1 ****        -2.5770  -2.3171   5.1904 O.3            1 S1                 0.0000
      2 ****        -2.6996  -3.2084   4.1017 C.3            1 S1                 0.0000
      3 ****        -2.2745  -2.5220   2.7822 C.3            1 S1                 0.0000
      4 ****        -0.7510  -2.2371   2.7894 C.3            1 S1                 0.0000
      5 ****        -0.2763  -1.5876   1.5802 N.pl3          1 S1                 0.0000
      6 ****         0.5377  -2.1352   0.6135 C.2            1 S1                 0.0000
      7 ****         0.8207  -1.3465  -0.3871 N.2            1 S1                 0.0000
      8 ****         0.1597  -0.1642  -0.0802 C.ar           1 S1                 0.0000
      9 ****         0.0437   1.0961  -0.7232 C.ar           1 S1                 0.0000
     10 ****         0.6397   1.3484  -1.9132 N.3            1 S1                 0.0000
     11 ****        -0.2830   0.9775  -2.9883 C.3            1 S1                 0.0000
     12 ****         0.3916   1.0332  -4.3641 C.3            1 S1                 0.0000
     13 ****         1.0088   2.4151  -4.5943 C.3            1 S1                 0.0000
     14 ****         1.9957   2.7279  -3.4639 C.3            1 S1                 0.0000
     15 ****         1.3218   2.6492  -2.0679 C.3            1 S1                 0.0000
     16 ****         2.3108   2.9740  -0.8995 C.3            1 S1                 0.0000
     17 ****         2.7745   4.4396  -0.8394 C.3            1 S1                 0.0000
     18 ****         4.1199   4.4364  -0.0948 C.3            1 S1                 0.0000
     19 ****         4.4687   2.9664   0.1658 C.3            1 S1                 0.0000
     20 ****         3.6251   2.1776  -0.8364 C.3            1 S1                 0.0000
     21 ****         3.4416   0.8451  -0.4063 O.3            1 S1                 0.0000
     22 ****        -0.7233   2.0463  -0.1239 N.ar           1 S1                 0.0000
     23 ****        -1.3169   1.7861   1.0450 C.ar           1 S1                 0.0000
     24 ****        -1.2848   0.6631   1.7662 N.ar           1 S1                 0.0000
     25 ****        -0.5309  -0.2959   1.1559 C.ar           1 S1                 0.0000
     26 ****        -2.7355  -3.2863   1.5090 C.3            1 S1                 0.0000
     27 ****        -4.2483  -3.4097   1.3173 C.3            1 S1                 0.0000
     28 ****        -4.4648  -4.8872   0.9878 C.3            1 S1                 0.0000
     29 ****        -3.1967  -5.3348   0.5358 O.3            1 S1                 0.0000
     30 ****        -2.2307  -4.7279   1.3764 C.3            1 S1                 0.0000
     31 ****        -1.6732  -2.0502   5.2606 H              1 S1                 0.0000
     32 ****        -2.0905  -4.0898   4.3024 H              1 S1                 0.0000
     33 ****        -3.7358  -3.5413   4.0678 H              1 S1                 0.0000
     34 ****        -2.7833  -1.5574   2.7470 H              1 S1                 0.0000
     35 ****        -0.4851  -1.5992   3.6330 H              1 S1                 0.0000
     36 ****        -0.1964  -3.1672   2.9206 H              1 S1                 0.0000
     37 ****         0.9109  -3.1475   0.6689 H              1 S1                 0.0000
     38 ****        -0.6701  -0.0291  -2.8211 H              1 S1                 0.0000
     39 ****        -1.1406   1.6523  -2.9736 H              1 S1                 0.0000
     40 ****         1.1649   0.2662  -4.4259 H              1 S1                 0.0000
     41 ****        -0.3346   0.8094  -5.1458 H              1 S1                 0.0000
     42 ****         1.5178   2.4431  -5.5581 H              1 S1                 0.0000
     43 ****         0.2267   3.1745  -4.6279 H              1 S1                 0.0000
     44 ****         2.8150   2.0129  -3.5303 H              1 S1                 0.0000
     45 ****         2.4288   3.7115  -3.6374 H              1 S1                 0.0000
     46 ****         0.5403   3.4104  -2.0477 H              1 S1                 0.0000
     47 ****         1.8056   2.8158   0.0535 H              1 S1                 0.0000
     48 ****         2.9221   4.8586  -1.8335 H              1 S1                 0.0000
     49 ****         2.0363   5.0667  -0.3382 H              1 S1                 0.0000
     50 ****         4.8869   4.9052  -0.7126 H              1 S1                 0.0000
     51 ****         4.0660   4.9974   0.8390 H              1 S1                 0.0000
     52 ****         5.5356   2.7643   0.0671 H              1 S1                 0.0000
     53 ****         4.1777   2.7068   1.1852 H              1 S1                 0.0000
     54 ****         4.1392   2.1785  -1.7967 H              1 S1                 0.0000
     55 ****         2.9864   0.8557   0.4217 H              1 S1                 0.0000
     56 ****        -1.9045   2.5915   1.4607 H              1 S1                 0.0000
     57 ****        -2.3823  -2.7465   0.6299 H              1 S1                 0.0000
     58 ****        -4.8344  -3.1047   2.1835 H              1 S1                 0.0000
     59 ****        -4.5662  -2.7842   0.4820 H              1 S1                 0.0000
     60 ****        -4.7443  -5.4439   1.8837 H              1 S1                 0.0000
     61 ****        -5.2376  -5.0420   0.2345 H              1 S1                 0.0000
     62 ****        -1.2318  -4.7838   0.9432 H              1 S1                 0.0000
     63 ****        -2.2173  -5.2533   2.3313 H              1 S1                 0.0000
     64 ****        -2.8599  -2.7742   6.0336 LP             1 S1                 0.0000
     65 ****        -3.1542  -1.5153   5.0361 LP             1 S1                 0.0000
     66 ****         1.3833  -1.5471  -1.1892 LP             1 S1                 0.0000
     67 ****         1.4480   0.7619  -1.9659 LP             1 S1                 0.0000
     68 ****         4.3309   0.4010  -0.2963 LP             1 S1                 0.0000
     69 ****         2.9004   0.3444  -1.0819 LP             1 S1                 0.0000
     70 ****        -0.8430   2.9392  -0.5578 LP             1 S1                 0.0000
     71 ****        -1.7532   0.5407   2.6412 LP             1 S1                 0.0000
     72 ****        -3.0510  -5.0573  -0.4138 LP             1 S1                 0.0000
     73 ****        -3.1374  -6.3307   0.6048 LP             1 S1                 0.0000
@<TRIPOS>BOND
    1    1    2 1     
    2    1   31 1     
    3    2    3 1     
    4    2   32 1     
    5    2   33 1     
    6    3    4 1     
    7    3   26 1     
    8    3   34 1     
    9    4    5 1     
   10    4   35 1     
   11    4   36 1     
   12    5   25 1     
   13    5    6 1     
   14    6    7 2     
   15    6   37 1     
   16    7    8 1     
   17    8   25 ar    
   18    8    9 ar    
   19    9   10 1     
   20    9   22 ar    
   21   10   15 1     
   22   10   11 1     
   23   11   12 1     
   24   11   38 1     
   25   11   39 1     
   26   12   13 1     
   27   12   40 1     
   28   12   41 1     
   29   13   14 1     
   30   13   42 1     
   31   13   43 1     
   32   14   15 1     
   33   14   44 1     
   34   14   45 1     
   35   15   16 1     
   36   15   46 1     
   37   16   20 1     
   38   16   17 1     
   39   16   47 1     
   40   17   18 1     
   41   17   48 1     
   42   17   49 1     
   43   18   19 1     
   44   18   50 1     
   45   18   51 1     
   46   19   20 1     
   47   19   52 1     
   48   19   53 1     
   49   20   21 1     
   50   20   54 1     
   51   21   55 1     
   52   22   23 ar    
   53   23   24 ar    
   54   23   56 1     
   55   24   25 ar    
   56   26   30 1     
   57   26   27 1     
   58   26   57 1     
   59   27   28 1     
   60   27   58 1     
   61   27   59 1     
   62   28   29 1     
   63   28   60 1     
   64   28   61 1     
   65   29   30 1     
   66   30   62 1     
   67   30   63 1     
   68    1   64 1     
   69    1   65 1     
   70    7   66 1     
   71   10   67 1     
   72   21   68 1     
   73   21   69 1     
   74   22   70 1     
   75   24   71 1     
   76   29   72 1     
   77   29   73 1     
@<TRIPOS>SUBSTRUCTURE
      1 S1             1
@<TRIPOS>SET
LONE_PAIRS      STATIC     ATOMS    <user>   **** ""
10 64 65 66 67 68 69 70 71 72 73
DONOR_HYDROGENS      STATIC     ATOMS    <user>   **** ""
2 31 55
ATOM$BLUE        STATIC     ATOMS    COLORGROUP SYSTEM
10 64 65 66 67 68 69 70 71 72 73
ATOM$RED        STATIC     ATOMS    COLORGROUP SYSTEM
2 31 55
