AV-unprocessed.smi:1436|AV-procd|sdf|5859|dock9
  -GOLD-   22720 5533D 1   1.00000     0.00000
 Structure written by MMmdl.
 43 44  0  0  0  0  0  0  0  0  1 V2000
  150.3350  129.4736  154.2889 C   0  0  0  0  0  0  0  0  0  0  0  0
  150.6057  130.7924  154.9536 C   0  0  0  0  0  0  0  0  0  0  0  0
  151.3716  130.8296  156.0307 N   0  0  0  0  0  0  0  0  0  0  0  0
  151.4143  132.1702  156.4234 O   0  0  0  0  0  0  0  0  0  0  0  0
  150.6612  132.8964  155.5592 C   0  0  0  0  0  0  0  0  0  0  0  0
  150.5675  134.3589  155.8341 C   0  0  0  0  0  0  0  0  0  0  0  0
  150.1201  132.0847  154.5993 C   0  0  0  0  0  0  0  0  0  0  0  0
  149.2065  132.4498  153.4545 C   0  0  0  0  0  0  0  0  0  0  0  0
  147.9326  131.6075  153.5274 C   0  0  0  0  0  0  0  0  0  0  0  0
  147.1532  131.7474  154.4693 O   0  0  0  0  0  0  0  0  0  0  0  0
  147.7248  130.7550  152.5115 N   0  0  0  0  0  0  0  0  0  0  0  0
  146.5241  129.9518  152.3012 C   0  0  2  0  0  0  0  0  0  0  0  0
  146.8963  128.5743  151.7325 C   0  0  0  0  0  0  0  0  0  0  0  0
  145.4562  130.6931  151.4568 C   0  0  0  0  0  0  0  0  0  0  0  0
  145.2663  132.1244  151.7208 N   0  0  0  0  0  0  0  0  0  0  0  0
  146.2541  132.9138  150.9910 C   0  0  0  0  0  0  0  0  0  0  0  0
  146.0888  134.4231  151.2364 C   0  0  0  0  0  0  0  0  0  0  0  0
  144.7720  134.8206  150.8716 O   0  0  0  0  0  0  0  0  0  0  0  0
  143.7699  134.1149  151.5949 C   0  0  0  0  0  0  0  0  0  0  0  0
  143.9306  132.6024  151.3666 C   0  0  0  0  0  0  0  0  0  0  0  0
  149.5063  128.9581  154.7746 H   0  0  0  0  0  0  0  0  0  0  0  0
  151.2064  128.8194  154.3300 H   0  0  0  0  0  0  0  0  0  0  0  0
  150.0728  129.6053  153.2392 H   0  0  0  0  0  0  0  0  0  0  0  0
  150.1547  134.5357  156.8274 H   0  0  0  0  0  0  0  0  0  0  0  0
  149.9236  134.8579  155.1103 H   0  0  0  0  0  0  0  0  0  0  0  0
  151.5519  134.8246  155.7884 H   0  0  0  0  0  0  0  0  0  0  0  0
  148.9321  133.5047  153.4750 H   0  0  0  0  0  0  0  0  0  0  0  0
  149.6927  132.2844  152.4924 H   0  0  0  0  0  0  0  0  0  0  0  0
  148.4284  130.7089  151.7889 H   0  0  0  0  0  0  0  0  0  0  0  0
  146.0874  129.7767  153.2861 H   0  0  0  0  0  0  0  0  0  0  0  0
  146.0094  127.9542  151.5999 H   0  0  0  0  0  0  0  0  0  0  0  0
  147.5725  128.0432  152.4033 H   0  0  0  0  0  0  0  0  0  0  0  0
  147.3910  128.6597  150.7644 H   0  0  0  0  0  0  0  0  0  0  0  0
  145.7624  130.5833  150.4156 H   0  0  0  0  0  0  0  0  0  0  0  0
  144.4983  130.1755  151.5259 H   0  0  0  0  0  0  0  0  0  0  0  0
  147.2599  132.6124  151.2857 H   0  0  0  0  0  0  0  0  0  0  0  0
  146.1704  132.7137  149.9215 H   0  0  0  0  0  0  0  0  0  0  0  0
  146.2755  134.6684  152.2830 H   0  0  0  0  0  0  0  0  0  0  0  0
  146.8087  134.9853  150.6415 H   0  0  0  0  0  0  0  0  0  0  0  0
  143.8427  134.3536  152.6569 H   0  0  0  0  0  0  0  0  0  0  0  0
  142.7866  134.4447  151.2592 H   0  0  0  0  0  0  0  0  0  0  0  0
  143.7187  132.3698  150.3221 H   0  0  0  0  0  0  0  0  0  0  0  0
  143.1765  132.0956  151.9650 H   0  0  0  0  0  0  0  0  0  0  0  0
  1  2  1  0  0  0  0
  1 21  1  0  0  0  0
  1 22  1  0  0  0  0
  1 23  1  0  0  0  0
  2  7  1  0  0  0  0
  2  3  2  0  0  0  0
  3  4  1  0  0  0  0
  4  5  1  0  0  0  0
  5  6  1  0  0  0  0
  5  7  2  0  0  0  0
  6 24  1  0  0  0  0
  6 25  1  0  0  0  0
  6 26  1  0  0  0  0
  7  8  1  0  0  0  0
  8  9  1  0  0  0  0
  8 27  1  0  0  0  0
  8 28  1  0  0  0  0
  9 10  2  0  0  0  0
  9 11  1  0  0  0  0
 11 12  1  0  0  0  0
 11 29  1  0  0  0  0
 12 13  1  0  0  0  0
 12 14  1  0  0  0  0
 12 30  1  0  0  0  0
 13 31  1  0  0  0  0
 13 32  1  0  0  0  0
 13 33  1  0  0  0  0
 14 15  1  0  0  0  0
 14 34  1  0  0  0  0
 14 35  1  0  0  0  0
 15 20  1  0  0  0  0
 15 16  1  0  0  0  0
 16 17  1  0  0  0  0
 16 36  1  0  0  0  0
 16 37  1  0  0  0  0
 17 18  1  0  0  0  0
 17 38  1  0  0  0  0
 17 39  1  0  0  0  0
 18 19  1  0  0  0  0
 19 20  1  0  0  0  0
 19 40  1  0  0  0  0
 19 41  1  0  0  0  0
 20 42  1  0  0  0  0
 20 43  1  0  0  0  0
M  END
> <s_m_source_file>
AV-unprocessed.smi

> <i_m_source_file_index>
1436

> <i_lp_mmshare_version>
43012

> <i_f3d_flags>
0

> <s_epik_input>
W0NIM11jMW5vYyhbQ0gzXSljMVtDSDJdQyg9TylbTkhdW0NASF0oW0NIM10pW0NIMl1OMltDSDJdW0NIMl1PW0NIMl1bQ0gyXTI=

> <s_epik_cmdline>
J2VwaWtfcHl0aG9uJywgJy1waCcsICc3LjAnLCAnLXRuJywgJzgnLCAnLW1hJywgJzIwMCcsICctbWV0YWxfYmluZGluZycsICctaW1hZScsICc8aW5maWxlLm1hZT4nLCAnLW9tYWUnLCAnPG91dGZpbGUubWFlPic=

> <r_epik_Ionization_Penalty>
0.234179

> <r_epik_Ionization_Penalty_Charging>
0

> <r_epik_Ionization_Penalty_Neutral>
0.234179

> <r_epik_State_Penalty>
0.224936

> <r_epik_Charging_Adjusted_Penalty>
0.224936

> <i_epik_Tot_Q>
0

> <i_epik_Tot_abs_Q>
0

> <r_epik_Metal_State_Penalty>
0.224936

> <b_epik_Metal_Only>
0

> <s_lp_Force_Field>
OPLS_2005

> <r_lp_Energy>
20.5604

> <b_lp_Chiralities_Consistent>
1

> <s_lp_Variant>
AV-unprocessed.smi:1436-1

> <Gold.Version>
5.8.1

> <Gold.Id.Protein>
6NUR|6NUR_protein|mol2

> <Gold.PLP.Fitness>
37.9858

> <Gold.PLP.PLP>
-36.5578

> <Gold.PLP.part.hbond>
-1.0000

> <Gold.PLP.part.metal>
0.0000

> <Gold.PLP.part.buried>
-6.9317

> <Gold.PLP.part.nonpolar>
-29.2810

> <Gold.PLP.part.repulsive>
0.4285

> <Gold.PLP.ligand.clash>
0.0000

> <Gold.PLP.ligand.torsion>
0.8129

> <Gold.PLP.Chemscore.Hbond>
1.0000

> <Gold.PLP.Chemscore.CHOScore>
0.0000

> <Gold.PLP.Chemscore.Metal>
0.0000

> <Gold.Chemscore.Hbonds>
donor molecule, donor type, donor heavy atom, donor atom, acceptor molecule, acceptor atom, score
      L1  H    11    29       P1 10747  1.00

> <Gold.PLP.Chemscore.Internal.Correction>
0.0538

> <Gold.Rescore>
     Score         DG    S(hbond)    S(metal)    S(lipo)     H(rot)  DE(clash)    DE(int)     intcor
     14.06     -15.02       0.98        0.00      91.01       1.71       0.02       0.95       ----

> <Gold.Chemscore.Fitness>
14.0573

> <Gold.Chemscore.DG>
-15.0236

> <Gold.Chemscore.ZeroCoef>
-5.4800

> <Gold.Chemscore.Hbond>
0.9833

> <Gold.Chemscore.Metal>
0.0000

> <Gold.Chemscore.Lipo>
91.0111

> <Gold.Chemscore.Internal_Hbond>
0.0000

> <Gold.Chemscore.DEClash>
0.0159

> <Gold.Chemscore.DEInternal>
0.9504

> <Gold.Chemscore.Rot>
1.7145

> <Gold.Chemscore.Internal.Correction>
   9.000000E+99

> <Gold.Chemscore.Hbonds>
donor molecule, donor type, donor heavy atom, donor atom, acceptor molecule, acceptor atom, score
      L1  H    11    29       P1 10747  0.94

> <Gold.Chemscore.Hbond.Weighted>
-3.2844

> <Gold.Chemscore.Metal.Weighted>
-0.0000

> <Gold.Chemscore.Lipo.Weighted>
-10.6483

> <Gold.Chemscore.Internal_Hbond.Weighted>
0.0000

> <Gold.Chemscore.DEClash.Weighted>
0.0159

> <Gold.Chemscore.DEInternal.Weighted>
0.9504

> <Gold.Chemscore.Rot.Weighted>
4.3891

> <Gold.Chemscore.Internal.Correction.Weighted>
   9.000000E+99

> <Gold.Protein.RotatedTorsions>
[ 6907 6896 6895 6894 ] final -110.22 input  -60.11 | X-H torsion
[ 7974 7965 7964 7962 ] final -174.36 input  175.53 | X-H torsion
[ 8008 7997 7996 7995 ] final  -66.80 input   59.86 | X-H torsion
[ 10167 10162 10161 10158 ] final -165.92 input  -65.29 | X-H torsion
[ 10718 10713 10712 10709 ] final  -13.93 input   66.30 | X-H torsion
[ 10763 10752 10751 10750 ] final   31.59 input  -60.55 | X-H torsion
[ 11005 11000 10999 10996 ] final   50.36 input  -57.11 | X-H torsion

> <Gold.Protein.ActiveResidues>
 VAL166  LYS551  ARG553  GLY616  TRP617  ASP618  TYR619  PRO620  LYS621  CYS622 
 ASP623  PHE694  ASN695  SER759  ASP760  ASP761  ALA762  ILE779  LEU786  VAL792 
 PHE793  MET794  SER795  GLU796  ALA797  LYS798  CYS799  TRP800  GLU811  SER814 

> <Gold.Protein.RotatedAtoms>
  150.7611  133.9413  159.3456 H   0  0  0  0  0  0  0  0  0  0  0  0  # atno 6907 bound_to 6896
  151.7322  135.0870  160.0311 H   0  0  0  0  0  0  0  0  0  0  0  0  # atno 6908 bound_to 6896
  152.3582  133.6226  159.6031 H   0  0  0  0  0  0  0  0  0  0  0  0  # atno 6909 bound_to 6896
  144.7132  140.1482  143.6386 H   0  0  0  0  0  0  0  0  0  0  0  0  # atno 7974 bound_to 7965
  154.4758  140.0905  156.7258 H   0  0  0  0  0  0  0  0  0  0  0  0  # atno 8008 bound_to 7997
  155.4600  140.3460  155.4293 H   0  0  0  0  0  0  0  0  0  0  0  0  # atno 8009 bound_to 7997
  156.1114  140.1449  156.9321 H   0  0  0  0  0  0  0  0  0  0  0  0  # atno 8010 bound_to 7997
  139.6149  144.0739  152.1878 H   0  0  0  0  0  0  0  0  0  0  0  0  # atno 10167 bound_to 10162
  156.6232  130.4881  149.6156 H   0  0  0  0  0  0  0  0  0  0  0  0  # atno 10718 bound_to 10713
  153.0307  135.6435  154.1224 H   0  0  0  0  0  0  0  0  0  0  0  0  # atno 10763 bound_to 10752
  154.0946  135.2864  155.3266 H   0  0  0  0  0  0  0  0  0  0  0  0  # atno 10764 bound_to 10752
  154.6441  135.5449  153.7887 H   0  0  0  0  0  0  0  0  0  0  0  0  # atno 10765 bound_to 10752
  140.1024  134.5063  155.8750 H   0  0  0  0  0  0  0  0  0  0  0  0  # atno 11005 bound_to 11000
  145.9140  139.2504  143.1421 LP  0  0  0  0  0  0  0  0  0  0  0  0  # atno 17320 bound_to 7965
  145.9688  140.8777  143.0173 LP  0  0  0  0  0  0  0  0  0  0  0  0  # atno 17321 bound_to 7965
  140.0367  144.6039  150.7444 LP  0  0  0  0  0  0  0  0  0  0  0  0  # atno 17342 bound_to 10162
  140.7344  143.2729  151.3833 LP  0  0  0  0  0  0  0  0  0  0  0  0  # atno 17343 bound_to 10162
  156.2294  130.6785  151.1449 LP  0  0  0  0  0  0  0  0  0  0  0  0  # atno 17370 bound_to 10713
  157.7221  131.0674  150.6089 LP  0  0  0  0  0  0  0  0  0  0  0  0  # atno 17371 bound_to 10713
  141.2109  133.6700  156.6545 LP  0  0  0  0  0  0  0  0  0  0  0  0  # atno 17394 bound_to 11000
  140.3201  134.8014  157.4246 LP  0  0  0  0  0  0  0  0  0  0  0  0  # atno 17395 bound_to 11000

$$$$
