AV-unprocessed.smi:157|AV-procd|sdf|1312|dock10
  -GOLD-   2262019 03D 1   1.00000     0.00000
 Structure written by MMmdl.
 36 38  0  0  0  0  0  0  0  0  2 V2000
  151.3963  136.9047  154.0731 O   0  0  0  0  0  0  0  0  0  0  0  0
  150.8072  138.1867  154.0254 C   0  0  0  0  0  0  0  0  0  0  0  0
  150.9491  138.8894  155.3871 C   0  0  2  0  0  0  0  0  0  0  0  0
  150.8716  140.3056  155.2441 O   0  0  0  0  0  0  0  0  0  0  0  0
  151.6843  140.9350  156.1911 C   0  0  1  0  0  0  0  0  0  0  0  0
  150.8360  141.8541  157.0086 N   0  0  0  0  0  0  0  0  0  0  0  0
  149.5046  142.0356  156.8821 C   0  0  0  0  0  0  0  0  0  0  0  0
  148.9898  142.9057  157.7343 N   0  3  0  0  0  0  0  0  0  0  0  0
  150.0365  143.3607  158.5082 C   0  0  0  0  0  0  0  0  0  0  0  0
  151.1722  142.6870  158.0511 C   0  0  0  0  0  0  0  0  0  0  0  0
  152.5014  142.7604  158.4956 N   0  0  0  0  0  0  0  0  0  0  0  0
  152.8382  143.2909  159.6261 C   0  0  0  0  0  0  0  0  0  0  0  0
  152.0468  143.9471  160.5540 N   0  0  0  0  0  0  0  0  0  0  0  0
  151.0721  144.9605  160.1918 C   0  0  0  0  0  0  0  0  0  0  0  0
  149.7921  144.3883  159.5689 C   0  0  2  0  0  0  0  0  0  0  0  0
  148.9591  143.9113  160.6055 O   0  0  0  0  0  0  0  0  0  0  0  0
  152.2944  139.8462  157.0778 C   0  0  0  0  0  0  0  0  0  0  0  0
  152.2495  138.6388  156.1652 C   0  0  2  0  0  0  0  0  0  0  0  0
  153.3868  138.6046  155.3238 O   0  0  0  0  0  0  0  0  0  0  0  0
  150.1099  138.6022  156.0235 H   0  0  0  0  0  0  0  0  0  0  0  0
  152.4226  141.5642  155.6930 H   0  0  0  0  0  0  0  0  0  0  0  0
  149.2518  145.2159  159.1078 H   0  0  0  0  0  0  0  0  0  0  0  0
  152.2094  137.7059  156.7286 H   0  0  0  0  0  0  0  0  0  0  0  0
  151.3159  136.5054  153.2202 H   0  0  0  0  0  0  0  0  0  0  0  0
  151.2576  138.7710  153.2228 H   0  0  0  0  0  0  0  0  0  0  0  0
  149.7521  138.0690  153.7769 H   0  0  0  0  0  0  0  0  0  0  0  0
  148.9173  141.5147  156.1472 H   0  0  0  0  0  0  0  0  0  0  0  0
  153.8829  143.2492  159.9376 H   0  0  0  0  0  0  0  0  0  0  0  0
  152.4189  144.1062  161.4798 H   0  0  0  0  0  0  0  0  0  0  0  0
  150.8387  145.5726  161.0639 H   0  0  0  0  0  0  0  0  0  0  0  0
  151.5478  145.6284  159.4719 H   0  0  0  0  0  0  0  0  0  0  0  0
  148.8595  144.5918  161.2532 H   0  0  0  0  0  0  0  0  0  0  0  0
  153.2932  140.1214  157.4191 H   0  0  0  0  0  0  0  0  0  0  0  0
  151.6584  139.6771  157.9484 H   0  0  0  0  0  0  0  0  0  0  0  0
  153.7147  137.7183  155.2997 H   0  0  0  0  0  0  0  0  0  0  0  0
  148.0186  143.1839  157.7962 H   0  0  0  0  0  0  0  0  0  0  0  0
  1  2  1  0  0  0  0
  1 24  1  0  0  0  0
  2  3  1  0  0  0  0
  2 25  1  0  0  0  0
  2 26  1  0  0  0  0
  3 20  1  0  0  0  0
  3 18  1  0  0  0  0
  3  4  1  0  0  0  0
  4  5  1  0  0  0  0
  5 21  1  0  0  0  0
  5  6  1  0  0  0  0
  5 17  1  0  0  0  0
  6 10  1  0  0  0  0
  6  7  1  0  0  0  0
  7  8  2  0  0  0  0
  7 27  1  0  0  0  0
  8  9  1  0  0  0  0
  8 36  1  0  0  0  0
  9 15  1  0  0  0  0
  9 10  2  0  0  0  0
 10 11  1  0  0  0  0
 11 12  2  0  0  0  0
 12 13  1  0  0  0  0
 12 28  1  0  0  0  0
 13 14  1  0  0  0  0
 13 29  1  0  0  0  0
 14 15  1  0  0  0  0
 14 30  1  0  0  0  0
 14 31  1  0  0  0  0
 15 22  1  0  0  0  0
 15 16  1  0  0  0  0
 16 32  1  0  0  0  0
 17 18  1  0  0  0  0
 17 33  1  0  0  0  0
 17 34  1  0  0  0  0
 18 23  1  0  0  0  0
 18 19  1  0  0  0  0
 19 35  1  0  0  0  0
M  CHG  1   8   1
M  END
> <s_m_source_file>
AV-unprocessed.smi

> <i_m_source_file_index>
157

> <i_lp_mmshare_version>
43012

> <i_f3d_flags>
0

> <s_epik_input>
W09IXVtDSDJdW0NASF0xT1tDQEhdKFtDSDJdW0NAQEhdMVtPSF0pbihbY0hdbjIpYyhjMjMpTj1bQ0hdW05IXVtDSDJdW0NASF0zW09IXQ==

> <s_epik_cmdline>
J2VwaWtfcHl0aG9uJywgJy1waCcsICc3LjAnLCAnLXRuJywgJzgnLCAnLW1hJywgJzIwMCcsICctbWV0YWxfYmluZGluZycsICctaW1hZScsICc8aW5maWxlLm1hZT4nLCAnLW9tYWUnLCAnPG91dGZpbGUubWFlPic=

> <r_epik_Ionization_Penalty>
1.68594

> <r_epik_Ionization_Penalty_Charging>
0

> <r_epik_Ionization_Penalty_Neutral>
1.68594

> <r_epik_State_Penalty>
1.79006

> <r_epik_Charging_Adjusted_Penalty>
1.79006

> <i_epik_Tot_Q>
1

> <i_epik_Tot_abs_Q>
1

> <r_epik_Metal_State_Penalty>
5.85324

> <b_epik_Metal_Only>
0

> <s_epik_Chemistry_Notes>
This compound has an imine and may undergo hydrolysis. This compound contains an acetal/aminal-like group ( X-CH(R)-Y where X, Y are N, S, or O) that may be acid/base labile, releasing an aldehyde.

> <s_lp_Force_Field>
OPLS_2005

> <r_lp_Energy>
55.0153

> <b_lp_Chiralities_Consistent>
1

> <s_lp_Variant>
AV-unprocessed.smi:157-22

> <Gold.Version>
5.8.1

> <Gold.Id.Protein>
6NUR|6NUR_protein|mol2

> <Gold.PLP.Fitness>
44.8328

> <Gold.PLP.PLP>
-33.1304

> <Gold.PLP.part.hbond>
-6.2450

> <Gold.PLP.part.metal>
0.0000

> <Gold.PLP.part.buried>
-4.2821

> <Gold.PLP.part.nonpolar>
-23.0000

> <Gold.PLP.part.repulsive>
0.1535

> <Gold.PLP.ligand.clash>
0.0000

> <Gold.PLP.ligand.torsion>
0.2592

> <Gold.PLP.Chemscore.Hbond>
4.0715

> <Gold.PLP.Chemscore.CHOScore>
0.0000

> <Gold.PLP.Chemscore.Metal>
0.0000

> <Gold.Chemscore.Hbonds>
donor molecule, donor type, donor heavy atom, donor atom, acceptor molecule, acceptor atom, score
      L1  H     1    24       P1  7949  1.00
      P1  H  6933  6944       L1    16  0.64
      P1  H  7989  7998       L1     4  1.00
      P1  H  7997  8010       L1    19  0.94
      P1  H 10752 10765       L1     1  0.44

> <Gold.PLP.Chemscore.Internal.Correction>
0.0063

> <Gold.Rescore>
     Score         DG    S(hbond)    S(metal)    S(lipo)     H(rot)  DE(clash)    DE(int)     intcor
     10.41     -10.90       2.83        0.00      45.66       3.67       0.08       0.41       ----

> <Gold.Chemscore.Fitness>
10.4070

> <Gold.Chemscore.DG>
-10.8963

> <Gold.Chemscore.ZeroCoef>
-5.4800

> <Gold.Chemscore.Hbond>
2.8319

> <Gold.Chemscore.Metal>
0.0000

> <Gold.Chemscore.Lipo>
45.6640

> <Gold.Chemscore.Internal_Hbond>
0.0000

> <Gold.Chemscore.DEClash>
0.0795

> <Gold.Chemscore.DEInternal>
0.4097

> <Gold.Chemscore.Rot>
3.6659

> <Gold.Chemscore.Internal.Correction>
   9.000000E+99

> <Gold.Chemscore.Hbonds>
donor molecule, donor type, donor heavy atom, donor atom, acceptor molecule, acceptor atom, score
      L1  H     1    24       P1  7949  0.70
      P1  H  6933  6944       L1    16  0.35
      P1  H  7989  7998       L1     4  0.34
      P1  H  7997  8010       L1    19  0.35
      P1  H 10752 10765       L1     1  0.02

> <Gold.Chemscore.Hbond.Weighted>
-9.4584

> <Gold.Chemscore.Metal.Weighted>
-0.0000

> <Gold.Chemscore.Lipo.Weighted>
-5.3427

> <Gold.Chemscore.Internal_Hbond.Weighted>
0.0000

> <Gold.Chemscore.DEClash.Weighted>
0.0795

> <Gold.Chemscore.DEInternal.Weighted>
0.4097

> <Gold.Chemscore.Rot.Weighted>
9.3848

> <Gold.Chemscore.Internal.Correction.Weighted>
   9.000000E+99

> <Gold.Protein.RotatedTorsions>
[ 6907 6896 6895 6894 ] final  127.86 input  -60.11 | X-H torsion
[ 7974 7965 7964 7962 ] final  110.09 input  175.53 | X-H torsion
[ 8008 7997 7996 7995 ] final  100.06 input   59.86 | X-H torsion
[ 10167 10162 10161 10158 ] final   92.97 input  -65.29 | X-H torsion
[ 10718 10713 10712 10709 ] final -155.75 input   66.30 | X-H torsion
[ 10763 10752 10751 10750 ] final  179.25 input  -60.55 | X-H torsion
[ 11005 11000 10999 10996 ] final -142.46 input  -57.11 | X-H torsion

> <Gold.Protein.ActiveResidues>
 VAL166  LYS551  ARG553  GLY616  TRP617  ASP618  TYR619  PRO620  LYS621  CYS622 
 ASP623  PHE694  ASN695  SER759  ASP760  ASP761  ALA762  ILE779  LEU786  VAL792 
 PHE793  MET794  SER795  GLU796  ALA797  LYS798  CYS799  TRP800  GLU811  SER814 

> <Gold.Protein.RotatedAtoms>
  152.3773  133.6499  159.6133 H   0  0  0  0  0  0  0  0  0  0  0  0  # atno 6907 bound_to 6896
  150.7714  133.9171  159.3396 H   0  0  0  0  0  0  0  0  0  0  0  0  # atno 6908 bound_to 6896
  151.6983  135.0936  160.0297 H   0  0  0  0  0  0  0  0  0  0  0  0  # atno 6909 bound_to 6896
  145.2594  139.2708  143.4025 H   0  0  0  0  0  0  0  0  0  0  0  0  # atno 7974 bound_to 7965
  156.1166  140.3219  155.8148 H   0  0  0  0  0  0  0  0  0  0  0  0  # atno 8008 bound_to 7997
  155.4579  140.0537  157.3011 H   0  0  0  0  0  0  0  0  0  0  0  0  # atno 8009 bound_to 7997
  154.4797  140.2048  155.9806 H   0  0  0  0  0  0  0  0  0  0  0  0  # atno 8010 bound_to 7997
  139.8225  144.6724  150.9501 H   0  0  0  0  0  0  0  0  0  0  0  0  # atno 10167 bound_to 10162
  156.5171  130.8461  151.2668 H   0  0  0  0  0  0  0  0  0  0  0  0  # atno 10718 bound_to 10713
  154.5182  135.2792  155.1285 H   0  0  0  0  0  0  0  0  0  0  0  0  # atno 10763 bound_to 10752
  154.2853  135.6277  153.5367 H   0  0  0  0  0  0  0  0  0  0  0  0  # atno 10764 bound_to 10752
  152.9931  135.5661  154.5664 H   0  0  0  0  0  0  0  0  0  0  0  0  # atno 10765 bound_to 10752
  140.8223  134.2617  157.4895 H   0  0  0  0  0  0  0  0  0  0  0  0  # atno 11005 bound_to 11000
  146.3279  140.3007  142.8620 LP  0  0  0  0  0  0  0  0  0  0  0  0  # atno 17320 bound_to 7965
  144.9432  140.8100  143.5618 LP  0  0  0  0  0  0  0  0  0  0  0  0  # atno 17321 bound_to 7965
  140.7812  143.4078  151.1043 LP  0  0  0  0  0  0  0  0  0  0  0  0  # atno 17342 bound_to 10162
  139.7737  143.8456  152.3125 LP  0  0  0  0  0  0  0  0  0  0  0  0  # atno 17343 bound_to 10162
  157.7442  130.9930  150.2656 LP  0  0  0  0  0  0  0  0  0  0  0  0  # atno 17370 bound_to 10713
  156.3185  130.3782  149.7597 LP  0  0  0  0  0  0  0  0  0  0  0  0  # atno 17371 bound_to 10713
  139.8708  134.9542  156.4167 LP  0  0  0  0  0  0  0  0  0  0  0  0  # atno 17394 bound_to 11000
  140.9086  133.7728  155.9765 LP  0  0  0  0  0  0  0  0  0  0  0  0  # atno 17395 bound_to 11000

$$$$
