AV-unprocessed.smi:2330|AV-procd|sdf|9313|dock8
  -GOLD-   2272012533D 1   1.00000     0.00000
 Structure written by MMmdl.
 42 43  0  0  0  0  0  0  0  0  1 V2000
  149.1949  140.6940  154.7246 C   0  0  0  0  0  0  0  0  0  0  0  0
  149.9614  139.4742  155.2545 C   0  0  2  0  0  0  0  0  0  0  0  0
  150.6905  138.7294  154.1199 C   0  0  0  0  0  0  0  0  0  0  0  0
  151.4637  137.5079  154.6480 C   0  0  0  0  0  0  0  0  0  0  0  0
  150.5631  136.5436  155.4441 C   0  0  2  0  0  0  0  0  0  0  0  0
  149.6336  135.8586  154.5468 N   0  0  0  0  0  0  0  0  0  0  0  0
  148.7883  134.8761  154.8876 C   0  0  0  0  0  0  0  0  0  0  0  0
  148.6639  134.4280  156.0275 O   0  0  0  0  0  0  0  0  0  0  0  0
  148.1055  134.4239  153.8274 N   0  0  0  0  0  0  0  0  0  0  0  0
  147.1677  133.3047  153.8495 C   0  0  0  0  0  0  0  0  0  0  0  0
  146.9130  132.7074  152.4474 C   0  0  1  0  0  0  0  0  0  0  0  0
  146.6061  131.2036  152.4842 C   0  0  0  0  0  0  0  0  0  0  0  0
  145.8968  133.4738  151.6552 C   0  0  0  0  0  0  0  0  0  0  0  0
  144.8966  132.9012  150.9776 N   0  0  0  0  0  0  0  0  0  0  0  0
  144.0773  133.8364  150.3408 C   0  0  0  0  0  0  0  0  0  0  0  0
  144.4660  135.1353  150.5471 C   0  0  0  0  0  0  0  0  0  0  0  0
  145.8844  135.2324  151.5536 S   0  0  0  0  0  0  0  0  0  0  0  0
  149.7963  137.2885  156.5542 C   0  0  0  0  0  0  0  0  0  0  0  0
  149.0314  138.5117  156.0177 C   0  0  0  0  0  0  0  0  0  0  0  0
  148.4202  140.3990  154.0161 H   0  0  0  0  0  0  0  0  0  0  0  0
  149.8649  141.3881  154.2163 H   0  0  0  0  0  0  0  0  0  0  0  0
  148.7134  141.2383  155.5374 H   0  0  0  0  0  0  0  0  0  0  0  0
  150.7146  139.8392  155.9545 H   0  0  0  0  0  0  0  0  0  0  0  0
  149.9707  138.4101  153.3650 H   0  0  0  0  0  0  0  0  0  0  0  0
  151.3823  139.4052  153.6156 H   0  0  0  0  0  0  0  0  0  0  0  0
  151.9418  136.9813  153.8209 H   0  0  0  0  0  0  0  0  0  0  0  0
  152.2725  137.8535  155.2932 H   0  0  0  0  0  0  0  0  0  0  0  0
  151.2118  135.8086  155.9237 H   0  0  0  0  0  0  0  0  0  0  0  0
  149.6529  136.1459  153.5792 H   0  0  0  0  0  0  0  0  0  0  0  0
  148.2750  134.8565  152.9311 H   0  0  0  0  0  0  0  0  0  0  0  0
  147.5182  132.5342  154.5381 H   0  0  0  0  0  0  0  0  0  0  0  0
  146.2303  133.6805  154.2603 H   0  0  0  0  0  0  0  0  0  0  0  0
  147.8503  132.8023  151.8976 H   0  0  0  0  0  0  0  0  0  0  0  0
  146.5323  130.7934  151.4766 H   0  0  0  0  0  0  0  0  0  0  0  0
  145.6640  131.0036  152.9954 H   0  0  0  0  0  0  0  0  0  0  0  0
  147.3905  130.6560  153.0072 H   0  0  0  0  0  0  0  0  0  0  0  0
  143.2356  133.4887  149.7604 H   0  0  0  0  0  0  0  0  0  0  0  0
  144.0061  136.0369  150.1702 H   0  0  0  0  0  0  0  0  0  0  0  0
  149.1086  136.6087  157.0588 H   0  0  0  0  0  0  0  0  0  0  0  0
  150.5045  137.6204  157.3145 H   0  0  0  0  0  0  0  0  0  0  0  0
  148.5561  139.0344  156.8484 H   0  0  0  0  0  0  0  0  0  0  0  0
  148.2239  138.1808  155.3632 H   0  0  0  0  0  0  0  0  0  0  0  0
  1  2  1  0  0  0  0
  1 20  1  0  0  0  0
  1 21  1  0  0  0  0
  1 22  1  0  0  0  0
  2 19  1  0  0  0  0
  2  3  1  0  0  0  0
  2 23  1  0  0  0  0
  3  4  1  0  0  0  0
  3 24  1  0  0  0  0
  3 25  1  0  0  0  0
  4  5  1  0  0  0  0
  4 26  1  0  0  0  0
  4 27  1  0  0  0  0
  5  6  1  0  0  0  0
  5 18  1  0  0  0  0
  5 28  1  0  0  0  0
  6  7  1  0  0  0  0
  6 29  1  0  0  0  0
  7  8  2  0  0  0  0
  7  9  1  0  0  0  0
  9 10  1  0  0  0  0
  9 30  1  0  0  0  0
 10 11  1  0  0  0  0
 10 31  1  0  0  0  0
 10 32  1  0  0  0  0
 11 12  1  0  0  0  0
 11 13  1  0  0  0  0
 11 33  1  0  0  0  0
 12 34  1  0  0  0  0
 12 35  1  0  0  0  0
 12 36  1  0  0  0  0
 13 17  1  0  0  0  0
 13 14  2  0  0  0  0
 14 15  1  0  0  0  0
 15 16  2  0  0  0  0
 15 37  1  0  0  0  0
 16 17  1  0  0  0  0
 16 38  1  0  0  0  0
 18 19  1  0  0  0  0
 18 39  1  0  0  0  0
 18 40  1  0  0  0  0
 19 41  1  0  0  0  0
 19 42  1  0  0  0  0
M  END
> <s_m_source_file>
AV-unprocessed.smi

> <i_m_source_file_index>
2330

> <i_lp_mmshare_version>
43012

> <i_f3d_flags>
0

> <s_epik_input>
W0NIM11bQ0BASF0xW0NIMl1bQ0gyXVtDQEhdKFtDSDJdW0NIMl0xKVtOSF1DKD1PKVtOSF1bQ0gyXVtDQEhdKFtDSDNdKWMybltjSF1bY0hdczI=

> <s_epik_cmdline>
J2VwaWtfcHl0aG9uJywgJy1waCcsICc3LjAnLCAnLXRuJywgJzgnLCAnLW1hJywgJzIwMCcsICctbWV0YWxfYmluZGluZycsICctaW1hZScsICc8aW5maWxlLm1hZT4nLCAnLW9tYWUnLCAnPG91dGZpbGUubWFlPic=

> <r_lp_tautomer_probability>
1

> <r_epik_Ionization_Penalty>
0.000331107

> <r_epik_Ionization_Penalty_Charging>
0

> <r_epik_Ionization_Penalty_Neutral>
0.000331107

> <r_epik_State_Penalty>
-0

> <r_epik_Charging_Adjusted_Penalty>
0

> <i_epik_Tot_Q>
0

> <i_epik_Tot_abs_Q>
0

> <r_epik_Metal_State_Penalty>
-0

> <b_epik_Metal_Only>
0

> <s_lp_Force_Field>
OPLS_2005

> <r_lp_Energy>
-2.32189

> <b_lp_Chiralities_Consistent>
1

> <s_lp_Variant>
AV-unprocessed.smi:2330-4

> <Gold.Version>
5.8.1

> <Gold.Id.Protein>
6NUR|6NUR_protein|mol2

> <Gold.PLP.Fitness>
39.1809

> <Gold.PLP.PLP>
-28.4378

> <Gold.PLP.part.hbond>
-2.0000

> <Gold.PLP.part.metal>
0.0000

> <Gold.PLP.part.buried>
-3.7226

> <Gold.PLP.part.nonpolar>
-23.6597

> <Gold.PLP.part.repulsive>
0.1795

> <Gold.PLP.ligand.clash>
0.0000

> <Gold.PLP.ligand.torsion>
0.6785

> <Gold.PLP.Chemscore.Hbond>
2.0000

> <Gold.PLP.Chemscore.CHOScore>
1.9945

> <Gold.PLP.Chemscore.Metal>
0.0000

> <Gold.Chemscore.Hbonds>
donor molecule, donor type, donor heavy atom, donor atom, acceptor molecule, acceptor atom, score
      L1  H     6    29       P1  7948  1.00
      L1  H     9    30       P1  7948  1.00
      L1  C    15    37       P1 10186  1.00
      L1  C    16    38       P1 10171  0.94

> <Gold.PLP.Chemscore.Internal.Correction>
0.1165

> <Gold.Rescore>
     Score         DG    S(hbond)    S(metal)    S(lipo)     H(rot)  DE(clash)    DE(int)     intcor
     16.01     -16.62       1.79        0.00      76.00       1.45       0.01       0.60       ----

> <Gold.Chemscore.Fitness>
16.0105

> <Gold.Chemscore.DG>
-16.6223

> <Gold.Chemscore.ZeroCoef>
-5.4800

> <Gold.Chemscore.Hbond>
1.7879

> <Gold.Chemscore.Metal>
0.0000

> <Gold.Chemscore.Lipo>
75.9988

> <Gold.Chemscore.Internal_Hbond>
0.0000

> <Gold.Chemscore.DEClash>
0.0074

> <Gold.Chemscore.DEInternal>
0.6044

> <Gold.Chemscore.Rot>
1.4536

> <Gold.Chemscore.Internal.Correction>
   9.000000E+99

> <Gold.Chemscore.Hbonds>
donor molecule, donor type, donor heavy atom, donor atom, acceptor molecule, acceptor atom, score
      L1  H     6    29       P1  7948  0.34
      L1  H     9    30       P1  7948  0.72

> <Gold.Chemscore.Hbond.Weighted>
-5.9716

> <Gold.Chemscore.Metal.Weighted>
-0.0000

> <Gold.Chemscore.Lipo.Weighted>
-8.8919

> <Gold.Chemscore.Internal_Hbond.Weighted>
0.0000

> <Gold.Chemscore.DEClash.Weighted>
0.0074

> <Gold.Chemscore.DEInternal.Weighted>
0.6044

> <Gold.Chemscore.Rot.Weighted>
3.7212

> <Gold.Chemscore.Internal.Correction.Weighted>
   9.000000E+99

> <Gold.Protein.RotatedTorsions>
[ 6907 6896 6895 6894 ] final -144.84 input  -60.11 | X-H torsion
[ 7974 7965 7964 7962 ] final -103.72 input  175.53 | X-H torsion
[ 8008 7997 7996 7995 ] final  -16.72 input   59.86 | X-H torsion
[ 10167 10162 10161 10158 ] final  148.78 input  -65.29 | X-H torsion
[ 10718 10713 10712 10709 ] final  -61.11 input   66.30 | X-H torsion
[ 10763 10752 10751 10750 ] final   77.67 input  -60.55 | X-H torsion
[ 11005 11000 10999 10996 ] final   17.60 input  -57.11 | X-H torsion

> <Gold.Protein.ActiveResidues>
 VAL166  LYS551  ARG553  GLY616  TRP617  ASP618  TYR619  PRO620  LYS621  CYS622 
 ASP623  PHE694  ASN695  SER759  ASP760  ASP761  ALA762  ILE779  LEU786  VAL792 
 PHE793  MET794  SER795  GLU796  ALA797  LYS798  CYS799  TRP800  GLU811  SER814 

> <Gold.Protein.RotatedAtoms>
  151.1196  133.5114  159.2602 H   0  0  0  0  0  0  0  0  0  0  0  0  # atno 6907 bound_to 6896
  151.1876  135.0388  159.8829 H   0  0  0  0  0  0  0  0  0  0  0  0  # atno 6908 bound_to 6896
  152.5455  134.1040  159.8383 H   0  0  0  0  0  0  0  0  0  0  0  0  # atno 6909 bound_to 6896
  145.2523  140.9242  143.3088 H   0  0  0  0  0  0  0  0  0  0  0  0  # atno 7974 bound_to 7965
  154.5032  140.2162  155.9305 H   0  0  0  0  0  0  0  0  0  0  0  0  # atno 8008 bound_to 7997
  156.1460  140.3170  155.8538 H   0  0  0  0  0  0  0  0  0  0  0  0  # atno 8009 bound_to 7997
  155.4030  140.0485  157.3026 H   0  0  0  0  0  0  0  0  0  0  0  0  # atno 8010 bound_to 7997
  139.4870  144.5653  151.7156 H   0  0  0  0  0  0  0  0  0  0  0  0  # atno 10167 bound_to 10162
  156.0944  130.4195  150.0948 H   0  0  0  0  0  0  0  0  0  0  0  0  # atno 10718 bound_to 10713
  153.0816  135.4905  154.8514 H   0  0  0  0  0  0  0  0  0  0  0  0  # atno 10763 bound_to 10752
  154.7158  135.3029  154.9128 H   0  0  0  0  0  0  0  0  0  0  0  0  # atno 10764 bound_to 10752
  153.9808  135.6790  153.4803 H   0  0  0  0  0  0  0  0  0  0  0  0  # atno 10765 bound_to 10752
  140.4342  134.1389  155.7683 H   0  0  0  0  0  0  0  0  0  0  0  0  # atno 11005 bound_to 11000
  144.9492  139.4101  143.6411 LP  0  0  0  0  0  0  0  0  0  0  0  0  # atno 17320 bound_to 7965
  146.3299  139.8491  142.8876 LP  0  0  0  0  0  0  0  0  0  0  0  0  # atno 17321 bound_to 7965
  140.5230  144.0849  150.6028 LP  0  0  0  0  0  0  0  0  0  0  0  0  # atno 17342 bound_to 10162
  140.3813  143.2801  152.0167 LP  0  0  0  0  0  0  0  0  0  0  0  0  # atno 17343 bound_to 10162
  156.8951  130.9601  151.3583 LP  0  0  0  0  0  0  0  0  0  0  0  0  # atno 17370 bound_to 10713
  157.6101  130.8576  149.8938 LP  0  0  0  0  0  0  0  0  0  0  0  0  # atno 17371 bound_to 10713
  141.1733  133.8565  157.1502 LP  0  0  0  0  0  0  0  0  0  0  0  0  # atno 17394 bound_to 11000
  140.0114  134.9986  157.0402 LP  0  0  0  0  0  0  0  0  0  0  0  0  # atno 17395 bound_to 11000

$$$$
