AV-unprocessed.smi:265|AV-procd|sdf|2016|dock2
  -GOLD-   2262021213D 1   1.00000     0.00000
 Structure written by MMmdl.
 52 56  0  0  0  0  0  0  0  0  1 V2000
  149.2102  136.7436  157.6949 C   0  0  0  0  0  0  0  0  0  0  0  0
  149.7948  135.6231  156.8210 C   0  0  1  0  0  0  0  0  0  0  0  0
  149.1251  134.3845  157.0524 O   0  0  0  0  0  0  0  0  0  0  0  0
  148.8146  133.7488  155.8177 C   0  0  0  0  0  0  0  0  0  0  0  0
  149.7077  134.4249  154.7827 C   0  0  0  0  0  0  0  0  0  0  0  0
  149.7764  135.8576  155.2934 C   0  0  1  0  0  0  0  0  0  0  0  0
  148.5873  136.5303  154.9131 O   0  0  0  0  0  0  0  0  0  0  0  0
  150.9454  136.7085  154.7337 C   0  0  0  0  0  0  0  0  0  0  0  0
  151.2344  137.9244  155.4778 N   0  0  0  0  0  0  0  0  0  0  0  0
  152.1530  138.0734  156.4936 C   0  0  0  0  0  0  0  0  0  0  0  0
  152.2198  139.2682  157.0151 N   0  0  0  0  0  0  0  0  0  0  0  0
  151.2609  139.9914  156.3182 C   0  0  0  0  0  0  0  0  0  0  0  0
  150.7998  141.3316  156.3790 C   0  0  0  0  0  0  0  0  0  0  0  0
  151.3137  142.2240  157.2507 N   0  0  0  0  0  0  0  0  0  0  0  0
  150.7602  143.5692  157.0952 C   0  0  0  0  0  0  0  0  0  0  0  0
  151.5350  144.5892  157.9515 C   0  0  0  0  0  0  0  0  0  0  0  0
  151.5869  144.1163  159.4115 C   0  0  2  0  0  0  0  0  0  0  0  0
  152.3909  144.9649  160.2169 O   0  0  0  0  0  0  0  0  0  0  0  0
  152.3392  144.6445  161.6116 C   0  0  0  0  0  0  0  0  0  0  0  0
  152.4976  143.1334  161.8875 C   0  0  0  0  0  0  0  0  0  0  0  0
  152.7103  142.7396  163.0319 O   0  0  0  0  0  0  0  0  0  0  0  0
  152.3545  142.2819  160.8587 N   0  0  0  0  0  0  0  0  0  0  0  0
  152.2243  142.7190  159.4755 C   0  0  1  0  0  0  0  0  0  0  0  0
  151.4068  141.7339  158.6256 C   0  0  0  0  0  0  0  0  0  0  0  0
  149.8130  141.7081  155.5240 N   0  0  0  0  0  0  0  0  0  0  0  0
  149.3056  140.8206  154.6626 C   0  0  0  0  0  0  0  0  0  0  0  0
  149.6338  139.5369  154.4952 N   0  0  0  0  0  0  0  0  0  0  0  0
  150.6276  139.1621  155.3519 C   0  0  0  0  0  0  0  0  0  0  0  0
  150.5698  144.0946  159.8096 H   0  0  0  0  0  0  0  0  0  0  0  0
  153.2357  142.7710  159.0679 H   0  0  0  0  0  0  0  0  0  0  0  0
  149.7212  137.6891  157.5128 H   0  0  0  0  0  0  0  0  0  0  0  0
  149.3219  136.5052  158.7526 H   0  0  0  0  0  0  0  0  0  0  0  0
  148.1469  136.8917  157.5042 H   0  0  0  0  0  0  0  0  0  0  0  0
  150.8189  135.4439  157.1441 H   0  0  0  0  0  0  0  0  0  0  0  0
  148.9756  132.6721  155.8713 H   0  0  0  0  0  0  0  0  0  0  0  0
  147.7625  133.9227  155.5880 H   0  0  0  0  0  0  0  0  0  0  0  0
  150.6882  133.9507  154.8144 H   0  0  0  0  0  0  0  0  0  0  0  0
  149.3275  134.3392  153.7640 H   0  0  0  0  0  0  0  0  0  0  0  0
  148.5927  136.6418  153.9748 H   0  0  0  0  0  0  0  0  0  0  0  0
  151.8581  136.1111  154.7065 H   0  0  0  0  0  0  0  0  0  0  0  0
  150.7389  136.9887  153.6998 H   0  0  0  0  0  0  0  0  0  0  0  0
  152.7802  137.2625  156.8348 H   0  0  0  0  0  0  0  0  0  0  0  0
  150.7954  143.8654  156.0458 H   0  0  0  0  0  0  0  0  0  0  0  0
  149.7094  143.5623  157.3890 H   0  0  0  0  0  0  0  0  0  0  0  0
  152.5478  144.7011  157.5619 H   0  0  0  0  0  0  0  0  0  0  0  0
  151.0641  145.5702  157.8868 H   0  0  0  0  0  0  0  0  0  0  0  0
  153.1218  145.1979  162.1309 H   0  0  0  0  0  0  0  0  0  0  0  0
  151.3842  144.9763  162.0209 H   0  0  0  0  0  0  0  0  0  0  0  0
  152.4233  141.2900  161.0346 H   0  0  0  0  0  0  0  0  0  0  0  0
  150.4061  141.6156  159.0443 H   0  0  0  0  0  0  0  0  0  0  0  0
  151.8795  140.7506  158.6332 H   0  0  0  0  0  0  0  0  0  0  0  0
  148.5241  141.1915  154.0156 H   0  0  0  0  0  0  0  0  0  0  0  0
  1  2  1  0  0  0  0
  1 31  1  0  0  0  0
  1 32  1  0  0  0  0
  1 33  1  0  0  0  0
  2  6  1  0  0  0  0
  2  3  1  0  0  0  0
  2 34  1  0  0  0  0
  3  4  1  0  0  0  0
  4  5  1  0  0  0  0
  4 35  1  0  0  0  0
  4 36  1  0  0  0  0
  5  6  1  0  0  0  0
  5 37  1  0  0  0  0
  5 38  1  0  0  0  0
  6  7  1  0  0  0  0
  6  8  1  0  0  0  0
  7 39  1  0  0  0  0
  8  9  1  0  0  0  0
  8 40  1  0  0  0  0
  8 41  1  0  0  0  0
  9 28  1  0  0  0  0
  9 10  1  0  0  0  0
 10 11  2  0  0  0  0
 10 42  1  0  0  0  0
 11 12  1  0  0  0  0
 12 28  2  0  0  0  0
 12 13  1  0  0  0  0
 13 14  1  0  0  0  0
 13 25  2  0  0  0  0
 14 24  1  0  0  0  0
 14 15  1  0  0  0  0
 15 16  1  0  0  0  0
 15 43  1  0  0  0  0
 15 44  1  0  0  0  0
 16 17  1  0  0  0  0
 16 45  1  0  0  0  0
 16 46  1  0  0  0  0
 17 29  1  0  0  0  0
 17 23  1  0  0  0  0
 17 18  1  0  0  0  0
 18 19  1  0  0  0  0
 19 20  1  0  0  0  0
 19 47  1  0  0  0  0
 19 48  1  0  0  0  0
 20 21  2  0  0  0  0
 20 22  1  0  0  0  0
 22 23  1  0  0  0  0
 22 49  1  0  0  0  0
 23 30  1  0  0  0  0
 23 24  1  0  0  0  0
 24 50  1  0  0  0  0
 24 51  1  0  0  0  0
 25 26  1  0  0  0  0
 26 27  2  0  0  0  0
 26 52  1  0  0  0  0
 27 28  1  0  0  0  0
M  END
> <s_m_source_file>
AV-unprocessed.smi

> <i_m_source_file_index>
265

> <i_lp_mmshare_version>
43012

> <i_f3d_flags>
0

> <s_epik_input>
W0NIMl0xW0NIMl1PW0NAQEhdKFtDSDNdKVtDQEBdMShbT0hdKVtDSDJdbihbY0hdbjIpYyhjMjMpbltjSF1uYzNOKFtDSDJdW0NIMl00KVtDSDJdW0NAQEhdKFtDQEhdNDUpW05IXUMoPU8pW0NIMl1PNQ==

> <s_epik_cmdline>
J2VwaWtfcHl0aG9uJywgJy1waCcsICc3LjAnLCAnLXRuJywgJzgnLCAnLW1hJywgJzIwMCcsICctbWV0YWxfYmluZGluZycsICctaW1hZScsICc8aW5maWxlLm1hZT4nLCAnLW9tYWUnLCAnPG91dGZpbGUubWFlPic=

> <r_lp_tautomer_probability>
1

> <r_epik_Ionization_Penalty>
0.00221504

> <r_epik_Ionization_Penalty_Charging>
0

> <r_epik_Ionization_Penalty_Neutral>
0.00221504

> <r_epik_State_Penalty>
-0

> <r_epik_Charging_Adjusted_Penalty>
0

> <i_epik_Tot_Q>
0

> <i_epik_Tot_abs_Q>
0

> <r_epik_Metal_State_Penalty>
-0

> <b_epik_Metal_Only>
0

> <s_lp_Force_Field>
OPLS_2005

> <r_lp_Energy>
49.8504

> <b_lp_Chiralities_Consistent>
1

> <s_lp_Variant>
AV-unprocessed.smi:265-2

> <Gold.Version>
5.8.1

> <Gold.Id.Protein>
6NUR|6NUR_protein|mol2

> <Gold.PLP.Fitness>
44.8447

> <Gold.PLP.PLP>
-39.9310

> <Gold.PLP.part.hbond>
-2.0000

> <Gold.PLP.part.metal>
0.0000

> <Gold.PLP.part.buried>
0.7530

> <Gold.PLP.part.nonpolar>
-39.1356

> <Gold.PLP.part.repulsive>
0.5987

> <Gold.PLP.ligand.clash>
0.0000

> <Gold.PLP.ligand.torsion>
0.6630

> <Gold.PLP.Chemscore.Hbond>
2.0000

> <Gold.PLP.Chemscore.CHOScore>
0.0000

> <Gold.PLP.Chemscore.Metal>
0.0000

> <Gold.Chemscore.Hbonds>
donor molecule, donor type, donor heavy atom, donor atom, acceptor molecule, acceptor atom, score
      L1  H     7    39       P1  7948  0.63
      P1  H  7997  8010       L1    11  0.23

> <Gold.PLP.Chemscore.Internal.Correction>
0.2395

> <Gold.Rescore>
     Score         DG    S(hbond)    S(metal)    S(lipo)     H(rot)  DE(clash)    DE(int)     intcor
     12.59     -16.74       1.57        0.00     100.40       2.25       3.38       0.77       ----

> <Gold.Chemscore.Fitness>
12.5879

> <Gold.Chemscore.DG>
-16.7378

> <Gold.Chemscore.ZeroCoef>
-5.4800

> <Gold.Chemscore.Hbond>
1.5747

> <Gold.Chemscore.Metal>
0.0000

> <Gold.Chemscore.Lipo>
100.3956

> <Gold.Chemscore.Internal_Hbond>
0.0000

> <Gold.Chemscore.DEClash>
3.3819

> <Gold.Chemscore.DEInternal>
0.7680

> <Gold.Chemscore.Rot>
2.2453

> <Gold.Chemscore.Internal.Correction>
   9.000000E+99

> <Gold.Chemscore.Hbonds>
donor molecule, donor type, donor heavy atom, donor atom, acceptor molecule, acceptor atom, score
      L1  H     7    39       P1  7948  0.64
      P1  H  7997  8010       L1    11  0.09

> <Gold.Chemscore.Hbond.Weighted>
-5.2595

> <Gold.Chemscore.Metal.Weighted>
-0.0000

> <Gold.Chemscore.Lipo.Weighted>
-11.7463

> <Gold.Chemscore.Internal_Hbond.Weighted>
0.0000

> <Gold.Chemscore.DEClash.Weighted>
3.3819

> <Gold.Chemscore.DEInternal.Weighted>
0.7680

> <Gold.Chemscore.Rot.Weighted>
5.7479

> <Gold.Chemscore.Internal.Correction.Weighted>
   9.000000E+99

> <Gold.Protein.RotatedTorsions>
[ 6907 6896 6895 6894 ] final  -64.92 input  -60.11 | X-H torsion
[ 7974 7965 7964 7962 ] final  -72.58 input  175.53 | X-H torsion
[ 8008 7997 7996 7995 ] final   68.72 input   59.86 | X-H torsion
[ 10167 10162 10161 10158 ] final   79.26 input  -65.29 | X-H torsion
[ 10718 10713 10712 10709 ] final -143.15 input   66.30 | X-H torsion
[ 10763 10752 10751 10750 ] final  -33.83 input  -60.55 | X-H torsion
[ 11005 11000 10999 10996 ] final  112.04 input  -57.11 | X-H torsion

> <Gold.Protein.ActiveResidues>
 VAL166  LYS551  ARG553  GLY616  TRP617  ASP618  TYR619  PRO620  LYS621  CYS622 
 ASP623  PHE694  ASN695  SER759  ASP760  ASP761  ALA762  ILE779  LEU786  VAL792 
 PHE793  MET794  SER795  GLU796  ALA797  LYS798  CYS799  TRP800  GLU811  SER814 

> <Gold.Protein.RotatedAtoms>
  150.7555  134.6232  159.6146 H   0  0  0  0  0  0  0  0  0  0  0  0  # atno 6907 bound_to 6896
  152.3532  134.6974  160.0239 H   0  0  0  0  0  0  0  0  0  0  0  0  # atno 6908 bound_to 6896
  151.7388  133.3285  159.3396 H   0  0  0  0  0  0  0  0  0  0  0  0  # atno 6909 bound_to 6896
  145.6633  140.9245  143.0922 H   0  0  0  0  0  0  0  0  0  0  0  0  # atno 7974 bound_to 7965
  155.7127  140.3494  155.4981 H   0  0  0  0  0  0  0  0  0  0  0  0  # atno 8008 bound_to 7997
  155.9341  140.1089  157.1130 H   0  0  0  0  0  0  0  0  0  0  0  0  # atno 8009 bound_to 7997
  154.4090  140.1225  156.4828 H   0  0  0  0  0  0  0  0  0  0  0  0  # atno 8010 bound_to 7997
  139.9622  144.5953  150.8062 H   0  0  0  0  0  0  0  0  0  0  0  0  # atno 10167 bound_to 10162
  156.3544  130.7705  151.1863 H   0  0  0  0  0  0  0  0  0  0  0  0  # atno 10718 bound_to 10713
  153.8367  135.6861  153.4808 H   0  0  0  0  0  0  0  0  0  0  0  0  # atno 10763 bound_to 10752
  153.1478  135.4630  154.9590 H   0  0  0  0  0  0  0  0  0  0  0  0  # atno 10764 bound_to 10752
  154.7863  135.3286  154.7824 H   0  0  0  0  0  0  0  0  0  0  0  0  # atno 10765 bound_to 10752
  139.8918  134.9521  156.6525 H   0  0  0  0  0  0  0  0  0  0  0  0  # atno 11005 bound_to 11000
  144.7081  139.8477  143.7423 LP  0  0  0  0  0  0  0  0  0  0  0  0  # atno 17320 bound_to 7965
  146.1107  139.4111  143.0289 LP  0  0  0  0  0  0  0  0  0  0  0  0  # atno 17321 bound_to 7965
  140.7549  143.3037  151.3016 LP  0  0  0  0  0  0  0  0  0  0  0  0  # atno 17342 bound_to 10162
  139.6545  144.0301  152.2650 LP  0  0  0  0  0  0  0  0  0  0  0  0  # atno 17343 bound_to 10162
  157.7465  131.0418  150.4664 LP  0  0  0  0  0  0  0  0  0  0  0  0  # atno 17370 bound_to 10713
  156.4864  130.4085  149.6431 LP  0  0  0  0  0  0  0  0  0  0  0  0  # atno 17371 bound_to 10713
  140.7509  133.8898  155.8346 LP  0  0  0  0  0  0  0  0  0  0  0  0  # atno 17394 bound_to 11000
  141.0001  134.1162  157.4325 LP  0  0  0  0  0  0  0  0  0  0  0  0  # atno 17395 bound_to 11000

$$$$
