AV-unprocessed.smi:2546|AV-procd|sdf|10000|dock8
  -GOLD-   2272014 53D 1   1.00000     0.00000
 Structure written by MMmdl.
 16 16  0  0  0  0  0  0  0  0  3 V2000
  147.9126  138.8879  152.6615 N   0  3  0  0  0  0  0  0  0  0  0  0
  148.0512  139.0297  154.1197 C   0  0  0  0  0  0  0  0  0  0  0  0
  149.2781  139.8730  154.4855 C   0  0  0  0  0  0  0  0  0  0  0  0
  150.5462  139.0508  154.4506 C   0  0  0  0  0  0  0  0  0  0  0  0
  150.5952  137.7396  154.1491 N   0  0  0  0  0  0  0  0  0  0  0  0
  151.8715  137.4078  154.1810 N   0  5  0  0  0  0  0  0  0  0  0  0
  152.5747  138.5062  154.4888 C   0  0  0  0  0  0  0  0  0  0  0  0
  151.7749  139.5489  154.6546 N   0  0  0  0  0  0  0  0  0  0  0  0
  148.2595  137.9823  152.3793 H   0  0  0  0  0  0  0  0  0  0  0  0
  148.4459  139.6117  152.2016 H   0  0  0  0  0  0  0  0  0  0  0  0
  147.1449  139.4885  154.5165 H   0  0  0  0  0  0  0  0  0  0  0  0
  148.1301  138.0362  154.5623 H   0  0  0  0  0  0  0  0  0  0  0  0
  149.3846  140.7108  153.7949 H   0  0  0  0  0  0  0  0  0  0  0  0
  149.1633  140.2989  155.4831 H   0  0  0  0  0  0  0  0  0  0  0  0
  153.6544  138.4762  154.5686 H   0  0  0  0  0  0  0  0  0  0  0  0
  146.9389  138.9715  152.4066 H   0  0  0  0  0  0  0  0  0  0  0  0
  1  2  1  0  0  0  0
  1  9  1  0  0  0  0
  1 10  1  0  0  0  0
  1 16  1  0  0  0  0
  2  3  1  0  0  0  0
  2 11  1  0  0  0  0
  2 12  1  0  0  0  0
  3 13  1  0  0  0  0
  3 14  1  0  0  0  0
  3  4  1  0  0  0  0
  4  8  1  0  0  0  0
  4  5  2  0  0  0  0
  5  6  1  0  0  0  0
  6  7  1  0  0  0  0
  7  8  2  0  0  0  0
  7 15  1  0  0  0  0
M  CHG  1   1   1
M  CHG  1   6  -1
M  END
> <s_m_source_file>
AV-unprocessed.smi

> <i_m_source_file_index>
2546

> <i_lp_mmshare_version>
43012

> <i_f3d_flags>
0

> <s_epik_input>
W05IMl1bQ0gyXVtDSDJdYzFubltjSF1bbkhdMQ==

> <s_epik_cmdline>
J2VwaWtfcHl0aG9uJywgJy1waCcsICc3LjAnLCAnLXRuJywgJzgnLCAnLW1hJywgJzIwMCcsICctbWV0YWxfYmluZGluZycsICctaW1hZScsICc8aW5maWxlLm1hZT4nLCAnLW9tYWUnLCAnPG91dGZpbGUubWFlPic=

> <r_lp_tautomer_probability>
0.948284

> <r_epik_Ionization_Penalty>
6.40664

> <r_epik_Ionization_Penalty_Charging>
6.40664

> <r_epik_Ionization_Penalty_Neutral>
1.41162e-13

> <r_epik_State_Penalty>
2.81126

> <r_epik_Charging_Adjusted_Penalty>
9.2179

> <i_epik_Tot_Q>
0

> <i_epik_Tot_abs_Q>
2

> <r_epik_Metal_State_Penalty>
0.674554

> <b_epik_Metal_Only>
1

> <s_lp_Force_Field>
OPLS_2005

> <r_lp_Energy>
-3.27829

> <b_lp_Chiralities_Consistent>
1

> <s_lp_Variant>
AV-unprocessed.smi:2546-4

> <Gold.Version>
5.8.1

> <Gold.Id.Protein>
6NUR|6NUR_protein|mol2

> <Gold.PLP.Fitness>
34.1646

> <Gold.PLP.PLP>
-16.7344

> <Gold.PLP.part.hbond>
-4.0000

> <Gold.PLP.part.metal>
0.0000

> <Gold.PLP.part.buried>
-3.9118

> <Gold.PLP.part.nonpolar>
-9.7391

> <Gold.PLP.part.repulsive>
0.4940

> <Gold.PLP.ligand.clash>
0.0000

> <Gold.PLP.ligand.torsion>
0.1136

> <Gold.PLP.Chemscore.Hbond>
5.8840

> <Gold.PLP.Chemscore.CHOScore>
0.0000

> <Gold.PLP.Chemscore.Metal>
0.0000

> <Gold.Chemscore.Hbonds>
donor molecule, donor type, donor heavy atom, donor atom, acceptor molecule, acceptor atom, score
      L1  H     1     9       P1  7948  2.00
      L1  H     1    10       P1  7957  0.98
      P1  H  7989  7998       L1     8  0.85
      P1  H 10752 10765       L1     6  1.72

> <Gold.PLP.Chemscore.Internal.Correction>
0.0056

> <Gold.Rescore>
     Score         DG    S(hbond)    S(metal)    S(lipo)     H(rot)  DE(clash)    DE(int)     intcor
     14.43     -14.62       3.66        0.00       9.90       1.66       0.00       0.19       ----

> <Gold.Chemscore.Fitness>
14.4305

> <Gold.Chemscore.DG>
-14.6240

> <Gold.Chemscore.ZeroCoef>
-5.4800

> <Gold.Chemscore.Hbond>
3.6628

> <Gold.Chemscore.Metal>
0.0000

> <Gold.Chemscore.Lipo>
9.9043

> <Gold.Chemscore.Internal_Hbond>
0.0000

> <Gold.Chemscore.DEClash>
0.0038

> <Gold.Chemscore.DEInternal>
0.1897

> <Gold.Chemscore.Rot>
1.6595

> <Gold.Chemscore.Internal.Correction>
   9.000000E+99

> <Gold.Chemscore.Hbonds>
donor molecule, donor type, donor heavy atom, donor atom, acceptor molecule, acceptor atom, score
      L1  H     1     9       P1  7948  1.00
      L1  H     1    10       P1  7957  0.92
      P1  H  7989  7998       L1     8  0.14
      P1  H 10752 10765       L1     6  0.69

> <Gold.Chemscore.Hbond.Weighted>
-12.2336

> <Gold.Chemscore.Metal.Weighted>
-0.0000

> <Gold.Chemscore.Lipo.Weighted>
-1.1588

> <Gold.Chemscore.Internal_Hbond.Weighted>
0.0000

> <Gold.Chemscore.DEClash.Weighted>
0.0038

> <Gold.Chemscore.DEInternal.Weighted>
0.1897

> <Gold.Chemscore.Rot.Weighted>
4.2484

> <Gold.Chemscore.Internal.Correction.Weighted>
   9.000000E+99

> <Gold.Protein.RotatedTorsions>
[ 6907 6896 6895 6894 ] final -109.01 input  -60.11 | X-H torsion
[ 7974 7965 7964 7962 ] final  142.65 input  175.53 | X-H torsion
[ 8008 7997 7996 7995 ] final  -61.61 input   59.86 | X-H torsion
[ 10167 10162 10161 10158 ] final  117.61 input  -65.29 | X-H torsion
[ 10718 10713 10712 10709 ] final -111.52 input   66.30 | X-H torsion
[ 10763 10752 10751 10750 ] final  168.05 input  -60.55 | X-H torsion
[ 11005 11000 10999 10996 ] final  105.65 input  -57.11 | X-H torsion

> <Gold.Protein.ActiveResidues>
 VAL166  LYS551  ARG553  GLY616  TRP617  ASP618  TYR619  PRO620  LYS621  CYS622 
 ASP623  PHE694  ASN695  SER759  ASP760  ASP761  ALA762  ILE779  LEU786  VAL792 
 PHE793  MET794  SER795  GLU796  ALA797  LYS798  CYS799  TRP800  GLU811  SER814 

> <Gold.Protein.RotatedAtoms>
  150.7536  133.9592  159.3509 H   0  0  0  0  0  0  0  0  0  0  0  0  # atno 6907 bound_to 6896
  151.7516  135.0829  160.0341 H   0  0  0  0  0  0  0  0  0  0  0  0  # atno 6908 bound_to 6896
  152.3462  133.6088  159.5948 H   0  0  0  0  0  0  0  0  0  0  0  0  # atno 6909 bound_to 6896
  144.8989  139.5451  143.5763 H   0  0  0  0  0  0  0  0  0  0  0  0  # atno 7974 bound_to 7965
  154.4457  140.1014  156.6458 H   0  0  0  0  0  0  0  0  0  0  0  0  # atno 8008 bound_to 7997
  155.5452  140.3484  155.4437 H   0  0  0  0  0  0  0  0  0  0  0  0  # atno 8009 bound_to 7997
  156.0569  140.1317  156.9976 H   0  0  0  0  0  0  0  0  0  0  0  0  # atno 8010 bound_to 7997
  139.6167  144.7093  151.2724 H   0  0  0  0  0  0  0  0  0  0  0  0  # atno 10167 bound_to 10162
  156.0652  130.5871  150.8384 H   0  0  0  0  0  0  0  0  0  0  0  0  # atno 10718 bound_to 10713
  154.3629  135.2753  155.2310 H   0  0  0  0  0  0  0  0  0  0  0  0  # atno 10763 bound_to 10752
  154.4490  135.5935  153.6182 H   0  0  0  0  0  0  0  0  0  0  0  0  # atno 10764 bound_to 10752
  152.9842  135.6037  154.3852 H   0  0  0  0  0  0  0  0  0  0  0  0  # atno 10765 bound_to 10752
  139.8804  134.9343  156.5546 H   0  0  0  0  0  0  0  0  0  0  0  0  # atno 11005 bound_to 11000
  146.3097  139.7702  142.9029 LP  0  0  0  0  0  0  0  0  0  0  0  0  # atno 17320 bound_to 7965
  145.3651  141.0333  143.3262 LP  0  0  0  0  0  0  0  0  0  0  0  0  # atno 17321 bound_to 7965
  140.7355  143.6734  150.8062 LP  0  0  0  0  0  0  0  0  0  0  0  0  # atno 17342 bound_to 10162
  140.0338  143.5416  152.2748 LP  0  0  0  0  0  0  0  0  0  0  0  0  # atno 17343 bound_to 10162
  157.5688  131.0946  150.9449 LP  0  0  0  0  0  0  0  0  0  0  0  0  # atno 17370 bound_to 10713
  156.9670  130.5476  149.5288 LP  0  0  0  0  0  0  0  0  0  0  0  0  # atno 17371 bound_to 10713
  140.8215  133.8350  155.8900 LP  0  0  0  0  0  0  0  0  0  0  0  0  # atno 17394 bound_to 11000
  140.9414  134.1896  157.4795 LP  0  0  0  0  0  0  0  0  0  0  0  0  # atno 17395 bound_to 11000

$$$$
