AV-unprocessed.smi:2356|AV-procd|sdf|9399|dock3
  -GOLD-   2272013 33D 1   1.00000     0.00000
 Structure written by MMmdl.
 54 57  0  0  0  0  0  0  0  0  2 V2000
  151.1160  138.0179  154.4263 C   0  0  0  0  0  0  0  0  0  0  0  0
  150.3720  139.3017  154.7472 C   0  0  0  0  0  0  0  0  0  0  0  0
  151.0020  140.2085  155.5269 N   0  3  0  0  0  0  0  0  0  0  0  0
  150.4633  141.3957  155.8930 C   0  0  0  0  0  0  0  0  0  0  0  0
  151.2176  142.2578  156.7113 N   0  0  0  0  0  0  0  0  0  0  0  0
  151.0247  143.6990  156.6759 C   0  0  0  0  0  0  0  0  0  0  0  0
  151.8829  144.2306  157.8226 C   0  0  0  0  0  0  0  0  0  0  0  0
  151.8120  143.1074  158.8574 C   0  0  0  0  0  0  0  0  0  0  0  0
  151.6952  141.8291  158.0186 C   0  0  0  0  0  0  0  0  0  0  0  0
  149.1578  141.7084  155.4500 C   0  0  0  0  0  0  0  0  0  0  0  0
  148.4585  140.7964  154.6344 C   0  0  0  0  0  0  0  0  0  0  0  0
  149.0726  139.5761  154.2596 C   0  0  0  0  0  0  0  0  0  0  0  0
  148.4278  138.5961  153.4564 N   0  0  0  0  0  0  0  0  0  0  0  0
  147.1118  138.4402  153.2139 C   0  0  0  0  0  0  0  0  0  0  0  0
  146.2284  139.1650  153.6664 O   0  0  0  0  0  0  0  0  0  0  0  0
  146.8207  137.4178  152.3893 N   0  0  0  0  0  0  0  0  0  0  0  0
  145.5062  136.9727  151.9212 C   0  0  2  0  0  0  0  0  0  0  0  0
  144.5261  136.8116  153.0961 C   0  0  0  0  0  0  0  0  0  0  0  0
  143.2053  136.1910  152.6162 C   0  0  0  0  0  0  0  0  0  0  0  0
  143.4582  134.9468  151.9736 O   0  0  0  0  0  0  0  0  0  0  0  0
  144.2650  135.0665  150.8028 C   0  0  2  0  0  0  0  0  0  0  0  0
  144.3870  133.7234  150.1007 C   0  0  0  0  0  0  0  0  0  0  0  0
  143.5445  132.5372  150.5196 C   0  0  0  0  0  0  0  0  0  0  0  0
  145.0281  132.5345  150.7845 C   0  0  0  0  0  0  0  0  0  0  0  0
  145.6456  135.6277  151.1931 C   0  0  0  0  0  0  0  0  0  0  0  0
  150.5496  137.1527  154.7722 H   0  0  0  0  0  0  0  0  0  0  0  0
  152.0955  137.9949  154.9053 H   0  0  0  0  0  0  0  0  0  0  0  0
  151.2640  137.9251  153.3503 H   0  0  0  0  0  0  0  0  0  0  0  0
  151.3253  144.1232  155.7173 H   0  0  0  0  0  0  0  0  0  0  0  0
  149.9720  143.9310  156.8438 H   0  0  0  0  0  0  0  0  0  0  0  0
  152.9131  144.3574  157.4865 H   0  0  0  0  0  0  0  0  0  0  0  0
  151.5327  145.1890  158.2073 H   0  0  0  0  0  0  0  0  0  0  0  0
  152.6695  143.0944  159.5307 H   0  0  0  0  0  0  0  0  0  0  0  0
  150.9135  143.2300  159.4636 H   0  0  0  0  0  0  0  0  0  0  0  0
  151.0205  141.1150  158.4923 H   0  0  0  0  0  0  0  0  0  0  0  0
  152.6691  141.3536  157.8993 H   0  0  0  0  0  0  0  0  0  0  0  0
  148.6776  142.6329  155.7346 H   0  0  0  0  0  0  0  0  0  0  0  0
  147.4552  141.0451  154.3250 H   0  0  0  0  0  0  0  0  0  0  0  0
  149.0438  137.9827  152.9431 H   0  0  0  0  0  0  0  0  0  0  0  0
  147.6085  136.8981  152.0291 H   0  0  0  0  0  0  0  0  0  0  0  0
  145.1017  137.6952  151.2099 H   0  0  0  0  0  0  0  0  0  0  0  0
  144.9658  136.1699  153.8609 H   0  0  0  0  0  0  0  0  0  0  0  0
  144.3310  137.7731  153.5711 H   0  0  0  0  0  0  0  0  0  0  0  0
  142.5422  136.0200  153.4644 H   0  0  0  0  0  0  0  0  0  0  0  0
  142.6831  136.8652  151.9357 H   0  0  0  0  0  0  0  0  0  0  0  0
  143.7757  135.7515  150.1083 H   0  0  0  0  0  0  0  0  0  0  0  0
  144.5743  133.8103  149.0322 H   0  0  0  0  0  0  0  0  0  0  0  0
  142.8820  132.6537  151.3749 H   0  0  0  0  0  0  0  0  0  0  0  0
  143.1742  131.8836  149.7324 H   0  0  0  0  0  0  0  0  0  0  0  0
  145.6464  131.8799  150.1740 H   0  0  0  0  0  0  0  0  0  0  0  0
  145.3546  132.6520  151.8158 H   0  0  0  0  0  0  0  0  0  0  0  0
  146.2660  135.7473  150.3039 H   0  0  0  0  0  0  0  0  0  0  0  0
  146.1576  134.9098  151.8361 H   0  0  0  0  0  0  0  0  0  0  0  0
  151.9404  139.9848  155.8580 H   0  0  0  0  0  0  0  0  0  0  0  0
  1  2  1  0  0  0  0
  1 26  1  0  0  0  0
  1 27  1  0  0  0  0
  1 28  1  0  0  0  0
  2 12  1  0  0  0  0
  2  3  2  0  0  0  0
  3  4  1  0  0  0  0
  3 54  1  0  0  0  0
  4  5  1  0  0  0  0
  4 10  2  0  0  0  0
  5  9  1  0  0  0  0
  5  6  1  0  0  0  0
  6  7  1  0  0  0  0
  6 29  1  0  0  0  0
  6 30  1  0  0  0  0
  7  8  1  0  0  0  0
  7 31  1  0  0  0  0
  7 32  1  0  0  0  0
  8  9  1  0  0  0  0
  8 33  1  0  0  0  0
  8 34  1  0  0  0  0
  9 35  1  0  0  0  0
  9 36  1  0  0  0  0
 10 11  1  0  0  0  0
 10 37  1  0  0  0  0
 11 12  2  0  0  0  0
 11 38  1  0  0  0  0
 12 13  1  0  0  0  0
 13 14  1  0  0  0  0
 13 39  1  0  0  0  0
 14 15  2  0  0  0  0
 14 16  1  0  0  0  0
 16 17  1  0  0  0  0
 16 40  1  0  0  0  0
 17 25  1  0  0  0  0
 17 18  1  0  0  0  0
 17 41  1  0  0  0  0
 18 19  1  0  0  0  0
 18 42  1  0  0  0  0
 18 43  1  0  0  0  0
 19 20  1  0  0  0  0
 19 44  1  0  0  0  0
 19 45  1  0  0  0  0
 20 21  1  0  0  0  0
 21 22  1  0  0  0  0
 21 25  1  0  0  0  0
 21 46  1  0  0  0  0
 22 24  1  0  0  0  0
 22 23  1  0  0  0  0
 22 47  1  0  0  0  0
 23 24  1  0  0  0  0
 23 48  1  0  0  0  0
 23 49  1  0  0  0  0
 24 50  1  0  0  0  0
 24 51  1  0  0  0  0
 25 52  1  0  0  0  0
 25 53  1  0  0  0  0
M  CHG  1   3   1
M  END
> <s_m_source_file>
AV-unprocessed.smi

> <i_m_source_file_index>
2356

> <i_lp_mmshare_version>
43012

> <i_f3d_flags>
0

> <s_epik_input>
W0NIMl0xW0NIMl1bQ0gyXVtDSDJdTjFjKG5jMltDSDNdKVtjSF1bY0hdYzJbTkhdQyg9TylbTkhdW0NAQEhdM1tDSDJdW0NIMl1PW0NASF0oW0NIMl0zKVtDSF00W0NIMl1bQ0gyXTQ=

> <s_epik_cmdline>
J2VwaWtfcHl0aG9uJywgJy1waCcsICc3LjAnLCAnLXRuJywgJzgnLCAnLW1hJywgJzIwMCcsICctbWV0YWxfYmluZGluZycsICctaW1hZScsICc8aW5maWxlLm1hZT4nLCAnLW9tYWUnLCAnPG91dGZpbGUubWFlPic=

> <r_lp_tautomer_probability>
0.999994

> <r_epik_Ionization_Penalty>
0.534681

> <r_epik_Ionization_Penalty_Charging>
0.534661

> <r_epik_Ionization_Penalty_Neutral>
1.99132e-05

> <r_epik_State_Penalty>
0.543738

> <r_epik_Charging_Adjusted_Penalty>
1.0784

> <i_epik_Tot_Q>
1

> <i_epik_Tot_abs_Q>
1

> <r_epik_Metal_State_Penalty>
0.74699

> <b_epik_Metal_Only>
0

> <s_lp_Force_Field>
OPLS_2005

> <r_lp_Energy>
57.2966

> <b_lp_Chiralities_Consistent>
1

> <s_lp_Variant>
AV-unprocessed.smi:2356-7

> <Gold.Version>
5.8.1

> <Gold.Id.Protein>
6NUR|6NUR_protein|mol2

> <Gold.PLP.Fitness>
51.3742

> <Gold.PLP.PLP>
-47.8656

> <Gold.PLP.part.hbond>
-2.9264

> <Gold.PLP.part.metal>
0.0000

> <Gold.PLP.part.buried>
-2.2811

> <Gold.PLP.part.nonpolar>
-45.5859

> <Gold.PLP.part.repulsive>
0.6437

> <Gold.PLP.ligand.clash>
0.0000

> <Gold.PLP.ligand.torsion>
1.5920

> <Gold.PLP.Chemscore.Hbond>
1.7997

> <Gold.PLP.Chemscore.CHOScore>
0.0000

> <Gold.PLP.Chemscore.Metal>
0.0000

> <Gold.Chemscore.Hbonds>
donor molecule, donor type, donor heavy atom, donor atom, acceptor molecule, acceptor atom, score
      L1  H    13    39       P1  7948  0.82
      L1  H    16    40       P1  7948  0.91

> <Gold.PLP.Chemscore.Internal.Correction>
1.2936

> <Gold.Rescore>
     Score         DG    S(hbond)    S(metal)    S(lipo)     H(rot)  DE(clash)    DE(int)     intcor
     18.50     -23.07       1.88        0.00     121.70       1.15       0.88       3.68       ----

> <Gold.Chemscore.Fitness>
18.5031

> <Gold.Chemscore.DG>
-23.0677

> <Gold.Chemscore.ZeroCoef>
-5.4800

> <Gold.Chemscore.Hbond>
1.8835

> <Gold.Chemscore.Metal>
0.0000

> <Gold.Chemscore.Lipo>
121.6988

> <Gold.Chemscore.Internal_Hbond>
0.0000

> <Gold.Chemscore.DEClash>
0.8823

> <Gold.Chemscore.DEInternal>
3.6823

> <Gold.Chemscore.Rot>
1.1493

> <Gold.Chemscore.Internal.Correction>
   9.000000E+99

> <Gold.Chemscore.Hbonds>
donor molecule, donor type, donor heavy atom, donor atom, acceptor molecule, acceptor atom, score
      L1  H    13    39       P1  7948  0.76
      L1  H    16    40       P1  7948  0.87

> <Gold.Chemscore.Hbond.Weighted>
-6.2910

> <Gold.Chemscore.Metal.Weighted>
-0.0000

> <Gold.Chemscore.Lipo.Weighted>
-14.2388

> <Gold.Chemscore.Internal_Hbond.Weighted>
0.0000

> <Gold.Chemscore.DEClash.Weighted>
0.8823

> <Gold.Chemscore.DEInternal.Weighted>
3.6823

> <Gold.Chemscore.Rot.Weighted>
2.9421

> <Gold.Chemscore.Internal.Correction.Weighted>
   9.000000E+99

> <Gold.Protein.RotatedTorsions>
[ 6907 6896 6895 6894 ] final  128.88 input  -60.11 | X-H torsion
[ 7974 7965 7964 7962 ] final  138.33 input  175.53 | X-H torsion
[ 8008 7997 7996 7995 ] final  -50.53 input   59.86 | X-H torsion
[ 10167 10162 10161 10158 ] final  103.00 input  -65.29 | X-H torsion
[ 10718 10713 10712 10709 ] final  -99.58 input   66.30 | X-H torsion
[ 10763 10752 10751 10750 ] final -125.36 input  -60.55 | X-H torsion
[ 11005 11000 10999 10996 ] final    2.72 input  -57.11 | X-H torsion

> <Gold.Protein.ActiveResidues>
 VAL166  LYS551  ARG553  GLY616  TRP617  ASP618  TYR619  PRO620  LYS621  CYS622 
 ASP623  PHE694  ASN695  SER759  ASP760  ASP761  ALA762  ILE779  LEU786  VAL792 
 PHE793  MET794  SER795  GLU796  ALA797  LYS798  CYS799  TRP800  GLU811  SER814 

> <Gold.Protein.RotatedAtoms>
  152.3678  133.6379  159.6063 H   0  0  0  0  0  0  0  0  0  0  0  0  # atno 6907 bound_to 6896
  150.7646  133.9320  159.3438 H   0  0  0  0  0  0  0  0  0  0  0  0  # atno 6908 bound_to 6896
  151.7148  135.0907  160.0325 H   0  0  0  0  0  0  0  0  0  0  0  0  # atno 6909 bound_to 6896
  144.9383  139.4962  143.5584 H   0  0  0  0  0  0  0  0  0  0  0  0  # atno 7974 bound_to 7965
  154.4064  140.1270  156.4681 H   0  0  0  0  0  0  0  0  0  0  0  0  # atno 8008 bound_to 7997
  155.7206  140.3493  155.4994 H   0  0  0  0  0  0  0  0  0  0  0  0  # atno 8009 bound_to 7997
  155.9217  140.1054  157.1191 H   0  0  0  0  0  0  0  0  0  0  0  0  # atno 8010 bound_to 7997
  139.7301  144.7038  151.0736 H   0  0  0  0  0  0  0  0  0  0  0  0  # atno 10167 bound_to 10162
  156.0138  130.5289  150.6692 H   0  0  0  0  0  0  0  0  0  0  0  0  # atno 10718 bound_to 10713
  154.8735  135.4032  154.3256 H   0  0  0  0  0  0  0  0  0  0  0  0  # atno 10763 bound_to 10752
  153.4078  135.7020  153.6386 H   0  0  0  0  0  0  0  0  0  0  0  0  # atno 10764 bound_to 10752
  153.5102  135.3709  155.2553 H   0  0  0  0  0  0  0  0  0  0  0  0  # atno 10765 bound_to 10752
  140.6012  133.9834  155.8133 H   0  0  0  0  0  0  0  0  0  0  0  0  # atno 11005 bound_to 11000
  146.3275  139.8383  142.8895 LP  0  0  0  0  0  0  0  0  0  0  0  0  # atno 17320 bound_to 7965
  145.3032  141.0200  143.3597 LP  0  0  0  0  0  0  0  0  0  0  0  0  # atno 17321 bound_to 7965
  140.7769  143.5055  150.9718 LP  0  0  0  0  0  0  0  0  0  0  0  0  # atno 17342 bound_to 10162
  139.8743  143.7153  152.3163 LP  0  0  0  0  0  0  0  0  0  0  0  0  # atno 17343 bound_to 10162
  157.4418  131.0862  151.0936 LP  0  0  0  0  0  0  0  0  0  0  0  0  # atno 17370 bound_to 10713
  157.1478  130.6171  149.5573 LP  0  0  0  0  0  0  0  0  0  0  0  0  # atno 17371 bound_to 10713
  141.0871  133.9974  157.3296 LP  0  0  0  0  0  0  0  0  0  0  0  0  # atno 17394 bound_to 11000
  139.9232  135.0201  156.8139 LP  0  0  0  0  0  0  0  0  0  0  0  0  # atno 17395 bound_to 11000

$$$$
