AV-unprocessed.smi:104|AV-procd|sdf|1008|dock1
  -GOLD-   2262018 03D 1   1.00000     0.00000
 Structure written by MMmdl.
 47 49  0  0  0  0  0  0  0  0  1 V2000
  152.4287  145.0320  158.3232 C   0  0  0  0  0  0  0  0  0  0  0  0
  152.4035  143.5609  158.7160 C   0  0  0  0  0  0  0  0  0  0  0  0
  153.0611  143.1363  159.6663 O   0  0  0  0  0  0  0  0  0  0  0  0
  151.6084  142.8329  157.9189 O   0  0  0  0  0  0  0  0  0  0  0  0
  151.5259  141.4281  158.1046 C   0  0  0  0  0  0  0  0  0  0  0  0
  150.3869  140.8443  157.2590 C   0  0  1  0  0  0  0  0  0  0  0  0
  149.1398  141.3682  157.6908 O   0  0  0  0  0  0  0  0  0  0  0  0
  148.2583  141.4867  156.6210 C   0  0  2  0  0  0  0  0  0  0  0  0
  147.2550  140.3602  156.6947 N   0  0  0  0  0  0  0  0  0  0  0  0
  145.8794  140.4563  156.7331 C   0  0  0  0  0  0  0  0  0  0  0  0
  144.9578  142.1225  156.6626 Br  0  0  0  0  0  0  0  0  0  0  0  0
  145.2004  139.3477  156.8114 N   0  0  0  0  0  0  0  0  0  0  0  0
  146.1945  138.3817  156.8379 C   0  0  0  0  0  0  0  0  0  0  0  0
  146.1824  136.9660  156.9126 C   0  0  0  0  0  0  0  0  0  0  0  0
  145.0535  136.2475  156.9821 N   0  0  0  0  0  0  0  0  0  0  0  0
  147.3633  136.3064  156.9131 N   0  0  0  0  0  0  0  0  0  0  0  0
  148.5025  137.0006  156.8459 C   0  0  0  0  0  0  0  0  0  0  0  0
  148.6694  138.3229  156.7747 N   0  0  0  0  0  0  0  0  0  0  0  0
  147.4810  138.9945  156.7732 C   0  0  0  0  0  0  0  0  0  0  0  0
  149.0857  141.5330  155.3164 C   0  0  2  0  0  0  0  0  0  0  0  0
  148.5486  140.7155  154.2776 O   0  0  0  0  0  0  0  0  0  0  0  0
  147.3093  140.9362  153.8086 C   0  0  0  0  0  0  0  0  0  0  0  0
  146.9152  139.9384  152.7286 C   0  0  0  0  0  0  0  0  0  0  0  0
  146.5372  141.8172  154.1868 O   0  0  0  0  0  0  0  0  0  0  0  0
  150.4987  141.1251  155.7524 C   0  0  2  0  0  0  0  0  0  0  0  0
  150.9819  139.9617  155.0866 O   0  0  0  0  0  0  0  0  0  0  0  0
  152.1738  139.4331  155.4126 C   0  0  0  0  0  0  0  0  0  0  0  0
  152.6516  138.4111  154.3900 C   0  0  0  0  0  0  0  0  0  0  0  0
  152.8467  139.7159  156.4038 O   0  0  0  0  0  0  0  0  0  0  0  0
  151.4134  145.4134  158.2108 H   0  0  0  0  0  0  0  0  0  0  0  0
  152.9537  145.1603  157.3766 H   0  0  0  0  0  0  0  0  0  0  0  0
  152.9384  145.6232  159.0841 H   0  0  0  0  0  0  0  0  0  0  0  0
  152.4716  140.9680  157.8144 H   0  0  0  0  0  0  0  0  0  0  0  0
  151.3624  141.2014  159.1593 H   0  0  0  0  0  0  0  0  0  0  0  0
  150.3597  139.7709  157.4391 H   0  0  0  0  0  0  0  0  0  0  0  0
  147.6645  142.3897  156.7451 H   0  0  0  0  0  0  0  0  0  0  0  0
  144.1583  136.7150  156.9826 H   0  0  0  0  0  0  0  0  0  0  0  0
  145.0999  135.2404  157.0382 H   0  0  0  0  0  0  0  0  0  0  0  0
  149.4095  136.4145  156.8493 H   0  0  0  0  0  0  0  0  0  0  0  0
  149.1303  142.5730  154.9893 H   0  0  0  0  0  0  0  0  0  0  0  0
  147.5830  140.0264  151.8717 H   0  0  0  0  0  0  0  0  0  0  0  0
  145.8942  140.1195  152.3923 H   0  0  0  0  0  0  0  0  0  0  0  0
  146.9777  138.9207  153.1145 H   0  0  0  0  0  0  0  0  0  0  0  0
  151.1733  141.9659  155.5857 H   0  0  0  0  0  0  0  0  0  0  0  0
  151.9676  137.5631  154.3549 H   0  0  0  0  0  0  0  0  0  0  0  0
  153.6446  138.0444  154.6497 H   0  0  0  0  0  0  0  0  0  0  0  0
  152.6973  138.8617  153.3984 H   0  0  0  0  0  0  0  0  0  0  0  0
  1  2  1  0  0  0  0
  1 30  1  0  0  0  0
  1 31  1  0  0  0  0
  1 32  1  0  0  0  0
  2  3  2  0  0  0  0
  2  4  1  0  0  0  0
  4  5  1  0  0  0  0
  5  6  1  0  0  0  0
  5 33  1  0  0  0  0
  5 34  1  0  0  0  0
  6 25  1  0  0  0  0
  6  7  1  0  0  0  0
  6 35  1  0  0  0  0
  7  8  1  0  0  0  0
  8  9  1  0  0  0  0
  8 20  1  0  0  0  0
  8 36  1  0  0  0  0
  9 19  1  0  0  0  0
  9 10  1  0  0  0  0
 10 11  1  0  0  0  0
 10 12  2  0  0  0  0
 12 13  1  0  0  0  0
 13 19  2  0  0  0  0
 13 14  1  0  0  0  0
 14 15  1  0  0  0  0
 14 16  2  0  0  0  0
 15 37  1  0  0  0  0
 15 38  1  0  0  0  0
 16 17  1  0  0  0  0
 17 18  2  0  0  0  0
 17 39  1  0  0  0  0
 18 19  1  0  0  0  0
 20 21  1  0  0  0  0
 20 25  1  0  0  0  0
 20 40  1  0  0  0  0
 21 22  1  0  0  0  0
 22 23  1  0  0  0  0
 22 24  2  0  0  0  0
 23 41  1  0  0  0  0
 23 42  1  0  0  0  0
 23 43  1  0  0  0  0
 25 26  1  0  0  0  0
 25 44  1  0  0  0  0
 26 27  1  0  0  0  0
 27 28  1  0  0  0  0
 27 29  2  0  0  0  0
 28 45  1  0  0  0  0
 28 46  1  0  0  0  0
 28 47  1  0  0  0  0
M  END
> <s_m_source_file>
AV-unprocessed.smi

> <i_m_source_file_index>
104

> <i_lp_mmshare_version>
43012

> <i_f3d_flags>
0

> <s_epik_input>
W0NIM11DKD1PKU9bQ0gyXVtDQEBIXTFPW0NASF0oW0NAQEhdKE9DKD1PKVtDSDNdKVtDQEhdMU9DKD1PKVtDSDNdKW4oYyhCciluMiljKGMyMyluW2NIXW5jM1tOSDJd

> <s_epik_cmdline>
J2VwaWtfcHl0aG9uJywgJy1waCcsICc3LjAnLCAnLXRuJywgJzgnLCAnLW1hJywgJzIwMCcsICctbWV0YWxfYmluZGluZycsICctaW1hZScsICc8aW5maWxlLm1hZT4nLCAnLW9tYWUnLCAnPG91dGZpbGUubWFlPic=

> <r_lp_tautomer_probability>
1

> <r_epik_Ionization_Penalty>
7.36622e-05

> <r_epik_Ionization_Penalty_Charging>
0

> <r_epik_Ionization_Penalty_Neutral>
7.36622e-05

> <r_epik_State_Penalty>
-0

> <r_epik_Charging_Adjusted_Penalty>
0

> <i_epik_Tot_Q>
0

> <i_epik_Tot_abs_Q>
0

> <r_epik_Metal_State_Penalty>
-0

> <b_epik_Metal_Only>
0

> <s_epik_Chemistry_Notes>
This compound has an ester and may undergo hydrolysis at high or low pH. This compound contains an acetal/aminal-like group ( X-CH(R)-Y where X, Y are N, S, or O) that may be acid/base labile, releasing an aldehyde.

> <s_lp_Force_Field>
OPLS_2005

> <r_lp_Energy>
19.0996

> <b_lp_Chiralities_Consistent>
1

> <s_lp_Variant>
AV-unprocessed.smi:104-16

> <Gold.Version>
5.8.1

> <Gold.Id.Protein>
6NUR|6NUR_protein|mol2

> <Gold.PLP.Fitness>
38.6884

> <Gold.PLP.PLP>
-35.9544

> <Gold.PLP.part.hbond>
-2.0000

> <Gold.PLP.part.metal>
0.0000

> <Gold.PLP.part.buried>
-4.3213

> <Gold.PLP.part.nonpolar>
-29.8672

> <Gold.PLP.part.repulsive>
0.5354

> <Gold.PLP.ligand.clash>
0.0000

> <Gold.PLP.ligand.torsion>
0.2562

> <Gold.PLP.Chemscore.Hbond>
1.0000

> <Gold.PLP.Chemscore.CHOScore>
0.0000

> <Gold.PLP.Chemscore.Metal>
0.0000

> <Gold.Chemscore.Hbonds>
donor molecule, donor type, donor heavy atom, donor atom, acceptor molecule, acceptor atom, score
      P1  H  7997  8008       L1    29  1.00

> <Gold.PLP.Chemscore.Internal.Correction>
0.2463

> <Gold.Rescore>
     Score         DG    S(hbond)    S(metal)    S(lipo)     H(rot)  DE(clash)    DE(int)     intcor
      2.92      -3.71       1.00        0.00      50.62       4.31       0.07       0.72       ----

> <Gold.Chemscore.Fitness>
2.9187

> <Gold.Chemscore.DG>
-3.7095

> <Gold.Chemscore.ZeroCoef>
-5.4800

> <Gold.Chemscore.Hbond>
0.9977

> <Gold.Chemscore.Metal>
0.0000

> <Gold.Chemscore.Lipo>
50.6235

> <Gold.Chemscore.Internal_Hbond>
0.0000

> <Gold.Chemscore.DEClash>
0.0736

> <Gold.Chemscore.DEInternal>
0.7171

> <Gold.Chemscore.Rot>
4.3070

> <Gold.Chemscore.Internal.Correction>
   9.000000E+99

> <Gold.Chemscore.Hbonds>
donor molecule, donor type, donor heavy atom, donor atom, acceptor molecule, acceptor atom, score
      P1  H  7997  8008       L1    29  0.95

> <Gold.Chemscore.Hbond.Weighted>
-3.3324

> <Gold.Chemscore.Metal.Weighted>
-0.0000

> <Gold.Chemscore.Lipo.Weighted>
-5.9230

> <Gold.Chemscore.Internal_Hbond.Weighted>
0.0000

> <Gold.Chemscore.DEClash.Weighted>
0.0736

> <Gold.Chemscore.DEInternal.Weighted>
0.7171

> <Gold.Chemscore.Rot.Weighted>
11.0259

> <Gold.Chemscore.Internal.Correction.Weighted>
   9.000000E+99

> <Gold.Protein.RotatedTorsions>
[ 6907 6896 6895 6894 ] final  166.06 input  -60.11 | X-H torsion
[ 7974 7965 7964 7962 ] final  179.50 input  175.53 | X-H torsion
[ 8008 7997 7996 7995 ] final  -54.19 input   59.86 | X-H torsion
[ 10167 10162 10161 10158 ] final  123.83 input  -65.29 | X-H torsion
[ 10718 10713 10712 10709 ] final   -1.61 input   66.30 | X-H torsion
[ 10763 10752 10751 10750 ] final -101.60 input  -60.55 | X-H torsion
[ 11005 11000 10999 10996 ] final  -37.98 input  -57.11 | X-H torsion

> <Gold.Protein.ActiveResidues>
 VAL166  LYS551  ARG553  GLY616  TRP617  ASP618  TYR619  PRO620  LYS621  CYS622 
 ASP623  PHE694  ASN695  SER759  ASP760  ASP761  ALA762  ILE779  LEU786  VAL792 
 PHE793  MET794  SER795  GLU796  ALA797  LYS798  CYS799  TRP800  GLU811  SER814 

> <Gold.Protein.RotatedAtoms>
  151.8848  133.3503  159.3778 H   0  0  0  0  0  0  0  0  0  0  0  0  # atno 6907 bound_to 6896
  150.7118  134.4982  159.5558 H   0  0  0  0  0  0  0  0  0  0  0  0  # atno 6908 bound_to 6896
  152.2541  134.8102  160.0492 H   0  0  0  0  0  0  0  0  0  0  0  0  # atno 6909 bound_to 6896
  144.7145  140.0557  143.6434 H   0  0  0  0  0  0  0  0  0  0  0  0  # atno 7974 bound_to 7965
  154.4155  140.1182  156.5275 H   0  0  0  0  0  0  0  0  0  0  0  0  # atno 8008 bound_to 7997
  155.6639  140.3496  155.4773 H   0  0  0  0  0  0  0  0  0  0  0  0  # atno 8009 bound_to 7997
  155.9690  140.1137  157.0819 H   0  0  0  0  0  0  0  0  0  0  0  0  # atno 8010 bound_to 7997
  139.5776  144.6971  151.3611 H   0  0  0  0  0  0  0  0  0  0  0  0  # atno 10167 bound_to 10162
  156.8031  130.5399  149.5719 H   0  0  0  0  0  0  0  0  0  0  0  0  # atno 10718 bound_to 10713
  154.7670  135.4892  153.9574 H   0  0  0  0  0  0  0  0  0  0  0  0  # atno 10763 bound_to 10752
  153.1320  135.6755  153.9170 H   0  0  0  0  0  0  0  0  0  0  0  0  # atno 10764 bound_to 10752
  153.8871  135.3125  155.3425 H   0  0  0  0  0  0  0  0  0  0  0  0  # atno 10765 bound_to 10752
  140.9993  133.6964  156.1992 H   0  0  0  0  0  0  0  0  0  0  0  0  # atno 11005 bound_to 11000
  145.9907  139.3012  143.0987 LP  0  0  0  0  0  0  0  0  0  0  0  0  # atno 17320 bound_to 7965
  145.8907  140.9306  143.0554 LP  0  0  0  0  0  0  0  0  0  0  0  0  # atno 17321 bound_to 7965
  140.7058  143.7518  150.7479 LP  0  0  0  0  0  0  0  0  0  0  0  0  # atno 17342 bound_to 10162
  140.1042  143.4759  152.2408 LP  0  0  0  0  0  0  0  0  0  0  0  0  # atno 17343 bound_to 10162
  156.1089  130.6025  151.0016 LP  0  0  0  0  0  0  0  0  0  0  0  0  # atno 17370 bound_to 10713
  157.6544  131.0892  150.7981 LP  0  0  0  0  0  0  0  0  0  0  0  0  # atno 17371 bound_to 10713
  140.6915  134.4660  157.5588 LP  0  0  0  0  0  0  0  0  0  0  0  0  # atno 17394 bound_to 11000
  139.9030  134.8512  156.1817 LP  0  0  0  0  0  0  0  0  0  0  0  0  # atno 17395 bound_to 11000

$$$$
