AV-unprocessed.smi:1715|AV-procd|sdf|6915|dock6
  -GOLD-   22720 8123D 1   1.00000     0.00000
 Structure written by MMmdl.
 41 42  0  0  0  0  0  0  0  0  2 V2000
  147.1087  138.5067  156.2732 C   0  0  0  0  0  0  0  0  0  0  0  0
  147.9611  138.4723  155.0004 C   0  0  1  0  0  0  0  0  0  0  0  0
  147.1196  138.7222  153.7362 C   0  0  0  0  0  0  0  0  0  0  0  0
  147.9867  138.7715  152.5364 N   0  3  1  0  0  0  0  0  0  0  0  0
  147.2056  138.9074  151.2820 C   0  0  0  0  0  0  0  0  0  0  0  0
  145.8811  138.1201  151.3228 C   0  0  0  0  0  0  0  0  0  0  0  0
  146.1071  136.6836  151.2147 N   0  0  0  0  0  0  0  0  0  0  0  0
  145.1470  135.7668  151.0287 C   0  0  0  0  0  0  0  0  0  0  0  0
  143.9515  136.0460  150.9335 O   0  0  0  0  0  0  0  0  0  0  0  0
  145.6603  134.5276  150.9643 N   0  0  0  0  0  0  0  0  0  0  0  0
  144.9533  133.3109  150.7913 C   0  0  0  0  0  0  0  0  0  0  0  0
  145.5310  132.0168  150.9013 C   0  0  0  0  0  0  0  0  0  0  0  0
  144.6316  131.0663  150.6912 N   0  0  0  0  0  0  0  0  0  0  0  0
  143.4852  131.7415  150.4492 N   0  0  0  0  0  0  0  0  0  0  0  0
  143.6333  133.1100  150.4999 C   0  0  0  0  0  0  0  0  0  0  0  0
  149.0317  139.8122  152.7018 C   0  0  0  0  0  0  0  0  0  0  0  0
  149.8382  139.5891  153.9963 C   0  0  2  0  0  0  0  0  0  0  0  0
  150.8188  138.4057  153.9126 C   0  0  0  0  0  0  0  0  0  0  0  0
  148.9577  139.4844  155.1149 O   0  0  0  0  0  0  0  0  0  0  0  0
  142.6192  131.2598  150.2528 H   0  0  0  0  0  0  0  0  0  0  0  0
  146.3332  137.7408  156.2483 H   0  0  0  0  0  0  0  0  0  0  0  0
  146.6204  139.4741  156.3958 H   0  0  0  0  0  0  0  0  0  0  0  0
  147.7219  138.3296  157.1571 H   0  0  0  0  0  0  0  0  0  0  0  0
  148.4356  137.4927  154.9379 H   0  0  0  0  0  0  0  0  0  0  0  0
  146.3819  137.9261  153.6271 H   0  0  0  0  0  0  0  0  0  0  0  0
  146.5681  139.6600  153.8247 H   0  0  0  0  0  0  0  0  0  0  0  0
  146.9677  139.9603  151.1231 H   0  0  0  0  0  0  0  0  0  0  0  0
  147.8215  138.6000  150.4356 H   0  0  0  0  0  0  0  0  0  0  0  0
  145.3228  138.3215  152.2373 H   0  0  0  0  0  0  0  0  0  0  0  0
  145.2417  138.4251  150.4942 H   0  0  0  0  0  0  0  0  0  0  0  0
  147.0631  136.3649  151.2793 H   0  0  0  0  0  0  0  0  0  0  0  0
  146.6626  134.4436  151.0504 H   0  0  0  0  0  0  0  0  0  0  0  0
  146.5518  131.7412  151.1223 H   0  0  0  0  0  0  0  0  0  0  0  0
  142.8098  133.7873  150.3290 H   0  0  0  0  0  0  0  0  0  0  0  0
  149.7105  139.8232  151.8500 H   0  0  0  0  0  0  0  0  0  0  0  0
  148.5543  140.7929  152.7341 H   0  0  0  0  0  0  0  0  0  0  0  0
  150.4391  140.4823  154.1699 H   0  0  0  0  0  0  0  0  0  0  0  0
  151.5650  138.5774  153.1365 H   0  0  0  0  0  0  0  0  0  0  0  0
  150.3182  137.4670  153.6765 H   0  0  0  0  0  0  0  0  0  0  0  0
  151.3502  138.2738  154.8552 H   0  0  0  0  0  0  0  0  0  0  0  0
  148.4583  137.8793  152.4896 H   0  0  0  0  0  0  0  0  0  0  0  0
  1  2  1  0  0  0  0
  1 21  1  0  0  0  0
  1 22  1  0  0  0  0
  1 23  1  0  0  0  0
  2 19  1  0  0  0  0
  2  3  1  0  0  0  0
  2 24  1  0  0  0  0
  3  4  1  0  0  0  0
  3 25  1  0  0  0  0
  3 26  1  0  0  0  0
  4  5  1  0  0  0  0
  4 16  1  0  0  0  0
  4 41  1  0  0  0  0
  5  6  1  0  0  0  0
  5 27  1  0  0  0  0
  5 28  1  0  0  0  0
  6  7  1  0  0  0  0
  6 29  1  0  0  0  0
  6 30  1  0  0  0  0
  7  8  1  0  0  0  0
  7 31  1  0  0  0  0
  8  9  2  0  0  0  0
  8 10  1  0  0  0  0
 10 11  1  0  0  0  0
 10 32  1  0  0  0  0
 11 15  2  0  0  0  0
 11 12  1  0  0  0  0
 12 13  2  0  0  0  0
 12 33  1  0  0  0  0
 13 14  1  0  0  0  0
 14 20  1  0  0  0  0
 14 15  1  0  0  0  0
 15 34  1  0  0  0  0
 16 17  1  0  0  0  0
 16 35  1  0  0  0  0
 16 36  1  0  0  0  0
 17 18  1  0  0  0  0
 17 19  1  0  0  0  0
 17 37  1  0  0  0  0
 18 38  1  0  0  0  0
 18 39  1  0  0  0  0
 18 40  1  0  0  0  0
M  CHG  1   4   1
M  END
> <s_m_source_file>
AV-unprocessed.smi

> <i_m_source_file_index>
1715

> <i_lp_mmshare_version>
43012

> <i_f3d_flags>
0

> <s_epik_input>
W0NIM11bQ0BASF0xW0NIMl1OKFtDSDJdW0NASF0oTzEpW0NIM10pW0NIMl1bQ0gyXVtOSF1DKD1PKVtOSF1jMltjSF1uW25IXVtjSF0y

> <s_epik_cmdline>
J2VwaWtfcHl0aG9uJywgJy1waCcsICc3LjAnLCAnLXRuJywgJzgnLCAnLW1hJywgJzIwMCcsICctbWV0YWxfYmluZGluZycsICctaW1hZScsICc8aW5maWxlLm1hZT4nLCAnLW9tYWUnLCAnPG91dGZpbGUubWFlPic=

> <r_lp_tautomer_probability>
0.5

> <r_epik_Ionization_Penalty>
0.646007

> <r_epik_Ionization_Penalty_Charging>
0.645968

> <r_epik_Ionization_Penalty_Neutral>
3.91671e-05

> <r_epik_State_Penalty>
0.664063

> <r_epik_Charging_Adjusted_Penalty>
1.31003

> <i_epik_Tot_Q>
1

> <i_epik_Tot_abs_Q>
1

> <r_epik_Metal_State_Penalty>
0.664064

> <b_epik_Metal_Only>
0

> <s_lp_Force_Field>
OPLS_2005

> <r_lp_Energy>
20.0624

> <b_lp_Chiralities_Consistent>
1

> <s_lp_Variant>
AV-unprocessed.smi:1715-7

> <Gold.Version>
5.8.1

> <Gold.Id.Protein>
6NUR|6NUR_protein|mol2

> <Gold.PLP.Fitness>
40.3275

> <Gold.PLP.PLP>
-23.7357

> <Gold.PLP.part.hbond>
-3.7095

> <Gold.PLP.part.metal>
0.0000

> <Gold.PLP.part.buried>
0.9653

> <Gold.PLP.part.nonpolar>
-22.1421

> <Gold.PLP.part.repulsive>
0.4943

> <Gold.PLP.ligand.clash>
0.0000

> <Gold.PLP.ligand.torsion>
0.3026

> <Gold.PLP.Chemscore.Hbond>
3.7313

> <Gold.PLP.Chemscore.CHOScore>
1.9946

> <Gold.PLP.Chemscore.Metal>
0.0000

> <Gold.Chemscore.Hbonds>
donor molecule, donor type, donor heavy atom, donor atom, acceptor molecule, acceptor atom, score
      L1  H     4    41       P1  7948  2.00
      L1  H     7    31       P1  7948  1.00
      L1  H    14    20       P1 10952  0.75
      L1  C    12    33       P1 10747  0.54
      L1  C    15    34       P1 10186  1.00

> <Gold.PLP.Chemscore.Internal.Correction>
0.0195

> <Gold.Rescore>
     Score         DG    S(hbond)    S(metal)    S(lipo)     H(rot)  DE(clash)    DE(int)     intcor
     15.23     -18.13       2.85        0.00      63.12       1.67       1.70       1.20       ----

> <Gold.Chemscore.Fitness>
15.2348

> <Gold.Chemscore.DG>
-18.1320

> <Gold.Chemscore.ZeroCoef>
-5.4800

> <Gold.Chemscore.Hbond>
2.8547

> <Gold.Chemscore.Metal>
0.0000

> <Gold.Chemscore.Lipo>
63.1207

> <Gold.Chemscore.Internal_Hbond>
0.0000

> <Gold.Chemscore.DEClash>
1.6977

> <Gold.Chemscore.DEInternal>
1.1996

> <Gold.Chemscore.Rot>
1.6671

> <Gold.Chemscore.Internal.Correction>
   9.000000E+99

> <Gold.Chemscore.Hbonds>
donor molecule, donor type, donor heavy atom, donor atom, acceptor molecule, acceptor atom, score
      L1  H     4    41       P1  7948  0.99
      L1  H     7    31       P1  7948  0.99
      L1  H    14    20       P1 10952  0.52

> <Gold.Chemscore.Hbond.Weighted>
-9.5346

> <Gold.Chemscore.Metal.Weighted>
-0.0000

> <Gold.Chemscore.Lipo.Weighted>
-7.3851

> <Gold.Chemscore.Internal_Hbond.Weighted>
0.0000

> <Gold.Chemscore.DEClash.Weighted>
1.6977

> <Gold.Chemscore.DEInternal.Weighted>
1.1996

> <Gold.Chemscore.Rot.Weighted>
4.2677

> <Gold.Chemscore.Internal.Correction.Weighted>
   9.000000E+99

> <Gold.Protein.RotatedTorsions>
[ 6907 6896 6895 6894 ] final  104.09 input  -60.11 | X-H torsion
[ 7974 7965 7964 7962 ] final  114.51 input  175.53 | X-H torsion
[ 8008 7997 7996 7995 ] final -135.70 input   59.86 | X-H torsion
[ 10167 10162 10161 10158 ] final  -81.62 input  -65.29 | X-H torsion
[ 10718 10713 10712 10709 ] final  134.51 input   66.30 | X-H torsion
[ 10763 10752 10751 10750 ] final    8.50 input  -60.55 | X-H torsion
[ 11005 11000 10999 10996 ] final  -69.07 input  -57.11 | X-H torsion

> <Gold.Protein.ActiveResidues>
 VAL166  LYS551  ARG553  GLY616  TRP617  ASP618  TYR619  PRO620  LYS621  CYS622 
 ASP623  PHE694  ASN695  SER759  ASP760  ASP761  ALA762  ILE779  LEU786  VAL792 
 PHE793  MET794  SER795  GLU796  ALA797  LYS798  CYS799  TRP800  GLU811  SER814 

> <Gold.Protein.RotatedAtoms>
  152.5275  133.9728  159.7769 H   0  0  0  0  0  0  0  0  0  0  0  0  # atno 6907 bound_to 6896
  150.9996  133.6061  159.2704 H   0  0  0  0  0  0  0  0  0  0  0  0  # atno 6908 bound_to 6896
  151.3174  135.0816  159.9347 H   0  0  0  0  0  0  0  0  0  0  0  0  # atno 6909 bound_to 6896
  145.2036  139.2940  143.4305 H   0  0  0  0  0  0  0  0  0  0  0  0  # atno 7974 bound_to 7965
  155.3829  140.0495  157.3043 H   0  0  0  0  0  0  0  0  0  0  0  0  # atno 8008 bound_to 7997
  154.5073  140.2179  155.9187 H   0  0  0  0  0  0  0  0  0  0  0  0  # atno 8009 bound_to 7997
  156.1541  140.3130  155.8702 H   0  0  0  0  0  0  0  0  0  0  0  0  # atno 8010 bound_to 7997
  140.4395  143.2520  151.8646 H   0  0  0  0  0  0  0  0  0  0  0  0  # atno 10167 bound_to 10162
  157.4665  131.1077  150.9856 H   0  0  0  0  0  0  0  0  0  0  0  0  # atno 10718 bound_to 10713
  153.2244  135.6885  153.7962 H   0  0  0  0  0  0  0  0  0  0  0  0  # atno 10763 bound_to 10752
  153.7150  135.3276  155.3255 H   0  0  0  0  0  0  0  0  0  0  0  0  # atno 10764 bound_to 10752
  154.8285  135.4599  154.1104 H   0  0  0  0  0  0  0  0  0  0  0  0  # atno 10765 bound_to 10752
  141.1546  133.6755  156.6544 H   0  0  0  0  0  0  0  0  0  0  0  0  # atno 11005 bound_to 11000
  146.3412  140.2288  142.8593 LP  0  0  0  0  0  0  0  0  0  0  0  0  # atno 17320 bound_to 7965
  144.9924  140.8559  143.5331 LP  0  0  0  0  0  0  0  0  0  0  0  0  # atno 17321 bound_to 7965
  139.4789  144.5245  151.8754 LP  0  0  0  0  0  0  0  0  0  0  0  0  # atno 17342 bound_to 10162
  140.4335  144.2083  150.5888 LP  0  0  0  0  0  0  0  0  0  0  0  0  # atno 17343 bound_to 10162
  157.0635  130.5835  149.5390 LP  0  0  0  0  0  0  0  0  0  0  0  0  # atno 17370 bound_to 10713
  156.0053  130.5138  150.7807 LP  0  0  0  0  0  0  0  0  0  0  0  0  # atno 17371 bound_to 10713
  140.3296  134.7940  157.4316 LP  0  0  0  0  0  0  0  0  0  0  0  0  # atno 17394 bound_to 11000
  140.1028  134.5449  155.8337 LP  0  0  0  0  0  0  0  0  0  0  0  0  # atno 17395 bound_to 11000

$$$$
