AV-unprocessed.smi:496|AV-procd|sdf|2719|dock3
  -GOLD-   2262023163D 1   1.00000     0.00000
 Structure written by MMmdl.
 43 45  0  0  0  0  0  0  0  0  2 V2000
  148.5069  140.6400  153.9219 C   0  0  0  0  0  0  0  0  0  0  0  0
  147.9658  141.0112  155.1776 O   0  0  0  0  0  0  0  0  0  0  0  0
  148.6523  140.4124  156.2626 C   0  0  0  0  0  0  0  0  0  0  0  0
  150.1419  140.7572  156.1523 C   0  0  0  0  0  0  0  0  0  0  0  0
  150.8391  140.5873  157.4341 N   0  0  0  0  0  0  0  0  0  0  0  0
  151.0184  139.4723  158.2006 C   0  0  0  0  0  0  0  0  0  0  0  0
  150.4971  138.0979  157.9058 C   0  0  1  0  0  0  0  0  0  0  0  0
  151.6270  137.0843  157.6627 C   0  0  0  0  0  0  0  0  0  0  0  0
  149.6421  137.6355  158.9946 N   0  0  0  0  0  0  0  0  0  0  0  0
  149.1178  136.4059  159.1168 C   0  0  0  0  0  0  0  0  0  0  0  0
  149.3313  135.4906  158.3224 O   0  0  0  0  0  0  0  0  0  0  0  0
  148.2420  136.1983  160.2852 C   0  0  0  0  0  0  0  0  0  0  0  0
  147.7438  135.0451  160.8292 C   0  0  0  0  0  0  0  0  0  0  0  0
  146.9499  135.4309  161.9444 C   0  0  0  0  0  0  0  0  0  0  0  0
  147.0195  136.7932  162.0021 C   0  0  0  0  0  0  0  0  0  0  0  0
  147.8027  137.2768  160.9996 O   0  0  0  0  0  0  0  0  0  0  0  0
  151.7189  139.8578  159.3068 N   0  3  0  0  0  0  0  0  0  0  0  0
  152.0137  141.2195  159.2319 C   0  0  0  0  0  0  0  0  0  0  0  0
  152.7100  142.0509  160.1038 C   0  0  0  0  0  0  0  0  0  0  0  0
  152.8345  143.4036  159.7241 C   0  0  0  0  0  0  0  0  0  0  0  0
  152.2783  143.8824  158.5199 C   0  0  0  0  0  0  0  0  0  0  0  0
  151.5733  143.0298  157.6448 C   0  0  0  0  0  0  0  0  0  0  0  0
  151.4540  141.6943  158.0287 C   0  0  0  0  0  0  0  0  0  0  0  0
  147.9440  141.1232  153.1235 H   0  0  0  0  0  0  0  0  0  0  0  0
  148.4476  139.5614  153.7704 H   0  0  0  0  0  0  0  0  0  0  0  0
  149.5493  140.9494  153.8341 H   0  0  0  0  0  0  0  0  0  0  0  0
  148.2518  140.7820  157.2080 H   0  0  0  0  0  0  0  0  0  0  0  0
  148.5109  139.3306  156.2427 H   0  0  0  0  0  0  0  0  0  0  0  0
  150.6336  140.1471  155.3941 H   0  0  0  0  0  0  0  0  0  0  0  0
  150.2647  141.7933  155.8374 H   0  0  0  0  0  0  0  0  0  0  0  0
  149.9228  138.1689  156.9806 H   0  0  0  0  0  0  0  0  0  0  0  0
  152.2681  137.4013  156.8393 H   0  0  0  0  0  0  0  0  0  0  0  0
  151.2221  136.1056  157.4028 H   0  0  0  0  0  0  0  0  0  0  0  0
  152.2535  136.9570  158.5464 H   0  0  0  0  0  0  0  0  0  0  0  0
  149.4065  138.3129  159.7054 H   0  0  0  0  0  0  0  0  0  0  0  0
  147.9288  134.0439  160.4676 H   0  0  0  0  0  0  0  0  0  0  0  0
  146.3978  134.7925  162.6184 H   0  0  0  0  0  0  0  0  0  0  0  0
  146.5951  137.5391  162.6577 H   0  0  0  0  0  0  0  0  0  0  0  0
  153.1380  141.6864  161.0262 H   0  0  0  0  0  0  0  0  0  0  0  0
  153.3681  144.0870  160.3686 H   0  0  0  0  0  0  0  0  0  0  0  0
  152.3948  144.9252  158.2616 H   0  0  0  0  0  0  0  0  0  0  0  0
  151.1532  143.4060  156.7237 H   0  0  0  0  0  0  0  0  0  0  0  0
  151.9808  139.2288  160.0546 H   0  0  0  0  0  0  0  0  0  0  0  0
  1  2  1  0  0  0  0
  1 24  1  0  0  0  0
  1 25  1  0  0  0  0
  1 26  1  0  0  0  0
  2  3  1  0  0  0  0
  3  4  1  0  0  0  0
  3 27  1  0  0  0  0
  3 28  1  0  0  0  0
  4  5  1  0  0  0  0
  4 29  1  0  0  0  0
  4 30  1  0  0  0  0
  5 23  1  0  0  0  0
  5  6  1  0  0  0  0
  6  7  1  0  0  0  0
  6 17  2  0  0  0  0
  7  8  1  0  0  0  0
  7  9  1  0  0  0  0
  7 31  1  0  0  0  0
  8 32  1  0  0  0  0
  8 33  1  0  0  0  0
  8 34  1  0  0  0  0
  9 10  1  0  0  0  0
  9 35  1  0  0  0  0
 10 11  2  0  0  0  0
 10 12  1  0  0  0  0
 12 16  1  0  0  0  0
 12 13  2  0  0  0  0
 13 14  1  0  0  0  0
 13 36  1  0  0  0  0
 14 15  2  0  0  0  0
 14 37  1  0  0  0  0
 15 16  1  0  0  0  0
 15 38  1  0  0  0  0
 17 18  1  0  0  0  0
 17 43  1  0  0  0  0
 18 23  2  0  0  0  0
 18 19  1  0  0  0  0
 19 20  2  0  0  0  0
 19 39  1  0  0  0  0
 20 21  1  0  0  0  0
 20 40  1  0  0  0  0
 21 22  2  0  0  0  0
 21 41  1  0  0  0  0
 22 23  1  0  0  0  0
 22 42  1  0  0  0  0
M  CHG  1  17   1
M  END
> <s_m_source_file>
AV-unprocessed.smi

> <i_m_source_file_index>
496

> <i_lp_mmshare_version>
43012

> <i_f3d_flags>
0

> <s_epik_input>
W2NIXTFbY0hdW2NIXVtjSF1jKGMxMiluKFtDSDJdW0NIMl1PW0NIM10pYyhuMilbQ0BIXShbQ0gzXSlbTkhdQyg9TyljM1tjSF1bY0hdW2NIXW8z

> <s_epik_cmdline>
J2VwaWtfcHl0aG9uJywgJy1waCcsICc3LjAnLCAnLXRuJywgJzgnLCAnLW1hJywgJzIwMCcsICctbWV0YWxfYmluZGluZycsICctaW1hZScsICc8aW5maWxlLm1hZT4nLCAnLW9tYWUnLCAnPG91dGZpbGUubWFlPic=

> <r_epik_Ionization_Penalty>
1.02088

> <r_epik_Ionization_Penalty_Charging>
1.02086

> <r_epik_Ionization_Penalty_Neutral>
2.09263e-05

> <r_epik_State_Penalty>
1.07114

> <r_epik_Charging_Adjusted_Penalty>
2.092

> <i_epik_Tot_Q>
1

> <i_epik_Tot_abs_Q>
1

> <r_epik_Metal_State_Penalty>
1.19829

> <b_epik_Metal_Only>
0

> <s_lp_Force_Field>
OPLS_2005

> <r_lp_Energy>
14.6869

> <b_lp_Chiralities_Consistent>
1

> <s_lp_Variant>
AV-unprocessed.smi:496-4

> <Gold.Version>
5.8.1

> <Gold.Id.Protein>
6NUR|6NUR_protein|mol2

> <Gold.PLP.Fitness>
50.1075

> <Gold.PLP.PLP>
-42.4989

> <Gold.PLP.part.hbond>
-3.0000

> <Gold.PLP.part.metal>
0.0000

> <Gold.PLP.part.buried>
-5.6228

> <Gold.PLP.part.nonpolar>
-36.0004

> <Gold.PLP.part.repulsive>
0.4707

> <Gold.PLP.ligand.clash>
0.0000

> <Gold.PLP.ligand.torsion>
0.2967

> <Gold.PLP.Chemscore.Hbond>
2.7033

> <Gold.PLP.Chemscore.CHOScore>
0.0000

> <Gold.PLP.Chemscore.Metal>
0.0000

> <Gold.Chemscore.Hbonds>
donor molecule, donor type, donor heavy atom, donor atom, acceptor molecule, acceptor atom, score
      P1  H  6896  6909       L1    11  0.89
      P1  H  6931  6943       L1    16  0.86
      P1  H  6934  6947       L1    16  0.82

> <Gold.PLP.Chemscore.Internal.Correction>
0.0922

> <Gold.Rescore>
     Score         DG    S(hbond)    S(metal)    S(lipo)     H(rot)  DE(clash)    DE(int)     intcor
     18.26     -19.99       1.85        0.00     112.67       1.90       0.26       1.47       ----

> <Gold.Chemscore.Fitness>
18.2600

> <Gold.Chemscore.DG>
-19.9913

> <Gold.Chemscore.ZeroCoef>
-5.4800

> <Gold.Chemscore.Hbond>
1.8532

> <Gold.Chemscore.Metal>
0.0000

> <Gold.Chemscore.Lipo>
112.6694

> <Gold.Chemscore.Internal_Hbond>
0.0000

> <Gold.Chemscore.DEClash>
0.2563

> <Gold.Chemscore.DEInternal>
1.4750

> <Gold.Chemscore.Rot>
1.8988

> <Gold.Chemscore.Internal.Correction>
   9.000000E+99

> <Gold.Chemscore.Hbonds>
donor molecule, donor type, donor heavy atom, donor atom, acceptor molecule, acceptor atom, score
      P1  H  6896  6909       L1    11  0.22
      P1  H  6931  6943       L1    16  0.33
      P1  H  6934  6947       L1    16  0.21

> <Gold.Chemscore.Hbond.Weighted>
-6.1897

> <Gold.Chemscore.Metal.Weighted>
-0.0000

> <Gold.Chemscore.Lipo.Weighted>
-13.1823

> <Gold.Chemscore.Internal_Hbond.Weighted>
0.0000

> <Gold.Chemscore.DEClash.Weighted>
0.2563

> <Gold.Chemscore.DEInternal.Weighted>
1.4750

> <Gold.Chemscore.Rot.Weighted>
4.8608

> <Gold.Chemscore.Internal.Correction.Weighted>
   9.000000E+99

> <Gold.Protein.RotatedTorsions>
[ 6907 6896 6895 6894 ] final   32.98 input  -60.11 | X-H torsion
[ 7974 7965 7964 7962 ] final   -9.81 input  175.53 | X-H torsion
[ 8008 7997 7996 7995 ] final   81.62 input   59.86 | X-H torsion
[ 10167 10162 10161 10158 ] final  169.77 input  -65.29 | X-H torsion
[ 10718 10713 10712 10709 ] final -172.46 input   66.30 | X-H torsion
[ 10763 10752 10751 10750 ] final -140.91 input  -60.55 | X-H torsion
[ 11005 11000 10999 10996 ] final   -1.60 input  -57.11 | X-H torsion

> <Gold.Protein.ActiveResidues>
 VAL166  LYS551  ARG553  GLY616  TRP617  ASP618  TYR619  PRO620  LYS621  CYS622 
 ASP623  PHE694  ASN695  SER759  ASP760  ASP761  ALA762  ILE779  LEU786  VAL792 
 PHE793  MET794  SER795  GLU796  ALA797  LYS798  CYS799  TRP800  GLU811  SER814 

> <Gold.Protein.RotatedAtoms>
  152.0822  134.9464  160.0573 H   0  0  0  0  0  0  0  0  0  0  0  0  # atno 6907 bound_to 6896
  152.0748  133.4119  159.4483 H   0  0  0  0  0  0  0  0  0  0  0  0  # atno 6908 bound_to 6896
  150.6836  134.2970  159.4734 H   0  0  0  0  0  0  0  0  0  0  0  0  # atno 6909 bound_to 6896
  146.2240  140.2671  142.8354 H   0  0  0  0  0  0  0  0  0  0  0  0  # atno 7974 bound_to 7965
  155.8996  140.3434  155.6016 H   0  0  0  0  0  0  0  0  0  0  0  0  # atno 8008 bound_to 7997
  155.7516  140.0820  157.2217 H   0  0  0  0  0  0  0  0  0  0  0  0  # atno 8009 bound_to 7997
  154.4042  140.1552  156.2717 H   0  0  0  0  0  0  0  0  0  0  0  0  # atno 8010 bound_to 7997
  139.5001  144.3670  151.9765 H   0  0  0  0  0  0  0  0  0  0  0  0  # atno 10167 bound_to 10162
  156.7560  130.9395  151.3116 H   0  0  0  0  0  0  0  0  0  0  0  0  # atno 10718 bound_to 10713
  154.8563  135.3539  154.5782 H   0  0  0  0  0  0  0  0  0  0  0  0  # atno 10763 bound_to 10752
  153.6394  135.6999  153.5252 H   0  0  0  0  0  0  0  0  0  0  0  0  # atno 10764 bound_to 10752
  153.2984  135.4214  155.1189 H   0  0  0  0  0  0  0  0  0  0  0  0  # atno 10765 bound_to 10752
  140.6492  133.9420  155.8370 H   0  0  0  0  0  0  0  0  0  0  0  0  # atno 11005 bound_to 11000
  144.9296  140.7960  143.5697 LP  0  0  0  0  0  0  0  0  0  0  0  0  # atno 17320 bound_to 7965
  145.2613  139.1991  143.4890 LP  0  0  0  0  0  0  0  0  0  0  0  0  # atno 17321 bound_to 7965
  140.3106  144.3542  150.6035 LP  0  0  0  0  0  0  0  0  0  0  0  0  # atno 17342 bound_to 10162
  140.5802  143.2173  151.7443 LP  0  0  0  0  0  0  0  0  0  0  0  0  # atno 17343 bound_to 10162
  157.6756  130.9091  150.0142 LP  0  0  0  0  0  0  0  0  0  0  0  0  # atno 17370 bound_to 10713
  156.1370  130.3642  149.9641 LP  0  0  0  0  0  0  0  0  0  0  0  0  # atno 17371 bound_to 10713
  141.0550  134.0430  157.3735 LP  0  0  0  0  0  0  0  0  0  0  0  0  # atno 17394 bound_to 11000
  139.9052  135.0177  156.7453 LP  0  0  0  0  0  0  0  0  0  0  0  0  # atno 17395 bound_to 11000

$$$$
