AV-unprocessed.smi:2477|AV-procd|sdf|9759|dock9
  -GOLD-   2272013403D 1   1.00000     0.00000
 Structure written by MMmdl.
 51 53  0  0  0  0  0  0  0  0  1 V2000
  147.7494  136.3484  163.3233 C   0  0  0  0  0  0  0  0  0  0  0  0
  147.6379  135.4775  162.1502 N   0  0  0  0  0  0  0  0  0  0  0  0
  147.3744  134.1157  162.3744 C   0  0  0  0  0  0  0  0  0  0  0  0
  147.2583  133.2460  161.3614 C   0  0  0  0  0  0  0  0  0  0  0  0
  147.4106  133.7381  160.0132 C   0  0  0  0  0  0  0  0  0  0  0  0
  147.6554  135.0512  159.7732 C   0  0  0  0  0  0  0  0  0  0  0  0
  147.8221  135.6159  158.4963 N   0  0  0  0  0  0  0  0  0  0  0  0
  148.8669  136.2958  157.9892 C   0  0  0  0  0  0  0  0  0  0  0  0
  149.9182  136.5477  158.5769 O   0  0  0  0  0  0  0  0  0  0  0  0
  148.6315  136.6467  156.7164 N   0  0  0  0  0  0  0  0  0  0  0  0
  149.5732  137.3328  155.8340 C   0  0  2  0  0  0  0  0  0  0  0  0
  150.9510  136.6518  155.9536 C   0  0  0  0  0  0  0  0  0  0  0  0
  152.0201  137.3736  155.1186 C   0  0  0  0  0  0  0  0  0  0  0  0
  152.1106  138.8582  155.5000 C   0  0  0  0  0  0  0  0  0  0  0  0
  150.7440  139.5436  155.3601 C   0  0  0  0  0  0  0  0  0  0  0  0
  149.6660  138.8339  156.1990 C   0  0  1  0  0  0  0  0  0  0  0  0
  148.4266  139.4712  155.9100 O   0  0  0  0  0  0  0  0  0  0  0  0
  148.4365  140.8897  156.0245 C   0  0  0  0  0  0  0  0  0  0  0  0
  147.0365  141.3392  156.4448 C   0  0  0  0  0  0  0  0  0  0  0  0
  146.2179  141.4089  155.1486 C   0  0  0  0  0  0  0  0  0  0  0  0
  147.2327  141.4472  153.9953 C   0  0  0  0  0  0  0  0  0  0  0  0
  148.6145  141.5382  154.6487 C   0  0  0  0  0  0  0  0  0  0  0  0
  147.7873  136.0000  160.8965 C   0  0  0  0  0  0  0  0  0  0  0  0
  148.0185  137.2003  160.7294 O   0  0  0  0  0  0  0  0  0  0  0  0
  147.6076  135.8117  164.2618 H   0  0  0  0  0  0  0  0  0  0  0  0
  146.9988  137.1393  163.2861 H   0  0  0  0  0  0  0  0  0  0  0  0
  148.7344  136.8156  163.3625 H   0  0  0  0  0  0  0  0  0  0  0  0
  147.2733  133.8256  163.4100 H   0  0  0  0  0  0  0  0  0  0  0  0
  147.0542  132.2021  161.5492 H   0  0  0  0  0  0  0  0  0  0  0  0
  147.3348  133.0157  159.2172 H   0  0  0  0  0  0  0  0  0  0  0  0
  147.0555  135.4424  157.8624 H   0  0  0  0  0  0  0  0  0  0  0  0
  147.7411  136.3935  156.3144 H   0  0  0  0  0  0  0  0  0  0  0  0
  149.2452  137.2416  154.7967 H   0  0  0  0  0  0  0  0  0  0  0  0
  151.2653  136.6340  156.9982 H   0  0  0  0  0  0  0  0  0  0  0  0
  150.8810  135.6109  155.6356 H   0  0  0  0  0  0  0  0  0  0  0  0
  152.9890  136.8936  155.2595 H   0  0  0  0  0  0  0  0  0  0  0  0
  151.7804  137.2813  154.0586 H   0  0  0  0  0  0  0  0  0  0  0  0
  152.4653  138.9536  156.5271 H   0  0  0  0  0  0  0  0  0  0  0  0
  152.8450  139.3606  154.8701 H   0  0  0  0  0  0  0  0  0  0  0  0
  150.8222  140.5884  155.6622 H   0  0  0  0  0  0  0  0  0  0  0  0
  150.4469  139.5486  154.3106 H   0  0  0  0  0  0  0  0  0  0  0  0
  149.9329  138.9336  157.2536 H   0  0  0  0  0  0  0  0  0  0  0  0
  149.1864  141.2192  156.7451 H   0  0  0  0  0  0  0  0  0  0  0  0
  146.5902  140.6819  157.1919 H   0  0  0  0  0  0  0  0  0  0  0  0
  147.0967  142.3353  156.8845 H   0  0  0  0  0  0  0  0  0  0  0  0
  145.5789  140.5302  155.0526 H   0  0  0  0  0  0  0  0  0  0  0  0
  145.5692  142.2857  155.1446 H   0  0  0  0  0  0  0  0  0  0  0  0
  147.1611  140.5251  153.4167 H   0  0  0  0  0  0  0  0  0  0  0  0
  147.0514  142.2770  153.3115 H   0  0  0  0  0  0  0  0  0  0  0  0
  148.8842  142.5871  154.7792 H   0  0  0  0  0  0  0  0  0  0  0  0
  149.3958  141.0748  154.0461 H   0  0  0  0  0  0  0  0  0  0  0  0
  1  2  1  0  0  0  0
  1 25  1  0  0  0  0
  1 26  1  0  0  0  0
  1 27  1  0  0  0  0
  2 23  1  0  0  0  0
  2  3  1  0  0  0  0
  3  4  2  0  0  0  0
  3 28  1  0  0  0  0
  4  5  1  0  0  0  0
  4 29  1  0  0  0  0
  5  6  2  0  0  0  0
  5 30  1  0  0  0  0
  6  7  1  0  0  0  0
  6 23  1  0  0  0  0
  7  8  1  0  0  0  0
  7 31  1  0  0  0  0
  8  9  2  0  0  0  0
  8 10  1  0  0  0  0
 10 11  1  0  0  0  0
 10 32  1  0  0  0  0
 11 16  1  0  0  0  0
 11 12  1  0  0  0  0
 11 33  1  0  0  0  0
 12 13  1  0  0  0  0
 12 34  1  0  0  0  0
 12 35  1  0  0  0  0
 13 14  1  0  0  0  0
 13 36  1  0  0  0  0
 13 37  1  0  0  0  0
 14 15  1  0  0  0  0
 14 38  1  0  0  0  0
 14 39  1  0  0  0  0
 15 16  1  0  0  0  0
 15 40  1  0  0  0  0
 15 41  1  0  0  0  0
 16 17  1  0  0  0  0
 16 42  1  0  0  0  0
 17 18  1  0  0  0  0
 18 22  1  0  0  0  0
 18 19  1  0  0  0  0
 18 43  1  0  0  0  0
 19 20  1  0  0  0  0
 19 44  1  0  0  0  0
 19 45  1  0  0  0  0
 20 21  1  0  0  0  0
 20 46  1  0  0  0  0
 20 47  1  0  0  0  0
 21 22  1  0  0  0  0
 21 48  1  0  0  0  0
 21 49  1  0  0  0  0
 22 50  1  0  0  0  0
 22 51  1  0  0  0  0
 23 24  2  0  0  0  0
M  END
> <s_m_source_file>
AV-unprocessed.smi

> <i_m_source_file_index>
2477

> <i_lp_mmshare_version>
43012

> <i_f3d_flags>
0

> <s_epik_input>
W0NIM11uMVtjSF1bY0hdW2NIXWMoYzE9TylbTkhdQyg9TylbTkhdW0NAQEhdMltDSDJdW0NIMl1bQ0gyXVtDSDJdW0NASF0yT1tDSF0zW0NIMl1bQ0gyXVtDSDJdW0NIMl0z

> <s_epik_cmdline>
J2VwaWtfcHl0aG9uJywgJy1waCcsICc3LjAnLCAnLXRuJywgJzgnLCAnLW1hJywgJzIwMCcsICctbWV0YWxfYmluZGluZycsICctaW1hZScsICc8aW5maWxlLm1hZT4nLCAnLW9tYWUnLCAnPG91dGZpbGUubWFlPic=

> <r_lp_tautomer_probability>
1

> <r_epik_Ionization_Penalty>
2.40753e-05

> <r_epik_Ionization_Penalty_Charging>
4.84018e-06

> <r_epik_Ionization_Penalty_Neutral>
1.92352e-05

> <r_epik_State_Penalty>
-0

> <r_epik_Charging_Adjusted_Penalty>
4.84018e-06

> <i_epik_Tot_Q>
0

> <i_epik_Tot_abs_Q>
0

> <r_epik_Metal_State_Penalty>
-0

> <b_epik_Metal_Only>
0

> <s_lp_Force_Field>
OPLS_2005

> <r_lp_Energy>
41.4176

> <b_lp_Chiralities_Consistent>
1

> <s_lp_Variant>
AV-unprocessed.smi:2477-1

> <Gold.Version>
5.8.1

> <Gold.Id.Protein>
6NUR|6NUR_protein|mol2

> <Gold.PLP.Fitness>
42.1052

> <Gold.PLP.PLP>
-38.2181

> <Gold.PLP.part.hbond>
-2.4622

> <Gold.PLP.part.metal>
0.0000

> <Gold.PLP.part.buried>
-3.6289

> <Gold.PLP.part.nonpolar>
-33.6473

> <Gold.PLP.part.repulsive>
0.0477

> <Gold.PLP.ligand.clash>
0.0000

> <Gold.PLP.ligand.torsion>
1.2188

> <Gold.PLP.Chemscore.Hbond>
2.0878

> <Gold.PLP.Chemscore.CHOScore>
0.0000

> <Gold.PLP.Chemscore.Metal>
0.0000

> <Gold.Chemscore.Hbonds>
donor molecule, donor type, donor heavy atom, donor atom, acceptor molecule, acceptor atom, score
      P1  H  6896  6907       L1     9  0.54
      P1  H  6931  6943       L1    24  0.83
      P1  H  6934  6947       L1    24  0.75

> <Gold.PLP.Chemscore.Internal.Correction>
0.0616

> <Gold.Rescore>
     Score         DG    S(hbond)    S(metal)    S(lipo)     H(rot)  DE(clash)    DE(int)     intcor
     16.64     -20.92       2.54        0.00      89.17       1.36       1.50       2.78       ----

> <Gold.Chemscore.Fitness>
16.6412

> <Gold.Chemscore.DG>
-20.9225

> <Gold.Chemscore.ZeroCoef>
-5.4800

> <Gold.Chemscore.Hbond>
2.5395

> <Gold.Chemscore.Metal>
0.0000

> <Gold.Chemscore.Lipo>
89.1713

> <Gold.Chemscore.Internal_Hbond>
0.0000

> <Gold.Chemscore.DEClash>
1.4983

> <Gold.Chemscore.DEInternal>
2.7831

> <Gold.Chemscore.Rot>
1.3564

> <Gold.Chemscore.Internal.Correction>
   9.000000E+99

> <Gold.Chemscore.Hbonds>
donor molecule, donor type, donor heavy atom, donor atom, acceptor molecule, acceptor atom, score
      P1  H  6896  6907       L1     9  0.50
      P1  H  6931  6943       L1    24  0.83
      P1  H  6934  6947       L1    24  0.70

> <Gold.Chemscore.Hbond.Weighted>
-8.4818

> <Gold.Chemscore.Metal.Weighted>
-0.0000

> <Gold.Chemscore.Lipo.Weighted>
-10.4330

> <Gold.Chemscore.Internal_Hbond.Weighted>
0.0000

> <Gold.Chemscore.DEClash.Weighted>
1.4983

> <Gold.Chemscore.DEInternal.Weighted>
2.7831

> <Gold.Chemscore.Rot.Weighted>
3.4724

> <Gold.Chemscore.Internal.Correction.Weighted>
   9.000000E+99

> <Gold.Protein.RotatedTorsions>
[ 6907 6896 6895 6894 ] final  -50.96 input  -60.11 | X-H torsion
[ 7974 7965 7964 7962 ] final -158.14 input  175.53 | X-H torsion
[ 8008 7997 7996 7995 ] final -158.67 input   59.86 | X-H torsion
[ 10167 10162 10161 10158 ] final -146.08 input  -65.29 | X-H torsion
[ 10718 10713 10712 10709 ] final  139.08 input   66.30 | X-H torsion
[ 10763 10752 10751 10750 ] final   64.59 input  -60.55 | X-H torsion
[ 11005 11000 10999 10996 ] final -161.95 input  -57.11 | X-H torsion

> <Gold.Protein.ActiveResidues>
 VAL166  LYS551  ARG553  GLY616  TRP617  ASP618  TYR619  PRO620  LYS621  CYS622 
 ASP623  PHE694  ASN695  SER759  ASP760  ASP761  ALA762  ILE779  LEU786  VAL792 
 PHE793  MET794  SER795  GLU796  ALA797  LYS798  CYS799  TRP800  GLU811  SER814 

> <Gold.Protein.RotatedAtoms>
  150.8657  134.8019  159.7116 H   0  0  0  0  0  0  0  0  0  0  0  0  # atno 6907 bound_to 6896
  152.4679  134.5028  159.9740 H   0  0  0  0  0  0  0  0  0  0  0  0  # atno 6908 bound_to 6896
  151.5125  133.3444  159.2923 H   0  0  0  0  0  0  0  0  0  0  0  0  # atno 6909 bound_to 6896
  144.7518  140.3869  143.6042 H   0  0  0  0  0  0  0  0  0  0  0  0  # atno 7974 bound_to 7965
  155.7511  140.0826  157.2201 H   0  0  0  0  0  0  0  0  0  0  0  0  # atno 8008 bound_to 7997
  154.4012  140.1560  156.2780 H   0  0  0  0  0  0  0  0  0  0  0  0  # atno 8009 bound_to 7997
  155.8930  140.3414  155.5973 H   0  0  0  0  0  0  0  0  0  0  0  0  # atno 8010 bound_to 7997
  139.7746  143.8188  152.2630 H   0  0  0  0  0  0  0  0  0  0  0  0  # atno 10167 bound_to 10162
  157.4183  131.1036  151.0381 H   0  0  0  0  0  0  0  0  0  0  0  0  # atno 10718 bound_to 10713
  153.0062  135.5387  154.6534 H   0  0  0  0  0  0  0  0  0  0  0  0  # atno 10763 bound_to 10752
  154.5761  135.2846  155.0782 H   0  0  0  0  0  0  0  0  0  0  0  0  # atno 10764 bound_to 10752
  154.1929  135.6497  153.5117 H   0  0  0  0  0  0  0  0  0  0  0  0  # atno 10765 bound_to 10752
  140.6147  134.4812  157.5218 H   0  0  0  0  0  0  0  0  0  0  0  0  # atno 11005 bound_to 11000
  145.6918  139.1641  143.2643 LP  0  0  0  0  0  0  0  0  0  0  0  0  # atno 17320 bound_to 7965
  146.1478  140.6968  142.9336 LP  0  0  0  0  0  0  0  0  0  0  0  0  # atno 17321 bound_to 7965
  139.8232  144.7286  150.9545 LP  0  0  0  0  0  0  0  0  0  0  0  0  # atno 17342 bound_to 10162
  140.7816  143.4139  151.0949 LP  0  0  0  0  0  0  0  0  0  0  0  0  # atno 17343 bound_to 10162
  157.1321  130.6106  149.5532 LP  0  0  0  0  0  0  0  0  0  0  0  0  # atno 17370 bound_to 10713
  155.9872  130.4910  150.7115 LP  0  0  0  0  0  0  0  0  0  0  0  0  # atno 17371 bound_to 10713
  139.9177  134.8211  156.1310 LP  0  0  0  0  0  0  0  0  0  0  0  0  # atno 17394 bound_to 11000
  141.0784  133.6765  156.2284 LP  0  0  0  0  0  0  0  0  0  0  0  0  # atno 17395 bound_to 11000

$$$$
