AV-unprocessed.smi:205|AV-procd|sdf|1600|dock1
  -GOLD-   2262019503D 1   1.00000     0.00000
 Structure written by MMmdl.
 54 56  0  0  0  0  0  0  0  0  1 V2000
  149.3734  141.1303  153.4837 O   0  0  0  0  0  0  0  0  0  0  0  0
  148.4171  140.6255  154.3915 C   0  0  0  0  0  0  0  0  0  0  0  0
  147.3723  141.7023  154.7081 C   0  0  0  0  0  0  0  0  0  0  0  0
  146.3811  141.1516  155.5593 O   0  0  0  0  0  0  0  0  0  0  0  0
  145.8072  139.9659  155.0352 C   0  0  0  0  0  0  0  0  0  0  0  0
  145.3109  139.0868  156.1973 C   0  0  0  0  0  0  0  0  0  0  0  0
  146.1177  137.8858  156.4199 N   0  0  0  0  0  0  0  0  0  0  0  0
  146.3896  137.4941  157.8024 C   0  0  0  0  0  0  0  0  0  0  0  0
  147.8582  137.7003  158.2170 C   0  0  0  0  0  0  0  0  0  0  0  0
  148.1623  139.0772  158.2866 O   0  0  0  0  0  0  0  0  0  0  0  0
  146.0417  136.8566  155.5396 C   0  0  0  0  0  0  0  0  0  0  0  0
  146.7084  135.7181  155.8587 N   0  0  0  0  0  0  0  0  0  0  0  0
  146.6891  134.6709  155.0300 C   0  0  0  0  0  0  0  0  0  0  0  0
  146.0765  134.5518  153.8510 N   0  0  0  0  0  0  0  0  0  0  0  0
  145.3958  135.6889  153.5278 C   0  0  0  0  0  0  0  0  0  0  0  0
  145.3144  136.8740  154.3134 C   0  0  0  0  0  0  0  0  0  0  0  0
  144.5017  137.8044  153.6753 N   0  0  0  0  0  0  0  0  0  0  0  0
  144.1378  137.2104  152.5724 C   0  0  0  0  0  0  0  0  0  0  0  0
  144.6584  135.9503  152.3857 N   0  0  0  0  0  0  0  0  0  0  0  0
  144.3969  135.0731  151.2822 C   0  0  0  0  0  0  0  0  0  0  0  0
  143.7788  133.6892  151.5019 C   0  0  0  0  0  0  0  0  0  0  0  0
  144.6650  133.0978  150.3840 C   0  0  0  0  0  0  0  0  0  0  0  0
  145.3664  131.7782  150.7408 C   0  0  0  0  0  0  0  0  0  0  0  0
  146.3611  131.4529  149.7911 O   0  0  0  0  0  0  0  0  0  0  0  0
  144.0153  132.9068  148.9957 C   0  0  0  0  0  0  0  0  0  0  0  0
  143.5595  134.1154  148.4223 O   0  0  0  0  0  0  0  0  0  0  0  0
  145.5433  134.3566  150.5606 C   0  0  0  0  0  0  0  0  0  0  0  0
  150.2345  140.8887  153.7886 H   0  0  0  0  0  0  0  0  0  0  0  0
  147.9508  139.7232  153.9947 H   0  0  0  0  0  0  0  0  0  0  0  0
  148.9447  140.3432  155.3028 H   0  0  0  0  0  0  0  0  0  0  0  0
  147.8545  142.5302  155.2300 H   0  0  0  0  0  0  0  0  0  0  0  0
  146.9371  142.1060  153.7918 H   0  0  0  0  0  0  0  0  0  0  0  0
  144.9627  140.2258  154.3954 H   0  0  0  0  0  0  0  0  0  0  0  0
  146.5263  139.4374  154.4090 H   0  0  0  0  0  0  0  0  0  0  0  0
  145.3129  139.6792  157.1129 H   0  0  0  0  0  0  0  0  0  0  0  0
  144.2731  138.7989  156.0306 H   0  0  0  0  0  0  0  0  0  0  0  0
  145.7530  138.0813  158.4653 H   0  0  0  0  0  0  0  0  0  0  0  0
  146.0885  136.4574  157.9579 H   0  0  0  0  0  0  0  0  0  0  0  0
  148.0967  137.2069  159.1595 H   0  0  0  0  0  0  0  0  0  0  0  0
  148.5108  137.2664  157.4592 H   0  0  0  0  0  0  0  0  0  0  0  0
  149.0445  139.1745  158.6113 H   0  0  0  0  0  0  0  0  0  0  0  0
  147.2497  133.8070  155.3555 H   0  0  0  0  0  0  0  0  0  0  0  0
  143.4821  137.6838  151.8560 H   0  0  0  0  0  0  0  0  0  0  0  0
  143.7992  135.6526  150.5775 H   0  0  0  0  0  0  0  0  0  0  0  0
  144.0150  133.2828  152.4869 H   0  0  0  0  0  0  0  0  0  0  0  0
  142.7064  133.6415  151.3092 H   0  0  0  0  0  0  0  0  0  0  0  0
  145.8223  131.8265  151.7303 H   0  0  0  0  0  0  0  0  0  0  0  0
  144.6544  130.9526  150.7695 H   0  0  0  0  0  0  0  0  0  0  0  0
  147.1984  131.4354  150.2295 H   0  0  0  0  0  0  0  0  0  0  0  0
  144.7220  132.4567  148.2976 H   0  0  0  0  0  0  0  0  0  0  0  0
  143.1614  132.2314  149.0534 H   0  0  0  0  0  0  0  0  0  0  0  0
  144.2282  134.4418  147.8396 H   0  0  0  0  0  0  0  0  0  0  0  0
  145.8551  134.8334  149.6308 H   0  0  0  0  0  0  0  0  0  0  0  0
  146.4008  134.1873  151.2142 H   0  0  0  0  0  0  0  0  0  0  0  0
  1  2  1  0  0  0  0
  1 28  1  0  0  0  0
  2  3  1  0  0  0  0
  2 29  1  0  0  0  0
  2 30  1  0  0  0  0
  3  4  1  0  0  0  0
  3 31  1  0  0  0  0
  3 32  1  0  0  0  0
  4  5  1  0  0  0  0
  5  6  1  0  0  0  0
  5 33  1  0  0  0  0
  5 34  1  0  0  0  0
  6  7  1  0  0  0  0
  6 35  1  0  0  0  0
  6 36  1  0  0  0  0
  7  8  1  0  0  0  0
  7 11  1  0  0  0  0
  8  9  1  0  0  0  0
  8 37  1  0  0  0  0
  8 38  1  0  0  0  0
  9 10  1  0  0  0  0
  9 39  1  0  0  0  0
  9 40  1  0  0  0  0
 10 41  1  0  0  0  0
 11 16  1  0  0  0  0
 11 12  2  0  0  0  0
 12 13  1  0  0  0  0
 13 14  2  0  0  0  0
 13 42  1  0  0  0  0
 14 15  1  0  0  0  0
 15 19  1  0  0  0  0
 15 16  2  0  0  0  0
 16 17  1  0  0  0  0
 17 18  2  0  0  0  0
 18 19  1  0  0  0  0
 18 43  1  0  0  0  0
 19 20  1  0  0  0  0
 20 27  1  0  0  0  0
 20 21  1  0  0  0  0
 20 44  1  0  0  0  0
 21 22  1  0  0  0  0
 21 45  1  0  0  0  0
 21 46  1  0  0  0  0
 22 23  1  0  0  0  0
 22 25  1  0  0  0  0
 22 27  1  0  0  0  0
 23 24  1  0  0  0  0
 23 47  1  0  0  0  0
 23 48  1  0  0  0  0
 24 49  1  0  0  0  0
 25 26  1  0  0  0  0
 25 50  1  0  0  0  0
 25 51  1  0  0  0  0
 26 52  1  0  0  0  0
 27 53  1  0  0  0  0
 27 54  1  0  0  0  0
M  END
> <s_m_source_file>
AV-unprocessed.smi

> <i_m_source_file_index>
205

> <i_lp_mmshare_version>
43012

> <i_f3d_flags>
0

> <s_epik_input>
W09IXVtDSDJdW0NIMl1PW0NIMl1bQ0gyXU4oW0NIMl1bQ0gyXVtPSF0pYyhuW2NIXW4xKWMoYzEyKW5bY0hdbjJbQ0hdKFtDSDJdMylbQ0gyXUMzKFtDSDJdW09IXSlbQ0gyXVtPSF0=

> <s_epik_cmdline>
J2VwaWtfcHl0aG9uJywgJy1waCcsICc3LjAnLCAnLXRuJywgJzgnLCAnLW1hJywgJzIwMCcsICctbWV0YWxfYmluZGluZycsICctaW1hZScsICc8aW5maWxlLm1hZT4nLCAnLW9tYWUnLCAnPG91dGZpbGUubWFlPic=

> <r_lp_tautomer_probability>
1

> <r_epik_Ionization_Penalty>
0.00545557

> <r_epik_Ionization_Penalty_Charging>
0

> <r_epik_Ionization_Penalty_Neutral>
0.00545557

> <r_epik_State_Penalty>
0.00384469

> <r_epik_Charging_Adjusted_Penalty>
0.00384469

> <i_epik_Tot_Q>
0

> <i_epik_Tot_abs_Q>
0

> <r_epik_Metal_State_Penalty>
-0

> <b_epik_Metal_Only>
0

> <s_lp_Force_Field>
OPLS_2005

> <r_lp_Energy>
40.5801

> <b_lp_Chiralities_Consistent>
1

> <s_lp_Variant>
AV-unprocessed.smi:205-1

> <Gold.Version>
5.8.1

> <Gold.Id.Protein>
6NUR|6NUR_protein|mol2

> <Gold.PLP.Fitness>
46.7686

> <Gold.PLP.PLP>
-35.0995

> <Gold.PLP.part.hbond>
-7.2117

> <Gold.PLP.part.metal>
0.0000

> <Gold.PLP.part.buried>
-3.6960

> <Gold.PLP.part.nonpolar>
-22.9905

> <Gold.PLP.part.repulsive>
0.6271

> <Gold.PLP.ligand.clash>
0.0000

> <Gold.PLP.ligand.torsion>
1.3874

> <Gold.PLP.Chemscore.Hbond>
3.1311

> <Gold.PLP.Chemscore.CHOScore>
1.1883

> <Gold.PLP.Chemscore.Metal>
0.0000

> <Gold.Chemscore.Hbonds>
donor molecule, donor type, donor heavy atom, donor atom, acceptor molecule, acceptor atom, score
      L1  H    24    49       P1 10747  0.96
      L1  H    26    52       P1  7921  0.93
      P1  H  8011  8017       L1     1  1.00
      P1  H 10192 10197       L1    26  0.20
      L1  C    18    43       P1 10171  1.00
      L1  C    18    43       P1 10175  0.15

> <Gold.PLP.Chemscore.Internal.Correction>
1.4855

> <Gold.Rescore>
     Score         DG    S(hbond)    S(metal)    S(lipo)     H(rot)  DE(clash)    DE(int)     intcor
      1.49      -5.45       2.91        0.00      64.45       6.76       0.01       3.95       ----

> <Gold.Chemscore.Fitness>
1.4905

> <Gold.Chemscore.DG>
-5.4487

> <Gold.Chemscore.ZeroCoef>
-5.4800

> <Gold.Chemscore.Hbond>
2.9141

> <Gold.Chemscore.Metal>
0.0000

> <Gold.Chemscore.Lipo>
64.4534

> <Gold.Chemscore.Internal_Hbond>
0.0000

> <Gold.Chemscore.DEClash>
0.0057

> <Gold.Chemscore.DEInternal>
3.9525

> <Gold.Chemscore.Rot>
6.7600

> <Gold.Chemscore.Internal.Correction>
   9.000000E+99

> <Gold.Chemscore.Hbonds>
donor molecule, donor type, donor heavy atom, donor atom, acceptor molecule, acceptor atom, score
      L1  H    24    49       P1 10747  0.92
      L1  H    26    52       P1  7921  0.91
      P1  H  8011  8017       L1     1  0.25
      P1  H 10192 10197       L1    26  0.01

> <Gold.Chemscore.Hbond.Weighted>
-9.7331

> <Gold.Chemscore.Metal.Weighted>
-0.0000

> <Gold.Chemscore.Lipo.Weighted>
-7.5410

> <Gold.Chemscore.Internal_Hbond.Weighted>
0.0000

> <Gold.Chemscore.DEClash.Weighted>
0.0057

> <Gold.Chemscore.DEInternal.Weighted>
3.9525

> <Gold.Chemscore.Rot.Weighted>
17.3055

> <Gold.Chemscore.Internal.Correction.Weighted>
   9.000000E+99

> <Gold.Protein.RotatedTorsions>
[ 6907 6896 6895 6894 ] final -104.12 input  -60.11 | X-H torsion
[ 7974 7965 7964 7962 ] final   95.20 input  175.53 | X-H torsion
[ 8008 7997 7996 7995 ] final    9.85 input   59.86 | X-H torsion
[ 10167 10162 10161 10158 ] final -178.69 input  -65.29 | X-H torsion
[ 10718 10713 10712 10709 ] final  -13.20 input   66.30 | X-H torsion
[ 10763 10752 10751 10750 ] final  179.37 input  -60.55 | X-H torsion
[ 11005 11000 10999 10996 ] final   37.86 input  -57.11 | X-H torsion

> <Gold.Protein.ActiveResidues>
 VAL166  LYS551  ARG553  GLY616  TRP617  ASP618  TYR619  PRO620  LYS621  CYS622 
 ASP623  PHE694  ASN695  SER759  ASP760  ASP761  ALA762  ILE779  LEU786  VAL792 
 PHE793  MET794  SER795  GLU796  ALA797  LYS798  CYS799  TRP800  GLU811  SER814 

> <Gold.Protein.RotatedAtoms>
  150.7272  134.0326  159.3738 H   0  0  0  0  0  0  0  0  0  0  0  0  # atno 6907 bound_to 6896
  151.8296  135.0623  160.0444 H   0  0  0  0  0  0  0  0  0  0  0  0  # atno 6908 bound_to 6896
  152.2943  133.5556  159.5614 H   0  0  0  0  0  0  0  0  0  0  0  0  # atno 6909 bound_to 6896
  145.4553  139.2290  143.3017 H   0  0  0  0  0  0  0  0  0  0  0  0  # atno 7974 bound_to 7965
  154.7855  140.2826  155.6031 H   0  0  0  0  0  0  0  0  0  0  0  0  # atno 8008 bound_to 7997
  156.2956  140.2615  156.2619 H   0  0  0  0  0  0  0  0  0  0  0  0  # atno 8009 bound_to 7997
  154.9732  140.0376  157.2234 H   0  0  0  0  0  0  0  0  0  0  0  0  # atno 8010 bound_to 7997
  139.5421  144.2336  152.0915 H   0  0  0  0  0  0  0  0  0  0  0  0  # atno 10167 bound_to 10162
  156.6337  130.4908  149.6120 H   0  0  0  0  0  0  0  0  0  0  0  0  # atno 10718 bound_to 10713
  154.5197  135.2793  155.1272 H   0  0  0  0  0  0  0  0  0  0  0  0  # atno 10763 bound_to 10752
  154.2835  135.6281  153.5360 H   0  0  0  0  0  0  0  0  0  0  0  0  # atno 10764 bound_to 10752
  152.9934  135.5657  154.5683 H   0  0  0  0  0  0  0  0  0  0  0  0  # atno 10765 bound_to 10752
  140.2184  134.3671  155.8016 H   0  0  0  0  0  0  0  0  0  0  0  0  # atno 11005 bound_to 11000
  146.2481  140.5317  142.8905 LP  0  0  0  0  0  0  0  0  0  0  0  0  # atno 17320 bound_to 7965
  144.8036  140.6258  143.6462 LP  0  0  0  0  0  0  0  0  0  0  0  0  # atno 17321 bound_to 7965
  140.1816  144.4839  150.6525 LP  0  0  0  0  0  0  0  0  0  0  0  0  # atno 17342 bound_to 10162
  140.6654  143.2266  151.5754 LP  0  0  0  0  0  0  0  0  0  0  0  0  # atno 17343 bound_to 10162
  156.2214  130.6739  151.1372 LP  0  0  0  0  0  0  0  0  0  0  0  0  # atno 17370 bound_to 10713
  157.7192  131.0692  150.6204 LP  0  0  0  0  0  0  0  0  0  0  0  0  # atno 17371 bound_to 10713
  141.2224  133.7180  156.8534 LP  0  0  0  0  0  0  0  0  0  0  0  0  # atno 17394 bound_to 11000
  140.1876  134.8989  157.3022 LP  0  0  0  0  0  0  0  0  0  0  0  0  # atno 17395 bound_to 11000

$$$$
