AV-unprocessed.smi:2991|AV-procd|sdf|11400|dock3
  -GOLD-   2272016323D 1   1.00000     0.00000
 Structure written by MMmdl.
 38 39  0  0  0  0  0  0  0  0  2 V2000
  150.5323  141.2689  155.6262 C   0  0  0  0  0  0  0  0  0  0  0  0
  149.2670  141.0172  154.8289 C   0  0  0  0  0  0  0  0  0  0  0  0
  148.4254  142.0574  154.6404 N   0  3  0  0  0  0  0  0  0  0  0  0
  147.2751  141.9556  153.9427 C   0  0  0  0  0  0  0  0  0  0  0  0
  146.9036  140.7204  153.3768 C   0  0  0  0  0  0  0  0  0  0  0  0
  147.7417  139.5908  153.5576 C   0  0  0  0  0  0  0  0  0  0  0  0
  147.4523  138.3123  153.0039 N   0  0  0  0  0  0  0  0  0  0  0  0
  146.2549  137.7699  152.7258 C   0  0  0  0  0  0  0  0  0  0  0  0
  145.1665  138.3111  152.9193 O   0  0  0  0  0  0  0  0  0  0  0  0
  146.3903  136.5370  152.2170 N   0  0  0  0  0  0  0  0  0  0  0  0
  145.2966  135.6436  151.8321 C   0  0  1  0  0  0  0  0  0  0  0  0
  145.7287  134.7587  150.6414 C   0  0  0  0  0  0  0  0  0  0  0  0
  144.5561  134.1966  149.8218 C   0  0  0  0  0  0  0  0  0  0  0  0
  143.6259  133.2488  150.5935 C   0  0  0  0  0  0  0  0  0  0  0  0
  142.8578  133.9335  151.7369 C   0  0  0  0  0  0  0  0  0  0  0  0
  143.6734  134.1125  152.9316 N   0  0  0  0  0  0  0  0  0  0  0  0
  144.7841  134.8555  153.0525 C   0  0  0  0  0  0  0  0  0  0  0  0
  145.3905  134.9021  154.1228 O   0  0  0  0  0  0  0  0  0  0  0  0
  148.9472  139.7507  154.2852 C   0  0  0  0  0  0  0  0  0  0  0  0
  150.0202  138.4112  154.5163 Cl  0  0  0  0  0  0  0  0  0  0  0  0
  150.5488  140.6430  156.5187 H   0  0  0  0  0  0  0  0  0  0  0  0
  150.6045  142.3102  155.9412 H   0  0  0  0  0  0  0  0  0  0  0  0
  151.4119  141.0361  155.0259 H   0  0  0  0  0  0  0  0  0  0  0  0
  146.6928  142.8611  153.8528 H   0  0  0  0  0  0  0  0  0  0  0  0
  145.9901  140.6669  152.8046 H   0  0  0  0  0  0  0  0  0  0  0  0
  148.2512  137.7087  152.8721 H   0  0  0  0  0  0  0  0  0  0  0  0
  147.3238  136.1685  152.1039 H   0  0  0  0  0  0  0  0  0  0  0  0
  144.4683  136.2775  151.5093 H   0  0  0  0  0  0  0  0  0  0  0  0
  146.3481  135.3420  149.9587 H   0  0  0  0  0  0  0  0  0  0  0  0
  146.3650  133.9445  150.9914 H   0  0  0  0  0  0  0  0  0  0  0  0
  143.9741  135.0207  149.4073 H   0  0  0  0  0  0  0  0  0  0  0  0
  144.9618  133.6599  148.9637 H   0  0  0  0  0  0  0  0  0  0  0  0
  142.8992  132.8443  149.8882 H   0  0  0  0  0  0  0  0  0  0  0  0
  144.1843  132.3910  150.9706 H   0  0  0  0  0  0  0  0  0  0  0  0
  142.4383  134.8877  151.4151 H   0  0  0  0  0  0  0  0  0  0  0  0
  142.0112  133.3085  152.0214 H   0  0  0  0  0  0  0  0  0  0  0  0
  143.3691  133.6116  153.7540 H   0  0  0  0  0  0  0  0  0  0  0  0
  148.6740  142.9628  155.0397 H   0  0  0  0  0  0  0  0  0  0  0  0
  1  2  1  0  0  0  0
  1 21  1  0  0  0  0
  1 22  1  0  0  0  0
  1 23  1  0  0  0  0
  2 19  1  0  0  0  0
  2  3  2  0  0  0  0
  3  4  1  0  0  0  0
  3 38  1  0  0  0  0
  4  5  2  0  0  0  0
  4 24  1  0  0  0  0
  5  6  1  0  0  0  0
  5 25  1  0  0  0  0
  6  7  1  0  0  0  0
  6 19  2  0  0  0  0
  7  8  1  0  0  0  0
  7 26  1  0  0  0  0
  8  9  2  0  0  0  0
  8 10  1  0  0  0  0
 10 11  1  0  0  0  0
 10 27  1  0  0  0  0
 11 17  1  0  0  0  0
 11 12  1  0  0  0  0
 11 28  1  0  0  0  0
 12 13  1  0  0  0  0
 12 29  1  0  0  0  0
 12 30  1  0  0  0  0
 13 14  1  0  0  0  0
 13 31  1  0  0  0  0
 13 32  1  0  0  0  0
 14 15  1  0  0  0  0
 14 33  1  0  0  0  0
 14 34  1  0  0  0  0
 15 16  1  0  0  0  0
 15 35  1  0  0  0  0
 15 36  1  0  0  0  0
 16 17  1  0  0  0  0
 16 37  1  0  0  0  0
 17 18  2  0  0  0  0
 19 20  1  0  0  0  0
M  CHG  1   3   1
M  END
> <s_m_source_file>
AV-unprocessed.smi

> <i_m_source_file_index>
2991

> <i_lp_mmshare_version>
43012

> <i_f3d_flags>
0

> <s_epik_input>
W0NIM11jMW5bY0hdW2NIXWMoYzFDbClbTkhdQyg9TylbTkhdW0NAQEhdMltDSDJdW0NIMl1bQ0gyXVtDSDJdW05IXUMyPU8=

> <s_epik_cmdline>
J2VwaWtfcHl0aG9uJywgJy1waCcsICc3LjAnLCAnLXRuJywgJzgnLCAnLW1hJywgJzIwMCcsICctbWV0YWxfYmluZGluZycsICctaW1hZScsICc8aW5maWxlLm1hZT4nLCAnLW9tYWUnLCAnPG91dGZpbGUubWFlPic=

> <r_epik_Ionization_Penalty>
2.55031

> <r_epik_Ionization_Penalty_Charging>
2.55029

> <r_epik_Ionization_Penalty_Neutral>
1.86001e-05

> <r_epik_State_Penalty>
2.71882

> <r_epik_Charging_Adjusted_Penalty>
5.26911

> <i_epik_Tot_Q>
1

> <i_epik_Tot_abs_Q>
1

> <r_epik_Metal_State_Penalty>
2.7268

> <b_epik_Metal_Only>
0

> <s_lp_Force_Field>
OPLS_2005

> <r_lp_Energy>
20.593

> <b_lp_Chiralities_Consistent>
1

> <s_lp_Variant>
AV-unprocessed.smi:2991-4

> <Gold.Version>
5.8.1

> <Gold.Id.Protein>
6NUR|6NUR_protein|mol2

> <Gold.PLP.Fitness>
44.9830

> <Gold.PLP.PLP>
-31.8179

> <Gold.PLP.part.hbond>
-3.9345

> <Gold.PLP.part.metal>
0.0000

> <Gold.PLP.part.buried>
-1.5702

> <Gold.PLP.part.nonpolar>
-28.0536

> <Gold.PLP.part.repulsive>
2.2721

> <Gold.PLP.ligand.clash>
0.0000

> <Gold.PLP.ligand.torsion>
0.5229

> <Gold.PLP.Chemscore.Hbond>
4.7280

> <Gold.PLP.Chemscore.CHOScore>
0.0000

> <Gold.PLP.Chemscore.Metal>
0.0000

> <Gold.Chemscore.Hbonds>
donor molecule, donor type, donor heavy atom, donor atom, acceptor molecule, acceptor atom, score
      L1  H     3    38       P1  8028  2.00
      L1  H     7    26       P1  7948  0.90
      L1  H    10    27       P1  7948  1.00
      L1  H    16    37       P1 10957  0.50

> <Gold.PLP.Chemscore.Internal.Correction>
0.0270

> <Gold.Rescore>
     Score         DG    S(hbond)    S(metal)    S(lipo)     H(rot)  DE(clash)    DE(int)     intcor
     18.73     -20.13       2.52        0.00      75.24       1.00       0.14       1.27       ----

> <Gold.Chemscore.Fitness>
18.7279

> <Gold.Chemscore.DG>
-20.1318

> <Gold.Chemscore.ZeroCoef>
-5.4800

> <Gold.Chemscore.Hbond>
2.5176

> <Gold.Chemscore.Metal>
0.0000

> <Gold.Chemscore.Lipo>
75.2384

> <Gold.Chemscore.Internal_Hbond>
0.0000

> <Gold.Chemscore.DEClash>
0.1377

> <Gold.Chemscore.DEInternal>
1.2662

> <Gold.Chemscore.Rot>
1.0000

> <Gold.Chemscore.Internal.Correction>
   9.000000E+99

> <Gold.Chemscore.Hbonds>
donor molecule, donor type, donor heavy atom, donor atom, acceptor molecule, acceptor atom, score
      L1  H     3    38       P1  8028  1.00
      L1  H     7    26       P1  7948  0.88
      L1  H    10    27       P1  7948  0.98
      L1  H    16    37       P1 10957  0.48

> <Gold.Chemscore.Hbond.Weighted>
-8.4089

> <Gold.Chemscore.Metal.Weighted>
-0.0000

> <Gold.Chemscore.Lipo.Weighted>
-8.8029

> <Gold.Chemscore.Internal_Hbond.Weighted>
0.0000

> <Gold.Chemscore.DEClash.Weighted>
0.1377

> <Gold.Chemscore.DEInternal.Weighted>
1.2662

> <Gold.Chemscore.Rot.Weighted>
2.5600

> <Gold.Chemscore.Internal.Correction.Weighted>
   9.000000E+99

> <Gold.Protein.RotatedTorsions>
[ 6907 6896 6895 6894 ] final  -52.55 input  -60.11 | X-H torsion
[ 7974 7965 7964 7962 ] final  112.22 input  175.53 | X-H torsion
[ 8008 7997 7996 7995 ] final  -76.86 input   59.86 | X-H torsion
[ 10167 10162 10161 10158 ] final   28.43 input  -65.29 | X-H torsion
[ 10718 10713 10712 10709 ] final  103.24 input   66.30 | X-H torsion
[ 10763 10752 10751 10750 ] final  156.70 input  -60.55 | X-H torsion
[ 11005 11000 10999 10996 ] final  178.87 input  -57.11 | X-H torsion

> <Gold.Protein.ActiveResidues>
 VAL166  LYS551  ARG553  GLY616  TRP617  ASP618  TYR619  PRO620  LYS621  CYS622 
 ASP623  PHE694  ASN695  SER759  ASP760  ASP761  ALA762  ILE779  LEU786  VAL792 
 PHE793  MET794  SER795  GLU796  ALA797  LYS798  CYS799  TRP800  GLU811  SER814 

> <Gold.Protein.RotatedAtoms>
  150.8508  134.7831  159.7006 H   0  0  0  0  0  0  0  0  0  0  0  0  # atno 6907 bound_to 6896
  152.4573  134.5260  159.9806 H   0  0  0  0  0  0  0  0  0  0  0  0  # atno 6908 bound_to 6896
  151.5382  133.3399  159.2966 H   0  0  0  0  0  0  0  0  0  0  0  0  # atno 6909 bound_to 6896
  145.2323  139.2814  143.4162 H   0  0  0  0  0  0  0  0  0  0  0  0  # atno 7974 bound_to 7965
  154.5543  140.0720  156.8718 H   0  0  0  0  0  0  0  0  0  0  0  0  # atno 8008 bound_to 7997
  155.2933  140.3379  155.4233 H   0  0  0  0  0  0  0  0  0  0  0  0  # atno 8009 bound_to 7997
  156.1988  140.1714  156.7928 H   0  0  0  0  0  0  0  0  0  0  0  0  # atno 8010 bound_to 7997
  140.4853  144.0552  150.6278 H   0  0  0  0  0  0  0  0  0  0  0  0  # atno 10167 bound_to 10162
  157.6778  131.0774  150.5525 H   0  0  0  0  0  0  0  0  0  0  0  0  # atno 10718 bound_to 10713
  154.1885  135.2796  155.3029 H   0  0  0  0  0  0  0  0  0  0  0  0  # atno 10763 bound_to 10752
  154.5947  135.5548  153.7317 H   0  0  0  0  0  0  0  0  0  0  0  0  # atno 10764 bound_to 10752
  153.0118  135.6377  154.2024 H   0  0  0  0  0  0  0  0  0  0  0  0  # atno 10765 bound_to 10752
  140.3999  134.6786  157.4556 H   0  0  0  0  0  0  0  0  0  0  0  0  # atno 11005 bound_to 11000
  146.3350  140.2661  142.8604 LP  0  0  0  0  0  0  0  0  0  0  0  0  # atno 17320 bound_to 7965
  144.9665  140.8327  143.5481 LP  0  0  0  0  0  0  0  0  0  0  0  0  # atno 17321 bound_to 7965
  140.3806  143.2805  152.0175 LP  0  0  0  0  0  0  0  0  0  0  0  0  # atno 17342 bound_to 10162
  139.4841  144.6158  151.7349 LP  0  0  0  0  0  0  0  0  0  0  0  0  # atno 17343 bound_to 10162
  156.5829  130.4309  149.5969 LP  0  0  0  0  0  0  0  0  0  0  0  0  # atno 17370 bound_to 10713
  156.2646  130.6982  151.1761 LP  0  0  0  0  0  0  0  0  0  0  0  0  # atno 17371 bound_to 10713
  140.0344  134.6359  155.9063 LP  0  0  0  0  0  0  0  0  0  0  0  0  # atno 17394 bound_to 11000
  141.1860  133.6556  156.5223 LP  0  0  0  0  0  0  0  0  0  0  0  0  # atno 17395 bound_to 11000

$$$$
