AV-unprocessed.smi:1323|AV-procd|sdf|5466|dock1
  -GOLD-   22720 5 33D 1   1.00000     0.00000
 Structure written by MMmdl.
 45 46  0  0  0  0  0  0  0  0  1 V2000
  144.7290  138.0119  161.9385 C   0  0  0  0  0  0  0  0  0  0  0  0
  145.4722  136.7796  162.4782 C   0  0  1  0  0  0  0  0  0  0  0  0
  144.9691  135.4763  161.8214 C   0  0  0  0  0  0  0  0  0  0  0  0
  145.6843  134.2415  162.3935 C   0  0  0  0  0  0  0  0  0  0  0  0
  147.2118  134.3739  162.2866 C   0  0  0  0  0  0  0  0  0  0  0  0
  147.7056  135.6752  162.9372 C   0  0  0  0  0  0  0  0  0  0  0  0
  147.0050  136.9116  162.3317 C   0  0  1  0  0  0  0  0  0  0  0  0
  147.2788  137.0586  160.9433 O   0  0  0  0  0  0  0  0  0  0  0  0
  148.5309  136.5735  160.4854 C   0  0  0  0  0  0  0  0  0  0  0  0
  148.4143  136.2506  158.9875 C   0  0  0  0  0  0  0  0  0  0  0  0
  149.1657  137.1995  158.1699 N   0  0  0  0  0  0  0  0  0  0  0  0
  150.3901  137.6660  158.4635 C   0  0  0  0  0  0  0  0  0  0  0  0
  151.0305  137.3036  159.4513 O   0  0  0  0  0  0  0  0  0  0  0  0
  150.9917  138.6793  157.4807 C   0  0  0  0  0  0  0  0  0  0  0  0
  150.7771  140.0702  157.9131 N   0  0  0  0  0  0  0  0  0  0  0  0
  149.4534  140.5538  157.8901 C   0  0  0  0  0  0  0  0  0  0  0  0
  149.1524  141.8160  158.2340 C   0  0  0  0  0  0  0  0  0  0  0  0
  150.2296  142.6896  158.6352 C   0  0  0  0  0  0  0  0  0  0  0  0
  151.4987  142.2362  158.6644 C   0  0  0  0  0  0  0  0  0  0  0  0
  151.8308  140.8549  158.2972 C   0  0  0  0  0  0  0  0  0  0  0  0
  152.9855  140.4302  158.3333 O   0  0  0  0  0  0  0  0  0  0  0  0
  144.8747  138.1291  160.8641 H   0  0  0  0  0  0  0  0  0  0  0  0
  145.0774  138.9240  162.4237 H   0  0  0  0  0  0  0  0  0  0  0  0
  143.6568  137.9318  162.1192 H   0  0  0  0  0  0  0  0  0  0  0  0
  145.2486  136.7176  163.5443 H   0  0  0  0  0  0  0  0  0  0  0  0
  143.8937  135.3735  161.9699 H   0  0  0  0  0  0  0  0  0  0  0  0
  145.1245  135.5195  160.7425 H   0  0  0  0  0  0  0  0  0  0  0  0
  145.4032  134.1114  163.4394 H   0  0  0  0  0  0  0  0  0  0  0  0
  145.3518  133.3441  161.8709 H   0  0  0  0  0  0  0  0  0  0  0  0
  147.6925  133.5157  162.7565 H   0  0  0  0  0  0  0  0  0  0  0  0
  147.5122  134.3603  161.2390 H   0  0  0  0  0  0  0  0  0  0  0  0
  147.5011  135.6381  164.0080 H   0  0  0  0  0  0  0  0  0  0  0  0
  148.7887  135.7521  162.8505 H   0  0  0  0  0  0  0  0  0  0  0  0
  147.3379  137.8094  162.8550 H   0  0  0  0  0  0  0  0  0  0  0  0
  149.3032  137.3281  160.6402 H   0  0  0  0  0  0  0  0  0  0  0  0
  148.8266  135.6789  161.0332 H   0  0  0  0  0  0  0  0  0  0  0  0
  148.7412  135.2279  158.7916 H   0  0  0  0  0  0  0  0  0  0  0  0
  147.3685  136.3013  158.6847 H   0  0  0  0  0  0  0  0  0  0  0  0
  148.7130  137.5429  157.3352 H   0  0  0  0  0  0  0  0  0  0  0  0
  152.0586  138.4717  157.3886 H   0  0  0  0  0  0  0  0  0  0  0  0
  150.5825  138.5184  156.4813 H   0  0  0  0  0  0  0  0  0  0  0  0
  148.7092  139.8399  157.5681 H   0  0  0  0  0  0  0  0  0  0  0  0
  148.1326  142.1708  158.2046 H   0  0  0  0  0  0  0  0  0  0  0  0
  150.0177  143.7123  158.9103 H   0  0  0  0  0  0  0  0  0  0  0  0
  152.2924  142.9046  158.9644 H   0  0  0  0  0  0  0  0  0  0  0  0
  1  2  1  0  0  0  0
  1 22  1  0  0  0  0
  1 23  1  0  0  0  0
  1 24  1  0  0  0  0
  2  7  1  0  0  0  0
  2  3  1  0  0  0  0
  2 25  1  0  0  0  0
  3  4  1  0  0  0  0
  3 26  1  0  0  0  0
  3 27  1  0  0  0  0
  4  5  1  0  0  0  0
  4 28  1  0  0  0  0
  4 29  1  0  0  0  0
  5  6  1  0  0  0  0
  5 30  1  0  0  0  0
  5 31  1  0  0  0  0
  6  7  1  0  0  0  0
  6 32  1  0  0  0  0
  6 33  1  0  0  0  0
  7  8  1  0  0  0  0
  7 34  1  0  0  0  0
  8  9  1  0  0  0  0
  9 10  1  0  0  0  0
  9 35  1  0  0  0  0
  9 36  1  0  0  0  0
 10 11  1  0  0  0  0
 10 37  1  0  0  0  0
 10 38  1  0  0  0  0
 11 12  1  0  0  0  0
 11 39  1  0  0  0  0
 12 13  2  0  0  0  0
 12 14  1  0  0  0  0
 14 15  1  0  0  0  0
 14 40  1  0  0  0  0
 14 41  1  0  0  0  0
 15 20  1  0  0  0  0
 15 16  1  0  0  0  0
 16 17  2  0  0  0  0
 16 42  1  0  0  0  0
 17 18  1  0  0  0  0
 17 43  1  0  0  0  0
 18 19  2  0  0  0  0
 18 44  1  0  0  0  0
 19 20  1  0  0  0  0
 19 45  1  0  0  0  0
 20 21  2  0  0  0  0
M  END
> <s_m_source_file>
AV-unprocessed.smi

> <i_m_source_file_index>
1323

> <i_lp_mmshare_version>
43012

> <i_f3d_flags>
0

> <s_epik_input>
W0NIM11bQ0BASF0xW0NIMl1bQ0gyXVtDSDJdW0NIMl1bQ0BIXTFPW0NIMl1bQ0gyXVtOSF1DKD1PKVtDSDJdbjJbY0hdW2NIXVtjSF1bY0hdYzI9Tw==

> <s_epik_cmdline>
J2VwaWtfcHl0aG9uJywgJy1waCcsICc3LjAnLCAnLXRuJywgJzgnLCAnLW1hJywgJzIwMCcsICctbWV0YWxfYmluZGluZycsICctaW1hZScsICc8aW5maWxlLm1hZT4nLCAnLW9tYWUnLCAnPG91dGZpbGUubWFlPic=

> <r_lp_tautomer_probability>
1

> <r_epik_Ionization_Penalty>
4.02412e-07

> <r_epik_Ionization_Penalty_Charging>
3.74552e-07

> <r_epik_Ionization_Penalty_Neutral>
2.78599e-08

> <r_epik_State_Penalty>
-0

> <r_epik_Charging_Adjusted_Penalty>
3.74552e-07

> <i_epik_Tot_Q>
0

> <i_epik_Tot_abs_Q>
0

> <r_epik_Metal_State_Penalty>
-0

> <b_epik_Metal_Only>
0

> <s_lp_Force_Field>
OPLS_2005

> <r_lp_Energy>
18.6453

> <b_lp_Chiralities_Consistent>
1

> <s_lp_Variant>
AV-unprocessed.smi:1323-2

> <Gold.Version>
5.8.1

> <Gold.Id.Protein>
6NUR|6NUR_protein|mol2

> <Gold.PLP.Fitness>
42.8112

> <Gold.PLP.PLP>
-37.7219

> <Gold.PLP.part.hbond>
-3.6890

> <Gold.PLP.part.metal>
0.0000

> <Gold.PLP.part.buried>
-4.6249

> <Gold.PLP.part.nonpolar>
-29.9244

> <Gold.PLP.part.repulsive>
0.1162

> <Gold.PLP.ligand.clash>
0.4158

> <Gold.PLP.ligand.torsion>
1.3773

> <Gold.PLP.Chemscore.Hbond>
2.7000

> <Gold.PLP.Chemscore.CHOScore>
0.0000

> <Gold.PLP.Chemscore.Metal>
0.0000

> <Gold.Chemscore.Hbonds>
donor molecule, donor type, donor heavy atom, donor atom, acceptor molecule, acceptor atom, score
      P1  H  6896  6909       L1    13  0.52
      P1  H  6934  6947       L1     8  0.80
      P1  H  7997  8009       L1    21  0.70

> <Gold.PLP.Chemscore.Internal.Correction>
0.1597

> <Gold.Rescore>
     Score         DG    S(hbond)    S(metal)    S(lipo)     H(rot)  DE(clash)    DE(int)     intcor
     15.13     -17.69       2.06        0.00      88.04       1.94       0.13       2.42       ----

> <Gold.Chemscore.Fitness>
15.1327

> <Gold.Chemscore.DG>
-17.6888

> <Gold.Chemscore.ZeroCoef>
-5.4800

> <Gold.Chemscore.Hbond>
2.0581

> <Gold.Chemscore.Metal>
0.0000

> <Gold.Chemscore.Lipo>
88.0414

> <Gold.Chemscore.Internal_Hbond>
0.0000

> <Gold.Chemscore.DEClash>
0.1331

> <Gold.Chemscore.DEInternal>
2.4230

> <Gold.Chemscore.Rot>
1.9398

> <Gold.Chemscore.Internal.Correction>
   9.000000E+99

> <Gold.Chemscore.Hbonds>
donor molecule, donor type, donor heavy atom, donor atom, acceptor molecule, acceptor atom, score
      P1  H  6896  6909       L1    13  0.51
      P1  H  6934  6947       L1     8  0.09
      P1  H  7997  8009       L1    21  0.67

> <Gold.Chemscore.Hbond.Weighted>
-6.8739

> <Gold.Chemscore.Metal.Weighted>
-0.0000

> <Gold.Chemscore.Lipo.Weighted>
-10.3008

> <Gold.Chemscore.Internal_Hbond.Weighted>
0.0000

> <Gold.Chemscore.DEClash.Weighted>
0.1331

> <Gold.Chemscore.DEInternal.Weighted>
2.4230

> <Gold.Chemscore.Rot.Weighted>
4.9659

> <Gold.Chemscore.Internal.Correction.Weighted>
   9.000000E+99

> <Gold.Protein.RotatedTorsions>
[ 6907 6896 6895 6894 ] final  102.71 input  -60.11 | X-H torsion
[ 7974 7965 7964 7962 ] final   90.19 input  175.53 | X-H torsion
[ 8008 7997 7996 7995 ] final  152.00 input   59.86 | X-H torsion
[ 10167 10162 10161 10158 ] final  -45.00 input  -65.29 | X-H torsion
[ 10718 10713 10712 10709 ] final  112.78 input   66.30 | X-H torsion
[ 10763 10752 10751 10750 ] final -116.96 input  -60.55 | X-H torsion
[ 11005 11000 10999 10996 ] final  159.68 input  -57.11 | X-H torsion

> <Gold.Protein.ActiveResidues>
 VAL166  LYS551  ARG553  GLY616  TRP617  ASP618  TYR619  PRO620  LYS621  CYS622 
 ASP623  PHE694  ASN695  SER759  ASP760  ASP761  ALA762  ILE779  LEU786  VAL792 
 PHE793  MET794  SER795  GLU796  ALA797  LYS798  CYS799  TRP800  GLU811  SER814 

> <Gold.Protein.RotatedAtoms>
  152.5316  133.9935  159.7861 H   0  0  0  0  0  0  0  0  0  0  0  0  # atno 6907 bound_to 6896
  151.0167  133.5907  159.2683 H   0  0  0  0  0  0  0  0  0  0  0  0  # atno 6908 bound_to 6896
  151.2961  135.0762  159.9275 H   0  0  0  0  0  0  0  0  0  0  0  0  # atno 6909 bound_to 6896
  145.5223  139.2280  143.2665 H   0  0  0  0  0  0  0  0  0  0  0  0  # atno 7974 bound_to 7965
  156.2649  140.2032  156.6264 H   0  0  0  0  0  0  0  0  0  0  0  0  # atno 8008 bound_to 7997
  154.6717  140.0549  157.0196 H   0  0  0  0  0  0  0  0  0  0  0  0  # atno 8009 bound_to 7997
  155.1128  140.3217  155.4520 H   0  0  0  0  0  0  0  0  0  0  0  0  # atno 8010 bound_to 7997
  140.6875  143.2901  151.3576 H   0  0  0  0  0  0  0  0  0  0  0  0  # atno 10167 bound_to 10162
  157.6374  131.0973  150.6944 H   0  0  0  0  0  0  0  0  0  0  0  0  # atno 10718 bound_to 10713
  154.8538  135.4326  154.1904 H   0  0  0  0  0  0  0  0  0  0  0  0  # atno 10763 bound_to 10752
  153.2974  135.6966  153.7241 H   0  0  0  0  0  0  0  0  0  0  0  0  # atno 10764 bound_to 10752
  153.6384  135.3472  155.3038 H   0  0  0  0  0  0  0  0  0  0  0  0  # atno 10765 bound_to 10752
  140.1985  134.8355  157.2992 H   0  0  0  0  0  0  0  0  0  0  0  0  # atno 11005 bound_to 11000
  146.2098  140.6035  142.9065 LP  0  0  0  0  0  0  0  0  0  0  0  0  # atno 17320 bound_to 7965
  144.7669  140.5551  143.6696 LP  0  0  0  0  0  0  0  0  0  0  0  0  # atno 17321 bound_to 7965
  139.6247  144.0838  152.2423 LP  0  0  0  0  0  0  0  0  0  0  0  0  # atno 17342 bound_to 10162
  140.0294  144.6092  150.7500 LP  0  0  0  0  0  0  0  0  0  0  0  0  # atno 17343 bound_to 10162
  156.7274  130.4699  149.5508 LP  0  0  0  0  0  0  0  0  0  0  0  0  # atno 17370 bound_to 10713
  156.1625  130.6383  151.0737 LP  0  0  0  0  0  0  0  0  0  0  0  0  # atno 17371 bound_to 10713
  140.2080  134.4173  155.7627 LP  0  0  0  0  0  0  0  0  0  0  0  0  # atno 17394 bound_to 11000
  141.2227  133.7104  156.8291 LP  0  0  0  0  0  0  0  0  0  0  0  0  # atno 17395 bound_to 11000

$$$$
