#       Name:                AV-unprocessed.smi:2170
#       Creating user name   scv26
#       Creation time:       Fri Mar 27 12:01:52 2020


#       File generated by GOLD software.
#

@<TRIPOS>MOLECULE
AV-unprocessed.smi:2170
    52    53     1
SMALL
NO_CHARGES


@<TRIPOS>ATOM
      1 ****        -5.1213  -0.2060  -2.1057 C.3            1 S1                 0.0000
      2 ****        -3.8078   0.1634  -2.8159 C.3            1 S1                 0.0000
      3 ****        -4.0295   0.5650  -4.2852 C.3            1 S1                 0.0000
      4 ****        -2.8046  -0.9195  -2.6835 N.3            1 S1                 0.0000
      5 ****        -3.0799  -2.1439  -3.4576 C.3            1 S1                 0.0000
      6 ****        -1.1401  -0.4424  -2.5424 S.o2           1 S1                 0.0000
      7 ****        -0.5556  -0.3606  -3.8899 O.2            1 S1                 0.0000
      8 ****        -1.0370   0.6886  -1.6071 O.2            1 S1                 0.0000
      9 ****        -0.5030  -1.8378  -1.7540 N.3            1 S1                 0.0000
     10 ****         0.9325  -1.9423  -1.5001 C.3            1 S1                 0.0000
     11 ****         1.3645  -1.1767  -0.2651 C.ar           1 S1                 0.0000
     12 ****         0.9723  -1.5959   1.0207 C.ar           1 S1                 0.0000
     13 ****         1.3876  -0.8465   2.1380 C.ar           1 S1                 0.0000
     14 ****         2.1868   0.3051   1.9393 C.ar           1 S1                 0.0000
     15 ****         2.6143   1.0718   3.0453 N.3            1 S1                 0.0000
     16 ****         3.2819   0.3298   4.1120 C.3            1 S1                 0.0000
     17 ****         3.4121   1.2031   5.3720 C.3            1 S1                 0.0000
     18 ****         4.0741   2.4214   5.0486 O.3            1 S1                 0.0000
     19 ****         3.3462   3.1803   4.0889 C.3            1 S1                 0.0000
     20 ****         3.2166   2.3778   2.7832 C.3            1 S1                 0.0000
     21 ****         2.5558   0.7068   0.6973 N.ar           1 S1                 0.0000
     22 ****         2.1551  -0.0151  -0.3703 C.ar           1 S1                 0.0000
     23 ****        -5.7954   0.6504  -2.0752 H              1 S1                 0.0000
     24 ****        -4.9374  -0.5128  -1.0755 H              1 S1                 0.0000
     25 ****        -5.6526  -1.0140  -2.6076 H              1 S1                 0.0000
     26 ****        -3.4222   1.0411  -2.2977 H              1 S1                 0.0000
     27 ****        -4.6779   1.4388  -4.3519 H              1 S1                 0.0000
     28 ****        -4.5002  -0.2323  -4.8608 H              1 S1                 0.0000
     29 ****        -3.0873   0.8201  -4.7713 H              1 S1                 0.0000
     30 ****        -2.8270  -1.9949  -4.5077 H              1 S1                 0.0000
     31 ****        -4.1263  -2.4361  -3.3898 H              1 S1                 0.0000
     32 ****        -2.4862  -2.9766  -3.0830 H              1 S1                 0.0000
     33 ****        -0.9610  -2.7114  -2.0117 H              1 S1                 0.0000
     34 ****         1.1852  -2.9936  -1.3609 H              1 S1                 0.0000
     35 ****         1.4834  -1.6012  -2.3775 H              1 S1                 0.0000
     36 ****         0.3574  -2.4743   1.1500 H              1 S1                 0.0000
     37 ****         1.0754  -1.1517   3.1254 H              1 S1                 0.0000
     38 ****         2.7455  -0.5827   4.3681 H              1 S1                 0.0000
     39 ****         4.2709   0.0287   3.7641 H              1 S1                 0.0000
     40 ****         2.4317   1.4119   5.8036 H              1 S1                 0.0000
     41 ****         3.9890   0.6780   6.1334 H              1 S1                 0.0000
     42 ****         2.3632   3.4411   4.4845 H              1 S1                 0.0000
     43 ****         3.8727   4.1161   3.9027 H              1 S1                 0.0000
     44 ****         4.1998   2.2379   2.3320 H              1 S1                 0.0000
     45 ****         2.6076   2.9395   2.0738 H              1 S1                 0.0000
     46 ****         2.4721   0.3501  -1.3361 H              1 S1                 0.0000
     47 ****        -2.9708  -1.2269  -1.7465 LP             1 S1                 0.0000
     48 ****        -0.7884  -1.6295  -0.8185 LP             1 S1                 0.0000
     49 ****         1.7183   1.3211   3.4130 LP             1 S1                 0.0000
     50 ****         4.9776   2.2098   4.6761 LP             1 S1                 0.0000
     51 ****         4.1760   2.9654   5.8815 LP             1 S1                 0.0000
     52 ****         3.1164   1.5257   0.5746 LP             1 S1                 0.0000
@<TRIPOS>BOND
    1    1    2 1     
    2    1   23 1     
    3    1   24 1     
    4    1   25 1     
    5    2    3 1     
    6    2    4 1     
    7    2   26 1     
    8    3   27 1     
    9    3   28 1     
   10    3   29 1     
   11    4    5 1     
   12    4    6 1     
   13    5   30 1     
   14    5   31 1     
   15    5   32 1     
   16    6    7 2     
   17    6    8 2     
   18    6    9 1     
   19    9   10 1     
   20    9   33 1     
   21   10   11 1     
   22   10   34 1     
   23   10   35 1     
   24   11   22 ar    
   25   11   12 ar    
   26   12   13 ar    
   27   12   36 1     
   28   13   14 ar    
   29   13   37 1     
   30   14   15 1     
   31   14   21 ar    
   32   15   20 1     
   33   15   16 1     
   34   16   17 1     
   35   16   38 1     
   36   16   39 1     
   37   17   18 1     
   38   17   40 1     
   39   17   41 1     
   40   18   19 1     
   41   19   20 1     
   42   19   42 1     
   43   19   43 1     
   44   20   44 1     
   45   20   45 1     
   46   21   22 ar    
   47   22   46 1     
   48    4   47 1     
   49    9   48 1     
   50   15   49 1     
   51   18   50 1     
   52   18   51 1     
   53   21   52 1     
@<TRIPOS>SUBSTRUCTURE
      1 S1             1
@<TRIPOS>SET
LONE_PAIRS      STATIC     ATOMS    <user>   **** ""
8 47 7 8 48 49 50 51 52
DONOR_HYDROGENS      STATIC     ATOMS    <user>   **** ""
1 33
ATOM$BLUE        STATIC     ATOMS    COLORGROUP SYSTEM
8 47 7 8 48 49 50 51 52
ATOM$RED        STATIC     ATOMS    COLORGROUP SYSTEM
1 33
