AV-unprocessed.smi:2881|AV-procd|sdf|11058|dock5
  -GOLD-   2272015533D 1   1.00000     0.00000
 Structure written by MMmdl.
 40 42  0  0  0  0  0  0  0  0  1 V2000
  148.0788  141.7378  154.1882 C   0  0  0  0  0  0  0  0  0  0  0  0
  149.2504  140.8731  154.5094 C   0  0  0  0  0  0  0  0  0  0  0  0
  150.0259  140.7876  155.6308 C   0  0  0  0  0  0  0  0  0  0  0  0
  150.9761  139.7675  155.3275 C   0  0  0  0  0  0  0  0  0  0  0  0
  152.0686  139.2268  156.2134 C   0  0  0  0  0  0  0  0  0  0  0  0
  151.8289  139.6537  157.6629 C   0  0  0  0  0  0  0  0  0  0  0  0
  151.2744  138.8868  158.4494 O   0  0  0  0  0  0  0  0  0  0  0  0
  152.2334  140.8905  157.9932 N   0  0  0  0  0  0  0  0  0  0  0  0
  151.9980  141.5534  159.2746 C   0  0  1  0  0  0  0  0  0  0  0  0
  153.3240  142.1152  159.8306 C   0  0  2  0  0  0  0  0  0  0  0  0
  153.1354  142.4776  161.3149 C   0  0  0  0  0  0  0  0  0  0  0  0
  152.2477  143.7346  161.2415 C   0  0  0  0  0  0  0  0  0  0  0  0
  152.0437  143.9232  159.7250 C   0  0  1  0  0  0  0  0  0  0  0  0
  153.4003  143.4923  159.1823 C   0  0  0  0  0  0  0  0  0  0  0  0
  151.0935  142.8219  159.1929 C   0  0  1  0  0  0  0  0  0  0  0  0
  150.4970  143.1480  157.8030 C   0  0  0  0  0  0  0  0  0  0  0  0
  149.0869  143.1839  157.8651 O   0  0  0  0  0  0  0  0  0  0  0  0
  150.8078  139.2684  154.1106 N   0  0  0  0  0  0  0  0  0  0  0  0
  149.7531  139.9477  153.6239 N   0  0  0  0  0  0  0  0  0  0  0  0
  149.3927  139.7728  152.6966 H   0  0  0  0  0  0  0  0  0  0  0  0
  147.2491  141.5266  154.8629 H   0  0  0  0  0  0  0  0  0  0  0  0
  147.7326  141.5738  153.1672 H   0  0  0  0  0  0  0  0  0  0  0  0
  148.3377  142.7918  154.2906 H   0  0  0  0  0  0  0  0  0  0  0  0
  149.9246  141.3617  156.5401 H   0  0  0  0  0  0  0  0  0  0  0  0
  152.1126  138.1384  156.1532 H   0  0  0  0  0  0  0  0  0  0  0  0
  153.0419  139.5969  155.8899 H   0  0  0  0  0  0  0  0  0  0  0  0
  152.6878  141.4409  157.2788 H   0  0  0  0  0  0  0  0  0  0  0  0
  151.5806  140.8309  159.9789 H   0  0  0  0  0  0  0  0  0  0  0  0
  154.1880  141.4733  159.6530 H   0  0  0  0  0  0  0  0  0  0  0  0
  152.6731  141.6719  161.8860 H   0  0  0  0  0  0  0  0  0  0  0  0
  154.0927  142.7117  161.7822 H   0  0  0  0  0  0  0  0  0  0  0  0
  151.3057  143.6127  161.7770 H   0  0  0  0  0  0  0  0  0  0  0  0
  152.7656  144.5927  161.6718 H   0  0  0  0  0  0  0  0  0  0  0  0
  151.7466  144.9377  159.4582 H   0  0  0  0  0  0  0  0  0  0  0  0
  154.2276  144.0995  159.5534 H   0  0  0  0  0  0  0  0  0  0  0  0
  153.4456  143.4593  158.0928 H   0  0  0  0  0  0  0  0  0  0  0  0
  150.2560  142.6998  159.8820 H   0  0  0  0  0  0  0  0  0  0  0  0
  150.8608  144.1024  157.4217 H   0  0  0  0  0  0  0  0  0  0  0  0
  150.7731  142.3821  157.0780 H   0  0  0  0  0  0  0  0  0  0  0  0
  148.7631  143.6059  157.0839 H   0  0  0  0  0  0  0  0  0  0  0  0
  1  2  1  0  0  0  0
  1 21  1  0  0  0  0
  1 22  1  0  0  0  0
  1 23  1  0  0  0  0
  2 19  1  0  0  0  0
  2  3  2  0  0  0  0
  3  4  1  0  0  0  0
  3 24  1  0  0  0  0
  4  5  1  0  0  0  0
  4 18  2  0  0  0  0
  5  6  1  0  0  0  0
  5 25  1  0  0  0  0
  5 26  1  0  0  0  0
  6  7  2  0  0  0  0
  6  8  1  0  0  0  0
  8  9  1  0  0  0  0
  8 27  1  0  0  0  0
  9 15  1  0  0  0  0
  9 10  1  0  0  0  0
  9 28  1  0  0  0  0
 10 14  1  0  0  0  0
 10 11  1  0  0  0  0
 10 29  1  0  0  0  0
 11 12  1  0  0  0  0
 11 30  1  0  0  0  0
 11 31  1  0  0  0  0
 12 13  1  0  0  0  0
 12 32  1  0  0  0  0
 12 33  1  0  0  0  0
 13 14  1  0  0  0  0
 13 15  1  0  0  0  0
 13 34  1  0  0  0  0
 14 35  1  0  0  0  0
 14 36  1  0  0  0  0
 15 16  1  0  0  0  0
 15 37  1  0  0  0  0
 16 17  1  0  0  0  0
 16 38  1  0  0  0  0
 16 39  1  0  0  0  0
 17 40  1  0  0  0  0
 18 19  1  0  0  0  0
 19 20  1  0  0  0  0
M  END
> <s_m_source_file>
AV-unprocessed.smi

> <i_m_source_file_index>
2881

> <i_lp_mmshare_version>
43012

> <i_f3d_flags>
0

> <s_epik_input>
W0NIM11jMVtjSF1jKG5bbkhdMSlbQ0gyXUMoPU8pW05IXVtDQEhdKFtDQEBIXTIzKVtDQEhdKFtDSDJdW09IXSlbQ0BASF0oW0NIMl0zKVtDSDJdW0NIMl0y

> <s_epik_cmdline>
J2VwaWtfcHl0aG9uJywgJy1waCcsICc3LjAnLCAnLXRuJywgJzgnLCAnLW1hJywgJzIwMCcsICctbWV0YWxfYmluZGluZycsICctaW1hZScsICc8aW5maWxlLm1hZT4nLCAnLW9tYWUnLCAnPG91dGZpbGUubWFlPic=

> <r_lp_tautomer_probability>
0.5

> <r_epik_Ionization_Penalty>
9.4349e-05

> <r_epik_Ionization_Penalty_Charging>
0

> <r_epik_Ionization_Penalty_Neutral>
9.4349e-05

> <r_epik_State_Penalty>
0.41068

> <r_epik_Charging_Adjusted_Penalty>
0.41068

> <i_epik_Tot_Q>
0

> <i_epik_Tot_abs_Q>
0

> <r_epik_Metal_State_Penalty>
0.4107

> <b_epik_Metal_Only>
0

> <s_lp_Force_Field>
OPLS_2005

> <r_lp_Energy>
47.5678

> <b_lp_Chiralities_Consistent>
1

> <s_lp_Variant>
AV-unprocessed.smi:2881-4

> <Gold.Version>
5.8.1

> <Gold.Id.Protein>
6NUR|6NUR_protein|mol2

> <Gold.PLP.Fitness>
44.7246

> <Gold.PLP.PLP>
-41.6911

> <Gold.PLP.part.hbond>
-3.7095

> <Gold.PLP.part.metal>
0.0000

> <Gold.PLP.part.buried>
-2.3969

> <Gold.PLP.part.nonpolar>
-36.0927

> <Gold.PLP.part.repulsive>
1.8624

> <Gold.PLP.ligand.clash>
0.0000

> <Gold.PLP.ligand.torsion>
1.3141

> <Gold.PLP.Chemscore.Hbond>
1.8800

> <Gold.PLP.Chemscore.CHOScore>
0.0000

> <Gold.PLP.Chemscore.Metal>
0.0000

> <Gold.Chemscore.Hbonds>
donor molecule, donor type, donor heavy atom, donor atom, acceptor molecule, acceptor atom, score
      L1  H    17    40       P1  8028  1.00
      L1  H    19    20       P1  7957  0.90

> <Gold.PLP.Chemscore.Internal.Correction>
0.0217

> <Gold.Rescore>
     Score         DG    S(hbond)    S(metal)    S(lipo)     H(rot)  DE(clash)    DE(int)     intcor
     17.60     -19.24       1.53        0.00     123.67       2.28       0.38       1.26       ----

> <Gold.Chemscore.Fitness>
17.6049

> <Gold.Chemscore.DG>
-19.2449

> <Gold.Chemscore.ZeroCoef>
-5.4800

> <Gold.Chemscore.Hbond>
1.5332

> <Gold.Chemscore.Metal>
0.0000

> <Gold.Chemscore.Lipo>
123.6671

> <Gold.Chemscore.Internal_Hbond>
0.0000

> <Gold.Chemscore.DEClash>
0.3840

> <Gold.Chemscore.DEInternal>
1.2559

> <Gold.Chemscore.Rot>
2.2755

> <Gold.Chemscore.Internal.Correction>
   9.000000E+99

> <Gold.Chemscore.Hbonds>
donor molecule, donor type, donor heavy atom, donor atom, acceptor molecule, acceptor atom, score
      L1  H    17    40       P1  8028  0.25
      L1  H    19    20       P1  7957  0.86

> <Gold.Chemscore.Hbond.Weighted>
-5.1210

> <Gold.Chemscore.Metal.Weighted>
-0.0000

> <Gold.Chemscore.Lipo.Weighted>
-14.4690

> <Gold.Chemscore.Internal_Hbond.Weighted>
0.0000

> <Gold.Chemscore.DEClash.Weighted>
0.3840

> <Gold.Chemscore.DEInternal.Weighted>
1.2559

> <Gold.Chemscore.Rot.Weighted>
5.8252

> <Gold.Chemscore.Internal.Correction.Weighted>
   9.000000E+99

> <Gold.Protein.RotatedTorsions>
[ 6907 6896 6895 6894 ] final  -56.05 input  -60.11 | X-H torsion
[ 7974 7965 7964 7962 ] final -135.07 input  175.53 | X-H torsion
[ 8008 7997 7996 7995 ] final   16.38 input   59.86 | X-H torsion
[ 10167 10162 10161 10158 ] final  130.96 input  -65.29 | X-H torsion
[ 10718 10713 10712 10709 ] final -126.29 input   66.30 | X-H torsion
[ 10763 10752 10751 10750 ] final  -47.93 input  -60.55 | X-H torsion
[ 11005 11000 10999 10996 ] final  -47.37 input  -57.11 | X-H torsion

> <Gold.Protein.ActiveResidues>
 VAL166  LYS551  ARG553  GLY616  TRP617  ASP618  TYR619  PRO620  LYS621  CYS622 
 ASP623  PHE694  ASN695  SER759  ASP760  ASP761  ALA762  ILE779  LEU786  VAL792 
 PHE793  MET794  SER795  GLU796  ALA797  LYS798  CYS799  TRP800  GLU811  SER814 

> <Gold.Protein.RotatedAtoms>
  150.8199  134.7402  159.6763 H   0  0  0  0  0  0  0  0  0  0  0  0  # atno 6907 bound_to 6896
  152.4316  134.5764  159.9945 H   0  0  0  0  0  0  0  0  0  0  0  0  # atno 6908 bound_to 6896
  151.5951  133.3325  159.3071 H   0  0  0  0  0  0  0  0  0  0  0  0  # atno 6909 bound_to 6896
  144.9046  140.6817  143.5063 H   0  0  0  0  0  0  0  0  0  0  0  0  # atno 7974 bound_to 7965
  154.8762  140.2966  155.5452 H   0  0  0  0  0  0  0  0  0  0  0  0  # atno 8008 bound_to 7997
  156.3022  140.2451  156.3691 H   0  0  0  0  0  0  0  0  0  0  0  0  # atno 8009 bound_to 7997
  154.8765  140.0399  157.1745 H   0  0  0  0  0  0  0  0  0  0  0  0  # atno 8010 bound_to 7997
  139.5405  144.6726  151.4639 H   0  0  0  0  0  0  0  0  0  0  0  0  # atno 10167 bound_to 10162
  156.1752  130.6694  151.0232 H   0  0  0  0  0  0  0  0  0  0  0  0  # atno 10718 bound_to 10713
  154.0695  135.6606  153.4822 H   0  0  0  0  0  0  0  0  0  0  0  0  # atno 10763 bound_to 10752
  153.0396  135.5154  154.7580 H   0  0  0  0  0  0  0  0  0  0  0  0  # atno 10764 bound_to 10752
  154.6642  135.3019  154.9795 H   0  0  0  0  0  0  0  0  0  0  0  0  # atno 10765 bound_to 10752
  141.0636  133.6701  156.3287 H   0  0  0  0  0  0  0  0  0  0  0  0  # atno 11005 bound_to 11000
  145.3557  139.1694  143.4410 LP  0  0  0  0  0  0  0  0  0  0  0  0  # atno 17320 bound_to 7965
  146.3127  140.3614  142.8665 LP  0  0  0  0  0  0  0  0  0  0  0  0  # atno 17321 bound_to 7965
  140.6633  143.8451  150.6913 LP  0  0  0  0  0  0  0  0  0  0  0  0  # atno 17342 bound_to 10162
  140.1853  143.4081  152.1903 LP  0  0  0  0  0  0  0  0  0  0  0  0  # atno 17343 bound_to 10162
  157.6830  131.0832  150.7317 LP  0  0  0  0  0  0  0  0  0  0  0  0  # atno 17370 bound_to 10713
  156.7376  130.4729  149.5485 LP  0  0  0  0  0  0  0  0  0  0  0  0  # atno 17371 bound_to 10713
  140.5818  134.5738  157.5481 LP  0  0  0  0  0  0  0  0  0  0  0  0  # atno 17394 bound_to 11000
  139.9455  134.7709  156.0572 LP  0  0  0  0  0  0  0  0  0  0  0  0  # atno 17395 bound_to 11000

$$$$
