AV-unprocessed.smi:1610|AV-procd|sdf|6471|dock7
  -GOLD-   22720 7133D 1   1.00000     0.00000
 Structure written by MMmdl.
 45 46  0  0  0  0  0  0  0  0  2 V2000
  150.5643  141.2746  157.0015 C   0  0  0  0  0  0  0  0  0  0  0  0
  151.0133  139.6506  156.2641 S   0  0  0  0  0  0  0  0  0  0  0  0
  151.3862  139.8570  154.8564 O   0  0  0  0  0  0  0  0  0  0  0  0
  151.9333  138.9649  157.1838 O   0  0  0  0  0  0  0  0  0  0  0  0
  149.5210  138.7845  156.2950 N   0  0  0  0  0  0  0  0  0  0  0  0
  148.3217  139.3100  155.6394 C   0  0  0  0  0  0  0  0  0  0  0  0
  147.2641  138.1958  155.4921 C   0  0  0  0  0  0  0  0  0  0  0  0
  146.0766  138.6769  154.6400 C   0  0  0  0  0  0  0  0  0  0  0  0
  146.5852  139.1291  153.3335 N   0  0  0  0  0  0  0  0  0  0  0  0
  146.4508  138.4805  152.1485 C   0  0  0  0  0  0  0  0  0  0  0  0
  146.7417  138.9861  151.0636 O   0  0  0  0  0  0  0  0  0  0  0  0
  145.9727  137.2290  152.2425 N   0  0  0  0  0  0  0  0  0  0  0  0
  145.7450  136.3416  151.1109 C   0  0  0  0  0  0  0  0  0  0  0  0
  144.5639  135.4031  151.3906 C   0  0  0  0  0  0  0  0  0  0  0  0
  144.8908  133.9608  151.0562 C   0  0  0  0  0  0  0  0  0  0  0  0
  143.8589  133.0168  150.8580 C   0  0  0  0  0  0  0  0  0  0  0  0
  144.1933  131.6808  150.5535 C   0  0  0  0  0  0  0  0  0  0  0  0
  145.5524  131.3185  150.4546 C   0  0  0  0  0  0  0  0  0  0  0  0
  146.5122  132.2490  150.6515 N   0  3  0  0  0  0  0  0  0  0  0  0
  146.2332  133.5381  150.9451 C   0  0  0  0  0  0  0  0  0  0  0  0
  147.4378  140.3160  153.4793 C   0  0  0  0  0  0  0  0  0  0  0  0
  148.6970  139.9271  154.2761 C   0  0  0  0  0  0  0  0  0  0  0  0
  151.4581  141.8924  157.0827 H   0  0  0  0  0  0  0  0  0  0  0  0
  150.1393  141.1218  157.9931 H   0  0  0  0  0  0  0  0  0  0  0  0
  149.8376  141.7787  156.3652 H   0  0  0  0  0  0  0  0  0  0  0  0
  149.3593  138.2455  157.1455 H   0  0  0  0  0  0  0  0  0  0  0  0
  147.9010  140.1029  156.2594 H   0  0  0  0  0  0  0  0  0  0  0  0
  147.7104  137.3180  155.0222 H   0  0  0  0  0  0  0  0  0  0  0  0
  146.9109  137.8758  156.4724 H   0  0  0  0  0  0  0  0  0  0  0  0
  145.3225  137.8925  154.5759 H   0  0  0  0  0  0  0  0  0  0  0  0
  145.5786  139.5107  155.1373 H   0  0  0  0  0  0  0  0  0  0  0  0
  145.7543  136.8717  153.1613 H   0  0  0  0  0  0  0  0  0  0  0  0
  145.5485  136.9429  150.2221 H   0  0  0  0  0  0  0  0  0  0  0  0
  146.6461  135.7578  150.9141 H   0  0  0  0  0  0  0  0  0  0  0  0
  144.2755  135.4669  152.4409 H   0  0  0  0  0  0  0  0  0  0  0  0
  143.6924  135.7143  150.8127 H   0  0  0  0  0  0  0  0  0  0  0  0
  142.8225  133.3112  150.9402 H   0  0  0  0  0  0  0  0  0  0  0  0
  143.4181  130.9445  150.3991 H   0  0  0  0  0  0  0  0  0  0  0  0
  145.8983  130.3207  150.2265 H   0  0  0  0  0  0  0  0  0  0  0  0
  147.0868  134.1862  151.0825 H   0  0  0  0  0  0  0  0  0  0  0  0
  147.7250  140.7518  152.5214 H   0  0  0  0  0  0  0  0  0  0  0  0
  146.8870  141.0975  154.0049 H   0  0  0  0  0  0  0  0  0  0  0  0
  149.3311  140.8022  154.4232 H   0  0  0  0  0  0  0  0  0  0  0  0
  149.2830  139.2146  153.6933 H   0  0  0  0  0  0  0  0  0  0  0  0
  147.4896  131.9659  150.5760 H   0  0  0  0  0  0  0  0  0  0  0  0
  1  2  1  0  0  0  0
  1 23  1  0  0  0  0
  1 24  1  0  0  0  0
  1 25  1  0  0  0  0
  2  3  2  0  0  0  0
  2  4  2  0  0  0  0
  2  5  1  0  0  0  0
  5  6  1  0  0  0  0
  5 26  1  0  0  0  0
  6 22  1  0  0  0  0
  6  7  1  0  0  0  0
  6 27  1  0  0  0  0
  7  8  1  0  0  0  0
  7 28  1  0  0  0  0
  7 29  1  0  0  0  0
  8  9  1  0  0  0  0
  8 30  1  0  0  0  0
  8 31  1  0  0  0  0
  9 10  1  0  0  0  0
  9 21  1  0  0  0  0
 10 11  2  0  0  0  0
 10 12  1  0  0  0  0
 12 13  1  0  0  0  0
 12 32  1  0  0  0  0
 13 14  1  0  0  0  0
 13 33  1  0  0  0  0
 13 34  1  0  0  0  0
 14 15  1  0  0  0  0
 14 35  1  0  0  0  0
 14 36  1  0  0  0  0
 15 20  1  0  0  0  0
 15 16  2  0  0  0  0
 16 17  1  0  0  0  0
 16 37  1  0  0  0  0
 17 18  2  0  0  0  0
 17 38  1  0  0  0  0
 18 19  1  0  0  0  0
 18 39  1  0  0  0  0
 19 20  2  0  0  0  0
 19 45  1  0  0  0  0
 20 40  1  0  0  0  0
 21 22  1  0  0  0  0
 21 41  1  0  0  0  0
 21 42  1  0  0  0  0
 22 43  1  0  0  0  0
 22 44  1  0  0  0  0
M  CHG  1  19   1
M  END
> <s_m_source_file>
AV-unprocessed.smi

> <i_m_source_file_index>
1610

> <i_lp_mmshare_version>
43012

> <i_f3d_flags>
0

> <s_epik_input>
W0NIM11TKD1PKSg9TylbTkhdW0NIXTFbQ0gyXVtDSDJdTihbQ0gyXVtDSDJdMSlDKD1PKVtOSF1bQ0gyXVtDSDJdYzJbY0hdW2NIXVtjSF1uW2NIXTI=

> <s_epik_cmdline>
J2VwaWtfcHl0aG9uJywgJy1waCcsICc3LjAnLCAnLXRuJywgJzgnLCAnLW1hJywgJzIwMCcsICctbWV0YWxfYmluZGluZycsICctaW1hZScsICc8aW5maWxlLm1hZT4nLCAnLW9tYWUnLCAnPG91dGZpbGUubWFlPic=

> <r_epik_Ionization_Penalty>
2.20747

> <r_epik_Ionization_Penalty_Charging>
2.20741

> <r_epik_Ionization_Penalty_Neutral>
6.06433e-05

> <r_epik_State_Penalty>
2.35137

> <r_epik_Charging_Adjusted_Penalty>
4.55877

> <i_epik_Tot_Q>
1

> <i_epik_Tot_abs_Q>
1

> <r_epik_Metal_State_Penalty>
2.37242

> <b_epik_Metal_Only>
0

> <s_lp_Force_Field>
OPLS_2005

> <r_lp_Energy>
29.2562

> <b_lp_Chiralities_Consistent>
1

> <s_lp_Variant>
AV-unprocessed.smi:1610-2

> <Gold.Version>
5.8.1

> <Gold.Id.Protein>
6NUR|6NUR_protein|mol2

> <Gold.PLP.Fitness>
43.1097

> <Gold.PLP.PLP>
-36.7626

> <Gold.PLP.part.hbond>
-3.8080

> <Gold.PLP.part.metal>
0.0000

> <Gold.PLP.part.buried>
-4.2747

> <Gold.PLP.part.nonpolar>
-31.2149

> <Gold.PLP.part.repulsive>
1.4477

> <Gold.PLP.ligand.clash>
0.0000

> <Gold.PLP.ligand.torsion>
1.6498

> <Gold.PLP.Chemscore.Hbond>
2.8640

> <Gold.PLP.Chemscore.CHOScore>
0.0000

> <Gold.PLP.Chemscore.Metal>
0.0000

> <Gold.Chemscore.Hbonds>
donor molecule, donor type, donor heavy atom, donor atom, acceptor molecule, acceptor atom, score
      L1  H    19    45       P1 10747  1.00
      P1  H  7954  7966       L1    11  0.61
      P1  H  7989  7998       L1     3  1.00

> <Gold.PLP.Chemscore.Internal.Correction>
1.0548

> <Gold.Rescore>
     Score         DG    S(hbond)    S(metal)    S(lipo)     H(rot)  DE(clash)    DE(int)     intcor
     15.78     -19.45       2.84        0.00      77.90       1.81       0.79       2.88       ----

> <Gold.Chemscore.Fitness>
15.7762

> <Gold.Chemscore.DG>
-19.4536

> <Gold.Chemscore.ZeroCoef>
-5.4800

> <Gold.Chemscore.Hbond>
2.8438

> <Gold.Chemscore.Metal>
0.0000

> <Gold.Chemscore.Lipo>
77.9041

> <Gold.Chemscore.Internal_Hbond>
0.0000

> <Gold.Chemscore.DEClash>
0.7926

> <Gold.Chemscore.DEInternal>
2.8848

> <Gold.Chemscore.Rot>
1.8123

> <Gold.Chemscore.Internal.Correction>
   9.000000E+99

> <Gold.Chemscore.Hbonds>
donor molecule, donor type, donor heavy atom, donor atom, acceptor molecule, acceptor atom, score
      L1  H    19    45       P1 10747  0.99
      P1  H  7954  7966       L1    11  0.55
      P1  H  7989  7998       L1     3  1.00

> <Gold.Chemscore.Hbond.Weighted>
-9.4984

> <Gold.Chemscore.Metal.Weighted>
-0.0000

> <Gold.Chemscore.Lipo.Weighted>
-9.1148

> <Gold.Chemscore.Internal_Hbond.Weighted>
0.0000

> <Gold.Chemscore.DEClash.Weighted>
0.7926

> <Gold.Chemscore.DEInternal.Weighted>
2.8848

> <Gold.Chemscore.Rot.Weighted>
4.6395

> <Gold.Chemscore.Internal.Correction.Weighted>
   9.000000E+99

> <Gold.Protein.RotatedTorsions>
[ 6907 6896 6895 6894 ] final  165.78 input  -60.11 | X-H torsion
[ 7974 7965 7964 7962 ] final   63.03 input  175.53 | X-H torsion
[ 8008 7997 7996 7995 ] final  -14.00 input   59.86 | X-H torsion
[ 10167 10162 10161 10158 ] final  -59.72 input  -65.29 | X-H torsion
[ 10718 10713 10712 10709 ] final  106.71 input   66.30 | X-H torsion
[ 10763 10752 10751 10750 ] final   68.76 input  -60.55 | X-H torsion
[ 11005 11000 10999 10996 ] final  133.25 input  -57.11 | X-H torsion

> <Gold.Protein.ActiveResidues>
 VAL166  LYS551  ARG553  GLY616  TRP617  ASP618  TYR619  PRO620  LYS621  CYS622 
 ASP623  PHE694  ASN695  SER759  ASP760  ASP761  ALA762  ILE779  LEU786  VAL792 
 PHE793  MET794  SER795  GLU796  ALA797  LYS798  CYS799  TRP800  GLU811  SER814 

> <Gold.Protein.RotatedAtoms>
  151.8891  133.3512  159.3792 H   0  0  0  0  0  0  0  0  0  0  0  0  # atno 6907 bound_to 6896
  150.7108  134.4941  159.5539 H   0  0  0  0  0  0  0  0  0  0  0  0  # atno 6908 bound_to 6896
  152.2508  134.8135  160.0497 H   0  0  0  0  0  0  0  0  0  0  0  0  # atno 6909 bound_to 6896
  145.8665  139.3349  143.0788 H   0  0  0  0  0  0  0  0  0  0  0  0  # atno 7974 bound_to 7965
  154.5246  140.2235  155.8913 H   0  0  0  0  0  0  0  0  0  0  0  0  # atno 8008 bound_to 7997
  156.1699  140.3124  155.8920 H   0  0  0  0  0  0  0  0  0  0  0  0  # atno 8009 bound_to 7997
  155.3579  140.0459  157.3037 H   0  0  0  0  0  0  0  0  0  0  0  0  # atno 8010 bound_to 7997
  140.6117  143.2389  151.5694 H   0  0  0  0  0  0  0  0  0  0  0  0  # atno 10167 bound_to 10162
  157.6657  131.0857  150.6048 H   0  0  0  0  0  0  0  0  0  0  0  0  # atno 10718 bound_to 10713
  153.0252  135.5235  154.7184 H   0  0  0  0  0  0  0  0  0  0  0  0  # atno 10763 bound_to 10752
  154.6246  135.2893  155.0289 H   0  0  0  0  0  0  0  0  0  0  0  0  # atno 10764 bound_to 10752
  154.1263  135.6600  153.4965 H   0  0  0  0  0  0  0  0  0  0  0  0  # atno 10765 bound_to 10752
  139.9840  134.9538  156.9698 H   0  0  0  0  0  0  0  0  0  0  0  0  # atno 11005 bound_to 11000
  145.9187  140.9130  143.0416 LP  0  0  0  0  0  0  0  0  0  0  0  0  # atno 17320 bound_to 7965
  144.6726  140.1258  143.7447 LP  0  0  0  0  0  0  0  0  0  0  0  0  # atno 17321 bound_to 7965
  139.5366  144.2763  152.1265 LP  0  0  0  0  0  0  0  0  0  0  0  0  # atno 17342 bound_to 10162
  140.1964  144.4701  150.6453 LP  0  0  0  0  0  0  0  0  0  0  0  0  # atno 17343 bound_to 10162
  156.6349  130.4442  149.5773 LP  0  0  0  0  0  0  0  0  0  0  0  0  # atno 17370 bound_to 10713
  156.2253  130.6762  151.1410 LP  0  0  0  0  0  0  0  0  0  0  0  0  # atno 17371 bound_to 10713
  140.5040  134.1069  155.7256 LP  0  0  0  0  0  0  0  0  0  0  0  0  # atno 17394 bound_to 11000
  141.1508  133.8973  157.2103 LP  0  0  0  0  0  0  0  0  0  0  0  0  # atno 17395 bound_to 11000

$$$$
