#       Name:                AV-unprocessed.smi:481
#       Creating user name   scv26
#       Creation time:       Thu Mar 26 23:10:39 2020


#       File generated by GOLD software.
#

@<TRIPOS>MOLECULE
AV-unprocessed.smi:481
    51    53     1
SMALL
NO_CHARGES


@<TRIPOS>ATOM
      1 ****        -5.2376   1.1388  -0.5154 C.3            1 S1                 0.0000
      2 ****        -4.9030  -0.1121   0.0649 O.3            1 S1                 0.0000
      3 ****        -3.6191  -0.1441   0.6724 C.3            1 S1                 0.0000
      4 ****        -2.4966  -0.2844  -0.3695 C.3            1 S1                 0.0000
      5 ****        -1.1922  -0.4206   0.2688 N.pl3          1 S1                 0.0000
      6 ****        -0.2994   0.5612   0.5537 C.2            1 S1                 0.0000
      7 ****        -0.6056   1.8880   0.2199 N.pl3          1 S1                 0.0000
      8 ****        -1.7474   2.2403  -0.3727 N.2            1 S1                 0.0000
      9 ****        -2.8884   2.1631   0.2332 C.2            1 S1                 0.0000
     10 ****        -3.1339   1.8247   1.6520 C.ar           1 S1                 0.0000
     11 ****        -2.3166   2.3042   2.7037 C.ar           1 S1                 0.0000
     12 ****        -2.5912   1.9521   4.0393 C.ar           1 S1                 0.0000
     13 ****        -3.6920   1.1283   4.3391 C.ar           1 S1                 0.0000
     14 ****        -4.5218   0.6625   3.3020 C.ar           1 S1                 0.0000
     15 ****        -4.2462   1.0138   1.9660 C.ar           1 S1                 0.0000
     16 ****         0.8228   0.1327   1.1456 N.2            1 S1                 0.0000
     17 ****         0.6251  -1.2364   1.2421 C.2            1 S1                 0.0000
     18 ****        -0.5807  -1.5866   0.7275 C.2            1 S1                 0.0000
     19 ****        -1.0587  -2.9744   0.7096 C.2            1 S1                 0.0000
     20 ****        -2.1534  -3.3080   0.2614 O.2            1 S1                 0.0000
     21 ****        -0.1695  -3.8483   1.2416 N.am           1 S1                 0.0000
     22 ****         1.0602  -3.5648   1.7707 C.2            1 S1                 0.0000
     23 ****         1.7605  -4.4718   2.2202 O.2            1 S1                 0.0000
     24 ****         1.4649  -2.2541   1.7772 N.am           1 S1                 0.0000
     25 ****         2.7696  -1.8931   2.3349 C.3            1 S1                 0.0000
     26 ****        -0.4470  -4.8189   1.2512 H              1 S1                 0.0000
     27 ****        -6.2532   1.0949  -0.9085 H              1 S1                 0.0000
     28 ****        -4.5751   1.3942  -1.3421 H              1 S1                 0.0000
     29 ****        -5.2006   1.9399   0.2238 H              1 S1                 0.0000
     30 ****        -3.4660   0.7331   1.3030 H              1 S1                 0.0000
     31 ****        -3.5985  -1.0079   1.3375 H              1 S1                 0.0000
     32 ****        -2.6728  -1.1496  -1.0075 H              1 S1                 0.0000
     33 ****        -2.4757   0.5725  -1.0416 H              1 S1                 0.0000
     34 ****         0.2021   2.4842   0.1110 H              1 S1                 0.0000
     35 ****        -3.7759   2.3593  -0.3687 H              1 S1                 0.0000
     36 ****        -1.4744   2.9480   2.4973 H              1 S1                 0.0000
     37 ****        -1.9579   2.3173   4.8343 H              1 S1                 0.0000
     38 ****        -3.9030   0.8585   5.3634 H              1 S1                 0.0000
     39 ****        -5.3703   0.0347   3.5306 H              1 S1                 0.0000
     40 ****        -4.8916   0.6454   1.1812 H              1 S1                 0.0000
     41 ****         2.8253  -2.1726   3.3879 H              1 S1                 0.0000
     42 ****         2.9727  -0.8242   2.2707 H              1 S1                 0.0000
     43 ****         3.5698  -2.4089   1.8025 H              1 S1                 0.0000
     44 ****        -4.9285  -0.8082  -0.6526 LP             1 S1                 0.0000
     45 ****        -5.5861  -0.3276   0.7627 LP             1 S1                 0.0000
     46 ****        -1.7210   2.5746  -1.3148 LP             1 S1                 0.0000
     47 ****         1.6116   0.6695   1.4452 LP             1 S1                 0.0000
     48 ****        -2.7702  -2.6178  -0.1168 LP             1 S1                 0.0000
     49 ****        -2.4272  -4.2697   0.2750 LP             1 S1                 0.0000
     50 ****         1.4308  -5.4157   2.1987 LP             1 S1                 0.0000
     51 ****         2.6592  -4.2649   2.6069 LP             1 S1                 0.0000
@<TRIPOS>BOND
    1    1    2 1     
    2    1   27 1     
    3    1   28 1     
    4    1   29 1     
    5    2    3 1     
    6    3    4 1     
    7    3   30 1     
    8    3   31 1     
    9    4    5 1     
   10    4   32 1     
   11    4   33 1     
   12    5   18 1     
   13    5    6 1     
   14    6    7 1     
   15    6   16 2     
   16    7    8 1     
   17    7   34 1     
   18    8    9 2     
   19    9   10 1     
   20    9   35 1     
   21   10   15 ar    
   22   10   11 ar    
   23   11   12 ar    
   24   11   36 1     
   25   12   13 ar    
   26   12   37 1     
   27   13   14 ar    
   28   13   38 1     
   29   14   15 ar    
   30   14   39 1     
   31   15   40 1     
   32   16   17 1     
   33   17   24 1     
   34   17   18 2     
   35   18   19 1     
   36   19   20 2     
   37   19   21 1     
   38   21   26 1     
   39   21   22 1     
   40   22   23 2     
   41   22   24 1     
   42   24   25 1     
   43   25   41 1     
   44   25   42 1     
   45   25   43 1     
   46    2   44 1     
   47    2   45 1     
   48    8   46 1     
   49   16   47 1     
   50   20   48 1     
   51   20   49 1     
   52   23   50 1     
   53   23   51 1     
@<TRIPOS>SUBSTRUCTURE
      1 S1             1
@<TRIPOS>SET
LONE_PAIRS      STATIC     ATOMS    <user>   **** ""
8 44 45 46 47 48 49 50 51
DONOR_HYDROGENS      STATIC     ATOMS    <user>   **** ""
2 34 26
ATOM$BLUE        STATIC     ATOMS    COLORGROUP SYSTEM
8 44 45 46 47 48 49 50 51
ATOM$RED        STATIC     ATOMS    COLORGROUP SYSTEM
2 34 26
