AV-unprocessed.smi:2091|AV-procd|sdf|8539|dock10
  -GOLD-   2272011263D 1   1.00000     0.00000
 Structure written by MMmdl.
 36 37  0  0  0  0  0  0  0  0  1 V2000
  150.8732  140.5597  155.2446 O   0  0  0  0  0  0  0  0  0  0  0  0
  150.0809  141.4951  155.3660 C   0  0  0  0  0  0  0  0  0  0  0  0
  148.9055  141.6568  154.3921 C   0  0  0  0  0  0  0  0  0  0  0  0
  147.8587  140.6442  154.5912 N   0  0  0  0  0  0  0  0  0  0  0  0
  147.4513  139.8397  153.5366 C   0  0  0  0  0  0  0  0  0  0  0  0
  146.5025  138.8808  153.6542 C   0  0  0  0  0  0  0  0  0  0  0  0
  145.8464  138.6438  154.9355 C   0  0  0  0  0  0  0  0  0  0  0  0
  144.9757  137.8014  155.1412 O   0  0  0  0  0  0  0  0  0  0  0  0
  146.2854  139.4715  155.9722 N   0  0  0  0  0  0  0  0  0  0  0  0
  147.2637  140.4603  155.8584 C   0  0  0  0  0  0  0  0  0  0  0  0
  147.5797  141.1332  156.8387 O   0  0  0  0  0  0  0  0  0  0  0  0
  150.1902  142.4309  156.3225 N   0  0  0  0  0  0  0  0  0  0  0  0
  151.2126  142.4589  157.3707 C   0  0  1  0  0  0  0  0  0  0  0  0
  150.9306  143.6866  158.2668 C   0  0  0  0  0  0  0  0  0  0  0  0
  152.1580  144.1734  159.0572 C   0  0  0  0  0  0  0  0  0  0  0  0
  152.6929  143.1830  160.1030 C   0  0  0  0  0  0  0  0  0  0  0  0
  153.1955  141.8595  159.5015 C   0  0  0  0  0  0  0  0  0  0  0  0
  152.0992  140.9646  159.1551 N   0  0  0  0  0  0  0  0  0  0  0  0
  151.1486  141.1752  158.2319 C   0  0  0  0  0  0  0  0  0  0  0  0
  150.2390  140.3599  158.0799 O   0  0  0  0  0  0  0  0  0  0  0  0
  145.8621  139.3419  156.8795 H   0  0  0  0  0  0  0  0  0  0  0  0
  148.4789  142.6580  154.4838 H   0  0  0  0  0  0  0  0  0  0  0  0
  149.2988  141.6034  153.3760 H   0  0  0  0  0  0  0  0  0  0  0  0
  147.9136  139.9766  152.5693 H   0  0  0  0  0  0  0  0  0  0  0  0
  146.2283  138.2849  152.7958 H   0  0  0  0  0  0  0  0  0  0  0  0
  149.4941  143.1615  156.3491 H   0  0  0  0  0  0  0  0  0  0  0  0
  152.1961  142.5507  156.9061 H   0  0  0  0  0  0  0  0  0  0  0  0
  150.6073  144.5181  157.6383 H   0  0  0  0  0  0  0  0  0  0  0  0
  150.0967  143.4937  158.9444 H   0  0  0  0  0  0  0  0  0  0  0  0
  152.9570  144.4308  158.3609 H   0  0  0  0  0  0  0  0  0  0  0  0
  151.8971  145.1029  159.5641 H   0  0  0  0  0  0  0  0  0  0  0  0
  153.5214  143.6601  160.6272 H   0  0  0  0  0  0  0  0  0  0  0  0
  151.9334  142.9878  160.8617 H   0  0  0  0  0  0  0  0  0  0  0  0
  153.8358  142.0353  158.6360 H   0  0  0  0  0  0  0  0  0  0  0  0
  153.8111  141.3421  160.2376 H   0  0  0  0  0  0  0  0  0  0  0  0
  152.0340  140.1122  159.6925 H   0  0  0  0  0  0  0  0  0  0  0  0
  1  2  2  0  0  0  0
  2  3  1  0  0  0  0
  2 12  1  0  0  0  0
  3  4  1  0  0  0  0
  3 22  1  0  0  0  0
  3 23  1  0  0  0  0
  4 10  1  0  0  0  0
  4  5  1  0  0  0  0
  5  6  2  0  0  0  0
  5 24  1  0  0  0  0
  6  7  1  0  0  0  0
  6 25  1  0  0  0  0
  7  8  2  0  0  0  0
  7  9  1  0  0  0  0
  9 21  1  0  0  0  0
  9 10  1  0  0  0  0
 10 11  2  0  0  0  0
 12 13  1  0  0  0  0
 12 26  1  0  0  0  0
 13 19  1  0  0  0  0
 13 14  1  0  0  0  0
 13 27  1  0  0  0  0
 14 15  1  0  0  0  0
 14 28  1  0  0  0  0
 14 29  1  0  0  0  0
 15 16  1  0  0  0  0
 15 30  1  0  0  0  0
 15 31  1  0  0  0  0
 16 17  1  0  0  0  0
 16 32  1  0  0  0  0
 16 33  1  0  0  0  0
 17 18  1  0  0  0  0
 17 34  1  0  0  0  0
 17 35  1  0  0  0  0
 18 19  1  0  0  0  0
 18 36  1  0  0  0  0
 19 20  2  0  0  0  0
M  END
> <s_m_source_file>
AV-unprocessed.smi

> <i_m_source_file_index>
2091

> <i_lp_mmshare_version>
43012

> <i_f3d_flags>
0

> <s_epik_input>
Tz1jMVtuSF1jKD1PKVtjSF1bY0hdbjFbQ0gyXUMoPU8pW05IXVtDQEBIXTJbQ0gyXVtDSDJdW0NIMl1bQ0gyXVtOSF1DMj1P

> <s_epik_cmdline>
J2VwaWtfcHl0aG9uJywgJy1waCcsICc3LjAnLCAnLXRuJywgJzgnLCAnLW1hJywgJzIwMCcsICctbWV0YWxfYmluZGluZycsICctaW1hZScsICc8aW5maWxlLm1hZT4nLCAnLW9tYWUnLCAnPG91dGZpbGUubWFlPic=

> <r_lp_tautomer_probability>
0.999537

> <r_epik_Ionization_Penalty>
0.00356328

> <r_epik_Ionization_Penalty_Charging>
0.00356323

> <r_epik_Ionization_Penalty_Neutral>
5.33217e-08

> <r_epik_State_Penalty>
0.00253125

> <r_epik_Charging_Adjusted_Penalty>
0.00609448

> <i_epik_Tot_Q>
0

> <i_epik_Tot_abs_Q>
0

> <r_epik_Metal_State_Penalty>
0.368636

> <b_epik_Metal_Only>
0

> <s_lp_Force_Field>
OPLS_2005

> <r_lp_Energy>
10.1396

> <b_lp_Chiralities_Consistent>
1

> <s_lp_Variant>
AV-unprocessed.smi:2091-2

> <Gold.Version>
5.8.1

> <Gold.Id.Protein>
6NUR|6NUR_protein|mol2

> <Gold.PLP.Fitness>
40.5872

> <Gold.PLP.PLP>
-32.1073

> <Gold.PLP.part.hbond>
-2.0000

> <Gold.PLP.part.metal>
0.0000

> <Gold.PLP.part.buried>
-2.6517

> <Gold.PLP.part.nonpolar>
-26.7272

> <Gold.PLP.part.repulsive>
0.3868

> <Gold.PLP.ligand.clash>
0.0000

> <Gold.PLP.ligand.torsion>
0.1410

> <Gold.PLP.Chemscore.Hbond>
1.9200

> <Gold.PLP.Chemscore.CHOScore>
1.0000

> <Gold.PLP.Chemscore.Metal>
0.0000

> <Gold.Chemscore.Hbonds>
donor molecule, donor type, donor heavy atom, donor atom, acceptor molecule, acceptor atom, score
      L1  H    12    26       P1  8028  0.96
      P1  H  7989  7998       L1     1  0.96
      L1  C     5    24       P1  7957  1.00

> <Gold.PLP.Chemscore.Internal.Correction>
0.0018

> <Gold.Rescore>
     Score         DG    S(hbond)    S(metal)    S(lipo)     H(rot)  DE(clash)    DE(int)     intcor
     14.18     -14.53       1.49        0.00      76.15       1.88       0.05       0.30       ----

> <Gold.Chemscore.Fitness>
14.1826

> <Gold.Chemscore.DG>
-14.5296

> <Gold.Chemscore.ZeroCoef>
-5.4800

> <Gold.Chemscore.Hbond>
1.4864

> <Gold.Chemscore.Metal>
0.0000

> <Gold.Chemscore.Lipo>
76.1475

> <Gold.Chemscore.Internal_Hbond>
0.0000

> <Gold.Chemscore.DEClash>
0.0456

> <Gold.Chemscore.DEInternal>
0.3015

> <Gold.Chemscore.Rot>
1.8844

> <Gold.Chemscore.Internal.Correction>
   9.000000E+99

> <Gold.Chemscore.Hbonds>
donor molecule, donor type, donor heavy atom, donor atom, acceptor molecule, acceptor atom, score
      L1  H    12    26       P1  8028  0.92
      P1  H  7989  7998       L1     1  0.32

> <Gold.Chemscore.Hbond.Weighted>
-4.9646

> <Gold.Chemscore.Metal.Weighted>
-0.0000

> <Gold.Chemscore.Lipo.Weighted>
-8.9093

> <Gold.Chemscore.Internal_Hbond.Weighted>
0.0000

> <Gold.Chemscore.DEClash.Weighted>
0.0456

> <Gold.Chemscore.DEInternal.Weighted>
0.3015

> <Gold.Chemscore.Rot.Weighted>
4.8242

> <Gold.Chemscore.Internal.Correction.Weighted>
   9.000000E+99

> <Gold.Protein.RotatedTorsions>
[ 6907 6896 6895 6894 ] final  124.89 input  -60.11 | X-H torsion
[ 7974 7965 7964 7962 ] final   30.24 input  175.53 | X-H torsion
[ 8008 7997 7996 7995 ] final   43.69 input   59.86 | X-H torsion
[ 10167 10162 10161 10158 ] final  101.05 input  -65.29 | X-H torsion
[ 10718 10713 10712 10709 ] final  103.53 input   66.30 | X-H torsion
[ 10763 10752 10751 10750 ] final -177.00 input  -60.55 | X-H torsion
[ 11005 11000 10999 10996 ] final   52.84 input  -57.11 | X-H torsion

> <Gold.Protein.ActiveResidues>
 VAL166  LYS551  ARG553  GLY616  TRP617  ASP618  TYR619  PRO620  LYS621  CYS622 
 ASP623  PHE694  ASN695  SER759  ASP760  ASP761  ALA762  ILE779  LEU786  VAL792 
 PHE793  MET794  SER795  GLU796  ALA797  LYS798  CYS799  TRP800  GLU811  SER814 

> <Gold.Protein.RotatedAtoms>
  152.4039  133.6859  159.6339 H   0  0  0  0  0  0  0  0  0  0  0  0  # atno 6907 bound_to 6896
  150.7926  133.8743  159.3276 H   0  0  0  0  0  0  0  0  0  0  0  0  # atno 6908 bound_to 6896
  151.6502  135.1004  160.0210 H   0  0  0  0  0  0  0  0  0  0  0  0  # atno 6909 bound_to 6896
  146.1624  139.6815  142.9024 H   0  0  0  0  0  0  0  0  0  0  0  0  # atno 7974 bound_to 7965
  155.3069  140.3388  155.4245 H   0  0  0  0  0  0  0  0  0  0  0  0  # atno 8008 bound_to 7997
  156.1974  140.1720  156.8007 H   0  0  0  0  0  0  0  0  0  0  0  0  # atno 8009 bound_to 7997
  154.5516  140.0704  156.8661 H   0  0  0  0  0  0  0  0  0  0  0  0  # atno 8010 bound_to 7997
  139.7473  144.6994  151.0485 H   0  0  0  0  0  0  0  0  0  0  0  0  # atno 10167 bound_to 10162
  157.6769  131.0781  150.5569 H   0  0  0  0  0  0  0  0  0  0  0  0  # atno 10718 bound_to 10713
  154.5655  135.2823  155.0878 H   0  0  0  0  0  0  0  0  0  0  0  0  # atno 10763 bound_to 10752
  154.2270  135.6381  153.5167 H   0  0  0  0  0  0  0  0  0  0  0  0  # atno 10764 bound_to 10752
  153.0042  135.5528  154.6263 H   0  0  0  0  0  0  0  0  0  0  0  0  # atno 10765 bound_to 10752
  140.0816  134.5330  155.8941 H   0  0  0  0  0  0  0  0  0  0  0  0  # atno 11005 bound_to 11000
  145.4555  141.0430  143.2781 LP  0  0  0  0  0  0  0  0  0  0  0  0  # atno 17320 bound_to 7965
  144.8045  139.6078  143.7057 LP  0  0  0  0  0  0  0  0  0  0  0  0  # atno 17321 bound_to 7965
  140.7793  143.4852  150.9966 LP  0  0  0  0  0  0  0  0  0  0  0  0  # atno 17342 bound_to 10162
  139.8540  143.7401  152.3177 LP  0  0  0  0  0  0  0  0  0  0  0  0  # atno 17343 bound_to 10162
  156.5873  130.4320  149.5951 LP  0  0  0  0  0  0  0  0  0  0  0  0  # atno 17370 bound_to 10713
  156.2612  130.6963  151.1733 LP  0  0  0  0  0  0  0  0  0  0  0  0  # atno 17371 bound_to 10713
  141.2048  133.6642  156.6146 LP  0  0  0  0  0  0  0  0  0  0  0  0  # atno 17394 bound_to 11000
  140.3479  134.7793  157.4446 LP  0  0  0  0  0  0  0  0  0  0  0  0  # atno 17395 bound_to 11000

$$$$
