AV-unprocessed.smi:990|AV-procd|sdf|4326|dock2
  -GOLD-   22720 2233D 1   1.00000     0.00000
 Structure written by MMmdl.
 44 45  0  0  0  0  0  0  0  0  1 V2000
  144.3169  132.3862  149.7335 C   0  0  0  0  0  0  0  0  0  0  0  0
  144.9805  131.6934  150.6713 C   0  0  0  0  0  0  0  0  0  0  0  0
  145.4901  132.2813  151.9726 C   0  0  0  0  0  0  0  0  0  0  0  0
  144.4241  132.9483  152.7107 N   0  0  0  0  0  0  0  0  0  0  0  0
  143.9425  134.1700  152.4393 C   0  0  0  0  0  0  0  0  0  0  0  0
  144.3676  134.8785  151.5273 O   0  0  0  0  0  0  0  0  0  0  0  0
  142.9612  134.5037  153.2956 N   0  0  0  0  0  0  0  0  0  0  0  0
  142.1794  135.6907  153.3448 C   0  0  0  0  0  0  0  0  0  0  0  0
  142.7687  136.8833  152.8818 C   0  0  0  0  0  0  0  0  0  0  0  0
  142.0316  138.0814  152.9292 C   0  0  0  0  0  0  0  0  0  0  0  0
  140.7163  138.0605  153.4475 C   0  0  0  0  0  0  0  0  0  0  0  0
  139.9620  139.2514  153.5049 N   0  0  0  0  0  0  0  0  0  0  0  0
  140.4874  140.2721  154.4085 C   0  0  0  0  0  0  0  0  0  0  0  0
  139.8329  141.6402  154.1404 C   0  0  0  0  0  0  0  0  0  0  0  0
  138.3603  141.5455  154.1545 N   0  0  0  0  0  0  0  0  0  0  0  0
  137.4698  142.0216  155.5706 S   0  0  0  0  0  0  0  0  0  0  0  0
  136.6278  143.5796  155.0733 C   0  0  0  0  0  0  0  0  0  0  0  0
  136.4394  141.0011  155.8161 O   0  0  0  0  0  0  0  0  0  0  0  0
  138.4437  142.3430  156.6250 O   0  0  0  0  0  0  0  0  0  0  0  0
  137.8316  140.4895  153.2699 C   0  0  0  0  0  0  0  0  0  0  0  0
  138.5053  139.1336  153.5508 C   0  0  0  0  0  0  0  0  0  0  0  0
  140.1499  136.9150  153.8991 N   0  0  0  0  0  0  0  0  0  0  0  0
  140.8604  135.7679  153.8530 C   0  0  0  0  0  0  0  0  0  0  0  0
  144.1051  133.4382  149.8567 H   0  0  0  0  0  0  0  0  0  0  0  0
  143.9762  131.9070  148.8272 H   0  0  0  0  0  0  0  0  0  0  0  0
  145.1692  130.6413  150.5128 H   0  0  0  0  0  0  0  0  0  0  0  0
  145.9099  131.4938  152.5994 H   0  0  0  0  0  0  0  0  0  0  0  0
  146.3008  132.9797  151.7587 H   0  0  0  0  0  0  0  0  0  0  0  0
  144.0187  132.4377  153.4815 H   0  0  0  0  0  0  0  0  0  0  0  0
  142.7713  133.8351  154.0275 H   0  0  0  0  0  0  0  0  0  0  0  0
  143.7747  136.8835  152.4881 H   0  0  0  0  0  0  0  0  0  0  0  0
  142.4738  138.9947  152.5593 H   0  0  0  0  0  0  0  0  0  0  0  0
  140.3072  139.9560  155.4353 H   0  0  0  0  0  0  0  0  0  0  0  0
  141.5669  140.3755  154.3048 H   0  0  0  0  0  0  0  0  0  0  0  0
  140.1742  142.3754  154.8685 H   0  0  0  0  0  0  0  0  0  0  0  0
  140.1450  142.0071  153.1619 H   0  0  0  0  0  0  0  0  0  0  0  0
  136.0404  143.9493  155.9135 H   0  0  0  0  0  0  0  0  0  0  0  0
  135.9617  143.3906  154.2335 H   0  0  0  0  0  0  0  0  0  0  0  0
  137.3670  144.3314  154.8023 H   0  0  0  0  0  0  0  0  0  0  0  0
  136.7504  140.4075  153.3772 H   0  0  0  0  0  0  0  0  0  0  0  0
  138.0185  140.7816  152.2359 H   0  0  0  0  0  0  0  0  0  0  0  0
  138.1679  138.4113  152.8063 H   0  0  0  0  0  0  0  0  0  0  0  0
  138.2041  138.7490  154.5247 H   0  0  0  0  0  0  0  0  0  0  0  0
  140.3447  134.9106  154.2544 H   0  0  0  0  0  0  0  0  0  0  0  0
  1  2  2  0  0  0  0
  1 24  1  0  0  0  0
  1 25  1  0  0  0  0
  2  3  1  0  0  0  0
  2 26  1  0  0  0  0
  3  4  1  0  0  0  0
  3 27  1  0  0  0  0
  3 28  1  0  0  0  0
  4  5  1  0  0  0  0
  4 29  1  0  0  0  0
  5  6  2  0  0  0  0
  5  7  1  0  0  0  0
  7  8  1  0  0  0  0
  7 30  1  0  0  0  0
  8 23  1  0  0  0  0
  8  9  2  0  0  0  0
  9 10  1  0  0  0  0
  9 31  1  0  0  0  0
 10 11  2  0  0  0  0
 10 32  1  0  0  0  0
 11 12  1  0  0  0  0
 11 22  1  0  0  0  0
 12 21  1  0  0  0  0
 12 13  1  0  0  0  0
 13 14  1  0  0  0  0
 13 33  1  0  0  0  0
 13 34  1  0  0  0  0
 14 15  1  0  0  0  0
 14 35  1  0  0  0  0
 14 36  1  0  0  0  0
 15 16  1  0  0  0  0
 15 20  1  0  0  0  0
 16 17  1  0  0  0  0
 16 18  2  0  0  0  0
 16 19  2  0  0  0  0
 17 37  1  0  0  0  0
 17 38  1  0  0  0  0
 17 39  1  0  0  0  0
 20 21  1  0  0  0  0
 20 40  1  0  0  0  0
 20 41  1  0  0  0  0
 21 42  1  0  0  0  0
 21 43  1  0  0  0  0
 22 23  2  0  0  0  0
 23 44  1  0  0  0  0
M  END
> <s_m_source_file>
AV-unprocessed.smi

> <i_m_source_file_index>
990

> <i_lp_mmshare_version>
43012

> <i_f3d_flags>
0

> <s_epik_input>
W0NIMl09W0NIXVtDSDJdW05IXUMoPU8pW05IXWMxW2NIXVtjSF1jKG5bY0hdMSlOMltDSDJdW0NIMl1OKFMoPU8pKD1PKVtDSDNdKVtDSDJdW0NIMl0y

> <s_epik_cmdline>
J2VwaWtfcHl0aG9uJywgJy1waCcsICc3LjAnLCAnLXRuJywgJzgnLCAnLW1hJywgJzIwMCcsICctbWV0YWxfYmluZGluZycsICctaW1hZScsICc8aW5maWxlLm1hZT4nLCAnLW9tYWUnLCAnPG91dGZpbGUubWFlPic=

> <r_lp_tautomer_probability>
1

> <r_epik_Ionization_Penalty>
0.151655

> <r_epik_Ionization_Penalty_Charging>
0

> <r_epik_Ionization_Penalty_Neutral>
0.151655

> <r_epik_State_Penalty>
0.140906

> <r_epik_Charging_Adjusted_Penalty>
0.140906

> <i_epik_Tot_Q>
0

> <i_epik_Tot_abs_Q>
0

> <r_epik_Metal_State_Penalty>
0.111889

> <b_epik_Metal_Only>
0

> <s_lp_Force_Field>
OPLS_2005

> <r_lp_Energy>
17.3553

> <b_lp_Chiralities_Consistent>
1

> <s_lp_Variant>
AV-unprocessed.smi:990-1

> <Gold.Version>
5.8.1

> <Gold.Id.Protein>
6NUR|6NUR_protein|mol2

> <Gold.PLP.Fitness>
39.9322

> <Gold.PLP.PLP>
-33.5882

> <Gold.PLP.part.hbond>
-1.5660

> <Gold.PLP.part.metal>
0.0000

> <Gold.PLP.part.buried>
-5.7322

> <Gold.PLP.part.nonpolar>
-28.3630

> <Gold.PLP.part.repulsive>
1.6267

> <Gold.PLP.ligand.clash>
0.0000

> <Gold.PLP.ligand.torsion>
1.6998

> <Gold.PLP.Chemscore.Hbond>
1.4875

> <Gold.PLP.Chemscore.CHOScore>
0.9650

> <Gold.PLP.Chemscore.Metal>
0.0000

> <Gold.Chemscore.Hbonds>
donor molecule, donor type, donor heavy atom, donor atom, acceptor molecule, acceptor atom, score
      L1  H     4    29       P1 10957  0.95
      L1  H     7    30       P1 10957  0.57
      L1  C    23    44       P1 11000  0.95

> <Gold.PLP.Chemscore.Internal.Correction>
2.3861

> <Gold.Rescore>
     Score         DG    S(hbond)    S(metal)    S(lipo)     H(rot)  DE(clash)    DE(int)     intcor
     10.80     -14.01       1.19        0.00      70.27       1.43       0.33       2.88       ----

> <Gold.Chemscore.Fitness>
10.8050

> <Gold.Chemscore.DG>
-14.0145

> <Gold.Chemscore.ZeroCoef>
-5.4800

> <Gold.Chemscore.Hbond>
1.1873

> <Gold.Chemscore.Metal>
0.0000

> <Gold.Chemscore.Lipo>
70.2679

> <Gold.Chemscore.Internal_Hbond>
0.0000

> <Gold.Chemscore.DEClash>
0.3284

> <Gold.Chemscore.DEInternal>
2.8812

> <Gold.Chemscore.Rot>
1.4268

> <Gold.Chemscore.Internal.Correction>
   9.000000E+99

> <Gold.Chemscore.Hbonds>
donor molecule, donor type, donor heavy atom, donor atom, acceptor molecule, acceptor atom, score
      L1  H     4    29       P1 10957  0.21
      L1  H     7    30       P1 10957  0.54

> <Gold.Chemscore.Hbond.Weighted>
-3.9657

> <Gold.Chemscore.Metal.Weighted>
-0.0000

> <Gold.Chemscore.Lipo.Weighted>
-8.2213

> <Gold.Chemscore.Internal_Hbond.Weighted>
0.0000

> <Gold.Chemscore.DEClash.Weighted>
0.3284

> <Gold.Chemscore.DEInternal.Weighted>
2.8812

> <Gold.Chemscore.Rot.Weighted>
3.6526

> <Gold.Chemscore.Internal.Correction.Weighted>
   9.000000E+99

> <Gold.Protein.RotatedTorsions>
[ 6907 6896 6895 6894 ] final   11.38 input  -60.11 | X-H torsion
[ 7974 7965 7964 7962 ] final   -3.82 input  175.53 | X-H torsion
[ 8008 7997 7996 7995 ] final   57.16 input   59.86 | X-H torsion
[ 10167 10162 10161 10158 ] final -178.36 input  -65.29 | X-H torsion
[ 10718 10713 10712 10709 ] final   91.90 input   66.30 | X-H torsion
[ 10763 10752 10751 10750 ] final  -89.54 input  -60.55 | X-H torsion
[ 11005 11000 10999 10996 ] final -155.48 input  -57.11 | X-H torsion

> <Gold.Protein.ActiveResidues>
 VAL166  LYS551  ARG553  GLY616  TRP617  ASP618  TYR619  PRO620  LYS621  CYS622 
 ASP623  PHE694  ASN695  SER759  ASP760  ASP761  ALA762  ILE779  LEU786  VAL792 
 PHE793  MET794  SER795  GLU796  ALA797  LYS798  CYS799  TRP800  GLU811  SER814 

> <Gold.Protein.RotatedAtoms>
  151.7535  135.0827  160.0334 H   0  0  0  0  0  0  0  0  0  0  0  0  # atno 6907 bound_to 6896
  152.3401  133.6053  159.5879 H   0  0  0  0  0  0  0  0  0  0  0  0  # atno 6908 bound_to 6896
  150.7474  133.9651  159.3570 H   0  0  0  0  0  0  0  0  0  0  0  0  # atno 6909 bound_to 6896
  146.2383  140.1779  142.8332 H   0  0  0  0  0  0  0  0  0  0  0  0  # atno 7974 bound_to 7965
  155.5292  140.3481  155.4422 H   0  0  0  0  0  0  0  0  0  0  0  0  # atno 8008 bound_to 7997
  156.0730  140.1368  156.9832 H   0  0  0  0  0  0  0  0  0  0  0  0  # atno 8009 bound_to 7997
  154.4538  140.0961  156.6673 H   0  0  0  0  0  0  0  0  0  0  0  0  # atno 8010 bound_to 7997
  139.5436  144.2296  152.0944 H   0  0  0  0  0  0  0  0  0  0  0  0  # atno 10167 bound_to 10162
  157.6959  131.0424  150.3800 H   0  0  0  0  0  0  0  0  0  0  0  0  # atno 10718 bound_to 10713
  154.6563  135.5337  153.7963 H   0  0  0  0  0  0  0  0  0  0  0  0  # atno 10763 bound_to 10752
  153.0415  135.6495  154.0939 H   0  0  0  0  0  0  0  0  0  0  0  0  # atno 10764 bound_to 10752
  154.0852  135.2944  155.3262 H   0  0  0  0  0  0  0  0  0  0  0  0  # atno 10765 bound_to 10752
  140.6860  134.4093  157.5223 H   0  0  0  0  0  0  0  0  0  0  0  0  # atno 11005 bound_to 11000
  144.9958  140.8588  143.5311 LP  0  0  0  0  0  0  0  0  0  0  0  0  # atno 17320 bound_to 7965
  145.1791  139.2361  143.5302 LP  0  0  0  0  0  0  0  0  0  0  0  0  # atno 17321 bound_to 7965
  140.1779  144.4873  150.6544 LP  0  0  0  0  0  0  0  0  0  0  0  0  # atno 17342 bound_to 10162
  140.6675  143.2273  151.5706 LP  0  0  0  0  0  0  0  0  0  0  0  0  # atno 17343 bound_to 10162
  156.4215  130.3954  149.6822 LP  0  0  0  0  0  0  0  0  0  0  0  0  # atno 17370 bound_to 10713
  156.4071  130.7703  151.2714 LP  0  0  0  0  0  0  0  0  0  0  0  0  # atno 17371 bound_to 10713
  139.8937  134.8723  156.2209 LP  0  0  0  0  0  0  0  0  0  0  0  0  # atno 17394 bound_to 11000
  141.0280  133.7004  156.1380 LP  0  0  0  0  0  0  0  0  0  0  0  0  # atno 17395 bound_to 11000

$$$$
