AV-unprocessed.smi:2707|AV-procd|sdf|10457|dock5
  -GOLD-   2272014493D 1   1.00000     0.00000
 Structure written by MMmdl.
 44 45  0  0  0  0  0  0  0  0  1 V2000
  148.8719  137.4743  156.5839 C   0  0  0  0  0  0  0  0  0  0  0  0
  149.8777  137.2441  155.4332 C   0  0  2  0  0  0  0  0  0  0  0  0
  149.3335  136.2746  154.4749 N   0  0  0  0  0  0  0  0  0  0  0  0
  149.0455  134.9802  154.6911 C   0  0  0  0  0  0  0  0  0  0  0  0
  149.1910  134.4180  155.7765 O   0  0  0  0  0  0  0  0  0  0  0  0
  148.5856  134.3951  153.5716 N   0  0  0  0  0  0  0  0  0  0  0  0
  148.2029  133.0404  153.3871 C   0  0  0  0  0  0  0  0  0  0  0  0
  148.9786  132.0925  154.0845 C   0  0  0  0  0  0  0  0  0  0  0  0
  148.6496  130.7327  153.9558 C   0  0  0  0  0  0  0  0  0  0  0  0
  147.5546  130.3958  153.1283 C   0  0  0  0  0  0  0  0  0  0  0  0
  147.0799  128.9483  152.9061 C   0  0  0  0  0  0  0  0  0  0  0  0
  148.2332  128.1044  152.3249 C   0  0  0  0  0  0  0  0  0  0  0  0
  145.8802  128.9386  151.9358 C   0  0  0  0  0  0  0  0  0  0  0  0
  146.6214  128.2691  154.2165 C   0  0  0  0  0  0  0  0  0  0  0  0
  146.8497  131.3537  152.4781 N   0  0  0  0  0  0  0  0  0  0  0  0
  147.1671  132.6453  152.6052 N   0  0  0  0  0  0  0  0  0  0  0  0
  151.1995  136.6752  156.0041 C   0  0  0  0  0  0  0  0  0  0  0  0
  152.0313  137.8007  156.6360 C   0  0  0  0  0  0  0  0  0  0  0  0
  151.5946  139.3279  155.7266 S   0  0  0  0  0  0  0  0  0  0  0  0
  151.0210  140.2971  156.6725 O   0  0  0  0  0  0  0  0  0  0  0  0
  152.6998  139.7051  154.8325 O   0  0  0  0  0  0  0  0  0  0  0  0
  150.2510  138.5726  154.7365 C   0  0  0  0  0  0  0  0  0  0  0  0
  149.2772  138.1369  157.3487 H   0  0  0  0  0  0  0  0  0  0  0  0
  148.6091  136.5355  157.0725 H   0  0  0  0  0  0  0  0  0  0  0  0
  147.9468  137.9290  156.2293 H   0  0  0  0  0  0  0  0  0  0  0  0
  149.1720  136.6275  153.5430 H   0  0  0  0  0  0  0  0  0  0  0  0
  148.5175  134.9807  152.7527 H   0  0  0  0  0  0  0  0  0  0  0  0
  149.8059  132.3967  154.7092 H   0  0  0  0  0  0  0  0  0  0  0  0
  149.2313  129.9945  154.4856 H   0  0  0  0  0  0  0  0  0  0  0  0
  147.9294  127.0681  152.1730 H   0  0  0  0  0  0  0  0  0  0  0  0
  149.0955  128.1003  152.9925 H   0  0  0  0  0  0  0  0  0  0  0  0
  148.5676  128.4852  151.3593 H   0  0  0  0  0  0  0  0  0  0  0  0
  146.1450  129.3444  150.9590 H   0  0  0  0  0  0  0  0  0  0  0  0
  145.0533  129.5334  152.3250 H   0  0  0  0  0  0  0  0  0  0  0  0
  145.5085  127.9264  151.7724 H   0  0  0  0  0  0  0  0  0  0  0  0
  146.2898  127.2459  154.0354 H   0  0  0  0  0  0  0  0  0  0  0  0
  145.7839  128.7980  154.6734 H   0  0  0  0  0  0  0  0  0  0  0  0
  147.4285  128.2172  154.9483 H   0  0  0  0  0  0  0  0  0  0  0  0
  151.0266  135.8633  156.7115 H   0  0  0  0  0  0  0  0  0  0  0  0
  151.7845  136.2504  155.1866 H   0  0  0  0  0  0  0  0  0  0  0  0
  151.7640  137.9435  157.6831 H   0  0  0  0  0  0  0  0  0  0  0  0
  153.1045  137.6196  156.5737 H   0  0  0  0  0  0  0  0  0  0  0  0
  150.6480  138.3936  153.7367 H   0  0  0  0  0  0  0  0  0  0  0  0
  149.4169  139.2696  154.6498 H   0  0  0  0  0  0  0  0  0  0  0  0
  1  2  1  0  0  0  0
  1 23  1  0  0  0  0
  1 24  1  0  0  0  0
  1 25  1  0  0  0  0
  2 22  1  0  0  0  0
  2  3  1  0  0  0  0
  2 17  1  0  0  0  0
  3  4  1  0  0  0  0
  3 26  1  0  0  0  0
  4  5  2  0  0  0  0
  4  6  1  0  0  0  0
  6  7  1  0  0  0  0
  6 27  1  0  0  0  0
  7 16  1  0  0  0  0
  7  8  2  0  0  0  0
  8  9  1  0  0  0  0
  8 28  1  0  0  0  0
  9 10  2  0  0  0  0
  9 29  1  0  0  0  0
 10 11  1  0  0  0  0
 10 15  1  0  0  0  0
 11 12  1  0  0  0  0
 11 13  1  0  0  0  0
 11 14  1  0  0  0  0
 12 30  1  0  0  0  0
 12 31  1  0  0  0  0
 12 32  1  0  0  0  0
 13 33  1  0  0  0  0
 13 34  1  0  0  0  0
 13 35  1  0  0  0  0
 14 36  1  0  0  0  0
 14 37  1  0  0  0  0
 14 38  1  0  0  0  0
 15 16  2  0  0  0  0
 17 18  1  0  0  0  0
 17 39  1  0  0  0  0
 17 40  1  0  0  0  0
 18 19  1  0  0  0  0
 18 41  1  0  0  0  0
 18 42  1  0  0  0  0
 19 20  2  0  0  0  0
 19 21  2  0  0  0  0
 19 22  1  0  0  0  0
 22 43  1  0  0  0  0
 22 44  1  0  0  0  0
M  END
> <s_m_source_file>
AV-unprocessed.smi

> <i_m_source_file_index>
2707

> <i_lp_mmshare_version>
43012

> <i_f3d_flags>
0

> <s_epik_input>
Tz1TKD1PKShbQ0gyXTEpW0NIMl1bQ0gyXVtDQEBdMShbQ0gzXSlbTkhdQyg9TylbTkhdYzJbY0hdW2NIXWMobm4yKUMoW0NIM10pKFtDSDNdKVtDSDNd

> <s_epik_cmdline>
J2VwaWtfcHl0aG9uJywgJy1waCcsICc3LjAnLCAnLXRuJywgJzgnLCAnLW1hJywgJzIwMCcsICctbWV0YWxfYmluZGluZycsICctaW1hZScsICc8aW5maWxlLm1hZT4nLCAnLW9tYWUnLCAnPG91dGZpbGUubWFlPic=

> <r_lp_tautomer_probability>
1

> <r_epik_Ionization_Penalty>
0.00910408

> <r_epik_Ionization_Penalty_Charging>
0

> <r_epik_Ionization_Penalty_Neutral>
0.00910408

> <r_epik_State_Penalty>
-0

> <r_epik_Charging_Adjusted_Penalty>
0

> <i_epik_Tot_Q>
0

> <i_epik_Tot_abs_Q>
0

> <r_epik_Metal_State_Penalty>
-0

> <b_epik_Metal_Only>
0

> <s_lp_Force_Field>
OPLS_2005

> <r_lp_Energy>
10.6556

> <b_lp_Chiralities_Consistent>
1

> <s_lp_Variant>
AV-unprocessed.smi:2707-2

> <Gold.Version>
5.8.1

> <Gold.Id.Protein>
6NUR|6NUR_protein|mol2

> <Gold.PLP.Fitness>
41.0498

> <Gold.PLP.PLP>
-31.9075

> <Gold.PLP.part.hbond>
-3.9273

> <Gold.PLP.part.metal>
0.0000

> <Gold.PLP.part.buried>
-2.4652

> <Gold.PLP.part.nonpolar>
-25.3758

> <Gold.PLP.part.repulsive>
0.3478

> <Gold.PLP.ligand.clash>
0.0000

> <Gold.PLP.ligand.torsion>
0.3215

> <Gold.PLP.Chemscore.Hbond>
3.2574

> <Gold.PLP.Chemscore.CHOScore>
0.0000

> <Gold.PLP.Chemscore.Metal>
0.0000

> <Gold.Chemscore.Hbonds>
donor molecule, donor type, donor heavy atom, donor atom, acceptor molecule, acceptor atom, score
      L1  H     3    26       P1  7948  0.93
      L1  H     6    27       P1  7948  1.00
      P1  H  7989  7998       L1    21  0.52
      P1  H  7997  8008       L1    21  0.81

> <Gold.PLP.Chemscore.Internal.Correction>
0.0132

> <Gold.Rescore>
     Score         DG    S(hbond)    S(metal)    S(lipo)     H(rot)  DE(clash)    DE(int)     intcor
     17.77     -19.38       2.75        0.00      67.18       1.22       0.05       1.56       ----

> <Gold.Chemscore.Fitness>
17.7748

> <Gold.Chemscore.DG>
-19.3813

> <Gold.Chemscore.ZeroCoef>
-5.4800

> <Gold.Chemscore.Hbond>
2.7471

> <Gold.Chemscore.Metal>
0.0000

> <Gold.Chemscore.Lipo>
67.1801

> <Gold.Chemscore.Internal_Hbond>
0.0000

> <Gold.Chemscore.DEClash>
0.0484

> <Gold.Chemscore.DEInternal>
1.5581

> <Gold.Chemscore.Rot>
1.2242

> <Gold.Chemscore.Internal.Correction>
   9.000000E+99

> <Gold.Chemscore.Hbonds>
donor molecule, donor type, donor heavy atom, donor atom, acceptor molecule, acceptor atom, score
      L1  H     3    26       P1  7948  0.88
      L1  H     6    27       P1  7948  0.47
      P1  H  7989  7998       L1    21  0.12
      P1  H  7997  8008       L1    21  0.71

> <Gold.Chemscore.Hbond.Weighted>
-9.1752

> <Gold.Chemscore.Metal.Weighted>
-0.0000

> <Gold.Chemscore.Lipo.Weighted>
-7.8601

> <Gold.Chemscore.Internal_Hbond.Weighted>
0.0000

> <Gold.Chemscore.DEClash.Weighted>
0.0484

> <Gold.Chemscore.DEInternal.Weighted>
1.5581

> <Gold.Chemscore.Rot.Weighted>
3.1340

> <Gold.Chemscore.Internal.Correction.Weighted>
   9.000000E+99

> <Gold.Protein.RotatedTorsions>
[ 6907 6896 6895 6894 ] final  163.78 input  -60.11 | X-H torsion
[ 7974 7965 7964 7962 ] final -124.79 input  175.53 | X-H torsion
[ 8008 7997 7996 7995 ] final  -13.17 input   59.86 | X-H torsion
[ 10167 10162 10161 10158 ] final   45.24 input  -65.29 | X-H torsion
[ 10718 10713 10712 10709 ] final  153.16 input   66.30 | X-H torsion
[ 10763 10752 10751 10750 ] final  -80.40 input  -60.55 | X-H torsion
[ 11005 11000 10999 10996 ] final   53.93 input  -57.11 | X-H torsion

> <Gold.Protein.ActiveResidues>
 VAL166  LYS551  ARG553  GLY616  TRP617  ASP618  TYR619  PRO620  LYS621  CYS622 
 ASP623  PHE694  ASN695  SER759  ASP760  ASP761  ALA762  ILE779  LEU786  VAL792 
 PHE793  MET794  SER795  GLU796  ALA797  LYS798  CYS799  TRP800  GLU811  SER814 

> <Gold.Protein.RotatedAtoms>
  151.9200  133.3583  159.3893 H   0  0  0  0  0  0  0  0  0  0  0  0  # atno 6907 bound_to 6896
  150.7039  134.4645  159.5405 H   0  0  0  0  0  0  0  0  0  0  0  0  # atno 6908 bound_to 6896
  152.2267  134.8361  160.0530 H   0  0  0  0  0  0  0  0  0  0  0  0  # atno 6909 bound_to 6896
  145.0043  140.7849  143.4477 H   0  0  0  0  0  0  0  0  0  0  0  0  # atno 7974 bound_to 7965
  154.5315  140.2257  155.8796 H   0  0  0  0  0  0  0  0  0  0  0  0  # atno 8008 bound_to 7997
  156.1769  140.3109  155.9039 H   0  0  0  0  0  0  0  0  0  0  0  0  # atno 8009 bound_to 7997
  155.3441  140.0452  157.3036 H   0  0  0  0  0  0  0  0  0  0  0  0  # atno 8010 bound_to 7997
  140.3261  144.2646  150.6175 H   0  0  0  0  0  0  0  0  0  0  0  0  # atno 10167 bound_to 10162
  157.2484  131.0774  151.1746 H   0  0  0  0  0  0  0  0  0  0  0  0  # atno 10718 bound_to 10713
  154.5507  135.5662  153.6919 H   0  0  0  0  0  0  0  0  0  0  0  0  # atno 10763 bound_to 10752
  152.9989  135.6250  154.2378 H   0  0  0  0  0  0  0  0  0  0  0  0  # atno 10764 bound_to 10752
  154.2312  135.2866  155.2869 H   0  0  0  0  0  0  0  0  0  0  0  0  # atno 10765 bound_to 10752
  140.0727  134.5447  155.9029 H   0  0  0  0  0  0  0  0  0  0  0  0  # atno 11005 bound_to 11000
  145.2109  139.2205  143.5143 LP  0  0  0  0  0  0  0  0  0  0  0  0  # atno 17320 bound_to 7965
  146.3458  140.1947  142.8589 LP  0  0  0  0  0  0  0  0  0  0  0  0  # atno 17321 bound_to 7965
  140.5439  143.2218  151.8039 LP  0  0  0  0  0  0  0  0  0  0  0  0  # atno 17342 bound_to 10162
  139.4865  144.4564  151.9593 LP  0  0  0  0  0  0  0  0  0  0  0  0  # atno 17343 bound_to 10162
  157.3304  130.6982  149.6321 LP  0  0  0  0  0  0  0  0  0  0  0  0  # atno 17370 bound_to 10713
  155.9667  130.4309  150.4897 LP  0  0  0  0  0  0  0  0  0  0  0  0  # atno 17371 bound_to 10713
  141.2018  133.6621  156.5971 LP  0  0  0  0  0  0  0  0  0  0  0  0  # atno 17394 bound_to 11000
  140.3603  134.7693  157.4529 LP  0  0  0  0  0  0  0  0  0  0  0  0  # atno 17395 bound_to 11000

$$$$
