#       Name:                AV-unprocessed.smi:3208
#       Creating user name   scv26
#       Creation time:       Fri Mar 27 18:09:55 2020


#       File generated by GOLD software.
#

@<TRIPOS>MOLECULE
AV-unprocessed.smi:3208
    34    34     1
SMALL
NO_CHARGES


@<TRIPOS>ATOM
      1 ****        -4.6530  -0.3176   0.4369 C.2            1 S1                 0.0000
      2 ****        -3.7798  -0.5904   1.4180 C.2            1 S1                 0.0000
      3 ****        -2.2959  -0.3041   1.3508 C.3            1 S1                 0.0000
      4 ****        -1.5560  -1.5081   1.5137 O.3            1 S1                 0.0000
      5 ****        -0.1427  -1.3515   1.6132 C.3            1 S1                 0.0000
      6 ****         0.4367  -2.6899   2.0953 C.3            1 S1                 0.0000
      7 ****         0.4501  -0.9443   0.2545 C.2            1 S1                 0.0000
      8 ****         0.3971  -1.7279  -0.6947 O.2            1 S1                 0.0000
      9 ****         0.9877   0.2885   0.1992 N.am           1 S1                 0.0000
     10 ****         1.6129   0.9398  -0.9001 C.ar           1 S1                 0.0000
     11 ****         1.7480   0.3439  -2.1114 N.pl3          1 S1                 1.0000
     12 ****         2.3395   0.9337  -3.1726 C.ar           1 S1                 0.0000
     13 ****         2.8557   2.2379  -3.0511 C.ar           1 S1                 0.0000
     14 ****         2.7419   2.9041  -1.8147 C.ar           1 S1                 0.0000
     15 ****         2.1160   2.2526  -0.7306 C.ar           1 S1                 0.0000
     16 ****         2.0055   2.8996   0.4685 O.co2          1 S1                -1.0000
     17 ****        -4.3339   0.1378  -0.4892 H              1 S1                 0.0000
     18 ****        -5.7022  -0.5482   0.5490 H              1 S1                 0.0000
     19 ****        -4.1368  -1.0466   2.3299 H              1 S1                 0.0000
     20 ****        -2.0603   0.1758   0.3999 H              1 S1                 0.0000
     21 ****        -2.0471   0.3998   2.1459 H              1 S1                 0.0000
     22 ****         0.0855  -0.5906   2.3625 H              1 S1                 0.0000
     23 ****         1.5230  -2.6443   2.1799 H              1 S1                 0.0000
     24 ****         0.1866  -3.5049   1.4150 H              1 S1                 0.0000
     25 ****         0.0418  -2.9498   3.0776 H              1 S1                 0.0000
     26 ****         0.9536   0.8324   1.0498 H              1 S1                 0.0000
     27 ****         2.3813   0.3478  -4.0791 H              1 S1                 0.0000
     28 ****         3.3314   2.7209  -3.8918 H              1 S1                 0.0000
     29 ****         3.1316   3.9051  -1.7003 H              1 S1                 0.0000
     30 ****         1.3823  -0.6022  -2.2248 H              1 S1                 0.0000
     31 ****        -1.7462  -2.0954   0.7270 LP             1 S1                 0.0000
     32 ****        -1.8759  -1.9556   2.3488 LP             1 S1                 0.0000
     33 ****        -0.0303  -2.6246  -0.5795 LP             1 S1                 0.0000
     34 ****         0.7814  -1.4672  -1.5803 LP             1 S1                 0.0000
@<TRIPOS>BOND
    1    1    2 2     
    2    1   17 1     
    3    1   18 1     
    4    2    3 1     
    5    2   19 1     
    6    3    4 1     
    7    3   20 1     
    8    3   21 1     
    9    4    5 1     
   10    5    6 1     
   11    5    7 1     
   12    5   22 1     
   13    6   23 1     
   14    6   24 1     
   15    6   25 1     
   16    7    8 2     
   17    7    9 am    
   18    9   26 1     
   19    9   10 1     
   20   10   15 ar    
   21   10   11 ar    
   22   11   30 1     
   23   11   12 ar    
   24   12   27 1     
   25   12   13 ar    
   26   13   28 1     
   27   13   14 ar    
   28   14   15 ar    
   29   14   29 1     
   30   15   16 ar    
   31    4   31 1     
   32    4   32 1     
   33    8   33 1     
   34    8   34 1     
@<TRIPOS>SUBSTRUCTURE
      1 S1             1
@<TRIPOS>SET
LONE_PAIRS      STATIC     ATOMS    <user>   **** ""
5 31 32 33 34 16
DONOR_HYDROGENS      STATIC     ATOMS    <user>   **** ""
2 26 30
ATOM$BLUE        STATIC     ATOMS    COLORGROUP SYSTEM
5 31 32 33 34 16
ATOM$RED        STATIC     ATOMS    COLORGROUP SYSTEM
2 26 30
