AV-unprocessed.smi:82|AV-procd|sdf|794|dock4
  -GOLD-   2262017173D 1   1.00000     0.00000
 Structure written by MMmdl.
 59 62  0  0  0  0  0  0  0  0  2 V2000
  151.7040  138.9291  155.2101 C   0  0  0  0  0  0  0  0  0  0  0  0
  150.9492  139.9990  154.6683 O   0  0  0  0  0  0  0  0  0  0  0  0
  149.5510  139.7872  154.7741 C   0  0  0  0  0  0  0  0  0  0  0  0
  149.1144  140.0844  156.2168 C   0  0  0  0  0  0  0  0  0  0  0  0
  147.8130  139.4421  156.5564 N   0  3  2  0  0  0  0  0  0  0  0  0
  148.0082  138.0271  156.9843 C   0  0  0  0  0  0  0  0  0  0  0  0
  146.6890  137.3577  157.3931 C   0  0  0  0  0  0  0  0  0  0  0  0
  145.7224  137.4504  156.3086 N   0  0  0  0  0  0  0  0  0  0  0  0
  145.7570  136.4562  155.3815 C   0  0  0  0  0  0  0  0  0  0  0  0
  146.5528  135.3717  155.5810 N   0  0  0  0  0  0  0  0  0  0  0  0
  146.5874  134.3822  154.6842 C   0  0  0  0  0  0  0  0  0  0  0  0
  145.9205  134.2764  153.5342 N   0  0  0  0  0  0  0  0  0  0  0  0
  145.1282  135.3652  153.3179 C   0  0  0  0  0  0  0  0  0  0  0  0
  144.9892  136.4891  154.1819 C   0  0  0  0  0  0  0  0  0  0  0  0
  144.1088  137.4072  153.6218 N   0  0  0  0  0  0  0  0  0  0  0  0
  143.7438  136.8562  152.4966 C   0  0  0  0  0  0  0  0  0  0  0  0
  144.3026  135.6249  152.2364 N   0  0  0  0  0  0  0  0  0  0  0  0
  144.0868  134.8139  151.0713 C   0  0  0  0  0  0  0  0  0  0  0  0
  143.6947  133.3411  151.2101 C   0  0  0  0  0  0  0  0  0  0  0  0
  144.5666  132.9808  149.9854 C   0  0  0  0  0  0  0  0  0  0  0  0
  145.4689  131.7540  150.1904 C   0  0  0  0  0  0  0  0  0  0  0  0
  146.5552  131.7541  149.2864 O   0  0  0  0  0  0  0  0  0  0  0  0
  143.8156  132.7763  148.6510 C   0  0  0  0  0  0  0  0  0  0  0  0
  143.4447  133.9892  148.0277 O   0  0  0  0  0  0  0  0  0  0  0  0
  145.2574  134.3464  150.2020 C   0  0  0  0  0  0  0  0  0  0  0  0
  145.4676  138.8223  155.8803 C   0  0  0  0  0  0  0  0  0  0  0  0
  146.7622  139.5823  155.4967 C   0  0  1  0  0  0  0  0  0  0  0  0
  146.3852  141.0521  155.2195 C   0  0  0  0  0  0  0  0  0  0  0  0
  152.7681  139.1448  155.1130 H   0  0  0  0  0  0  0  0  0  0  0  0
  151.5007  137.9960  154.6828 H   0  0  0  0  0  0  0  0  0  0  0  0
  151.4848  138.7884  156.2693 H   0  0  0  0  0  0  0  0  0  0  0  0
  149.0297  140.4637  154.0950 H   0  0  0  0  0  0  0  0  0  0  0  0
  149.2903  138.7727  154.4725 H   0  0  0  0  0  0  0  0  0  0  0  0
  149.9182  139.7477  156.8658 H   0  0  0  0  0  0  0  0  0  0  0  0
  149.0438  141.1613  156.3773 H   0  0  0  0  0  0  0  0  0  0  0  0
  148.4634  137.4631  156.1684 H   0  0  0  0  0  0  0  0  0  0  0  0
  148.6997  137.9745  157.8242 H   0  0  0  0  0  0  0  0  0  0  0  0
  146.8764  136.3257  157.6864 H   0  0  0  0  0  0  0  0  0  0  0  0
  146.2751  137.8546  158.2713 H   0  0  0  0  0  0  0  0  0  0  0  0
  147.2425  133.5568  154.9223 H   0  0  0  0  0  0  0  0  0  0  0  0
  143.0547  137.3398  151.8193 H   0  0  0  0  0  0  0  0  0  0  0  0
  143.3572  135.3396  150.4545 H   0  0  0  0  0  0  0  0  0  0  0  0
  144.0599  132.8996  152.1387 H   0  0  0  0  0  0  0  0  0  0  0  0
  142.6282  133.1496  151.0866 H   0  0  0  0  0  0  0  0  0  0  0  0
  145.8810  131.7382  151.2002 H   0  0  0  0  0  0  0  0  0  0  0  0
  144.9089  130.8258  150.0719 H   0  0  0  0  0  0  0  0  0  0  0  0
  147.3487  131.5778  149.7684 H   0  0  0  0  0  0  0  0  0  0  0  0
  144.4263  132.2202  147.9396 H   0  0  0  0  0  0  0  0  0  0  0  0
  142.9071  132.1933  148.8054 H   0  0  0  0  0  0  0  0  0  0  0  0
  144.2239  134.5031  147.8794 H   0  0  0  0  0  0  0  0  0  0  0  0
  145.4011  134.9325  149.2936 H   0  0  0  0  0  0  0  0  0  0  0  0
  146.1925  134.2615  150.7578 H   0  0  0  0  0  0  0  0  0  0  0  0
  144.7513  138.8379  155.0575 H   0  0  0  0  0  0  0  0  0  0  0  0
  144.9773  139.3354  156.7086 H   0  0  0  0  0  0  0  0  0  0  0  0
  147.1607  139.1508  154.5778 H   0  0  0  0  0  0  0  0  0  0  0  0
  145.5115  141.1096  154.5696 H   0  0  0  0  0  0  0  0  0  0  0  0
  147.1722  141.6055  154.7106 H   0  0  0  0  0  0  0  0  0  0  0  0
  146.1412  141.5799  156.1421 H   0  0  0  0  0  0  0  0  0  0  0  0
  147.4526  139.9391  157.3586 H   0  0  0  0  0  0  0  0  0  0  0  0
  1  2  1  0  0  0  0
  1 29  1  0  0  0  0
  1 30  1  0  0  0  0
  1 31  1  0  0  0  0
  2  3  1  0  0  0  0
  3  4  1  0  0  0  0
  3 32  1  0  0  0  0
  3 33  1  0  0  0  0
  4  5  1  0  0  0  0
  4 34  1  0  0  0  0
  4 35  1  0  0  0  0
  5 27  1  0  0  0  0
  5  6  1  0  0  0  0
  5 59  1  0  0  0  0
  6  7  1  0  0  0  0
  6 36  1  0  0  0  0
  6 37  1  0  0  0  0
  7  8  1  0  0  0  0
  7 38  1  0  0  0  0
  7 39  1  0  0  0  0
  8  9  1  0  0  0  0
  8 26  1  0  0  0  0
  9 14  1  0  0  0  0
  9 10  2  0  0  0  0
 10 11  1  0  0  0  0
 11 12  2  0  0  0  0
 11 40  1  0  0  0  0
 12 13  1  0  0  0  0
 13 17  1  0  0  0  0
 13 14  2  0  0  0  0
 14 15  1  0  0  0  0
 15 16  2  0  0  0  0
 16 17  1  0  0  0  0
 16 41  1  0  0  0  0
 17 18  1  0  0  0  0
 18 25  1  0  0  0  0
 18 19  1  0  0  0  0
 18 42  1  0  0  0  0
 19 20  1  0  0  0  0
 19 43  1  0  0  0  0
 19 44  1  0  0  0  0
 20 21  1  0  0  0  0
 20 23  1  0  0  0  0
 20 25  1  0  0  0  0
 21 22  1  0  0  0  0
 21 45  1  0  0  0  0
 21 46  1  0  0  0  0
 22 47  1  0  0  0  0
 23 24  1  0  0  0  0
 23 48  1  0  0  0  0
 23 49  1  0  0  0  0
 24 50  1  0  0  0  0
 25 51  1  0  0  0  0
 25 52  1  0  0  0  0
 26 27  1  0  0  0  0
 26 53  1  0  0  0  0
 26 54  1  0  0  0  0
 27 28  1  0  0  0  0
 27 55  1  0  0  0  0
 28 56  1  0  0  0  0
 28 57  1  0  0  0  0
 28 58  1  0  0  0  0
M  CHG  1   5   1
M  END
> <s_m_source_file>
AV-unprocessed.smi

> <i_m_source_file_index>
82

> <i_lp_mmshare_version>
43012

> <i_f3d_flags>
0

> <s_epik_input>
W0NIM11PW0NIMl1bQ0gyXU4xW0NIMl1bQ0gyXU4oW0NIMl1bQ0BIXTFbQ0gzXSljKG5bY0hdbjIpYyhjMjMpbltjSF1uM1tDSF0oW0NIMl00KVtDSDJdQzQoW0NIMl1bT0hdKVtDSDJdW09IXQ==

> <s_epik_cmdline>
J2VwaWtfcHl0aG9uJywgJy1waCcsICc3LjAnLCAnLXRuJywgJzgnLCAnLW1hJywgJzIwMCcsICctbWV0YWxfYmluZGluZycsICctaW1hZScsICc8aW5maWxlLm1hZT4nLCAnLW9tYWUnLCAnPG91dGZpbGUubWFlPic=

> <r_lp_tautomer_probability>
1

> <r_epik_Ionization_Penalty>
0.304275

> <r_epik_Ionization_Penalty_Charging>
0.304214

> <r_epik_Ionization_Penalty_Neutral>
6.13137e-05

> <r_epik_State_Penalty>
0.300354

> <r_epik_Charging_Adjusted_Penalty>
0.604567

> <i_epik_Tot_Q>
1

> <i_epik_Tot_abs_Q>
1

> <r_epik_Metal_State_Penalty>
0.301147

> <b_epik_Metal_Only>
0

> <s_lp_Force_Field>
OPLS_2005

> <r_lp_Energy>
58.1086

> <b_lp_Chiralities_Consistent>
1

> <s_lp_Variant>
AV-unprocessed.smi:82-1

> <Gold.Version>
5.8.1

> <Gold.Id.Protein>
6NUR|6NUR_protein|mol2

> <Gold.PLP.Fitness>
47.9871

> <Gold.PLP.PLP>
-35.6152

> <Gold.PLP.part.hbond>
-5.8313

> <Gold.PLP.part.metal>
0.0000

> <Gold.PLP.part.buried>
-4.6023

> <Gold.PLP.part.nonpolar>
-26.0888

> <Gold.PLP.part.repulsive>
0.3711

> <Gold.PLP.ligand.clash>
0.0000

> <Gold.PLP.ligand.torsion>
1.5231

> <Gold.PLP.Chemscore.Hbond>
4.0000

> <Gold.PLP.Chemscore.CHOScore>
0.8188

> <Gold.PLP.Chemscore.Metal>
0.0000

> <Gold.Chemscore.Hbonds>
donor molecule, donor type, donor heavy atom, donor atom, acceptor molecule, acceptor atom, score
      L1  H    22    47       P1 10747  1.00
      L1  H    24    50       P1  7921  1.00
      P1  H  7989  7998       L1     2  1.00
      P1  H 10192 10197       L1    24  0.96
      L1  C    16    41       P1 10171  0.85

> <Gold.PLP.Chemscore.Internal.Correction>
0.9617

> <Gold.Rescore>
     Score         DG    S(hbond)    S(metal)    S(lipo)     H(rot)  DE(clash)    DE(int)     intcor
     13.23     -17.42       3.86        0.00      77.41       3.91       1.50       2.69       ----

> <Gold.Chemscore.Fitness>
13.2282

> <Gold.Chemscore.DG>
-17.4202

> <Gold.Chemscore.ZeroCoef>
-5.4800

> <Gold.Chemscore.Hbond>
3.8565

> <Gold.Chemscore.Metal>
0.0000

> <Gold.Chemscore.Lipo>
77.4134

> <Gold.Chemscore.Internal_Hbond>
0.0000

> <Gold.Chemscore.DEClash>
1.4996

> <Gold.Chemscore.DEInternal>
2.6923

> <Gold.Chemscore.Rot>
3.9055

> <Gold.Chemscore.Internal.Correction>
   9.000000E+99

> <Gold.Chemscore.Hbonds>
donor molecule, donor type, donor heavy atom, donor atom, acceptor molecule, acceptor atom, score
      L1  H    22    47       P1 10747  1.00
      L1  H    24    50       P1  7921  0.98
      P1  H  7989  7998       L1     2  0.93
      P1  H 10192 10197       L1    24  0.27

> <Gold.Chemscore.Hbond.Weighted>
-12.8808

> <Gold.Chemscore.Metal.Weighted>
-0.0000

> <Gold.Chemscore.Lipo.Weighted>
-9.0574

> <Gold.Chemscore.Internal_Hbond.Weighted>
0.0000

> <Gold.Chemscore.DEClash.Weighted>
1.4996

> <Gold.Chemscore.DEInternal.Weighted>
2.6923

> <Gold.Chemscore.Rot.Weighted>
9.9980

> <Gold.Chemscore.Internal.Correction.Weighted>
   9.000000E+99

> <Gold.Protein.RotatedTorsions>
[ 6907 6896 6895 6894 ] final  -41.56 input  -60.11 | X-H torsion
[ 7974 7965 7964 7962 ] final  -46.01 input  175.53 | X-H torsion
[ 8008 7997 7996 7995 ] final -144.05 input   59.86 | X-H torsion
[ 10167 10162 10161 10158 ] final  -86.01 input  -65.29 | X-H torsion
[ 10718 10713 10712 10709 ] final   58.93 input   66.30 | X-H torsion
[ 10763 10752 10751 10750 ] final  -49.77 input  -60.55 | X-H torsion
[ 11005 11000 10999 10996 ] final   16.60 input  -57.11 | X-H torsion

> <Gold.Protein.ActiveResidues>
 VAL166  LYS551  ARG553  GLY616  TRP617  ASP618  TYR619  PRO620  LYS621  CYS622 
 ASP623  PHE694  ASN695  SER759  ASP760  ASP761  ALA762  ILE779  LEU786  VAL792 
 PHE793  MET794  SER795  GLU796  ALA797  LYS798  CYS799  TRP800  GLU811  SER814 

> <Gold.Protein.RotatedAtoms>
  150.9653  134.9034  159.7754 H   0  0  0  0  0  0  0  0  0  0  0  0  # atno 6907 bound_to 6896
  152.5171  134.3616  159.9297 H   0  0  0  0  0  0  0  0  0  0  0  0  # atno 6908 bound_to 6896
  151.3627  133.3843  159.2726 H   0  0  0  0  0  0  0  0  0  0  0  0  # atno 6909 bound_to 6896
  145.9763  140.7331  142.9385 H   0  0  0  0  0  0  0  0  0  0  0  0  # atno 7974 bound_to 7965
  155.5206  140.0591  157.2907 H   0  0  0  0  0  0  0  0  0  0  0  0  # atno 8008 bound_to 7997
  154.4519  140.1953  156.0440 H   0  0  0  0  0  0  0  0  0  0  0  0  # atno 8009 bound_to 7997
  156.0721  140.3258  155.7593 H   0  0  0  0  0  0  0  0  0  0  0  0  # atno 8010 bound_to 7997
  140.3983  143.2674  151.9176 H   0  0  0  0  0  0  0  0  0  0  0  0  # atno 10167 bound_to 10162
  157.5635  130.8854  149.9150 H   0  0  0  0  0  0  0  0  0  0  0  0  # atno 10718 bound_to 10713
  154.0995  135.6565  153.4866 H   0  0  0  0  0  0  0  0  0  0  0  0  # atno 10763 bound_to 10752
  153.0293  135.5221  154.7301 H   0  0  0  0  0  0  0  0  0  0  0  0  # atno 10764 bound_to 10752
  154.6448  135.2993  155.0028 H   0  0  0  0  0  0  0  0  0  0  0  0  # atno 10765 bound_to 10752
  140.4454  134.1279  155.7695 H   0  0  0  0  0  0  0  0  0  0  0  0  # atno 11005 bound_to 11000
  144.6849  140.2833  143.7289 LP  0  0  0  0  0  0  0  0  0  0  0  0  # atno 17320 bound_to 7965
  145.7834  139.1900  143.2144 LP  0  0  0  0  0  0  0  0  0  0  0  0  # atno 17321 bound_to 7965
  139.4786  144.5659  151.8165 LP  0  0  0  0  0  0  0  0  0  0  0  0  # atno 17342 bound_to 10162
  140.4767  144.1509  150.5926 LP  0  0  0  0  0  0  0  0  0  0  0  0  # atno 17343 bound_to 10162
  156.0686  130.3688  150.0825 LP  0  0  0  0  0  0  0  0  0  0  0  0  # atno 17370 bound_to 10713
  156.8986  130.9613  151.3579 LP  0  0  0  0  0  0  0  0  0  0  0  0  # atno 17371 bound_to 10713
  141.1687  133.8651  157.1635 LP  0  0  0  0  0  0  0  0  0  0  0  0  # atno 17394 bound_to 11000
  140.0042  135.0015  157.0257 LP  0  0  0  0  0  0  0  0  0  0  0  0  # atno 17395 bound_to 11000

$$$$
