#       Name:                AV-unprocessed.smi:937
#       Creating user name   scv26
#       Creation time:       Fri Mar 27 02:12:19 2020


#       File generated by GOLD software.
#

@<TRIPOS>MOLECULE
AV-unprocessed.smi:937
    48    49     1
SMALL
NO_CHARGES


@<TRIPOS>ATOM
      1 ****        -2.9098   7.4027  -0.8204 C.3            1 S1                 0.0000
      2 ****        -2.4873   5.9527  -0.7145 C.ar           1 S1                 0.0000
      3 ****        -2.7805   5.1655   0.4200 C.ar           1 S1                 0.0000
      4 ****        -2.3614   3.8190   0.4514 C.ar           1 S1                 0.0000
      5 ****        -1.6594   3.2871  -0.6522 C.ar           1 S1                 0.0000
      6 ****        -1.1938   1.8447  -0.6530 C.3            1 S1                 0.0000
      7 ****         0.2134   1.6889  -0.0544 C.3            1 S1                 0.0000
      8 ****         0.6669   0.3051  -0.1175 N.am           1 S1                 0.0000
      9 ****         1.1920  -0.2808  -1.2072 C.2            1 S1                 0.0000
     10 ****         1.3599   0.3067  -2.2745 O.2            1 S1                 0.0000
     11 ****         1.5219  -1.5755  -1.0507 N.am           1 S1                 0.0000
     12 ****         2.1085  -2.4912  -2.0310 C.3            1 S1                 0.0000
     13 ****         3.6327  -2.2775  -2.1346 C.3            1 S1                 0.0000
     14 ****         4.2746  -3.2906  -3.0936 C.3            1 S1                 0.0000
     15 ****         3.9483  -4.7342  -2.6810 C.3            1 S1                 0.0000
     16 ****         2.4257  -4.9683  -2.5872 C.3            1 S1                 0.0000
     17 ****         2.0870  -6.4204  -2.1912 C.3            1 S1                 0.0000
     18 ****         2.5734  -6.7090  -0.9838 F              1 S1                 0.0000
     19 ****         0.7652  -6.5930  -2.1757 F              1 S1                 0.0000
     20 ****         2.6059  -7.2688  -3.0789 F              1 S1                 0.0000
     21 ****         1.7918  -3.9427  -1.6227 C.3            1 S1                 0.0000
     22 ****        -1.3936   4.1217  -1.7590 C.ar           1 S1                 0.0000
     23 ****        -1.8121   5.4061  -1.7504 N.pl3          1 S1                 1.0000
     24 ****        -3.0299   7.8446   0.1691 H              1 S1                 0.0000
     25 ****        -3.8604   7.4804  -1.3482 H              1 S1                 0.0000
     26 ****        -2.1655   7.9864  -1.3633 H              1 S1                 0.0000
     27 ****        -3.3205   5.5857   1.2561 H              1 S1                 0.0000
     28 ****        -2.5771   3.2039   1.3129 H              1 S1                 0.0000
     29 ****        -1.9073   1.2370  -0.0944 H              1 S1                 0.0000
     30 ****        -1.2127   1.4738  -1.6788 H              1 S1                 0.0000
     31 ****         0.9244   2.3350  -0.5725 H              1 S1                 0.0000
     32 ****         0.2126   2.0027   0.9898 H              1 S1                 0.0000
     33 ****         0.5675  -0.2503   0.7199 H              1 S1                 0.0000
     34 ****         1.3511  -1.9703  -0.1369 H              1 S1                 0.0000
     35 ****         1.6551  -2.3167  -3.0084 H              1 S1                 0.0000
     36 ****         3.8541  -1.2655  -2.4752 H              1 S1                 0.0000
     37 ****         4.0875  -2.3763  -1.1480 H              1 S1                 0.0000
     38 ****         3.9177  -3.1107  -4.1084 H              1 S1                 0.0000
     39 ****         5.3552  -3.1467  -3.1159 H              1 S1                 0.0000
     40 ****         4.3911  -5.4235  -3.4005 H              1 S1                 0.0000
     41 ****         4.4155  -4.9508  -1.7196 H              1 S1                 0.0000
     42 ****         2.0027  -4.7955  -3.5782 H              1 S1                 0.0000
     43 ****         2.1521  -4.1256  -0.6091 H              1 S1                 0.0000
     44 ****         0.7106  -4.0830  -1.5934 H              1 S1                 0.0000
     45 ****        -0.8621   3.8033  -2.6443 H              1 S1                 0.0000
     46 ****        -1.6093   5.9892  -2.5627 H              1 S1                 0.0000
     47 ****         1.1010   1.2687  -2.3618 LP             1 S1                 0.0000
     48 ****         1.7553  -0.1775  -3.0550 LP             1 S1                 0.0000
@<TRIPOS>BOND
    1    1    2 1     
    2    1   24 1     
    3    1   25 1     
    4    1   26 1     
    5    2   23 ar    
    6    2    3 ar    
    7    3    4 ar    
    8    3   27 1     
    9    4    5 ar    
   10    4   28 1     
   11    5    6 1     
   12    5   22 ar    
   13    6    7 1     
   14    6   29 1     
   15    6   30 1     
   16    7    8 1     
   17    7   31 1     
   18    7   32 1     
   19    8    9 am    
   20    8   33 1     
   21    9   10 2     
   22    9   11 am    
   23   11   12 1     
   24   11   34 1     
   25   12   21 1     
   26   12   13 1     
   27   12   35 1     
   28   13   14 1     
   29   13   36 1     
   30   13   37 1     
   31   14   15 1     
   32   14   38 1     
   33   14   39 1     
   34   15   16 1     
   35   15   40 1     
   36   15   41 1     
   37   16   17 1     
   38   16   21 1     
   39   16   42 1     
   40   17   18 1     
   41   17   19 1     
   42   17   20 1     
   43   21   43 1     
   44   21   44 1     
   45   22   23 ar    
   46   22   45 1     
   47   23   46 1     
   48   10   47 1     
   49   10   48 1     
@<TRIPOS>SUBSTRUCTURE
      1 S1             1
@<TRIPOS>SET
LONE_PAIRS      STATIC     ATOMS    <user>   **** ""
2 47 48
DONOR_HYDROGENS      STATIC     ATOMS    <user>   **** ""
3 33 34 46
ATOM$BLUE        STATIC     ATOMS    COLORGROUP SYSTEM
2 47 48
ATOM$RED        STATIC     ATOMS    COLORGROUP SYSTEM
3 33 34 46
