AV-unprocessed.smi:1907|AV-procd|sdf|7732|dock1
  -GOLD-   22720 9473D 1   1.00000     0.00000
 Structure written by MMmdl.
 31 32  0  0  0  0  0  0  0  0  2 V2000
  149.2060  139.4640  153.8786 N   0  0  0  0  0  0  0  0  0  0  0  0
  149.9797  139.7551  154.9283 C   0  0  0  0  0  0  0  0  0  0  0  0
  151.1790  139.9997  154.8129 O   0  0  0  0  0  0  0  0  0  0  0  0
  149.3095  139.7880  156.3038 C   0  0  0  0  0  0  0  0  0  0  0  0
  149.8957  138.7374  157.2020 C   0  0  0  0  0  0  0  0  0  0  0  0
  151.2081  138.6109  157.5777 C   0  0  0  0  0  0  0  0  0  0  0  0
  151.4482  137.2442  158.6281 S   0  0  0  0  0  0  0  0  0  0  0  0
  149.7211  136.8909  158.5466 C   0  0  0  0  0  0  0  0  0  0  0  0
  149.1158  135.8595  159.1604 N   0  5  0  0  0  0  0  0  0  0  0  0
  148.2596  135.9913  160.2120 C   0  0  0  0  0  0  0  0  0  0  0  0
  148.1359  137.0076  160.8947 O   0  0  0  0  0  0  0  0  0  0  0  0
  147.3759  134.7576  160.5495 C   0  0  0  0  0  0  0  0  0  0  0  0
  145.8701  135.0637  160.3661 C   0  0  0  0  0  0  0  0  0  0  0  0
  145.2000  134.8901  161.7354 C   0  0  0  0  0  0  0  0  0  0  0  0
  146.3356  134.9497  162.7527 C   0  0  0  0  0  0  0  0  0  0  0  0
  147.5095  134.3051  162.0190 C   0  0  0  0  0  0  0  0  0  0  0  0
  149.0720  137.7530  157.7559 N   0  0  0  0  0  0  0  0  0  0  0  0
  149.6097  139.4101  152.9551 H   0  0  0  0  0  0  0  0  0  0  0  0
  148.2228  139.2778  154.0175 H   0  0  0  0  0  0  0  0  0  0  0  0
  149.4362  140.7787  156.7423 H   0  0  0  0  0  0  0  0  0  0  0  0
  148.2350  139.6418  156.1834 H   0  0  0  0  0  0  0  0  0  0  0  0
  152.0453  139.2314  157.2962 H   0  0  0  0  0  0  0  0  0  0  0  0
  147.6662  133.9041  159.9365 H   0  0  0  0  0  0  0  0  0  0  0  0
  145.7083  136.0813  160.0063 H   0  0  0  0  0  0  0  0  0  0  0  0
  145.4206  134.3974  159.6289 H   0  0  0  0  0  0  0  0  0  0  0  0
  144.4337  135.6426  161.9234 H   0  0  0  0  0  0  0  0  0  0  0  0
  144.7202  133.9118  161.7841 H   0  0  0  0  0  0  0  0  0  0  0  0
  146.5692  135.9886  162.9890 H   0  0  0  0  0  0  0  0  0  0  0  0
  146.0920  134.4406  163.6854 H   0  0  0  0  0  0  0  0  0  0  0  0
  147.4149  133.2198  162.0704 H   0  0  0  0  0  0  0  0  0  0  0  0
  148.4682  134.5557  162.4752 H   0  0  0  0  0  0  0  0  0  0  0  0
  1  2  1  0  0  0  0
  1 18  1  0  0  0  0
  1 19  1  0  0  0  0
  2  3  2  0  0  0  0
  2  4  1  0  0  0  0
  4  5  1  0  0  0  0
  4 20  1  0  0  0  0
  4 21  1  0  0  0  0
  5 17  1  0  0  0  0
  5  6  2  0  0  0  0
  6  7  1  0  0  0  0
  6 22  1  0  0  0  0
  7  8  1  0  0  0  0
  8  9  1  0  0  0  0
  8 17  2  0  0  0  0
  9 10  1  0  0  0  0
 10 11  2  0  0  0  0
 10 12  1  0  0  0  0
 12 16  1  0  0  0  0
 12 13  1  0  0  0  0
 12 23  1  0  0  0  0
 13 14  1  0  0  0  0
 13 24  1  0  0  0  0
 13 25  1  0  0  0  0
 14 15  1  0  0  0  0
 14 26  1  0  0  0  0
 14 27  1  0  0  0  0
 15 16  1  0  0  0  0
 15 28  1  0  0  0  0
 15 29  1  0  0  0  0
 16 30  1  0  0  0  0
 16 31  1  0  0  0  0
M  CHG  1   9  -1
M  END
> <s_m_source_file>
AV-unprocessed.smi

> <i_m_source_file_index>
1907

> <i_lp_mmshare_version>
43012

> <i_f3d_flags>
0

> <s_epik_input>
W05IMl1DKD1PKVtDSDJdYzFbY0hdc2MobjEpW05IXUMoPU8pW0NIXTJbQ0gyXVtDSDJdW0NIMl1bQ0gyXTI=

> <s_epik_cmdline>
J2VwaWtfcHl0aG9uJywgJy1waCcsICc3LjAnLCAnLXRuJywgJzgnLCAnLW1hJywgJzIwMCcsICctbWV0YWxfYmluZGluZycsICctaW1hZScsICc8aW5maWxlLm1hZT4nLCAnLW9tYWUnLCAnPG91dGZpbGUubWFlPic=

> <r_lp_tautomer_probability>
1

> <r_epik_Ionization_Penalty>
5.3563

> <r_epik_Ionization_Penalty_Charging>
4.90463

> <r_epik_Ionization_Penalty_Neutral>
0.451677

> <r_epik_State_Penalty>
4.90447

> <r_epik_Charging_Adjusted_Penalty>
9.8091

> <i_epik_Tot_Q>
-1

> <i_epik_Tot_abs_Q>
1

> <r_epik_Metal_State_Penalty>
1.05508

> <b_epik_Metal_Only>
1

> <s_lp_Force_Field>
OPLS_2005

> <r_lp_Energy>
19.4478

> <b_lp_Chiralities_Consistent>
1

> <s_lp_Variant>
AV-unprocessed.smi:1907-2

> <Gold.Version>
5.8.1

> <Gold.Id.Protein>
6NUR|6NUR_protein|mol2

> <Gold.PLP.Fitness>
41.1621

> <Gold.PLP.PLP>
-26.1251

> <Gold.PLP.part.hbond>
-5.0000

> <Gold.PLP.part.metal>
0.0000

> <Gold.PLP.part.buried>
-4.6138

> <Gold.PLP.part.nonpolar>
-16.4263

> <Gold.PLP.part.repulsive>
0.1659

> <Gold.PLP.ligand.clash>
0.0000

> <Gold.PLP.ligand.torsion>
0.7650

> <Gold.PLP.Chemscore.Hbond>
5.5099

> <Gold.PLP.Chemscore.CHOScore>
0.0000

> <Gold.PLP.Chemscore.Metal>
0.0000

> <Gold.Chemscore.Hbonds>
donor molecule, donor type, donor heavy atom, donor atom, acceptor molecule, acceptor atom, score
      L1  H     1    18       P1  7957  0.98
      P1  H  6896  6908       L1     9  1.98
      P1  H  6931  6943       L1    11  0.99
      P1  H  6934  6947       L1    11  0.37
      P1  H  7989  7998       L1     3  1.00

> <Gold.PLP.Chemscore.Internal.Correction>
0.0373

> <Gold.Rescore>
     Score         DG    S(hbond)    S(metal)    S(lipo)     H(rot)  DE(clash)    DE(int)     intcor
     20.14     -20.83       4.39        0.00      46.72       1.87       0.03       0.66       ----

> <Gold.Chemscore.Fitness>
20.1441

> <Gold.Chemscore.DG>
-20.8257

> <Gold.Chemscore.ZeroCoef>
-5.4800

> <Gold.Chemscore.Hbond>
4.3946

> <Gold.Chemscore.Metal>
0.0000

> <Gold.Chemscore.Lipo>
46.7160

> <Gold.Chemscore.Internal_Hbond>
0.0000

> <Gold.Chemscore.DEClash>
0.0253

> <Gold.Chemscore.DEInternal>
0.6563

> <Gold.Chemscore.Rot>
1.8743

> <Gold.Chemscore.Internal.Correction>
   9.000000E+99

> <Gold.Chemscore.Hbonds>
donor molecule, donor type, donor heavy atom, donor atom, acceptor molecule, acceptor atom, score
      L1  H     1    18       P1  7957  0.92
      P1  H  6896  6908       L1     9  0.23
      P1  H  6931  6943       L1    11  0.94
      P1  H  6934  6947       L1    11  0.37
      P1  H  7989  7998       L1     3  0.94

> <Gold.Chemscore.Hbond.Weighted>
-14.6781

> <Gold.Chemscore.Metal.Weighted>
-0.0000

> <Gold.Chemscore.Lipo.Weighted>
-5.4658

> <Gold.Chemscore.Internal_Hbond.Weighted>
0.0000

> <Gold.Chemscore.DEClash.Weighted>
0.0253

> <Gold.Chemscore.DEInternal.Weighted>
0.6563

> <Gold.Chemscore.Rot.Weighted>
4.7982

> <Gold.Chemscore.Internal.Correction.Weighted>
   9.000000E+99

> <Gold.Protein.RotatedTorsions>
[ 6907 6896 6895 6894 ] final  175.58 input  -60.11 | X-H torsion
[ 7974 7965 7964 7962 ] final  102.72 input  175.53 | X-H torsion
[ 8008 7997 7996 7995 ] final  112.31 input   59.86 | X-H torsion
[ 10167 10162 10161 10158 ] final   16.94 input  -65.29 | X-H torsion
[ 10718 10713 10712 10709 ] final  -98.97 input   66.30 | X-H torsion
[ 10763 10752 10751 10750 ] final  -80.22 input  -60.55 | X-H torsion
[ 11005 11000 10999 10996 ] final  -73.31 input  -57.11 | X-H torsion

> <Gold.Protein.ActiveResidues>
 VAL166  LYS551  ARG553  GLY616  TRP617  ASP618  TYR619  PRO620  LYS621  CYS622 
 ASP623  PHE694  ASN695  SER759  ASP760  ASP761  ALA762  ILE779  LEU786  VAL792 
 PHE793  MET794  SER795  GLU796  ALA797  LYS798  CYS799  TRP800  GLU811  SER814 

> <Gold.Protein.RotatedAtoms>
  151.7339  133.3319  159.3347 H   0  0  0  0  0  0  0  0  0  0  0  0  # atno 6907 bound_to 6896
  150.7601  134.6339  159.6210 H   0  0  0  0  0  0  0  0  0  0  0  0  # atno 6908 bound_to 6896
  152.3574  134.6922  160.0269 H   0  0  0  0  0  0  0  0  0  0  0  0  # atno 6909 bound_to 6896
  145.3554  139.2430  143.3535 H   0  0  0  0  0  0  0  0  0  0  0  0  # atno 7974 bound_to 7965
  156.2184  140.3002  155.9893 H   0  0  0  0  0  0  0  0  0  0  0  0  # atno 8008 bound_to 7997
  155.2546  140.0427  157.3007 H   0  0  0  0  0  0  0  0  0  0  0  0  # atno 8009 bound_to 7997
  154.5802  140.2373  155.8072 H   0  0  0  0  0  0  0  0  0  0  0  0  # atno 8010 bound_to 7997
  140.5762  143.9069  150.6752 H   0  0  0  0  0  0  0  0  0  0  0  0  # atno 10167 bound_to 10162
  156.0121  130.5261  150.6601 H   0  0  0  0  0  0  0  0  0  0  0  0  # atno 10718 bound_to 10713
  154.5485  135.5668  153.6901 H   0  0  0  0  0  0  0  0  0  0  0  0  # atno 10763 bound_to 10752
  152.9983  135.6245  154.2407 H   0  0  0  0  0  0  0  0  0  0  0  0  # atno 10764 bound_to 10752
  154.2340  135.2865  155.2859 H   0  0  0  0  0  0  0  0  0  0  0  0  # atno 10765 bound_to 10752
  141.1621  133.6874  156.7192 H   0  0  0  0  0  0  0  0  0  0  0  0  # atno 11005 bound_to 11000
  146.2950  140.4178  142.8725 LP  0  0  0  0  0  0  0  0  0  0  0  0  # atno 17320 bound_to 7965
  144.8686  140.7241  143.6061 LP  0  0  0  0  0  0  0  0  0  0  0  0  # atno 17321 bound_to 7965
  140.2556  143.3561  152.1367 LP  0  0  0  0  0  0  0  0  0  0  0  0  # atno 17342 bound_to 10162
  139.5144  144.6947  151.5664 LP  0  0  0  0  0  0  0  0  0  0  0  0  # atno 17343 bound_to 10162
  157.4345  131.0853  151.1005 LP  0  0  0  0  0  0  0  0  0  0  0  0  # atno 17370 bound_to 10713
  157.1568  130.6208  149.5598 LP  0  0  0  0  0  0  0  0  0  0  0  0  # atno 17371 bound_to 10713
  140.2829  134.8302  157.3949 LP  0  0  0  0  0  0  0  0  0  0  0  0  # atno 17394 bound_to 11000
  140.1417  134.4964  155.8027 LP  0  0  0  0  0  0  0  0  0  0  0  0  # atno 17395 bound_to 11000

$$$$
