AV-unprocessed.smi:910|AV-procd|sdf|4121|dock9
  -GOLD-   22720 2 23D 1   1.00000     0.00000
 Structure written by MMmdl.
 46 47  0  0  0  0  0  0  0  0  1 V2000
  145.9028  132.3878  149.8903 C   0  0  0  0  0  0  0  0  0  0  0  0
  146.4610  132.9731  151.1686 C   0  0  0  0  0  0  0  0  0  0  0  0
  147.6149  132.5069  151.7377 N   0  0  0  0  0  0  0  0  0  0  0  0
  147.8540  133.2376  152.8909 C   0  0  0  0  0  0  0  0  0  0  0  0
  148.8428  133.1145  153.7210 N   0  0  0  0  0  0  0  0  0  0  0  0
  148.8752  133.9576  154.8187 C   0  0  0  0  0  0  0  0  0  0  0  0
  148.5640  133.6862  155.9829 O   0  0  0  0  0  0  0  0  0  0  0  0
  149.2319  135.1979  154.4500 N   0  0  0  0  0  0  0  0  0  0  0  0
  149.2141  136.3730  155.3165 C   0  0  0  0  0  0  0  0  0  0  0  0
  150.2180  137.4252  154.8252 C   0  0  0  0  0  0  0  0  0  0  0  0
  150.1260  138.5651  155.6665 O   0  0  0  0  0  0  0  0  0  0  0  0
  150.8513  139.7111  155.2385 C   0  0  1  0  0  0  0  0  0  0  0  0
  150.1510  141.0131  155.6894 C   0  0  0  0  0  0  0  0  0  0  0  0
  150.0922  141.1242  157.2217 C   0  0  0  0  0  0  0  0  0  0  0  0
  151.4961  141.0254  157.8351 C   0  0  0  0  0  0  0  0  0  0  0  0
  152.2118  139.7399  157.3898 C   0  0  0  0  0  0  0  0  0  0  0  0
  152.2673  139.6252  155.8519 C   0  0  1  0  0  0  0  0  0  0  0  0
  153.0167  138.3617  155.4013 C   0  0  0  0  0  0  0  0  0  0  0  0
  146.8287  134.1504  152.9926 O   0  0  0  0  0  0  0  0  0  0  0  0
  145.9965  133.9585  151.9325 C   0  0  0  0  0  0  0  0  0  0  0  0
  144.7668  134.8287  151.8043 C   0  0  0  0  0  0  0  0  0  0  0  0
  144.9059  131.9824  150.0653 H   0  0  0  0  0  0  0  0  0  0  0  0
  146.5400  131.5862  149.5156 H   0  0  0  0  0  0  0  0  0  0  0  0
  145.8318  133.1586  149.1225 H   0  0  0  0  0  0  0  0  0  0  0  0
  148.1642  131.7537  151.3495 H   0  0  0  0  0  0  0  0  0  0  0  0
  149.4675  135.3512  153.4803 H   0  0  0  0  0  0  0  0  0  0  0  0
  148.2126  136.8007  155.3844 H   0  0  0  0  0  0  0  0  0  0  0  0
  149.4819  136.0542  156.3240 H   0  0  0  0  0  0  0  0  0  0  0  0
  151.2317  137.0243  154.8604 H   0  0  0  0  0  0  0  0  0  0  0  0
  150.0012  137.6738  153.7869 H   0  0  0  0  0  0  0  0  0  0  0  0
  150.9371  139.6987  154.1508 H   0  0  0  0  0  0  0  0  0  0  0  0
  150.6998  141.8677  155.2916 H   0  0  0  0  0  0  0  0  0  0  0  0
  149.1481  141.0907  155.2722 H   0  0  0  0  0  0  0  0  0  0  0  0
  149.6276  142.0675  157.5093 H   0  0  0  0  0  0  0  0  0  0  0  0
  149.4585  140.3332  157.6242 H   0  0  0  0  0  0  0  0  0  0  0  0
  152.0858  141.8927  157.5365 H   0  0  0  0  0  0  0  0  0  0  0  0
  151.4281  141.0592  158.9221 H   0  0  0  0  0  0  0  0  0  0  0  0
  153.2212  139.7251  157.8022 H   0  0  0  0  0  0  0  0  0  0  0  0
  151.6981  138.8733  157.8084 H   0  0  0  0  0  0  0  0  0  0  0  0
  152.8362  140.4788  155.4806 H   0  0  0  0  0  0  0  0  0  0  0  0
  152.5249  137.4563  155.7587 H   0  0  0  0  0  0  0  0  0  0  0  0
  154.0377  138.3555  155.7836 H   0  0  0  0  0  0  0  0  0  0  0  0
  153.0717  138.3042  154.3139 H   0  0  0  0  0  0  0  0  0  0  0  0
  144.7305  135.2896  150.8170 H   0  0  0  0  0  0  0  0  0  0  0  0
  144.7767  135.6194  152.5550 H   0  0  0  0  0  0  0  0  0  0  0  0
  143.8656  134.2315  151.9429 H   0  0  0  0  0  0  0  0  0  0  0  0
  1 22  1  0  0  0  0
  1 23  1  0  0  0  0
  1 24  1  0  0  0  0
  1  2  1  0  0  0  0
  2  3  1  0  0  0  0
  2 20  2  0  0  0  0
  3 25  1  0  0  0  0
  3  4  1  0  0  0  0
  4 19  1  0  0  0  0
  4  5  2  0  0  0  0
  5  6  1  0  0  0  0
  6  8  1  0  0  0  0
  6  7  2  0  0  0  0
  8  9  1  0  0  0  0
  8 26  1  0  0  0  0
  9 10  1  0  0  0  0
  9 27  1  0  0  0  0
  9 28  1  0  0  0  0
 10 11  1  0  0  0  0
 10 29  1  0  0  0  0
 10 30  1  0  0  0  0
 11 12  1  0  0  0  0
 12 17  1  0  0  0  0
 12 13  1  0  0  0  0
 12 31  1  0  0  0  0
 13 14  1  0  0  0  0
 13 32  1  0  0  0  0
 13 33  1  0  0  0  0
 14 15  1  0  0  0  0
 14 34  1  0  0  0  0
 14 35  1  0  0  0  0
 15 16  1  0  0  0  0
 15 36  1  0  0  0  0
 15 37  1  0  0  0  0
 16 17  1  0  0  0  0
 16 38  1  0  0  0  0
 16 39  1  0  0  0  0
 17 18  1  0  0  0  0
 17 40  1  0  0  0  0
 18 41  1  0  0  0  0
 18 42  1  0  0  0  0
 18 43  1  0  0  0  0
 19 20  1  0  0  0  0
 20 21  1  0  0  0  0
 21 44  1  0  0  0  0
 21 45  1  0  0  0  0
 21 46  1  0  0  0  0
M  END
> <s_m_source_file>
AV-unprocessed.smi

> <i_m_source_file_index>
910

> <i_lp_mmshare_version>
43012

> <i_f3d_flags>
0

> <s_epik_input>
W0NIM11jMW5jKG9jMVtDSDNdKVtOSF1DKD1PKVtOSF1bQ0gyXVtDSDJdT1tDQEBIXTJbQ0gyXVtDSDJdW0NIMl1bQ0gyXVtDQEhdMltDSDNd

> <s_epik_cmdline>
J2VwaWtfcHl0aG9uJywgJy1waCcsICc3LjAnLCAnLXRuJywgJzgnLCAnLW1hJywgJzIwMCcsICctbWV0YWxfYmluZGluZycsICctaW1hZScsICc8aW5maWxlLm1hZT4nLCAnLW9tYWUnLCAnPG91dGZpbGUubWFlPic=

> <r_lp_tautomer_probability>
0.107061

> <r_epik_Ionization_Penalty>
0.727192

> <r_epik_Ionization_Penalty_Charging>
0.726719

> <r_epik_Ionization_Penalty_Neutral>
0.000473387

> <r_epik_State_Penalty>
2.53712

> <r_epik_Charging_Adjusted_Penalty>
3.26383

> <i_epik_Tot_Q>
0

> <i_epik_Tot_abs_Q>
0

> <r_epik_Metal_State_Penalty>
3.71015

> <b_epik_Metal_Only>
0

> <s_lp_Force_Field>
OPLS_2005

> <r_lp_Energy>
28.3743

> <b_lp_Chiralities_Consistent>
1

> <s_lp_Variant>
AV-unprocessed.smi:910-6

> <Gold.Version>
5.8.1

> <Gold.Id.Protein>
6NUR|6NUR_protein|mol2

> <Gold.PLP.Fitness>
38.9296

> <Gold.PLP.PLP>
-35.4878

> <Gold.PLP.part.hbond>
-2.0000

> <Gold.PLP.part.metal>
0.0000

> <Gold.PLP.part.buried>
-3.8189

> <Gold.PLP.part.nonpolar>
-30.5628

> <Gold.PLP.part.repulsive>
0.3700

> <Gold.PLP.ligand.clash>
0.0000

> <Gold.PLP.ligand.torsion>
1.2836

> <Gold.PLP.Chemscore.Hbond>
1.9920

> <Gold.PLP.Chemscore.CHOScore>
0.0000

> <Gold.PLP.Chemscore.Metal>
0.0000

> <Gold.Chemscore.Hbonds>
donor molecule, donor type, donor heavy atom, donor atom, acceptor molecule, acceptor atom, score
      L1  H     3    25       P1 10747  1.00
      L1  H     8    26       P1  7948  0.76

> <Gold.PLP.Chemscore.Internal.Correction>
0.0330

> <Gold.Rescore>
     Score         DG    S(hbond)    S(metal)    S(lipo)     H(rot)  DE(clash)    DE(int)     intcor
     14.37     -15.83       1.63        0.00      78.10       1.66       0.03       1.42       ----

> <Gold.Chemscore.Fitness>
14.3696

> <Gold.Chemscore.DG>
-15.8269

> <Gold.Chemscore.ZeroCoef>
-5.4800

> <Gold.Chemscore.Hbond>
1.6324

> <Gold.Chemscore.Metal>
0.0000

> <Gold.Chemscore.Lipo>
78.1047

> <Gold.Chemscore.Internal_Hbond>
0.0000

> <Gold.Chemscore.DEClash>
0.0331

> <Gold.Chemscore.DEInternal>
1.4242

> <Gold.Chemscore.Rot>
1.6576

> <Gold.Chemscore.Internal.Correction>
   9.000000E+99

> <Gold.Chemscore.Hbonds>
donor molecule, donor type, donor heavy atom, donor atom, acceptor molecule, acceptor atom, score
      L1  H     3    25       P1 10747  0.98
      L1  H     8    26       P1  7948  0.11

> <Gold.Chemscore.Hbond.Weighted>
-5.4522

> <Gold.Chemscore.Metal.Weighted>
-0.0000

> <Gold.Chemscore.Lipo.Weighted>
-9.1383

> <Gold.Chemscore.Internal_Hbond.Weighted>
0.0000

> <Gold.Chemscore.DEClash.Weighted>
0.0331

> <Gold.Chemscore.DEInternal.Weighted>
1.4242

> <Gold.Chemscore.Rot.Weighted>
4.2436

> <Gold.Chemscore.Internal.Correction.Weighted>
   9.000000E+99

> <Gold.Protein.RotatedTorsions>
[ 6907 6896 6895 6894 ] final  168.56 input  -60.11 | X-H torsion
[ 7974 7965 7964 7962 ] final   69.37 input  175.53 | X-H torsion
[ 8008 7997 7996 7995 ] final  -75.54 input   59.86 | X-H torsion
[ 10167 10162 10161 10158 ] final  109.09 input  -65.29 | X-H torsion
[ 10718 10713 10712 10709 ] final  148.14 input   66.30 | X-H torsion
[ 10763 10752 10751 10750 ] final  153.87 input  -60.55 | X-H torsion
[ 11005 11000 10999 10996 ] final   94.02 input  -57.11 | X-H torsion

> <Gold.Protein.ActiveResidues>
 VAL166  LYS551  ARG553  GLY616  TRP617  ASP618  TYR619  PRO620  LYS621  CYS622 
 ASP623  PHE694  ASN695  SER759  ASP760  ASP761  ALA762  ILE779  LEU786  VAL792 
 PHE793  MET794  SER795  GLU796  ALA797  LYS798  CYS799  TRP800  GLU811  SER814 

> <Gold.Protein.RotatedAtoms>
  151.8457  133.3431  159.3657 H   0  0  0  0  0  0  0  0  0  0  0  0  # atno 6907 bound_to 6896
  150.7221  134.5348  159.5727 H   0  0  0  0  0  0  0  0  0  0  0  0  # atno 6908 bound_to 6896
  152.2831  134.7807  160.0444 H   0  0  0  0  0  0  0  0  0  0  0  0  # atno 6909 bound_to 6896
  145.7913  139.2935  143.1209 H   0  0  0  0  0  0  0  0  0  0  0  0  # atno 7974 bound_to 7965
  154.5426  140.0742  156.8535 H   0  0  0  0  0  0  0  0  0  0  0  0  # atno 8008 bound_to 7997
  155.3151  140.3392  155.4224 H   0  0  0  0  0  0  0  0  0  0  0  0  # atno 8009 bound_to 7997
  156.1888  140.1678  156.8119 H   0  0  0  0  0  0  0  0  0  0  0  0  # atno 8010 bound_to 7997
  139.6794  144.7119  151.1542 H   0  0  0  0  0  0  0  0  0  0  0  0  # atno 10167 bound_to 10162
  157.3123  131.0890  151.1307 H   0  0  0  0  0  0  0  0  0  0  0  0  # atno 10718 bound_to 10713
  154.1431  135.2819  155.3155 H   0  0  0  0  0  0  0  0  0  0  0  0  # atno 10763 bound_to 10752
  154.6272  135.5447  153.7643 H   0  0  0  0  0  0  0  0  0  0  0  0  # atno 10764 bound_to 10752
  153.0244  135.6453  154.1578 H   0  0  0  0  0  0  0  0  0  0  0  0  # atno 10765 bound_to 10752
  139.8803  134.8822  156.3803 H   0  0  0  0  0  0  0  0  0  0  0  0  # atno 11005 bound_to 11000
  145.9974  140.8550  143.0036 LP  0  0  0  0  0  0  0  0  0  0  0  0  # atno 17320 bound_to 7965
  144.6781  140.2302  143.7356 LP  0  0  0  0  0  0  0  0  0  0  0  0  # atno 17321 bound_to 7965
  140.7647  143.5722  150.8984 LP  0  0  0  0  0  0  0  0  0  0  0  0  # atno 17342 bound_to 10162
  139.9393  143.6401  152.3058 LP  0  0  0  0  0  0  0  0  0  0  0  0  # atno 17343 bound_to 10162
  157.2624  130.6665  149.5981 LP  0  0  0  0  0  0  0  0  0  0  0  0  # atno 17370 bound_to 10713
  155.9679  130.4504  150.5697 LP  0  0  0  0  0  0  0  0  0  0  0  0  # atno 17371 bound_to 10713
  140.9403  133.7519  156.0138 LP  0  0  0  0  0  0  0  0  0  0  0  0  # atno 17394 bound_to 11000
  140.8227  134.3271  157.5376 LP  0  0  0  0  0  0  0  0  0  0  0  0  # atno 17395 bound_to 11000

$$$$
