AV-unprocessed.smi:1965|AV-procd|sdf|7936|dock3
  -GOLD-   2272010103D 1   1.00000     0.00000
 Structure written by MMmdl.
 37 39  0  0  0  0  0  0  0  0  2 V2000
  144.7671  136.8132  152.8033 O   0  0  0  0  0  0  0  0  0  0  0  0
  145.9353  136.6685  152.4484 C   0  0  0  0  0  0  0  0  0  0  0  0
  146.3291  135.5685  151.7727 N   0  0  0  0  0  0  0  0  0  0  0  0
  145.6004  134.4233  151.3390 C   0  0  0  0  0  0  0  0  0  0  0  0
  144.2647  134.3231  151.3181 N   0  0  0  0  0  0  0  0  0  0  0  0
  143.8359  133.0907  150.8182 C   0  0  0  0  0  0  0  0  0  0  0  0
  144.8648  132.2600  150.4510 C   0  0  0  0  0  0  0  0  0  0  0  0
  146.4213  132.9978  150.7185 S   0  0  0  0  0  0  0  0  0  0  0  0
  146.8907  137.5780  152.7037 N   0  0  0  0  0  0  0  0  0  0  0  0
  146.7137  138.8146  153.4614 C   0  0  2  0  0  0  0  0  0  0  0  0
  146.5577  140.0531  152.5574 C   0  0  0  0  0  0  0  0  0  0  0  0
  147.4038  141.1372  153.2329 C   0  0  0  0  0  0  0  0  0  0  0  0
  148.4994  140.3701  153.8361 N   0  3  1  0  0  0  0  0  0  0  0  0
  149.3977  141.0520  154.7896 C   0  0  0  0  0  0  0  0  0  0  0  0
  150.5598  140.0959  155.1349 C   0  0  0  0  0  0  0  0  0  0  0  0
  150.0592  138.7119  155.6071 C   0  0  0  0  0  0  0  0  0  0  0  0
  149.0254  138.1120  154.6298 C   0  0  0  0  0  0  0  0  0  0  0  0
  147.9060  139.1414  154.3907 C   0  0  2  0  0  0  0  0  0  0  0  0
  147.2887  135.5917  151.4589 H   0  0  0  0  0  0  0  0  0  0  0  0
  142.7767  132.8882  150.7566 H   0  0  0  0  0  0  0  0  0  0  0  0
  144.8013  131.2640  150.0382 H   0  0  0  0  0  0  0  0  0  0  0  0
  147.8228  137.3778  152.3691 H   0  0  0  0  0  0  0  0  0  0  0  0
  145.8140  138.7334  154.0745 H   0  0  0  0  0  0  0  0  0  0  0  0
  146.9605  139.8510  151.5636 H   0  0  0  0  0  0  0  0  0  0  0  0
  145.5172  140.3548  152.4339 H   0  0  0  0  0  0  0  0  0  0  0  0
  147.7683  141.8874  152.5305 H   0  0  0  0  0  0  0  0  0  0  0  0
  146.8316  141.6403  154.0138 H   0  0  0  0  0  0  0  0  0  0  0  0
  149.7846  141.9676  154.3410 H   0  0  0  0  0  0  0  0  0  0  0  0
  148.8473  141.3371  155.6874 H   0  0  0  0  0  0  0  0  0  0  0  0
  151.1857  139.9628  154.2513 H   0  0  0  0  0  0  0  0  0  0  0  0
  151.1986  140.5431  155.8972 H   0  0  0  0  0  0  0  0  0  0  0  0
  150.9016  138.0300  155.7264 H   0  0  0  0  0  0  0  0  0  0  0  0
  149.6044  138.8131  156.5932 H   0  0  0  0  0  0  0  0  0  0  0  0
  149.5098  137.8501  153.6879 H   0  0  0  0  0  0  0  0  0  0  0  0
  148.6166  137.1903  155.0447 H   0  0  0  0  0  0  0  0  0  0  0  0
  147.4745  139.3963  155.3614 H   0  0  0  0  0  0  0  0  0  0  0  0
  149.0762  140.0745  153.0615 H   0  0  0  0  0  0  0  0  0  0  0  0
  1  2  2  0  0  0  0
  2  3  1  0  0  0  0
  2  9  1  0  0  0  0
  3  4  1  0  0  0  0
  3 19  1  0  0  0  0
  4  8  1  0  0  0  0
  4  5  2  0  0  0  0
  5  6  1  0  0  0  0
  6  7  2  0  0  0  0
  6 20  1  0  0  0  0
  7  8  1  0  0  0  0
  7 21  1  0  0  0  0
  9 10  1  0  0  0  0
  9 22  1  0  0  0  0
 10 18  1  0  0  0  0
 10 11  1  0  0  0  0
 10 23  1  0  0  0  0
 11 12  1  0  0  0  0
 11 24  1  0  0  0  0
 11 25  1  0  0  0  0
 12 13  1  0  0  0  0
 12 26  1  0  0  0  0
 12 27  1  0  0  0  0
 13 18  1  0  0  0  0
 13 14  1  0  0  0  0
 13 37  1  0  0  0  0
 14 15  1  0  0  0  0
 14 28  1  0  0  0  0
 14 29  1  0  0  0  0
 15 16  1  0  0  0  0
 15 30  1  0  0  0  0
 15 31  1  0  0  0  0
 16 17  1  0  0  0  0
 16 32  1  0  0  0  0
 16 33  1  0  0  0  0
 17 18  1  0  0  0  0
 17 34  1  0  0  0  0
 17 35  1  0  0  0  0
 18 36  1  0  0  0  0
M  CHG  1  13   1
M  END
> <s_m_source_file>
AV-unprocessed.smi

> <i_m_source_file_index>
1965

> <i_lp_mmshare_version>
43012

> <i_f3d_flags>
0

> <s_epik_input>
czFbY0hdW2NIXW5jMVtOSF1DKD1PKVtOSF1bQ0BIXShbQ0gyXVtDSDJdMilbQ0BASF0oTjIzKVtDSDJdW0NIMl1bQ0gyXVtDSDJdMw==

> <s_epik_cmdline>
J2VwaWtfcHl0aG9uJywgJy1waCcsICc3LjAnLCAnLXRuJywgJzgnLCAnLW1hJywgJzIwMCcsICctbWV0YWxfYmluZGluZycsICctaW1hZScsICc8aW5maWxlLm1hZT4nLCAnLW9tYWUnLCAnPG91dGZpbGUubWFlPic=

> <r_lp_tautomer_probability>
1

> <r_epik_Ionization_Penalty>
0.00125962

> <r_epik_Ionization_Penalty_Charging>
0.00107044

> <r_epik_Ionization_Penalty_Neutral>
0.000189176

> <r_epik_State_Penalty>
-0

> <r_epik_Charging_Adjusted_Penalty>
0.00107044

> <i_epik_Tot_Q>
1

> <i_epik_Tot_abs_Q>
1

> <r_epik_Metal_State_Penalty>
0.0179285

> <b_epik_Metal_Only>
0

> <s_lp_Force_Field>
OPLS_2005

> <r_lp_Energy>
42.3256

> <b_lp_Chiralities_Consistent>
1

> <s_lp_Variant>
AV-unprocessed.smi:1965-5

> <Gold.Version>
5.8.1

> <Gold.Id.Protein>
6NUR|6NUR_protein|mol2

> <Gold.PLP.Fitness>
38.3963

> <Gold.PLP.PLP>
-27.2877

> <Gold.PLP.part.hbond>
-3.0000

> <Gold.PLP.part.metal>
0.0000

> <Gold.PLP.part.buried>
-1.0297

> <Gold.PLP.part.nonpolar>
-24.3328

> <Gold.PLP.part.repulsive>
0.5801

> <Gold.PLP.ligand.clash>
0.0000

> <Gold.PLP.ligand.torsion>
0.3141

> <Gold.PLP.Chemscore.Hbond>
2.9280

> <Gold.PLP.Chemscore.CHOScore>
0.9839

> <Gold.PLP.Chemscore.Metal>
0.0000

> <Gold.Chemscore.Hbonds>
donor molecule, donor type, donor heavy atom, donor atom, acceptor molecule, acceptor atom, score
      L1  H     3    19       P1  7948  0.91
      L1  H     9    22       P1  7948  0.99
      L1  H    13    37       P1  7957  1.00
      L1  C     6    20       P1 10186  0.69

> <Gold.PLP.Chemscore.Internal.Correction>
0.0013

> <Gold.Rescore>
     Score         DG    S(hbond)    S(metal)    S(lipo)     H(rot)  DE(clash)    DE(int)     intcor
     18.92     -20.85       2.80        0.00      73.43       1.00       1.28       0.65       ----

> <Gold.Chemscore.Fitness>
18.9219

> <Gold.Chemscore.DG>
-20.8523

> <Gold.Chemscore.ZeroCoef>
-5.4800

> <Gold.Chemscore.Hbond>
2.7968

> <Gold.Chemscore.Metal>
0.0000

> <Gold.Chemscore.Lipo>
73.4258

> <Gold.Chemscore.Internal_Hbond>
0.0000

> <Gold.Chemscore.DEClash>
1.2820

> <Gold.Chemscore.DEInternal>
0.6484

> <Gold.Chemscore.Rot>
1.0000

> <Gold.Chemscore.Internal.Correction>
   9.000000E+99

> <Gold.Chemscore.Hbonds>
donor molecule, donor type, donor heavy atom, donor atom, acceptor molecule, acceptor atom, score
      L1  H     3    19       P1  7948  0.88
      L1  H     9    22       P1  7948  0.93
      L1  H    13    37       P1  7957  0.95

> <Gold.Chemscore.Hbond.Weighted>
-9.3415

> <Gold.Chemscore.Metal.Weighted>
-0.0000

> <Gold.Chemscore.Lipo.Weighted>
-8.5908

> <Gold.Chemscore.Internal_Hbond.Weighted>
0.0000

> <Gold.Chemscore.DEClash.Weighted>
1.2820

> <Gold.Chemscore.DEInternal.Weighted>
0.6484

> <Gold.Chemscore.Rot.Weighted>
2.5600

> <Gold.Chemscore.Internal.Correction.Weighted>
   9.000000E+99

> <Gold.Protein.RotatedTorsions>
[ 6907 6896 6895 6894 ] final   90.96 input  -60.11 | X-H torsion
[ 7974 7965 7964 7962 ] final  150.04 input  175.53 | X-H torsion
[ 8008 7997 7996 7995 ] final   34.15 input   59.86 | X-H torsion
[ 10167 10162 10161 10158 ] final  144.60 input  -65.29 | X-H torsion
[ 10718 10713 10712 10709 ] final  121.05 input   66.30 | X-H torsion
[ 10763 10752 10751 10750 ] final -168.78 input  -60.55 | X-H torsion
[ 11005 11000 10999 10996 ] final   97.30 input  -57.11 | X-H torsion

> <Gold.Protein.ActiveResidues>
 VAL166  LYS551  ARG553  GLY616  TRP617  ASP618  TYR619  PRO620  LYS621  CYS622 
 ASP623  PHE694  ASN695  SER759  ASP760  ASP761  ALA762  ILE779  LEU786  VAL792 
 PHE793  MET794  SER795  GLU796  ALA797  LYS798  CYS799  TRP800  GLU811  SER814 

> <Gold.Protein.RotatedAtoms>
  152.5447  134.1731  159.8604 H   0  0  0  0  0  0  0  0  0  0  0  0  # atno 6907 bound_to 6896
  151.1739  133.4760  159.2601 H   0  0  0  0  0  0  0  0  0  0  0  0  # atno 6908 bound_to 6896
  151.1246  135.0109  159.8610 H   0  0  0  0  0  0  0  0  0  0  0  0  # atno 6909 bound_to 6896
  144.8393  139.6357  143.6023 H   0  0  0  0  0  0  0  0  0  0  0  0  # atno 7974 bound_to 7965
  155.1501  140.3274  155.4433 H   0  0  0  0  0  0  0  0  0  0  0  0  # atno 8008 bound_to 7997
  156.2577  140.1978  156.6563 H   0  0  0  0  0  0  0  0  0  0  0  0  # atno 8009 bound_to 7997
  154.6479  140.0562  156.9908 H   0  0  0  0  0  0  0  0  0  0  0  0  # atno 8010 bound_to 7997
  139.4943  144.5961  151.6581 H   0  0  0  0  0  0  0  0  0  0  0  0  # atno 10167 bound_to 10162
  157.5846  131.1071  150.8120 H   0  0  0  0  0  0  0  0  0  0  0  0  # atno 10718 bound_to 10713
  154.6592  135.2922  154.9888 H   0  0  0  0  0  0  0  0  0  0  0  0  # atno 10763 bound_to 10752
  154.0953  135.6584  153.4863 H   0  0  0  0  0  0  0  0  0  0  0  0  # atno 10764 bound_to 10752
  153.0420  135.5230  154.7536 H   0  0  0  0  0  0  0  0  0  0  0  0  # atno 10765 bound_to 10752
  139.8776  134.8994  156.4287 H   0  0  0  0  0  0  0  0  0  0  0  0  # atno 11005 bound_to 11000
  146.2688  139.6585  142.9310 LP  0  0  0  0  0  0  0  0  0  0  0  0  # atno 17320 bound_to 7965
  145.4727  141.0436  143.2690 LP  0  0  0  0  0  0  0  0  0  0  0  0  # atno 17321 bound_to 7965
  140.5599  144.0286  150.6165 LP  0  0  0  0  0  0  0  0  0  0  0  0  # atno 17342 bound_to 10162
  140.3369  143.3043  152.0629 LP  0  0  0  0  0  0  0  0  0  0  0  0  # atno 17343 bound_to 10162
  156.8557  130.5096  149.5308 LP  0  0  0  0  0  0  0  0  0  0  0  0  # atno 17370 bound_to 10713
  156.0894  130.5884  150.9706 LP  0  0  0  0  0  0  0  0  0  0  0  0  # atno 17371 bound_to 10713
  140.9082  133.7730  155.9760 LP  0  0  0  0  0  0  0  0  0  0  0  0  # atno 17394 bound_to 11000
  140.8576  134.2880  157.5249 LP  0  0  0  0  0  0  0  0  0  0  0  0  # atno 17395 bound_to 11000

$$$$
