AV-unprocessed.smi:2562|AV-procd|sdf|10044|dock10
  -GOLD-   2272014 93D 1   1.00000     0.00000
 Structure written by MMmdl.
 31 32  0  0  0  0  0  0  0  0  2 V2000
  143.9756  133.6454  157.6501 C   0  0  0  0  0  0  0  0  0  0  0  0
  144.4577  134.1942  156.3028 C   0  0  0  0  0  0  0  0  0  0  0  0
  145.8631  133.6988  155.9318 C   0  0  0  0  0  0  0  0  0  0  0  0
  146.1885  133.9536  154.4970 C   0  0  0  0  0  0  0  0  0  0  0  0
  147.2092  134.7355  154.1483 N   0  0  0  0  0  0  0  0  0  0  0  0
  147.1167  134.7343  152.8021 N   0  0  0  0  0  0  0  0  0  0  0  0
  146.0738  133.9881  152.4308 C   0  0  0  0  0  0  0  0  0  0  0  0
  145.6878  133.8145  150.9960 C   0  0  2  0  0  0  0  0  0  0  0  0
  144.3001  134.4093  150.6868 C   0  0  0  0  0  0  0  0  0  0  0  0
  143.9263  134.1197  149.2888 N   0  3  0  0  0  0  0  0  0  0  0  0
  143.9923  132.6732  149.0014 C   0  0  0  0  0  0  0  0  0  0  0  0
  145.3829  132.1241  149.3659 C   0  0  0  0  0  0  0  0  0  0  0  0
  145.6723  132.4138  150.7296 O   0  0  0  0  0  0  0  0  0  0  0  0
  145.4295  133.4656  153.4701 N   0  0  0  0  0  0  0  0  0  0  0  0
  147.7556  135.2415  152.2064 H   0  0  0  0  0  0  0  0  0  0  0  0
  142.9695  133.9996  157.8754 H   0  0  0  0  0  0  0  0  0  0  0  0
  144.6303  133.9642  158.4619 H   0  0  0  0  0  0  0  0  0  0  0  0
  143.9511  132.5554  157.6462 H   0  0  0  0  0  0  0  0  0  0  0  0
  143.7514  133.9042  155.5240 H   0  0  0  0  0  0  0  0  0  0  0  0
  144.4500  135.2843  156.3364 H   0  0  0  0  0  0  0  0  0  0  0  0
  146.6097  134.1865  156.5600 H   0  0  0  0  0  0  0  0  0  0  0  0
  145.9458  132.6290  156.1279 H   0  0  0  0  0  0  0  0  0  0  0  0
  146.4480  134.2900  150.3730 H   0  0  0  0  0  0  0  0  0  0  0  0
  143.5458  133.9841  151.3509 H   0  0  0  0  0  0  0  0  0  0  0  0
  144.2979  135.4879  150.8462 H   0  0  0  0  0  0  0  0  0  0  0  0
  142.9892  134.4548  149.1149 H   0  0  0  0  0  0  0  0  0  0  0  0
  143.2213  132.1579  149.5760 H   0  0  0  0  0  0  0  0  0  0  0  0
  143.7760  132.5032  147.9466 H   0  0  0  0  0  0  0  0  0  0  0  0
  145.4113  131.0443  149.2199 H   0  0  0  0  0  0  0  0  0  0  0  0
  146.1517  132.5533  148.7213 H   0  0  0  0  0  0  0  0  0  0  0  0
  144.5673  134.6013  148.6744 H   0  0  0  0  0  0  0  0  0  0  0  0
  1  2  1  0  0  0  0
  1 16  1  0  0  0  0
  1 17  1  0  0  0  0
  1 18  1  0  0  0  0
  2  3  1  0  0  0  0
  2 19  1  0  0  0  0
  2 20  1  0  0  0  0
  3  4  1  0  0  0  0
  3 21  1  0  0  0  0
  3 22  1  0  0  0  0
  4 14  1  0  0  0  0
  4  5  2  0  0  0  0
  5  6  1  0  0  0  0
  6 15  1  0  0  0  0
  6  7  1  0  0  0  0
  7  8  1  0  0  0  0
  7 14  2  0  0  0  0
  8 13  1  0  0  0  0
  8  9  1  0  0  0  0
  8 23  1  0  0  0  0
  9 10  1  0  0  0  0
  9 24  1  0  0  0  0
  9 25  1  0  0  0  0
 10 11  1  0  0  0  0
 10 26  1  0  0  0  0
 10 31  1  0  0  0  0
 11 12  1  0  0  0  0
 11 27  1  0  0  0  0
 11 28  1  0  0  0  0
 12 13  1  0  0  0  0
 12 29  1  0  0  0  0
 12 30  1  0  0  0  0
M  CHG  1  10   1
M  END
> <s_m_source_file>
AV-unprocessed.smi

> <i_m_source_file_index>
2562

> <i_lp_mmshare_version>
43012

> <i_f3d_flags>
0

> <s_epik_input>
W0NIM11bQ0gyXVtDSDJdYzFuW25IXWMobjEpW0NAQEhdMltDSDJdW05IXVtDSDJdW0NIMl1PMg==

> <s_epik_cmdline>
J2VwaWtfcHl0aG9uJywgJy1waCcsICc3LjAnLCAnLXRuJywgJzgnLCAnLW1hJywgJzIwMCcsICctbWV0YWxfYmluZGluZycsICctaW1hZScsICc8aW5maWxlLm1hZT4nLCAnLW9tYWUnLCAnPG91dGZpbGUubWFlPic=

> <r_epik_Ionization_Penalty>
0.162344

> <r_epik_Ionization_Penalty_Charging>
0.125708

> <r_epik_Ionization_Penalty_Neutral>
0.0366364

> <r_epik_State_Penalty>
0.771409

> <r_epik_Charging_Adjusted_Penalty>
0.897117

> <i_epik_Tot_Q>
1

> <i_epik_Tot_abs_Q>
1

> <r_epik_Metal_State_Penalty>
0.893868

> <b_epik_Metal_Only>
0

> <s_lp_Force_Field>
OPLS_2005

> <r_lp_Energy>
9.76643

> <b_lp_Chiralities_Consistent>
1

> <s_lp_Variant>
AV-unprocessed.smi:2562-3

> <Gold.Version>
5.8.1

> <Gold.Id.Protein>
6NUR|6NUR_protein|mol2

> <Gold.PLP.Fitness>
31.9827

> <Gold.PLP.PLP>
-20.1209

> <Gold.PLP.part.hbond>
-2.9651

> <Gold.PLP.part.metal>
0.0000

> <Gold.PLP.part.buried>
-4.6544

> <Gold.PLP.part.nonpolar>
-13.6316

> <Gold.PLP.part.repulsive>
0.4358

> <Gold.PLP.ligand.clash>
0.0000

> <Gold.PLP.ligand.torsion>
0.0736

> <Gold.PLP.Chemscore.Hbond>
4.0000

> <Gold.PLP.Chemscore.CHOScore>
0.0000

> <Gold.PLP.Chemscore.Metal>
0.0000

> <Gold.Chemscore.Hbonds>
donor molecule, donor type, donor heavy atom, donor atom, acceptor molecule, acceptor atom, score
      L1  H     6    15       P1  7948  1.00
      L1  H    10    26       P1 10186  2.00
      L1  H    10    31       P1  7921  1.00

> <Gold.PLP.Chemscore.Internal.Correction>
0.0090

> <Gold.Rescore>
     Score         DG    S(hbond)    S(metal)    S(lipo)     H(rot)  DE(clash)    DE(int)     intcor
     16.24     -16.26       2.92        0.00      41.90       1.51       0.00       0.02       ----

> <Gold.Chemscore.Fitness>
16.2361

> <Gold.Chemscore.DG>
-16.2642

> <Gold.Chemscore.ZeroCoef>
-5.4800

> <Gold.Chemscore.Hbond>
2.9197

> <Gold.Chemscore.Metal>
0.0000

> <Gold.Chemscore.Lipo>
41.8974

> <Gold.Chemscore.Internal_Hbond>
0.0000

> <Gold.Chemscore.DEClash>
0.0048

> <Gold.Chemscore.DEInternal>
0.0233

> <Gold.Chemscore.Rot>
1.5115

> <Gold.Chemscore.Internal.Correction>
   9.000000E+99

> <Gold.Chemscore.Hbonds>
donor molecule, donor type, donor heavy atom, donor atom, acceptor molecule, acceptor atom, score
      L1  H     6    15       P1  7948  0.93
      L1  H    10    26       P1 10186  0.90
      L1  H    10    31       P1  7921  0.98

> <Gold.Chemscore.Hbond.Weighted>
-9.7517

> <Gold.Chemscore.Metal.Weighted>
-0.0000

> <Gold.Chemscore.Lipo.Weighted>
-4.9020

> <Gold.Chemscore.Internal_Hbond.Weighted>
0.0000

> <Gold.Chemscore.DEClash.Weighted>
0.0048

> <Gold.Chemscore.DEInternal.Weighted>
0.0233

> <Gold.Chemscore.Rot.Weighted>
3.8695

> <Gold.Chemscore.Internal.Correction.Weighted>
   9.000000E+99

> <Gold.Protein.RotatedTorsions>
[ 6907 6896 6895 6894 ] final  -85.66 input  -60.11 | X-H torsion
[ 7974 7965 7964 7962 ] final  -62.12 input  175.53 | X-H torsion
[ 8008 7997 7996 7995 ] final -159.34 input   59.86 | X-H torsion
[ 10167 10162 10161 10158 ] final   57.40 input  -65.29 | X-H torsion
[ 10718 10713 10712 10709 ] final   -4.43 input   66.30 | X-H torsion
[ 10763 10752 10751 10750 ] final  -38.58 input  -60.55 | X-H torsion
[ 11005 11000 10999 10996 ] final   20.70 input  -57.11 | X-H torsion

> <Gold.Protein.ActiveResidues>
 VAL166  LYS551  ARG553  GLY616  TRP617  ASP618  TYR619  PRO620  LYS621  CYS622 
 ASP623  PHE694  ASN695  SER759  ASP760  ASP761  ALA762  ILE779  LEU786  VAL792 
 PHE793  MET794  SER795  GLU796  ALA797  LYS798  CYS799  TRP800  GLU811  SER814 

> <Gold.Protein.RotatedAtoms>
  150.6869  134.3170  159.4770 H   0  0  0  0  0  0  0  0  0  0  0  0  # atno 6907 bound_to 6896
  152.1050  134.9312  160.0577 H   0  0  0  0  0  0  0  0  0  0  0  0  # atno 6908 bound_to 6896
  152.0577  133.4013  159.4441 H   0  0  0  0  0  0  0  0  0  0  0  0  # atno 6909 bound_to 6896
  145.7952  140.8687  143.0260 H   0  0  0  0  0  0  0  0  0  0  0  0  # atno 7974 bound_to 7965
  155.7612  140.0839  157.2154 H   0  0  0  0  0  0  0  0  0  0  0  0  # atno 8008 bound_to 7997
  154.4003  140.1542  156.2891 H   0  0  0  0  0  0  0  0  0  0  0  0  # atno 8009 bound_to 7997
  155.8838  140.3419  155.5909 H   0  0  0  0  0  0  0  0  0  0  0  0  # atno 8010 bound_to 7997
  140.1984  144.4013  150.6540 H   0  0  0  0  0  0  0  0  0  0  0  0  # atno 10167 bound_to 10162
  156.7614  130.5271  149.5784 H   0  0  0  0  0  0  0  0  0  0  0  0  # atno 10718 bound_to 10713
  153.9151  135.6788  153.4749 H   0  0  0  0  0  0  0  0  0  0  0  0  # atno 10763 bound_to 10752
  153.1058  135.4806  154.8945 H   0  0  0  0  0  0  0  0  0  0  0  0  # atno 10764 bound_to 10752
  154.7507  135.3184  154.8519 H   0  0  0  0  0  0  0  0  0  0  0  0  # atno 10765 bound_to 10752
  140.3997  134.1731  155.7663 H   0  0  0  0  0  0  0  0  0  0  0  0  # atno 11005 bound_to 11000
  144.6776  140.0180  143.7484 LP  0  0  0  0  0  0  0  0  0  0  0  0  # atno 17320 bound_to 7965
  145.9935  139.3034  143.0970 LP  0  0  0  0  0  0  0  0  0  0  0  0  # atno 17321 bound_to 7965
  140.6407  143.2203  151.6296 LP  0  0  0  0  0  0  0  0  0  0  0  0  # atno 17342 bound_to 10162
  139.5227  144.3155  152.0956 LP  0  0  0  0  0  0  0  0  0  0  0  0  # atno 17343 bound_to 10162
  156.1336  130.6195  151.0369 LP  0  0  0  0  0  0  0  0  0  0  0  0  # atno 17370 bound_to 10713
  157.6733  131.0856  150.7559 LP  0  0  0  0  0  0  0  0  0  0  0  0  # atno 17371 bound_to 10713
  141.1861  133.8309  157.1080 LP  0  0  0  0  0  0  0  0  0  0  0  0  # atno 17394 bound_to 11000
  140.0345  134.9885  157.0845 LP  0  0  0  0  0  0  0  0  0  0  0  0  # atno 17395 bound_to 11000

$$$$
