#       Name:                AV-unprocessed.smi:1655
#       Creating user name   scv26
#       Creation time:       Fri Mar 27 07:34:47 2020


#       File generated by GOLD software.
#

@<TRIPOS>MOLECULE
AV-unprocessed.smi:1655
    41    42     1
SMALL
NO_CHARGES


@<TRIPOS>ATOM
      1 ****        -6.7833   2.3708  -0.8420 C.3            1 S1                 0.0000
      2 ****        -5.3346   2.0236  -0.8000 C.2            1 S1                 0.0000
      3 ****        -4.6306   0.9192  -1.1904 C.2            1 S1                 0.0000
      4 ****        -3.2920   1.2589  -0.8579 C.2            1 S1                 0.0000
      5 ****        -2.2280   0.3548  -1.1073 N.am           1 S1                 0.0000
      6 ****        -0.9235   0.5283  -0.8337 C.2            1 S1                 0.0000
      7 ****        -0.4352   1.5307  -0.3111 O.2            1 S1                 0.0000
      8 ****        -0.2026  -0.5407  -1.2021 N.am           1 S1                 0.0000
      9 ****         1.2409  -0.6749  -1.0410 C.3            1 S1                 0.0000
     10 ****         1.6147  -1.1028   0.3881 C.3            1 S1                 0.0000
     11 ****         3.1249  -1.3198   0.5645 C.3            1 S1                 0.0000
     12 ****         3.5286  -1.7749   1.9652 C.3            1 S1                 0.0000
     13 ****         4.9764  -1.3238   2.0801 C.3            1 S1                 0.0000
     14 ****         5.1459  -0.3130   0.9415 C.3            1 S1                 0.0000
     15 ****         3.8371  -0.1005   0.4302 O.3            1 S1                 0.0000
     16 ****        -3.1883   2.4628  -0.3158 N.2            1 S1                 0.0000
     17 ****        -4.4966   2.9591  -0.2765 O.3            1 S1                 0.0000
     18 ****        -7.3828   1.5084  -1.1341 H              1 S1                 0.0000
     19 ****        -6.9683   3.1701  -1.5596 H              1 S1                 0.0000
     20 ****        -7.1288   2.7067   0.1357 H              1 S1                 0.0000
     21 ****        -5.0152   0.0155  -1.6393 H              1 S1                 0.0000
     22 ****        -2.4888  -0.5208  -1.5357 H              1 S1                 0.0000
     23 ****        -0.6866  -1.3191  -1.6252 H              1 S1                 0.0000
     24 ****         1.5908  -1.4204  -1.7554 H              1 S1                 0.0000
     25 ****         1.7364   0.2616  -1.3034 H              1 S1                 0.0000
     26 ****         1.2678  -0.3550   1.1026 H              1 S1                 0.0000
     27 ****         1.0919  -2.0282   0.6328 H              1 S1                 0.0000
     28 ****         3.4953  -2.0317  -0.1757 H              1 S1                 0.0000
     29 ****         2.9276  -1.2603   2.7163 H              1 S1                 0.0000
     30 ****         3.4043  -2.8480   2.1122 H              1 S1                 0.0000
     31 ****         5.1693  -0.8735   3.0542 H              1 S1                 0.0000
     32 ****         5.6651  -2.1598   1.9542 H              1 S1                 0.0000
     33 ****         5.5923   0.6237   1.2756 H              1 S1                 0.0000
     34 ****         5.7757  -0.7275   0.1531 H              1 S1                 0.0000
     35 ****        -1.0232   2.2981  -0.0554 LP             1 S1                 0.0000
     36 ****         0.5494   1.5774  -0.1424 LP             1 S1                 0.0000
     37 ****         3.3802   0.6211   0.9503 LP             1 S1                 0.0000
     38 ****         3.8853   0.1626  -0.5334 LP             1 S1                 0.0000
     39 ****        -2.3553   2.9188  -0.0023 LP             1 S1                 0.0000
     40 ****        -4.7555   3.1505   0.6703 LP             1 S1                 0.0000
     41 ****        -4.5536   3.8003  -0.8142 LP             1 S1                 0.0000
@<TRIPOS>BOND
    1    1    2 1     
    2    1   18 1     
    3    1   19 1     
    4    1   20 1     
    5    2   17 1     
    6    2    3 2     
    7    3    4 1     
    8    3   21 1     
    9    4    5 1     
   10    4   16 2     
   11    5    6 am    
   12    5   22 1     
   13    6    7 2     
   14    6    8 am    
   15    8    9 1     
   16    8   23 1     
   17    9   10 1     
   18    9   24 1     
   19    9   25 1     
   20   10   11 1     
   21   10   26 1     
   22   10   27 1     
   23   11   15 1     
   24   11   12 1     
   25   11   28 1     
   26   12   13 1     
   27   12   29 1     
   28   12   30 1     
   29   13   14 1     
   30   13   31 1     
   31   13   32 1     
   32   14   15 1     
   33   14   33 1     
   34   14   34 1     
   35   16   17 1     
   36    7   35 1     
   37    7   36 1     
   38   15   37 1     
   39   15   38 1     
   40   16   39 1     
   41   17   40 1     
   42   17   41 1     
@<TRIPOS>SUBSTRUCTURE
      1 S1             1
@<TRIPOS>SET
LONE_PAIRS      STATIC     ATOMS    <user>   **** ""
7 35 36 37 38 39 40 41
DONOR_HYDROGENS      STATIC     ATOMS    <user>   **** ""
2 22 23
ATOM$BLUE        STATIC     ATOMS    COLORGROUP SYSTEM
7 35 36 37 38 39 40 41
ATOM$RED        STATIC     ATOMS    COLORGROUP SYSTEM
2 22 23
