AV-unprocessed.smi:2768|AV-procd|sdf|10648|dock2
  -GOLD-   2272015 93D 1   1.00000     0.00000
 Structure written by MMmdl.
 35 36  0  0  0  0  0  0  0  0  1 V2000
  152.4625  139.9527  155.2923 O   0  0  0  0  0  0  0  0  0  0  0  0
  151.3546  139.8228  155.8149 C   0  0  0  0  0  0  0  0  0  0  0  0
  150.9837  140.4910  156.9195 N   0  0  0  0  0  0  0  0  0  0  0  0
  151.8090  141.4494  157.6500 C   0  0  2  0  0  0  0  0  0  0  0  0
  152.0651  140.9072  159.0742 C   0  0  0  0  0  0  0  0  0  0  0  0
  152.7917  141.9268  159.9634 C   0  0  0  0  0  0  0  0  0  0  0  0
  152.0204  143.2515  160.0237 C   0  0  0  0  0  0  0  0  0  0  0  0
  151.8107  143.8203  158.6142 C   0  0  0  0  0  0  0  0  0  0  0  0
  151.0869  142.8167  157.6965 C   0  0  1  0  0  0  0  0  0  0  0  0
  151.0477  143.3784  156.3994 O   0  0  0  0  0  0  0  0  0  0  0  0
  150.3275  138.8504  155.2155 C   0  0  0  0  0  0  0  0  0  0  0  0
  150.9271  138.0757  154.3075 F   0  0  0  0  0  0  0  0  0  0  0  0
  149.8702  138.0584  156.1880 F   0  0  0  0  0  0  0  0  0  0  0  0
  149.1804  139.6241  154.5707 C   0  0  0  0  0  0  0  0  0  0  0  0
  148.1133  138.9502  153.9338 C   0  0  0  0  0  0  0  0  0  0  0  0
  147.0752  139.7132  153.3653 C   0  0  0  0  0  0  0  0  0  0  0  0
  147.1371  141.1166  153.4542 C   0  0  0  0  0  0  0  0  0  0  0  0
  148.2391  141.6972  154.1116 C   0  0  0  0  0  0  0  0  0  0  0  0
  149.2394  140.9749  154.6600 N   0  0  0  0  0  0  0  0  0  0  0  0
  152.7688  141.5762  157.1446 H   0  0  0  0  0  0  0  0  0  0  0  0
  150.0629  142.6844  158.0497 H   0  0  0  0  0  0  0  0  0  0  0  0
  150.0558  140.3230  157.2815 H   0  0  0  0  0  0  0  0  0  0  0  0
  151.1155  140.6426  159.5422 H   0  0  0  0  0  0  0  0  0  0  0  0
  152.6480  139.9866  159.0264 H   0  0  0  0  0  0  0  0  0  0  0  0
  152.9139  141.5222  160.9685 H   0  0  0  0  0  0  0  0  0  0  0  0
  153.7958  142.1025  159.5751 H   0  0  0  0  0  0  0  0  0  0  0  0
  151.0548  143.0959  160.5065 H   0  0  0  0  0  0  0  0  0  0  0  0
  152.5634  143.9702  160.6384 H   0  0  0  0  0  0  0  0  0  0  0  0
  151.2426  144.7495  158.6731 H   0  0  0  0  0  0  0  0  0  0  0  0
  152.7812  144.0789  158.1875 H   0  0  0  0  0  0  0  0  0  0  0  0
  150.2612  143.8964  156.3196 H   0  0  0  0  0  0  0  0  0  0  0  0
  148.0836  137.8718  153.8829 H   0  0  0  0  0  0  0  0  0  0  0  0
  146.2449  139.2303  152.8714 H   0  0  0  0  0  0  0  0  0  0  0  0
  146.3584  141.7330  153.0299 H   0  0  0  0  0  0  0  0  0  0  0  0
  148.3189  142.7704  154.2006 H   0  0  0  0  0  0  0  0  0  0  0  0
  1  2  2  0  0  0  0
  2  3  1  0  0  0  0
  2 11  1  0  0  0  0
  3  4  1  0  0  0  0
  3 22  1  0  0  0  0
  4 20  1  0  0  0  0
  4  9  1  0  0  0  0
  4  5  1  0  0  0  0
  5  6  1  0  0  0  0
  5 23  1  0  0  0  0
  5 24  1  0  0  0  0
  6  7  1  0  0  0  0
  6 25  1  0  0  0  0
  6 26  1  0  0  0  0
  7  8  1  0  0  0  0
  7 27  1  0  0  0  0
  7 28  1  0  0  0  0
  8  9  1  0  0  0  0
  8 29  1  0  0  0  0
  8 30  1  0  0  0  0
  9 21  1  0  0  0  0
  9 10  1  0  0  0  0
 10 31  1  0  0  0  0
 11 12  1  0  0  0  0
 11 13  1  0  0  0  0
 11 14  1  0  0  0  0
 14 19  1  0  0  0  0
 14 15  2  0  0  0  0
 15 16  1  0  0  0  0
 15 32  1  0  0  0  0
 16 17  2  0  0  0  0
 16 33  1  0  0  0  0
 17 18  1  0  0  0  0
 17 34  1  0  0  0  0
 18 19  2  0  0  0  0
 18 35  1  0  0  0  0
M  END
> <s_m_source_file>
AV-unprocessed.smi

> <i_m_source_file_index>
2768

> <i_lp_mmshare_version>
43012

> <i_f3d_flags>
0

> <s_epik_input>
bjFbY0hdW2NIXVtjSF1bY0hdYzFDKEYpKEYpQyg9TylbTkhdW0NAQEhdMltDSDJdW0NIMl1bQ0gyXVtDSDJdW0NASF0yW09IXQ==

> <s_epik_cmdline>
J2VwaWtfcHl0aG9uJywgJy1waCcsICc3LjAnLCAnLXRuJywgJzgnLCAnLW1hJywgJzIwMCcsICctbWV0YWxfYmluZGluZycsICctaW1hZScsICc8aW5maWxlLm1hZT4nLCAnLW9tYWUnLCAnPG91dGZpbGUubWFlPic=

> <r_lp_tautomer_probability>
1

> <r_epik_Ionization_Penalty>
4.19456e-05

> <r_epik_Ionization_Penalty_Charging>
0

> <r_epik_Ionization_Penalty_Neutral>
4.19456e-05

> <r_epik_State_Penalty>
-0

> <r_epik_Charging_Adjusted_Penalty>
0

> <i_epik_Tot_Q>
0

> <i_epik_Tot_abs_Q>
0

> <r_epik_Metal_State_Penalty>
0.0354684

> <b_epik_Metal_Only>
0

> <s_lp_Force_Field>
OPLS_2005

> <r_lp_Energy>
17.1667

> <b_lp_Chiralities_Consistent>
1

> <s_lp_Variant>
AV-unprocessed.smi:2768-1

> <Gold.Version>
5.8.1

> <Gold.Id.Protein>
6NUR|6NUR_protein|mol2

> <Gold.PLP.Fitness>
49.8193

> <Gold.PLP.PLP>
-40.5044

> <Gold.PLP.part.hbond>
-3.0195

> <Gold.PLP.part.metal>
0.0000

> <Gold.PLP.part.buried>
-3.5647

> <Gold.PLP.part.nonpolar>
-33.1303

> <Gold.PLP.part.repulsive>
0.2257

> <Gold.PLP.ligand.clash>
0.0000

> <Gold.PLP.ligand.torsion>
0.3415

> <Gold.PLP.Chemscore.Hbond>
2.3286

> <Gold.PLP.Chemscore.CHOScore>
1.0000

> <Gold.PLP.Chemscore.Metal>
0.0000

> <Gold.Chemscore.Hbonds>
donor molecule, donor type, donor heavy atom, donor atom, acceptor molecule, acceptor atom, score
      L1  H    10    31       P1  8028  1.00
      P1  H  7989  7998       L1     1  0.30
      P1  H  7997  8010       L1     1  0.89
      L1  C    18    35       P1  8028  1.00

> <Gold.PLP.Chemscore.Internal.Correction>
0.0120

> <Gold.Rescore>
     Score         DG    S(hbond)    S(metal)    S(lipo)     H(rot)  DE(clash)    DE(int)     intcor
     16.61     -18.46       1.95        0.00      98.82       2.00       0.28       1.58       ----

> <Gold.Chemscore.Fitness>
16.6067

> <Gold.Chemscore.DG>
-18.4584

> <Gold.Chemscore.ZeroCoef>
-5.4800

> <Gold.Chemscore.Hbond>
1.9547

> <Gold.Chemscore.Metal>
0.0000

> <Gold.Chemscore.Lipo>
98.8196

> <Gold.Chemscore.Internal_Hbond>
0.0000

> <Gold.Chemscore.DEClash>
0.2760

> <Gold.Chemscore.DEInternal>
1.5756

> <Gold.Chemscore.Rot>
1.9969

> <Gold.Chemscore.Internal.Correction>
   9.000000E+99

> <Gold.Chemscore.Hbonds>
donor molecule, donor type, donor heavy atom, donor atom, acceptor molecule, acceptor atom, score
      L1  H    10    31       P1  8028  1.00
      P1  H  7989  7998       L1     1  0.03
      P1  H  7997  8010       L1     1  0.86

> <Gold.Chemscore.Hbond.Weighted>
-6.5286

> <Gold.Chemscore.Metal.Weighted>
-0.0000

> <Gold.Chemscore.Lipo.Weighted>
-11.5619

> <Gold.Chemscore.Internal_Hbond.Weighted>
0.0000

> <Gold.Chemscore.DEClash.Weighted>
0.2760

> <Gold.Chemscore.DEInternal.Weighted>
1.5756

> <Gold.Chemscore.Rot.Weighted>
5.1122

> <Gold.Chemscore.Internal.Correction.Weighted>
   9.000000E+99

> <Gold.Protein.RotatedTorsions>
[ 6907 6896 6895 6894 ] final    6.75 input  -60.11 | X-H torsion
[ 7974 7965 7964 7962 ] final  -92.32 input  175.53 | X-H torsion
[ 8008 7997 7996 7995 ] final   99.28 input   59.86 | X-H torsion
[ 10167 10162 10161 10158 ] final -141.74 input  -65.29 | X-H torsion
[ 10718 10713 10712 10709 ] final  -77.86 input   66.30 | X-H torsion
[ 10763 10752 10751 10750 ] final  -76.55 input  -60.55 | X-H torsion
[ 11005 11000 10999 10996 ] final  114.57 input  -57.11 | X-H torsion

> <Gold.Protein.ActiveResidues>
 VAL166  LYS551  ARG553  GLY616  TRP617  ASP618  TYR619  PRO620  LYS621  CYS622 
 ASP623  PHE694  ASN695  SER759  ASP760  ASP761  ALA762  ILE779  LEU786  VAL792 
 PHE793  MET794  SER795  GLU796  ALA797  LYS798  CYS799  TRP800  GLU811  SER814 

> <Gold.Protein.RotatedAtoms>
  151.6787  135.0965  160.0211 H   0  0  0  0  0  0  0  0  0  0  0  0  # atno 6907 bound_to 6896
  152.3848  133.6592  159.6198 H   0  0  0  0  0  0  0  0  0  0  0  0  # atno 6908 bound_to 6896
  150.7776  133.8970  159.3371 H   0  0  0  0  0  0  0  0  0  0  0  0  # atno 6909 bound_to 6896
  145.4014  140.9537  143.2285 H   0  0  0  0  0  0  0  0  0  0  0  0  # atno 7974 bound_to 7965
  156.1089  140.3231  155.8044 H   0  0  0  0  0  0  0  0  0  0  0  0  # atno 8008 bound_to 7997
  155.4708  140.0546  157.2997 H   0  0  0  0  0  0  0  0  0  0  0  0  # atno 8009 bound_to 7997
  154.4746  140.2026  155.9924 H   0  0  0  0  0  0  0  0  0  0  0  0  # atno 8010 bound_to 7997
  139.8155  143.7644  152.2665 H   0  0  0  0  0  0  0  0  0  0  0  0  # atno 10167 bound_to 10162
  156.0133  130.4502  150.3409 H   0  0  0  0  0  0  0  0  0  0  0  0  # atno 10718 bound_to 10713
  154.5013  135.5794  153.6533 H   0  0  0  0  0  0  0  0  0  0  0  0  # atno 10763 bound_to 10752
  152.9879  135.6136  154.2998 H   0  0  0  0  0  0  0  0  0  0  0  0  # atno 10764 bound_to 10752
  154.2906  135.2849  155.2636 H   0  0  0  0  0  0  0  0  0  0  0  0  # atno 10765 bound_to 10752
  139.8984  134.9570  156.6912 H   0  0  0  0  0  0  0  0  0  0  0  0  # atno 11005 bound_to 11000
  144.8371  139.5532  143.6917 LP  0  0  0  0  0  0  0  0  0  0  0  0  # atno 17320 bound_to 7965
  146.2750  139.6730  142.9269 LP  0  0  0  0  0  0  0  0  0  0  0  0  # atno 17321 bound_to 7965
  139.7807  144.7445  151.0093 LP  0  0  0  0  0  0  0  0  0  0  0  0  # atno 17342 bound_to 10162
  140.7816  143.4546  151.0364 LP  0  0  0  0  0  0  0  0  0  0  0  0  # atno 17343 bound_to 10162
  157.1504  131.0319  151.2887 LP  0  0  0  0  0  0  0  0  0  0  0  0  # atno 17370 bound_to 10713
  157.4396  130.7537  149.7058 LP  0  0  0  0  0  0  0  0  0  0  0  0  # atno 17371 bound_to 10713
  140.7223  133.9130  155.8155 LP  0  0  0  0  0  0  0  0  0  0  0  0  # atno 17394 bound_to 11000
  141.0217  134.0879  157.4113 LP  0  0  0  0  0  0  0  0  0  0  0  0  # atno 17395 bound_to 11000

$$$$
