AV-unprocessed.smi:2982|AV-procd|sdf|11376|dock1
  -GOLD-   2272016293D 1   1.00000     0.00000
 Structure written by MMmdl.
 36 37  0  0  0  0  0  0  0  0  1 V2000
  154.1100  141.4929  161.1195 C   0  0  0  0  0  0  0  0  0  0  0  0
  153.6567  142.4618  160.0196 C   0  0  0  0  0  0  0  0  0  0  0  0
  152.1272  142.6042  159.8830 C   0  0  0  0  0  0  0  0  0  0  0  0
  151.6019  142.1421  158.6103 N   0  0  0  0  0  0  0  0  0  0  0  0
  151.7427  140.8266  158.1590 C   0  0  0  0  0  0  0  0  0  0  0  0
  152.4212  139.9277  158.9665 N   0  0  0  0  0  0  0  0  0  0  0  0
  151.2382  140.4166  156.9597 C   0  0  0  0  0  0  0  0  0  0  0  0
  151.3583  139.1197  156.4740 N   0  0  0  0  0  0  0  0  0  0  0  0
  150.2633  138.3994  155.8385 C   0  0  0  0  0  0  0  0  0  0  0  0
  150.6283  138.0374  154.3875 C   0  0  0  0  0  0  0  0  0  0  0  0
  151.8560  137.3144  154.3670 O   0  0  0  0  0  0  0  0  0  0  0  0
  152.9357  138.0700  154.9086 C   0  0  0  0  0  0  0  0  0  0  0  0
  152.6328  138.4220  156.3756 C   0  0  0  0  0  0  0  0  0  0  0  0
  150.5226  141.3577  156.0928 C   0  0  0  0  0  0  0  0  0  0  0  0
  150.0261  141.0906  154.9989 O   0  0  0  0  0  0  0  0  0  0  0  0
  150.4234  142.6548  156.5901 N   0  0  0  0  0  0  0  0  0  0  0  0
  150.9325  143.0971  157.8058 C   0  0  0  0  0  0  0  0  0  0  0  0
  150.7881  144.2781  158.1227 O   0  0  0  0  0  0  0  0  0  0  0  0
  149.9435  143.3330  156.0165 H   0  0  0  0  0  0  0  0  0  0  0  0
  155.1946  141.3838  161.1153 H   0  0  0  0  0  0  0  0  0  0  0  0
  153.6757  140.5032  160.9764 H   0  0  0  0  0  0  0  0  0  0  0  0
  153.8210  141.8496  162.1081 H   0  0  0  0  0  0  0  0  0  0  0  0
  154.1059  143.4391  160.1975 H   0  0  0  0  0  0  0  0  0  0  0  0
  154.0579  142.1173  159.0661 H   0  0  0  0  0  0  0  0  0  0  0  0
  151.6142  142.0187  160.6463 H   0  0  0  0  0  0  0  0  0  0  0  0
  151.7995  143.6302  160.0550 H   0  0  0  0  0  0  0  0  0  0  0  0
  152.8069  140.2050  159.8576 H   0  0  0  0  0  0  0  0  0  0  0  0
  152.5566  138.9638  158.6978 H   0  0  0  0  0  0  0  0  0  0  0  0
  150.0557  137.4956  156.4127 H   0  0  0  0  0  0  0  0  0  0  0  0
  149.3542  139.0019  155.8582 H   0  0  0  0  0  0  0  0  0  0  0  0
  149.8451  137.4201  153.9471 H   0  0  0  0  0  0  0  0  0  0  0  0
  150.7118  138.9313  153.7685 H   0  0  0  0  0  0  0  0  0  0  0  0
  153.8497  137.4795  154.8445 H   0  0  0  0  0  0  0  0  0  0  0  0
  153.0971  138.9705  154.3145 H   0  0  0  0  0  0  0  0  0  0  0  0
  153.4329  139.0387  156.7873 H   0  0  0  0  0  0  0  0  0  0  0  0
  152.5881  137.5162  156.9813 H   0  0  0  0  0  0  0  0  0  0  0  0
  1  2  1  0  0  0  0
  1 20  1  0  0  0  0
  1 21  1  0  0  0  0
  1 22  1  0  0  0  0
  2  3  1  0  0  0  0
  2 23  1  0  0  0  0
  2 24  1  0  0  0  0
  3  4  1  0  0  0  0
  3 25  1  0  0  0  0
  3 26  1  0  0  0  0
  4 17  1  0  0  0  0
  4  5  1  0  0  0  0
  5  6  1  0  0  0  0
  5  7  2  0  0  0  0
  6 27  1  0  0  0  0
  6 28  1  0  0  0  0
  7  8  1  0  0  0  0
  7 14  1  0  0  0  0
  8 13  1  0  0  0  0
  8  9  1  0  0  0  0
  9 10  1  0  0  0  0
  9 29  1  0  0  0  0
  9 30  1  0  0  0  0
 10 11  1  0  0  0  0
 10 31  1  0  0  0  0
 10 32  1  0  0  0  0
 11 12  1  0  0  0  0
 12 13  1  0  0  0  0
 12 33  1  0  0  0  0
 12 34  1  0  0  0  0
 13 35  1  0  0  0  0
 13 36  1  0  0  0  0
 14 15  2  0  0  0  0
 14 16  1  0  0  0  0
 16 19  1  0  0  0  0
 16 17  1  0  0  0  0
 17 18  2  0  0  0  0
M  END
> <s_m_source_file>
AV-unprocessed.smi

> <i_m_source_file_index>
2982

> <i_lp_mmshare_version>
43012

> <i_f3d_flags>
0

> <s_epik_input>
W0NIM11bQ0gyXVtDSDJdbjFjKFtOSDJdKWMoYyg9TylbbkhdYzE9TylOMltDSDJdW0NIMl1PW0NIMl1bQ0gyXTI=

> <s_epik_cmdline>
J2VwaWtfcHl0aG9uJywgJy1waCcsICc3LjAnLCAnLXRuJywgJzgnLCAnLW1hJywgJzIwMCcsICctbWV0YWxfYmluZGluZycsICctaW1hZScsICc8aW5maWxlLm1hZT4nLCAnLW9tYWUnLCAnPG91dGZpbGUubWFlPic=

> <r_lp_tautomer_probability>
1

> <r_epik_Ionization_Penalty>
1.08155e-05

> <r_epik_Ionization_Penalty_Charging>
2.81443e-06

> <r_epik_Ionization_Penalty_Neutral>
8.00112e-06

> <r_epik_State_Penalty>
-0

> <r_epik_Charging_Adjusted_Penalty>
2.81443e-06

> <i_epik_Tot_Q>
0

> <i_epik_Tot_abs_Q>
0

> <r_epik_Metal_State_Penalty>
-0

> <b_epik_Metal_Only>
0

> <s_epik_Chemistry_Notes>
This compound has an imine and may undergo hydrolysis.

> <s_lp_Force_Field>
OPLS_2005

> <r_lp_Energy>
28.8877

> <b_lp_Chiralities_Consistent>
1

> <s_lp_Variant>
AV-unprocessed.smi:2982-1

> <Gold.Version>
5.8.1

> <Gold.Id.Protein>
6NUR|6NUR_protein|mol2

> <Gold.PLP.Fitness>
40.3409

> <Gold.PLP.PLP>
-33.5388

> <Gold.PLP.part.hbond>
-3.0000

> <Gold.PLP.part.metal>
0.0000

> <Gold.PLP.part.buried>
-2.7417

> <Gold.PLP.part.nonpolar>
-29.4309

> <Gold.PLP.part.repulsive>
0.8540

> <Gold.PLP.ligand.clash>
0.0000

> <Gold.PLP.ligand.torsion>
1.2016

> <Gold.PLP.Chemscore.Hbond>
2.5200

> <Gold.PLP.Chemscore.CHOScore>
0.0000

> <Gold.PLP.Chemscore.Metal>
0.0000

> <Gold.Chemscore.Hbonds>
donor molecule, donor type, donor heavy atom, donor atom, acceptor molecule, acceptor atom, score
      L1  H    16    19       P1  8028  1.00
      P1  H  7989  7998       L1    15  0.38
      P1  H 10752 10765       L1    11  0.58

> <Gold.PLP.Chemscore.Internal.Correction>
1.6452

> <Gold.Rescore>
     Score         DG    S(hbond)    S(metal)    S(lipo)     H(rot)  DE(clash)    DE(int)     intcor
     13.52     -17.49       2.21        0.00      66.60       1.24       1.31       2.66       ----

> <Gold.Chemscore.Fitness>
13.5201

> <Gold.Chemscore.DG>
-17.4909

> <Gold.Chemscore.ZeroCoef>
-5.4800

> <Gold.Chemscore.Hbond>
2.2113

> <Gold.Chemscore.Metal>
0.0000

> <Gold.Chemscore.Lipo>
66.5979

> <Gold.Chemscore.Internal_Hbond>
0.0000

> <Gold.Chemscore.DEClash>
1.3120

> <Gold.Chemscore.DEInternal>
2.6588

> <Gold.Chemscore.Rot>
1.2371

> <Gold.Chemscore.Internal.Correction>
   9.000000E+99

> <Gold.Chemscore.Hbonds>
donor molecule, donor type, donor heavy atom, donor atom, acceptor molecule, acceptor atom, score
      L1  H    16    19       P1  8028  0.99
      P1  H  7989  7998       L1    15  0.28
      P1  H 10752 10765       L1    11  0.04

> <Gold.Chemscore.Hbond.Weighted>
-7.3859

> <Gold.Chemscore.Metal.Weighted>
-0.0000

> <Gold.Chemscore.Lipo.Weighted>
-7.7920

> <Gold.Chemscore.Internal_Hbond.Weighted>
0.0000

> <Gold.Chemscore.DEClash.Weighted>
1.3120

> <Gold.Chemscore.DEInternal.Weighted>
2.6588

> <Gold.Chemscore.Rot.Weighted>
3.1669

> <Gold.Chemscore.Internal.Correction.Weighted>
   9.000000E+99

> <Gold.Protein.RotatedTorsions>
[ 6907 6896 6895 6894 ] final  112.52 input  -60.11 | X-H torsion
[ 7974 7965 7964 7962 ] final  135.78 input  175.53 | X-H torsion
[ 8008 7997 7996 7995 ] final  105.09 input   59.86 | X-H torsion
[ 10167 10162 10161 10158 ] final  142.38 input  -65.29 | X-H torsion
[ 10718 10713 10712 10709 ] final  109.38 input   66.30 | X-H torsion
[ 10763 10752 10751 10750 ] final  151.18 input  -60.55 | X-H torsion
[ 11005 11000 10999 10996 ] final -159.65 input  -57.11 | X-H torsion

> <Gold.Protein.ActiveResidues>
 VAL166  LYS551  ARG553  GLY616  TRP617  ASP618  TYR619  PRO620  LYS621  CYS622 
 ASP623  PHE694  ASN695  SER759  ASP760  ASP761  ALA762  ILE779  LEU786  VAL792 
 PHE793  MET794  SER795  GLU796  ALA797  LYS798  CYS799  TRP800  GLU811  SER814 

> <Gold.Protein.RotatedAtoms>
  152.4912  133.8504  159.7198 H   0  0  0  0  0  0  0  0  0  0  0  0  # atno 6907 bound_to 6896
  150.9043  133.7069  159.2877 H   0  0  0  0  0  0  0  0  0  0  0  0  # atno 6908 bound_to 6896
  151.4500  135.1033  159.9747 H   0  0  0  0  0  0  0  0  0  0  0  0  # atno 6909 bound_to 6896
  144.9630  139.4689  143.5470 H   0  0  0  0  0  0  0  0  0  0  0  0  # atno 7974 bound_to 7965
  156.1629  140.3136  155.8839 H   0  0  0  0  0  0  0  0  0  0  0  0  # atno 8008 bound_to 7997
  155.3745  140.0484  157.3062 H   0  0  0  0  0  0  0  0  0  0  0  0  # atno 8009 bound_to 7997
  154.5164  140.2183  155.9068 H   0  0  0  0  0  0  0  0  0  0  0  0  # atno 8010 bound_to 7997
  139.4996  144.6111  151.6270 H   0  0  0  0  0  0  0  0  0  0  0  0  # atno 10167 bound_to 10162
  157.6544  131.0912  150.6445 H   0  0  0  0  0  0  0  0  0  0  0  0  # atno 10718 bound_to 10713
  154.0995  135.2846  155.3254 H   0  0  0  0  0  0  0  0  0  0  0  0  # atno 10763 bound_to 10752
  154.6565  135.5350  153.7968 H   0  0  0  0  0  0  0  0  0  0  0  0  # atno 10764 bound_to 10752
  153.0384  135.6523  154.1159 H   0  0  0  0  0  0  0  0  0  0  0  0  # atno 10765 bound_to 10752
  140.6402  134.4559  157.5233 H   0  0  0  0  0  0  0  0  0  0  0  0  # atno 11005 bound_to 11000
  146.3359  139.8792  142.8827 LP  0  0  0  0  0  0  0  0  0  0  0  0  # atno 17320 bound_to 7965
  145.2672  141.0096  143.3793 LP  0  0  0  0  0  0  0  0  0  0  0  0  # atno 17321 bound_to 7965
  140.5786  143.9986  150.6255 LP  0  0  0  0  0  0  0  0  0  0  0  0  # atno 17342 bound_to 10162
  140.3127  143.3187  152.0863 LP  0  0  0  0  0  0  0  0  0  0  0  0  # atno 17343 bound_to 10162
  156.6753  130.4551  149.5644 LP  0  0  0  0  0  0  0  0  0  0  0  0  # atno 17370 bound_to 10713
  156.1968  130.6594  151.1123 LP  0  0  0  0  0  0  0  0  0  0  0  0  # atno 17371 bound_to 10713
  139.9083  134.8400  156.1622 LP  0  0  0  0  0  0  0  0  0  0  0  0  # atno 17394 bound_to 11000
  141.0612  133.6841  156.1957 LP  0  0  0  0  0  0  0  0  0  0  0  0  # atno 17395 bound_to 11000

$$$$
