AV-unprocessed.smi:2528|AV-procd|sdf|9953|dock6
  -GOLD-   2272013593D 1   1.00000     0.00000
 Structure written by MMmdl.
 44 46  0  0  0  0  0  0  0  0  2 V2000
  144.5237  136.1796  152.9136 O   0  0  0  0  0  0  0  0  0  0  0  0
  145.6830  136.1987  152.4985 C   0  0  0  0  0  0  0  0  0  0  0  0
  146.5393  137.1977  152.7569 N   0  0  0  0  0  0  0  0  0  0  0  0
  146.2297  138.3721  153.5657 C   0  0  0  0  0  0  0  0  0  0  0  0
  147.4653  138.8949  154.3198 C   0  0  1  0  0  0  0  0  0  0  0  0
  148.5743  139.3564  153.3487 C   0  0  0  0  0  0  0  0  0  0  0  0
  149.7161  139.9634  154.0750 N   0  3  2  0  0  0  0  0  0  0  0  0
  150.6076  138.9601  154.7190 C   0  0  0  0  0  0  0  0  0  0  0  0
  151.8078  139.6336  155.3998 C   0  0  0  0  0  0  0  0  0  0  0  0
  151.3357  140.6688  156.4266 C   0  0  0  0  0  0  0  0  0  0  0  0
  150.4229  141.6977  155.7460 C   0  0  0  0  0  0  0  0  0  0  0  0
  149.2476  141.0385  154.9929 C   0  0  2  0  0  0  0  0  0  0  0  0
  148.1277  140.5166  155.9176 C   0  0  0  0  0  0  0  0  0  0  0  0
  147.0653  140.0013  155.1237 O   0  0  0  0  0  0  0  0  0  0  0  0
  146.2560  135.2470  151.7411 N   0  0  0  0  0  0  0  0  0  0  0  0
  145.6795  134.0385  151.2667 C   0  0  0  0  0  0  0  0  0  0  0  0
  144.2668  134.0249  151.2247 C   0  0  0  0  0  0  0  0  0  0  0  0
  143.5984  132.8726  150.7673 C   0  0  0  0  0  0  0  0  0  0  0  0
  144.3609  131.7619  150.3639 C   0  0  0  0  0  0  0  0  0  0  0  0
  145.7627  131.8572  150.4391 C   0  0  0  0  0  0  0  0  0  0  0  0
  146.4054  132.9605  150.8773 N   0  0  0  0  0  0  0  0  0  0  0  0
  147.4723  137.1392  152.3756 H   0  0  0  0  0  0  0  0  0  0  0  0
  145.8180  139.1536  152.9247 H   0  0  0  0  0  0  0  0  0  0  0  0
  145.4427  138.1063  154.2720 H   0  0  0  0  0  0  0  0  0  0  0  0
  147.8484  138.1021  154.9635 H   0  0  0  0  0  0  0  0  0  0  0  0
  148.9211  138.5260  152.7324 H   0  0  0  0  0  0  0  0  0  0  0  0
  148.1709  140.1025  152.6625 H   0  0  0  0  0  0  0  0  0  0  0  0
  150.0579  138.3719  155.4536 H   0  0  0  0  0  0  0  0  0  0  0  0
  150.9655  138.2596  153.9637 H   0  0  0  0  0  0  0  0  0  0  0  0
  152.4291  138.8819  155.8876 H   0  0  0  0  0  0  0  0  0  0  0  0
  152.4355  140.1164  154.6495 H   0  0  0  0  0  0  0  0  0  0  0  0
  150.8041  140.1724  157.2392 H   0  0  0  0  0  0  0  0  0  0  0  0
  152.1937  141.1689  156.8770 H   0  0  0  0  0  0  0  0  0  0  0  0
  150.0486  142.4118  156.4805 H   0  0  0  0  0  0  0  0  0  0  0  0
  151.0165  142.2780  155.0381 H   0  0  0  0  0  0  0  0  0  0  0  0
  148.8017  141.8131  154.3668 H   0  0  0  0  0  0  0  0  0  0  0  0
  148.4888  139.7505  156.6048 H   0  0  0  0  0  0  0  0  0  0  0  0
  147.7371  141.3296  156.5297 H   0  0  0  0  0  0  0  0  0  0  0  0
  147.2192  135.3996  151.4807 H   0  0  0  0  0  0  0  0  0  0  0  0
  143.6964  134.8877  151.5369 H   0  0  0  0  0  0  0  0  0  0  0  0
  142.5195  132.8428  150.7268 H   0  0  0  0  0  0  0  0  0  0  0  0
  143.8847  130.8607  150.0071 H   0  0  0  0  0  0  0  0  0  0  0  0
  146.3850  131.0264  150.1405 H   0  0  0  0  0  0  0  0  0  0  0  0
  150.2880  140.4171  153.3767 H   0  0  0  0  0  0  0  0  0  0  0  0
  1  2  2  0  0  0  0
  2  3  1  0  0  0  0
  2 15  1  0  0  0  0
  3  4  1  0  0  0  0
  3 22  1  0  0  0  0
  4  5  1  0  0  0  0
  4 23  1  0  0  0  0
  4 24  1  0  0  0  0
  5 14  1  0  0  0  0
  5  6  1  0  0  0  0
  5 25  1  0  0  0  0
  6  7  1  0  0  0  0
  6 26  1  0  0  0  0
  6 27  1  0  0  0  0
  7 12  1  0  0  0  0
  7  8  1  0  0  0  0
  7 44  1  0  0  0  0
  8  9  1  0  0  0  0
  8 28  1  0  0  0  0
  8 29  1  0  0  0  0
  9 10  1  0  0  0  0
  9 30  1  0  0  0  0
  9 31  1  0  0  0  0
 10 11  1  0  0  0  0
 10 32  1  0  0  0  0
 10 33  1  0  0  0  0
 11 12  1  0  0  0  0
 11 34  1  0  0  0  0
 11 35  1  0  0  0  0
 12 13  1  0  0  0  0
 12 36  1  0  0  0  0
 13 14  1  0  0  0  0
 13 37  1  0  0  0  0
 13 38  1  0  0  0  0
 15 16  1  0  0  0  0
 15 39  1  0  0  0  0
 16 21  1  0  0  0  0
 16 17  2  0  0  0  0
 17 18  1  0  0  0  0
 17 40  1  0  0  0  0
 18 19  2  0  0  0  0
 18 41  1  0  0  0  0
 19 20  1  0  0  0  0
 19 42  1  0  0  0  0
 20 21  2  0  0  0  0
 20 43  1  0  0  0  0
M  CHG  1   7   1
M  END
> <s_m_source_file>
AV-unprocessed.smi

> <i_m_source_file_index>
2528

> <i_lp_mmshare_version>
43012

> <i_f3d_flags>
0

> <s_epik_input>
bjFbY0hdW2NIXVtjSF1bY0hdYzFbTkhdQyg9TylbTkhdW0NIMl1bQ0BIXShbQ0gyXTIpT1tDSDJdW0NAQEhdKE4yMylbQ0gyXVtDSDJdW0NIMl1bQ0gyXTM=

> <s_epik_cmdline>
J2VwaWtfcHl0aG9uJywgJy1waCcsICc3LjAnLCAnLXRuJywgJzgnLCAnLW1hJywgJzIwMCcsICctbWV0YWxfYmluZGluZycsICctaW1hZScsICc8aW5maWxlLm1hZT4nLCAnLW9tYWUnLCAnPG91dGZpbGUubWFlPic=

> <r_epik_Ionization_Penalty>
0.0932337

> <r_epik_Ionization_Penalty_Charging>
0.0931942

> <r_epik_Ionization_Penalty_Neutral>
3.9565e-05

> <r_epik_State_Penalty>
0.0834605

> <r_epik_Charging_Adjusted_Penalty>
0.176655

> <i_epik_Tot_Q>
1

> <i_epik_Tot_abs_Q>
1

> <r_epik_Metal_State_Penalty>
0.0834607

> <b_epik_Metal_Only>
0

> <s_lp_Force_Field>
OPLS_2005

> <r_lp_Energy>
28.0088

> <b_lp_Chiralities_Consistent>
1

> <s_lp_Variant>
AV-unprocessed.smi:2528-6

> <Gold.Version>
5.8.1

> <Gold.Id.Protein>
6NUR|6NUR_protein|mol2

> <Gold.PLP.Fitness>
41.9458

> <Gold.PLP.PLP>
-33.4546

> <Gold.PLP.part.hbond>
-3.0000

> <Gold.PLP.part.metal>
0.0000

> <Gold.PLP.part.buried>
-1.1351

> <Gold.PLP.part.nonpolar>
-30.8664

> <Gold.PLP.part.repulsive>
1.1388

> <Gold.PLP.ligand.clash>
0.0101

> <Gold.PLP.ligand.torsion>
0.2874

> <Gold.PLP.Chemscore.Hbond>
2.0482

> <Gold.PLP.Chemscore.CHOScore>
0.9764

> <Gold.PLP.Chemscore.Metal>
0.0000

> <Gold.Chemscore.Hbonds>
donor molecule, donor type, donor heavy atom, donor atom, acceptor molecule, acceptor atom, score
      L1  H     3    22       P1  7948  1.00
      L1  H     7    44       P1  7957  0.07
      L1  H    15    39       P1  7948  1.00
      L1  C    20    43       P1 10747  0.83

> <Gold.PLP.Chemscore.Internal.Correction>
0.0023

> <Gold.Rescore>
     Score         DG    S(hbond)    S(metal)    S(lipo)     H(rot)  DE(clash)    DE(int)     intcor
     15.37     -18.63       1.91        0.00      85.86       1.29       1.51       1.74       ----

> <Gold.Chemscore.Fitness>
15.3731

> <Gold.Chemscore.DG>
-18.6252

> <Gold.Chemscore.ZeroCoef>
-5.4800

> <Gold.Chemscore.Hbond>
1.9146

> <Gold.Chemscore.Metal>
0.0000

> <Gold.Chemscore.Lipo>
85.8565

> <Gold.Chemscore.Internal_Hbond>
0.0000

> <Gold.Chemscore.DEClash>
1.5112

> <Gold.Chemscore.DEInternal>
1.7410

> <Gold.Chemscore.Rot>
1.2870

> <Gold.Chemscore.Internal.Correction>
   9.000000E+99

> <Gold.Chemscore.Hbonds>
donor molecule, donor type, donor heavy atom, donor atom, acceptor molecule, acceptor atom, score
      L1  H     3    22       P1  7948  0.98
      L1  H     7    44       P1  7957  0.07
      L1  H    15    39       P1  7948  0.90

> <Gold.Chemscore.Hbond.Weighted>
-6.3949

> <Gold.Chemscore.Metal.Weighted>
-0.0000

> <Gold.Chemscore.Lipo.Weighted>
-10.0452

> <Gold.Chemscore.Internal_Hbond.Weighted>
0.0000

> <Gold.Chemscore.DEClash.Weighted>
1.5112

> <Gold.Chemscore.DEInternal.Weighted>
1.7410

> <Gold.Chemscore.Rot.Weighted>
3.2948

> <Gold.Chemscore.Internal.Correction.Weighted>
   9.000000E+99

> <Gold.Protein.RotatedTorsions>
[ 6907 6896 6895 6894 ] final -138.92 input  -60.11 | X-H torsion
[ 7974 7965 7964 7962 ] final   74.72 input  175.53 | X-H torsion
[ 8008 7997 7996 7995 ] final -142.62 input   59.86 | X-H torsion
[ 10167 10162 10161 10158 ] final -172.35 input  -65.29 | X-H torsion
[ 10718 10713 10712 10709 ] final  106.84 input   66.30 | X-H torsion
[ 10763 10752 10751 10750 ] final  105.25 input  -60.55 | X-H torsion
[ 11005 11000 10999 10996 ] final   -8.67 input  -57.11 | X-H torsion

> <Gold.Protein.ActiveResidues>
 VAL166  LYS551  ARG553  GLY616  TRP617  ASP618  TYR619  PRO620  LYS621  CYS622 
 ASP623  PHE694  ASN695  SER759  ASP760  ASP761  ALA762  ILE779  LEU786  VAL792 
 PHE793  MET794  SER795  GLU796  ALA797  LYS798  CYS799  TRP800  GLU811  SER814 

> <Gold.Protein.RotatedAtoms>
  151.0411  133.5705  159.2650 H   0  0  0  0  0  0  0  0  0  0  0  0  # atno 6907 bound_to 6896
  151.2751  135.0696  159.9158 H   0  0  0  0  0  0  0  0  0  0  0  0  # atno 6908 bound_to 6896
  152.5364  134.0135  159.8003 H   0  0  0  0  0  0  0  0  0  0  0  0  # atno 6909 bound_to 6896
  145.7247  139.2661  143.1576 H   0  0  0  0  0  0  0  0  0  0  0  0  # atno 7974 bound_to 7965
  155.4971  140.0572  157.2945 H   0  0  0  0  0  0  0  0  0  0  0  0  # atno 8008 bound_to 7997
  154.4601  140.1992  156.0219 H   0  0  0  0  0  0  0  0  0  0  0  0  # atno 8009 bound_to 7997
  156.0873  140.3238  155.7775 H   0  0  0  0  0  0  0  0  0  0  0  0  # atno 8010 bound_to 7997
  139.5749  144.1554  152.1437 H   0  0  0  0  0  0  0  0  0  0  0  0  # atno 10167 bound_to 10162
  157.6652  131.0859  150.6066 H   0  0  0  0  0  0  0  0  0  0  0  0  # atno 10718 bound_to 10713
  153.3768  135.3916  155.1828 H   0  0  0  0  0  0  0  0  0  0  0  0  # atno 10763 bound_to 10752
  154.8702  135.3716  154.4907 H   0  0  0  0  0  0  0  0  0  0  0  0  # atno 10764 bound_to 10752
  153.5380  135.7085  153.5711 H   0  0  0  0  0  0  0  0  0  0  0  0  # atno 10765 bound_to 10752
  140.7260  133.8789  155.8856 H   0  0  0  0  0  0  0  0  0  0  0  0  # atno 11005 bound_to 11000
  146.0593  140.7987  142.9742 LP  0  0  0  0  0  0  0  0  0  0  0  0  # atno 17320 bound_to 7965
  144.6908  140.3172  143.7238 LP  0  0  0  0  0  0  0  0  0  0  0  0  # atno 17321 bound_to 7965
  140.1095  144.5469  150.6934 LP  0  0  0  0  0  0  0  0  0  0  0  0  # atno 17342 bound_to 10162
  140.7032  143.2449  151.4802 LP  0  0  0  0  0  0  0  0  0  0  0  0  # atno 17343 bound_to 10162
  156.6367  130.4447  149.5767 LP  0  0  0  0  0  0  0  0  0  0  0  0  # atno 17370 bound_to 10713
  156.2240  130.6754  151.1397 LP  0  0  0  0  0  0  0  0  0  0  0  0  # atno 17371 bound_to 10713
  140.9963  134.1211  157.4361 LP  0  0  0  0  0  0  0  0  0  0  0  0  # atno 17394 bound_to 11000
  139.8837  135.0055  156.6319 LP  0  0  0  0  0  0  0  0  0  0  0  0  # atno 17395 bound_to 11000

$$$$
