AV-unprocessed.smi:2866|AV-procd|sdf|11019|dock2
  -GOLD-   2272015483D 1   1.00000     0.00000
 Structure written by MMmdl.
 41 43  0  0  0  0  0  0  0  0  1 V2000
  153.1129  142.9689  160.7886 C   0  0  0  0  0  0  0  0  0  0  0  0
  152.2322  142.5855  159.6124 C   0  0  0  0  0  0  0  0  0  0  0  0
  152.4973  141.3831  158.9189 C   0  0  0  0  0  0  0  0  0  0  0  0
  151.7019  140.9904  157.8202 C   0  0  0  0  0  0  0  0  0  0  0  0
  151.7798  139.8722  157.0075 N   0  0  0  0  0  0  0  0  0  0  0  0
  150.7664  140.0775  156.1709 C   0  0  0  0  0  0  0  0  0  0  0  0
  150.0376  141.1964  156.3488 N   0  0  0  0  0  0  0  0  0  0  0  0
  148.8920  141.6319  155.5701 C   0  0  0  0  0  0  0  0  0  0  0  0
  148.5812  140.6813  154.3986 C   0  0  2  0  0  0  0  0  0  0  0  0
  149.2777  141.1088  153.2427 O   0  0  0  0  0  0  0  0  0  0  0  0
  147.0708  140.6039  154.1054 C   0  0  0  0  0  0  0  0  0  0  0  0
  146.7499  139.6071  153.0985 N   0  0  0  0  0  0  0  0  0  0  0  0
  147.0458  139.6262  151.7529 C   0  0  0  0  0  0  0  0  0  0  0  0
  146.5409  138.4796  151.2107 C   0  0  0  0  0  0  0  0  0  0  0  0
  145.9448  137.8059  152.3163 C   0  0  0  0  0  0  0  0  0  0  0  0
  145.2263  136.4821  152.3270 C   0  0  0  0  0  0  0  0  0  0  0  0
  143.9497  136.6523  152.6706 F   0  0  0  0  0  0  0  0  0  0  0  0
  145.2737  135.9280  151.1156 F   0  0  0  0  0  0  0  0  0  0  0  0
  145.8003  135.6592  153.2044 F   0  0  0  0  0  0  0  0  0  0  0  0
  146.0795  138.4880  153.4458 N   0  0  0  0  0  0  0  0  0  0  0  0
  150.6251  141.8401  157.4320 C   0  0  0  0  0  0  0  0  0  0  0  0
  150.3524  143.0395  158.1127 C   0  0  0  0  0  0  0  0  0  0  0  0
  151.1574  143.4174  159.2076 C   0  0  0  0  0  0  0  0  0  0  0  0
  150.8556  144.7153  159.9357 C   0  0  0  0  0  0  0  0  0  0  0  0
  153.8698  142.2088  160.9841 H   0  0  0  0  0  0  0  0  0  0  0  0
  152.5154  143.0847  161.6931 H   0  0  0  0  0  0  0  0  0  0  0  0
  153.6266  143.9096  160.5890 H   0  0  0  0  0  0  0  0  0  0  0  0
  153.3165  140.7498  159.2263 H   0  0  0  0  0  0  0  0  0  0  0  0
  150.5372  139.3715  155.3860 H   0  0  0  0  0  0  0  0  0  0  0  0
  148.0335  141.6983  156.2395 H   0  0  0  0  0  0  0  0  0  0  0  0
  149.0809  142.6416  155.2023 H   0  0  0  0  0  0  0  0  0  0  0  0
  148.9416  139.6825  154.6482 H   0  0  0  0  0  0  0  0  0  0  0  0
  149.2112  140.4327  152.5857 H   0  0  0  0  0  0  0  0  0  0  0  0
  146.5266  140.3472  155.0150 H   0  0  0  0  0  0  0  0  0  0  0  0
  146.6936  141.5753  153.7811 H   0  0  0  0  0  0  0  0  0  0  0  0
  147.5819  140.4462  151.2982 H   0  0  0  0  0  0  0  0  0  0  0  0
  146.5884  138.1681  150.1777 H   0  0  0  0  0  0  0  0  0  0  0  0
  149.5300  143.6627  157.7942 H   0  0  0  0  0  0  0  0  0  0  0  0
  150.0062  145.2334  159.4898 H   0  0  0  0  0  0  0  0  0  0  0  0
  151.7147  145.3851  159.8948 H   0  0  0  0  0  0  0  0  0  0  0  0
  150.6170  144.5201  160.9814 H   0  0  0  0  0  0  0  0  0  0  0  0
  1  2  1  0  0  0  0
  1 25  1  0  0  0  0
  1 26  1  0  0  0  0
  1 27  1  0  0  0  0
  2 23  1  0  0  0  0
  2  3  2  0  0  0  0
  3  4  1  0  0  0  0
  3 28  1  0  0  0  0
  4 21  2  0  0  0  0
  4  5  1  0  0  0  0
  5  6  2  0  0  0  0
  6  7  1  0  0  0  0
  6 29  1  0  0  0  0
  7  8  1  0  0  0  0
  7 21  1  0  0  0  0
  8  9  1  0  0  0  0
  8 30  1  0  0  0  0
  8 31  1  0  0  0  0
  9 10  1  0  0  0  0
  9 11  1  0  0  0  0
  9 32  1  0  0  0  0
 10 33  1  0  0  0  0
 11 12  1  0  0  0  0
 11 34  1  0  0  0  0
 11 35  1  0  0  0  0
 12 20  1  0  0  0  0
 12 13  1  0  0  0  0
 13 14  2  0  0  0  0
 13 36  1  0  0  0  0
 14 15  1  0  0  0  0
 14 37  1  0  0  0  0
 15 16  1  0  0  0  0
 15 20  2  0  0  0  0
 16 17  1  0  0  0  0
 16 18  1  0  0  0  0
 16 19  1  0  0  0  0
 21 22  1  0  0  0  0
 22 23  2  0  0  0  0
 22 38  1  0  0  0  0
 23 24  1  0  0  0  0
 24 39  1  0  0  0  0
 24 40  1  0  0  0  0
 24 41  1  0  0  0  0
M  END
> <s_m_source_file>
AV-unprocessed.smi

> <i_m_source_file_index>
2866

> <i_lp_mmshare_version>
43012

> <i_f3d_flags>
0

> <s_epik_input>
W0NIM11jKFtjSF0xKWMoW0NIM10pW2NIXWMoYzEyKW4oW2NIXW4yKVtDSDJdW0NASF0oW09IXSlbQ0gyXW4zW2NIXVtjSF1jKG4zKUMoRikoRilG

> <s_epik_cmdline>
J2VwaWtfcHl0aG9uJywgJy1waCcsICc3LjAnLCAnLXRuJywgJzgnLCAnLW1hJywgJzIwMCcsICctbWV0YWxfYmluZGluZycsICctaW1hZScsICc8aW5maWxlLm1hZT4nLCAnLW9tYWUnLCAnPG91dGZpbGUubWFlPic=

> <r_lp_tautomer_probability>
1

> <r_epik_Ionization_Penalty>
0.1021

> <r_epik_Ionization_Penalty_Charging>
0

> <r_epik_Ionization_Penalty_Neutral>
0.1021

> <r_epik_State_Penalty>
0.0920694

> <r_epik_Charging_Adjusted_Penalty>
0.0920694

> <i_epik_Tot_Q>
0

> <i_epik_Tot_abs_Q>
0

> <r_epik_Metal_State_Penalty>
0.0784291

> <b_epik_Metal_Only>
0

> <s_lp_Force_Field>
OPLS_2005

> <r_lp_Energy>
11.3604

> <b_lp_Chiralities_Consistent>
1

> <s_lp_Variant>
AV-unprocessed.smi:2866-1

> <Gold.Version>
5.8.1

> <Gold.Id.Protein>
6NUR|6NUR_protein|mol2

> <Gold.PLP.Fitness>
53.7866

> <Gold.PLP.PLP>
-47.1318

> <Gold.PLP.part.hbond>
-2.4553

> <Gold.PLP.part.metal>
0.0000

> <Gold.PLP.part.buried>
0.5997

> <Gold.PLP.part.nonpolar>
-47.7319

> <Gold.PLP.part.repulsive>
0.2110

> <Gold.PLP.ligand.clash>
0.0000

> <Gold.PLP.ligand.torsion>
0.5529

> <Gold.PLP.Chemscore.Hbond>
1.9158

> <Gold.PLP.Chemscore.CHOScore>
0.6315

> <Gold.PLP.Chemscore.Metal>
0.0000

> <Gold.Chemscore.Hbonds>
donor molecule, donor type, donor heavy atom, donor atom, acceptor molecule, acceptor atom, score
      L1  H    10    33       P1  7957  0.87
      P1  H  7989  7998       L1    10  0.02
      P1  H  8011  8017       L1    10  1.00
      L1  C    13    36       P1  7957  0.63

> <Gold.PLP.Chemscore.Internal.Correction>
0.1187

> <Gold.Rescore>
     Score         DG    S(hbond)    S(metal)    S(lipo)     H(rot)  DE(clash)    DE(int)     intcor
     15.94     -18.42       1.29        0.00     126.70       2.42       1.86       0.62       ----

> <Gold.Chemscore.Fitness>
15.9402

> <Gold.Chemscore.DG>
-18.4158

> <Gold.Chemscore.ZeroCoef>
-5.4800

> <Gold.Chemscore.Hbond>
1.2928

> <Gold.Chemscore.Metal>
0.0000

> <Gold.Chemscore.Lipo>
126.7018

> <Gold.Chemscore.Internal_Hbond>
0.0000

> <Gold.Chemscore.DEClash>
1.8576

> <Gold.Chemscore.DEInternal>
0.6181

> <Gold.Chemscore.Rot>
2.4243

> <Gold.Chemscore.Internal.Correction>
   9.000000E+99

> <Gold.Chemscore.Hbonds>
donor molecule, donor type, donor heavy atom, donor atom, acceptor molecule, acceptor atom, score
      L1  H    10    33       P1  7957  0.80
      P1  H  8011  8017       L1    10  0.30

> <Gold.Chemscore.Hbond.Weighted>
-4.3180

> <Gold.Chemscore.Metal.Weighted>
-0.0000

> <Gold.Chemscore.Lipo.Weighted>
-14.8241

> <Gold.Chemscore.Internal_Hbond.Weighted>
0.0000

> <Gold.Chemscore.DEClash.Weighted>
1.8576

> <Gold.Chemscore.DEInternal.Weighted>
0.6181

> <Gold.Chemscore.Rot.Weighted>
6.2063

> <Gold.Chemscore.Internal.Correction.Weighted>
   9.000000E+99

> <Gold.Protein.RotatedTorsions>
[ 6907 6896 6895 6894 ] final -168.98 input  -60.11 | X-H torsion
[ 7974 7965 7964 7962 ] final  175.13 input  175.53 | X-H torsion
[ 8008 7997 7996 7995 ] final  -99.55 input   59.86 | X-H torsion
[ 10167 10162 10161 10158 ] final   78.20 input  -65.29 | X-H torsion
[ 10718 10713 10712 10709 ] final  113.77 input   66.30 | X-H torsion
[ 10763 10752 10751 10750 ] final   74.71 input  -60.55 | X-H torsion
[ 11005 11000 10999 10996 ] final   30.23 input  -57.11 | X-H torsion

> <Gold.Protein.ActiveResidues>
 VAL166  LYS551  ARG553  GLY616  TRP617  ASP618  TYR619  PRO620  LYS621  CYS622 
 ASP623  PHE694  ASN695  SER759  ASP760  ASP761  ALA762  ILE779  LEU786  VAL792 
 PHE793  MET794  SER795  GLU796  ALA797  LYS798  CYS799  TRP800  GLU811  SER814 

> <Gold.Protein.RotatedAtoms>
  151.4843  133.3539  159.2842 H   0  0  0  0  0  0  0  0  0  0  0  0  # atno 6907 bound_to 6896
  150.8876  134.8278  159.7281 H   0  0  0  0  0  0  0  0  0  0  0  0  # atno 6908 bound_to 6896
  152.4803  134.4749  159.9699 H   0  0  0  0  0  0  0  0  0  0  0  0  # atno 6909 bound_to 6896
  144.7207  139.9901  143.6440 H   0  0  0  0  0  0  0  0  0  0  0  0  # atno 7974 bound_to 7965
  154.8164  140.0447  157.1379 H   0  0  0  0  0  0  0  0  0  0  0  0  # atno 8008 bound_to 7997
  154.9310  140.3040  155.5148 H   0  0  0  0  0  0  0  0  0  0  0  0  # atno 8009 bound_to 7997
  156.2976  140.2323  156.4370 H   0  0  0  0  0  0  0  0  0  0  0  0  # atno 8010 bound_to 7997
  139.9734  144.5878  150.7965 H   0  0  0  0  0  0  0  0  0  0  0  0  # atno 10167 bound_to 10162
  157.6319  131.0988  150.7089 H   0  0  0  0  0  0  0  0  0  0  0  0  # atno 10718 bound_to 10713
  153.0605  135.5015  154.8083 H   0  0  0  0  0  0  0  0  0  0  0  0  # atno 10763 bound_to 10752
  154.6875  135.2979  154.9528 H   0  0  0  0  0  0  0  0  0  0  0  0  # atno 10764 bound_to 10752
  154.0294  135.6731  153.4832 H   0  0  0  0  0  0  0  0  0  0  0  0  # atno 10765 bound_to 10752
  140.2966  134.2804  155.7763 H   0  0  0  0  0  0  0  0  0  0  0  0  # atno 11005 bound_to 11000
  146.0419  139.3429  143.0692 LP  0  0  0  0  0  0  0  0  0  0  0  0  # atno 17320 bound_to 7965
  145.8324  140.9623  143.0842 LP  0  0  0  0  0  0  0  0  0  0  0  0  # atno 17321 bound_to 7965
  140.7514  143.2972  151.3174 LP  0  0  0  0  0  0  0  0  0  0  0  0  # atno 17342 bound_to 10162
  139.6464  144.0444  152.2594 LP  0  0  0  0  0  0  0  0  0  0  0  0  # atno 17343 bound_to 10162
  156.7427  130.4744  149.5474 LP  0  0  0  0  0  0  0  0  0  0  0  0  # atno 17370 bound_to 10713
  156.1529  130.6322  151.0619 LP  0  0  0  0  0  0  0  0  0  0  0  0  # atno 17371 bound_to 10713
  141.2136  133.7619  156.9704 LP  0  0  0  0  0  0  0  0  0  0  0  0  # atno 17394 bound_to 11000
  140.1147  134.9455  157.2116 LP  0  0  0  0  0  0  0  0  0  0  0  0  # atno 17395 bound_to 11000

$$$$
