#       Name:                AV-unprocessed.smi:921
#       Creating user name   scv26
#       Creation time:       Fri Mar 27 02:07:59 2020


#       File generated by GOLD software.
#

@<TRIPOS>MOLECULE
AV-unprocessed.smi:921
    44    46     1
SMALL
NO_CHARGES


@<TRIPOS>ATOM
      1 ****        -0.6494   4.8418   2.6262 N.am           1 S1                 0.0000
      2 ****        -0.2157   3.6001   2.3952 C.2            1 S1                 0.0000
      3 ****         0.2261   2.8856   3.2935 O.2            1 S1                 0.0000
      4 ****        -0.2865   3.0959   0.9502 C.3            1 S1                 0.0000
      5 ****        -0.7375   1.6672   0.8968 C.2            1 S1                 0.0000
      6 ****        -2.0335   1.2464   0.9453 N.pl3          1 S1                 1.0000
      7 ****        -2.0818  -0.1467   0.9129 C.ar           1 S1                 0.0000
      8 ****        -3.1647  -1.0197   0.9478 C.ar           1 S1                 0.0000
      9 ****        -2.8683  -2.3978   0.9088 C.ar           1 S1                 0.0000
     10 ****        -1.5384  -2.8601   0.8414 C.ar           1 S1                 0.0000
     11 ****        -0.4496  -1.9649   0.8075 C.ar           1 S1                 0.0000
     12 ****        -0.7499  -0.6025   0.8382 C.ar           1 S1                 0.0000
     13 ****         0.0456   0.5508   0.8046 N.pl3          1 S1                 0.0000
     14 ****         1.5118   0.4193   0.7071 C.3            1 S1                 0.0000
     15 ****         2.0553   0.4377  -0.7421 C.3            1 S1                 0.0000
     16 ****         1.6889   1.6424  -1.3868 O.3            1 S1                 0.0000
     17 ****         1.6625  -0.8013  -1.5403 C.ar           1 S1                 0.0000
     18 ****         0.4975  -0.8065  -2.3418 C.ar           1 S1                 0.0000
     19 ****         0.1294  -1.9615  -3.0579 C.ar           1 S1                 0.0000
     20 ****        -0.9941  -1.9593  -3.8133 F              1 S1                 0.0000
     21 ****         0.9262  -3.1192  -2.9843 C.ar           1 S1                 0.0000
     22 ****         2.0882  -3.1221  -2.1900 C.ar           1 S1                 0.0000
     23 ****         2.4552  -1.9694  -1.4683 C.ar           1 S1                 0.0000
     24 ****         3.5686  -1.9946  -0.6972 F              1 S1                 0.0000
     25 ****        -0.6130   5.2168   3.5635 H              1 S1                 0.0000
     26 ****        -1.0042   5.4060   1.8677 H              1 S1                 0.0000
     27 ****        -0.9744   3.7082   0.3656 H              1 S1                 0.0000
     28 ****         0.6968   3.2006   0.4945 H              1 S1                 0.0000
     29 ****        -4.1845  -0.6680   1.0036 H              1 S1                 0.0000
     30 ****        -3.6767  -3.1142   0.9335 H              1 S1                 0.0000
     31 ****        -1.3488  -3.9233   0.8151 H              1 S1                 0.0000
     32 ****         0.5636  -2.3336   0.7543 H              1 S1                 0.0000
     33 ****         1.9420   1.2497   1.2680 H              1 S1                 0.0000
     34 ****         1.8280  -0.4819   1.2327 H              1 S1                 0.0000
     35 ****         3.1442   0.4588  -0.6866 H              1 S1                 0.0000
     36 ****         2.1531   1.6946  -2.2086 H              1 S1                 0.0000
     37 ****        -0.1302   0.0705  -2.4005 H              1 S1                 0.0000
     38 ****         0.6452  -4.0052  -3.5343 H              1 S1                 0.0000
     39 ****         2.6980  -4.0115  -2.1311 H              1 S1                 0.0000
     40 ****        -2.8266   1.8715   1.0091 H              1 S1                 0.0000
     41 ****         0.2686   3.2302   4.2313 LP             1 S1                 0.0000
     42 ****         0.5429   1.9600   3.0861 LP             1 S1                 0.0000
     43 ****         1.9342   2.4219  -0.8104 LP             1 S1                 0.0000
     44 ****         0.7032   1.6491  -1.5548 LP             1 S1                 0.0000
@<TRIPOS>BOND
    1    1    2 am    
    2    1   25 1     
    3    1   26 1     
    4    2    3 2     
    5    2    4 1     
    6    4    5 1     
    7    4   27 1     
    8    4   28 1     
    9    5   13 1     
   10    5    6 2     
   11    6    7 1     
   12    6   40 1     
   13    7   12 ar    
   14    7    8 ar    
   15    8    9 ar    
   16    8   29 1     
   17    9   10 ar    
   18    9   30 1     
   19   10   11 ar    
   20   10   31 1     
   21   11   12 ar    
   22   11   32 1     
   23   12   13 1     
   24   13   14 1     
   25   14   15 1     
   26   14   33 1     
   27   14   34 1     
   28   15   16 1     
   29   15   17 1     
   30   15   35 1     
   31   16   36 1     
   32   17   23 ar    
   33   17   18 ar    
   34   18   19 ar    
   35   18   37 1     
   36   19   20 1     
   37   19   21 ar    
   38   21   22 ar    
   39   21   38 1     
   40   22   23 ar    
   41   22   39 1     
   42   23   24 1     
   43    3   41 1     
   44    3   42 1     
   45   16   43 1     
   46   16   44 1     
@<TRIPOS>SUBSTRUCTURE
      1 S1             1
@<TRIPOS>SET
LONE_PAIRS      STATIC     ATOMS    <user>   **** ""
4 41 42 43 44
DONOR_HYDROGENS      STATIC     ATOMS    <user>   **** ""
4 25 26 40 36
ATOM$BLUE        STATIC     ATOMS    COLORGROUP SYSTEM
4 41 42 43 44
ATOM$RED        STATIC     ATOMS    COLORGROUP SYSTEM
4 25 26 40 36
