AV-unprocessed.smi:2092|AV-procd|sdf|8542|dock10
  -GOLD-   2272011263D 1   1.00000     0.00000
 Structure written by MMmdl.
 44 45  0  0  0  0  0  0  0  0  1 V2000
  145.2336  136.7443  159.0049 C   0  0  0  0  0  0  0  0  0  0  0  0
  146.7246  137.0940  158.8933 C   0  0  2  0  0  0  0  0  0  0  0  0
  147.2128  137.3209  160.2159 O   0  0  0  0  0  0  0  0  0  0  0  0
  147.6405  136.1655  160.9330 C   0  0  0  0  0  0  0  0  0  0  0  0
  146.9690  136.1325  162.3104 C   0  0  0  0  0  0  0  0  0  0  0  0
  147.1473  134.9293  162.8554 F   0  0  0  0  0  0  0  0  0  0  0  0
  147.5115  137.0492  163.1114 F   0  0  0  0  0  0  0  0  0  0  0  0
  145.6609  136.3587  162.1903 F   0  0  0  0  0  0  0  0  0  0  0  0
  146.9430  138.3319  158.0084 C   0  0  0  0  0  0  0  0  0  0  0  0
  146.4327  139.4108  158.3108 O   0  0  0  0  0  0  0  0  0  0  0  0
  147.7411  138.1677  156.9417 N   0  0  0  0  0  0  0  0  0  0  0  0
  148.1973  139.2446  156.0690 C   0  0  0  0  0  0  0  0  0  0  0  0
  149.6952  139.4987  156.1566 C   0  0  0  0  0  0  0  0  0  0  0  0
  150.5718  138.9150  155.2218 C   0  0  0  0  0  0  0  0  0  0  0  0
  151.9454  139.2041  155.3215 C   0  0  0  0  0  0  0  0  0  0  0  0
  152.4654  140.0132  156.2685 N   0  0  0  0  0  0  0  0  0  0  0  0
  151.6337  140.5700  157.1832 C   0  0  0  0  0  0  0  0  0  0  0  0
  152.1848  141.4289  158.1580 N   0  0  0  0  0  0  0  0  0  0  0  0
  152.2422  140.9574  159.5400 C   0  0  0  0  0  0  0  0  0  0  0  0
  153.1515  141.8723  160.3775 C   0  0  0  0  0  0  0  0  0  0  0  0
  152.7042  143.2198  160.2726 O   0  0  0  0  0  0  0  0  0  0  0  0
  152.7597  143.6937  158.9312 C   0  0  0  0  0  0  0  0  0  0  0  0
  151.8400  142.8431  158.0383 C   0  0  0  0  0  0  0  0  0  0  0  0
  150.2408  140.3248  157.1635 C   0  0  0  0  0  0  0  0  0  0  0  0
  144.7948  136.5591  158.0238 H   0  0  0  0  0  0  0  0  0  0  0  0
  144.6677  137.5467  159.4797 H   0  0  0  0  0  0  0  0  0  0  0  0
  145.0921  135.8443  159.6035 H   0  0  0  0  0  0  0  0  0  0  0  0
  147.2493  136.2377  158.4647 H   0  0  0  0  0  0  0  0  0  0  0  0
  147.3881  135.2600  160.3793 H   0  0  0  0  0  0  0  0  0  0  0  0
  148.7224  136.1801  161.0649 H   0  0  0  0  0  0  0  0  0  0  0  0
  148.1144  137.2466  156.7638 H   0  0  0  0  0  0  0  0  0  0  0  0
  147.9532  138.9786  155.0404 H   0  0  0  0  0  0  0  0  0  0  0  0
  147.6470  140.1603  156.2924 H   0  0  0  0  0  0  0  0  0  0  0  0
  150.2033  138.2707  154.4371 H   0  0  0  0  0  0  0  0  0  0  0  0
  152.6454  138.7801  154.6170 H   0  0  0  0  0  0  0  0  0  0  0  0
  151.2354  140.9444  159.9596 H   0  0  0  0  0  0  0  0  0  0  0  0
  152.6250  139.9367  159.5767 H   0  0  0  0  0  0  0  0  0  0  0  0
  153.1262  141.5698  161.4244 H   0  0  0  0  0  0  0  0  0  0  0  0
  154.1892  141.7953  160.0484 H   0  0  0  0  0  0  0  0  0  0  0  0
  152.4422  144.7362  158.9107 H   0  0  0  0  0  0  0  0  0  0  0  0
  153.7880  143.6678  158.5669 H   0  0  0  0  0  0  0  0  0  0  0  0
  151.9188  143.1953  157.0109 H   0  0  0  0  0  0  0  0  0  0  0  0
  150.8005  142.9772  158.3398 H   0  0  0  0  0  0  0  0  0  0  0  0
  149.5901  140.7878  157.8897 H   0  0  0  0  0  0  0  0  0  0  0  0
  1  2  1  0  0  0  0
  1 25  1  0  0  0  0
  1 26  1  0  0  0  0
  1 27  1  0  0  0  0
  2  3  1  0  0  0  0
  2  9  1  0  0  0  0
  2 28  1  0  0  0  0
  3  4  1  0  0  0  0
  4  5  1  0  0  0  0
  4 29  1  0  0  0  0
  4 30  1  0  0  0  0
  5  6  1  0  0  0  0
  5  7  1  0  0  0  0
  5  8  1  0  0  0  0
  9 10  2  0  0  0  0
  9 11  1  0  0  0  0
 11 12  1  0  0  0  0
 11 31  1  0  0  0  0
 12 13  1  0  0  0  0
 12 32  1  0  0  0  0
 12 33  1  0  0  0  0
 13 24  1  0  0  0  0
 13 14  2  0  0  0  0
 14 15  1  0  0  0  0
 14 34  1  0  0  0  0
 15 16  2  0  0  0  0
 15 35  1  0  0  0  0
 16 17  1  0  0  0  0
 17 18  1  0  0  0  0
 17 24  2  0  0  0  0
 18 23  1  0  0  0  0
 18 19  1  0  0  0  0
 19 20  1  0  0  0  0
 19 36  1  0  0  0  0
 19 37  1  0  0  0  0
 20 21  1  0  0  0  0
 20 38  1  0  0  0  0
 20 39  1  0  0  0  0
 21 22  1  0  0  0  0
 22 23  1  0  0  0  0
 22 40  1  0  0  0  0
 22 41  1  0  0  0  0
 23 42  1  0  0  0  0
 23 43  1  0  0  0  0
 24 44  1  0  0  0  0
M  END
> <s_m_source_file>
AV-unprocessed.smi

> <i_m_source_file_index>
2092

> <i_lp_mmshare_version>
43012

> <i_f3d_flags>
0

> <s_epik_input>
RkMoRikoRilbQ0gyXU9bQ0BASF0oW0NIM10pQyg9TylbTkhdW0NIMl1jMVtjSF1bY0hdbmMoW2NIXTEpTjJbQ0gyXVtDSDJdT1tDSDJdW0NIMl0y

> <s_epik_cmdline>
J2VwaWtfcHl0aG9uJywgJy1waCcsICc3LjAnLCAnLXRuJywgJzgnLCAnLW1hJywgJzIwMCcsICctbWV0YWxfYmluZGluZycsICctaW1hZScsICc8aW5maWxlLm1hZT4nLCAnLW9tYWUnLCAnPG91dGZpbGUubWFlPic=

> <r_lp_tautomer_probability>
1

> <r_epik_Ionization_Penalty>
0.00451782

> <r_epik_Ionization_Penalty_Charging>
0

> <r_epik_Ionization_Penalty_Neutral>
0.00451782

> <r_epik_State_Penalty>
0.00326147

> <r_epik_Charging_Adjusted_Penalty>
0.00326147

> <i_epik_Tot_Q>
0

> <i_epik_Tot_abs_Q>
0

> <r_epik_Metal_State_Penalty>
-0

> <b_epik_Metal_Only>
0

> <s_lp_Force_Field>
OPLS_2005

> <r_lp_Energy>
14.8319

> <b_lp_Chiralities_Consistent>
1

> <s_lp_Variant>
AV-unprocessed.smi:2092-1

> <Gold.Version>
5.8.1

> <Gold.Id.Protein>
6NUR|6NUR_protein|mol2

> <Gold.PLP.Fitness>
46.7483

> <Gold.PLP.PLP>
-43.0308

> <Gold.PLP.part.hbond>
-3.0000

> <Gold.PLP.part.metal>
0.0000

> <Gold.PLP.part.buried>
-3.4719

> <Gold.PLP.part.nonpolar>
-35.0750

> <Gold.PLP.part.repulsive>
0.0279

> <Gold.PLP.ligand.clash>
0.0000

> <Gold.PLP.ligand.torsion>
1.3480

> <Gold.PLP.Chemscore.Hbond>
2.0000

> <Gold.PLP.Chemscore.CHOScore>
0.0000

> <Gold.PLP.Chemscore.Metal>
0.0000

> <Gold.Chemscore.Hbonds>
donor molecule, donor type, donor heavy atom, donor atom, acceptor molecule, acceptor atom, score
      P1  H  6934  6947       L1     3  1.00
      P1  H  7997  8010       L1    16  1.00

> <Gold.PLP.Chemscore.Internal.Correction>
0.4134

> <Gold.Rescore>
     Score         DG    S(hbond)    S(metal)    S(lipo)     H(rot)  DE(clash)    DE(int)     intcor
     13.66     -14.88       1.93        0.00      79.79       2.49       0.09       1.14       ----

> <Gold.Chemscore.Fitness>
13.6575

> <Gold.Chemscore.DG>
-14.8826

> <Gold.Chemscore.ZeroCoef>
-5.4800

> <Gold.Chemscore.Hbond>
1.9285

> <Gold.Chemscore.Metal>
0.0000

> <Gold.Chemscore.Lipo>
79.7899

> <Gold.Chemscore.Internal_Hbond>
0.0000

> <Gold.Chemscore.DEClash>
0.0862

> <Gold.Chemscore.DEInternal>
1.1390

> <Gold.Chemscore.Rot>
2.4899

> <Gold.Chemscore.Internal.Correction>
   9.000000E+99

> <Gold.Chemscore.Hbonds>
donor molecule, donor type, donor heavy atom, donor atom, acceptor molecule, acceptor atom, score
      P1  H  6934  6947       L1     3  0.95
      P1  H  7997  8010       L1    16  0.80

> <Gold.Chemscore.Hbond.Weighted>
-6.4413

> <Gold.Chemscore.Metal.Weighted>
-0.0000

> <Gold.Chemscore.Lipo.Weighted>
-9.3354

> <Gold.Chemscore.Internal_Hbond.Weighted>
0.0000

> <Gold.Chemscore.DEClash.Weighted>
0.0862

> <Gold.Chemscore.DEInternal.Weighted>
1.1390

> <Gold.Chemscore.Rot.Weighted>
6.3741

> <Gold.Chemscore.Internal.Correction.Weighted>
   9.000000E+99

> <Gold.Protein.RotatedTorsions>
[ 6907 6896 6895 6894 ] final   40.81 input  -60.11 | X-H torsion
[ 7974 7965 7964 7962 ] final   88.86 input  175.53 | X-H torsion
[ 8008 7997 7996 7995 ] final   90.87 input   59.86 | X-H torsion
[ 10167 10162 10161 10158 ] final   73.05 input  -65.29 | X-H torsion
[ 10718 10713 10712 10709 ] final   68.43 input   66.30 | X-H torsion
[ 10763 10752 10751 10750 ] final   -4.85 input  -60.55 | X-H torsion
[ 11005 11000 10999 10996 ] final  176.84 input  -57.11 | X-H torsion

> <Gold.Protein.ActiveResidues>
 VAL166  LYS551  ARG553  GLY616  TRP617  ASP618  TYR619  PRO620  LYS621  CYS622 
 ASP623  PHE694  ASN695  SER759  ASP760  ASP761  ALA762  ILE779  LEU786  VAL792 
 PHE793  MET794  SER795  GLU796  ALA797  LYS798  CYS799  TRP800  GLU811  SER814 

> <Gold.Protein.RotatedAtoms>
  152.1872  134.8703  160.0520 H   0  0  0  0  0  0  0  0  0  0  0  0  # atno 6907 bound_to 6896
  151.9605  133.3689  159.4042 H   0  0  0  0  0  0  0  0  0  0  0  0  # atno 6908 bound_to 6896
  150.6928  134.4169  159.5231 H   0  0  0  0  0  0  0  0  0  0  0  0  # atno 6909 bound_to 6896
  145.5401  139.2288  143.2571 H   0  0  0  0  0  0  0  0  0  0  0  0  # atno 7974 bound_to 7965
  156.0171  140.3344  155.7000 H   0  0  0  0  0  0  0  0  0  0  0  0  # atno 8008 bound_to 7997
  155.6076  140.0662  157.2733 H   0  0  0  0  0  0  0  0  0  0  0  0  # atno 8009 bound_to 7997
  154.4302  140.1799  156.1226 H   0  0  0  0  0  0  0  0  0  0  0  0  # atno 8010 bound_to 7997
  140.0287  144.5483  150.7524 H   0  0  0  0  0  0  0  0  0  0  0  0  # atno 10167 bound_to 10162
  157.6289  130.9373  150.0376 H   0  0  0  0  0  0  0  0  0  0  0  0  # atno 10718 bound_to 10713
  153.3905  135.7001  153.6498 H   0  0  0  0  0  0  0  0  0  0  0  0  # atno 10763 bound_to 10752
  153.5073  135.3639  155.2570 H   0  0  0  0  0  0  0  0  0  0  0  0  # atno 10764 bound_to 10752
  154.8702  135.4126  154.3220 H   0  0  0  0  0  0  0  0  0  0  0  0  # atno 10765 bound_to 10752
  140.3776  134.6975  157.4431 H   0  0  0  0  0  0  0  0  0  0  0  0  # atno 11005 bound_to 11000
  146.1987  140.6220  142.9112 LP  0  0  0  0  0  0  0  0  0  0  0  0  # atno 17320 bound_to 7965
  144.7581  140.5357  143.6754 LP  0  0  0  0  0  0  0  0  0  0  0  0  # atno 17321 bound_to 7965
  140.7311  143.2691  151.3947 LP  0  0  0  0  0  0  0  0  0  0  0  0  # atno 17342 bound_to 10162
  139.6091  144.1136  152.2280 LP  0  0  0  0  0  0  0  0  0  0  0  0  # atno 17343 bound_to 10162
  156.1478  130.3642  149.9483 LP  0  0  0  0  0  0  0  0  0  0  0  0  # atno 17370 bound_to 10713
  156.7510  130.9115  151.3637 LP  0  0  0  0  0  0  0  0  0  0  0  0  # atno 17371 bound_to 10713
  140.0503  134.6140  155.8869 LP  0  0  0  0  0  0  0  0  0  0  0  0  # atno 17394 bound_to 11000
  141.1934  133.6579  156.5547 LP  0  0  0  0  0  0  0  0  0  0  0  0  # atno 17395 bound_to 11000

$$$$
