AV-unprocessed.smi:287|AV-procd|sdf|2183|dock2
  -GOLD-   2262021553D 1   1.00000     0.00000
 Structure written by MMmdl.
 55 58  0  0  0  0  0  0  0  0  1 V2000
  144.5157  145.5673  152.5030 C   0  0  0  0  0  0  0  0  0  0  0  0
  145.0316  144.5547  153.4670 C   0  0  0  0  0  0  0  0  0  0  0  0
  145.9375  143.5389  153.3747 C   0  0  0  0  0  0  0  0  0  0  0  0
  145.9986  142.9040  154.6514 C   0  0  0  0  0  0  0  0  0  0  0  0
  146.8760  141.7165  155.0242 C   0  0  1  0  0  0  0  0  0  0  0  0
  147.6002  141.1937  153.7730 C   0  0  0  0  0  0  0  0  0  0  0  0
  147.9011  142.0593  155.9370 O   0  0  0  0  0  0  0  0  0  0  0  0
  146.0774  140.5740  155.6934 C   0  0  0  0  0  0  0  0  0  0  0  0
  145.4548  139.6771  154.7279 N   0  0  0  0  0  0  0  0  0  0  0  0
  145.7206  138.3545  154.7367 C   0  0  0  0  0  0  0  0  0  0  0  0
  146.6659  137.9561  155.6212 N   0  0  0  0  0  0  0  0  0  0  0  0
  147.0025  136.6664  155.7108 C   0  0  0  0  0  0  0  0  0  0  0  0
  146.5255  135.6301  155.0194 N   0  0  0  0  0  0  0  0  0  0  0  0
  145.5740  136.0242  154.1245 C   0  0  0  0  0  0  0  0  0  0  0  0
  145.1145  137.3562  153.9172 C   0  0  0  0  0  0  0  0  0  0  0  0
  144.1467  137.3542  152.9177 N   0  0  0  0  0  0  0  0  0  0  0  0
  144.0470  136.1018  152.5633 C   0  0  0  0  0  0  0  0  0  0  0  0
  144.8753  135.2334  153.2396 N   0  0  0  0  0  0  0  0  0  0  0  0
  145.0192  133.7504  153.0882 C   0  0  1  0  0  0  0  0  0  0  0  0
  143.9561  133.3029  152.3003 O   0  0  0  0  0  0  0  0  0  0  0  0
  144.4306  132.6465  151.1246 C   0  0  1  0  0  0  0  0  0  0  0  0
  143.4628  132.8531  149.9461 C   0  0  0  0  0  0  0  0  0  0  0  0
  143.8417  132.0346  148.8604 O   0  0  0  0  0  0  0  0  0  0  0  0
  145.8526  133.1873  150.9192 C   0  0  1  0  0  0  0  0  0  0  0  0
  145.8444  134.4033  150.1899 O   0  0  0  0  0  0  0  0  0  0  0  0
  146.3200  133.3704  152.3562 C   0  0  1  0  0  0  0  0  0  0  0  0
  147.3918  134.2905  152.4799 O   0  0  0  0  0  0  0  0  0  0  0  0
  145.1225  143.6138  155.4372 C   0  0  0  0  0  0  0  0  0  0  0  0
  144.7053  143.5226  156.8678 C   0  0  0  0  0  0  0  0  0  0  0  0
  144.5275  144.6112  154.7251 O   0  0  0  0  0  0  0  0  0  0  0  0
  144.9543  133.3599  154.1043 H   0  0  0  0  0  0  0  0  0  0  0  0
  144.5155  131.5824  151.3529 H   0  0  0  0  0  0  0  0  0  0  0  0
  146.4803  132.4762  150.3811 H   0  0  0  0  0  0  0  0  0  0  0  0
  146.6396  132.4054  152.7514 H   0  0  0  0  0  0  0  0  0  0  0  0
  144.8476  145.3433  151.4890 H   0  0  0  0  0  0  0  0  0  0  0  0
  144.8712  146.5642  152.7634 H   0  0  0  0  0  0  0  0  0  0  0  0
  143.4256  145.5843  152.5048 H   0  0  0  0  0  0  0  0  0  0  0  0
  146.4911  143.2735  152.4862 H   0  0  0  0  0  0  0  0  0  0  0  0
  146.8897  140.8657  153.0133 H   0  0  0  0  0  0  0  0  0  0  0  0
  148.2430  140.3444  154.0078 H   0  0  0  0  0  0  0  0  0  0  0  0
  148.2250  141.9675  153.3248 H   0  0  0  0  0  0  0  0  0  0  0  0
  148.1204  142.9700  155.8121 H   0  0  0  0  0  0  0  0  0  0  0  0
  146.7655  139.9763  156.2928 H   0  0  0  0  0  0  0  0  0  0  0  0
  145.3275  140.9748  156.3768 H   0  0  0  0  0  0  0  0  0  0  0  0
  144.8988  140.1251  154.0135 H   0  0  0  0  0  0  0  0  0  0  0  0
  147.7638  136.4323  156.4402 H   0  0  0  0  0  0  0  0  0  0  0  0
  143.3629  135.7787  151.7924 H   0  0  0  0  0  0  0  0  0  0  0  0
  142.4323  132.6443  150.2352 H   0  0  0  0  0  0  0  0  0  0  0  0
  143.5024  133.8876  149.6031 H   0  0  0  0  0  0  0  0  0  0  0  0
  144.2933  132.5688  148.2252 H   0  0  0  0  0  0  0  0  0  0  0  0
  145.9133  134.1967  149.2698 H   0  0  0  0  0  0  0  0  0  0  0  0
  147.4597  134.7801  151.6739 H   0  0  0  0  0  0  0  0  0  0  0  0
  145.5757  143.4698  157.5218 H   0  0  0  0  0  0  0  0  0  0  0  0
  144.0988  142.6327  157.0371 H   0  0  0  0  0  0  0  0  0  0  0  0
  144.1175  144.3918  157.1638 H   0  0  0  0  0  0  0  0  0  0  0  0
  1  2  1  0  0  0  0
  1 35  1  0  0  0  0
  1 36  1  0  0  0  0
  1 37  1  0  0  0  0
  2 30  1  0  0  0  0
  2  3  2  0  0  0  0
  3  4  1  0  0  0  0
  3 38  1  0  0  0  0
  4  5  1  0  0  0  0
  4 28  2  0  0  0  0
  5  6  1  0  0  0  0
  5  7  1  0  0  0  0
  5  8  1  0  0  0  0
  6 39  1  0  0  0  0
  6 40  1  0  0  0  0
  6 41  1  0  0  0  0
  7 42  1  0  0  0  0
  8  9  1  0  0  0  0
  8 43  1  0  0  0  0
  8 44  1  0  0  0  0
  9 10  1  0  0  0  0
  9 45  1  0  0  0  0
 10 15  1  0  0  0  0
 10 11  2  0  0  0  0
 11 12  1  0  0  0  0
 12 13  2  0  0  0  0
 12 46  1  0  0  0  0
 13 14  1  0  0  0  0
 14 18  1  0  0  0  0
 14 15  2  0  0  0  0
 15 16  1  0  0  0  0
 16 17  2  0  0  0  0
 17 18  1  0  0  0  0
 17 47  1  0  0  0  0
 18 19  1  0  0  0  0
 19 31  1  0  0  0  0
 19 26  1  0  0  0  0
 19 20  1  0  0  0  0
 20 21  1  0  0  0  0
 21 32  1  0  0  0  0
 21 22  1  0  0  0  0
 21 24  1  0  0  0  0
 22 23  1  0  0  0  0
 22 48  1  0  0  0  0
 22 49  1  0  0  0  0
 23 50  1  0  0  0  0
 24 33  1  0  0  0  0
 24 25  1  0  0  0  0
 24 26  1  0  0  0  0
 25 51  1  0  0  0  0
 26 34  1  0  0  0  0
 26 27  1  0  0  0  0
 27 52  1  0  0  0  0
 28 29  1  0  0  0  0
 28 30  1  0  0  0  0
 29 53  1  0  0  0  0
 29 54  1  0  0  0  0
 29 55  1  0  0  0  0
M  END
> <s_m_source_file>
AV-unprocessed.smi

> <i_m_source_file_index>
287

> <i_lp_mmshare_version>
43012

> <i_f3d_flags>
0

> <s_epik_input>
W0NIM11jMVtjSF1jKGMobzEpW0NIM10pW0NAQF0oW0NIM10pKFtPSF0pW0NIMl1bTkhdYyhuW2NIXW4yKWMoYzIzKW5bY0hdbjNbQ0BASF00T1tDQEhdKFtDSDJdW09IXSlbQ0BASF0oW09IXSlbQ0BIXTRbT0hd

> <s_epik_cmdline>
J2VwaWtfcHl0aG9uJywgJy1waCcsICc3LjAnLCAnLXRuJywgJzgnLCAnLW1hJywgJzIwMCcsICctbWV0YWxfYmluZGluZycsICctaW1hZScsICc8aW5maWxlLm1hZT4nLCAnLW9tYWUnLCAnPG91dGZpbGUubWFlPic=

> <r_lp_tautomer_probability>
1

> <r_epik_Ionization_Penalty>
0.000992612

> <r_epik_Ionization_Penalty_Charging>
0

> <r_epik_Ionization_Penalty_Neutral>
0.000992612

> <r_epik_State_Penalty>
-0

> <r_epik_Charging_Adjusted_Penalty>
0

> <i_epik_Tot_Q>
0

> <i_epik_Tot_abs_Q>
0

> <r_epik_Metal_State_Penalty>
-0

> <b_epik_Metal_Only>
0

> <s_epik_Chemistry_Notes>
This compound contains an acetal/aminal-like group ( X-CH(R)-Y where X, Y are N, S, or O) that may be acid/base labile, releasing an aldehyde.

> <s_lp_Force_Field>
OPLS_2005

> <r_lp_Energy>
47.3874

> <b_lp_Chiralities_Consistent>
1

> <s_lp_Variant>
AV-unprocessed.smi:287-7

> <Gold.Version>
5.8.1

> <Gold.Id.Protein>
6NUR|6NUR_protein|mol2

> <Gold.PLP.Fitness>
47.2092

> <Gold.PLP.PLP>
-36.6336

> <Gold.PLP.part.hbond>
-5.0000

> <Gold.PLP.part.metal>
0.0000

> <Gold.PLP.part.buried>
-1.3982

> <Gold.PLP.part.nonpolar>
-30.2640

> <Gold.PLP.part.repulsive>
0.5353

> <Gold.PLP.ligand.clash>
0.0000

> <Gold.PLP.ligand.torsion>
0.9295

> <Gold.PLP.Chemscore.Hbond>
3.8983

> <Gold.PLP.Chemscore.CHOScore>
0.0000

> <Gold.PLP.Chemscore.Metal>
0.0000

> <Gold.Chemscore.Hbonds>
donor molecule, donor type, donor heavy atom, donor atom, acceptor molecule, acceptor atom, score
      L1  H     7    42       P1  8028  1.00
      L1  H     9    45       P1 10175  1.00
      L1  H    25    51       P1  7921  0.94
      L1  H    27    52       P1  7948  0.20
      P1  H 10785 10796       L1    23  0.69

> <Gold.PLP.Chemscore.Internal.Correction>
0.7398

> <Gold.Rescore>
     Score         DG    S(hbond)    S(metal)    S(lipo)     H(rot)  DE(clash)    DE(int)     intcor
      8.76     -13.88       3.58        0.00      84.74       5.27       3.11       2.00       ----

> <Gold.Chemscore.Fitness>
8.7615

> <Gold.Chemscore.DG>
-13.8766

> <Gold.Chemscore.ZeroCoef>
-5.4800

> <Gold.Chemscore.Hbond>
3.5827

> <Gold.Chemscore.Metal>
0.0000

> <Gold.Chemscore.Lipo>
84.7393

> <Gold.Chemscore.Internal_Hbond>
0.0000

> <Gold.Chemscore.DEClash>
3.1105

> <Gold.Chemscore.DEInternal>
2.0046

> <Gold.Chemscore.Rot>
5.2672

> <Gold.Chemscore.Internal.Correction>
   9.000000E+99

> <Gold.Chemscore.Hbonds>
donor molecule, donor type, donor heavy atom, donor atom, acceptor molecule, acceptor atom, score
      L1  H     7    42       P1  8028  0.82
      L1  H     9    45       P1 10175  0.97
      L1  H    25    51       P1  7921  0.36
      L1  H    27    52       P1  7948  0.11
      P1  H 10785 10796       L1    23  0.67

> <Gold.Chemscore.Hbond.Weighted>
-11.9661

> <Gold.Chemscore.Metal.Weighted>
-0.0000

> <Gold.Chemscore.Lipo.Weighted>
-9.9145

> <Gold.Chemscore.Internal_Hbond.Weighted>
0.0000

> <Gold.Chemscore.DEClash.Weighted>
3.1105

> <Gold.Chemscore.DEInternal.Weighted>
2.0046

> <Gold.Chemscore.Rot.Weighted>
13.4839

> <Gold.Chemscore.Internal.Correction.Weighted>
   9.000000E+99

> <Gold.Protein.RotatedTorsions>
[ 6907 6896 6895 6894 ] final -137.24 input  -60.11 | X-H torsion
[ 7974 7965 7964 7962 ] final  108.08 input  175.53 | X-H torsion
[ 8008 7997 7996 7995 ] final   72.64 input   59.86 | X-H torsion
[ 10167 10162 10161 10158 ] final  112.67 input  -65.29 | X-H torsion
[ 10718 10713 10712 10709 ] final  -65.35 input   66.30 | X-H torsion
[ 10763 10752 10751 10750 ] final -112.64 input  -60.55 | X-H torsion
[ 11005 11000 10999 10996 ] final   83.52 input  -57.11 | X-H torsion

> <Gold.Protein.ActiveResidues>
 VAL166  LYS551  ARG553  GLY616  TRP617  ASP618  TYR619  PRO620  LYS621  CYS622 
 ASP623  PHE694  ASN695  SER759  ASP760  ASP761  ALA762  ILE779  LEU786  VAL792 
 PHE793  MET794  SER795  GLU796  ALA797  LYS798  CYS799  TRP800  GLU811  SER814 

> <Gold.Protein.RotatedAtoms>
  151.0200  133.5885  159.2672 H   0  0  0  0  0  0  0  0  0  0  0  0  # atno 6907 bound_to 6896
  151.3005  135.0766  159.9246 H   0  0  0  0  0  0  0  0  0  0  0  0  # atno 6908 bound_to 6896
  152.5321  133.9883  159.7893 H   0  0  0  0  0  0  0  0  0  0  0  0  # atno 6909 bound_to 6896
  145.2854  139.2618  143.3893 H   0  0  0  0  0  0  0  0  0  0  0  0  # atno 7974 bound_to 7965
  155.7718  140.3484  155.5251 H   0  0  0  0  0  0  0  0  0  0  0  0  # atno 8008 bound_to 7997
  155.8814  140.1003  157.1503 H   0  0  0  0  0  0  0  0  0  0  0  0  # atno 8009 bound_to 7997
  154.4025  140.1321  156.4189 H   0  0  0  0  0  0  0  0  0  0  0  0  # atno 8010 bound_to 7997
  139.6518  144.7128  151.2033 H   0  0  0  0  0  0  0  0  0  0  0  0  # atno 10167 bound_to 10162
  156.0674  130.4246  150.1552 H   0  0  0  0  0  0  0  0  0  0  0  0  # atno 10718 bound_to 10713
  154.8359  135.4483  154.1225 H   0  0  0  0  0  0  0  0  0  0  0  0  # atno 10763 bound_to 10752
  153.2457  135.6921  153.7740 H   0  0  0  0  0  0  0  0  0  0  0  0  # atno 10764 bound_to 10752
  153.7071  135.3362  155.3214 H   0  0  0  0  0  0  0  0  0  0  0  0  # atno 10765 bound_to 10752
  139.9028  134.8151  156.2321 H   0  0  0  0  0  0  0  0  0  0  0  0  # atno 11005 bound_to 11000
  146.3203  140.3331  142.8642 LP  0  0  0  0  0  0  0  0  0  0  0  0  # atno 17320 bound_to 7965
  144.9218  140.7876  143.5743 LP  0  0  0  0  0  0  0  0  0  0  0  0  # atno 17321 bound_to 7965
  140.7541  143.6137  150.8581 LP  0  0  0  0  0  0  0  0  0  0  0  0  # atno 17342 bound_to 10162
  139.9786  143.5977  152.2950 LP  0  0  0  0  0  0  0  0  0  0  0  0  # atno 17343 bound_to 10162
  156.9609  130.9804  151.3479 LP  0  0  0  0  0  0  0  0  0  0  0  0  # atno 17370 bound_to 10713
  157.5725  130.8320  149.8411 LP  0  0  0  0  0  0  0  0  0  0  0  0  # atno 17371 bound_to 10713
  141.0339  133.6974  156.1478 LP  0  0  0  0  0  0  0  0  0  0  0  0  # atno 17394 bound_to 11000
  140.7056  134.4517  157.5584 LP  0  0  0  0  0  0  0  0  0  0  0  0  # atno 17395 bound_to 11000

$$$$
