AV-unprocessed.smi:184|AV-procd|sdf|1462|dock4
  -GOLD-   2262019273D 1   1.00000     0.00000
 Structure written by MMmdl.
 54 58  0  0  0  0  0  0  0  0  1 V2000
  140.9192  135.1405  154.0039 O   0  0  0  0  0  0  0  0  0  0  0  0
  142.0188  135.0404  153.4645 C   0  0  0  0  0  0  0  0  0  0  0  0
  143.2246  135.7920  154.0572 C   0  0  0  0  0  0  0  0  0  0  0  0
  144.5061  135.5781  153.3633 N   0  0  0  0  0  0  0  0  0  0  0  0
  145.5426  135.9927  154.1311 C   0  0  0  0  0  0  0  0  0  0  0  0
  145.8421  135.3371  155.2839 N   0  0  0  0  0  0  0  0  0  0  0  0
  146.8506  135.7608  156.0514 C   0  0  0  0  0  0  0  0  0  0  0  0
  147.6650  136.8010  155.8605 N   0  0  0  0  0  0  0  0  0  0  0  0
  147.3590  137.4669  154.7103 C   0  0  0  0  0  0  0  0  0  0  0  0
  146.3180  137.1352  153.7985 C   0  0  0  0  0  0  0  0  0  0  0  0
  146.3003  138.0395  152.7448 N   0  0  0  0  0  0  0  0  0  0  0  0
  147.2783  138.8600  153.0174 C   0  0  0  0  0  0  0  0  0  0  0  0
  147.9744  138.5847  154.1738 N   0  0  0  0  0  0  0  0  0  0  0  0
  149.1036  139.3313  154.7104 C   0  0  0  0  0  0  0  0  0  0  0  0
  148.9045  140.8719  154.7074 C   0  0  0  0  0  0  0  0  0  0  0  0
  149.1443  141.3306  153.3896 O   0  0  0  0  0  0  0  0  0  0  0  0
  147.4576  141.2630  155.0693 C   0  0  0  0  0  0  0  0  0  0  0  0
  147.1858  141.1077  156.5765 C   0  0  0  0  0  0  0  0  0  0  0  0
  148.1291  141.8683  157.3237 O   0  0  0  0  0  0  0  0  0  0  0  0
  149.4728  141.4439  157.1226 C   0  0  0  0  0  0  0  0  0  0  0  0
  149.8652  141.6325  155.6467 C   0  0  0  0  0  0  0  0  0  0  0  0
  144.6707  134.3354  152.5989 C   0  0  2  0  0  0  0  0  0  0  0  0
  145.9722  134.2833  151.7601 C   0  0  0  0  0  0  0  0  0  0  0  0
  146.0738  132.9641  150.9749 C   0  0  0  0  0  0  0  0  0  0  0  0
  144.8425  132.7388  150.0831 C   0  0  0  0  0  0  0  0  0  0  0  0
  143.5397  132.8255  150.8943 C   0  0  0  0  0  0  0  0  0  0  0  0
  143.4605  134.1607  151.6545 C   0  0  1  0  0  0  0  0  0  0  0  0
  142.2003  134.2738  152.3779 N   0  0  0  0  0  0  0  0  0  0  0  0
  142.9934  136.8580  154.0489 H   0  0  0  0  0  0  0  0  0  0  0  0
  143.3115  135.4966  155.1048 H   0  0  0  0  0  0  0  0  0  0  0  0
  147.0295  135.1851  156.9475 H   0  0  0  0  0  0  0  0  0  0  0  0
  147.5256  139.6921  152.3740 H   0  0  0  0  0  0  0  0  0  0  0  0
  149.2847  138.9795  155.7272 H   0  0  0  0  0  0  0  0  0  0  0  0
  149.9900  139.0552  154.1400 H   0  0  0  0  0  0  0  0  0  0  0  0
  149.2502  140.5797  152.8256 H   0  0  0  0  0  0  0  0  0  0  0  0
  147.2798  142.3051  154.7985 H   0  0  0  0  0  0  0  0  0  0  0  0
  146.7432  140.6730  154.4940 H   0  0  0  0  0  0  0  0  0  0  0  0
  146.1842  141.4686  156.8108 H   0  0  0  0  0  0  0  0  0  0  0  0
  147.2202  140.0615  156.8828 H   0  0  0  0  0  0  0  0  0  0  0  0
  150.1266  142.0393  157.7599 H   0  0  0  0  0  0  0  0  0  0  0  0
  149.5875  140.4065  157.4369 H   0  0  0  0  0  0  0  0  0  0  0  0
  150.9011  141.3333  155.4872 H   0  0  0  0  0  0  0  0  0  0  0  0
  149.8259  142.6994  155.4215 H   0  0  0  0  0  0  0  0  0  0  0  0
  144.6805  133.5057  153.3091 H   0  0  0  0  0  0  0  0  0  0  0  0
  145.9994  135.1264  151.0681 H   0  0  0  0  0  0  0  0  0  0  0  0
  146.8562  134.3767  152.3899 H   0  0  0  0  0  0  0  0  0  0  0  0
  146.9780  132.9635  150.3653 H   0  0  0  0  0  0  0  0  0  0  0  0
  146.1732  132.1329  151.6743 H   0  0  0  0  0  0  0  0  0  0  0  0
  144.8271  133.4874  149.2900 H   0  0  0  0  0  0  0  0  0  0  0  0
  144.9118  131.7686  149.5902 H   0  0  0  0  0  0  0  0  0  0  0  0
  142.6844  132.7205  150.2257 H   0  0  0  0  0  0  0  0  0  0  0  0
  143.4884  131.9932  151.5977 H   0  0  0  0  0  0  0  0  0  0  0  0
  143.4663  134.9716  150.9236 H   0  0  0  0  0  0  0  0  0  0  0  0
  141.4061  133.7717  152.0080 H   0  0  0  0  0  0  0  0  0  0  0  0
  1  2  2  0  0  0  0
  2 28  1  0  0  0  0
  2  3  1  0  0  0  0
  3  4  1  0  0  0  0
  3 29  1  0  0  0  0
  3 30  1  0  0  0  0
  4  5  1  0  0  0  0
  4 22  1  0  0  0  0
  5 10  1  0  0  0  0
  5  6  2  0  0  0  0
  6  7  1  0  0  0  0
  7  8  2  0  0  0  0
  7 31  1  0  0  0  0
  8  9  1  0  0  0  0
  9 13  1  0  0  0  0
  9 10  2  0  0  0  0
 10 11  1  0  0  0  0
 11 12  2  0  0  0  0
 12 13  1  0  0  0  0
 12 32  1  0  0  0  0
 13 14  1  0  0  0  0
 14 15  1  0  0  0  0
 14 33  1  0  0  0  0
 14 34  1  0  0  0  0
 15 21  1  0  0  0  0
 15 16  1  0  0  0  0
 15 17  1  0  0  0  0
 16 35  1  0  0  0  0
 17 18  1  0  0  0  0
 17 36  1  0  0  0  0
 17 37  1  0  0  0  0
 18 19  1  0  0  0  0
 18 38  1  0  0  0  0
 18 39  1  0  0  0  0
 19 20  1  0  0  0  0
 20 21  1  0  0  0  0
 20 40  1  0  0  0  0
 20 41  1  0  0  0  0
 21 42  1  0  0  0  0
 21 43  1  0  0  0  0
 22 27  1  0  0  0  0
 22 23  1  0  0  0  0
 22 44  1  0  0  0  0
 23 24  1  0  0  0  0
 23 45  1  0  0  0  0
 23 46  1  0  0  0  0
 24 25  1  0  0  0  0
 24 47  1  0  0  0  0
 24 48  1  0  0  0  0
 25 26  1  0  0  0  0
 25 49  1  0  0  0  0
 25 50  1  0  0  0  0
 26 27  1  0  0  0  0
 26 51  1  0  0  0  0
 26 52  1  0  0  0  0
 27 28  1  0  0  0  0
 27 53  1  0  0  0  0
 28 54  1  0  0  0  0
M  END
> <s_m_source_file>
AV-unprocessed.smi

> <i_m_source_file_index>
184

> <i_lp_mmshare_version>
43012

> <i_f3d_flags>
0

> <s_epik_input>
W0NIMl0xW0NIMl1bQ0gyXVtDSDJdW0NASF0oW0NASF0xMilbTkhdQyg9TylbQ0gyXU4yYyhuW2NIXW4zKWMoYzM0KW5bY0hdbjRbQ0gyXUM1KFtPSF0pW0NIMl1bQ0gyXU9bQ0gyXVtDSDJdNQ==

> <s_epik_cmdline>
J2VwaWtfcHl0aG9uJywgJy1waCcsICc3LjAnLCAnLXRuJywgJzgnLCAnLW1hJywgJzIwMCcsICctbWV0YWxfYmluZGluZycsICctaW1hZScsICc8aW5maWxlLm1hZT4nLCAnLW9tYWUnLCAnPG91dGZpbGUubWFlPic=

> <r_lp_tautomer_probability>
1

> <r_epik_Ionization_Penalty>
0.000822761

> <r_epik_Ionization_Penalty_Charging>
0

> <r_epik_Ionization_Penalty_Neutral>
0.000822761

> <r_epik_State_Penalty>
0.000403048

> <r_epik_Charging_Adjusted_Penalty>
0.000403048

> <i_epik_Tot_Q>
0

> <i_epik_Tot_abs_Q>
0

> <r_epik_Metal_State_Penalty>
-0

> <b_epik_Metal_Only>
0

> <s_lp_Force_Field>
OPLS_2005

> <r_lp_Energy>
34.5881

> <b_lp_Chiralities_Consistent>
1

> <s_lp_Variant>
AV-unprocessed.smi:184-2

> <Gold.Version>
5.8.1

> <Gold.Id.Protein>
6NUR|6NUR_protein|mol2

> <Gold.PLP.Fitness>
48.7284

> <Gold.PLP.PLP>
-38.1442

> <Gold.PLP.part.hbond>
-4.1880

> <Gold.PLP.part.metal>
0.0000

> <Gold.PLP.part.buried>
-5.7226

> <Gold.PLP.part.nonpolar>
-28.4153

> <Gold.PLP.part.repulsive>
0.7260

> <Gold.PLP.ligand.clash>
0.0000

> <Gold.PLP.ligand.torsion>
0.6211

> <Gold.PLP.Chemscore.Hbond>
2.8320

> <Gold.PLP.Chemscore.CHOScore>
0.9829

> <Gold.PLP.Chemscore.Metal>
0.0000

> <Gold.Chemscore.Hbonds>
donor molecule, donor type, donor heavy atom, donor atom, acceptor molecule, acceptor atom, score
      L1  H    16    35       P1  7957  0.88
      P1  H  8011  8017       L1    16  0.73
      P1  H 11000 11005       L1     1  1.00
      L1  C    12    32       P1  7957  0.95

> <Gold.PLP.Chemscore.Internal.Correction>
0.3817

> <Gold.Rescore>
     Score         DG    S(hbond)    S(metal)    S(lipo)     H(rot)  DE(clash)    DE(int)     intcor
     16.16     -16.93       2.35        0.00      78.15       2.17       0.07       0.71       ----

> <Gold.Chemscore.Fitness>
16.1559

> <Gold.Chemscore.DG>
-16.9279

> <Gold.Chemscore.ZeroCoef>
-5.4800

> <Gold.Chemscore.Hbond>
2.3526

> <Gold.Chemscore.Metal>
0.0000

> <Gold.Chemscore.Lipo>
78.1505

> <Gold.Chemscore.Internal_Hbond>
0.0000

> <Gold.Chemscore.DEClash>
0.0668

> <Gold.Chemscore.DEInternal>
0.7053

> <Gold.Chemscore.Rot>
2.1693

> <Gold.Chemscore.Internal.Correction>
   9.000000E+99

> <Gold.Chemscore.Hbonds>
donor molecule, donor type, donor heavy atom, donor atom, acceptor molecule, acceptor atom, score
      L1  H    16    35       P1  7957  0.87
      P1  H  8011  8017       L1    16  0.09
      P1  H 11000 11005       L1     1  0.95

> <Gold.Chemscore.Hbond.Weighted>
-7.8577

> <Gold.Chemscore.Metal.Weighted>
-0.0000

> <Gold.Chemscore.Lipo.Weighted>
-9.1436

> <Gold.Chemscore.Internal_Hbond.Weighted>
0.0000

> <Gold.Chemscore.DEClash.Weighted>
0.0668

> <Gold.Chemscore.DEInternal.Weighted>
0.7053

> <Gold.Chemscore.Rot.Weighted>
5.5533

> <Gold.Chemscore.Internal.Correction.Weighted>
   9.000000E+99

> <Gold.Protein.RotatedTorsions>
[ 6907 6896 6895 6894 ] final  135.89 input  -60.11 | X-H torsion
[ 7974 7965 7964 7962 ] final -138.60 input  175.53 | X-H torsion
[ 8008 7997 7996 7995 ] final -131.59 input   59.86 | X-H torsion
[ 10167 10162 10161 10158 ] final -124.33 input  -65.29 | X-H torsion
[ 10718 10713 10712 10709 ] final  -33.42 input   66.30 | X-H torsion
[ 10763 10752 10751 10750 ] final  -56.56 input  -60.55 | X-H torsion
[ 11005 11000 10999 10996 ] final   30.19 input  -57.11 | X-H torsion

> <Gold.Protein.ActiveResidues>
 VAL166  LYS551  ARG553  GLY616  TRP617  ASP618  TYR619  PRO620  LYS621  CYS622 
 ASP623  PHE694  ASN695  SER759  ASP760  ASP761  ALA762  ILE779  LEU786  VAL792 
 PHE793  MET794  SER795  GLU796  ALA797  LYS798  CYS799  TRP800  GLU811  SER814 

> <Gold.Protein.RotatedAtoms>
  152.2954  133.5602  159.5583 H   0  0  0  0  0  0  0  0  0  0  0  0  # atno 6907 bound_to 6896
  150.7253  134.0368  159.3761 H   0  0  0  0  0  0  0  0  0  0  0  0  # atno 6908 bound_to 6896
  151.8271  135.0633  160.0483 H   0  0  0  0  0  0  0  0  0  0  0  0  # atno 6909 bound_to 6896
  144.8745  140.6417  143.5245 H   0  0  0  0  0  0  0  0  0  0  0  0  # atno 7974 bound_to 7965
  155.3149  140.0459  157.3036 H   0  0  0  0  0  0  0  0  0  0  0  0  # atno 8008 bound_to 7997
  154.5412  140.2288  155.8604 H   0  0  0  0  0  0  0  0  0  0  0  0  # atno 8009 bound_to 7997
  156.1882  140.3057  155.9287 H   0  0  0  0  0  0  0  0  0  0  0  0  # atno 8010 bound_to 7997
  139.9939  143.5611  152.2331 H   0  0  0  0  0  0  0  0  0  0  0  0  # atno 10167 bound_to 10162
  156.3629  130.4326  149.7609 H   0  0  0  0  0  0  0  0  0  0  0  0  # atno 10718 bound_to 10713
  154.2086  135.6398  153.5108 H   0  0  0  0  0  0  0  0  0  0  0  0  # atno 10763 bound_to 10752
  152.9995  135.5468  154.6239 H   0  0  0  0  0  0  0  0  0  0  0  0  # atno 10764 bound_to 10752
  154.5670  135.2913  155.0838 H   0  0  0  0  0  0  0  0  0  0  0  0  # atno 10765 bound_to 10752
  140.2970  134.2800  155.7762 H   0  0  0  0  0  0  0  0  0  0  0  0  # atno 11005 bound_to 11000
  145.4068  139.1587  143.4148 LP  0  0  0  0  0  0  0  0  0  0  0  0  # atno 17320 bound_to 7965
  146.2953  140.4168  142.8724 LP  0  0  0  0  0  0  0  0  0  0  0  0  # atno 17321 bound_to 7965
  139.6320  144.7645  151.2517 LP  0  0  0  0  0  0  0  0  0  0  0  0  # atno 17342 bound_to 10162
  140.7444  143.6464  150.8288 LP  0  0  0  0  0  0  0  0  0  0  0  0  # atno 17343 bound_to 10162
  156.4766  130.8021  151.3037 LP  0  0  0  0  0  0  0  0  0  0  0  0  # atno 17370 bound_to 10713
  157.7475  131.0019  150.2980 LP  0  0  0  0  0  0  0  0  0  0  0  0  # atno 17371 bound_to 10713
  141.2135  133.7621  156.9710 LP  0  0  0  0  0  0  0  0  0  0  0  0  # atno 17394 bound_to 11000
  140.1143  134.9457  157.2112 LP  0  0  0  0  0  0  0  0  0  0  0  0  # atno 17395 bound_to 11000

$$$$
