AV-unprocessed.smi:12|AV-procd|sdf|64|dock4
  -GOLD-   2262015183D 1   1.00000     0.00000
 Structure written by MMmdl.
 41 44  0  0  0  0  0  0  0  0  1 V2000
  145.0307  143.6158  156.4340 C   0  0  0  0  0  0  0  0  0  0  0  0
  145.5462  142.3082  155.8600 C   0  0  0  0  0  0  0  0  0  0  0  0
  146.7574  142.2221  155.2610 C   0  0  0  0  0  0  0  0  0  0  0  0
  147.1772  141.0194  154.7659 N   0  0  0  0  0  0  0  0  0  0  0  0
  146.3351  139.8884  154.8643 C   0  0  0  0  0  0  0  0  0  0  0  0
  145.1637  139.8910  155.4206 N   0  0  0  0  0  0  0  0  0  0  0  0
  144.6904  141.0997  155.9662 C   0  0  0  0  0  0  0  0  0  0  0  0
  143.5902  141.1479  156.5146 O   0  0  0  0  0  0  0  0  0  0  0  0
  146.9488  138.8245  154.2744 O   0  0  0  0  0  0  0  0  0  0  0  0
  148.2391  139.2251  153.7908 C   0  0  2  0  0  0  0  0  0  0  0  0
  149.4020  138.5655  154.5376 C   0  0  2  0  0  0  0  0  0  0  0  0
  148.9916  137.9858  155.7640 O   0  0  0  0  0  0  0  0  0  0  0  0
  150.3551  139.7439  154.7871 C   0  0  2  0  0  0  0  0  0  0  0  0
  151.3366  139.6085  155.9618 C   0  0  0  0  0  0  0  0  0  0  0  0
  151.3806  140.8269  156.6874 O   0  0  0  0  0  0  0  0  0  0  0  0
  152.1771  140.9369  157.7692 C   0  0  0  0  0  0  0  0  0  0  0  0
  152.9174  140.0344  158.1653 O   0  0  0  0  0  0  0  0  0  0  0  0
  152.0674  142.2642  158.4408 C   0  0  0  0  0  0  0  0  0  0  0  0
  151.4654  143.3420  157.7501 C   0  0  0  0  0  0  0  0  0  0  0  0
  151.3530  144.6090  158.3549 C   0  0  0  0  0  0  0  0  0  0  0  0
  151.8405  144.8136  159.6588 C   0  0  0  0  0  0  0  0  0  0  0  0
  152.4396  143.7492  160.3574 C   0  0  0  0  0  0  0  0  0  0  0  0
  152.5529  142.4812  159.7541 C   0  0  0  0  0  0  0  0  0  0  0  0
  149.4829  140.8481  154.9773 O   0  0  0  0  0  0  0  0  0  0  0  0
  148.4320  140.7261  154.0739 C   0  0  2  0  0  0  0  0  0  0  0  0
  145.7498  144.4227  156.2889 H   0  0  0  0  0  0  0  0  0  0  0  0
  144.8471  143.5166  157.5043 H   0  0  0  0  0  0  0  0  0  0  0  0
  144.0975  143.9040  155.9490 H   0  0  0  0  0  0  0  0  0  0  0  0
  147.3985  143.0871  155.1735 H   0  0  0  0  0  0  0  0  0  0  0  0
  148.3144  139.0619  152.7151 H   0  0  0  0  0  0  0  0  0  0  0  0
  149.8761  137.7884  153.9373 H   0  0  0  0  0  0  0  0  0  0  0  0
  149.1231  138.6171  156.4546 H   0  0  0  0  0  0  0  0  0  0  0  0
  150.9211  139.9385  153.8737 H   0  0  0  0  0  0  0  0  0  0  0  0
  151.0009  138.8110  156.6261 H   0  0  0  0  0  0  0  0  0  0  0  0
  152.3326  139.3360  155.6103 H   0  0  0  0  0  0  0  0  0  0  0  0
  151.0846  143.2097  156.7476 H   0  0  0  0  0  0  0  0  0  0  0  0
  150.8926  145.4243  157.8165 H   0  0  0  0  0  0  0  0  0  0  0  0
  151.7551  145.7857  160.1219 H   0  0  0  0  0  0  0  0  0  0  0  0
  152.8142  143.9051  161.3585 H   0  0  0  0  0  0  0  0  0  0  0  0
  153.0187  141.6864  160.3180 H   0  0  0  0  0  0  0  0  0  0  0  0
  148.4746  141.3784  153.2009 H   0  0  0  0  0  0  0  0  0  0  0  0
  1  2  1  0  0  0  0
  1 26  1  0  0  0  0
  1 27  1  0  0  0  0
  1 28  1  0  0  0  0
  2  7  1  0  0  0  0
  2  3  2  0  0  0  0
  3  4  1  0  0  0  0
  3 29  1  0  0  0  0
  4 25  1  0  0  0  0
  4  5  1  0  0  0  0
  5  6  2  0  0  0  0
  5  9  1  0  0  0  0
  6  7  1  0  0  0  0
  7  8  2  0  0  0  0
  9 10  1  0  0  0  0
 10 25  1  0  0  0  0
 10 11  1  0  0  0  0
 10 30  1  0  0  0  0
 11 12  1  0  0  0  0
 11 13  1  0  0  0  0
 11 31  1  0  0  0  0
 12 32  1  0  0  0  0
 13 14  1  0  0  0  0
 13 24  1  0  0  0  0
 13 33  1  0  0  0  0
 14 15  1  0  0  0  0
 14 34  1  0  0  0  0
 14 35  1  0  0  0  0
 15 16  1  0  0  0  0
 16 17  2  0  0  0  0
 16 18  1  0  0  0  0
 18 23  1  0  0  0  0
 18 19  2  0  0  0  0
 19 20  1  0  0  0  0
 19 36  1  0  0  0  0
 20 21  2  0  0  0  0
 20 37  1  0  0  0  0
 21 22  1  0  0  0  0
 21 38  1  0  0  0  0
 22 23  2  0  0  0  0
 22 39  1  0  0  0  0
 23 40  1  0  0  0  0
 24 25  1  0  0  0  0
 25 41  1  0  0  0  0
M  END
> <s_m_source_file>
AV-unprocessed.smi

> <i_m_source_file_index>
12

> <i_lp_mmshare_version>
43012

> <i_f3d_flags>
0

> <s_epik_input>
W0NIM11jKFtjSF0xKWMoPU8pbmMobjEyKU9bQ0BIXTNbQ0BASF0yT1tDQEBIXShbQ0BASF0zW09IXSlbQ0gyXU9DKD1PKWM0W2NIXVtjSF1bY0hdW2NIXVtjSF00

> <s_epik_cmdline>
J2VwaWtfcHl0aG9uJywgJy1waCcsICc3LjAnLCAnLXRuJywgJzgnLCAnLW1hJywgJzIwMCcsICctbWV0YWxfYmluZGluZycsICctaW1hZScsICc8aW5maWxlLm1hZT4nLCAnLW9tYWUnLCAnPG91dGZpbGUubWFlPic=

> <r_lp_tautomer_probability>
0.933681

> <r_epik_Ionization_Penalty>
0.00399549

> <r_epik_Ionization_Penalty_Charging>
3.09373e-09

> <r_epik_Ionization_Penalty_Neutral>
0.00399549

> <r_epik_State_Penalty>
0.00284953

> <r_epik_Charging_Adjusted_Penalty>
0.00284953

> <i_epik_Tot_Q>
0

> <i_epik_Tot_abs_Q>
0

> <r_epik_Metal_State_Penalty>
-0

> <b_epik_Metal_Only>
0

> <s_epik_Chemistry_Notes>
This compound has an ester and may undergo hydrolysis at high or low pH. This compound contains an acetal/aminal-like group ( X-CH(R)-Y where X, Y are N, S, or O) that may be acid/base labile, releasing an aldehyde.

> <s_lp_Force_Field>
OPLS_2005

> <r_lp_Energy>
52.4355

> <b_lp_Chiralities_Consistent>
1

> <s_lp_Variant>
AV-unprocessed.smi:12-4

> <Gold.Version>
5.8.1

> <Gold.Id.Protein>
6NUR|6NUR_protein|mol2

> <Gold.PLP.Fitness>
45.9627

> <Gold.PLP.PLP>
-41.3997

> <Gold.PLP.part.hbond>
-1.0000

> <Gold.PLP.part.metal>
0.0000

> <Gold.PLP.part.buried>
-3.3280

> <Gold.PLP.part.nonpolar>
-36.8211

> <Gold.PLP.part.repulsive>
0.4300

> <Gold.PLP.ligand.clash>
0.0000

> <Gold.PLP.ligand.torsion>
0.7218

> <Gold.PLP.Chemscore.Hbond>
1.0000

> <Gold.PLP.Chemscore.CHOScore>
1.0000

> <Gold.PLP.Chemscore.Metal>
0.0000

> <Gold.Chemscore.Hbonds>
donor molecule, donor type, donor heavy atom, donor atom, acceptor molecule, acceptor atom, score
      P1  H  7997  8008       L1    17  1.00
      L1  C     3    29       P1  8028  1.00

> <Gold.PLP.Chemscore.Internal.Correction>
0.0067

> <Gold.Rescore>
     Score         DG    S(hbond)    S(metal)    S(lipo)     H(rot)  DE(clash)    DE(int)     intcor
     14.20     -14.89       0.89        0.00     102.64       2.18       0.03       0.66       ----

> <Gold.Chemscore.Fitness>
14.2006

> <Gold.Chemscore.DG>
-14.8867

> <Gold.Chemscore.ZeroCoef>
-5.4800

> <Gold.Chemscore.Hbond>
0.8916

> <Gold.Chemscore.Metal>
0.0000

> <Gold.Chemscore.Lipo>
102.6442

> <Gold.Chemscore.Internal_Hbond>
0.0000

> <Gold.Chemscore.DEClash>
0.0259

> <Gold.Chemscore.DEInternal>
0.6602

> <Gold.Chemscore.Rot>
2.1800

> <Gold.Chemscore.Internal.Correction>
   9.000000E+99

> <Gold.Chemscore.Hbonds>
donor molecule, donor type, donor heavy atom, donor atom, acceptor molecule, acceptor atom, score
      P1  H  7997  8008       L1    17  0.51

> <Gold.Chemscore.Hbond.Weighted>
-2.9780

> <Gold.Chemscore.Metal.Weighted>
-0.0000

> <Gold.Chemscore.Lipo.Weighted>
-12.0094

> <Gold.Chemscore.Internal_Hbond.Weighted>
0.0000

> <Gold.Chemscore.DEClash.Weighted>
0.0259

> <Gold.Chemscore.DEInternal.Weighted>
0.6602

> <Gold.Chemscore.Rot.Weighted>
5.5807

> <Gold.Chemscore.Internal.Correction.Weighted>
   9.000000E+99

> <Gold.Protein.RotatedTorsions>
[ 6907 6896 6895 6894 ] final   73.72 input  -60.11 | X-H torsion
[ 7974 7965 7964 7962 ] final  144.69 input  175.53 | X-H torsion
[ 8008 7997 7996 7995 ] final  -80.89 input   59.86 | X-H torsion
[ 10167 10162 10161 10158 ] final -107.58 input  -65.29 | X-H torsion
[ 10718 10713 10712 10709 ] final  136.33 input   66.30 | X-H torsion
[ 10763 10752 10751 10750 ] final  -97.49 input  -60.55 | X-H torsion
[ 11005 11000 10999 10996 ] final   -9.94 input  -57.11 | X-H torsion

> <Gold.Protein.ActiveResidues>
 VAL166  LYS551  ARG553  GLY616  TRP617  ASP618  TYR619  PRO620  LYS621  CYS622 
 ASP623  PHE694  ASN695  SER759  ASP760  ASP761  ALA762  ILE779  LEU786  VAL792 
 PHE793  MET794  SER795  GLU796  ALA797  LYS798  CYS799  TRP800  GLU811  SER814 

> <Gold.Protein.RotatedAtoms>
  152.4938  134.4379  159.9533 H   0  0  0  0  0  0  0  0  0  0  0  0  # atno 6907 bound_to 6896
  151.4361  133.3650  159.2783 H   0  0  0  0  0  0  0  0  0  0  0  0  # atno 6908 bound_to 6896
  150.9120  134.8560  159.7491 H   0  0  0  0  0  0  0  0  0  0  0  0  # atno 6909 bound_to 6896
  144.8814  139.5693  143.5841 H   0  0  0  0  0  0  0  0  0  0  0  0  # atno 7974 bound_to 7965
  154.5928  140.0656  156.9262 H   0  0  0  0  0  0  0  0  0  0  0  0  # atno 8008 bound_to 7997
  155.2265  140.3334  155.4290 H   0  0  0  0  0  0  0  0  0  0  0  0  # atno 8009 bound_to 7997
  156.2267  140.1822  156.7329 H   0  0  0  0  0  0  0  0  0  0  0  0  # atno 8010 bound_to 7997
  140.1755  143.4009  152.1322 H   0  0  0  0  0  0  0  0  0  0  0  0  # atno 10167 bound_to 10162
  157.4477  131.1063  151.0069 H   0  0  0  0  0  0  0  0  0  0  0  0  # atno 10718 bound_to 10713
  154.7332  135.5044  153.8998 H   0  0  0  0  0  0  0  0  0  0  0  0  # atno 10763 bound_to 10752
  153.0970  135.6675  153.9753 H   0  0  0  0  0  0  0  0  0  0  0  0  # atno 10764 bound_to 10752
  153.9549  135.3054  155.3416 H   0  0  0  0  0  0  0  0  0  0  0  0  # atno 10765 bound_to 10752
  140.7395  133.8682  155.8956 H   0  0  0  0  0  0  0  0  0  0  0  0  # atno 11005 bound_to 11000
  146.2997  139.7388  142.9100 LP  0  0  0  0  0  0  0  0  0  0  0  0  # atno 17320 bound_to 7965
  145.3947  141.0377  143.3104 LP  0  0  0  0  0  0  0  0  0  0  0  0  # atno 17321 bound_to 7965
  139.5319  144.7168  151.5026 LP  0  0  0  0  0  0  0  0  0  0  0  0  # atno 17342 bound_to 10162
  140.6554  143.8610  150.6830 LP  0  0  0  0  0  0  0  0  0  0  0  0  # atno 17343 bound_to 10162
  157.0910  130.5942  149.5440 LP  0  0  0  0  0  0  0  0  0  0  0  0  # atno 17370 bound_to 10713
  155.9974  130.5046  150.7533 LP  0  0  0  0  0  0  0  0  0  0  0  0  # atno 17371 bound_to 10713
  140.9849  134.1356  157.4461 LP  0  0  0  0  0  0  0  0  0  0  0  0  # atno 17394 bound_to 11000
  139.8809  135.0022  156.6114 LP  0  0  0  0  0  0  0  0  0  0  0  0  # atno 17395 bound_to 11000

$$$$
