AV-unprocessed.smi:54|AV-procd|sdf|557|dock3
  -GOLD-   2262016463D 1   1.00000     0.00000
 Structure written by MMmdl.
 43 45  0  0  0  0  0  0  0  0  2 V2000
  152.4986  144.6805  158.3742 C   0  0  0  0  0  0  0  0  0  0  0  0
  151.8673  143.6905  159.3675 C   0  0  0  0  0  0  0  0  0  0  0  0
  152.9097  143.1606  160.3656 C   0  0  0  0  0  0  0  0  0  0  0  0
  151.1892  142.5313  158.6235 C   0  0  0  0  0  0  0  0  0  0  0  0
  150.0121  142.2623  158.8761 O   0  0  0  0  0  0  0  0  0  0  0  0
  151.9675  141.8856  157.7259 N   0  0  0  0  0  0  0  0  0  0  0  0
  151.6525  140.7946  156.9076 C   0  0  0  0  0  0  0  0  0  0  0  0
  150.4444  140.6672  156.4054 N   0  0  0  0  0  0  0  0  0  0  0  0
  150.3115  139.5284  155.6355 C   0  0  0  0  0  0  0  0  0  0  0  0
  151.2619  138.5829  155.3660 C   0  0  0  0  0  0  0  0  0  0  0  0
  150.7593  137.5752  154.5521 N   0  0  0  0  0  0  0  0  0  0  0  0
  149.5006  137.9701  154.3665 C   0  0  0  0  0  0  0  0  0  0  0  0
  149.1586  139.1269  154.9714 N   0  0  0  0  0  0  0  0  0  0  0  0
  147.8343  139.8298  154.9542 C   0  0  2  0  0  0  0  0  0  0  0  0
  146.8367  138.8522  154.9846 O   0  0  0  0  0  0  0  0  0  0  0  0
  146.0093  138.9238  153.8233 C   0  0  2  0  0  0  0  0  0  0  0  0
  145.5362  137.5228  153.3983 C   0  0  0  0  0  0  0  0  0  0  0  0
  144.6705  137.6203  152.2876 O   0  0  0  0  0  0  0  0  0  0  0  0
  146.8415  139.6900  152.7838 C   0  0  2  0  0  0  0  0  0  0  0  0
  147.6779  138.8217  152.0372 O   0  0  0  0  0  0  0  0  0  0  0  0
  147.6293  140.6474  153.6663 C   0  0  2  0  0  0  0  0  0  0  0  0
  148.8082  141.1375  153.0514 O   0  0  0  0  0  0  0  0  0  0  0  0
  152.6010  138.7920  155.9655 C   0  0  0  0  0  0  0  0  0  0  0  0
  153.4885  137.9691  155.7496 O   0  0  0  0  0  0  0  0  0  0  0  0
  152.7342  139.9183  156.7296 N   0  5  0  0  0  0  0  0  0  0  0  0
  147.8307  140.4324  155.8630 H   0  0  0  0  0  0  0  0  0  0  0  0
  145.1480  139.5461  154.0739 H   0  0  0  0  0  0  0  0  0  0  0  0
  146.2048  140.2274  152.0802 H   0  0  0  0  0  0  0  0  0  0  0  0
  146.9930  141.4954  153.9225 H   0  0  0  0  0  0  0  0  0  0  0  0
  151.7626  145.0467  157.6574 H   0  0  0  0  0  0  0  0  0  0  0  0
  153.3121  144.2213  157.8109 H   0  0  0  0  0  0  0  0  0  0  0  0
  152.9069  145.5470  158.8949 H   0  0  0  0  0  0  0  0  0  0  0  0
  151.1055  144.2286  159.9343 H   0  0  0  0  0  0  0  0  0  0  0  0
  152.4633  142.4541  161.0666 H   0  0  0  0  0  0  0  0  0  0  0  0
  153.3366  143.9750  160.9511 H   0  0  0  0  0  0  0  0  0  0  0  0
  153.7311  142.6531  159.8579 H   0  0  0  0  0  0  0  0  0  0  0  0
  152.9022  142.2541  157.6281 H   0  0  0  0  0  0  0  0  0  0  0  0
  148.8072  137.3977  153.7687 H   0  0  0  0  0  0  0  0  0  0  0  0
  146.3879  136.9140  153.0936 H   0  0  0  0  0  0  0  0  0  0  0  0
  145.0405  137.0035  154.2189 H   0  0  0  0  0  0  0  0  0  0  0  0
  144.3112  138.4939  152.2626 H   0  0  0  0  0  0  0  0  0  0  0  0
  148.5076  139.2535  151.9006 H   0  0  0  0  0  0  0  0  0  0  0  0
  149.2130  140.4295  152.5736 H   0  0  0  0  0  0  0  0  0  0  0  0
  1  2  1  0  0  0  0
  1 30  1  0  0  0  0
  1 31  1  0  0  0  0
  1 32  1  0  0  0  0
  2  3  1  0  0  0  0
  2  4  1  0  0  0  0
  2 33  1  0  0  0  0
  3 34  1  0  0  0  0
  3 35  1  0  0  0  0
  3 36  1  0  0  0  0
  4  5  2  0  0  0  0
  4  6  1  0  0  0  0
  6 37  1  0  0  0  0
  6  7  1  0  0  0  0
  7 25  1  0  0  0  0
  7  8  2  0  0  0  0
  8  9  1  0  0  0  0
  9 13  1  0  0  0  0
  9 10  2  0  0  0  0
 10 11  1  0  0  0  0
 10 23  1  0  0  0  0
 11 12  2  0  0  0  0
 12 13  1  0  0  0  0
 12 38  1  0  0  0  0
 13 14  1  0  0  0  0
 14 26  1  0  0  0  0
 14 21  1  0  0  0  0
 14 15  1  0  0  0  0
 15 16  1  0  0  0  0
 16 27  1  0  0  0  0
 16 17  1  0  0  0  0
 16 19  1  0  0  0  0
 17 18  1  0  0  0  0
 17 39  1  0  0  0  0
 17 40  1  0  0  0  0
 18 41  1  0  0  0  0
 19 28  1  0  0  0  0
 19 20  1  0  0  0  0
 19 21  1  0  0  0  0
 20 42  1  0  0  0  0
 21 29  1  0  0  0  0
 21 22  1  0  0  0  0
 22 43  1  0  0  0  0
 23 24  2  0  0  0  0
 23 25  1  0  0  0  0
M  CHG  1  25  -1
M  END
> <s_m_source_file>
AV-unprocessed.smi

> <i_m_source_file_index>
54

> <i_lp_mmshare_version>
43012

> <i_f3d_flags>
0

> <s_epik_input>
W0NIM11bQ0hdKFtDSDNdKUMoPU8pW05IXWMobjEpW25IXWMoPU8pYyhjMTIpbltjSF1uMltDQEBIXTNPW0NASF0oW0NIMl1bT0hdKVtDQEBIXShbT0hdKVtDQEhdM1tPSF0=

> <s_epik_cmdline>
J2VwaWtfcHl0aG9uJywgJy1waCcsICc3LjAnLCAnLXRuJywgJzgnLCAnLW1hJywgJzIwMCcsICctbWV0YWxfYmluZGluZycsICctaW1hZScsICc8aW5maWxlLm1hZT4nLCAnLW9tYWUnLCAnPG91dGZpbGUubWFlPic=

> <r_lp_tautomer_probability>
0.85571

> <r_epik_Ionization_Penalty>
1.75936

> <r_epik_Ionization_Penalty_Charging>
4.55893e-11

> <r_epik_Ionization_Penalty_Neutral>
1.75936

> <r_epik_State_Penalty>
1.72072

> <r_epik_Charging_Adjusted_Penalty>
1.72072

> <i_epik_Tot_Q>
-1

> <i_epik_Tot_abs_Q>
1

> <r_epik_Metal_State_Penalty>
0.400338

> <b_epik_Metal_Only>
1

> <s_epik_Chemistry_Notes>
This compound contains an acetal/aminal-like group ( X-CH(R)-Y where X, Y are N, S, or O) that may be acid/base labile, releasing an aldehyde.

> <s_lp_Force_Field>
OPLS_2005

> <r_lp_Energy>
61.4874

> <b_lp_Chiralities_Consistent>
1

> <s_lp_Variant>
AV-unprocessed.smi:54-29

> <Gold.Version>
5.8.1

> <Gold.Id.Protein>
6NUR|6NUR_protein|mol2

> <Gold.PLP.Fitness>
55.9922

> <Gold.PLP.PLP>
-37.5914

> <Gold.PLP.part.hbond>
-8.5404

> <Gold.PLP.part.metal>
0.0000

> <Gold.PLP.part.buried>
-0.3902

> <Gold.PLP.part.nonpolar>
-28.5726

> <Gold.PLP.part.repulsive>
0.3988

> <Gold.PLP.ligand.clash>
0.0000

> <Gold.PLP.ligand.torsion>
1.0196

> <Gold.PLP.Chemscore.Hbond>
5.6389

> <Gold.PLP.Chemscore.CHOScore>
1.0000

> <Gold.PLP.Chemscore.Metal>
0.0000

> <Gold.Chemscore.Hbonds>
donor molecule, donor type, donor heavy atom, donor atom, acceptor molecule, acceptor atom, score
      L1  H    18    41       P1 10175  0.93
      L1  H    20    42       P1  7957  0.98
      L1  H    22    43       P1  7957  0.77
      P1  H  7954  7966       L1    20  0.01
      P1  H  7997  8009       L1    25  2.00
      P1  H  8011  8017       L1    22  0.75
      L1  C    12    38       P1  7948  1.00

> <Gold.PLP.Chemscore.Internal.Correction>
0.5234

> <Gold.Rescore>
     Score         DG    S(hbond)    S(metal)    S(lipo)     H(rot)  DE(clash)    DE(int)     intcor
     14.04     -16.95       4.23        0.00      65.06       4.02       0.09       2.82       ----

> <Gold.Chemscore.Fitness>
14.0383

> <Gold.Chemscore.DG>
-16.9462

> <Gold.Chemscore.ZeroCoef>
-5.4800

> <Gold.Chemscore.Hbond>
4.2347

> <Gold.Chemscore.Metal>
0.0000

> <Gold.Chemscore.Lipo>
65.0562

> <Gold.Chemscore.Internal_Hbond>
0.0000

> <Gold.Chemscore.DEClash>
0.0924

> <Gold.Chemscore.DEInternal>
2.8155

> <Gold.Chemscore.Rot>
4.0192

> <Gold.Chemscore.Internal.Correction>
   9.000000E+99

> <Gold.Chemscore.Hbonds>
donor molecule, donor type, donor heavy atom, donor atom, acceptor molecule, acceptor atom, score
      L1  H    18    41       P1 10175  0.89
      L1  H    20    42       P1  7957  0.90
      L1  H    22    43       P1  7957  0.73
      P1  H  7997  8009       L1    25  0.25
      P1  H  8011  8017       L1    22  0.09

> <Gold.Chemscore.Hbond.Weighted>
-14.1438

> <Gold.Chemscore.Metal.Weighted>
-0.0000

> <Gold.Chemscore.Lipo.Weighted>
-7.6116

> <Gold.Chemscore.Internal_Hbond.Weighted>
0.0000

> <Gold.Chemscore.DEClash.Weighted>
0.0924

> <Gold.Chemscore.DEInternal.Weighted>
2.8155

> <Gold.Chemscore.Rot.Weighted>
10.2893

> <Gold.Chemscore.Internal.Correction.Weighted>
   9.000000E+99

> <Gold.Protein.RotatedTorsions>
[ 6907 6896 6895 6894 ] final  -41.98 input  -60.11 | X-H torsion
[ 7974 7965 7964 7962 ] final   40.80 input  175.53 | X-H torsion
[ 8008 7997 7996 7995 ] final  172.67 input   59.86 | X-H torsion
[ 10167 10162 10161 10158 ] final  -55.39 input  -65.29 | X-H torsion
[ 10718 10713 10712 10709 ] final   80.21 input   66.30 | X-H torsion
[ 10763 10752 10751 10750 ] final -142.61 input  -60.55 | X-H torsion
[ 11005 11000 10999 10996 ] final  -89.95 input  -57.11 | X-H torsion

> <Gold.Protein.ActiveResidues>
 VAL166  LYS551  ARG553  GLY616  TRP617  ASP618  TYR619  PRO620  LYS621  CYS622 
 ASP623  PHE694  ASN695  SER759  ASP760  ASP761  ALA762  ILE779  LEU786  VAL792 
 PHE793  MET794  SER795  GLU796  ALA797  LYS798  CYS799  TRP800  GLU811  SER814 

> <Gold.Protein.RotatedAtoms>
  150.9605  134.8994  159.7727 H   0  0  0  0  0  0  0  0  0  0  0  0  # atno 6907 bound_to 6896
  152.5154  134.3679  159.9318 H   0  0  0  0  0  0  0  0  0  0  0  0  # atno 6908 bound_to 6896
  151.3691  133.3821  159.2732 H   0  0  0  0  0  0  0  0  0  0  0  0  # atno 6909 bound_to 6896
  146.0876  139.5491  142.9497 H   0  0  0  0  0  0  0  0  0  0  0  0  # atno 7974 bound_to 7965
  156.1152  140.1480  156.9283 H   0  0  0  0  0  0  0  0  0  0  0  0  # atno 8008 bound_to 7997
  154.4795  140.0884  156.7386 H   0  0  0  0  0  0  0  0  0  0  0  0  # atno 8009 bound_to 7997
  155.4527  140.3435  155.4305 H   0  0  0  0  0  0  0  0  0  0  0  0  # atno 8010 bound_to 7997
  140.6377  143.2491  151.5073 H   0  0  0  0  0  0  0  0  0  0  0  0  # atno 10167 bound_to 10162
  157.6799  130.9949  150.2046 H   0  0  0  0  0  0  0  0  0  0  0  0  # atno 10718 bound_to 10713
  154.8502  135.3491  154.6056 H   0  0  0  0  0  0  0  0  0  0  0  0  # atno 10763 bound_to 10752
  153.6664  135.6987  153.5165 H   0  0  0  0  0  0  0  0  0  0  0  0  # atno 10764 bound_to 10752
  153.2777  135.4273  155.1005 H   0  0  0  0  0  0  0  0  0  0  0  0  # atno 10765 bound_to 10752
  141.1575  133.7662  156.9668 H   0  0  0  0  0  0  0  0  0  0  0  0  # atno 11005 bound_to 11000
  145.6101  141.0341  143.1971 LP  0  0  0  0  0  0  0  0  0  0  0  0  # atno 17320 bound_to 7965
  144.7337  139.7650  143.7337 LP  0  0  0  0  0  0  0  0  0  0  0  0  # atno 17321 bound_to 7965
  139.5587  144.2210  152.1656 LP  0  0  0  0  0  0  0  0  0  0  0  0  # atno 17342 bound_to 10162
  140.1472  144.5148  150.6709 LP  0  0  0  0  0  0  0  0  0  0  0  0  # atno 17343 bound_to 10162
  156.2729  130.3724  149.8013 LP  0  0  0  0  0  0  0  0  0  0  0  0  # atno 17370 bound_to 10713
  156.5724  130.8430  151.3360 LP  0  0  0  0  0  0  0  0  0  0  0  0  # atno 17371 bound_to 10713
  140.1156  134.9449  157.2129 LP  0  0  0  0  0  0  0  0  0  0  0  0  # atno 17394 bound_to 11000
  140.3138  134.2994  155.7261 LP  0  0  0  0  0  0  0  0  0  0  0  0  # atno 17395 bound_to 11000

$$$$
