AV-unprocessed.smi:2244|AV-procd|sdf|9075|dock3
  -GOLD-   2272012283D 1   1.00000     0.00000
 Structure written by MMmdl.
 49 51  0  0  0  0  0  0  0  0  1 V2000
  146.6417  128.7504  155.1248 C   0  0  0  0  0  0  0  0  0  0  0  0
  147.3087  129.1019  153.7784 C   0  0  0  0  0  0  0  0  0  0  0  0
  148.5385  128.1987  153.5498 C   0  0  0  0  0  0  0  0  0  0  0  0
  146.2885  128.7893  152.6605 C   0  0  0  0  0  0  0  0  0  0  0  0
  147.7426  130.5786  153.7826 C   0  0  0  0  0  0  0  0  0  0  0  0
  147.2721  131.5269  152.8467 C   0  0  0  0  0  0  0  0  0  0  0  0
  147.7459  132.8453  152.9565 C   0  0  0  0  0  0  0  0  0  0  0  0
  148.6581  133.1522  153.9864 C   0  0  0  0  0  0  0  0  0  0  0  0
  149.0936  134.5093  154.0167 N   0  0  0  0  0  0  0  0  0  0  0  0
  149.6521  135.2459  155.0009 C   0  0  0  0  0  0  0  0  0  0  0  0
  149.8741  134.7586  156.1081 O   0  0  0  0  0  0  0  0  0  0  0  0
  149.9495  136.5196  154.6950 N   0  0  0  0  0  0  0  0  0  0  0  0
  150.5478  137.4951  155.6001 C   0  0  1  0  0  0  0  0  0  0  0  0
  151.8709  136.9468  156.1504 C   0  0  0  0  0  0  0  0  0  0  0  0
  152.5846  138.0063  157.0033 C   0  0  0  0  0  0  0  0  0  0  0  0
  152.7974  139.1942  156.2437 O   0  0  0  0  0  0  0  0  0  0  0  0
  151.6141  139.8118  155.7346 C   0  0  2  0  0  0  0  0  0  0  0  0
  150.7860  140.4494  156.8419 C   0  0  0  0  0  0  0  0  0  0  0  0
  150.0036  141.7168  156.5886 C   0  0  0  0  0  0  0  0  0  0  0  0
  151.2236  141.7472  157.4784 C   0  0  0  0  0  0  0  0  0  0  0  0
  150.8140  138.8208  154.8663 C   0  0  0  0  0  0  0  0  0  0  0  0
  149.0689  132.1865  154.8475 N   0  0  0  0  0  0  0  0  0  0  0  0
  148.6229  130.9312  154.7507 N   0  0  0  0  0  0  0  0  0  0  0  0
  146.3023  127.7143  155.1420 H   0  0  0  0  0  0  0  0  0  0  0  0
  145.7740  129.3837  155.3127 H   0  0  0  0  0  0  0  0  0  0  0  0
  147.3276  128.8763  155.9631 H   0  0  0  0  0  0  0  0  0  0  0  0
  149.2812  128.3159  154.3397 H   0  0  0  0  0  0  0  0  0  0  0  0
  149.0274  128.4302  152.6027 H   0  0  0  0  0  0  0  0  0  0  0  0
  148.2591  127.1448  153.5262 H   0  0  0  0  0  0  0  0  0  0  0  0
  145.9937  127.7395  152.6771 H   0  0  0  0  0  0  0  0  0  0  0  0
  146.7015  128.9880  151.6706 H   0  0  0  0  0  0  0  0  0  0  0  0
  145.3763  129.3774  152.7706 H   0  0  0  0  0  0  0  0  0  0  0  0
  146.5738  131.2785  152.0626 H   0  0  0  0  0  0  0  0  0  0  0  0
  147.4129  133.6025  152.2614 H   0  0  0  0  0  0  0  0  0  0  0  0
  148.9993  134.9951  153.1368 H   0  0  0  0  0  0  0  0  0  0  0  0
  149.7327  136.8402  153.7616 H   0  0  0  0  0  0  0  0  0  0  0  0
  149.8723  137.6708  156.4388 H   0  0  0  0  0  0  0  0  0  0  0  0
  151.6917  136.0496  156.7439 H   0  0  0  0  0  0  0  0  0  0  0  0
  152.5228  136.6518  155.3266 H   0  0  0  0  0  0  0  0  0  0  0  0
  152.0174  138.2235  157.9086 H   0  0  0  0  0  0  0  0  0  0  0  0
  153.5530  137.6274  157.3300 H   0  0  0  0  0  0  0  0  0  0  0  0
  151.9541  140.6191  155.0847 H   0  0  0  0  0  0  0  0  0  0  0  0
  150.3123  139.7382  157.5149 H   0  0  0  0  0  0  0  0  0  0  0  0
  150.0871  142.1779  155.6062 H   0  0  0  0  0  0  0  0  0  0  0  0
  149.0294  141.8072  157.0647 H   0  0  0  0  0  0  0  0  0  0  0  0
  151.0642  141.8593  158.5487 H   0  0  0  0  0  0  0  0  0  0  0  0
  152.1190  142.2263  157.0873 H   0  0  0  0  0  0  0  0  0  0  0  0
  151.3833  138.6177  153.9580 H   0  0  0  0  0  0  0  0  0  0  0  0
  149.8768  139.2762  154.5433 H   0  0  0  0  0  0  0  0  0  0  0  0
  1  2  1  0  0  0  0
  1 24  1  0  0  0  0
  1 25  1  0  0  0  0
  1 26  1  0  0  0  0
  2  3  1  0  0  0  0
  2  4  1  0  0  0  0
  2  5  1  0  0  0  0
  3 27  1  0  0  0  0
  3 28  1  0  0  0  0
  3 29  1  0  0  0  0
  4 30  1  0  0  0  0
  4 31  1  0  0  0  0
  4 32  1  0  0  0  0
  5 23  1  0  0  0  0
  5  6  2  0  0  0  0
  6  7  1  0  0  0  0
  6 33  1  0  0  0  0
  7  8  2  0  0  0  0
  7 34  1  0  0  0  0
  8  9  1  0  0  0  0
  8 22  1  0  0  0  0
  9 10  1  0  0  0  0
  9 35  1  0  0  0  0
 10 11  2  0  0  0  0
 10 12  1  0  0  0  0
 12 13  1  0  0  0  0
 12 36  1  0  0  0  0
 13 21  1  0  0  0  0
 13 14  1  0  0  0  0
 13 37  1  0  0  0  0
 14 15  1  0  0  0  0
 14 38  1  0  0  0  0
 14 39  1  0  0  0  0
 15 16  1  0  0  0  0
 15 40  1  0  0  0  0
 15 41  1  0  0  0  0
 16 17  1  0  0  0  0
 17 18  1  0  0  0  0
 17 21  1  0  0  0  0
 17 42  1  0  0  0  0
 18 20  1  0  0  0  0
 18 19  1  0  0  0  0
 18 43  1  0  0  0  0
 19 20  1  0  0  0  0
 19 44  1  0  0  0  0
 19 45  1  0  0  0  0
 20 46  1  0  0  0  0
 20 47  1  0  0  0  0
 21 48  1  0  0  0  0
 21 49  1  0  0  0  0
 22 23  2  0  0  0  0
M  END
> <s_m_source_file>
AV-unprocessed.smi

> <i_m_source_file_index>
2244

> <i_lp_mmshare_version>
43012

> <i_f3d_flags>
0

> <s_epik_input>
W0NIM11DKFtDSDNdKShbQ0gzXSljMVtjSF1bY0hdYyhubjEpW05IXUMoPU8pW05IXVtDQEBIXTJbQ0gyXVtDSDJdT1tDQEhdKFtDSDJdMilbQ0hdM1tDSDJdW0NIMl0z

> <s_epik_cmdline>
J2VwaWtfcHl0aG9uJywgJy1waCcsICc3LjAnLCAnLXRuJywgJzgnLCAnLW1hJywgJzIwMCcsICctbWV0YWxfYmluZGluZycsICctaW1hZScsICc8aW5maWxlLm1hZT4nLCAnLW9tYWUnLCAnPG91dGZpbGUubWFlPic=

> <r_lp_tautomer_probability>
1

> <r_epik_Ionization_Penalty>
0.011369

> <r_epik_Ionization_Penalty_Charging>
0

> <r_epik_Ionization_Penalty_Neutral>
0.011369

> <r_epik_State_Penalty>
0.00456331

> <r_epik_Charging_Adjusted_Penalty>
0.00456331

> <i_epik_Tot_Q>
0

> <i_epik_Tot_abs_Q>
0

> <r_epik_Metal_State_Penalty>
-0

> <b_epik_Metal_Only>
0

> <s_lp_Force_Field>
OPLS_2005

> <r_lp_Energy>
29.5318

> <b_lp_Chiralities_Consistent>
1

> <s_lp_Variant>
AV-unprocessed.smi:2244-4

> <Gold.Version>
5.8.1

> <Gold.Id.Protein>
6NUR|6NUR_protein|mol2

> <Gold.PLP.Fitness>
41.5533

> <Gold.PLP.PLP>
-33.1784

> <Gold.PLP.part.hbond>
-3.0000

> <Gold.PLP.part.metal>
0.0000

> <Gold.PLP.part.buried>
-2.5547

> <Gold.PLP.part.nonpolar>
-27.9014

> <Gold.PLP.part.repulsive>
0.1323

> <Gold.PLP.ligand.clash>
0.0000

> <Gold.PLP.ligand.torsion>
0.6556

> <Gold.PLP.Chemscore.Hbond>
2.8640

> <Gold.PLP.Chemscore.CHOScore>
0.0000

> <Gold.PLP.Chemscore.Metal>
0.0000

> <Gold.Chemscore.Hbonds>
donor molecule, donor type, donor heavy atom, donor atom, acceptor molecule, acceptor atom, score
      L1  H     9    35       P1  7948  0.90
      L1  H    12    36       P1  7948  0.70
      P1  H  7997  8008       L1    16  0.98

> <Gold.PLP.Chemscore.Internal.Correction>
1.0941

> <Gold.Rescore>
     Score         DG    S(hbond)    S(metal)    S(lipo)     H(rot)  DE(clash)    DE(int)     intcor
     16.23     -19.57       2.24        0.00      84.92       1.30       0.32       3.02       ----

> <Gold.Chemscore.Fitness>
16.2309

> <Gold.Chemscore.DG>
-19.5738

> <Gold.Chemscore.ZeroCoef>
-5.4800

> <Gold.Chemscore.Hbond>
2.2415

> <Gold.Chemscore.Metal>
0.0000

> <Gold.Chemscore.Lipo>
84.9200

> <Gold.Chemscore.Internal_Hbond>
0.0000

> <Gold.Chemscore.DEClash>
0.3238

> <Gold.Chemscore.DEInternal>
3.0190

> <Gold.Chemscore.Rot>
1.3002

> <Gold.Chemscore.Internal.Correction>
   9.000000E+99

> <Gold.Chemscore.Hbonds>
donor molecule, donor type, donor heavy atom, donor atom, acceptor molecule, acceptor atom, score
      L1  H     9    35       P1  7948  0.18
      L1  H    12    36       P1  7948  0.44
      P1  H  7997  8008       L1    16  0.86

> <Gold.Chemscore.Hbond.Weighted>
-7.4865

> <Gold.Chemscore.Metal.Weighted>
-0.0000

> <Gold.Chemscore.Lipo.Weighted>
-9.9356

> <Gold.Chemscore.Internal_Hbond.Weighted>
0.0000

> <Gold.Chemscore.DEClash.Weighted>
0.3238

> <Gold.Chemscore.DEInternal.Weighted>
3.0190

> <Gold.Chemscore.Rot.Weighted>
3.3284

> <Gold.Chemscore.Internal.Correction.Weighted>
   9.000000E+99

> <Gold.Protein.RotatedTorsions>
[ 6907 6896 6895 6894 ] final   56.94 input  -60.11 | X-H torsion
[ 7974 7965 7964 7962 ] final   78.96 input  175.53 | X-H torsion
[ 8008 7997 7996 7995 ] final  -22.68 input   59.86 | X-H torsion
[ 10167 10162 10161 10158 ] final -103.06 input  -65.29 | X-H torsion
[ 10718 10713 10712 10709 ] final -179.17 input   66.30 | X-H torsion
[ 10763 10752 10751 10750 ] final  -72.65 input  -60.55 | X-H torsion
[ 11005 11000 10999 10996 ] final  -79.02 input  -57.11 | X-H torsion

> <Gold.Protein.ActiveResidues>
 VAL166  LYS551  ARG553  GLY616  TRP617  ASP618  TYR619  PRO620  LYS621  CYS622 
 ASP623  PHE694  ASN695  SER759  ASP760  ASP761  ALA762  ILE779  LEU786  VAL792 
 PHE793  MET794  SER795  GLU796  ALA797  LYS798  CYS799  TRP800  GLU811  SER814 

> <Gold.Protein.RotatedAtoms>
  152.3684  134.6770  160.0183 H   0  0  0  0  0  0  0  0  0  0  0  0  # atno 6907 bound_to 6896
  151.7070  133.3306  159.3289 H   0  0  0  0  0  0  0  0  0  0  0  0  # atno 6908 bound_to 6896
  150.7655  134.6500  159.6327 H   0  0  0  0  0  0  0  0  0  0  0  0  # atno 6909 bound_to 6896
  145.6704  139.2495  143.1872 H   0  0  0  0  0  0  0  0  0  0  0  0  # atno 7974 bound_to 7965
  154.4630  140.2001  156.0194 H   0  0  0  0  0  0  0  0  0  0  0  0  # atno 8008 bound_to 7997
  156.0875  140.3263  155.7744 H   0  0  0  0  0  0  0  0  0  0  0  0  # atno 8009 bound_to 7997
  155.5011  140.0554  157.2929 H   0  0  0  0  0  0  0  0  0  0  0  0  # atno 8010 bound_to 7997
  140.2241  143.3654  152.0944 H   0  0  0  0  0  0  0  0  0  0  0  0  # atno 10167 bound_to 10162
  156.8551  130.9732  151.3089 H   0  0  0  0  0  0  0  0  0  0  0  0  # atno 10718 bound_to 10713
  154.4486  135.5923  153.6176 H   0  0  0  0  0  0  0  0  0  0  0  0  # atno 10763 bound_to 10752
  152.9811  135.6015  154.3633 H   0  0  0  0  0  0  0  0  0  0  0  0  # atno 10764 bound_to 10752
  154.3491  135.2841  155.2360 H   0  0  0  0  0  0  0  0  0  0  0  0  # atno 10765 bound_to 10752
  141.1666  133.7088  156.8059 H   0  0  0  0  0  0  0  0  0  0  0  0  # atno 11005 bound_to 11000
  146.1050  140.7498  142.9530 LP  0  0  0  0  0  0  0  0  0  0  0  0  # atno 17320 bound_to 7965
  144.7059  140.3848  143.7119 LP  0  0  0  0  0  0  0  0  0  0  0  0  # atno 17321 bound_to 7965
  139.5133  144.6931  151.5705 LP  0  0  0  0  0  0  0  0  0  0  0  0  # atno 17342 bound_to 10162
  140.6234  143.9216  150.6544 LP  0  0  0  0  0  0  0  0  0  0  0  0  # atno 17343 bound_to 10162
  157.6282  130.8708  149.9226 LP  0  0  0  0  0  0  0  0  0  0  0  0  # atno 17370 bound_to 10713
  156.0807  130.3673  150.0586 LP  0  0  0  0  0  0  0  0  0  0  0  0  # atno 17371 bound_to 10713
  140.2223  134.8748  157.3389 LP  0  0  0  0  0  0  0  0  0  0  0  0  # atno 17394 bound_to 11000
  140.1976  134.4295  155.7681 LP  0  0  0  0  0  0  0  0  0  0  0  0  # atno 17395 bound_to 11000

$$$$
