AV-unprocessed.smi:3202|AV-procd|sdf|12247|dock5
  -GOLD-   2272018 83D 1   1.00000     0.00000
 Structure written by MMmdl.
 43 44  0  0  0  0  0  0  0  0  2 V2000
  151.2222  139.9814  155.5215 C   0  0  0  0  0  0  0  0  0  0  0  0
  150.0158  139.3798  154.8627 C   0  0  0  0  0  0  0  0  0  0  0  0
  148.6438  139.7094  155.0670 C   0  0  0  0  0  0  0  0  0  0  0  0
  147.9660  138.8700  154.2283 C   0  0  0  0  0  0  0  0  0  0  0  0
  146.5026  138.7051  153.9725 C   0  0  0  0  0  0  0  0  0  0  0  0
  146.1666  138.1585  152.5710 C   0  0  2  0  0  0  0  0  0  0  0  0
  146.8067  138.9801  151.4406 C   0  0  0  0  0  0  0  0  0  0  0  0
  144.6985  138.1260  152.3844 N   0  3  0  0  0  0  0  0  0  0  0  0
  143.9558  137.2420  153.3122 C   0  0  1  0  0  0  0  0  0  0  0  0
  142.4416  137.4947  153.3199 C   0  0  0  0  0  0  0  0  0  0  0  0
  141.8096  136.1694  153.7657 C   0  0  0  0  0  0  0  0  0  0  0  0
  142.9475  135.1377  153.8010 C   0  0  0  0  0  0  0  0  0  0  0  0
  144.1078  135.7405  152.9882 C   0  0  0  0  0  0  0  0  0  0  0  0
  143.9140  135.4265  151.4864 C   0  0  0  0  0  0  0  0  0  0  0  0
  145.4661  135.1873  153.4583 C   0  0  0  0  0  0  0  0  0  0  0  0
  148.9217  138.1127  153.5891 N   0  0  0  0  0  0  0  0  0  0  0  0
  150.1763  138.4139  153.9708 N   0  0  0  0  0  0  0  0  0  0  0  0
  148.7368  137.3961  152.9013 H   0  0  0  0  0  0  0  0  0  0  0  0
  150.9523  140.8552  156.1150 H   0  0  0  0  0  0  0  0  0  0  0  0
  151.9584  140.2982  154.7823 H   0  0  0  0  0  0  0  0  0  0  0  0
  151.7034  139.2641  156.1867 H   0  0  0  0  0  0  0  0  0  0  0  0
  148.2230  140.4503  155.7308 H   0  0  0  0  0  0  0  0  0  0  0  0
  145.9994  139.6617  154.1214 H   0  0  0  0  0  0  0  0  0  0  0  0
  146.0925  138.0356  154.7294 H   0  0  0  0  0  0  0  0  0  0  0  0
  146.5613  137.1437  152.5004 H   0  0  0  0  0  0  0  0  0  0  0  0
  147.8952  138.9631  151.5000 H   0  0  0  0  0  0  0  0  0  0  0  0
  146.4872  140.0222  151.4753 H   0  0  0  0  0  0  0  0  0  0  0  0
  146.5323  138.5803  150.4638 H   0  0  0  0  0  0  0  0  0  0  0  0
  144.3363  139.0646  152.4727 H   0  0  0  0  0  0  0  0  0  0  0  0
  144.3353  137.4127  154.3219 H   0  0  0  0  0  0  0  0  0  0  0  0
  142.1678  138.3200  153.9779 H   0  0  0  0  0  0  0  0  0  0  0  0
  142.0891  137.7462  152.3187 H   0  0  0  0  0  0  0  0  0  0  0  0
  141.3384  136.2598  154.7450 H   0  0  0  0  0  0  0  0  0  0  0  0
  141.0362  135.8669  153.0588 H   0  0  0  0  0  0  0  0  0  0  0  0
  143.2551  134.9976  154.8385 H   0  0  0  0  0  0  0  0  0  0  0  0
  142.6326  134.1608  153.4319 H   0  0  0  0  0  0  0  0  0  0  0  0
  143.9211  134.3507  151.3083 H   0  0  0  0  0  0  0  0  0  0  0  0
  144.7113  135.8551  150.8787 H   0  0  0  0  0  0  0  0  0  0  0  0
  142.9672  135.8090  151.1048 H   0  0  0  0  0  0  0  0  0  0  0  0
  145.5273  134.1096  153.3028 H   0  0  0  0  0  0  0  0  0  0  0  0
  145.6322  135.3744  154.5197 H   0  0  0  0  0  0  0  0  0  0  0  0
  146.2904  135.6463  152.9113 H   0  0  0  0  0  0  0  0  0  0  0  0
  144.5167  137.8038  151.4446 H   0  0  0  0  0  0  0  0  0  0  0  0
  1 19  1  0  0  0  0
  1 20  1  0  0  0  0
  1 21  1  0  0  0  0
  1  2  1  0  0  0  0
  2 17  2  0  0  0  0
  2  3  1  0  0  0  0
  3  4  2  0  0  0  0
  3 22  1  0  0  0  0
  4 16  1  0  0  0  0
  4  5  1  0  0  0  0
  5  6  1  0  0  0  0
  5 23  1  0  0  0  0
  5 24  1  0  0  0  0
  6  7  1  0  0  0  0
  6  8  1  0  0  0  0
  6 25  1  0  0  0  0
  7 26  1  0  0  0  0
  7 27  1  0  0  0  0
  7 28  1  0  0  0  0
  8  9  1  0  0  0  0
  8 29  1  0  0  0  0
  8 43  1  0  0  0  0
  9 13  1  0  0  0  0
  9 10  1  0  0  0  0
  9 30  1  0  0  0  0
 10 11  1  0  0  0  0
 10 31  1  0  0  0  0
 10 32  1  0  0  0  0
 11 12  1  0  0  0  0
 11 33  1  0  0  0  0
 11 34  1  0  0  0  0
 12 13  1  0  0  0  0
 12 35  1  0  0  0  0
 12 36  1  0  0  0  0
 13 14  1  0  0  0  0
 13 15  1  0  0  0  0
 14 37  1  0  0  0  0
 14 38  1  0  0  0  0
 14 39  1  0  0  0  0
 15 40  1  0  0  0  0
 15 41  1  0  0  0  0
 15 42  1  0  0  0  0
 16 17  1  0  0  0  0
 16 18  1  0  0  0  0
M  CHG  1   8   1
M  END
> <s_m_source_file>
AV-unprocessed.smi

> <i_m_source_file_index>
3202

> <i_lp_mmshare_version>
43012

> <i_f3d_flags>
0

> <s_epik_input>
W0NIM11jMVtjSF1jKG5bbkhdMSlbQ0gyXVtDQEhdKFtDSDNdKVtOSF1bQ0BASF0oQzIoW0NIM10pW0NIM10pW0NIMl1bQ0gyXVtDSDJdMg==

> <s_epik_cmdline>
J2VwaWtfcHl0aG9uJywgJy1waCcsICc3LjAnLCAnLXRuJywgJzgnLCAnLW1hJywgJzIwMCcsICctbWV0YWxfYmluZGluZycsICctaW1hZScsICc8aW5maWxlLm1hZT4nLCAnLW9tYWUnLCAnPG91dGZpbGUubWFlPic=

> <r_lp_tautomer_probability>
0.5

> <r_epik_Ionization_Penalty>
0.000449684

> <r_epik_Ionization_Penalty_Charging>
0.000404963

> <r_epik_Ionization_Penalty_Neutral>
4.47208e-05

> <r_epik_State_Penalty>
0.41068

> <r_epik_Charging_Adjusted_Penalty>
0.411085

> <i_epik_Tot_Q>
1

> <i_epik_Tot_abs_Q>
1

> <r_epik_Metal_State_Penalty>
0.410687

> <b_epik_Metal_Only>
0

> <s_lp_Force_Field>
OPLS_2005

> <r_lp_Energy>
32.0397

> <b_lp_Chiralities_Consistent>
1

> <s_lp_Variant>
AV-unprocessed.smi:3202-7

> <Gold.Version>
5.8.1

> <Gold.Id.Protein>
6NUR|6NUR_protein|mol2

> <Gold.PLP.Fitness>
41.5847

> <Gold.PLP.PLP>
-31.0062

> <Gold.PLP.part.hbond>
-4.0000

> <Gold.PLP.part.metal>
0.0000

> <Gold.PLP.part.buried>
-2.3304

> <Gold.PLP.part.nonpolar>
-25.8210

> <Gold.PLP.part.repulsive>
1.1198

> <Gold.PLP.ligand.clash>
0.0000

> <Gold.PLP.ligand.torsion>
0.4922

> <Gold.PLP.Chemscore.Hbond>
3.8480

> <Gold.PLP.Chemscore.CHOScore>
0.0000

> <Gold.PLP.Chemscore.Metal>
0.0000

> <Gold.Chemscore.Hbonds>
donor molecule, donor type, donor heavy atom, donor atom, acceptor molecule, acceptor atom, score
      L1  H     8    29       P1 10175  2.00
      L1  H     8    43       P1 10171  0.72
      L1  H    16    18       P1  7948  1.00

> <Gold.PLP.Chemscore.Internal.Correction>
0.0190

> <Gold.Rescore>
     Score         DG    S(hbond)    S(metal)    S(lipo)     H(rot)  DE(clash)    DE(int)     intcor
     18.71     -19.78       2.80        0.00      74.30       1.46       0.56       0.51       ----

> <Gold.Chemscore.Fitness>
18.7141

> <Gold.Chemscore.DG>
-19.7848

> <Gold.Chemscore.ZeroCoef>
-5.4800

> <Gold.Chemscore.Hbond>
2.7990

> <Gold.Chemscore.Metal>
0.0000

> <Gold.Chemscore.Lipo>
74.2969

> <Gold.Chemscore.Internal_Hbond>
0.0000

> <Gold.Chemscore.DEClash>
0.5608

> <Gold.Chemscore.DEInternal>
0.5099

> <Gold.Chemscore.Rot>
1.4596

> <Gold.Chemscore.Internal.Correction>
   9.000000E+99

> <Gold.Chemscore.Hbonds>
donor molecule, donor type, donor heavy atom, donor atom, acceptor molecule, acceptor atom, score
      L1  H     8    29       P1 10175  0.93
      L1  H     8    43       P1 10171  0.72
      L1  H    16    18       P1  7948  0.96

> <Gold.Chemscore.Hbond.Weighted>
-9.3486

> <Gold.Chemscore.Metal.Weighted>
-0.0000

> <Gold.Chemscore.Lipo.Weighted>
-8.6927

> <Gold.Chemscore.Internal_Hbond.Weighted>
0.0000

> <Gold.Chemscore.DEClash.Weighted>
0.5608

> <Gold.Chemscore.DEInternal.Weighted>
0.5099

> <Gold.Chemscore.Rot.Weighted>
3.7365

> <Gold.Chemscore.Internal.Correction.Weighted>
   9.000000E+99

> <Gold.Protein.RotatedTorsions>
[ 6907 6896 6895 6894 ] final  -31.31 input  -60.11 | X-H torsion
[ 7974 7965 7964 7962 ] final    1.48 input  175.53 | X-H torsion
[ 8008 7997 7996 7995 ] final   47.23 input   59.86 | X-H torsion
[ 10167 10162 10161 10158 ] final  -88.27 input  -65.29 | X-H torsion
[ 10718 10713 10712 10709 ] final  134.83 input   66.30 | X-H torsion
[ 10763 10752 10751 10750 ] final  -89.87 input  -60.55 | X-H torsion
[ 11005 11000 10999 10996 ] final -165.27 input  -57.11 | X-H torsion

> <Gold.Protein.ActiveResidues>
 VAL166  LYS551  ARG553  GLY616  TRP617  ASP618  TYR619  PRO620  LYS621  CYS622 
 ASP623  PHE694  ASN695  SER759  ASP760  ASP761  ALA762  ILE779  LEU786  VAL792 
 PHE793  MET794  SER795  GLU796  ALA797  LYS798  CYS799  TRP800  GLU811  SER814 

> <Gold.Protein.RotatedAtoms>
  151.0938  134.9932  159.8415 H   0  0  0  0  0  0  0  0  0  0  0  0  # atno 6907 bound_to 6896
  152.5431  134.2032  159.8730 H   0  0  0  0  0  0  0  0  0  0  0  0  # atno 6908 bound_to 6896
  151.2071  133.4533  159.2631 H   0  0  0  0  0  0  0  0  0  0  0  0  # atno 6909 bound_to 6896
  146.2440  140.0981  142.8349 H   0  0  0  0  0  0  0  0  0  0  0  0  # atno 7974 bound_to 7965
  155.3655  140.3421  155.4242 H   0  0  0  0  0  0  0  0  0  0  0  0  # atno 8008 bound_to 7997
  156.1690  140.1625  156.8514 H   0  0  0  0  0  0  0  0  0  0  0  0  # atno 8009 bound_to 7997
  154.5214  140.0766  156.8161 H   0  0  0  0  0  0  0  0  0  0  0  0  # atno 8010 bound_to 7997
  140.3763  143.2770  151.9439 H   0  0  0  0  0  0  0  0  0  0  0  0  # atno 10167 bound_to 10162
  157.4633  131.1075  150.9894 H   0  0  0  0  0  0  0  0  0  0  0  0  # atno 10718 bound_to 10713
  154.6599  135.5325  153.8005 H   0  0  0  0  0  0  0  0  0  0  0  0  # atno 10763 bound_to 10752
  153.0435  135.6503  154.0888 H   0  0  0  0  0  0  0  0  0  0  0  0  # atno 10764 bound_to 10752
  154.0798  135.2948  155.3272 H   0  0  0  0  0  0  0  0  0  0  0  0  # atno 10765 bound_to 10752
  140.5775  134.5175  157.5173 H   0  0  0  0  0  0  0  0  0  0  0  0  # atno 11005 bound_to 11000
  145.0592  140.9075  143.4949 LP  0  0  0  0  0  0  0  0  0  0  0  0  # atno 17320 bound_to 7965
  145.1093  139.2768  143.5645 LP  0  0  0  0  0  0  0  0  0  0  0  0  # atno 17321 bound_to 7965
  139.4799  144.5860  151.7853 LP  0  0  0  0  0  0  0  0  0  0  0  0  # atno 17342 bound_to 10162
  140.4982  144.1208  150.5965 LP  0  0  0  0  0  0  0  0  0  0  0  0  # atno 17343 bound_to 10162
  157.0683  130.5854  149.5398 LP  0  0  0  0  0  0  0  0  0  0  0  0  # atno 17370 bound_to 10713
  156.0038  130.5122  150.7759 LP  0  0  0  0  0  0  0  0  0  0  0  0  # atno 17371 bound_to 10713
  139.9332  134.7923  156.0872 LP  0  0  0  0  0  0  0  0  0  0  0  0  # atno 17394 bound_to 11000
  141.1017  133.6675  156.2769 LP  0  0  0  0  0  0  0  0  0  0  0  0  # atno 17395 bound_to 11000

$$$$
