AV-unprocessed.smi:1046|AV-procd|sdf|4556|dock10
  -GOLD-   22720 2593D 1   1.00000     0.00000
 Structure written by MMmdl.
 54 56  0  0  0  0  0  0  0  0  3 V2000
  153.0473  143.1165  160.2539 C   0  0  0  0  0  0  0  0  0  0  0  0
  152.2883  142.4227  159.1365 C   0  0  0  0  0  0  0  0  0  0  0  0
  152.1622  141.0155  159.1627 C   0  0  0  0  0  0  0  0  0  0  0  0
  151.4625  140.3320  158.1446 C   0  0  0  0  0  0  0  0  0  0  0  0
  151.2121  138.9810  157.9766 N   0  0  0  0  0  0  0  0  0  0  0  0
  150.5106  138.9757  156.8473 C   0  0  0  0  0  0  0  0  0  0  0  0
  150.2668  140.1668  156.2676 N   0  0  0  0  0  0  0  0  0  0  0  0
  149.5154  140.4052  155.0491 C   0  0  0  0  0  0  0  0  0  0  0  0
  149.0240  139.0992  154.3939 C   0  0  2  0  0  0  0  0  0  0  0  0
  150.0119  138.6789  153.4751 O   0  0  0  0  0  0  0  0  0  0  0  0
  147.6801  139.2496  153.6465 C   0  0  0  0  0  0  0  0  0  0  0  0
  147.1608  137.9557  153.1325 N   0  3  2  0  0  0  0  0  0  0  0  0
  146.2468  138.1376  151.9774 C   0  0  0  0  0  0  0  0  0  0  0  0
  145.7987  136.7804  151.4034 C   0  0  0  0  0  0  0  0  0  0  0  0
  145.1633  135.9278  152.4385 N   0  3  2  0  0  0  0  0  0  0  0  0
  143.7705  136.3331  152.7705 C   0  0  0  0  0  0  0  0  0  0  0  0
  142.9913  135.2207  153.4923 C   0  0  0  0  0  0  0  0  0  0  0  0
  143.2237  133.9807  152.8586 O   0  0  0  0  0  0  0  0  0  0  0  0
  146.0597  135.7575  153.6120 C   0  0  0  0  0  0  0  0  0  0  0  0
  146.5392  137.1081  154.1840 C   0  0  0  0  0  0  0  0  0  0  0  0
  150.8881  141.1009  157.0904 C   0  0  0  0  0  0  0  0  0  0  0  0
  151.0101  142.5012  157.0510 C   0  0  0  0  0  0  0  0  0  0  0  0
  151.7119  143.1682  158.0768 C   0  0  0  0  0  0  0  0  0  0  0  0
  151.8370  144.6806  158.0272 C   0  0  0  0  0  0  0  0  0  0  0  0
  153.3874  142.4047  161.0065 H   0  0  0  0  0  0  0  0  0  0  0  0
  152.4117  143.8493  160.7511 H   0  0  0  0  0  0  0  0  0  0  0  0
  153.9237  143.6298  159.8579 H   0  0  0  0  0  0  0  0  0  0  0  0
  152.6032  140.4477  159.9689 H   0  0  0  0  0  0  0  0  0  0  0  0
  150.1458  138.0529  156.4201 H   0  0  0  0  0  0  0  0  0  0  0  0
  148.6737  141.0586  155.2824 H   0  0  0  0  0  0  0  0  0  0  0  0
  150.1547  140.9575  154.3584 H   0  0  0  0  0  0  0  0  0  0  0  0
  148.9439  138.3380  155.1693 H   0  0  0  0  0  0  0  0  0  0  0  0
  149.8935  139.1504  152.6640 H   0  0  0  0  0  0  0  0  0  0  0  0
  146.9199  139.6965  154.2878 H   0  0  0  0  0  0  0  0  0  0  0  0
  147.8240  139.9455  152.8184 H   0  0  0  0  0  0  0  0  0  0  0  0
  145.3812  138.7267  152.2841 H   0  0  0  0  0  0  0  0  0  0  0  0
  146.7534  138.7049  151.1955 H   0  0  0  0  0  0  0  0  0  0  0  0
  145.1237  136.9229  150.5588 H   0  0  0  0  0  0  0  0  0  0  0  0
  146.6673  136.2509  151.0093 H   0  0  0  0  0  0  0  0  0  0  0  0
  143.7741  137.2400  153.3749 H   0  0  0  0  0  0  0  0  0  0  0  0
  143.2321  136.5858  151.8558 H   0  0  0  0  0  0  0  0  0  0  0  0
  143.2535  135.1498  154.5472 H   0  0  0  0  0  0  0  0  0  0  0  0
  141.9225  135.4315  153.4472 H   0  0  0  0  0  0  0  0  0  0  0  0
  143.2212  133.2997  153.5152 H   0  0  0  0  0  0  0  0  0  0  0  0
  145.5775  135.1658  154.3893 H   0  0  0  0  0  0  0  0  0  0  0  0
  146.9267  135.1785  153.2908 H   0  0  0  0  0  0  0  0  0  0  0  0
  147.2546  136.9141  154.9823 H   0  0  0  0  0  0  0  0  0  0  0  0
  145.7070  137.6450  154.6407 H   0  0  0  0  0  0  0  0  0  0  0  0
  150.5671  143.0585  156.2390 H   0  0  0  0  0  0  0  0  0  0  0  0
  151.3761  145.0893  157.1275 H   0  0  0  0  0  0  0  0  0  0  0  0
  152.8858  144.9787  158.0296 H   0  0  0  0  0  0  0  0  0  0  0  0
  151.3469  145.1317  158.8903 H   0  0  0  0  0  0  0  0  0  0  0  0
  147.9636  137.4522  152.7811 H   0  0  0  0  0  0  0  0  0  0  0  0
  145.0656  135.0142  152.0163 H   0  0  0  0  0  0  0  0  0  0  0  0
  1  2  1  0  0  0  0
  1 25  1  0  0  0  0
  1 26  1  0  0  0  0
  1 27  1  0  0  0  0
  2 23  1  0  0  0  0
  2  3  2  0  0  0  0
  3  4  1  0  0  0  0
  3 28  1  0  0  0  0
  4 21  2  0  0  0  0
  4  5  1  0  0  0  0
  5  6  2  0  0  0  0
  6  7  1  0  0  0  0
  6 29  1  0  0  0  0
  7  8  1  0  0  0  0
  7 21  1  0  0  0  0
  8  9  1  0  0  0  0
  8 30  1  0  0  0  0
  8 31  1  0  0  0  0
  9 10  1  0  0  0  0
  9 11  1  0  0  0  0
  9 32  1  0  0  0  0
 10 33  1  0  0  0  0
 11 12  1  0  0  0  0
 11 34  1  0  0  0  0
 11 35  1  0  0  0  0
 12 20  1  0  0  0  0
 12 13  1  0  0  0  0
 12 53  1  0  0  0  0
 13 14  1  0  0  0  0
 13 36  1  0  0  0  0
 13 37  1  0  0  0  0
 14 15  1  0  0  0  0
 14 38  1  0  0  0  0
 14 39  1  0  0  0  0
 15 16  1  0  0  0  0
 15 19  1  0  0  0  0
 15 54  1  0  0  0  0
 16 17  1  0  0  0  0
 16 40  1  0  0  0  0
 16 41  1  0  0  0  0
 17 18  1  0  0  0  0
 17 42  1  0  0  0  0
 17 43  1  0  0  0  0
 18 44  1  0  0  0  0
 19 20  1  0  0  0  0
 19 45  1  0  0  0  0
 19 46  1  0  0  0  0
 20 47  1  0  0  0  0
 20 48  1  0  0  0  0
 21 22  1  0  0  0  0
 22 23  2  0  0  0  0
 22 49  1  0  0  0  0
 23 24  1  0  0  0  0
 24 50  1  0  0  0  0
 24 51  1  0  0  0  0
 24 52  1  0  0  0  0
M  CHG  1  12   1
M  CHG  1  15   1
M  END
> <s_m_source_file>
AV-unprocessed.smi

> <i_m_source_file_index>
1046

> <i_lp_mmshare_version>
43012

> <i_f3d_flags>
0

> <s_epik_input>
W0NIM11jKFtjSF0xKWMoW0NIM10pW2NIXWMoYzEyKW4oW2NIXW4yKVtDSDJdW0NASF0oW09IXSlbQ0gyXU4zW0NIMl1bQ0gyXU4oW0NIMl1bQ0gyXTMpW0NIMl1bQ0gyXVtPSF0=

> <s_epik_cmdline>
J2VwaWtfcHl0aG9uJywgJy1waCcsICc3LjAnLCAnLXRuJywgJzgnLCAnLW1hJywgJzIwMCcsICctbWV0YWxfYmluZGluZycsICctaW1hZScsICc8aW5maWxlLm1hZT4nLCAnLW9tYWUnLCAnPG91dGZpbGUubWFlPic=

> <r_epik_Ionization_Penalty>
3.17398

> <r_epik_Ionization_Penalty_Charging>
3.09061

> <r_epik_Ionization_Penalty_Neutral>
0.0833726

> <r_epik_State_Penalty>
2.17606

> <r_epik_Charging_Adjusted_Penalty>
5.26667

> <i_epik_Tot_Q>
2

> <i_epik_Tot_abs_Q>
2

> <r_epik_Metal_State_Penalty>
2.08587

> <b_epik_Metal_Only>
0

> <s_lp_Force_Field>
OPLS_2005

> <r_lp_Energy>
31.2877

> <b_lp_Chiralities_Consistent>
1

> <s_lp_Variant>
AV-unprocessed.smi:1046-9

> <Gold.Version>
5.8.1

> <Gold.Id.Protein>
6NUR|6NUR_protein|mol2

> <Gold.PLP.Fitness>
54.2689

> <Gold.PLP.PLP>
-43.6100

> <Gold.PLP.part.hbond>
-3.8838

> <Gold.PLP.part.metal>
0.0000

> <Gold.PLP.part.buried>
-3.9959

> <Gold.PLP.part.nonpolar>
-36.4448

> <Gold.PLP.part.repulsive>
0.0308

> <Gold.PLP.ligand.clash>
0.0000

> <Gold.PLP.ligand.torsion>
0.7782

> <Gold.PLP.Chemscore.Hbond>
4.0000

> <Gold.PLP.Chemscore.CHOScore>
0.0000

> <Gold.PLP.Chemscore.Metal>
0.0000

> <Gold.Chemscore.Hbonds>
donor molecule, donor type, donor heavy atom, donor atom, acceptor molecule, acceptor atom, score
      L1  H    10    33       P1  7957  1.00
      L1  H    12    53       P1  7948  2.00
      L1  H    18    44       P1 10957  0.93

> <Gold.PLP.Chemscore.Internal.Correction>
0.2154

> <Gold.Rescore>
     Score         DG    S(hbond)    S(metal)    S(lipo)     H(rot)  DE(clash)    DE(int)     intcor
     19.75     -20.76       2.92        0.00     119.17       3.28       0.15       0.86       ----

> <Gold.Chemscore.Fitness>
19.7482

> <Gold.Chemscore.DG>
-20.7560

> <Gold.Chemscore.ZeroCoef>
-5.4800

> <Gold.Chemscore.Hbond>
2.9151

> <Gold.Chemscore.Metal>
0.0000

> <Gold.Chemscore.Lipo>
119.1748

> <Gold.Chemscore.Internal_Hbond>
0.0000

> <Gold.Chemscore.DEClash>
0.1478

> <Gold.Chemscore.DEInternal>
0.8600

> <Gold.Chemscore.Rot>
3.2828

> <Gold.Chemscore.Internal.Correction>
   9.000000E+99

> <Gold.Chemscore.Hbonds>
donor molecule, donor type, donor heavy atom, donor atom, acceptor molecule, acceptor atom, score
      L1  H    10    33       P1  7957  0.88
      L1  H    12    53       P1  7948  1.00
      L1  H    18    44       P1 10957  0.86

> <Gold.Chemscore.Hbond.Weighted>
-9.7365

> <Gold.Chemscore.Metal.Weighted>
-0.0000

> <Gold.Chemscore.Lipo.Weighted>
-13.9434

> <Gold.Chemscore.Internal_Hbond.Weighted>
0.0000

> <Gold.Chemscore.DEClash.Weighted>
0.1478

> <Gold.Chemscore.DEInternal.Weighted>
0.8600

> <Gold.Chemscore.Rot.Weighted>
8.4039

> <Gold.Chemscore.Internal.Correction.Weighted>
   9.000000E+99

> <Gold.Protein.RotatedTorsions>
[ 6907 6896 6895 6894 ] final   86.37 input  -60.11 | X-H torsion
[ 7974 7965 7964 7962 ] final -177.35 input  175.53 | X-H torsion
[ 8008 7997 7996 7995 ] final  157.36 input   59.86 | X-H torsion
[ 10167 10162 10161 10158 ] final  111.02 input  -65.29 | X-H torsion
[ 10718 10713 10712 10709 ] final -160.28 input   66.30 | X-H torsion
[ 10763 10752 10751 10750 ] final  133.84 input  -60.55 | X-H torsion
[ 11005 11000 10999 10996 ] final  -73.57 input  -57.11 | X-H torsion

> <Gold.Protein.ActiveResidues>
 VAL166  LYS551  ARG553  GLY616  TRP617  ASP618  TYR619  PRO620  LYS621  CYS622 
 ASP623  PHE694  ASN695  SER759  ASP760  ASP761  ALA762  ILE779  LEU786  VAL792 
 PHE793  MET794  SER795  GLU796  ALA797  LYS798  CYS799  TRP800  GLU811  SER814 

> <Gold.Protein.RotatedAtoms>
  152.5393  134.2442  159.8873 H   0  0  0  0  0  0  0  0  0  0  0  0  # atno 6907 bound_to 6896
  151.2408  133.4394  159.2615 H   0  0  0  0  0  0  0  0  0  0  0  0  # atno 6908 bound_to 6896
  151.0628  134.9761  159.8325 H   0  0  0  0  0  0  0  0  0  0  0  0  # atno 6909 bound_to 6896
  144.7127  140.1033  143.6415 H   0  0  0  0  0  0  0  0  0  0  0  0  # atno 7974 bound_to 7965
  156.2369  140.1887  156.7096 H   0  0  0  0  0  0  0  0  0  0  0  0  # atno 8008 bound_to 7997
  154.6122  140.0620  156.9536 H   0  0  0  0  0  0  0  0  0  0  0  0  # atno 8009 bound_to 7997
  155.1997  140.3291  155.4348 H   0  0  0  0  0  0  0  0  0  0  0  0  # atno 8010 bound_to 7997
  139.6643  144.7128  151.1806 H   0  0  0  0  0  0  0  0  0  0  0  0  # atno 10167 bound_to 10162
  156.5798  130.8725  151.2861 H   0  0  0  0  0  0  0  0  0  0  0  0  # atno 10718 bound_to 10713
  153.8138  135.3125  155.3403 H   0  0  0  0  0  0  0  0  0  0  0  0  # atno 10763 bound_to 10752
  154.8040  135.4709  154.0350 H   0  0  0  0  0  0  0  0  0  0  0  0  # atno 10764 bound_to 10752
  153.1737  135.6882  153.8662 H   0  0  0  0  0  0  0  0  0  0  0  0  # atno 10765 bound_to 10752
  141.1624  133.6882  156.7232 H   0  0  0  0  0  0  0  0  0  0  0  0  # atno 11005 bound_to 11000
  145.9519  139.2739  143.1207 LP  0  0  0  0  0  0  0  0  0  0  0  0  # atno 17320 bound_to 7965
  145.9314  140.9046  143.0354 LP  0  0  0  0  0  0  0  0  0  0  0  0  # atno 17321 bound_to 7965
  140.7593  143.5944  150.8763 LP  0  0  0  0  0  0  0  0  0  0  0  0  # atno 17342 bound_to 10162
  139.9604  143.6170  152.3004 LP  0  0  0  0  0  0  0  0  0  0  0  0  # atno 17343 bound_to 10162
  157.7329  130.9722  150.1951 LP  0  0  0  0  0  0  0  0  0  0  0  0  # atno 17370 bound_to 10713
  156.2641  130.3714  149.8100 LP  0  0  0  0  0  0  0  0  0  0  0  0  # atno 17371 bound_to 10713
  140.2800  134.8324  157.3925 LP  0  0  0  0  0  0  0  0  0  0  0  0  # atno 17394 bound_to 11000
  140.1442  134.4933  155.8009 LP  0  0  0  0  0  0  0  0  0  0  0  0  # atno 17395 bound_to 11000

$$$$
