AV-unprocessed.smi:460|AV-procd|sdf|2629|dock1
  -GOLD-   2262023 33D 1   1.00000     0.00000
 Structure written by MMmdl.
 47 49  0  0  0  0  0  0  0  0  2 V2000
  148.0681  140.5702  153.8672 C   0  0  0  0  0  0  0  0  0  0  0  0
  149.1710  141.4053  154.5331 C   0  0  0  0  0  0  0  0  0  0  0  0
  150.0849  140.5949  155.4715 C   0  0  1  0  0  0  0  0  0  0  0  0
  151.0644  139.9462  154.6884 O   0  0  0  0  0  0  0  0  0  0  0  0
  150.7071  141.4583  156.5279 C   0  0  0  0  0  0  0  0  0  0  0  0
  150.5049  142.7987  156.6762 N   0  3  0  0  0  0  0  0  0  0  0  0
  151.2479  143.2746  157.7562 C   0  0  0  0  0  0  0  0  0  0  0  0
  151.3697  144.5560  158.2845 C   0  0  0  0  0  0  0  0  0  0  0  0
  152.2238  144.7029  159.3972 C   0  0  0  0  0  0  0  0  0  0  0  0
  152.9169  143.6018  159.9411 C   0  0  0  0  0  0  0  0  0  0  0  0
  152.7839  142.3070  159.3973 C   0  0  0  0  0  0  0  0  0  0  0  0
  151.9355  142.1702  158.2988 C   0  0  0  0  0  0  0  0  0  0  0  0
  151.5658  141.0705  157.5167 N   0  0  0  0  0  0  0  0  0  0  0  0
  152.1299  139.7491  157.8305 C   0  0  0  0  0  0  0  0  0  0  0  0
  151.1368  138.8695  158.6020 C   0  0  0  0  0  0  0  0  0  0  0  0
  150.7456  137.7855  157.7702 O   0  0  0  0  0  0  0  0  0  0  0  0
  149.8493  136.8613  158.2625 C   0  0  0  0  0  0  0  0  0  0  0  0
  149.2321  136.9655  159.5345 C   0  0  0  0  0  0  0  0  0  0  0  0
  148.3255  135.9822  159.9698 C   0  0  0  0  0  0  0  0  0  0  0  0
  148.0259  134.8871  159.1417 C   0  0  0  0  0  0  0  0  0  0  0  0
  148.6323  134.7749  157.8774 C   0  0  0  0  0  0  0  0  0  0  0  0
  149.5479  135.7601  157.4281 C   0  0  0  0  0  0  0  0  0  0  0  0
  150.1819  135.7128  156.2032 O   0  0  0  0  0  0  0  0  0  0  0  0
  149.8766  134.6365  155.3287 C   0  0  0  0  0  0  0  0  0  0  0  0
  147.4779  141.1837  153.1862 H   0  0  0  0  0  0  0  0  0  0  0  0
  147.3842  140.1459  154.6026 H   0  0  0  0  0  0  0  0  0  0  0  0
  148.4925  139.7491  153.2890 H   0  0  0  0  0  0  0  0  0  0  0  0
  149.7771  141.8599  153.7483 H   0  0  0  0  0  0  0  0  0  0  0  0
  148.7155  142.2316  155.0806 H   0  0  0  0  0  0  0  0  0  0  0  0
  149.4992  139.8103  155.9499 H   0  0  0  0  0  0  0  0  0  0  0  0
  151.6844  139.5322  155.2702 H   0  0  0  0  0  0  0  0  0  0  0  0
  150.8418  145.4012  157.8674 H   0  0  0  0  0  0  0  0  0  0  0  0
  152.3512  145.6798  159.8411 H   0  0  0  0  0  0  0  0  0  0  0  0
  153.5643  143.7529  160.7927 H   0  0  0  0  0  0  0  0  0  0  0  0
  153.3213  141.4712  159.8201 H   0  0  0  0  0  0  0  0  0  0  0  0
  152.4496  139.2666  156.9066 H   0  0  0  0  0  0  0  0  0  0  0  0
  153.0326  139.9021  158.4216 H   0  0  0  0  0  0  0  0  0  0  0  0
  151.6093  138.4959  159.5118 H   0  0  0  0  0  0  0  0  0  0  0  0
  150.2676  139.4627  158.8895 H   0  0  0  0  0  0  0  0  0  0  0  0
  149.4361  137.7935  160.1961 H   0  0  0  0  0  0  0  0  0  0  0  0
  147.8589  136.0691  160.9400 H   0  0  0  0  0  0  0  0  0  0  0  0
  147.3300  134.1318  159.4760 H   0  0  0  0  0  0  0  0  0  0  0  0
  148.3778  133.9197  157.2700 H   0  0  0  0  0  0  0  0  0  0  0  0
  150.4509  134.7468  154.4092 H   0  0  0  0  0  0  0  0  0  0  0  0
  148.8201  134.6296  155.0576 H   0  0  0  0  0  0  0  0  0  0  0  0
  150.1440  133.6757  155.7704 H   0  0  0  0  0  0  0  0  0  0  0  0
  149.9051  143.3449  156.0713 H   0  0  0  0  0  0  0  0  0  0  0  0
  1  2  1  0  0  0  0
  1 25  1  0  0  0  0
  1 26  1  0  0  0  0
  1 27  1  0  0  0  0
  2  3  1  0  0  0  0
  2 28  1  0  0  0  0
  2 29  1  0  0  0  0
  3  4  1  0  0  0  0
  3  5  1  0  0  0  0
  3 30  1  0  0  0  0
  4 31  1  0  0  0  0
  5 13  1  0  0  0  0
  5  6  2  0  0  0  0
  6  7  1  0  0  0  0
  6 47  1  0  0  0  0
  7 12  2  0  0  0  0
  7  8  1  0  0  0  0
  8  9  2  0  0  0  0
  8 32  1  0  0  0  0
  9 10  1  0  0  0  0
  9 33  1  0  0  0  0
 10 11  2  0  0  0  0
 10 34  1  0  0  0  0
 11 12  1  0  0  0  0
 11 35  1  0  0  0  0
 12 13  1  0  0  0  0
 13 14  1  0  0  0  0
 14 15  1  0  0  0  0
 14 36  1  0  0  0  0
 14 37  1  0  0  0  0
 15 16  1  0  0  0  0
 15 38  1  0  0  0  0
 15 39  1  0  0  0  0
 16 17  1  0  0  0  0
 17 22  1  0  0  0  0
 17 18  2  0  0  0  0
 18 19  1  0  0  0  0
 18 40  1  0  0  0  0
 19 20  2  0  0  0  0
 19 41  1  0  0  0  0
 20 21  1  0  0  0  0
 20 42  1  0  0  0  0
 21 22  2  0  0  0  0
 21 43  1  0  0  0  0
 22 23  1  0  0  0  0
 23 24  1  0  0  0  0
 24 44  1  0  0  0  0
 24 45  1  0  0  0  0
 24 46  1  0  0  0  0
M  CHG  1   6   1
M  END
> <s_m_source_file>
AV-unprocessed.smi

> <i_m_source_file_index>
460

> <i_lp_mmshare_version>
43012

> <i_f3d_flags>
0

> <s_epik_input>
W2NIXTFbY0hdW2NIXVtjSF1jKGMxMiluKGMobjIpW0NAQEhdKFtPSF0pW0NIMl1bQ0gzXSlbQ0gyXVtDSDJdT2MzW2NIXVtjSF1bY0hdW2NIXWMzT1tDSDNd

> <s_epik_cmdline>
J2VwaWtfcHl0aG9uJywgJy1waCcsICc3LjAnLCAnLXRuJywgJzgnLCAnLW1hJywgJzIwMCcsICctbWV0YWxfYmluZGluZycsICctaW1hZScsICc8aW5maWxlLm1hZT4nLCAnLW9tYWUnLCAnPG91dGZpbGUubWFlPic=

> <r_lp_tautomer_probability>
1

> <r_epik_Ionization_Penalty>
1.48085

> <r_epik_Ionization_Penalty_Charging>
1.48083

> <r_epik_Ionization_Penalty_Neutral>
1.80167e-05

> <r_epik_State_Penalty>
1.56944

> <r_epik_Charging_Adjusted_Penalty>
3.05027

> <i_epik_Tot_Q>
1

> <i_epik_Tot_abs_Q>
1

> <r_epik_Metal_State_Penalty>
5.61877

> <b_epik_Metal_Only>
0

> <s_lp_Force_Field>
OPLS_2005

> <r_lp_Energy>
21.4697

> <b_lp_Chiralities_Consistent>
1

> <s_lp_Variant>
AV-unprocessed.smi:460-4

> <Gold.Version>
5.8.1

> <Gold.Id.Protein>
6NUR|6NUR_protein|mol2

> <Gold.PLP.Fitness>
55.7503

> <Gold.PLP.PLP>
-48.2554

> <Gold.PLP.part.hbond>
-2.0000

> <Gold.PLP.part.metal>
0.0000

> <Gold.PLP.part.buried>
-5.5373

> <Gold.PLP.part.nonpolar>
-40.9584

> <Gold.PLP.part.repulsive>
0.0885

> <Gold.PLP.ligand.clash>
0.0000

> <Gold.PLP.ligand.torsion>
0.9049

> <Gold.PLP.Chemscore.Hbond>
3.0000

> <Gold.PLP.Chemscore.CHOScore>
0.0000

> <Gold.PLP.Chemscore.Metal>
0.0000

> <Gold.Chemscore.Hbonds>
donor molecule, donor type, donor heavy atom, donor atom, acceptor molecule, acceptor atom, score
      L1  H     6    47       P1  8028  2.00
      P1  H  7989  7998       L1     4  1.00

> <Gold.PLP.Chemscore.Internal.Correction>
0.3046

> <Gold.Rescore>
     Score         DG    S(hbond)    S(metal)    S(lipo)     H(rot)  DE(clash)    DE(int)     intcor
     20.06     -20.87       1.94        0.00     129.61       2.45       0.03       0.78       ----

> <Gold.Chemscore.Fitness>
20.0574

> <Gold.Chemscore.DG>
-20.8693

> <Gold.Chemscore.ZeroCoef>
-5.4800

> <Gold.Chemscore.Hbond>
1.9412

> <Gold.Chemscore.Metal>
0.0000

> <Gold.Chemscore.Lipo>
129.6143

> <Gold.Chemscore.Internal_Hbond>
0.0000

> <Gold.Chemscore.DEClash>
0.0291

> <Gold.Chemscore.DEInternal>
0.7828

> <Gold.Chemscore.Rot>
2.4450

> <Gold.Chemscore.Internal.Correction>
   9.000000E+99

> <Gold.Chemscore.Hbonds>
donor molecule, donor type, donor heavy atom, donor atom, acceptor molecule, acceptor atom, score
      L1  H     6    47       P1  8028  0.98
      P1  H  7989  7998       L1     4  0.81

> <Gold.Chemscore.Hbond.Weighted>
-6.4837

> <Gold.Chemscore.Metal.Weighted>
-0.0000

> <Gold.Chemscore.Lipo.Weighted>
-15.1649

> <Gold.Chemscore.Internal_Hbond.Weighted>
0.0000

> <Gold.Chemscore.DEClash.Weighted>
0.0291

> <Gold.Chemscore.DEInternal.Weighted>
0.7828

> <Gold.Chemscore.Rot.Weighted>
6.2593

> <Gold.Chemscore.Internal.Correction.Weighted>
   9.000000E+99

> <Gold.Protein.RotatedTorsions>
[ 6907 6896 6895 6894 ] final  -97.05 input  -60.11 | X-H torsion
[ 7974 7965 7964 7962 ] final -164.95 input  175.53 | X-H torsion
[ 8008 7997 7996 7995 ] final  161.53 input   59.86 | X-H torsion
[ 10167 10162 10161 10158 ] final   19.98 input  -65.29 | X-H torsion
[ 10718 10713 10712 10709 ] final   -1.66 input   66.30 | X-H torsion
[ 10763 10752 10751 10750 ] final   64.18 input  -60.55 | X-H torsion
[ 11005 11000 10999 10996 ] final  101.35 input  -57.11 | X-H torsion

> <Gold.Protein.ActiveResidues>
 VAL166  LYS551  ARG553  GLY616  TRP617  ASP618  TYR619  PRO620  LYS621  CYS622 
 ASP623  PHE694  ASN695  SER759  ASP760  ASP761  ALA762  ILE779  LEU786  VAL792 
 PHE793  MET794  SER795  GLU796  ALA797  LYS798  CYS799  TRP800  GLU811  SER814 

> <Gold.Protein.RotatedAtoms>
  150.7005  134.1408  159.4104 H   0  0  0  0  0  0  0  0  0  0  0  0  # atno 6907 bound_to 6896
  151.9393  135.0218  160.0544 H   0  0  0  0  0  0  0  0  0  0  0  0  # atno 6908 bound_to 6896
  152.2108  133.4874  159.5145 H   0  0  0  0  0  0  0  0  0  0  0  0  # atno 6909 bound_to 6896
  144.7283  140.2885  143.6224 H   0  0  0  0  0  0  0  0  0  0  0  0  # atno 7974 bound_to 7965
  156.2097  140.1775  156.7723 H   0  0  0  0  0  0  0  0  0  0  0  0  # atno 8008 bound_to 7997
  154.5704  140.0683  156.8986 H   0  0  0  0  0  0  0  0  0  0  0  0  # atno 8009 bound_to 7997
  155.2683  140.3340  155.4270 H   0  0  0  0  0  0  0  0  0  0  0  0  # atno 8010 bound_to 7997
  140.5538  143.9461  150.6596 H   0  0  0  0  0  0  0  0  0  0  0  0  # atno 10167 bound_to 10162
  156.8023  130.5397  149.5720 H   0  0  0  0  0  0  0  0  0  0  0  0  # atno 10718 bound_to 10713
  153.0046  135.5402  154.6469 H   0  0  0  0  0  0  0  0  0  0  0  0  # atno 10763 bound_to 10752
  154.5710  135.2841  155.0829 H   0  0  0  0  0  0  0  0  0  0  0  0  # atno 10764 bound_to 10752
  154.1995  135.6486  153.5135 H   0  0  0  0  0  0  0  0  0  0  0  0  # atno 10765 bound_to 10752
  139.8773  134.9179  156.4893 H   0  0  0  0  0  0  0  0  0  0  0  0  # atno 11005 bound_to 11000
  145.7879  139.1916  143.2120 LP  0  0  0  0  0  0  0  0  0  0  0  0  # atno 17320 bound_to 7965
  146.0780  140.7795  142.9655 LP  0  0  0  0  0  0  0  0  0  0  0  0  # atno 17321 bound_to 7965
  140.2894  143.3335  152.1077 LP  0  0  0  0  0  0  0  0  0  0  0  0  # atno 17342 bound_to 10162
  139.5039  144.6764  151.6117 LP  0  0  0  0  0  0  0  0  0  0  0  0  # atno 17343 bound_to 10162
  156.1094  130.6029  151.0023 LP  0  0  0  0  0  0  0  0  0  0  0  0  # atno 17370 bound_to 10713
  157.6547  131.0891  150.7973 LP  0  0  0  0  0  0  0  0  0  0  0  0  # atno 17371 bound_to 10713
  140.8670  133.8016  155.9325 LP  0  0  0  0  0  0  0  0  0  0  0  0  # atno 17394 bound_to 11000
  140.8991  134.2400  157.5052 LP  0  0  0  0  0  0  0  0  0  0  0  0  # atno 17395 bound_to 11000

$$$$
