AV-unprocessed.smi:655|AV-procd|sdf|3216|dock8
  -GOLD-   22720 0153D 1   1.00000     0.00000
 Structure written by MMmdl.
 34 35  0  0  0  0  0  0  0  0  2 V2000
  152.5147  143.4831  161.9273 C   0  0  0  0  0  0  0  0  0  0  0  0
  152.5294  143.2664  160.4076 C   0  0  2  0  0  0  0  0  0  0  0  0
  151.9148  144.4621  159.6596 C   0  0  0  0  0  0  0  0  0  0  0  0
  151.9373  144.2493  158.1350 C   0  0  0  0  0  0  0  0  0  0  0  0
  151.2561  142.9331  157.6888 C   0  0  1  0  0  0  0  0  0  0  0  0
  149.8759  143.0704  157.9737 O   0  0  0  0  0  0  0  0  0  0  0  0
  151.4025  142.7777  156.1478 C   0  0  0  0  0  0  0  0  0  0  0  0
  150.7757  141.5669  155.5875 N   0  0  0  0  0  0  0  0  0  0  0  0
  149.5300  141.7091  154.9499 C   0  0  0  0  0  0  0  0  0  0  0  0
  148.8814  140.6636  154.4021 C   0  0  0  0  0  0  0  0  0  0  0  0
  147.3573  140.8734  153.6159 Cl  0  0  0  0  0  0  0  0  0  0  0  0
  149.5068  139.3462  154.4918 C   0  0  0  0  0  0  0  0  0  0  0  0
  148.9455  138.3707  153.9950 O   0  0  0  0  0  0  0  0  0  0  0  0
  150.7064  139.2567  155.1367 N   0  5  0  0  0  0  0  0  0  0  0  0
  151.3487  140.3307  155.6915 C   0  0  0  0  0  0  0  0  0  0  0  0
  152.4223  140.2181  156.2832 O   0  0  0  0  0  0  0  0  0  0  0  0
  151.8222  141.7377  158.4962 C   0  0  0  0  0  0  0  0  0  0  0  0
  151.8007  141.9692  160.0174 C   0  0  0  0  0  0  0  0  0  0  0  0
  151.4964  143.5844  162.3041 H   0  0  0  0  0  0  0  0  0  0  0  0
  153.0627  144.3850  162.2006 H   0  0  0  0  0  0  0  0  0  0  0  0
  152.9801  142.6450  162.4468 H   0  0  0  0  0  0  0  0  0  0  0  0
  153.5718  143.1739  160.0990 H   0  0  0  0  0  0  0  0  0  0  0  0
  150.8892  144.6220  159.9947 H   0  0  0  0  0  0  0  0  0  0  0  0
  152.4609  145.3738  159.9050 H   0  0  0  0  0  0  0  0  0  0  0  0
  151.4713  145.1025  157.6397 H   0  0  0  0  0  0  0  0  0  0  0  0
  152.9775  144.2446  157.8067 H   0  0  0  0  0  0  0  0  0  0  0  0
  149.4823  143.6056  157.3016 H   0  0  0  0  0  0  0  0  0  0  0  0
  151.0405  143.6732  155.6393 H   0  0  0  0  0  0  0  0  0  0  0  0
  152.4640  142.7457  155.8975 H   0  0  0  0  0  0  0  0  0  0  0  0
  149.1408  142.7165  154.9262 H   0  0  0  0  0  0  0  0  0  0  0  0
  151.2673  140.8263  158.2709 H   0  0  0  0  0  0  0  0  0  0  0  0
  152.8522  141.5531  158.1888 H   0  0  0  0  0  0  0  0  0  0  0  0
  152.2636  141.1180  160.5180 H   0  0  0  0  0  0  0  0  0  0  0  0
  150.7684  142.0043  160.3683 H   0  0  0  0  0  0  0  0  0  0  0  0
  1  2  1  0  0  0  0
  1 19  1  0  0  0  0
  1 20  1  0  0  0  0
  1 21  1  0  0  0  0
  2 18  1  0  0  0  0
  2  3  1  0  0  0  0
  2 22  1  0  0  0  0
  3  4  1  0  0  0  0
  3 23  1  0  0  0  0
  3 24  1  0  0  0  0
  4  5  1  0  0  0  0
  4 25  1  0  0  0  0
  4 26  1  0  0  0  0
  5  6  1  0  0  0  0
  5  7  1  0  0  0  0
  5 17  1  0  0  0  0
  6 27  1  0  0  0  0
  7  8  1  0  0  0  0
  7 28  1  0  0  0  0
  7 29  1  0  0  0  0
  8 15  1  0  0  0  0
  8  9  1  0  0  0  0
  9 10  2  0  0  0  0
  9 30  1  0  0  0  0
 10 11  1  0  0  0  0
 10 12  1  0  0  0  0
 12 13  2  0  0  0  0
 12 14  1  0  0  0  0
 14 15  1  0  0  0  0
 15 16  2  0  0  0  0
 17 18  1  0  0  0  0
 17 31  1  0  0  0  0
 17 32  1  0  0  0  0
 18 33  1  0  0  0  0
 18 34  1  0  0  0  0
M  CHG  1  14  -1
M  END
> <s_m_source_file>
AV-unprocessed.smi

> <i_m_source_file_index>
655

> <i_lp_mmshare_version>
43012

> <i_f3d_flags>
0

> <s_epik_input>
W0NIMl0xW0NIMl1bQ0BIXShbQ0gzXSlbQ0gyXVtDSDJdW0NAQF0xKFtPSF0pW0NIMl1uMltjSF1jKENsKWMoPU8pW25IXWMyPU8=

> <s_epik_cmdline>
J2VwaWtfcHl0aG9uJywgJy1waCcsICc3LjAnLCAnLXRuJywgJzgnLCAnLW1hJywgJzIwMCcsICctbWV0YWxfYmluZGluZycsICctaW1hZScsICc8aW5maWxlLm1hZT4nLCAnLW9tYWUnLCAnPG91dGZpbGUubWFlPic=

> <r_epik_Ionization_Penalty>
2.34257

> <r_epik_Ionization_Penalty_Charging>
1.00552e-07

> <r_epik_Ionization_Penalty_Neutral>
2.34257

> <r_epik_State_Penalty>
2.4963

> <r_epik_Charging_Adjusted_Penalty>
2.4963

> <i_epik_Tot_Q>
-1

> <i_epik_Tot_abs_Q>
1

> <r_epik_Metal_State_Penalty>
0.0381881

> <b_epik_Metal_Only>
0

> <s_lp_Force_Field>
OPLS_2005

> <r_lp_Energy>
26.568

> <b_lp_Chiralities_Consistent>
1

> <s_lp_Variant>
AV-unprocessed.smi:655-3

> <Gold.Version>
5.8.1

> <Gold.Id.Protein>
6NUR|6NUR_protein|mol2

> <Gold.PLP.Fitness>
44.7611

> <Gold.PLP.PLP>
-36.2020

> <Gold.PLP.part.hbond>
-2.0000

> <Gold.PLP.part.metal>
0.0000

> <Gold.PLP.part.buried>
-1.2017

> <Gold.PLP.part.nonpolar>
-33.1660

> <Gold.PLP.part.repulsive>
0.4390

> <Gold.PLP.ligand.clash>
0.0000

> <Gold.PLP.ligand.torsion>
0.2486

> <Gold.PLP.Chemscore.Hbond>
2.0000

> <Gold.PLP.Chemscore.CHOScore>
1.0000

> <Gold.PLP.Chemscore.Metal>
0.0000

> <Gold.Chemscore.Hbonds>
donor molecule, donor type, donor heavy atom, donor atom, acceptor molecule, acceptor atom, score
      L1  H     6    27       P1  8028  0.93
      P1  H  7997  8008       L1    16  1.00
      L1  C     9    30       P1  8028  1.00

> <Gold.PLP.Chemscore.Internal.Correction>
0.0564

> <Gold.Rescore>
     Score         DG    S(hbond)    S(metal)    S(lipo)     H(rot)  DE(clash)    DE(int)     intcor
     15.36     -19.93       1.93        0.00     108.12       1.81       2.95       1.62       ----

> <Gold.Chemscore.Fitness>
15.3620

> <Gold.Chemscore.DG>
-19.9276

> <Gold.Chemscore.ZeroCoef>
-5.4800

> <Gold.Chemscore.Hbond>
1.9251

> <Gold.Chemscore.Metal>
0.0000

> <Gold.Chemscore.Lipo>
108.1152

> <Gold.Chemscore.Internal_Hbond>
0.0000

> <Gold.Chemscore.DEClash>
2.9502

> <Gold.Chemscore.DEInternal>
1.6154

> <Gold.Chemscore.Rot>
1.8092

> <Gold.Chemscore.Internal.Correction>
   9.000000E+99

> <Gold.Chemscore.Hbonds>
donor molecule, donor type, donor heavy atom, donor atom, acceptor molecule, acceptor atom, score
      L1  H     6    27       P1  8028  0.62
      P1  H  7997  8008       L1    16  0.98

> <Gold.Chemscore.Hbond.Weighted>
-6.4297

> <Gold.Chemscore.Metal.Weighted>
-0.0000

> <Gold.Chemscore.Lipo.Weighted>
-12.6495

> <Gold.Chemscore.Internal_Hbond.Weighted>
0.0000

> <Gold.Chemscore.DEClash.Weighted>
2.9502

> <Gold.Chemscore.DEInternal.Weighted>
1.6154

> <Gold.Chemscore.Rot.Weighted>
4.6316

> <Gold.Chemscore.Internal.Correction.Weighted>
   9.000000E+99

> <Gold.Protein.RotatedTorsions>
[ 6907 6896 6895 6894 ] final   17.87 input  -60.11 | X-H torsion
[ 7974 7965 7964 7962 ] final -123.14 input  175.53 | X-H torsion
[ 8008 7997 7996 7995 ] final  -39.84 input   59.86 | X-H torsion
[ 10167 10162 10161 10158 ] final  -57.73 input  -65.29 | X-H torsion
[ 10718 10713 10712 10709 ] final  152.48 input   66.30 | X-H torsion
[ 10763 10752 10751 10750 ] final -144.21 input  -60.55 | X-H torsion
[ 11005 11000 10999 10996 ] final  101.02 input  -57.11 | X-H torsion

> <Gold.Protein.ActiveResidues>
 VAL166  LYS551  ARG553  GLY616  TRP617  ASP618  TYR619  PRO620  LYS621  CYS622 
 ASP623  PHE694  ASN695  SER759  ASP760  ASP761  ALA762  ILE779  LEU786  VAL792 
 PHE793  MET794  SER795  GLU796  ALA797  LYS798  CYS799  TRP800  GLU811  SER814 

> <Gold.Protein.RotatedAtoms>
  151.8564  135.0539  160.0464 H   0  0  0  0  0  0  0  0  0  0  0  0  # atno 6907 bound_to 6896
  152.2696  133.5366  159.5440 H   0  0  0  0  0  0  0  0  0  0  0  0  # atno 6908 bound_to 6896
  150.7147  134.0632  159.3881 H   0  0  0  0  0  0  0  0  0  0  0  0  # atno 6909 bound_to 6896
  145.0219  140.7995  143.4376 H   0  0  0  0  0  0  0  0  0  0  0  0  # atno 7974 bound_to 7965
  154.4018  140.1541  156.2929 H   0  0  0  0  0  0  0  0  0  0  0  0  # atno 8008 bound_to 7997
  155.8769  140.3446  155.5839 H   0  0  0  0  0  0  0  0  0  0  0  0  # atno 8009 bound_to 7997
  155.7711  140.0830  157.2098 H   0  0  0  0  0  0  0  0  0  0  0  0  # atno 8010 bound_to 7997
  140.6240  143.2431  151.5409 H   0  0  0  0  0  0  0  0  0  0  0  0  # atno 10167 bound_to 10162
  157.2572  131.0791  151.1690 H   0  0  0  0  0  0  0  0  0  0  0  0  # atno 10718 bound_to 10713
  154.8438  135.3446  154.6310 H   0  0  0  0  0  0  0  0  0  0  0  0  # atno 10763 bound_to 10752
  153.6920  135.6974  153.5092 H   0  0  0  0  0  0  0  0  0  0  0  0  # atno 10764 bound_to 10752
  153.2588  135.4329  155.0828 H   0  0  0  0  0  0  0  0  0  0  0  0  # atno 10765 bound_to 10752
  139.8772  134.9165  156.4844 H   0  0  0  0  0  0  0  0  0  0  0  0  # atno 11005 bound_to 11000
  145.1885  139.2314  143.5255 LP  0  0  0  0  0  0  0  0  0  0  0  0  # atno 17320 bound_to 7965
  146.3486  140.1675  142.8590 LP  0  0  0  0  0  0  0  0  0  0  0  0  # atno 17321 bound_to 7965
  139.5464  144.2511  152.1449 LP  0  0  0  0  0  0  0  0  0  0  0  0  # atno 17342 bound_to 10162
  140.1738  144.4911  150.6565 LP  0  0  0  0  0  0  0  0  0  0  0  0  # atno 17343 bound_to 10162
  157.3215  130.6939  149.6272 LP  0  0  0  0  0  0  0  0  0  0  0  0  # atno 17370 bound_to 10713
  155.9664  130.4334  150.5005 LP  0  0  0  0  0  0  0  0  0  0  0  0  # atno 17371 bound_to 10713
  140.8704  133.7993  155.9358 LP  0  0  0  0  0  0  0  0  0  0  0  0  # atno 17394 bound_to 11000
  140.8959  134.2438  157.5069 LP  0  0  0  0  0  0  0  0  0  0  0  0  # atno 17395 bound_to 11000

$$$$
