#       Name:                AV-unprocessed.smi:1360
#       Creating user name   scv26
#       Creation time:       Fri Mar 27 05:14:31 2020


#       File generated by GOLD software.
#

@<TRIPOS>MOLECULE
AV-unprocessed.smi:1360
    39    40     1
SMALL
NO_CHARGES


@<TRIPOS>ATOM
      1 ****        -0.2195  -2.2035  -1.8662 C.3            1 S1                 0.0000
      2 ****         0.1978  -1.5246  -0.5513 C.3            1 S1                 0.0000
      3 ****         1.7212  -1.5663  -0.3011 C.3            1 S1                 0.0000
      4 ****         2.2480  -2.9190  -0.2731 N.pl3          1 S1                 0.0000
      5 ****         2.1499  -3.8525   0.7371 C.2            1 S1                 0.0000
      6 ****         2.7958  -4.9786   0.3138 C.2            1 S1                 0.0000
      7 ****         3.2655  -4.6312  -0.9837 C.2            1 S1                 0.0000
      8 ****         2.9369  -3.3976  -1.3321 N.2            1 S1                 0.0000
      9 ****        -0.2730  -0.1426  -0.5574 N.am           1 S1                 0.0000
     10 ****        -0.5749   0.5836   0.5305 C.2            1 S1                 0.0000
     11 ****        -0.4808   0.1501   1.6794 O.2            1 S1                 0.0000
     12 ****        -1.0563   2.0193   0.2813 C.3            1 S1                 0.0000
     13 ****        -0.1026   3.0527   0.9249 C.3            1 S1                 0.0000
     14 ****        -0.6854   4.4551   0.9121 C.2            1 S1                 0.0000
     15 ****        -1.9856   4.7134   0.6900 C.2            1 S1                 0.0000
     16 ****        -3.0204   3.6322   0.4327 C.3            1 S1                 0.0000
     17 ****        -2.4973   2.2275   0.7887 C.3            1 S1                 0.0000
     18 ****         0.0297  -3.2647  -1.8654 H              1 S1                 0.0000
     19 ****         0.2758  -1.7456  -2.7230 H              1 S1                 0.0000
     20 ****        -1.2959  -2.1254  -2.0227 H              1 S1                 0.0000
     21 ****        -0.3014  -2.0573   0.2605 H              1 S1                 0.0000
     22 ****         2.2470  -0.9974  -1.0700 H              1 S1                 0.0000
     23 ****         1.9629  -1.0945   0.6523 H              1 S1                 0.0000
     24 ****         1.6321  -3.6397   1.6609 H              1 S1                 0.0000
     25 ****         2.9154  -5.9086   0.8494 H              1 S1                 0.0000
     26 ****         3.8320  -5.2345  -1.6778 H              1 S1                 0.0000
     27 ****        -0.3807   0.2956  -1.4606 H              1 S1                 0.0000
     28 ****        -1.0601   2.1931  -0.7966 H              1 S1                 0.0000
     29 ****         0.1252   2.7942   1.9601 H              1 S1                 0.0000
     30 ****         0.8451   3.0653   0.3855 H              1 S1                 0.0000
     31 ****        -0.0018   5.2685   1.1062 H              1 S1                 0.0000
     32 ****        -2.3361   5.7350   0.6800 H              1 S1                 0.0000
     33 ****        -3.9203   3.8504   1.0081 H              1 S1                 0.0000
     34 ****        -3.2987   3.6751  -0.6207 H              1 S1                 0.0000
     35 ****        -3.1670   1.4723   0.3750 H              1 S1                 0.0000
     36 ****        -2.5235   2.1012   1.8724 H              1 S1                 0.0000
     37 ****         3.1506  -2.9256  -2.1874 LP             1 S1                 0.0000
     38 ****        -0.1663  -0.7861   1.8364 LP             1 S1                 0.0000
     39 ****        -0.7189   0.7343   2.4553 LP             1 S1                 0.0000
@<TRIPOS>BOND
    1    1    2 1     
    2    1   18 1     
    3    1   19 1     
    4    1   20 1     
    5    2    3 1     
    6    2    9 1     
    7    2   21 1     
    8    3    4 1     
    9    3   22 1     
   10    3   23 1     
   11    4    8 1     
   12    4    5 1     
   13    5    6 2     
   14    5   24 1     
   15    6    7 1     
   16    6   25 1     
   17    7    8 2     
   18    7   26 1     
   19    9   10 am    
   20    9   27 1     
   21   10   11 2     
   22   10   12 1     
   23   12   17 1     
   24   12   13 1     
   25   12   28 1     
   26   13   14 1     
   27   13   29 1     
   28   13   30 1     
   29   14   15 2     
   30   14   31 1     
   31   15   16 1     
   32   15   32 1     
   33   16   17 1     
   34   16   33 1     
   35   16   34 1     
   36   17   35 1     
   37   17   36 1     
   38    8   37 1     
   39   11   38 1     
   40   11   39 1     
@<TRIPOS>SUBSTRUCTURE
      1 S1             1
@<TRIPOS>SET
LONE_PAIRS      STATIC     ATOMS    <user>   **** ""
3 37 38 39
DONOR_HYDROGENS      STATIC     ATOMS    <user>   **** ""
1 27
ATOM$BLUE        STATIC     ATOMS    COLORGROUP SYSTEM
3 37 38 39
ATOM$RED        STATIC     ATOMS    COLORGROUP SYSTEM
1 27
