AV-unprocessed.smi:1411|AV-procd|sdf|5739|dock2
  -GOLD-   22720 5373D 1   1.00000     0.00000
 Structure written by MMmdl.
 43 44  0  0  0  0  0  0  0  0  3 V2000
  154.8625  139.6832  159.1883 O   0  0  0  0  0  0  0  0  0  0  0  0
  153.6383  139.6183  159.3103 C   0  0  0  0  0  0  0  0  0  0  0  0
  152.8591  138.3845  158.8328 C   0  0  0  0  0  0  0  0  0  0  0  0
  152.2915  138.5393  157.4830 N   0  0  0  0  0  0  0  0  0  0  0  0
  151.5168  139.6928  157.2508 C   0  0  0  0  0  0  0  0  0  0  0  0
  150.9514  139.9475  156.0547 C   0  0  0  0  0  0  0  0  0  0  0  0
  150.1629  141.1400  155.8337 N   0  3  0  0  0  0  0  0  0  0  0  0
  149.6875  141.3326  154.7192 O   0  0  0  0  0  0  0  0  0  0  0  0
  149.9921  141.9219  156.7643 O   0  5  0  0  0  0  0  0  0  0  0  0
  151.1633  138.9851  154.9908 C   0  0  0  0  0  0  0  0  0  0  0  0
  151.9075  137.8822  155.2050 C   0  0  0  0  0  0  0  0  0  0  0  0
  152.5255  137.6095  156.5067 C   0  0  0  0  0  0  0  0  0  0  0  0
  153.2121  136.6073  156.7061 O   0  0  0  0  0  0  0  0  0  0  0  0
  152.9025  140.5956  159.8618 N   0  0  0  0  0  0  0  0  0  0  0  0
  153.4158  141.8617  160.3812 C   0  0  0  0  0  0  0  0  0  0  0  0
  152.5732  142.2798  161.6061 C   0  0  0  0  0  0  0  0  0  0  0  0
  152.8273  143.7051  162.1369 C   0  0  0  0  0  0  0  0  0  0  0  0
  151.7472  144.7350  161.7463 C   0  0  0  0  0  0  0  0  0  0  0  0
  151.6777  145.1440  160.2605 C   0  0  0  0  0  0  0  0  0  0  0  0
  151.1771  144.0383  159.3084 C   0  0  0  0  0  0  0  0  0  0  0  0
  152.2711  143.3160  158.4982 C   0  0  0  0  0  0  0  0  0  0  0  0
  153.5518  142.9173  159.2575 C   0  0  0  0  0  0  0  0  0  0  0  0
  153.5181  137.5161  158.8830 H   0  0  0  0  0  0  0  0  0  0  0  0
  152.0600  138.1734  159.5455 H   0  0  0  0  0  0  0  0  0  0  0  0
  151.4248  140.3485  158.1050 H   0  0  0  0  0  0  0  0  0  0  0  0
  150.7286  139.1425  154.0147 H   0  0  0  0  0  0  0  0  0  0  0  0
  152.0536  137.1796  154.3976 H   0  0  0  0  0  0  0  0  0  0  0  0
  151.9047  140.4543  159.9247 H   0  0  0  0  0  0  0  0  0  0  0  0
  154.4250  141.6819  160.7568 H   0  0  0  0  0  0  0  0  0  0  0  0
  151.5098  142.1316  161.4221 H   0  0  0  0  0  0  0  0  0  0  0  0
  152.8046  141.5769  162.4078 H   0  0  0  0  0  0  0  0  0  0  0  0
  152.8316  143.6516  163.2262 H   0  0  0  0  0  0  0  0  0  0  0  0
  153.8234  144.0592  161.8722 H   0  0  0  0  0  0  0  0  0  0  0  0
  150.7694  144.3764  162.0703 H   0  0  0  0  0  0  0  0  0  0  0  0
  151.9286  145.6392  162.3285 H   0  0  0  0  0  0  0  0  0  0  0  0
  150.9724  145.9734  160.1955 H   0  0  0  0  0  0  0  0  0  0  0  0
  152.6272  145.5601  159.9239 H   0  0  0  0  0  0  0  0  0  0  0  0
  150.5590  143.3213  159.8460 H   0  0  0  0  0  0  0  0  0  0  0  0
  150.4952  144.4921  158.5882 H   0  0  0  0  0  0  0  0  0  0  0  0
  151.8391  142.4402  158.0133 H   0  0  0  0  0  0  0  0  0  0  0  0
  152.5716  143.9770  157.6845 H   0  0  0  0  0  0  0  0  0  0  0  0
  154.0488  143.8070  159.6397 H   0  0  0  0  0  0  0  0  0  0  0  0
  154.2545  142.5295  158.5189 H   0  0  0  0  0  0  0  0  0  0  0  0
  1  2  2  0  0  0  0
  2  3  1  0  0  0  0
  2 14  1  0  0  0  0
  3  4  1  0  0  0  0
  3 23  1  0  0  0  0
  3 24  1  0  0  0  0
  4 12  1  0  0  0  0
  4  5  1  0  0  0  0
  5  6  2  0  0  0  0
  5 25  1  0  0  0  0
  6  7  1  0  0  0  0
  6 10  1  0  0  0  0
  7  8  2  0  0  0  0
  7  9  1  0  0  0  0
 10 11  2  0  0  0  0
 10 26  1  0  0  0  0
 11 12  1  0  0  0  0
 11 27  1  0  0  0  0
 12 13  2  0  0  0  0
 14 15  1  0  0  0  0
 14 28  1  0  0  0  0
 15 22  1  0  0  0  0
 15 16  1  0  0  0  0
 15 29  1  0  0  0  0
 16 17  1  0  0  0  0
 16 30  1  0  0  0  0
 16 31  1  0  0  0  0
 17 18  1  0  0  0  0
 17 32  1  0  0  0  0
 17 33  1  0  0  0  0
 18 19  1  0  0  0  0
 18 34  1  0  0  0  0
 18 35  1  0  0  0  0
 19 20  1  0  0  0  0
 19 36  1  0  0  0  0
 19 37  1  0  0  0  0
 20 21  1  0  0  0  0
 20 38  1  0  0  0  0
 20 39  1  0  0  0  0
 21 22  1  0  0  0  0
 21 40  1  0  0  0  0
 21 41  1  0  0  0  0
 22 42  1  0  0  0  0
 22 43  1  0  0  0  0
M  CHG  1   7   1
M  CHG  1   9  -1
M  END
> <s_m_source_file>
AV-unprocessed.smi

> <i_m_source_file_index>
1411

> <i_lp_mmshare_version>
43012

> <i_f3d_flags>
0

> <s_epik_input>
Tz1jMVtjSF1bY0hdYyhbTitdKD1PKVtPLV0pW2NIXW4xW0NIMl1DKD1PKVtOSF1bQ0hdMltDSDJdW0NIMl1bQ0gyXVtDSDJdW0NIMl1bQ0gyXVtDSDJdMg==

> <s_epik_cmdline>
J2VwaWtfcHl0aG9uJywgJy1waCcsICc3LjAnLCAnLXRuJywgJzgnLCAnLW1hJywgJzIwMCcsICctbWV0YWxfYmluZGluZycsICctaW1hZScsICc8aW5maWxlLm1hZT4nLCAnLW9tYWUnLCAnPG91dGZpbGUubWFlPic=

> <r_lp_tautomer_probability>
1

> <r_epik_Ionization_Penalty>
2.02954e-08

> <r_epik_Ionization_Penalty_Charging>
8.05481e-11

> <r_epik_Ionization_Penalty_Neutral>
2.02148e-08

> <r_epik_State_Penalty>
-0

> <r_epik_Charging_Adjusted_Penalty>
8.05481e-11

> <i_epik_Tot_Q>
0

> <i_epik_Tot_abs_Q>
2

> <r_epik_Metal_State_Penalty>
-0

> <b_epik_Metal_Only>
0

> <s_lp_Force_Field>
OPLS_2005

> <r_lp_Energy>
31.3753

> <b_lp_Chiralities_Consistent>
1

> <s_lp_Variant>
AV-unprocessed.smi:1411-1

> <Gold.Version>
5.8.1

> <Gold.Id.Protein>
6NUR|6NUR_protein|mol2

> <Gold.PLP.Fitness>
49.6235

> <Gold.PLP.PLP>
-43.7827

> <Gold.PLP.part.hbond>
-3.7966

> <Gold.PLP.part.metal>
0.0000

> <Gold.PLP.part.buried>
-1.3779

> <Gold.PLP.part.nonpolar>
-38.9691

> <Gold.PLP.part.repulsive>
0.4910

> <Gold.PLP.ligand.clash>
0.0000

> <Gold.PLP.ligand.torsion>
0.7499

> <Gold.PLP.Chemscore.Hbond>
2.4284

> <Gold.PLP.Chemscore.CHOScore>
0.0000

> <Gold.PLP.Chemscore.Metal>
0.0000

> <Gold.Chemscore.Hbonds>
donor molecule, donor type, donor heavy atom, donor atom, acceptor molecule, acceptor atom, score
      P1  H  7989  7998       L1     8  0.12
      P1  H  7997  8009       L1     1  1.00
      P1  H 10752 10764       L1    13  0.99

> <Gold.PLP.Chemscore.Internal.Correction>
0.0553

> <Gold.Rescore>
     Score         DG    S(hbond)    S(metal)    S(lipo)     H(rot)  DE(clash)    DE(int)     intcor
     21.38     -23.58       2.37        0.00     120.77       1.54       1.49       0.71       ----

> <Gold.Chemscore.Fitness>
21.3814

> <Gold.Chemscore.DG>
-23.5794

> <Gold.Chemscore.ZeroCoef>
-5.4800

> <Gold.Chemscore.Hbond>
2.3683

> <Gold.Chemscore.Metal>
0.0000

> <Gold.Chemscore.Lipo>
120.7704

> <Gold.Chemscore.Internal_Hbond>
0.0000

> <Gold.Chemscore.DEClash>
1.4861

> <Gold.Chemscore.DEInternal>
0.7119

> <Gold.Chemscore.Rot>
1.5393

> <Gold.Chemscore.Internal.Correction>
   9.000000E+99

> <Gold.Chemscore.Hbonds>
donor molecule, donor type, donor heavy atom, donor atom, acceptor molecule, acceptor atom, score
      P1  H  7989  7998       L1     8  0.02
      P1  H  7997  8009       L1     1  0.39
      P1  H 10752 10764       L1    13  0.91

> <Gold.Chemscore.Hbond.Weighted>
-7.9100

> <Gold.Chemscore.Metal.Weighted>
-0.0000

> <Gold.Chemscore.Lipo.Weighted>
-14.1301

> <Gold.Chemscore.Internal_Hbond.Weighted>
0.0000

> <Gold.Chemscore.DEClash.Weighted>
1.4861

> <Gold.Chemscore.DEInternal.Weighted>
0.7119

> <Gold.Chemscore.Rot.Weighted>
3.9407

> <Gold.Chemscore.Internal.Correction.Weighted>
   9.000000E+99

> <Gold.Protein.RotatedTorsions>
[ 6907 6896 6895 6894 ] final  147.79 input  -60.11 | X-H torsion
[ 7974 7965 7964 7962 ] final -171.21 input  175.53 | X-H torsion
[ 8008 7997 7996 7995 ] final  121.10 input   59.86 | X-H torsion
[ 10167 10162 10161 10158 ] final  132.76 input  -65.29 | X-H torsion
[ 10718 10713 10712 10709 ] final  106.13 input   66.30 | X-H torsion
[ 10763 10752 10751 10750 ] final   -5.66 input  -60.55 | X-H torsion
[ 11005 11000 10999 10996 ] final -115.31 input  -57.11 | X-H torsion

> <Gold.Protein.ActiveResidues>
 VAL166  LYS551  ARG553  GLY616  TRP617  ASP618  TYR619  PRO620  LYS621  CYS622 
 ASP623  PHE694  ASN695  SER759  ASP760  ASP761  ALA762  ILE779  LEU786  VAL792 
 PHE793  MET794  SER795  GLU796  ALA797  LYS798  CYS799  TRP800  GLU811  SER814 

> <Gold.Protein.RotatedAtoms>
  152.1501  133.4516  159.4808 H   0  0  0  0  0  0  0  0  0  0  0  0  # atno 6907 bound_to 6896
  150.6894  134.2200  159.4402 H   0  0  0  0  0  0  0  0  0  0  0  0  # atno 6908 bound_to 6896
  152.0096  134.9883  160.0618 H   0  0  0  0  0  0  0  0  0  0  0  0  # atno 6909 bound_to 6896
  144.7160  140.1955  143.6344 H   0  0  0  0  0  0  0  0  0  0  0  0  # atno 7974 bound_to 7965
  156.2672  140.2816  156.1255 H   0  0  0  0  0  0  0  0  0  0  0  0  # atno 8008 bound_to 7997
  155.1110  140.0391  157.2741 H   0  0  0  0  0  0  0  0  0  0  0  0  # atno 8009 bound_to 7997
  154.6742  140.2594  155.6981 H   0  0  0  0  0  0  0  0  0  0  0  0  # atno 8010 bound_to 7997
  139.5326  144.6647  151.4898 H   0  0  0  0  0  0  0  0  0  0  0  0  # atno 10167 bound_to 10162
  157.6680  131.0843  150.5960 H   0  0  0  0  0  0  0  0  0  0  0  0  # atno 10718 bound_to 10713
  153.4016  135.7005  153.6422 H   0  0  0  0  0  0  0  0  0  0  0  0  # atno 10763 bound_to 10752
  153.4953  135.3664  155.2513 H   0  0  0  0  0  0  0  0  0  0  0  0  # atno 10764 bound_to 10752
  154.8711  135.4099  154.3351 H   0  0  0  0  0  0  0  0  0  0  0  0  # atno 10765 bound_to 10752
  141.0496  133.9708  157.2859 H   0  0  0  0  0  0  0  0  0  0  0  0  # atno 11005 bound_to 11000
  145.8728  139.2281  143.1651 LP  0  0  0  0  0  0  0  0  0  0  0  0  # atno 17320 bound_to 7965
  146.0068  140.8471  142.9991 LP  0  0  0  0  0  0  0  0  0  0  0  0  # atno 17321 bound_to 7965
  140.6513  143.8690  150.6789 LP  0  0  0  0  0  0  0  0  0  0  0  0  # atno 17342 bound_to 10162
  140.2056  143.3924  152.1758 LP  0  0  0  0  0  0  0  0  0  0  0  0  # atno 17343 bound_to 10162
  156.6261  130.4419  149.5804 LP  0  0  0  0  0  0  0  0  0  0  0  0  # atno 17370 bound_to 10713
  156.2318  130.6799  151.1471 LP  0  0  0  0  0  0  0  0  0  0  0  0  # atno 17371 bound_to 10713
  139.9339  135.0198  156.8493 LP  0  0  0  0  0  0  0  0  0  0  0  0  # atno 17394 bound_to 11000
  140.6081  134.0109  155.7565 LP  0  0  0  0  0  0  0  0  0  0  0  0  # atno 17395 bound_to 11000

$$$$
