#       Name:                AV-unprocessed.smi:1368
#       Creating user name   scv26
#       Creation time:       Fri Mar 27 05:16:58 2020


#       File generated by GOLD software.
#

@<TRIPOS>MOLECULE
AV-unprocessed.smi:1368
    53    55     1
SMALL
NO_CHARGES


@<TRIPOS>ATOM
      1 ****        -8.6451   1.6975   0.4467 C.3            1 S1                 0.0000
      2 ****        -7.2628   1.0518   0.4330 C.2            1 S1                 0.0000
      3 ****        -7.1717  -0.1737   0.4877 O.2            1 S1                 0.0000
      4 ****        -6.2213   1.9035   0.3860 N.am           1 S1                 0.0000
      5 ****        -4.8291   1.6153   0.3503 C.ar           1 S1                 0.0000
      6 ****        -3.9479   2.6506   0.7217 C.ar           1 S1                 0.0000
      7 ****        -2.5550   2.4483   0.6962 C.ar           1 S1                 0.0000
      8 ****        -2.0118   1.2129   0.2916 C.ar           1 S1                 0.0000
      9 ****        -0.6379   1.0999   0.2980 O.3            1 S1                 0.0000
     10 ****        -0.0637  -0.1417  -0.0887 C.3            1 S1                 0.0000
     11 ****         1.4661  -0.0423   0.0192 C.3            1 S1                 0.0000
     12 ****         1.9540   0.6051  -1.1397 O.3            1 S1                 0.0000
     13 ****         2.1204  -1.4341   0.1367 C.3            1 S1                 0.0000
     14 ****         3.5728  -1.3743   0.2381 N.pl3          1 S1                 0.0000
     15 ****         4.3255  -1.2180   1.3548 C.2            1 S1                 0.0000
     16 ****         3.7086  -1.0797   2.7104 C.3            1 S1                 0.0000
     17 ****         5.6455  -1.2010   1.1695 N.2            1 S1                 0.0000
     18 ****         5.7612  -1.3636  -0.1976 C.ar           1 S1                 0.0000
     19 ****         6.9083  -1.4321  -1.0206 C.ar           1 S1                 0.0000
     20 ****         6.7778  -1.6049  -2.4142 C.ar           1 S1                 0.0000
     21 ****         5.5015  -1.7108  -3.0040 C.ar           1 S1                 0.0000
     22 ****         4.3458  -1.6468  -2.2022 C.ar           1 S1                 0.0000
     23 ****         4.4812  -1.4751  -0.8115 C.ar           1 S1                 0.0000
     24 ****        -2.8965   0.1764  -0.0972 C.ar           1 S1                 0.0000
     25 ****        -4.2904   0.3767  -0.0723 C.ar           1 S1                 0.0000
     26 ****        -8.6376   2.6581  -0.0696 H              1 S1                 0.0000
     27 ****        -8.9746   1.8601   1.4732 H              1 S1                 0.0000
     28 ****        -9.3724   1.0534  -0.0486 H              1 S1                 0.0000
     29 ****        -6.4562   2.8843   0.4320 H              1 S1                 0.0000
     30 ****        -4.3375   3.6086   1.0345 H              1 S1                 0.0000
     31 ****        -1.8954   3.2517   0.9906 H              1 S1                 0.0000
     32 ****        -0.4230  -0.9117   0.5962 H              1 S1                 0.0000
     33 ****        -0.3626  -0.4283  -1.0989 H              1 S1                 0.0000
     34 ****         1.7321   0.5535   0.8927 H              1 S1                 0.0000
     35 ****         1.5665   1.4659  -1.1870 H              1 S1                 0.0000
     36 ****         1.7312  -1.9624   1.0073 H              1 S1                 0.0000
     37 ****         1.8586  -2.0470  -0.7268 H              1 S1                 0.0000
     38 ****         4.4800  -0.9381   3.4682 H              1 S1                 0.0000
     39 ****         3.1433  -1.9771   2.9616 H              1 S1                 0.0000
     40 ****         3.0402  -0.2194   2.7386 H              1 S1                 0.0000
     41 ****         7.8905  -1.3513  -0.5786 H              1 S1                 0.0000
     42 ****         7.6611  -1.6557  -3.0338 H              1 S1                 0.0000
     43 ****         5.4099  -1.8406  -4.0725 H              1 S1                 0.0000
     44 ****         3.3665  -1.7249  -2.6504 H              1 S1                 0.0000
     45 ****        -2.5316  -0.7851  -0.4247 H              1 S1                 0.0000
     46 ****        -4.9239  -0.4340  -0.3963 H              1 S1                 0.0000
     47 ****        -7.9979  -0.7346   0.5404 LP             1 S1                 0.0000
     48 ****        -6.2715  -0.6090   0.4795 LP             1 S1                 0.0000
     49 ****        -0.3290   1.2920   1.2295 LP             1 S1                 0.0000
     50 ****        -0.2802   1.7979  -0.3223 LP             1 S1                 0.0000
     51 ****         1.7042   0.0774  -1.9516 LP             1 S1                 0.0000
     52 ****         2.9494   0.6854  -1.0877 LP             1 S1                 0.0000
     53 ****         6.3708  -1.0966   1.8500 LP             1 S1                 0.0000
@<TRIPOS>BOND
    1    1    2 1     
    2    1   26 1     
    3    1   27 1     
    4    1   28 1     
    5    2    3 2     
    6    2    4 am    
    7    4    5 1     
    8    4   29 1     
    9    5   25 ar    
   10    5    6 ar    
   11    6    7 ar    
   12    6   30 1     
   13    7    8 ar    
   14    7   31 1     
   15    8    9 1     
   16    8   24 ar    
   17    9   10 1     
   18   10   11 1     
   19   10   32 1     
   20   10   33 1     
   21   11   12 1     
   22   11   13 1     
   23   11   34 1     
   24   12   35 1     
   25   13   14 1     
   26   13   36 1     
   27   13   37 1     
   28   14   23 1     
   29   14   15 1     
   30   15   16 1     
   31   15   17 2     
   32   16   38 1     
   33   16   39 1     
   34   16   40 1     
   35   17   18 1     
   36   18   23 ar    
   37   18   19 ar    
   38   19   20 ar    
   39   19   41 1     
   40   20   21 ar    
   41   20   42 1     
   42   21   22 ar    
   43   21   43 1     
   44   22   23 ar    
   45   22   44 1     
   46   24   25 ar    
   47   24   45 1     
   48   25   46 1     
   49    3   47 1     
   50    3   48 1     
   51    9   49 1     
   52    9   50 1     
   53   12   51 1     
   54   12   52 1     
   55   17   53 1     
@<TRIPOS>SUBSTRUCTURE
      1 S1             1
@<TRIPOS>SET
LONE_PAIRS      STATIC     ATOMS    <user>   **** ""
7 47 48 49 50 51 52 53
DONOR_HYDROGENS      STATIC     ATOMS    <user>   **** ""
2 29 35
ATOM$BLUE        STATIC     ATOMS    COLORGROUP SYSTEM
7 47 48 49 50 51 52 53
ATOM$RED        STATIC     ATOMS    COLORGROUP SYSTEM
2 29 35
