AV-unprocessed.smi:100|AV-procd|sdf|904|dock3
  -GOLD-   2262017403D 1   1.00000     0.00000
 Structure written by MMmdl.
 31 33  0  0  0  0  0  0  0  0  1 V2000
  152.5479  143.5002  161.6054 N   0  0  0  0  0  0  0  0  0  0  0  0
  152.2812  143.5328  160.2923 C   0  0  0  0  0  0  0  0  0  0  0  0
  152.2253  144.7376  159.6784 N   0  0  0  0  0  0  0  0  0  0  0  0
  151.9595  144.7973  158.3697 C   0  0  0  0  0  0  0  0  0  0  0  0
  151.7242  143.7950  157.5189 N   0  0  0  0  0  0  0  0  0  0  0  0
  151.7801  142.5795  158.1386 C   0  0  0  0  0  0  0  0  0  0  0  0
  152.0544  142.3665  159.5186 C   0  0  0  0  0  0  0  0  0  0  0  0
  152.0368  141.0077  159.8009 N   0  0  0  0  0  0  0  0  0  0  0  0
  151.7659  140.4523  158.6506 C   0  0  0  0  0  0  0  0  0  0  0  0
  151.5953  141.3219  157.5954 N   0  0  0  0  0  0  0  0  0  0  0  0
  151.2787  140.9657  156.1724 C   0  0  1  0  0  0  0  0  0  0  0  0
  150.9651  139.6043  156.0868 O   0  0  0  0  0  0  0  0  0  0  0  0
  149.6448  139.4316  155.5739 C   0  0  2  0  0  0  0  0  0  0  0  0
  149.5601  138.1145  154.7887 C   0  0  0  0  0  0  0  0  0  0  0  0
  150.1918  138.2439  153.5331 O   0  0  0  0  0  0  0  0  0  0  0  0
  149.4309  140.6946  154.7405 C   0  0  1  0  0  0  0  0  0  0  0  0
  148.1537  140.9623  154.4630 F   0  0  0  0  0  0  0  0  0  0  0  0
  150.0897  141.7607  155.5965 C   0  0  1  0  0  0  0  0  0  0  0  0
  149.2069  142.2610  156.5874 O   0  0  0  0  0  0  0  0  0  0  0  0
  152.5945  142.6139  162.0876 H   0  0  0  0  0  0  0  0  0  0  0  0
  152.6969  144.3616  162.1104 H   0  0  0  0  0  0  0  0  0  0  0  0
  151.9303  145.7888  157.9427 H   0  0  0  0  0  0  0  0  0  0  0  0
  151.6831  139.3808  158.5388 H   0  0  0  0  0  0  0  0  0  0  0  0
  152.2079  141.1427  155.6289 H   0  0  0  0  0  0  0  0  0  0  0  0
  148.9487  139.4162  156.4137 H   0  0  0  0  0  0  0  0  0  0  0  0
  150.0152  137.2953  155.3457 H   0  0  0  0  0  0  0  0  0  0  0  0
  148.5162  137.8492  154.6195 H   0  0  0  0  0  0  0  0  0  0  0  0
  149.8215  137.6059  152.9423 H   0  0  0  0  0  0  0  0  0  0  0  0
  149.9554  140.6100  153.7876 H   0  0  0  0  0  0  0  0  0  0  0  0
  150.4564  142.5974  155.0012 H   0  0  0  0  0  0  0  0  0  0  0  0
  149.0072  143.1620  156.3843 H   0  0  0  0  0  0  0  0  0  0  0  0
  1  2  1  0  0  0  0
  1 20  1  0  0  0  0
  1 21  1  0  0  0  0
  2  7  1  0  0  0  0
  2  3  2  0  0  0  0
  3  4  1  0  0  0  0
  4  5  2  0  0  0  0
  4 22  1  0  0  0  0
  5  6  1  0  0  0  0
  6 10  1  0  0  0  0
  6  7  2  0  0  0  0
  7  8  1  0  0  0  0
  8  9  2  0  0  0  0
  9 10  1  0  0  0  0
  9 23  1  0  0  0  0
 10 11  1  0  0  0  0
 11 18  1  0  0  0  0
 11 12  1  0  0  0  0
 11 24  1  0  0  0  0
 12 13  1  0  0  0  0
 13 14  1  0  0  0  0
 13 16  1  0  0  0  0
 13 25  1  0  0  0  0
 14 15  1  0  0  0  0
 14 26  1  0  0  0  0
 14 27  1  0  0  0  0
 15 28  1  0  0  0  0
 16 17  1  0  0  0  0
 16 18  1  0  0  0  0
 16 29  1  0  0  0  0
 18 19  1  0  0  0  0
 18 30  1  0  0  0  0
 19 31  1  0  0  0  0
M  END
> <s_m_source_file>
AV-unprocessed.smi

> <i_m_source_file_index>
100

> <i_lp_mmshare_version>
43012

> <i_f3d_flags>
0

> <s_epik_input>
bjFbY0hdbmMoW05IMl0pYyhjMTIpbltjSF1uMltDQEBIXTNPW0NAQEhdKFtDSDJdW09IXSlbQ0BIXShGKVtDQEhdM1tPSF0=

> <s_epik_cmdline>
J2VwaWtfcHl0aG9uJywgJy1waCcsICc3LjAnLCAnLXRuJywgJzgnLCAnLW1hJywgJzIwMCcsICctbWV0YWxfYmluZGluZycsICctaW1hZScsICc8aW5maWxlLm1hZT4nLCAnLW9tYWUnLCAnPG91dGZpbGUubWFlPic=

> <r_lp_tautomer_probability>
1

> <r_epik_Ionization_Penalty>
0.000750324

> <r_epik_Ionization_Penalty_Charging>
0

> <r_epik_Ionization_Penalty_Neutral>
0.000750324

> <r_epik_State_Penalty>
-0

> <r_epik_Charging_Adjusted_Penalty>
0

> <i_epik_Tot_Q>
0

> <i_epik_Tot_abs_Q>
0

> <r_epik_Metal_State_Penalty>
-0

> <b_epik_Metal_Only>
0

> <s_epik_Chemistry_Notes>
This compound contains an acetal/aminal-like group ( X-CH(R)-Y where X, Y are N, S, or O) that may be acid/base labile, releasing an aldehyde.

> <s_lp_Force_Field>
OPLS_2005

> <r_lp_Energy>
38.5283

> <b_lp_Chiralities_Consistent>
1

> <s_lp_Variant>
AV-unprocessed.smi:100-8

> <Gold.Version>
5.8.1

> <Gold.Id.Protein>
6NUR|6NUR_protein|mol2

> <Gold.PLP.Fitness>
40.7827

> <Gold.PLP.PLP>
-35.4226

> <Gold.PLP.part.hbond>
-3.5465

> <Gold.PLP.part.metal>
0.0000

> <Gold.PLP.part.buried>
-5.8621

> <Gold.PLP.part.nonpolar>
-26.2520

> <Gold.PLP.part.repulsive>
0.2276

> <Gold.PLP.ligand.clash>
0.0000

> <Gold.PLP.ligand.torsion>
0.3227

> <Gold.PLP.Chemscore.Hbond>
2.0000

> <Gold.PLP.Chemscore.CHOScore>
0.0000

> <Gold.PLP.Chemscore.Metal>
0.0000

> <Gold.Chemscore.Hbonds>
donor molecule, donor type, donor heavy atom, donor atom, acceptor molecule, acceptor atom, score
      L1  H    15    28       P1  7948  1.00
      L1  H    19    31       P1  8028  1.00

> <Gold.PLP.Chemscore.Internal.Correction>
0.0056

> <Gold.Rescore>
     Score         DG    S(hbond)    S(metal)    S(lipo)     H(rot)  DE(clash)    DE(int)     intcor
      6.62      -7.64       1.95        0.00      32.64       3.19       0.11       0.90       ----

> <Gold.Chemscore.Fitness>
6.6244

> <Gold.Chemscore.DG>
-7.6364

> <Gold.Chemscore.ZeroCoef>
-5.4800

> <Gold.Chemscore.Hbond>
1.9473

> <Gold.Chemscore.Metal>
0.0000

> <Gold.Chemscore.Lipo>
32.6406

> <Gold.Chemscore.Internal_Hbond>
0.0000

> <Gold.Chemscore.DEClash>
0.1103

> <Gold.Chemscore.DEInternal>
0.9016

> <Gold.Chemscore.Rot>
3.1901

> <Gold.Chemscore.Internal.Correction>
   9.000000E+99

> <Gold.Chemscore.Hbonds>
donor molecule, donor type, donor heavy atom, donor atom, acceptor molecule, acceptor atom, score
      L1  H    15    28       P1  7948  0.40
      L1  H    19    31       P1  8028  1.00

> <Gold.Chemscore.Hbond.Weighted>
-6.5041

> <Gold.Chemscore.Metal.Weighted>
-0.0000

> <Gold.Chemscore.Lipo.Weighted>
-3.8190

> <Gold.Chemscore.Internal_Hbond.Weighted>
0.0000

> <Gold.Chemscore.DEClash.Weighted>
0.1103

> <Gold.Chemscore.DEInternal.Weighted>
0.9016

> <Gold.Chemscore.Rot.Weighted>
8.1667

> <Gold.Chemscore.Internal.Correction.Weighted>
   9.000000E+99

> <Gold.Protein.RotatedTorsions>
[ 6907 6896 6895 6894 ] final   90.47 input  -60.11 | X-H torsion
[ 7974 7965 7964 7962 ] final  -35.37 input  175.53 | X-H torsion
[ 8008 7997 7996 7995 ] final -122.27 input   59.86 | X-H torsion
[ 10167 10162 10161 10158 ] final  -49.54 input  -65.29 | X-H torsion
[ 10718 10713 10712 10709 ] final   -6.33 input   66.30 | X-H torsion
[ 10763 10752 10751 10750 ] final  -85.76 input  -60.55 | X-H torsion
[ 11005 11000 10999 10996 ] final  -99.47 input  -57.11 | X-H torsion

> <Gold.Protein.ActiveResidues>
 VAL166  LYS551  ARG553  GLY616  TRP617  ASP618  TYR619  PRO620  LYS621  CYS622 
 ASP623  PHE694  ASN695  SER759  ASP760  ASP761  ALA762  ILE779  LEU786  VAL792 
 PHE793  MET794  SER795  GLU796  ALA797  LYS798  CYS799  TRP800  GLU811  SER814 

> <Gold.Protein.RotatedAtoms>
  152.5444  134.1806  159.8633 H   0  0  0  0  0  0  0  0  0  0  0  0  # atno 6907 bound_to 6896
  151.1809  133.4719  159.2601 H   0  0  0  0  0  0  0  0  0  0  0  0  # atno 6908 bound_to 6896
  151.1180  135.0075  159.8580 H   0  0  0  0  0  0  0  0  0  0  0  0  # atno 6909 bound_to 6896
  146.0752  140.6151  142.8934 H   0  0  0  0  0  0  0  0  0  0  0  0  # atno 7974 bound_to 7965
  155.1615  140.0406  157.2843 H   0  0  0  0  0  0  0  0  0  0  0  0  # atno 8008 bound_to 7997
  154.6333  140.2529  155.7381 H   0  0  0  0  0  0  0  0  0  0  0  0  # atno 8009 bound_to 7997
  156.2496  140.2871  156.0694 H   0  0  0  0  0  0  0  0  0  0  0  0  # atno 8010 bound_to 7997
  140.6680  143.2694  151.4229 H   0  0  0  0  0  0  0  0  0  0  0  0  # atno 10167 bound_to 10162
  156.7335  130.5187  149.5840 H   0  0  0  0  0  0  0  0  0  0  0  0  # atno 10718 bound_to 10713
  154.6147  135.5473  153.7511 H   0  0  0  0  0  0  0  0  0  0  0  0  # atno 10763 bound_to 10752
  153.0211  135.6398  154.1527 H   0  0  0  0  0  0  0  0  0  0  0  0  # atno 10764 bound_to 10752
  154.1464  135.2905  155.3127 H   0  0  0  0  0  0  0  0  0  0  0  0  # atno 10765 bound_to 10752
  141.1307  133.8324  157.0976 H   0  0  0  0  0  0  0  0  0  0  0  0  # atno 11005 bound_to 11000
  144.7257  140.4516  143.6975 LP  0  0  0  0  0  0  0  0  0  0  0  0  # atno 17320 bound_to 7965
  145.6320  139.1537  143.2964 LP  0  0  0  0  0  0  0  0  0  0  0  0  # atno 17321 bound_to 7965
  139.5937  144.1444  152.2118 LP  0  0  0  0  0  0  0  0  0  0  0  0  # atno 17342 bound_to 10162
  140.0806  144.5703  150.7125 LP  0  0  0  0  0  0  0  0  0  0  0  0  # atno 17343 bound_to 10162
  156.1513  130.6312  151.0599 LP  0  0  0  0  0  0  0  0  0  0  0  0  # atno 17370 bound_to 10713
  157.6849  131.0828  150.7270 LP  0  0  0  0  0  0  0  0  0  0  0  0  # atno 17371 bound_to 10713
  140.0353  134.9881  157.0860 LP  0  0  0  0  0  0  0  0  0  0  0  0  # atno 17394 bound_to 11000
  140.4220  134.1871  155.7165 LP  0  0  0  0  0  0  0  0  0  0  0  0  # atno 17395 bound_to 11000

$$$$
