#       Name:                AV-unprocessed.smi:1452
#       Creating user name   scv26
#       Creation time:       Fri Mar 27 05:59:04 2020


#       File generated by GOLD software.
#

@<TRIPOS>MOLECULE
AV-unprocessed.smi:1452
    43    45     1
SMALL
NO_CHARGES


@<TRIPOS>ATOM
      1 ****        -2.1131  -2.0433  -0.0163 O.2            1 S1                 0.0000
      2 ****        -0.9412  -1.9928  -0.3856 C.2            1 S1                 0.0000
      3 ****        -0.1690  -3.1003  -0.4081 N.am           1 S1                 0.0000
      4 ****        -0.4474  -4.4558  -0.0610 C.ar           1 S1                 0.0000
      5 ****         0.6533  -5.3317  -0.1980 C.ar           1 S1                 0.0000
      6 ****         0.5003  -6.6969   0.1116 C.ar           1 S1                 0.0000
      7 ****        -0.7538  -7.1554   0.5517 C.ar           1 S1                 0.0000
      8 ****        -1.7992  -6.2210   0.6610 C.ar           1 S1                 0.0000
      9 ****        -1.6540  -4.9121   0.3636 N.ar           1 S1                 0.0000
     10 ****        -0.3569  -0.8516  -0.7850 N.am           1 S1                 0.0000
     11 ****        -0.9934   0.4602  -0.8320 C.3            1 S1                 0.0000
     12 ****        -0.3801   1.3824  -1.9009 C.3            1 S1                 0.0000
     13 ****        -0.3594   2.7871  -1.2665 C.3            1 S1                 0.0000
     14 ****        -1.0360   2.6375   0.0358 N.4            1 S1                 1.0000
     15 ****        -0.7091   3.6298   1.0828 C.3            1 S1                 0.0000
     16 ****        -1.5737   3.3564   2.3296 C.3            1 S1                 0.0000
     17 ****        -1.4462   1.8947   2.8046 C.3            1 S1                 0.0000
     18 ****        -1.7054   0.9092   1.6488 C.3            1 S1                 0.0000
     19 ****        -0.7884   1.2520   0.4623 C.3            1 S1                 0.0000
     20 ****         0.7692  -2.9448  -0.7475 H              1 S1                 0.0000
     21 ****         1.6115  -4.9646  -0.5371 H              1 S1                 0.0000
     22 ****         1.3315  -7.3795   0.0132 H              1 S1                 0.0000
     23 ****        -0.9097  -8.1952   0.7991 H              1 S1                 0.0000
     24 ****        -2.7778  -6.5309   0.9964 H              1 S1                 0.0000
     25 ****         0.6101  -0.9015  -1.0752 H              1 S1                 0.0000
     26 ****        -2.0619   0.3621  -1.0355 H              1 S1                 0.0000
     27 ****         0.6365   1.0788  -2.1560 H              1 S1                 0.0000
     28 ****        -0.9671   1.3612  -2.8198 H              1 S1                 0.0000
     29 ****         0.6709   3.1147  -1.1187 H              1 S1                 0.0000
     30 ****        -0.8665   3.5302  -1.8823 H              1 S1                 0.0000
     31 ****         0.3514   3.5718   1.3327 H              1 S1                 0.0000
     32 ****        -0.8982   4.6357   0.7063 H              1 S1                 0.0000
     33 ****        -1.2951   4.0366   3.1348 H              1 S1                 0.0000
     34 ****        -2.6182   3.5677   2.0970 H              1 S1                 0.0000
     35 ****        -0.4445   1.7300   3.2034 H              1 S1                 0.0000
     36 ****        -2.1398   1.7040   3.6241 H              1 S1                 0.0000
     37 ****        -1.5256  -0.1116   1.9862 H              1 S1                 0.0000
     38 ****        -2.7514   0.9597   1.3437 H              1 S1                 0.0000
     39 ****         0.2555   1.1654   0.7734 H              1 S1                 0.0000
     40 ****        -2.0272   2.7056  -0.1460 H              1 S1                 0.0000
     41 ****        -2.5088  -2.9146   0.2738 LP             1 S1                 0.0000
     42 ****        -2.6704  -1.2130  -0.0061 LP             1 S1                 0.0000
     43 ****        -2.4274  -4.2847   0.4550 LP             1 S1                 0.0000
@<TRIPOS>BOND
    1    1    2 2     
    2    2    3 am    
    3    2   10 am    
    4    3    4 1     
    5    3   20 1     
    6    4    9 ar    
    7    4    5 ar    
    8    5    6 ar    
    9    5   21 1     
   10    6    7 ar    
   11    6   22 1     
   12    7    8 ar    
   13    7   23 1     
   14    8    9 ar    
   15    8   24 1     
   16   10   11 1     
   17   10   25 1     
   18   11   19 1     
   19   11   12 1     
   20   11   26 1     
   21   12   13 1     
   22   12   27 1     
   23   12   28 1     
   24   13   14 1     
   25   13   29 1     
   26   13   30 1     
   27   14   19 1     
   28   14   15 1     
   29   14   40 1     
   30   15   16 1     
   31   15   31 1     
   32   15   32 1     
   33   16   17 1     
   34   16   33 1     
   35   16   34 1     
   36   17   18 1     
   37   17   35 1     
   38   17   36 1     
   39   18   19 1     
   40   18   37 1     
   41   18   38 1     
   42   19   39 1     
   43    1   41 1     
   44    1   42 1     
   45    9   43 1     
@<TRIPOS>SUBSTRUCTURE
      1 S1             1
@<TRIPOS>SET
LONE_PAIRS      STATIC     ATOMS    <user>   **** ""
3 41 42 43
DONOR_HYDROGENS      STATIC     ATOMS    <user>   **** ""
3 20 25 40
ATOM$BLUE        STATIC     ATOMS    COLORGROUP SYSTEM
3 41 42 43
ATOM$RED        STATIC     ATOMS    COLORGROUP SYSTEM
3 20 25 40
