AV-unprocessed.smi:3078|AV-procd|sdf|11735|dock10
  -GOLD-   2272017133D 1   1.00000     0.00000
 Structure written by MMmdl.
 24 24  0  0  0  0  0  0  0  0  3 V2000
  152.2982  138.5101  154.6328 C   0  0  0  0  0  0  0  0  0  0  0  0
  150.9063  138.8624  154.4500 N   0  0  0  0  0  0  0  0  0  0  0  0
  149.8405  138.0393  154.1584 C   0  0  0  0  0  0  0  0  0  0  0  0
  148.7224  138.8246  154.0784 C   0  0  0  0  0  0  0  0  0  0  0  0
  147.2955  138.4339  153.7855 C   0  0  2  0  0  0  0  0  0  0  0  0
  147.1809  136.9643  153.7747 N   0  3  0  0  0  0  0  0  0  0  0  0
  146.7759  139.0338  152.4639 C   0  0  0  0  0  0  0  0  0  0  0  0
  145.3502  138.7277  152.2417 N   0  3  0  0  0  0  0  0  0  0  0  0
  149.2221  140.1318  154.3460 C   0  0  0  0  0  0  0  0  0  0  0  0
  150.5260  140.1508  154.5632 N   0  0  0  0  0  0  0  0  0  0  0  0
  152.4097  137.4257  154.6645 H   0  0  0  0  0  0  0  0  0  0  0  0
  152.6676  138.9304  155.5690 H   0  0  0  0  0  0  0  0  0  0  0  0
  152.8893  138.9040  153.8056 H   0  0  0  0  0  0  0  0  0  0  0  0
  149.9665  136.9737  154.0337 H   0  0  0  0  0  0  0  0  0  0  0  0
  146.6457  138.7793  154.5909 H   0  0  0  0  0  0  0  0  0  0  0  0
  147.5645  136.6037  152.9121 H   0  0  0  0  0  0  0  0  0  0  0  0
  146.2092  136.6968  153.8427 H   0  0  0  0  0  0  0  0  0  0  0  0
  146.9122  140.1158  152.4476 H   0  0  0  0  0  0  0  0  0  0  0  0
  147.3404  138.6315  151.6218 H   0  0  0  0  0  0  0  0  0  0  0  0
  145.1210  137.8460  152.6786 H   0  0  0  0  0  0  0  0  0  0  0  0
  145.1671  138.6661  151.2498 H   0  0  0  0  0  0  0  0  0  0  0  0
  148.6779  141.0640  154.3857 H   0  0  0  0  0  0  0  0  0  0  0  0
  144.7772  139.4570  152.6424 H   0  0  0  0  0  0  0  0  0  0  0  0
  147.6921  136.5757  154.5545 H   0  0  0  0  0  0  0  0  0  0  0  0
  1  2  1  0  0  0  0
  1 11  1  0  0  0  0
  1 12  1  0  0  0  0
  1 13  1  0  0  0  0
  2 10  1  0  0  0  0
  2  3  1  0  0  0  0
  3  4  2  0  0  0  0
  3 14  1  0  0  0  0
  4  5  1  0  0  0  0
  4  9  1  0  0  0  0
  5  6  1  0  0  0  0
  5  7  1  0  0  0  0
  5 15  1  0  0  0  0
  6 16  1  0  0  0  0
  6 17  1  0  0  0  0
  6 24  1  0  0  0  0
  7  8  1  0  0  0  0
  7 18  1  0  0  0  0
  7 19  1  0  0  0  0
  8 20  1  0  0  0  0
  8 21  1  0  0  0  0
  8 23  1  0  0  0  0
  9 10  2  0  0  0  0
  9 22  1  0  0  0  0
M  CHG  1   6   1
M  CHG  1   8   1
M  END
> <s_m_source_file>
AV-unprocessed.smi

> <i_m_source_file_index>
3078

> <i_lp_mmshare_version>
43012

> <i_f3d_flags>
0

> <s_epik_input>
W0NIM11uMVtjSF1jKFtjSF1uMSlbQ0BIXShbTkgyXSlbQ0gyXVtOSDJd

> <s_epik_cmdline>
J2VwaWtfcHl0aG9uJywgJy1waCcsICc3LjAnLCAnLXRuJywgJzgnLCAnLW1hJywgJzIwMCcsICctbWV0YWxfYmluZGluZycsICctaW1hZScsICc8aW5maWxlLm1hZT4nLCAnLW9tYWUnLCAnPG91dGZpbGUubWFlPic=

> <r_lp_tautomer_probability>
1

> <r_epik_Ionization_Penalty>
2.39325

> <r_epik_Ionization_Penalty_Charging>
2.39325

> <r_epik_Ionization_Penalty_Neutral>
1.68997e-07

> <r_epik_State_Penalty>
1.77229

> <r_epik_Charging_Adjusted_Penalty>
4.16555

> <i_epik_Tot_Q>
2

> <i_epik_Tot_abs_Q>
2

> <r_epik_Metal_State_Penalty>
1.77233

> <b_epik_Metal_Only>
0

> <s_lp_Force_Field>
OPLS_2005

> <r_lp_Energy>
8.51806

> <b_lp_Chiralities_Consistent>
1

> <s_lp_Variant>
AV-unprocessed.smi:3078-5

> <Gold.Version>
5.8.1

> <Gold.Id.Protein>
6NUR|6NUR_protein|mol2

> <Gold.PLP.Fitness>
40.4578

> <Gold.PLP.PLP>
-21.3104

> <Gold.PLP.part.hbond>
-3.8145

> <Gold.PLP.part.metal>
0.0000

> <Gold.PLP.part.buried>
-1.0303

> <Gold.PLP.part.nonpolar>
-16.6917

> <Gold.PLP.part.repulsive>
0.1003

> <Gold.PLP.ligand.clash>
0.0000

> <Gold.PLP.ligand.torsion>
0.1010

> <Gold.PLP.Chemscore.Hbond>
5.8780

> <Gold.PLP.Chemscore.CHOScore>
0.5661

> <Gold.PLP.Chemscore.Metal>
0.0000

> <Gold.Chemscore.Hbonds>
donor molecule, donor type, donor heavy atom, donor atom, acceptor molecule, acceptor atom, score
      L1  H     6    16       P1  7948  2.00
      L1  H     8    21       P1 10171  0.98
      L1  H     8    23       P1 10175  1.78
      P1  H  7989  7998       L1    10  1.00
      L1  C     3    14       P1  7948  0.61

> <Gold.PLP.Chemscore.Internal.Correction>
0.0169

> <Gold.Rescore>
     Score         DG    S(hbond)    S(metal)    S(lipo)     H(rot)  DE(clash)    DE(int)     intcor
     18.54     -18.95       3.67        0.00      41.56       1.43       0.40       0.01       ----

> <Gold.Chemscore.Fitness>
18.5360

> <Gold.Chemscore.DG>
-18.9484

> <Gold.Chemscore.ZeroCoef>
-5.4800

> <Gold.Chemscore.Hbond>
3.6730

> <Gold.Chemscore.Metal>
0.0000

> <Gold.Chemscore.Lipo>
41.5583

> <Gold.Chemscore.Internal_Hbond>
0.0000

> <Gold.Chemscore.DEClash>
0.4011

> <Gold.Chemscore.DEInternal>
0.0113

> <Gold.Chemscore.Rot>
1.4304

> <Gold.Chemscore.Internal.Correction>
   9.000000E+99

> <Gold.Chemscore.Hbonds>
donor molecule, donor type, donor heavy atom, donor atom, acceptor molecule, acceptor atom, score
      L1  H     6    16       P1  7948  0.95
      L1  H     8    21       P1 10171  0.93
      L1  H     8    23       P1 10175  0.82
      P1  H  7989  7998       L1    10  0.25

> <Gold.Chemscore.Hbond.Weighted>
-12.2678

> <Gold.Chemscore.Metal.Weighted>
-0.0000

> <Gold.Chemscore.Lipo.Weighted>
-4.8623

> <Gold.Chemscore.Internal_Hbond.Weighted>
0.0000

> <Gold.Chemscore.DEClash.Weighted>
0.4011

> <Gold.Chemscore.DEInternal.Weighted>
0.0113

> <Gold.Chemscore.Rot.Weighted>
3.6618

> <Gold.Chemscore.Internal.Correction.Weighted>
   9.000000E+99

> <Gold.Protein.RotatedTorsions>
[ 6907 6896 6895 6894 ] final   -3.20 input  -60.11 | X-H torsion
[ 7974 7965 7964 7962 ] final  105.20 input  175.53 | X-H torsion
[ 8008 7997 7996 7995 ] final  -28.27 input   59.86 | X-H torsion
[ 10167 10162 10161 10158 ] final -172.40 input  -65.29 | X-H torsion
[ 10718 10713 10712 10709 ] final  -72.59 input   66.30 | X-H torsion
[ 10763 10752 10751 10750 ] final  -11.19 input  -60.55 | X-H torsion
[ 11005 11000 10999 10996 ] final  -74.55 input  -57.11 | X-H torsion

> <Gold.Protein.ActiveResidues>
 VAL166  LYS551  ARG553  GLY616  TRP617  ASP618  TYR619  PRO620  LYS621  CYS622 
 ASP623  PHE694  ASN695  SER759  ASP760  ASP761  ALA762  ILE779  LEU786  VAL792 
 PHE793  MET794  SER795  GLU796  ALA797  LYS798  CYS799  TRP800  GLU811  SER814 

> <Gold.Protein.RotatedAtoms>
  151.5176  135.1066  159.9869 H   0  0  0  0  0  0  0  0  0  0  0  0  # atno 6907 bound_to 6896
  152.4634  133.7867  159.6890 H   0  0  0  0  0  0  0  0  0  0  0  0  # atno 6908 bound_to 6896
  150.8607  133.7584  159.3019 H   0  0  0  0  0  0  0  0  0  0  0  0  # atno 6909 bound_to 6896
  145.3227  139.2508  143.3703 H   0  0  0  0  0  0  0  0  0  0  0  0  # atno 7974 bound_to 7965
  154.4339  140.1850  156.1063 H   0  0  0  0  0  0  0  0  0  0  0  0  # atno 8008 bound_to 7997
  156.0252  140.3336  155.7055 H   0  0  0  0  0  0  0  0  0  0  0  0  # atno 8009 bound_to 7997
  155.5918  140.0631  157.2747 H   0  0  0  0  0  0  0  0  0  0  0  0  # atno 8010 bound_to 7997
  139.5747  144.1560  152.1433 H   0  0  0  0  0  0  0  0  0  0  0  0  # atno 10167 bound_to 10162
  156.0314  130.4375  150.2616 H   0  0  0  0  0  0  0  0  0  0  0  0  # atno 10718 bound_to 10713
  153.4802  135.7017  153.5942 H   0  0  0  0  0  0  0  0  0  0  0  0  # atno 10763 bound_to 10752
  153.4159  135.3837  155.2080 H   0  0  0  0  0  0  0  0  0  0  0  0  # atno 10764 bound_to 10752
  154.8722  135.3916  154.4250 H   0  0  0  0  0  0  0  0  0  0  0  0  # atno 10765 bound_to 10752
  141.1636  133.6915  156.7381 H   0  0  0  0  0  0  0  0  0  0  0  0  # atno 11005 bound_to 11000
  146.3076  140.3788  142.8682 LP  0  0  0  0  0  0  0  0  0  0  0  0  # atno 17320 bound_to 7965
  144.8926  140.7543  143.5917 LP  0  0  0  0  0  0  0  0  0  0  0  0  # atno 17321 bound_to 7965
  140.1101  144.5465  150.6931 LP  0  0  0  0  0  0  0  0  0  0  0  0  # atno 17342 bound_to 10162
  140.7030  143.2448  151.4809 LP  0  0  0  0  0  0  0  0  0  0  0  0  # atno 17343 bound_to 10162
  157.0718  131.0119  151.3187 LP  0  0  0  0  0  0  0  0  0  0  0  0  # atno 17370 bound_to 10713
  157.4993  130.7870  149.7588 LP  0  0  0  0  0  0  0  0  0  0  0  0  # atno 17371 bound_to 10713
  140.2695  134.8403  157.3834 LP  0  0  0  0  0  0  0  0  0  0  0  0  # atno 17394 bound_to 11000
  140.1535  134.4820  155.7944 LP  0  0  0  0  0  0  0  0  0  0  0  0  # atno 17395 bound_to 11000

$$$$
