AV-unprocessed.smi:759|AV-procd|sdf|3619|dock3
  -GOLD-   22720 1 13D 1   1.00000     0.00000
 Structure written by MMmdl.
 24 25  0  0  0  0  0  0  0  0  2 V2000
  152.6366  138.6968  155.5139 C   0  0  0  0  0  0  0  0  0  0  0  0
  151.7037  138.7661  154.5659 N   0  0  0  0  0  0  0  0  0  0  0  0
  150.9709  139.8840  154.7581 N   0  0  0  0  0  0  0  0  0  0  0  0
  151.5436  140.4126  155.8410 C   0  0  0  0  0  0  0  0  0  0  0  0
  151.0438  141.6950  156.4322 C   0  0  2  0  0  0  0  0  0  0  0  0
  151.9566  142.2100  157.5613 C   0  0  0  0  0  0  0  0  0  0  0  0
  151.3997  143.5168  158.1468 C   0  0  0  0  0  0  0  0  0  0  0  0
  149.9364  143.3432  158.5875 C   0  0  0  0  0  0  0  0  0  0  0  0
  149.1030  142.8673  157.4616 N   0  3  0  0  0  0  0  0  0  0  0  0
  149.5760  141.5858  156.8927 C   0  0  0  0  0  0  0  0  0  0  0  0
  152.5971  139.7127  156.3657 N   0  0  0  0  0  0  0  0  0  0  0  0
  151.5366  138.1147  153.8119 H   0  0  0  0  0  0  0  0  0  0  0  0
  153.3540  137.8923  155.5826 H   0  0  0  0  0  0  0  0  0  0  0  0
  151.0702  142.4456  155.6396 H   0  0  0  0  0  0  0  0  0  0  0  0
  152.0296  141.4620  158.3522 H   0  0  0  0  0  0  0  0  0  0  0  0
  152.9688  142.3693  157.1877 H   0  0  0  0  0  0  0  0  0  0  0  0
  152.0093  143.8356  158.9929 H   0  0  0  0  0  0  0  0  0  0  0  0
  151.4665  144.3105  157.4014 H   0  0  0  0  0  0  0  0  0  0  0  0
  149.8695  142.6308  159.4109 H   0  0  0  0  0  0  0  0  0  0  0  0
  149.5358  144.2896  158.9512 H   0  0  0  0  0  0  0  0  0  0  0  0
  148.1524  142.7516  157.7829 H   0  0  0  0  0  0  0  0  0  0  0  0
  148.9331  141.3131  156.0553 H   0  0  0  0  0  0  0  0  0  0  0  0
  149.4670  140.8044  157.6462 H   0  0  0  0  0  0  0  0  0  0  0  0
  149.1174  143.5673  156.7334 H   0  0  0  0  0  0  0  0  0  0  0  0
  1 11  2  0  0  0  0
  1 13  1  0  0  0  0
  1  2  1  0  0  0  0
  2 12  1  0  0  0  0
  2  3  1  0  0  0  0
  3  4  2  0  0  0  0
  4 11  1  0  0  0  0
  4  5  1  0  0  0  0
  5 10  1  0  0  0  0
  5  6  1  0  0  0  0
  5 14  1  0  0  0  0
  6  7  1  0  0  0  0
  6 15  1  0  0  0  0
  6 16  1  0  0  0  0
  7  8  1  0  0  0  0
  7 17  1  0  0  0  0
  7 18  1  0  0  0  0
  8  9  1  0  0  0  0
  8 19  1  0  0  0  0
  8 20  1  0  0  0  0
  9 10  1  0  0  0  0
  9 21  1  0  0  0  0
  9 24  1  0  0  0  0
 10 22  1  0  0  0  0
 10 23  1  0  0  0  0
M  CHG  1   9   1
M  END
> <s_m_source_file>
AV-unprocessed.smi

> <i_m_source_file_index>
759

> <i_lp_mmshare_version>
43012

> <i_f3d_flags>
0

> <s_epik_input>
W25IXTFbY0hdbm5jMVtDQEBIXTJbQ0gyXVtDSDJdW0NIMl1bTkhdW0NIMl0y

> <s_epik_cmdline>
J2VwaWtfcHl0aG9uJywgJy1waCcsICc3LjAnLCAnLXRuJywgJzgnLCAnLW1hJywgJzIwMCcsICctbWV0YWxfYmluZGluZycsICctaW1hZScsICc8aW5maWxlLm1hZT4nLCAnLW9tYWUnLCAnPG91dGZpbGUubWFlPic=

> <r_lp_tautomer_probability>
0.948284

> <r_epik_Ionization_Penalty>
0.0050177

> <r_epik_Ionization_Penalty_Charging>
0.000345518

> <r_epik_Ionization_Penalty_Neutral>
0.00467218

> <r_epik_State_Penalty>
0.271452

> <r_epik_Charging_Adjusted_Penalty>
0.271797

> <i_epik_Tot_Q>
1

> <i_epik_Tot_abs_Q>
1

> <r_epik_Metal_State_Penalty>
0.537172

> <b_epik_Metal_Only>
0

> <s_lp_Force_Field>
OPLS_2005

> <r_lp_Energy>
9.69095

> <b_lp_Chiralities_Consistent>
1

> <s_lp_Variant>
AV-unprocessed.smi:759-1

> <Gold.Version>
5.8.1

> <Gold.Id.Protein>
6NUR|6NUR_protein|mol2

> <Gold.PLP.Fitness>
30.2617

> <Gold.PLP.PLP>
-18.3263

> <Gold.PLP.part.hbond>
-3.1684

> <Gold.PLP.part.metal>
0.0000

> <Gold.PLP.part.buried>
-3.8249

> <Gold.PLP.part.nonpolar>
-11.6023

> <Gold.PLP.part.repulsive>
0.2507

> <Gold.PLP.ligand.clash>
0.0000

> <Gold.PLP.ligand.torsion>
0.0536

> <Gold.PLP.Chemscore.Hbond>
4.0000

> <Gold.PLP.Chemscore.CHOScore>
0.0000

> <Gold.PLP.Chemscore.Metal>
0.0000

> <Gold.Chemscore.Hbonds>
donor molecule, donor type, donor heavy atom, donor atom, acceptor molecule, acceptor atom, score
      L1  H     9    24       P1  8028  2.00
      P1  H  7989  7998       L1     3  0.95
      P1  H  7997  8009       L1    11  0.90

> <Gold.PLP.Chemscore.Internal.Correction>
0.0427

> <Gold.Rescore>
     Score         DG    S(hbond)    S(metal)    S(lipo)     H(rot)  DE(clash)    DE(int)     intcor
     12.33     -14.22       1.88        0.00      42.88       1.00       1.86       0.03       ----

> <Gold.Chemscore.Fitness>
12.3342

> <Gold.Chemscore.DG>
-14.2191

> <Gold.Chemscore.ZeroCoef>
-5.4800

> <Gold.Chemscore.Hbond>
1.8810

> <Gold.Chemscore.Metal>
0.0000

> <Gold.Chemscore.Lipo>
42.8756

> <Gold.Chemscore.Internal_Hbond>
0.0000

> <Gold.Chemscore.DEClash>
1.8591

> <Gold.Chemscore.DEInternal>
0.0258

> <Gold.Chemscore.Rot>
1.0000

> <Gold.Chemscore.Internal.Correction>
   9.000000E+99

> <Gold.Chemscore.Hbonds>
donor molecule, donor type, donor heavy atom, donor atom, acceptor molecule, acceptor atom, score
      L1  H     9    24       P1  8028  0.86
      P1  H  7989  7998       L1     3  0.07
      P1  H  7997  8009       L1    11  0.18

> <Gold.Chemscore.Hbond.Weighted>
-6.2827

> <Gold.Chemscore.Metal.Weighted>
-0.0000

> <Gold.Chemscore.Lipo.Weighted>
-5.0164

> <Gold.Chemscore.Internal_Hbond.Weighted>
0.0000

> <Gold.Chemscore.DEClash.Weighted>
1.8591

> <Gold.Chemscore.DEInternal.Weighted>
0.0258

> <Gold.Chemscore.Rot.Weighted>
2.5600

> <Gold.Chemscore.Internal.Correction.Weighted>
   9.000000E+99

> <Gold.Protein.RotatedTorsions>
[ 6907 6896 6895 6894 ] final   85.97 input  -60.11 | X-H torsion
[ 7974 7965 7964 7962 ] final   -0.71 input  175.53 | X-H torsion
[ 8008 7997 7996 7995 ] final -163.30 input   59.86 | X-H torsion
[ 10167 10162 10161 10158 ] final   20.24 input  -65.29 | X-H torsion
[ 10718 10713 10712 10709 ] final -142.74 input   66.30 | X-H torsion
[ 10763 10752 10751 10750 ] final  116.72 input  -60.55 | X-H torsion
[ 11005 11000 10999 10996 ] final -145.14 input  -57.11 | X-H torsion

> <Gold.Protein.ActiveResidues>
 VAL166  LYS551  ARG553  GLY616  TRP617  ASP618  TYR619  PRO620  LYS621  CYS622 
 ASP623  PHE694  ASN695  SER759  ASP760  ASP761  ALA762  ILE779  LEU786  VAL792 
 PHE793  MET794  SER795  GLU796  ALA797  LYS798  CYS799  TRP800  GLU811  SER814 

> <Gold.Protein.RotatedAtoms>
  152.5385  134.2504  159.8896 H   0  0  0  0  0  0  0  0  0  0  0  0  # atno 6907 bound_to 6896
  151.2468  133.4364  159.2617 H   0  0  0  0  0  0  0  0  0  0  0  0  # atno 6908 bound_to 6896
  151.0576  134.9729  159.8300 H   0  0  0  0  0  0  0  0  0  0  0  0  # atno 6909 bound_to 6896
  146.2424  140.1311  142.8338 H   0  0  0  0  0  0  0  0  0  0  0  0  # atno 7974 bound_to 7965
  155.8192  140.0917  157.1859 H   0  0  0  0  0  0  0  0  0  0  0  0  # atno 8008 bound_to 7997
  154.3979  140.1440  156.3540 H   0  0  0  0  0  0  0  0  0  0  0  0  # atno 8009 bound_to 7997
  155.8284  140.3443  155.5559 H   0  0  0  0  0  0  0  0  0  0  0  0  # atno 8010 bound_to 7997
  140.5518  143.9495  150.6583 H   0  0  0  0  0  0  0  0  0  0  0  0  # atno 10167 bound_to 10162
  156.3495  130.7680  151.1831 H   0  0  0  0  0  0  0  0  0  0  0  0  # atno 10718 bound_to 10713
  153.5415  135.3558  155.2720 H   0  0  0  0  0  0  0  0  0  0  0  0  # atno 10763 bound_to 10752
  154.8717  135.4092  154.3038 H   0  0  0  0  0  0  0  0  0  0  0  0  # atno 10764 bound_to 10752
  153.3746  135.7065  153.6679 H   0  0  0  0  0  0  0  0  0  0  0  0  # atno 10765 bound_to 10752
  140.7953  134.2920  157.4998 H   0  0  0  0  0  0  0  0  0  0  0  0  # atno 11005 bound_to 11000
  145.0326  140.8882  143.5100 LP  0  0  0  0  0  0  0  0  0  0  0  0  # atno 17320 bound_to 7965
  145.1377  139.2591  143.5506 LP  0  0  0  0  0  0  0  0  0  0  0  0  # atno 17321 bound_to 7965
  140.2923  143.3316  152.1051 LP  0  0  0  0  0  0  0  0  0  0  0  0  # atno 17342 bound_to 10162
  139.5031  144.6748  151.6155 LP  0  0  0  0  0  0  0  0  0  0  0  0  # atno 17343 bound_to 10162
  157.7459  131.0431  150.4729 LP  0  0  0  0  0  0  0  0  0  0  0  0  # atno 17370 bound_to 10713
  156.4922  130.4098  149.6400 LP  0  0  0  0  0  0  0  0  0  0  0  0  # atno 17371 bound_to 10713
  139.8727  134.9398  156.3753 LP  0  0  0  0  0  0  0  0  0  0  0  0  # atno 17394 bound_to 11000
  140.9349  133.7554  156.0071 LP  0  0  0  0  0  0  0  0  0  0  0  0  # atno 17395 bound_to 11000

$$$$
