AV-unprocessed.smi:1278|AV-procd|sdf|5347|dock8
  -GOLD-   22720 4483D 1   1.00000     0.00000
 Structure written by MMmdl.
 39 40  0  0  0  0  0  0  0  0  2 V2000
  151.3792  138.1975  154.9965 C   0  0  0  0  0  0  0  0  0  0  0  0
  150.5175  139.3342  154.4282 C   0  0  2  0  0  0  0  0  0  0  0  0
  150.3823  140.4916  155.4321 C   0  0  0  0  0  0  0  0  0  0  0  0
  149.4939  141.5985  154.8511 C   0  0  0  0  0  0  0  0  0  0  0  0
  148.1297  141.0377  154.4199 C   0  0  0  0  0  0  0  0  0  0  0  0
  148.2897  139.9267  153.4464 N   0  3  2  0  0  0  0  0  0  0  0  0
  146.9846  139.4569  152.9177 C   0  0  0  0  0  0  0  0  0  0  0  0
  146.4620  138.2110  153.6592 C   0  0  0  0  0  0  0  0  0  0  0  0
  146.6773  136.9960  152.8813 N   0  0  0  0  0  0  0  0  0  0  0  0
  145.7000  136.1967  152.4292 C   0  0  0  0  0  0  0  0  0  0  0  0
  144.5044  136.4160  152.6272 O   0  0  0  0  0  0  0  0  0  0  0  0
  146.1974  135.1513  151.7452 N   0  0  0  0  0  0  0  0  0  0  0  0
  145.4835  134.1078  151.0992 C   0  0  0  0  0  0  0  0  0  0  0  0
  144.1929  134.1797  150.7528 N   0  0  0  0  0  0  0  0  0  0  0  0
  143.7522  133.0114  150.1263 C   0  0  0  0  0  0  0  0  0  0  0  0
  144.7275  132.0533  150.0022 C   0  0  0  0  0  0  0  0  0  0  0  0
  146.2470  132.5832  150.6733 S   0  0  0  0  0  0  0  0  0  0  0  0
  149.1234  138.8279  154.0052 C   0  0  0  0  0  0  0  0  0  0  0  0
  150.9258  137.7631  155.8881 H   0  0  0  0  0  0  0  0  0  0  0  0
  152.3720  138.5561  155.2695 H   0  0  0  0  0  0  0  0  0  0  0  0
  151.5078  137.3984  154.2658 H   0  0  0  0  0  0  0  0  0  0  0  0
  151.0225  139.7151  153.5390 H   0  0  0  0  0  0  0  0  0  0  0  0
  149.9503  140.1274  156.3654 H   0  0  0  0  0  0  0  0  0  0  0  0
  151.3643  140.8963  155.6801 H   0  0  0  0  0  0  0  0  0  0  0  0
  149.3549  142.3896  155.5886 H   0  0  0  0  0  0  0  0  0  0  0  0
  149.9899  142.0577  153.9947 H   0  0  0  0  0  0  0  0  0  0  0  0
  147.5741  140.6835  155.2897 H   0  0  0  0  0  0  0  0  0  0  0  0
  147.5416  141.8397  153.9724 H   0  0  0  0  0  0  0  0  0  0  0  0
  146.2624  140.2740  152.9566 H   0  0  0  0  0  0  0  0  0  0  0  0
  147.0941  139.1964  151.8638 H   0  0  0  0  0  0  0  0  0  0  0  0
  146.9818  138.1005  154.6113 H   0  0  0  0  0  0  0  0  0  0  0  0
  145.4010  138.2980  153.8947 H   0  0  0  0  0  0  0  0  0  0  0  0
  147.6341  136.7447  152.6778 H   0  0  0  0  0  0  0  0  0  0  0  0
  147.2026  135.0974  151.6715 H   0  0  0  0  0  0  0  0  0  0  0  0
  142.7252  132.9472  149.7985 H   0  0  0  0  0  0  0  0  0  0  0  0
  144.6440  131.0724  149.5585 H   0  0  0  0  0  0  0  0  0  0  0  0
  149.2449  138.0376  153.2649 H   0  0  0  0  0  0  0  0  0  0  0  0
  148.6097  138.3809  154.8582 H   0  0  0  0  0  0  0  0  0  0  0  0
  148.7953  140.3117  152.6616 H   0  0  0  0  0  0  0  0  0  0  0  0
  1  2  1  0  0  0  0
  1 19  1  0  0  0  0
  1 20  1  0  0  0  0
  1 21  1  0  0  0  0
  2 18  1  0  0  0  0
  2  3  1  0  0  0  0
  2 22  1  0  0  0  0
  3  4  1  0  0  0  0
  3 23  1  0  0  0  0
  3 24  1  0  0  0  0
  4  5  1  0  0  0  0
  4 25  1  0  0  0  0
  4 26  1  0  0  0  0
  5  6  1  0  0  0  0
  5 27  1  0  0  0  0
  5 28  1  0  0  0  0
  6  7  1  0  0  0  0
  6 18  1  0  0  0  0
  6 39  1  0  0  0  0
  7  8  1  0  0  0  0
  7 29  1  0  0  0  0
  7 30  1  0  0  0  0
  8  9  1  0  0  0  0
  8 31  1  0  0  0  0
  8 32  1  0  0  0  0
  9 10  1  0  0  0  0
  9 33  1  0  0  0  0
 10 11  2  0  0  0  0
 10 12  1  0  0  0  0
 12 13  1  0  0  0  0
 12 34  1  0  0  0  0
 13 17  1  0  0  0  0
 13 14  2  0  0  0  0
 14 15  1  0  0  0  0
 15 16  2  0  0  0  0
 15 35  1  0  0  0  0
 16 17  1  0  0  0  0
 16 36  1  0  0  0  0
 18 37  1  0  0  0  0
 18 38  1  0  0  0  0
M  CHG  1   6   1
M  END
> <s_m_source_file>
AV-unprocessed.smi

> <i_m_source_file_index>
1278

> <i_lp_mmshare_version>
43012

> <i_f3d_flags>
0

> <s_epik_input>
W0NIM11bQ0BASF0xW0NIMl1bQ0gyXVtDSDJdTihbQ0gyXTEpW0NIMl1bQ0gyXVtOSF1DKD1PKVtOSF1jMm5bY0hdW2NIXXMy

> <s_epik_cmdline>
J2VwaWtfcHl0aG9uJywgJy1waCcsICc3LjAnLCAnLXRuJywgJzgnLCAnLW1hJywgJzIwMCcsICctbWV0YWxfYmluZGluZycsICctaW1hZScsICc8aW5maWxlLm1hZT4nLCAnLW9tYWUnLCAnPG91dGZpbGUubWFlPic=

> <r_lp_tautomer_probability>
0.999

> <r_epik_Ionization_Penalty>
0.00222194

> <r_epik_Ionization_Penalty_Charging>
0.00208169

> <r_epik_Ionization_Penalty_Neutral>
0.000140251

> <r_epik_State_Penalty>
0.00142585

> <r_epik_Charging_Adjusted_Penalty>
0.00350754

> <i_epik_Tot_Q>
1

> <i_epik_Tot_abs_Q>
1

> <r_epik_Metal_State_Penalty>
0.0570424

> <b_epik_Metal_Only>
0

> <s_lp_Force_Field>
OPLS_2005

> <r_lp_Energy>
14.0127

> <b_lp_Chiralities_Consistent>
1

> <s_lp_Variant>
AV-unprocessed.smi:1278-1

> <Gold.Version>
5.8.1

> <Gold.Id.Protein>
6NUR|6NUR_protein|mol2

> <Gold.PLP.Fitness>
43.5507

> <Gold.PLP.PLP>
-33.6163

> <Gold.PLP.part.hbond>
-3.0000

> <Gold.PLP.part.metal>
0.0000

> <Gold.PLP.part.buried>
-2.0394

> <Gold.PLP.part.nonpolar>
-29.5117

> <Gold.PLP.part.repulsive>
0.5184

> <Gold.PLP.ligand.clash>
0.0000

> <Gold.PLP.ligand.torsion>
0.8290

> <Gold.PLP.Chemscore.Hbond>
2.8560

> <Gold.PLP.Chemscore.CHOScore>
1.0000

> <Gold.PLP.Chemscore.Metal>
0.0000

> <Gold.Chemscore.Hbonds>
donor molecule, donor type, donor heavy atom, donor atom, acceptor molecule, acceptor atom, score
      L1  H     6    39       P1  7957  0.98
      L1  H     9    33       P1  7948  1.00
      L1  H    12    34       P1  7948  0.84
      L1  C    15    35       P1 10186  1.00

> <Gold.PLP.Chemscore.Internal.Correction>
0.0245

> <Gold.Rescore>
     Score         DG    S(hbond)    S(metal)    S(lipo)     H(rot)  DE(clash)    DE(int)     intcor
     18.07     -20.14       2.74        0.00      82.00       1.60       0.03       2.05       ----

> <Gold.Chemscore.Fitness>
18.0674

> <Gold.Chemscore.DG>
-20.1441

> <Gold.Chemscore.ZeroCoef>
-5.4800

> <Gold.Chemscore.Hbond>
2.7443

> <Gold.Chemscore.Metal>
0.0000

> <Gold.Chemscore.Lipo>
82.0042

> <Gold.Chemscore.Internal_Hbond>
0.0000

> <Gold.Chemscore.DEClash>
0.0252

> <Gold.Chemscore.DEInternal>
2.0515

> <Gold.Chemscore.Rot>
1.6001

> <Gold.Chemscore.Internal.Correction>
   9.000000E+99

> <Gold.Chemscore.Hbonds>
donor molecule, donor type, donor heavy atom, donor atom, acceptor molecule, acceptor atom, score
      L1  H     6    39       P1  7957  0.93
      L1  H     9    33       P1  7948  0.99
      L1  H    12    34       P1  7948  0.71

> <Gold.Chemscore.Hbond.Weighted>
-9.1659

> <Gold.Chemscore.Metal.Weighted>
-0.0000

> <Gold.Chemscore.Lipo.Weighted>
-9.5945

> <Gold.Chemscore.Internal_Hbond.Weighted>
0.0000

> <Gold.Chemscore.DEClash.Weighted>
0.0252

> <Gold.Chemscore.DEInternal.Weighted>
2.0515

> <Gold.Chemscore.Rot.Weighted>
4.0963

> <Gold.Chemscore.Internal.Correction.Weighted>
   9.000000E+99

> <Gold.Protein.RotatedTorsions>
[ 6907 6896 6895 6894 ] final  -23.48 input  -60.11 | X-H torsion
[ 7974 7965 7964 7962 ] final  -50.85 input  175.53 | X-H torsion
[ 8008 7997 7996 7995 ] final   -6.02 input   59.86 | X-H torsion
[ 10167 10162 10161 10158 ] final  147.26 input  -65.29 | X-H torsion
[ 10718 10713 10712 10709 ] final -128.98 input   66.30 | X-H torsion
[ 10763 10752 10751 10750 ] final  109.72 input  -60.55 | X-H torsion
[ 11005 11000 10999 10996 ] final   77.09 input  -57.11 | X-H torsion

> <Gold.Protein.ActiveResidues>
 VAL166  LYS551  ARG553  GLY616  TRP617  ASP618  TYR619  PRO620  LYS621  CYS622 
 ASP623  PHE694  ASN695  SER759  ASP760  ASP761  ALA762  ILE779  LEU786  VAL792 
 PHE793  MET794  SER795  GLU796  ALA797  LYS798  CYS799  TRP800  GLU811  SER814 

> <Gold.Protein.RotatedAtoms>
  151.2034  135.0452  159.8881 H   0  0  0  0  0  0  0  0  0  0  0  0  # atno 6907 bound_to 6896
  152.5431  134.0825  159.8252 H   0  0  0  0  0  0  0  0  0  0  0  0  # atno 6908 bound_to 6896
  151.0968  133.5226  159.2644 H   0  0  0  0  0  0  0  0  0  0  0  0  # atno 6909 bound_to 6896
  145.9253  140.7797  142.9626 H   0  0  0  0  0  0  0  0  0  0  0  0  # atno 7974 bound_to 7965
  154.5980  140.2443  155.7831 H   0  0  0  0  0  0  0  0  0  0  0  0  # atno 8008 bound_to 7997
  156.2292  140.2972  156.0097 H   0  0  0  0  0  0  0  0  0  0  0  0  # atno 8009 bound_to 7997
  155.2260  140.0402  157.2946 H   0  0  0  0  0  0  0  0  0  0  0  0  # atno 8010 bound_to 7997
  139.4893  144.5768  151.6949 H   0  0  0  0  0  0  0  0  0  0  0  0  # atno 10167 bound_to 10162
  156.2002  130.6852  151.0530 H   0  0  0  0  0  0  0  0  0  0  0  0  # atno 10718 bound_to 10713
  153.4387  135.3771  155.2215 H   0  0  0  0  0  0  0  0  0  0  0  0  # atno 10763 bound_to 10752
  154.8753  135.3857  154.4179 H   0  0  0  0  0  0  0  0  0  0  0  0  # atno 10764 bound_to 10752
  153.4721  135.7087  153.6050 H   0  0  0  0  0  0  0  0  0  0  0  0  # atno 10765 bound_to 10752
  139.9269  134.7654  156.1478 H   0  0  0  0  0  0  0  0  0  0  0  0  # atno 11005 bound_to 11000
  144.6758  140.2041  143.7384 LP  0  0  0  0  0  0  0  0  0  0  0  0  # atno 17320 bound_to 7965
  145.8496  139.2169  143.1780 LP  0  0  0  0  0  0  0  0  0  0  0  0  # atno 17321 bound_to 7965
  140.5366  144.0645  150.6073 LP  0  0  0  0  0  0  0  0  0  0  0  0  # atno 17342 bound_to 10162
  140.3653  143.2885  152.0338 LP  0  0  0  0  0  0  0  0  0  0  0  0  # atno 17343 bound_to 10162
  157.6981  131.0786  150.6905 LP  0  0  0  0  0  0  0  0  0  0  0  0  # atno 17370 bound_to 10713
  156.6962  130.4610  149.5585 LP  0  0  0  0  0  0  0  0  0  0  0  0  # atno 17371 bound_to 10713
  141.0833  133.6745  156.2383 LP  0  0  0  0  0  0  0  0  0  0  0  0  # atno 17394 bound_to 11000
  140.6310  134.5264  157.5559 LP  0  0  0  0  0  0  0  0  0  0  0  0  # atno 17395 bound_to 11000

$$$$
