AV-unprocessed.smi:2760|AV-procd|sdf|10631|dock9
  -GOLD-   2272015 83D 1   1.00000     0.00000
 Structure written by MMmdl.
 32 33  0  0  0  0  0  0  0  0  1 V2000
  149.2628  142.3336  156.5179 O   0  0  0  0  0  0  0  0  0  0  0  0
  150.2427  142.0102  157.4090 C   0  0  0  0  0  0  0  0  0  0  0  0
  150.8418  143.0223  158.1887 C   0  0  0  0  0  0  0  0  0  0  0  0
  151.8485  142.6144  159.0915 C   0  0  0  0  0  0  0  0  0  0  0  0
  152.5687  143.5739  159.9858 C   0  0  0  0  0  0  0  0  0  0  0  0
  151.8748  144.2159  161.1667 C   0  0  0  0  0  0  0  0  0  0  0  0
  152.2393  145.0489  159.9628 C   0  0  0  0  0  0  0  0  0  0  0  0
  152.2072  141.3169  159.2086 N   0  0  0  0  0  0  0  0  0  0  0  0
  151.5688  140.4497  158.4197 C   0  0  0  0  0  0  0  0  0  0  0  0
  152.0273  138.7386  158.5754 S   0  0  0  0  0  0  0  0  0  0  0  0
  152.9445  138.7670  160.1441 C   0  0  0  0  0  0  0  0  0  0  0  0
  153.8468  137.5372  160.3051 C   0  0  0  0  0  0  0  0  0  0  0  0
  154.4010  137.5360  161.6095 O   0  0  0  0  0  0  0  0  0  0  0  0
  153.4088  137.4797  162.6230 C   0  0  0  0  0  0  0  0  0  0  0  0
  154.0563  137.0970  163.9592 C   0  0  0  0  0  0  0  0  0  0  0  0
  154.7219  135.9520  163.8119 F   0  0  0  0  0  0  0  0  0  0  0  0
  154.9128  138.0429  164.3439 F   0  0  0  0  0  0  0  0  0  0  0  0
  153.1218  136.9309  164.8948 F   0  0  0  0  0  0  0  0  0  0  0  0
  150.6148  140.7172  157.5265 N   0  0  0  0  0  0  0  0  0  0  0  0
  149.1912  143.2638  156.3699 H   0  0  0  0  0  0  0  0  0  0  0  0
  150.5464  144.0576  158.1003 H   0  0  0  0  0  0  0  0  0  0  0  0
  153.6123  143.2895  160.1061 H   0  0  0  0  0  0  0  0  0  0  0  0
  150.8184  144.0055  161.3216 H   0  0  0  0  0  0  0  0  0  0  0  0
  152.4571  144.3795  162.0711 H   0  0  0  0  0  0  0  0  0  0  0  0
  153.0587  145.7547  160.0830 H   0  0  0  0  0  0  0  0  0  0  0  0
  151.4264  145.3792  159.3190 H   0  0  0  0  0  0  0  0  0  0  0  0
  153.5501  139.6731  160.1645 H   0  0  0  0  0  0  0  0  0  0  0  0
  152.2436  138.8394  160.9760 H   0  0  0  0  0  0  0  0  0  0  0  0
  153.2754  136.6214  160.1484 H   0  0  0  0  0  0  0  0  0  0  0  0
  154.6446  137.5600  159.5610 H   0  0  0  0  0  0  0  0  0  0  0  0
  152.9135  138.4479  162.7144 H   0  0  0  0  0  0  0  0  0  0  0  0
  152.6452  136.7464  162.3579 H   0  0  0  0  0  0  0  0  0  0  0  0
  1  2  1  0  0  0  0
  1 20  1  0  0  0  0
  2 19  1  0  0  0  0
  2  3  2  0  0  0  0
  3  4  1  0  0  0  0
  3 21  1  0  0  0  0
  4  5  1  0  0  0  0
  4  8  2  0  0  0  0
  5  7  1  0  0  0  0
  5  6  1  0  0  0  0
  5 22  1  0  0  0  0
  6  7  1  0  0  0  0
  6 23  1  0  0  0  0
  6 24  1  0  0  0  0
  7 25  1  0  0  0  0
  7 26  1  0  0  0  0
  8  9  1  0  0  0  0
  9 10  1  0  0  0  0
  9 19  2  0  0  0  0
 10 11  1  0  0  0  0
 11 12  1  0  0  0  0
 11 27  1  0  0  0  0
 11 28  1  0  0  0  0
 12 13  1  0  0  0  0
 12 29  1  0  0  0  0
 12 30  1  0  0  0  0
 13 14  1  0  0  0  0
 14 15  1  0  0  0  0
 14 31  1  0  0  0  0
 14 32  1  0  0  0  0
 15 16  1  0  0  0  0
 15 17  1  0  0  0  0
 15 18  1  0  0  0  0
M  END
> <s_m_source_file>
AV-unprocessed.smi

> <i_m_source_file_index>
2760

> <i_lp_mmshare_version>
43012

> <i_f3d_flags>
0

> <s_epik_input>
W09IXWMxW2NIXWMoW0NIXTJbQ0gyXVtDSDJdMiluYyhuMSlTW0NIMl1bQ0gyXU9bQ0gyXUMoRikoRilG

> <s_epik_cmdline>
J2VwaWtfcHl0aG9uJywgJy1waCcsICc3LjAnLCAnLXRuJywgJzgnLCAnLW1hJywgJzIwMCcsICctbWV0YWxfYmluZGluZycsICctaW1hZScsICc8aW5maWxlLm1hZT4nLCAnLW9tYWUnLCAnPG91dGZpbGUubWFlPic=

> <r_lp_tautomer_probability>
0.0660145

> <r_epik_Ionization_Penalty>
3.02064

> <r_epik_Ionization_Penalty_Charging>
0

> <r_epik_Ionization_Penalty_Neutral>
3.02064

> <r_epik_State_Penalty>
2.51658

> <r_epik_Charging_Adjusted_Penalty>
2.51658

> <i_epik_Tot_Q>
0

> <i_epik_Tot_abs_Q>
0

> <r_epik_Metal_State_Penalty>
3.1674

> <b_epik_Metal_Only>
0

> <s_lp_Force_Field>
OPLS_2005

> <r_lp_Energy>
-0.868617

> <b_lp_Chiralities_Consistent>
1

> <s_lp_Variant>
AV-unprocessed.smi:2760-4

> <Gold.Version>
5.8.1

> <Gold.Id.Protein>
6NUR|6NUR_protein|mol2

> <Gold.PLP.Fitness>
41.6242

> <Gold.PLP.PLP>
-39.3819

> <Gold.PLP.part.hbond>
-1.0000

> <Gold.PLP.part.metal>
0.0000

> <Gold.PLP.part.buried>
-5.6136

> <Gold.PLP.part.nonpolar>
-32.3697

> <Gold.PLP.part.repulsive>
0.0112

> <Gold.PLP.ligand.clash>
0.0000

> <Gold.PLP.ligand.torsion>
0.4815

> <Gold.PLP.Chemscore.Hbond>
1.0000

> <Gold.PLP.Chemscore.CHOScore>
0.0000

> <Gold.PLP.Chemscore.Metal>
0.0000

> <Gold.Chemscore.Hbonds>
donor molecule, donor type, donor heavy atom, donor atom, acceptor molecule, acceptor atom, score
      L1  H     1    20       P1  8028  1.00

> <Gold.PLP.Chemscore.Internal.Correction>
0.2053

> <Gold.Rescore>
     Score         DG    S(hbond)    S(metal)    S(lipo)     H(rot)  DE(clash)    DE(int)     intcor
     10.28     -10.72       1.00        0.00      85.32       3.16       0.08       0.35       ----

> <Gold.Chemscore.Fitness>
10.2848

> <Gold.Chemscore.DG>
-10.7154

> <Gold.Chemscore.ZeroCoef>
-5.4800

> <Gold.Chemscore.Hbond>
0.9974

> <Gold.Chemscore.Metal>
0.0000

> <Gold.Chemscore.Lipo>
85.3226

> <Gold.Chemscore.Internal_Hbond>
0.0000

> <Gold.Chemscore.DEClash>
0.0811

> <Gold.Chemscore.DEInternal>
0.3495

> <Gold.Chemscore.Rot>
3.1557

> <Gold.Chemscore.Internal.Correction>
   9.000000E+99

> <Gold.Chemscore.Hbonds>
donor molecule, donor type, donor heavy atom, donor atom, acceptor molecule, acceptor atom, score
      L1  H     1    20       P1  8028  0.99

> <Gold.Chemscore.Hbond.Weighted>
-3.3312

> <Gold.Chemscore.Metal.Weighted>
-0.0000

> <Gold.Chemscore.Lipo.Weighted>
-9.9827

> <Gold.Chemscore.Internal_Hbond.Weighted>
0.0000

> <Gold.Chemscore.DEClash.Weighted>
0.0811

> <Gold.Chemscore.DEInternal.Weighted>
0.3495

> <Gold.Chemscore.Rot.Weighted>
8.0785

> <Gold.Chemscore.Internal.Correction.Weighted>
   9.000000E+99

> <Gold.Protein.RotatedTorsions>
[ 6907 6896 6895 6894 ] final    2.59 input  -60.11 | X-H torsion
[ 7974 7965 7964 7962 ] final  152.86 input  175.53 | X-H torsion
[ 8008 7997 7996 7995 ] final   76.97 input   59.86 | X-H torsion
[ 10167 10162 10161 10158 ] final   11.60 input  -65.29 | X-H torsion
[ 10718 10713 10712 10709 ] final   59.89 input   66.30 | X-H torsion
[ 10763 10752 10751 10750 ] final  113.30 input  -60.55 | X-H torsion
[ 11005 11000 10999 10996 ] final  -19.94 input  -57.11 | X-H torsion

> <Gold.Protein.ActiveResidues>
 VAL166  LYS551  ARG553  GLY616  TRP617  ASP618  TYR619  PRO620  LYS621  CYS622 
 ASP623  PHE694  ASN695  SER759  ASP760  ASP761  ALA762  ILE779  LEU786  VAL792 
 PHE793  MET794  SER795  GLU796  ALA797  LYS798  CYS799  TRP800  GLU811  SER814 

> <Gold.Protein.RotatedAtoms>
  151.6113  135.1040  160.0081 H   0  0  0  0  0  0  0  0  0  0  0  0  # atno 6907 bound_to 6896
  152.4206  133.7107  159.6487 H   0  0  0  0  0  0  0  0  0  0  0  0  # atno 6908 bound_to 6896
  150.8094  133.8376  159.3211 H   0  0  0  0  0  0  0  0  0  0  0  0  # atno 6909 bound_to 6896
  144.8193  139.6724  143.6107 H   0  0  0  0  0  0  0  0  0  0  0  0  # atno 7974 bound_to 7965
  155.8349  140.3464  155.5595 H   0  0  0  0  0  0  0  0  0  0  0  0  # atno 8008 bound_to 7997
  155.8202  140.0912  157.1873 H   0  0  0  0  0  0  0  0  0  0  0  0  # atno 8009 bound_to 7997
  154.4004  140.1431  156.3479 H   0  0  0  0  0  0  0  0  0  0  0  0  # atno 8010 bound_to 7997
  140.6121  143.8385  150.7077 H   0  0  0  0  0  0  0  0  0  0  0  0  # atno 10167 bound_to 10162
  157.5711  130.8908  149.9268 H   0  0  0  0  0  0  0  0  0  0  0  0  # atno 10718 bound_to 10713
  153.4905  135.3659  155.2489 H   0  0  0  0  0  0  0  0  0  0  0  0  # atno 10763 bound_to 10752
  154.8752  135.3976  154.3594 H   0  0  0  0  0  0  0  0  0  0  0  0  # atno 10764 bound_to 10752
  153.4213  135.7080  153.6358 H   0  0  0  0  0  0  0  0  0  0  0  0  # atno 10765 bound_to 10752
  140.8416  133.7922  155.9867 H   0  0  0  0  0  0  0  0  0  0  0  0  # atno 11005 bound_to 11000
  146.2498  139.6176  142.9435 LP  0  0  0  0  0  0  0  0  0  0  0  0  # atno 17320 bound_to 7965
  145.5141  141.0434  143.2472 LP  0  0  0  0  0  0  0  0  0  0  0  0  # atno 17321 bound_to 7965
  140.1955  143.4001  152.1831 LP  0  0  0  0  0  0  0  0  0  0  0  0  # atno 17342 bound_to 10162
  139.5370  144.7219  151.4861 LP  0  0  0  0  0  0  0  0  0  0  0  0  # atno 17343 bound_to 10162
  156.0756  130.3679  150.0684 LP  0  0  0  0  0  0  0  0  0  0  0  0  # atno 17370 bound_to 10713
  156.8837  130.9565  151.3596 LP  0  0  0  0  0  0  0  0  0  0  0  0  # atno 17371 bound_to 10713
  140.8889  134.2520  157.5105 LP  0  0  0  0  0  0  0  0  0  0  0  0  # atno 17394 bound_to 11000
  139.8703  134.9652  156.4519 LP  0  0  0  0  0  0  0  0  0  0  0  0  # atno 17395 bound_to 11000

$$$$
