AV-unprocessed.smi:1851|AV-procd|sdf|7524|dock1
  -GOLD-   22720 9233D 1   1.00000     0.00000
 Structure written by MMmdl.
 40 42  0  0  0  0  0  0  0  0  2 V2000
  146.7062  139.6777  154.2043 O   0  0  0  0  0  0  0  0  0  0  0  0
  147.3772  139.0081  153.4206 C   0  0  0  0  0  0  0  0  0  0  0  0
  146.9642  137.8615  152.8622 N   0  0  0  0  0  0  0  0  0  0  0  0
  145.6455  137.2653  153.0555 C   0  0  0  0  0  0  0  0  0  0  0  0
  145.4652  135.9312  152.3938 C   0  0  0  0  0  0  0  0  0  0  0  0
  146.4243  135.1841  151.7727 N   0  3  0  0  0  0  0  0  0  0  0  0
  145.8636  134.0060  151.2782 C   0  0  0  0  0  0  0  0  0  0  0  0
  146.4344  132.9468  150.5793 C   0  0  0  0  0  0  0  0  0  0  0  0
  145.5724  131.8908  150.2164 C   0  0  0  0  0  0  0  0  0  0  0  0
  144.2019  131.9143  150.5485 C   0  0  0  0  0  0  0  0  0  0  0  0
  143.6355  132.9930  151.2593 C   0  0  0  0  0  0  0  0  0  0  0  0
  144.4955  134.0316  151.6149 C   0  0  0  0  0  0  0  0  0  0  0  0
  144.2976  135.2316  152.3058 N   0  0  0  0  0  0  0  0  0  0  0  0
  142.9563  135.5568  152.8068 C   0  0  0  0  0  0  0  0  0  0  0  0
  142.8898  135.5175  154.3382 C   0  0  0  0  0  0  0  0  0  0  0  0
  141.5310  135.3707  154.7232 O   0  0  0  0  0  0  0  0  0  0  0  0
  140.6829  136.4426  154.5462 C   0  0  0  0  0  0  0  0  0  0  0  0
  141.2657  137.7268  154.5569 C   0  0  0  0  0  0  0  0  0  0  0  0
  140.4751  138.8791  154.3840 C   0  0  0  0  0  0  0  0  0  0  0  0
  139.0856  138.7571  154.1978 C   0  0  0  0  0  0  0  0  0  0  0  0
  138.1143  140.1672  153.9857 Cl  0  0  0  0  0  0  0  0  0  0  0  0
  138.4906  137.4817  154.1845 C   0  0  0  0  0  0  0  0  0  0  0  0
  139.2820  136.3293  154.3572 C   0  0  0  0  0  0  0  0  0  0  0  0
  148.3942  139.2652  153.0868 H   0  0  0  0  0  0  0  0  0  0  0  0
  147.5948  137.3847  152.2337 H   0  0  0  0  0  0  0  0  0  0  0  0
  145.4274  137.1668  154.1201 H   0  0  0  0  0  0  0  0  0  0  0  0
  144.9051  137.9562  152.6517 H   0  0  0  0  0  0  0  0  0  0  0  0
  147.4836  132.9271  150.3235 H   0  0  0  0  0  0  0  0  0  0  0  0
  145.9700  131.0464  149.6721 H   0  0  0  0  0  0  0  0  0  0  0  0
  143.5718  131.0883  150.2525 H   0  0  0  0  0  0  0  0  0  0  0  0
  142.5847  133.0025  151.5084 H   0  0  0  0  0  0  0  0  0  0  0  0
  142.6646  136.5355  152.4244 H   0  0  0  0  0  0  0  0  0  0  0  0
  142.2559  134.8375  152.3814 H   0  0  0  0  0  0  0  0  0  0  0  0
  143.4809  134.6799  154.7120 H   0  0  0  0  0  0  0  0  0  0  0  0
  143.3015  136.4390  154.7528 H   0  0  0  0  0  0  0  0  0  0  0  0
  142.3315  137.8298  154.6996 H   0  0  0  0  0  0  0  0  0  0  0  0
  140.9371  139.8555  154.3947 H   0  0  0  0  0  0  0  0  0  0  0  0
  137.4244  137.3849  154.0413 H   0  0  0  0  0  0  0  0  0  0  0  0
  138.7890  135.3694  154.3404 H   0  0  0  0  0  0  0  0  0  0  0  0
  147.3940  135.4636  151.6994 H   0  0  0  0  0  0  0  0  0  0  0  0
  1  2  2  0  0  0  0
  2  3  1  0  0  0  0
  2 24  1  0  0  0  0
  3  4  1  0  0  0  0
  3 25  1  0  0  0  0
  4  5  1  0  0  0  0
  4 26  1  0  0  0  0
  4 27  1  0  0  0  0
  5 13  1  0  0  0  0
  5  6  2  0  0  0  0
  6  7  1  0  0  0  0
  6 40  1  0  0  0  0
  7 12  2  0  0  0  0
  7  8  1  0  0  0  0
  8  9  2  0  0  0  0
  8 28  1  0  0  0  0
  9 10  1  0  0  0  0
  9 29  1  0  0  0  0
 10 11  2  0  0  0  0
 10 30  1  0  0  0  0
 11 12  1  0  0  0  0
 11 31  1  0  0  0  0
 12 13  1  0  0  0  0
 13 14  1  0  0  0  0
 14 15  1  0  0  0  0
 14 32  1  0  0  0  0
 14 33  1  0  0  0  0
 15 16  1  0  0  0  0
 15 34  1  0  0  0  0
 15 35  1  0  0  0  0
 16 17  1  0  0  0  0
 17 23  1  0  0  0  0
 17 18  2  0  0  0  0
 18 19  1  0  0  0  0
 18 36  1  0  0  0  0
 19 20  2  0  0  0  0
 19 37  1  0  0  0  0
 20 21  1  0  0  0  0
 20 22  1  0  0  0  0
 22 23  2  0  0  0  0
 22 38  1  0  0  0  0
 23 39  1  0  0  0  0
M  CHG  1   6   1
M  END
> <s_m_source_file>
AV-unprocessed.smi

> <i_m_source_file_index>
1851

> <i_lp_mmshare_version>
43012

> <i_f3d_flags>
0

> <s_epik_input>
Tz1bQ0hdW05IXVtDSDJdYyhuMSluKGMoYzEyKVtjSF1bY0hdW2NIXVtjSF0yKVtDSDJdW0NIMl1PYzNbY0hdW2NIXWMoQ2wpW2NIXVtjSF0z

> <s_epik_cmdline>
J2VwaWtfcHl0aG9uJywgJy1waCcsICc3LjAnLCAnLXRuJywgJzgnLCAnLW1hJywgJzIwMCcsICctbWV0YWxfYmluZGluZycsICctaW1hZScsICc8aW5maWxlLm1hZT4nLCAnLW9tYWUnLCAnPG91dGZpbGUubWFlPic=

> <r_lp_tautomer_probability>
1

> <r_epik_Ionization_Penalty>
1.32442

> <r_epik_Ionization_Penalty_Charging>
1.32442

> <r_epik_Ionization_Penalty_Neutral>
7.38905e-08

> <r_epik_State_Penalty>
1.4003

> <r_epik_Charging_Adjusted_Penalty>
2.72472

> <i_epik_Tot_Q>
1

> <i_epik_Tot_abs_Q>
1

> <r_epik_Metal_State_Penalty>
1.46133

> <b_epik_Metal_Only>
0

> <s_lp_Force_Field>
OPLS_2005

> <r_lp_Energy>
15.621

> <b_lp_Chiralities_Consistent>
1

> <s_lp_Variant>
AV-unprocessed.smi:1851-2

> <Gold.Version>
5.8.1

> <Gold.Id.Protein>
6NUR|6NUR_protein|mol2

> <Gold.PLP.Fitness>
56.8152

> <Gold.PLP.PLP>
-47.4820

> <Gold.PLP.part.hbond>
-3.0000

> <Gold.PLP.part.metal>
0.0000

> <Gold.PLP.part.buried>
-8.0144

> <Gold.PLP.part.nonpolar>
-38.0280

> <Gold.PLP.part.repulsive>
0.3627

> <Gold.PLP.ligand.clash>
0.0000

> <Gold.PLP.ligand.torsion>
0.6240

> <Gold.PLP.Chemscore.Hbond>
3.5010

> <Gold.PLP.Chemscore.CHOScore>
0.0000

> <Gold.PLP.Chemscore.Metal>
0.0000

> <Gold.Chemscore.Hbonds>
donor molecule, donor type, donor heavy atom, donor atom, acceptor molecule, acceptor atom, score
      L1  H     3    25       P1  7948  1.00
      L1  H     6    40       P1  7948  2.00
      P1  H 11000 11005       L1    16  0.49

> <Gold.PLP.Chemscore.Internal.Correction>
0.0781

> <Gold.Rescore>
     Score         DG    S(hbond)    S(metal)    S(lipo)     H(rot)  DE(clash)    DE(int)     intcor
     18.90     -19.72       2.49        0.00     105.09       2.49       0.08       0.73       ----

> <Gold.Chemscore.Fitness>
18.9029

> <Gold.Chemscore.DG>
-19.7172

> <Gold.Chemscore.ZeroCoef>
-5.4800

> <Gold.Chemscore.Hbond>
2.4865

> <Gold.Chemscore.Metal>
0.0000

> <Gold.Chemscore.Lipo>
105.0862

> <Gold.Chemscore.Internal_Hbond>
0.0000

> <Gold.Chemscore.DEClash>
0.0820

> <Gold.Chemscore.DEInternal>
0.7323

> <Gold.Chemscore.Rot>
2.4854

> <Gold.Chemscore.Internal.Correction>
   9.000000E+99

> <Gold.Chemscore.Hbonds>
donor molecule, donor type, donor heavy atom, donor atom, acceptor molecule, acceptor atom, score
      L1  H     3    25       P1  7948  0.98
      L1  H     6    40       P1  7948  0.98
      P1  H 11000 11005       L1    16  0.08

> <Gold.Chemscore.Hbond.Weighted>
-8.3048

> <Gold.Chemscore.Metal.Weighted>
-0.0000

> <Gold.Chemscore.Lipo.Weighted>
-12.2951

> <Gold.Chemscore.Internal_Hbond.Weighted>
0.0000

> <Gold.Chemscore.DEClash.Weighted>
0.0820

> <Gold.Chemscore.DEInternal.Weighted>
0.7323

> <Gold.Chemscore.Rot.Weighted>
6.3627

> <Gold.Chemscore.Internal.Correction.Weighted>
   9.000000E+99

> <Gold.Protein.RotatedTorsions>
[ 6907 6896 6895 6894 ] final -108.60 input  -60.11 | X-H torsion
[ 7974 7965 7964 7962 ] final   98.89 input  175.53 | X-H torsion
[ 8008 7997 7996 7995 ] final  -45.28 input   59.86 | X-H torsion
[ 10167 10162 10161 10158 ] final  -90.54 input  -65.29 | X-H torsion
[ 10718 10713 10712 10709 ] final  -86.70 input   66.30 | X-H torsion
[ 10763 10752 10751 10750 ] final   19.93 input  -60.55 | X-H torsion
[ 11005 11000 10999 10996 ] final   28.36 input  -57.11 | X-H torsion

> <Gold.Protein.ActiveResidues>
 VAL166  LYS551  ARG553  GLY616  TRP617  ASP618  TYR619  PRO620  LYS621  CYS622 
 ASP623  PHE694  ASN695  SER759  ASP760  ASP761  ALA762  ILE779  LEU786  VAL792 
 PHE793  MET794  SER795  GLU796  ALA797  LYS798  CYS799  TRP800  GLU811  SER814 

> <Gold.Protein.RotatedAtoms>
  150.7511  133.9653  159.3528 H   0  0  0  0  0  0  0  0  0  0  0  0  # atno 6907 bound_to 6896
  151.7582  135.0814  160.0351 H   0  0  0  0  0  0  0  0  0  0  0  0  # atno 6908 bound_to 6896
  152.3420  133.6041  159.5919 H   0  0  0  0  0  0  0  0  0  0  0  0  # atno 6909 bound_to 6896
  145.4062  139.2340  143.3273 H   0  0  0  0  0  0  0  0  0  0  0  0  # atno 7974 bound_to 7965
  154.4000  140.1401  156.3821 H   0  0  0  0  0  0  0  0  0  0  0  0  # atno 8008 bound_to 7997
  155.7994  140.3476  155.5373 H   0  0  0  0  0  0  0  0  0  0  0  0  # atno 8009 bound_to 7997
  155.8499  140.0940  157.1672 H   0  0  0  0  0  0  0  0  0  0  0  0  # atno 8010 bound_to 7997
  140.3538  143.2877  151.9695 H   0  0  0  0  0  0  0  0  0  0  0  0  # atno 10167 bound_to 10162
  155.9988  130.4774  150.4755 H   0  0  0  0  0  0  0  0  0  0  0  0  # atno 10718 bound_to 10713
  153.1120  135.6699  153.9483 H   0  0  0  0  0  0  0  0  0  0  0  0  # atno 10763 bound_to 10752
  153.9024  135.3034  155.3450 H   0  0  0  0  0  0  0  0  0  0  0  0  # atno 10764 bound_to 10752
  154.7539  135.5021  153.9417 H   0  0  0  0  0  0  0  0  0  0  0  0  # atno 10765 bound_to 10752
  140.3164  134.2592  155.7725 H   0  0  0  0  0  0  0  0  0  0  0  0  # atno 11005 bound_to 11000
  146.2727  140.4767  142.8808 LP  0  0  0  0  0  0  0  0  0  0  0  0  # atno 17320 bound_to 7965
  144.8340  140.6752  143.6272 LP  0  0  0  0  0  0  0  0  0  0  0  0  # atno 17321 bound_to 7965
  139.4823  144.6053  151.7533 LP  0  0  0  0  0  0  0  0  0  0  0  0  # atno 17342 bound_to 10162
  140.5193  144.0904  150.6018 LP  0  0  0  0  0  0  0  0  0  0  0  0  # atno 17343 bound_to 10162
  157.2766  131.0598  151.2225 LP  0  0  0  0  0  0  0  0  0  0  0  0  # atno 17370 bound_to 10713
  157.3286  130.6973  149.6311 LP  0  0  0  0  0  0  0  0  0  0  0  0  # atno 17371 bound_to 10713
  141.2097  133.7742  156.9982 LP  0  0  0  0  0  0  0  0  0  0  0  0  # atno 17394 bound_to 11000
  140.0980  134.9552  157.1879 LP  0  0  0  0  0  0  0  0  0  0  0  0  # atno 17395 bound_to 11000

$$$$
