AV-unprocessed.smi:592|AV-procd|sdf|3012|dock8
  -GOLD-   2262023523D 1   1.00000     0.00000
 Structure written by MMmdl.
 27 28  0  0  0  0  0  0  0  0  1 V2000
  151.8196  140.2799  155.2143 O   0  0  0  0  0  0  0  0  0  0  0  0
  150.9592  140.8207  155.9142 C   0  0  0  0  0  0  0  0  0  0  0  0
  151.1151  140.7627  157.4386 C   0  0  0  0  0  0  0  0  0  0  0  0
  151.6474  142.0254  157.9746 N   0  0  0  0  0  0  0  0  0  0  0  0
  151.0894  143.2152  157.4654 C   0  0  0  0  0  0  0  0  0  0  0  0
  151.5030  144.4257  157.8718 C   0  0  0  0  0  0  0  0  0  0  0  0
  152.5519  144.4913  158.8613 C   0  0  0  0  0  0  0  0  0  0  0  0
  153.0923  143.3600  159.3561 C   0  0  0  0  0  0  0  0  0  0  0  0
  152.6421  142.0343  158.9156 C   0  0  0  0  0  0  0  0  0  0  0  0
  153.1324  140.9983  159.3647 O   0  0  0  0  0  0  0  0  0  0  0  0
  149.8101  141.5022  155.5280 N   0  0  0  0  0  0  0  0  0  0  0  0
  148.9300  140.9570  154.7438 C   0  0  0  0  0  0  0  0  0  0  0  0
  148.9401  139.6896  154.1690 N   0  0  0  0  0  0  0  0  0  0  0  0
  147.6891  139.1904  153.6288 C   0  0  0  0  0  0  0  0  0  0  0  0
  146.8941  140.3952  153.1336 C   0  0  0  0  0  0  0  0  0  0  0  0
  147.4017  141.7612  154.1928 S   0  0  0  0  0  0  0  0  0  0  0  0
  150.1409  140.5541  157.8840 H   0  0  0  0  0  0  0  0  0  0  0  0
  151.7369  139.9095  157.7174 H   0  0  0  0  0  0  0  0  0  0  0  0
  150.3142  143.0774  156.7253 H   0  0  0  0  0  0  0  0  0  0  0  0
  151.0649  145.3262  157.4671 H   0  0  0  0  0  0  0  0  0  0  0  0
  152.9062  145.4518  159.2054 H   0  0  0  0  0  0  0  0  0  0  0  0
  153.8775  143.4286  160.0947 H   0  0  0  0  0  0  0  0  0  0  0  0
  147.8688  138.4730  152.8279 H   0  0  0  0  0  0  0  0  0  0  0  0
  147.1487  138.6753  154.4238 H   0  0  0  0  0  0  0  0  0  0  0  0
  147.1702  140.6365  152.1068 H   0  0  0  0  0  0  0  0  0  0  0  0
  145.8171  140.2310  153.1707 H   0  0  0  0  0  0  0  0  0  0  0  0
  149.6746  139.0137  154.3249 H   0  0  0  0  0  0  0  0  0  0  0  0
  1  2  2  0  0  0  0
  2  3  1  0  0  0  0
  2 11  1  0  0  0  0
  3  4  1  0  0  0  0
  3 17  1  0  0  0  0
  3 18  1  0  0  0  0
  4  9  1  0  0  0  0
  4  5  1  0  0  0  0
  5  6  2  0  0  0  0
  5 19  1  0  0  0  0
  6  7  1  0  0  0  0
  6 20  1  0  0  0  0
  7  8  2  0  0  0  0
  7 21  1  0  0  0  0
  8  9  1  0  0  0  0
  8 22  1  0  0  0  0
  9 10  2  0  0  0  0
 11 12  2  0  0  0  0
 12 16  1  0  0  0  0
 12 13  1  0  0  0  0
 13 14  1  0  0  0  0
 13 27  1  0  0  0  0
 14 15  1  0  0  0  0
 14 23  1  0  0  0  0
 14 24  1  0  0  0  0
 15 16  1  0  0  0  0
 15 25  1  0  0  0  0
 15 26  1  0  0  0  0
M  END
> <s_m_source_file>
AV-unprocessed.smi

> <i_m_source_file_index>
592

> <i_lp_mmshare_version>
43012

> <i_f3d_flags>
0

> <s_epik_input>
UzFbQ0gyXVtDSDJdTj1DMVtOSF1DKD1PKVtDSDJdbjJbY0hdW2NIXVtjSF1bY0hdYzI9Tw==

> <s_epik_cmdline>
J2VwaWtfcHl0aG9uJywgJy1waCcsICc3LjAnLCAnLXRuJywgJzgnLCAnLW1hJywgJzIwMCcsICctbWV0YWxfYmluZGluZycsICctaW1hZScsICc8aW5maWxlLm1hZT4nLCAnLW9tYWUnLCAnPG91dGZpbGUubWFlPic=

> <r_lp_tautomer_probability>
1

> <r_epik_Ionization_Penalty>
2.71369

> <r_epik_Ionization_Penalty_Charging>
3.63323e-07

> <r_epik_Ionization_Penalty_Neutral>
2.71369

> <r_epik_State_Penalty>
1.599

> <r_epik_Charging_Adjusted_Penalty>
1.599

> <i_epik_Tot_Q>
0

> <i_epik_Tot_abs_Q>
0

> <r_epik_Metal_State_Penalty>
1.59596

> <b_epik_Metal_Only>
1

> <s_epik_Chemistry_Notes>
This compound has an imine and may undergo hydrolysis.

> <s_lp_Force_Field>
OPLS_2005

> <r_lp_Energy>
29.0057

> <b_lp_Chiralities_Consistent>
1

> <s_lp_Variant>
AV-unprocessed.smi:592-3

> <Gold.Version>
5.8.1

> <Gold.Id.Protein>
6NUR|6NUR_protein|mol2

> <Gold.PLP.Fitness>
42.6777

> <Gold.PLP.PLP>
-39.1102

> <Gold.PLP.part.hbond>
-2.0868

> <Gold.PLP.part.metal>
0.0000

> <Gold.PLP.part.buried>
-3.2972

> <Gold.PLP.part.nonpolar>
-32.5706

> <Gold.PLP.part.repulsive>
0.2332

> <Gold.PLP.ligand.clash>
0.0000

> <Gold.PLP.ligand.torsion>
0.9656

> <Gold.PLP.Chemscore.Hbond>
0.8320

> <Gold.PLP.Chemscore.CHOScore>
1.0000

> <Gold.PLP.Chemscore.Metal>
0.0000

> <Gold.Chemscore.Hbonds>
donor molecule, donor type, donor heavy atom, donor atom, acceptor molecule, acceptor atom, score
      P1  H  7989  7998       L1     1  0.82
      L1  C     5    19       P1  8028  0.98

> <Gold.PLP.Chemscore.Internal.Correction>
0.0027

> <Gold.Rescore>
     Score         DG    S(hbond)    S(metal)    S(lipo)     H(rot)  DE(clash)    DE(int)     intcor
     11.17     -13.38       0.82        0.00      73.24       1.33       0.18       2.03       ----

> <Gold.Chemscore.Fitness>
11.1666

> <Gold.Chemscore.DG>
-13.3842

> <Gold.Chemscore.ZeroCoef>
-5.4800

> <Gold.Chemscore.Hbond>
0.8211

> <Gold.Chemscore.Metal>
0.0000

> <Gold.Chemscore.Lipo>
73.2365

> <Gold.Chemscore.Internal_Hbond>
0.0000

> <Gold.Chemscore.DEClash>
0.1847

> <Gold.Chemscore.DEInternal>
2.0330

> <Gold.Chemscore.Rot>
1.3309

> <Gold.Chemscore.Internal.Correction>
   9.000000E+99

> <Gold.Chemscore.Hbonds>
donor molecule, donor type, donor heavy atom, donor atom, acceptor molecule, acceptor atom, score
      P1  H  7989  7998       L1     1  0.57

> <Gold.Chemscore.Hbond.Weighted>
-2.7426

> <Gold.Chemscore.Metal.Weighted>
-0.0000

> <Gold.Chemscore.Lipo.Weighted>
-8.5687

> <Gold.Chemscore.Internal_Hbond.Weighted>
0.0000

> <Gold.Chemscore.DEClash.Weighted>
0.1847

> <Gold.Chemscore.DEInternal.Weighted>
2.0330

> <Gold.Chemscore.Rot.Weighted>
3.4071

> <Gold.Chemscore.Internal.Correction.Weighted>
   9.000000E+99

> <Gold.Protein.RotatedTorsions>
[ 6907 6896 6895 6894 ] final -111.78 input  -60.11 | X-H torsion
[ 7974 7965 7964 7962 ] final -151.86 input  175.53 | X-H torsion
[ 8008 7997 7996 7995 ] final -129.97 input   59.86 | X-H torsion
[ 10167 10162 10161 10158 ] final  126.13 input  -65.29 | X-H torsion
[ 10718 10713 10712 10709 ] final  110.59 input   66.30 | X-H torsion
[ 10763 10752 10751 10750 ] final  -43.66 input  -60.55 | X-H torsion
[ 11005 11000 10999 10996 ] final   35.68 input  -57.11 | X-H torsion

> <Gold.Protein.ActiveResidues>
 VAL166  LYS551  ARG553  GLY616  TRP617  ASP618  TYR619  PRO620  LYS621  CYS622 
 ASP623  PHE694  ASN695  SER759  ASP760  ASP761  ALA762  ILE779  LEU786  VAL792 
 PHE793  MET794  SER795  GLU796  ALA797  LYS798  CYS799  TRP800  GLU811  SER814 

> <Gold.Protein.RotatedAtoms>
  150.7713  133.9185  159.3390 H   0  0  0  0  0  0  0  0  0  0  0  0  # atno 6907 bound_to 6896
  151.7071  135.0917  160.0270 H   0  0  0  0  0  0  0  0  0  0  0  0  # atno 6908 bound_to 6896
  152.3732  133.6408  159.6139 H   0  0  0  0  0  0  0  0  0  0  0  0  # atno 6909 bound_to 6896
  144.7826  140.4741  143.5828 H   0  0  0  0  0  0  0  0  0  0  0  0  # atno 7974 bound_to 7965
  155.2880  140.0447  157.3021 H   0  0  0  0  0  0  0  0  0  0  0  0  # atno 8008 bound_to 7997
  154.5558  140.2331  155.8381 H   0  0  0  0  0  0  0  0  0  0  0  0  # atno 8009 bound_to 7997
  156.2006  140.3026  155.9525 H   0  0  0  0  0  0  0  0  0  0  0  0  # atno 8010 bound_to 7997
  139.5648  144.6904  151.3942 H   0  0  0  0  0  0  0  0  0  0  0  0  # atno 10167 bound_to 10162
  157.6487  131.0935  150.6624 H   0  0  0  0  0  0  0  0  0  0  0  0  # atno 10718 bound_to 10713
  153.9992  135.6695  153.4758 H   0  0  0  0  0  0  0  0  0  0  0  0  # atno 10763 bound_to 10752
  153.0670  135.4995  154.8218 H   0  0  0  0  0  0  0  0  0  0  0  0  # atno 10764 bound_to 10752
  154.7063  135.3088  154.9229 H   0  0  0  0  0  0  0  0  0  0  0  0  # atno 10765 bound_to 10752
  140.2402  134.3424  155.7929 H   0  0  0  0  0  0  0  0  0  0  0  0  # atno 11005 bound_to 11000
  145.6008  139.1503  143.3130 LP  0  0  0  0  0  0  0  0  0  0  0  0  # atno 17320 bound_to 7965
  146.2042  140.6129  142.9088 LP  0  0  0  0  0  0  0  0  0  0  0  0  # atno 17321 bound_to 7965
  140.6930  143.7816  150.7284 LP  0  0  0  0  0  0  0  0  0  0  0  0  # atno 17342 bound_to 10162
  140.1304  143.4531  152.2258 LP  0  0  0  0  0  0  0  0  0  0  0  0  # atno 17343 bound_to 10162
  156.6938  130.4603  149.5592 LP  0  0  0  0  0  0  0  0  0  0  0  0  # atno 17370 bound_to 10713
  156.1843  130.6519  151.0988 LP  0  0  0  0  0  0  0  0  0  0  0  0  # atno 17371 bound_to 10713
  141.2211  133.7294  156.8872 LP  0  0  0  0  0  0  0  0  0  0  0  0  # atno 17394 bound_to 11000
  140.1661  134.9132  157.2776 LP  0  0  0  0  0  0  0  0  0  0  0  0  # atno 17395 bound_to 11000

$$$$
