AV-unprocessed.smi:3351|AV-procd|sdf|12949|dock5
  -GOLD-   2272019383D 1   1.00000     0.00000
 Structure written by MMmdl.
 34 35  0  0  0  0  0  0  0  0  1 V2000
  145.8797  137.2394  152.1090 C   0  0  0  0  0  0  0  0  0  0  0  0
  144.5393  136.5241  152.3251 C   0  0  2  0  0  0  0  0  0  0  0  0
  144.1044  135.7517  151.0595 C   0  0  0  0  0  0  0  0  0  0  0  0
  144.6774  134.4188  150.9833 N   0  0  0  0  0  0  0  0  0  0  0  0
  146.0100  134.0695  151.1599 C   0  0  0  0  0  0  0  0  0  0  0  0
  146.0888  132.7082  150.9737 C   0  0  0  0  0  0  0  0  0  0  0  0
  144.8219  132.1989  150.6997 N   0  0  0  0  0  0  0  0  0  0  0  0
  144.0376  133.2689  150.7285 C   0  0  0  0  0  0  0  0  0  0  0  0
  143.5285  137.5104  152.7058 N   0  0  0  0  0  0  0  0  0  0  0  0
  142.2841  137.2278  153.1229 C   0  0  0  0  0  0  0  0  0  0  0  0
  141.8713  136.0820  153.3032 O   0  0  0  0  0  0  0  0  0  0  0  0
  141.3570  138.4189  153.3709 C   0  0  0  0  0  0  0  0  0  0  0  0
  140.0723  137.9659  153.9009 N   0  0  0  0  0  0  0  0  0  0  0  0
  138.8407  138.3262  153.2105 C   0  0  0  0  0  0  0  0  0  0  0  0
  137.6920  138.1698  154.2084 C   0  0  0  0  0  0  0  0  0  0  0  0
  138.2088  136.9593  155.4417 S   0  0  0  0  0  0  0  0  0  0  0  0
  139.9448  137.1931  155.0472 C   0  0  0  0  0  0  0  0  0  0  0  0
  140.8457  136.7237  155.7402 O   0  0  0  0  0  0  0  0  0  0  0  0
  146.6653  136.5289  151.8507 H   0  0  0  0  0  0  0  0  0  0  0  0
  146.1956  137.7638  153.0116 H   0  0  0  0  0  0  0  0  0  0  0  0
  145.8155  137.9711  151.3029 H   0  0  0  0  0  0  0  0  0  0  0  0
  144.6842  135.8107  153.1383 H   0  0  0  0  0  0  0  0  0  0  0  0
  143.0173  135.6676  151.0193 H   0  0  0  0  0  0  0  0  0  0  0  0
  144.4084  136.2968  150.1651 H   0  0  0  0  0  0  0  0  0  0  0  0
  146.7739  134.7994  151.3837 H   0  0  0  0  0  0  0  0  0  0  0  0
  146.9531  132.0619  151.0159 H   0  0  0  0  0  0  0  0  0  0  0  0
  142.9743  133.2173  150.5462 H   0  0  0  0  0  0  0  0  0  0  0  0
  143.7777  138.4824  152.5918 H   0  0  0  0  0  0  0  0  0  0  0  0
  141.8328  139.0950  154.0823 H   0  0  0  0  0  0  0  0  0  0  0  0
  141.2085  138.9909  152.4529 H   0  0  0  0  0  0  0  0  0  0  0  0
  138.8826  139.3412  152.8137 H   0  0  0  0  0  0  0  0  0  0  0  0
  138.7072  137.6465  152.3683 H   0  0  0  0  0  0  0  0  0  0  0  0
  137.5157  139.1152  154.7225 H   0  0  0  0  0  0  0  0  0  0  0  0
  136.7607  137.8727  153.7259 H   0  0  0  0  0  0  0  0  0  0  0  0
  1  2  1  0  0  0  0
  1 19  1  0  0  0  0
  1 20  1  0  0  0  0
  1 21  1  0  0  0  0
  2  3  1  0  0  0  0
  2  9  1  0  0  0  0
  2 22  1  0  0  0  0
  3  4  1  0  0  0  0
  3 23  1  0  0  0  0
  3 24  1  0  0  0  0
  4  8  1  0  0  0  0
  4  5  1  0  0  0  0
  5  6  2  0  0  0  0
  5 25  1  0  0  0  0
  6  7  1  0  0  0  0
  6 26  1  0  0  0  0
  7  8  2  0  0  0  0
  8 27  1  0  0  0  0
  9 10  1  0  0  0  0
  9 28  1  0  0  0  0
 10 11  2  0  0  0  0
 10 12  1  0  0  0  0
 12 13  1  0  0  0  0
 12 29  1  0  0  0  0
 12 30  1  0  0  0  0
 13 17  1  0  0  0  0
 13 14  1  0  0  0  0
 14 15  1  0  0  0  0
 14 31  1  0  0  0  0
 14 32  1  0  0  0  0
 15 16  1  0  0  0  0
 15 33  1  0  0  0  0
 15 34  1  0  0  0  0
 16 17  1  0  0  0  0
 17 18  2  0  0  0  0
M  END
> <s_m_source_file>
AV-unprocessed.smi

> <i_m_source_file_index>
3351

> <i_lp_mmshare_version>
43012

> <i_f3d_flags>
0

> <s_epik_input>
W2NIXTFuW2NIXVtjSF1uMVtDSDJdW0NAQEhdKFtDSDNdKVtOSF1DKD1PKVtDSDJdTjJbQ0gyXVtDSDJdU0MyPU8=

> <s_epik_cmdline>
J2VwaWtfcHl0aG9uJywgJy1waCcsICc3LjAnLCAnLXRuJywgJzgnLCAnLW1hJywgJzIwMCcsICctbWV0YWxfYmluZGluZycsICctaW1hZScsICc8aW5maWxlLm1hZT4nLCAnLW9tYWUnLCAnPG91dGZpbGUubWFlPic=

> <r_lp_tautomer_probability>
1

> <r_epik_Ionization_Penalty>
0.618163

> <r_epik_Ionization_Penalty_Charging>
0.618163

> <r_epik_Ionization_Penalty_Neutral>
6.6929e-08

> <r_epik_State_Penalty>
0.633954

> <r_epik_Charging_Adjusted_Penalty>
1.25212

> <i_epik_Tot_Q>
0

> <i_epik_Tot_abs_Q>
0

> <r_epik_Metal_State_Penalty>
0.305924

> <b_epik_Metal_Only>
0

> <s_lp_Force_Field>
OPLS_2005

> <r_lp_Energy>
3.88922

> <b_lp_Chiralities_Consistent>
1

> <s_lp_Variant>
AV-unprocessed.smi:3351-3

> <Gold.Version>
5.8.1

> <Gold.Id.Protein>
6NUR|6NUR_protein|mol2

> <Gold.PLP.Fitness>
46.5682

> <Gold.PLP.PLP>
-34.1554

> <Gold.PLP.part.hbond>
-2.9302

> <Gold.PLP.part.metal>
0.0000

> <Gold.PLP.part.buried>
-3.8340

> <Gold.PLP.part.nonpolar>
-28.3476

> <Gold.PLP.part.repulsive>
0.3155

> <Gold.PLP.ligand.clash>
0.0000

> <Gold.PLP.ligand.torsion>
0.4938

> <Gold.PLP.Chemscore.Hbond>
1.4914

> <Gold.PLP.Chemscore.CHOScore>
2.9647

> <Gold.PLP.Chemscore.Metal>
0.0000

> <Gold.Chemscore.Hbonds>
donor molecule, donor type, donor heavy atom, donor atom, acceptor molecule, acceptor atom, score
      L1  H     9    28       P1 10175  1.00
      P1  H 11000 11005       L1    18  0.41
      L1  C     5    25       P1  7948  0.83
      L1  C     6    26       P1 10747  1.00
      L1  C     8    27       P1 10186  1.00

> <Gold.PLP.Chemscore.Internal.Correction>
0.0321

> <Gold.Rescore>
     Score         DG    S(hbond)    S(metal)    S(lipo)     H(rot)  DE(clash)    DE(int)     intcor
      9.24      -9.91       0.94        0.00      61.89       2.33       0.16       0.50       ----

> <Gold.Chemscore.Fitness>
9.2388

> <Gold.Chemscore.DG>
-9.9081

> <Gold.Chemscore.ZeroCoef>
-5.4800

> <Gold.Chemscore.Hbond>
0.9448

> <Gold.Chemscore.Metal>
0.0000

> <Gold.Chemscore.Lipo>
61.8940

> <Gold.Chemscore.Internal_Hbond>
0.0000

> <Gold.Chemscore.DEClash>
0.1646

> <Gold.Chemscore.DEInternal>
0.5046

> <Gold.Chemscore.Rot>
2.3317

> <Gold.Chemscore.Internal.Correction>
   9.000000E+99

> <Gold.Chemscore.Hbonds>
donor molecule, donor type, donor heavy atom, donor atom, acceptor molecule, acceptor atom, score
      L1  H     9    28       P1 10175  0.98
      P1  H 11000 11005       L1    18  0.09

> <Gold.Chemscore.Hbond.Weighted>
-3.1557

> <Gold.Chemscore.Metal.Weighted>
-0.0000

> <Gold.Chemscore.Lipo.Weighted>
-7.2416

> <Gold.Chemscore.Internal_Hbond.Weighted>
0.0000

> <Gold.Chemscore.DEClash.Weighted>
0.1646

> <Gold.Chemscore.DEInternal.Weighted>
0.5046

> <Gold.Chemscore.Rot.Weighted>
5.9692

> <Gold.Chemscore.Internal.Correction.Weighted>
   9.000000E+99

> <Gold.Protein.RotatedTorsions>
[ 6907 6896 6895 6894 ] final  -71.40 input  -60.11 | X-H torsion
[ 7974 7965 7964 7962 ] final -175.94 input  175.53 | X-H torsion
[ 8008 7997 7996 7995 ] final   79.58 input   59.86 | X-H torsion
[ 10167 10162 10161 10158 ] final  158.82 input  -65.29 | X-H torsion
[ 10718 10713 10712 10709 ] final -110.90 input   66.30 | X-H torsion
[ 10763 10752 10751 10750 ] final  -73.14 input  -60.55 | X-H torsion
[ 11005 11000 10999 10996 ] final   91.94 input  -57.11 | X-H torsion

> <Gold.Protein.ActiveResidues>
 VAL166  LYS551  ARG553  GLY616  TRP617  ASP618  TYR619  PRO620  LYS621  CYS622 
 ASP623  PHE694  ASN695  SER759  ASP760  ASP761  ALA762  ILE779  LEU786  VAL792 
 PHE793  MET794  SER795  GLU796  ALA797  LYS798  CYS799  TRP800  GLU811  SER814 

> <Gold.Protein.RotatedAtoms>
  150.7214  134.5314  159.5701 H   0  0  0  0  0  0  0  0  0  0  0  0  # atno 6907 bound_to 6896
  152.2846  134.7787  160.0399 H   0  0  0  0  0  0  0  0  0  0  0  0  # atno 6908 bound_to 6896
  151.8422  133.3390  159.3683 H   0  0  0  0  0  0  0  0  0  0  0  0  # atno 6909 bound_to 6896
  144.7127  140.1246  143.6403 H   0  0  0  0  0  0  0  0  0  0  0  0  # atno 7974 bound_to 7965
  155.8717  140.3448  155.5825 H   0  0  0  0  0  0  0  0  0  0  0  0  # atno 8008 bound_to 7997
  155.7820  140.0860  157.2073 H   0  0  0  0  0  0  0  0  0  0  0  0  # atno 8009 bound_to 7997
  154.4018  140.1499  156.3051 H   0  0  0  0  0  0  0  0  0  0  0  0  # atno 8010 bound_to 7997
  139.4829  144.4788  151.8473 H   0  0  0  0  0  0  0  0  0  0  0  0  # atno 10167 bound_to 10162
  156.0617  130.5839  150.8300 H   0  0  0  0  0  0  0  0  0  0  0  0  # atno 10718 bound_to 10713
  154.4554  135.5907  153.6220 H   0  0  0  0  0  0  0  0  0  0  0  0  # atno 10763 bound_to 10752
  152.9817  135.6031  154.3552 H   0  0  0  0  0  0  0  0  0  0  0  0  # atno 10764 bound_to 10752
  154.3418  135.2841  155.2397 H   0  0  0  0  0  0  0  0  0  0  0  0  # atno 10765 bound_to 10752
  139.8831  134.8704  156.3501 H   0  0  0  0  0  0  0  0  0  0  0  0  # atno 11005 bound_to 11000
  145.9341  139.2625  143.1308 LP  0  0  0  0  0  0  0  0  0  0  0  0  # atno 17320 bound_to 7965
  145.9492  140.8921  143.0268 LP  0  0  0  0  0  0  0  0  0  0  0  0  # atno 17321 bound_to 7965
  140.4263  144.2176  150.5887 LP  0  0  0  0  0  0  0  0  0  0  0  0  # atno 17342 bound_to 10162
  140.4824  143.2374  151.8936 LP  0  0  0  0  0  0  0  0  0  0  0  0  # atno 17343 bound_to 10162
  157.5630  131.0946  150.9532 LP  0  0  0  0  0  0  0  0  0  0  0  0  # atno 17370 bound_to 10713
  156.9765  130.5511  149.5293 LP  0  0  0  0  0  0  0  0  0  0  0  0  # atno 17371 bound_to 10713
  140.9600  133.7395  156.0388 LP  0  0  0  0  0  0  0  0  0  0  0  0  # atno 17394 bound_to 11000
  140.8001  134.3518  157.5441 LP  0  0  0  0  0  0  0  0  0  0  0  0  # atno 17395 bound_to 11000

$$$$
