AV-unprocessed.smi:2753|AV-procd|sdf|10611|dock1
  -GOLD-   2272015 63D 1   1.00000     0.00000
 Structure written by MMmdl.
 28 29  0  0  0  0  0  0  0  0  2 V2000
  152.3218  143.1757  159.5209 F   0  0  0  0  0  0  0  0  0  0  0  0
  151.5468  143.4770  158.4796 C   0  0  0  0  0  0  0  0  0  0  0  0
  150.4359  144.0391  158.9542 F   0  0  0  0  0  0  0  0  0  0  0  0
  152.1856  144.3952  157.7557 F   0  0  0  0  0  0  0  0  0  0  0  0
  151.2330  142.2680  157.6614 C   0  0  0  0  0  0  0  0  0  0  0  0
  151.6525  140.9606  157.7654 C   0  0  0  0  0  0  0  0  0  0  0  0
  151.0764  140.1969  156.7485 N   0  0  0  0  0  0  0  0  0  0  0  0
  150.3278  141.0547  156.0601 C   0  0  0  0  0  0  0  0  0  0  0  0
  149.5007  140.7153  154.8587 C   0  0  2  0  0  0  0  0  0  0  0  0
  148.0006  140.9724  155.0990 C   0  0  0  0  0  0  0  0  0  0  0  0
  147.1818  140.5929  153.8555 C   0  0  0  0  0  0  0  0  0  0  0  0
  147.4729  139.1454  153.4267 C   0  0  0  0  0  0  0  0  0  0  0  0
  148.9209  138.9505  153.1966 N   0  3  0  0  0  0  0  0  0  0  0  0
  149.7424  139.2666  154.3860 C   0  0  0  0  0  0  0  0  0  0  0  0
  150.3880  142.2930  156.5647 N   0  0  0  0  0  0  0  0  0  0  0  0
  149.9023  143.1052  156.2119 H   0  0  0  0  0  0  0  0  0  0  0  0
  152.3206  140.5132  158.4867 H   0  0  0  0  0  0  0  0  0  0  0  0
  149.8194  141.3786  154.0523 H   0  0  0  0  0  0  0  0  0  0  0  0
  147.6544  140.3874  155.9524 H   0  0  0  0  0  0  0  0  0  0  0  0
  147.8318  142.0201  155.3508 H   0  0  0  0  0  0  0  0  0  0  0  0
  146.1175  140.7150  154.0589 H   0  0  0  0  0  0  0  0  0  0  0  0
  147.4200  141.2736  153.0371 H   0  0  0  0  0  0  0  0  0  0  0  0
  147.1335  138.4469  154.1926 H   0  0  0  0  0  0  0  0  0  0  0  0
  146.9306  138.9042  152.5121 H   0  0  0  0  0  0  0  0  0  0  0  0
  149.0838  137.9890  152.9329 H   0  0  0  0  0  0  0  0  0  0  0  0
  150.7934  139.1182  154.1364 H   0  0  0  0  0  0  0  0  0  0  0  0
  149.5005  138.5587  155.1800 H   0  0  0  0  0  0  0  0  0  0  0  0
  149.2092  139.5499  152.4364 H   0  0  0  0  0  0  0  0  0  0  0  0
  1  2  1  0  0  0  0
  2  3  1  0  0  0  0
  2  4  1  0  0  0  0
  2  5  1  0  0  0  0
  5  6  2  0  0  0  0
  5 15  1  0  0  0  0
  6 17  1  0  0  0  0
  6  7  1  0  0  0  0
  7  8  2  0  0  0  0
  8 15  1  0  0  0  0
  8  9  1  0  0  0  0
  9 14  1  0  0  0  0
  9 10  1  0  0  0  0
  9 18  1  0  0  0  0
 10 11  1  0  0  0  0
 10 19  1  0  0  0  0
 10 20  1  0  0  0  0
 11 12  1  0  0  0  0
 11 21  1  0  0  0  0
 11 22  1  0  0  0  0
 12 13  1  0  0  0  0
 12 23  1  0  0  0  0
 12 24  1  0  0  0  0
 13 14  1  0  0  0  0
 13 25  1  0  0  0  0
 13 28  1  0  0  0  0
 14 26  1  0  0  0  0
 14 27  1  0  0  0  0
 15 16  1  0  0  0  0
M  CHG  1  13   1
M  END
> <s_m_source_file>
AV-unprocessed.smi

> <i_m_source_file_index>
2753

> <i_lp_mmshare_version>
43012

> <i_f3d_flags>
0

> <s_epik_input>
RkMoRikoRiljMVtjSF1bbkhdYyhuMSlbQ0BASF0yW0NIMl1bQ0gyXVtDSDJdW05IXVtDSDJdMg==

> <s_epik_cmdline>
J2VwaWtfcHl0aG9uJywgJy1waCcsICc3LjAnLCAnLXRuJywgJzgnLCAnLW1hJywgJzIwMCcsICctbWV0YWxfYmluZGluZycsICctaW1hZScsICc8aW5maWxlLm1hZT4nLCAnLW9tYWUnLCAnPG91dGZpbGUubWFlPic=

> <r_lp_tautomer_probability>
0.5

> <r_epik_Ionization_Penalty>
0.0187699

> <r_epik_Ionization_Penalty_Charging>
0.00116734

> <r_epik_Ionization_Penalty_Neutral>
0.0176026

> <r_epik_State_Penalty>
1.08926

> <r_epik_Charging_Adjusted_Penalty>
1.09042

> <i_epik_Tot_Q>
1

> <i_epik_Tot_abs_Q>
1

> <r_epik_Metal_State_Penalty>
1.1514

> <b_epik_Metal_Only>
0

> <s_lp_Force_Field>
OPLS_2005

> <r_lp_Energy>
13.0643

> <b_lp_Chiralities_Consistent>
1

> <s_lp_Variant>
AV-unprocessed.smi:2753-3

> <Gold.Version>
5.8.1

> <Gold.Id.Protein>
6NUR|6NUR_protein|mol2

> <Gold.PLP.Fitness>
45.2971

> <Gold.PLP.PLP>
-34.2515

> <Gold.PLP.part.hbond>
-2.5731

> <Gold.PLP.part.metal>
0.0000

> <Gold.PLP.part.buried>
-5.4797

> <Gold.PLP.part.nonpolar>
-27.8129

> <Gold.PLP.part.repulsive>
0.1684

> <Gold.PLP.ligand.clash>
0.0000

> <Gold.PLP.ligand.torsion>
0.0881

> <Gold.PLP.Chemscore.Hbond>
3.7313

> <Gold.PLP.Chemscore.CHOScore>
0.0000

> <Gold.PLP.Chemscore.Metal>
0.0000

> <Gold.Chemscore.Hbonds>
donor molecule, donor type, donor heavy atom, donor atom, acceptor molecule, acceptor atom, score
      L1  H    13    25       P1  7948  1.98
      L1  H    13    28       P1  7957  0.73
      L1  H    15    16       P1  8028  1.00

> <Gold.PLP.Chemscore.Internal.Correction>
0.0279

> <Gold.Rescore>
     Score         DG    S(hbond)    S(metal)    S(lipo)     H(rot)  DE(clash)    DE(int)     intcor
     18.94     -19.15       2.93        0.00      55.14       1.00       0.13       0.08       ----

> <Gold.Chemscore.Fitness>
18.9439

> <Gold.Chemscore.DG>
-19.1519

> <Gold.Chemscore.ZeroCoef>
-5.4800

> <Gold.Chemscore.Hbond>
2.9283

> <Gold.Chemscore.Metal>
0.0000

> <Gold.Chemscore.Lipo>
55.1388

> <Gold.Chemscore.Internal_Hbond>
0.0000

> <Gold.Chemscore.DEClash>
0.1283

> <Gold.Chemscore.DEInternal>
0.0797

> <Gold.Chemscore.Rot>
1.0000

> <Gold.Chemscore.Internal.Correction>
   9.000000E+99

> <Gold.Chemscore.Hbonds>
donor molecule, donor type, donor heavy atom, donor atom, acceptor molecule, acceptor atom, score
      L1  H    13    25       P1  7948  0.91
      L1  H    13    28       P1  7957  0.73
      L1  H    15    16       P1  8028  0.97

> <Gold.Chemscore.Hbond.Weighted>
-9.7807

> <Gold.Chemscore.Metal.Weighted>
-0.0000

> <Gold.Chemscore.Lipo.Weighted>
-6.4512

> <Gold.Chemscore.Internal_Hbond.Weighted>
0.0000

> <Gold.Chemscore.DEClash.Weighted>
0.1283

> <Gold.Chemscore.DEInternal.Weighted>
0.0797

> <Gold.Chemscore.Rot.Weighted>
2.5600

> <Gold.Chemscore.Internal.Correction.Weighted>
   9.000000E+99

> <Gold.Protein.RotatedTorsions>
[ 6907 6896 6895 6894 ] final    3.44 input  -60.11 | X-H torsion
[ 7974 7965 7964 7962 ] final   -6.53 input  175.53 | X-H torsion
[ 8008 7997 7996 7995 ] final  -98.37 input   59.86 | X-H torsion
[ 10167 10162 10161 10158 ] final  -74.22 input  -65.29 | X-H torsion
[ 10718 10713 10712 10709 ] final -152.58 input   66.30 | X-H torsion
[ 10763 10752 10751 10750 ] final   93.32 input  -60.55 | X-H torsion
[ 11005 11000 10999 10996 ] final   21.33 input  -57.11 | X-H torsion

> <Gold.Protein.ActiveResidues>
 VAL166  LYS551  ARG553  GLY616  TRP617  ASP618  TYR619  PRO620  LYS621  CYS622 
 ASP623  PHE694  ASN695  SER759  ASP760  ASP761  ALA762  ILE779  LEU786  VAL792 
 PHE793  MET794  SER795  GLU796  ALA797  LYS798  CYS799  TRP800  GLU811  SER814 

> <Gold.Protein.RotatedAtoms>
  151.6251  135.1028  160.0109 H   0  0  0  0  0  0  0  0  0  0  0  0  # atno 6907 bound_to 6896
  152.4136  133.6999  159.6428 H   0  0  0  0  0  0  0  0  0  0  0  0  # atno 6908 bound_to 6896
  150.8026  133.8496  159.3242 H   0  0  0  0  0  0  0  0  0  0  0  0  # atno 6909 bound_to 6896
  146.2329  140.2184  142.8337 H   0  0  0  0  0  0  0  0  0  0  0  0  # atno 7974 bound_to 7965
  154.8003  140.0456  157.1268 H   0  0  0  0  0  0  0  0  0  0  0  0  # atno 8008 bound_to 7997
  154.9486  140.3062  155.5066 H   0  0  0  0  0  0  0  0  0  0  0  0  # atno 8009 bound_to 7997
  156.2961  140.2292  156.4562 H   0  0  0  0  0  0  0  0  0  0  0  0  # atno 8010 bound_to 7997
  140.5045  143.2355  151.7697 H   0  0  0  0  0  0  0  0  0  0  0  0  # atno 10167 bound_to 10162
  156.4744  130.8273  151.2502 H   0  0  0  0  0  0  0  0  0  0  0  0  # atno 10718 bound_to 10713
  153.2289  135.4330  155.0573 H   0  0  0  0  0  0  0  0  0  0  0  0  # atno 10763 bound_to 10752
  154.8287  135.3374  154.6816 H   0  0  0  0  0  0  0  0  0  0  0  0  # atno 10764 bound_to 10752
  153.7244  135.7015  153.5061 H   0  0  0  0  0  0  0  0  0  0  0  0  # atno 10765 bound_to 10752
  140.3927  134.1801  155.7663 H   0  0  0  0  0  0  0  0  0  0  0  0  # atno 11005 bound_to 11000
  144.9651  140.8314  143.5489 LP  0  0  0  0  0  0  0  0  0  0  0  0  # atno 17320 bound_to 7965
  145.2159  139.2182  143.5118 LP  0  0  0  0  0  0  0  0  0  0  0  0  # atno 17321 bound_to 7965
  139.4880  144.4477  151.9691 LP  0  0  0  0  0  0  0  0  0  0  0  0  # atno 17342 bound_to 10162
  140.3567  144.3023  150.5940 LP  0  0  0  0  0  0  0  0  0  0  0  0  # atno 17343 bound_to 10162
  157.7488  131.0066  150.3156 LP  0  0  0  0  0  0  0  0  0  0  0  0  # atno 17370 bound_to 10713
  156.3586  130.3843  149.7270 LP  0  0  0  0  0  0  0  0  0  0  0  0  # atno 17371 bound_to 10713
  141.1885  133.8259  157.0993 LP  0  0  0  0  0  0  0  0  0  0  0  0  # atno 17394 bound_to 11000
  140.0394  134.9862  157.0933 LP  0  0  0  0  0  0  0  0  0  0  0  0  # atno 17395 bound_to 11000

$$$$
