#       Name:                AV-unprocessed.smi:1983
#       Creating user name   scv26
#       Creation time:       Fri Mar 27 10:22:23 2020


#       File generated by GOLD software.
#

@<TRIPOS>MOLECULE
AV-unprocessed.smi:1983
    57    58     1
SMALL
NO_CHARGES


@<TRIPOS>ATOM
      1 ****        -4.8180   0.8639  -1.6965 C.3            1 S1                 0.0000
      2 ****        -4.5136   0.7552  -3.2021 C.3            1 S1                 0.0000
      3 ****        -5.6557   0.1166  -4.0140 C.3            1 S1                 0.0000
      4 ****        -6.0279  -1.1405  -3.4858 O.3            1 S1                 0.0000
      5 ****        -3.2677   0.0342  -3.4492 N.am           1 S1                 0.0000
      6 ****        -2.0351   0.5405  -3.3083 C.2            1 S1                 0.0000
      7 ****        -1.7984   1.6969  -2.9572 O.2            1 S1                 0.0000
      8 ****        -1.0897  -0.3686  -3.5843 N.am           1 S1                 0.0000
      9 ****         0.3450  -0.1336  -3.4664 C.3            1 S1                 0.0000
     10 ****         0.8446  -0.1907  -2.0321 C.ar           1 S1                 0.0000
     11 ****         0.4967  -1.2557  -1.1767 C.ar           1 S1                 0.0000
     12 ****         0.9817  -1.2559   0.1447 C.ar           1 S1                 0.0000
     13 ****         1.8044  -0.1892   0.5772 C.ar           1 S1                 0.0000
     14 ****         2.2963  -0.1706   1.8991 N.3            1 S1                 0.0000
     15 ****         2.8743   1.0726   2.4005 C.3            1 S1                 0.0000
     16 ****         3.0262   1.0107   3.9304 C.3            1 S1                 0.0000
     17 ****         3.7450   2.2456   4.4837 C.3            1 S1                 0.0000
     18 ****         3.7870  -0.1426   4.2883 O.3            1 S1                 0.0000
     19 ****         3.2409  -1.3844   3.8370 C.3            1 S1                 0.0000
     20 ****         1.9712  -1.7776   4.6129 C.3            1 S1                 0.0000
     21 ****         3.0408  -1.3575   2.3086 C.3            1 S1                 0.0000
     22 ****         2.1362   0.8335  -0.2491 N.ar           1 S1                 0.0000
     23 ****         1.6710   0.8273  -1.5160 C.ar           1 S1                 0.0000
     24 ****        -5.7570   1.3910  -1.5259 H              1 S1                 0.0000
     25 ****        -4.0352   1.4147  -1.1740 H              1 S1                 0.0000
     26 ****        -4.8970  -0.1182  -1.2295 H              1 S1                 0.0000
     27 ****        -4.3882   1.7685  -3.5881 H              1 S1                 0.0000
     28 ****        -6.5323   0.7649  -3.9945 H              1 S1                 0.0000
     29 ****        -5.3718   0.0004  -5.0607 H              1 S1                 0.0000
     30 ****        -6.7443  -1.4815  -3.9994 H              1 S1                 0.0000
     31 ****        -3.3561  -0.9300  -3.7354 H              1 S1                 0.0000
     32 ****        -1.3817  -1.2917  -3.8701 H              1 S1                 0.0000
     33 ****         0.8656  -0.8990  -4.0421 H              1 S1                 0.0000
     34 ****         0.6039   0.8243  -3.9210 H              1 S1                 0.0000
     35 ****        -0.1356  -2.0599  -1.5235 H              1 S1                 0.0000
     36 ****         0.7075  -2.0588   0.8127 H              1 S1                 0.0000
     37 ****         3.8455   1.2325   1.9301 H              1 S1                 0.0000
     38 ****         2.2387   1.9180   2.1339 H              1 S1                 0.0000
     39 ****         2.0409   0.9594   4.3938 H              1 S1                 0.0000
     40 ****         3.1990   3.1581   4.2426 H              1 S1                 0.0000
     41 ****         4.7494   2.3366   4.0693 H              1 S1                 0.0000
     42 ****         3.8358   2.1897   5.5686 H              1 S1                 0.0000
     43 ****         3.9917  -2.1435   4.0583 H              1 S1                 0.0000
     44 ****         1.6538  -2.7860   4.3465 H              1 S1                 0.0000
     45 ****         1.1348  -1.1111   4.4034 H              1 S1                 0.0000
     46 ****         2.1517  -1.7620   5.6878 H              1 S1                 0.0000
     47 ****         2.5515  -2.2770   1.9892 H              1 S1                 0.0000
     48 ****         4.0128  -1.3346   1.8142 H              1 S1                 0.0000
     49 ****         1.9636   1.6649  -2.1319 H              1 S1                 0.0000
     50 ****        -6.3157  -1.0346  -2.5340 LP             1 S1                 0.0000
     51 ****        -5.2513  -1.7688  -3.5312 LP             1 S1                 0.0000
     52 ****        -2.5522   2.3229  -2.7571 LP             1 S1                 0.0000
     53 ****        -0.8525   2.0099  -2.8722 LP             1 S1                 0.0000
     54 ****         1.4251  -0.2102   2.3886 LP             1 S1                 0.0000
     55 ****         3.8518  -0.1754   5.2857 LP             1 S1                 0.0000
     56 ****         4.7024  -0.0450   3.8978 LP             1 S1                 0.0000
     57 ****         2.7164   1.5806   0.0752 LP             1 S1                 0.0000
@<TRIPOS>BOND
    1    1    2 1     
    2    1   24 1     
    3    1   25 1     
    4    1   26 1     
    5    2    3 1     
    6    2    5 1     
    7    2   27 1     
    8    3    4 1     
    9    3   28 1     
   10    3   29 1     
   11    4   30 1     
   12    5    6 am    
   13    5   31 1     
   14    6    7 2     
   15    6    8 am    
   16    8    9 1     
   17    8   32 1     
   18    9   10 1     
   19    9   33 1     
   20    9   34 1     
   21   10   23 ar    
   22   10   11 ar    
   23   11   12 ar    
   24   11   35 1     
   25   12   13 ar    
   26   12   36 1     
   27   13   14 1     
   28   13   22 ar    
   29   14   21 1     
   30   14   15 1     
   31   15   16 1     
   32   15   37 1     
   33   15   38 1     
   34   16   17 1     
   35   16   18 1     
   36   16   39 1     
   37   17   40 1     
   38   17   41 1     
   39   17   42 1     
   40   18   19 1     
   41   19   20 1     
   42   19   21 1     
   43   19   43 1     
   44   20   44 1     
   45   20   45 1     
   46   20   46 1     
   47   21   47 1     
   48   21   48 1     
   49   22   23 ar    
   50   23   49 1     
   51    4   50 1     
   52    4   51 1     
   53    7   52 1     
   54    7   53 1     
   55   14   54 1     
   56   18   55 1     
   57   18   56 1     
   58   22   57 1     
@<TRIPOS>SUBSTRUCTURE
      1 S1             1
@<TRIPOS>SET
LONE_PAIRS      STATIC     ATOMS    <user>   **** ""
8 50 51 52 53 54 55 56 57
DONOR_HYDROGENS      STATIC     ATOMS    <user>   **** ""
3 30 31 32
ATOM$BLUE        STATIC     ATOMS    COLORGROUP SYSTEM
8 50 51 52 53 54 55 56 57
ATOM$RED        STATIC     ATOMS    COLORGROUP SYSTEM
3 30 31 32
