AV-unprocessed.smi:2152|AV-procd|sdf|8762|dock2
  -GOLD-   2272011543D 1   1.00000     0.00000
 Structure written by MMmdl.
 41 42  0  0  0  0  0  0  0  0  1 V2000
  151.4095  143.9448  157.3152 C   0  0  0  0  0  0  0  0  0  0  0  0
  151.6796  143.2215  158.6470 C   0  0  2  0  0  0  0  0  0  0  0  0
  152.6687  144.0296  159.5113 C   0  0  0  0  0  0  0  0  0  0  0  0
  152.9560  143.3374  160.8521 C   0  0  0  0  0  0  0  0  0  0  0  0
  153.4788  141.9110  160.6347 C   0  0  0  0  0  0  0  0  0  0  0  0
  152.4967  141.0881  159.7887 C   0  0  0  0  0  0  0  0  0  0  0  0
  152.1917  141.7742  158.4410 C   0  0  1  0  0  0  0  0  0  0  0  0
  151.2062  140.9871  157.7034 N   0  0  0  0  0  0  0  0  0  0  0  0
  151.4603  140.2336  156.6230 C   0  0  0  0  0  0  0  0  0  0  0  0
  152.5859  140.0954  156.1423 O   0  0  0  0  0  0  0  0  0  0  0  0
  150.2553  139.5090  156.0096 C   0  0  0  0  0  0  0  0  0  0  0  0
  149.1541  140.4210  155.6760 N   0  0  0  0  0  0  0  0  0  0  0  0
  148.9370  140.7822  154.3588 C   0  0  0  0  0  0  0  0  0  0  0  0
  147.9577  141.6281  153.9704 C   0  0  0  0  0  0  0  0  0  0  0  0
  147.0487  142.2201  154.9448 C   0  0  0  0  0  0  0  0  0  0  0  0
  146.1550  143.0086  154.6349 O   0  0  0  0  0  0  0  0  0  0  0  0
  147.2845  141.8229  156.2832 N   0  0  0  0  0  0  0  0  0  0  0  0
  146.4455  142.3689  157.3300 C   0  0  0  0  0  0  0  0  0  0  0  0
  148.3206  140.9506  156.6845 C   0  0  0  0  0  0  0  0  0  0  0  0
  148.5046  140.6593  157.8694 O   0  0  0  0  0  0  0  0  0  0  0  0
  152.3129  144.0021  156.7071 H   0  0  0  0  0  0  0  0  0  0  0  0
  151.0602  144.9634  157.4866 H   0  0  0  0  0  0  0  0  0  0  0  0
  150.6452  143.4369  156.7266 H   0  0  0  0  0  0  0  0  0  0  0  0
  150.7340  143.1721  159.1897 H   0  0  0  0  0  0  0  0  0  0  0  0
  153.6045  144.1678  158.9679 H   0  0  0  0  0  0  0  0  0  0  0  0
  152.2718  145.0282  159.6973 H   0  0  0  0  0  0  0  0  0  0  0  0
  153.6835  143.9169  161.4211 H   0  0  0  0  0  0  0  0  0  0  0  0
  152.0458  143.3075  161.4525 H   0  0  0  0  0  0  0  0  0  0  0  0
  154.4492  141.9471  160.1380 H   0  0  0  0  0  0  0  0  0  0  0  0
  153.6404  141.4233  161.5964 H   0  0  0  0  0  0  0  0  0  0  0  0
  152.9094  140.0928  159.6187 H   0  0  0  0  0  0  0  0  0  0  0  0
  151.5710  140.9463  160.3483 H   0  0  0  0  0  0  0  0  0  0  0  0
  153.1170  141.8269  157.8632 H   0  0  0  0  0  0  0  0  0  0  0  0
  150.2523  141.0345  158.0311 H   0  0  0  0  0  0  0  0  0  0  0  0
  150.5932  138.9882  155.1127 H   0  0  0  0  0  0  0  0  0  0  0  0
  149.9017  138.7296  156.6875 H   0  0  0  0  0  0  0  0  0  0  0  0
  149.5871  140.3738  153.5986 H   0  0  0  0  0  0  0  0  0  0  0  0
  147.8468  141.8729  152.9244 H   0  0  0  0  0  0  0  0  0  0  0  0
  146.1839  141.5611  158.0158 H   0  0  0  0  0  0  0  0  0  0  0  0
  145.5243  142.7764  156.9138 H   0  0  0  0  0  0  0  0  0  0  0  0
  147.0272  143.1451  157.8294 H   0  0  0  0  0  0  0  0  0  0  0  0
  1  2  1  0  0  0  0
  1 21  1  0  0  0  0
  1 22  1  0  0  0  0
  1 23  1  0  0  0  0
  2  7  1  0  0  0  0
  2  3  1  0  0  0  0
  2 24  1  0  0  0  0
  3  4  1  0  0  0  0
  3 25  1  0  0  0  0
  3 26  1  0  0  0  0
  4  5  1  0  0  0  0
  4 27  1  0  0  0  0
  4 28  1  0  0  0  0
  5  6  1  0  0  0  0
  5 29  1  0  0  0  0
  5 30  1  0  0  0  0
  6  7  1  0  0  0  0
  6 31  1  0  0  0  0
  6 32  1  0  0  0  0
  7  8  1  0  0  0  0
  7 33  1  0  0  0  0
  8  9  1  0  0  0  0
  8 34  1  0  0  0  0
  9 10  2  0  0  0  0
  9 11  1  0  0  0  0
 11 12  1  0  0  0  0
 11 35  1  0  0  0  0
 11 36  1  0  0  0  0
 12 19  1  0  0  0  0
 12 13  1  0  0  0  0
 13 14  2  0  0  0  0
 13 37  1  0  0  0  0
 14 15  1  0  0  0  0
 14 38  1  0  0  0  0
 15 16  2  0  0  0  0
 15 17  1  0  0  0  0
 17 18  1  0  0  0  0
 17 19  1  0  0  0  0
 18 39  1  0  0  0  0
 18 40  1  0  0  0  0
 18 41  1  0  0  0  0
 19 20  2  0  0  0  0
M  END
> <s_m_source_file>
AV-unprocessed.smi

> <i_m_source_file_index>
2152

> <i_lp_mmshare_version>
43012

> <i_f3d_flags>
0

> <s_epik_input>
W0NIM11bQ0BASF0xW0NIMl1bQ0gyXVtDSDJdW0NIMl1bQ0BIXTFbTkhdQyg9TylbQ0gyXW4yW2NIXVtjSF1jKD1PKW4oW0NIM10pYzI9Tw==

> <s_epik_cmdline>
J2VwaWtfcHl0aG9uJywgJy1waCcsICc3LjAnLCAnLXRuJywgJzgnLCAnLW1hJywgJzIwMCcsICctbWV0YWxfYmluZGluZycsICctaW1hZScsICc8aW5maWxlLm1hZT4nLCAnLW9tYWUnLCAnPG91dGZpbGUubWFlPic=

> <r_lp_tautomer_probability>
1

> <r_epik_Ionization_Penalty>
3.20555e-08

> <r_epik_Ionization_Penalty_Charging>
1.30086e-08

> <r_epik_Ionization_Penalty_Neutral>
1.90469e-08

> <r_epik_State_Penalty>
-0

> <r_epik_Charging_Adjusted_Penalty>
1.30086e-08

> <i_epik_Tot_Q>
0

> <i_epik_Tot_abs_Q>
0

> <r_epik_Metal_State_Penalty>
-0

> <b_epik_Metal_Only>
0

> <s_lp_Force_Field>
OPLS_2005

> <r_lp_Energy>
17.5308

> <b_lp_Chiralities_Consistent>
1

> <s_lp_Variant>
AV-unprocessed.smi:2152-1

> <Gold.Version>
5.8.1

> <Gold.Id.Protein>
6NUR|6NUR_protein|mol2

> <Gold.PLP.Fitness>
42.2018

> <Gold.PLP.PLP>
-36.9242

> <Gold.PLP.part.hbond>
-1.1516

> <Gold.PLP.part.metal>
0.0000

> <Gold.PLP.part.buried>
-4.0231

> <Gold.PLP.part.nonpolar>
-31.8228

> <Gold.PLP.part.repulsive>
0.2762

> <Gold.PLP.ligand.clash>
0.0000

> <Gold.PLP.ligand.torsion>
0.3654

> <Gold.PLP.Chemscore.Hbond>
1.0000

> <Gold.PLP.Chemscore.CHOScore>
1.0000

> <Gold.PLP.Chemscore.Metal>
0.0000

> <Gold.Chemscore.Hbonds>
donor molecule, donor type, donor heavy atom, donor atom, acceptor molecule, acceptor atom, score
      P1  H  7997  8009       L1    10  1.00
      L1  C    13    37       P1  7957  1.00

> <Gold.PLP.Chemscore.Internal.Correction>
0.0085

> <Gold.Rescore>
     Score         DG    S(hbond)    S(metal)    S(lipo)     H(rot)  DE(clash)    DE(int)     intcor
     12.68     -15.96       1.00        0.00      94.45       1.52       0.50       2.78       ----

> <Gold.Chemscore.Fitness>
12.6793

> <Gold.Chemscore.DG>
-15.9602

> <Gold.Chemscore.ZeroCoef>
-5.4800

> <Gold.Chemscore.Hbond>
0.9974

> <Gold.Chemscore.Metal>
0.0000

> <Gold.Chemscore.Lipo>
94.4514

> <Gold.Chemscore.Internal_Hbond>
0.0000

> <Gold.Chemscore.DEClash>
0.4980

> <Gold.Chemscore.DEInternal>
2.7829

> <Gold.Chemscore.Rot>
1.5242

> <Gold.Chemscore.Internal.Correction>
   9.000000E+99

> <Gold.Chemscore.Hbonds>
donor molecule, donor type, donor heavy atom, donor atom, acceptor molecule, acceptor atom, score
      P1  H  7997  8009       L1    10  0.99

> <Gold.Chemscore.Hbond.Weighted>
-3.3313

> <Gold.Chemscore.Metal.Weighted>
-0.0000

> <Gold.Chemscore.Lipo.Weighted>
-11.0508

> <Gold.Chemscore.Internal_Hbond.Weighted>
0.0000

> <Gold.Chemscore.DEClash.Weighted>
0.4980

> <Gold.Chemscore.DEInternal.Weighted>
2.7829

> <Gold.Chemscore.Rot.Weighted>
3.9019

> <Gold.Chemscore.Internal.Correction.Weighted>
   9.000000E+99

> <Gold.Protein.RotatedTorsions>
[ 6907 6896 6895 6894 ] final  133.17 input  -60.11 | X-H torsion
[ 7974 7965 7964 7962 ] final   75.26 input  175.53 | X-H torsion
[ 8008 7997 7996 7995 ] final -150.08 input   59.86 | X-H torsion
[ 10167 10162 10161 10158 ] final  154.26 input  -65.29 | X-H torsion
[ 10718 10713 10712 10709 ] final  -78.98 input   66.30 | X-H torsion
[ 10763 10752 10751 10750 ] final  100.82 input  -60.55 | X-H torsion
[ 11005 11000 10999 10996 ] final  -96.29 input  -57.11 | X-H torsion

> <Gold.Protein.ActiveResidues>
 VAL166  LYS551  ARG553  GLY616  TRP617  ASP618  TYR619  PRO620  LYS621  CYS622 
 ASP623  PHE694  ASN695  SER759  ASP760  ASP761  ALA762  ILE779  LEU786  VAL792 
 PHE793  MET794  SER795  GLU796  ALA797  LYS798  CYS799  TRP800  GLU811  SER814 

> <Gold.Protein.RotatedAtoms>
  152.3248  133.5893  159.5768 H   0  0  0  0  0  0  0  0  0  0  0  0  # atno 6907 bound_to 6896
  150.7390  133.9957  159.3630 H   0  0  0  0  0  0  0  0  0  0  0  0  # atno 6908 bound_to 6896
  151.7838  135.0755  160.0428 H   0  0  0  0  0  0  0  0  0  0  0  0  # atno 6909 bound_to 6896
  145.7178  139.2637  143.1613 H   0  0  0  0  0  0  0  0  0  0  0  0  # atno 7974 bound_to 7965
  155.6178  140.0678  157.2687 H   0  0  0  0  0  0  0  0  0  0  0  0  # atno 8008 bound_to 7997
  154.4237  140.1790  156.1388 H   0  0  0  0  0  0  0  0  0  0  0  0  # atno 8009 bound_to 7997
  156.0034  140.3334  155.6871 H   0  0  0  0  0  0  0  0  0  0  0  0  # atno 8010 bound_to 7997
  139.4824  144.5202  151.7888 H   0  0  0  0  0  0  0  0  0  0  0  0  # atno 10167 bound_to 10162
  156.0104  130.4533  150.3579 H   0  0  0  0  0  0  0  0  0  0  0  0  # atno 10718 bound_to 10713
  153.3188  135.4066  155.1399 H   0  0  0  0  0  0  0  0  0  0  0  0  # atno 10763 bound_to 10752
  154.8595  135.3582  154.5625 H   0  0  0  0  0  0  0  0  0  0  0  0  # atno 10764 bound_to 10752
  153.6057  135.7069  153.5425 H   0  0  0  0  0  0  0  0  0  0  0  0  # atno 10765 bound_to 10752
  141.1416  133.8087  157.0550 H   0  0  0  0  0  0  0  0  0  0  0  0  # atno 11005 bound_to 11000
  146.0653  140.7927  142.9714 LP  0  0  0  0  0  0  0  0  0  0  0  0  # atno 17320 bound_to 7965
  144.6924  140.3260  143.7224 LP  0  0  0  0  0  0  0  0  0  0  0  0  # atno 17321 bound_to 7965
  140.4715  144.1580  150.5918 LP  0  0  0  0  0  0  0  0  0  0  0  0  # atno 17342 bound_to 10162
  140.4377  143.2540  151.9514 LP  0  0  0  0  0  0  0  0  0  0  0  0  # atno 17343 bound_to 10162
  157.1669  131.0359  151.2814 LP  0  0  0  0  0  0  0  0  0  0  0  0  # atno 17370 bound_to 10713
  157.4263  130.7465  149.6953 LP  0  0  0  0  0  0  0  0  0  0  0  0  # atno 17371 bound_to 10713
  140.0607  134.9756  157.1300 LP  0  0  0  0  0  0  0  0  0  0  0  0  # atno 17394 bound_to 11000
  140.3852  134.2243  155.7169 LP  0  0  0  0  0  0  0  0  0  0  0  0  # atno 17395 bound_to 11000

$$$$
