AV-unprocessed.smi:781|AV-procd|sdf|3712|dock9
  -GOLD-   22720 1133D 1   1.00000     0.00000
 Structure written by MMmdl.
 38 40  0  0  0  0  0  0  0  0  1 V2000
  152.4384  131.8781  156.9288 C   0  0  0  0  0  0  0  0  0  0  0  0
  151.5292  132.8259  156.2245 C   0  0  0  0  0  0  0  0  0  0  0  0
  150.5815  132.6583  155.2543 C   0  0  0  0  0  0  0  0  0  0  0  0
  150.0981  133.9780  155.0486 C   0  0  0  0  0  0  0  0  0  0  0  0
  149.0797  134.2393  154.0974 N   0  0  0  0  0  0  0  0  0  0  0  0
  147.9508  133.5396  153.8929 C   0  0  0  0  0  0  0  0  0  0  0  0
  147.6103  132.5394  154.5255 O   0  0  0  0  0  0  0  0  0  0  0  0
  147.2221  134.0720  152.9022 N   0  0  0  0  0  0  0  0  0  0  0  0
  145.9425  133.5462  152.4328 C   0  0  1  0  0  0  0  0  0  0  0  0
  144.7556  134.5184  152.6528 C   0  0  1  0  0  0  0  0  0  0  0  0
  145.0666  135.9252  152.0983 C   0  0  0  0  0  0  0  0  0  0  0  0
  145.0645  135.6941  150.5756 C   0  0  0  0  0  0  0  0  0  0  0  0
  144.7212  134.1960  150.4583 C   0  0  2  0  0  0  0  0  0  0  0  0
  143.7537  134.0142  151.6221 C   0  0  0  0  0  0  0  0  0  0  0  0
  145.9422  133.3527  150.8931 C   0  0  2  0  0  0  0  0  0  0  0  0
  145.8336  131.8774  150.4615 C   0  0  0  0  0  0  0  0  0  0  0  0
  146.4276  131.6971  149.1934 O   0  0  0  0  0  0  0  0  0  0  0  0
  150.6956  134.8702  155.8238 N   0  0  0  0  0  0  0  0  0  0  0  0
  151.6153  134.1361  156.5818 O   0  0  0  0  0  0  0  0  0  0  0  0
  152.5569  130.9561  156.3593 H   0  0  0  0  0  0  0  0  0  0  0  0
  152.0411  131.6208  157.9105 H   0  0  0  0  0  0  0  0  0  0  0  0
  153.4262  132.3181  157.0678 H   0  0  0  0  0  0  0  0  0  0  0  0
  150.2846  131.7389  154.7718 H   0  0  0  0  0  0  0  0  0  0  0  0
  149.2280  135.0438  153.5068 H   0  0  0  0  0  0  0  0  0  0  0  0
  147.5759  134.8931  152.4338 H   0  0  0  0  0  0  0  0  0  0  0  0
  145.7338  132.5983  152.9330 H   0  0  0  0  0  0  0  0  0  0  0  0
  144.3862  134.5285  153.6788 H   0  0  0  0  0  0  0  0  0  0  0  0
  144.2780  136.6262  152.3750 H   0  0  0  0  0  0  0  0  0  0  0  0
  146.0076  136.3395  152.4603 H   0  0  0  0  0  0  0  0  0  0  0  0
  144.2995  136.3071  150.0974 H   0  0  0  0  0  0  0  0  0  0  0  0
  146.0225  135.9395  150.1160 H   0  0  0  0  0  0  0  0  0  0  0  0
  144.3224  133.9232  149.4806 H   0  0  0  0  0  0  0  0  0  0  0  0
  143.4496  132.9790  151.7840 H   0  0  0  0  0  0  0  0  0  0  0  0
  142.8608  134.6372  151.5441 H   0  0  0  0  0  0  0  0  0  0  0  0
  146.8422  133.7717  150.4385 H   0  0  0  0  0  0  0  0  0  0  0  0
  146.3124  131.2126  151.1808 H   0  0  0  0  0  0  0  0  0  0  0  0
  144.7872  131.5787  150.3946 H   0  0  0  0  0  0  0  0  0  0  0  0
  147.3277  131.4369  149.3172 H   0  0  0  0  0  0  0  0  0  0  0  0
  1  2  1  0  0  0  0
  1 20  1  0  0  0  0
  1 21  1  0  0  0  0
  1 22  1  0  0  0  0
  2 19  1  0  0  0  0
  2  3  2  0  0  0  0
  3  4  1  0  0  0  0
  3 23  1  0  0  0  0
  4  5  1  0  0  0  0
  4 18  2  0  0  0  0
  5  6  1  0  0  0  0
  5 24  1  0  0  0  0
  6  7  2  0  0  0  0
  6  8  1  0  0  0  0
  8  9  1  0  0  0  0
  8 25  1  0  0  0  0
  9 15  1  0  0  0  0
  9 10  1  0  0  0  0
  9 26  1  0  0  0  0
 10 14  1  0  0  0  0
 10 11  1  0  0  0  0
 10 27  1  0  0  0  0
 11 12  1  0  0  0  0
 11 28  1  0  0  0  0
 11 29  1  0  0  0  0
 12 13  1  0  0  0  0
 12 30  1  0  0  0  0
 12 31  1  0  0  0  0
 13 14  1  0  0  0  0
 13 15  1  0  0  0  0
 13 32  1  0  0  0  0
 14 33  1  0  0  0  0
 14 34  1  0  0  0  0
 15 16  1  0  0  0  0
 15 35  1  0  0  0  0
 16 17  1  0  0  0  0
 16 36  1  0  0  0  0
 16 37  1  0  0  0  0
 17 38  1  0  0  0  0
 18 19  1  0  0  0  0
M  END
> <s_m_source_file>
AV-unprocessed.smi

> <i_m_source_file_index>
781

> <i_lp_mmshare_version>
43012

> <i_f3d_flags>
0

> <s_epik_input>
W0NIM11jMVtjSF1jKG5vMSlbTkhdQyg9TylbTkhdW0NASF0oW0NAQEhdMjMpW0NASF0oW0NIMl1bT0hdKVtDQEBIXShbQ0gyXTMpW0NIMl1bQ0gyXTI=

> <s_epik_cmdline>
J2VwaWtfcHl0aG9uJywgJy1waCcsICc3LjAnLCAnLXRuJywgJzgnLCAnLW1hJywgJzIwMCcsICctbWV0YWxfYmluZGluZycsICctaW1hZScsICc8aW5maWxlLm1hZT4nLCAnLW9tYWUnLCAnPG91dGZpbGUubWFlPic=

> <r_lp_tautomer_probability>
1

> <r_epik_Ionization_Penalty>
2.32222e-05

> <r_epik_Ionization_Penalty_Charging>
0

> <r_epik_Ionization_Penalty_Neutral>
2.32222e-05

> <r_epik_State_Penalty>
-0

> <r_epik_Charging_Adjusted_Penalty>
0

> <i_epik_Tot_Q>
0

> <i_epik_Tot_abs_Q>
0

> <r_epik_Metal_State_Penalty>
-0

> <b_epik_Metal_Only>
0

> <s_lp_Force_Field>
OPLS_2005

> <r_lp_Energy>
46.3898

> <b_lp_Chiralities_Consistent>
1

> <s_lp_Variant>
AV-unprocessed.smi:781-6

> <Gold.Version>
5.8.1

> <Gold.Id.Protein>
6NUR|6NUR_protein|mol2

> <Gold.PLP.Fitness>
38.4469

> <Gold.PLP.PLP>
-30.9440

> <Gold.PLP.part.hbond>
-3.5446

> <Gold.PLP.part.metal>
0.0000

> <Gold.PLP.part.buried>
-4.5502

> <Gold.PLP.part.nonpolar>
-22.2615

> <Gold.PLP.part.repulsive>
0.0607

> <Gold.PLP.ligand.clash>
0.0000

> <Gold.PLP.ligand.torsion>
0.7571

> <Gold.PLP.Chemscore.Hbond>
3.0000

> <Gold.PLP.Chemscore.CHOScore>
0.0000

> <Gold.PLP.Chemscore.Metal>
0.0000

> <Gold.Chemscore.Hbonds>
donor molecule, donor type, donor heavy atom, donor atom, acceptor molecule, acceptor atom, score
      L1  H     5    24       P1  7948  0.90
      L1  H     8    25       P1  7948  1.00
      L1  H    17    38       P1 10747  1.00

> <Gold.PLP.Chemscore.Internal.Correction>
0.0171

> <Gold.Rescore>
     Score         DG    S(hbond)    S(metal)    S(lipo)     H(rot)  DE(clash)    DE(int)     intcor
     15.29     -16.06       2.38        0.00      63.08       1.86       0.01       0.76       ----

> <Gold.Chemscore.Fitness>
15.2877

> <Gold.Chemscore.DG>
-16.0572

> <Gold.Chemscore.ZeroCoef>
-5.4800

> <Gold.Chemscore.Hbond>
2.3816

> <Gold.Chemscore.Metal>
0.0000

> <Gold.Chemscore.Lipo>
63.0838

> <Gold.Chemscore.Internal_Hbond>
0.0000

> <Gold.Chemscore.DEClash>
0.0089

> <Gold.Chemscore.DEInternal>
0.7606

> <Gold.Chemscore.Rot>
1.8587

> <Gold.Chemscore.Internal.Correction>
   9.000000E+99

> <Gold.Chemscore.Hbonds>
donor molecule, donor type, donor heavy atom, donor atom, acceptor molecule, acceptor atom, score
      L1  H     5    24       P1  7948  0.17
      L1  H     8    25       P1  7948  0.91
      L1  H    17    38       P1 10747  0.98

> <Gold.Chemscore.Hbond.Weighted>
-7.9547

> <Gold.Chemscore.Metal.Weighted>
-0.0000

> <Gold.Chemscore.Lipo.Weighted>
-7.3808

> <Gold.Chemscore.Internal_Hbond.Weighted>
0.0000

> <Gold.Chemscore.DEClash.Weighted>
0.0089

> <Gold.Chemscore.DEInternal.Weighted>
0.7606

> <Gold.Chemscore.Rot.Weighted>
4.7583

> <Gold.Chemscore.Internal.Correction.Weighted>
   9.000000E+99

> <Gold.Protein.RotatedTorsions>
[ 6907 6896 6895 6894 ] final -164.80 input  -60.11 | X-H torsion
[ 7974 7965 7964 7962 ] final   80.37 input  175.53 | X-H torsion
[ 8008 7997 7996 7995 ] final  155.77 input   59.86 | X-H torsion
[ 10167 10162 10161 10158 ] final  115.21 input  -65.29 | X-H torsion
[ 10718 10713 10712 10709 ] final  145.37 input   66.30 | X-H torsion
[ 10763 10752 10751 10750 ] final  149.62 input  -60.55 | X-H torsion
[ 11005 11000 10999 10996 ] final -112.01 input  -57.11 | X-H torsion

> <Gold.Protein.ActiveResidues>
 VAL166  LYS551  ARG553  GLY616  TRP617  ASP618  TYR619  PRO620  LYS621  CYS622 
 ASP623  PHE694  ASN695  SER759  ASP760  ASP761  ALA762  ILE779  LEU786  VAL792 
 PHE793  MET794  SER795  GLU796  ALA797  LYS798  CYS799  TRP800  GLU811  SER814 

> <Gold.Protein.RotatedAtoms>
  151.4176  133.3708  159.2751 H   0  0  0  0  0  0  0  0  0  0  0  0  # atno 6907 bound_to 6896
  150.9317  134.8733  159.7566 H   0  0  0  0  0  0  0  0  0  0  0  0  # atno 6908 bound_to 6896
  152.5031  134.4121  159.9504 H   0  0  0  0  0  0  0  0  0  0  0  0  # atno 6909 bound_to 6896
  145.6520  139.2450  143.1971 H   0  0  0  0  0  0  0  0  0  0  0  0  # atno 7974 bound_to 7965
  156.2459  140.1930  156.6853 H   0  0  0  0  0  0  0  0  0  0  0  0  # atno 8008 bound_to 7997
  154.6291  140.0598  156.9736 H   0  0  0  0  0  0  0  0  0  0  0  0  # atno 8009 bound_to 7997
  155.1739  140.3270  155.4390 H   0  0  0  0  0  0  0  0  0  0  0  0  # atno 8010 bound_to 7997
  139.6333  144.7117  151.2387 H   0  0  0  0  0  0  0  0  0  0  0  0  # atno 10167 bound_to 10162
  157.3460  131.0943  151.1041 H   0  0  0  0  0  0  0  0  0  0  0  0  # atno 10718 bound_to 10713
  154.0742  135.2864  155.3302 H   0  0  0  0  0  0  0  0  0  0  0  0  # atno 10763 bound_to 10752
  154.6726  135.5293  153.8162 H   0  0  0  0  0  0  0  0  0  0  0  0  # atno 10764 bound_to 10752
  153.0473  135.6561  154.0921 H   0  0  0  0  0  0  0  0  0  0  0  0  # atno 10765 bound_to 10752
  141.0701  133.9394  157.2502 H   0  0  0  0  0  0  0  0  0  0  0  0  # atno 11005 bound_to 11000
  146.1195  140.7326  142.9464 LP  0  0  0  0  0  0  0  0  0  0  0  0  # atno 17320 bound_to 7965
  144.7119  140.4070  143.7074 LP  0  0  0  0  0  0  0  0  0  0  0  0  # atno 17321 bound_to 7965
  140.7451  143.6441  150.8308 LP  0  0  0  0  0  0  0  0  0  0  0  0  # atno 17342 bound_to 10162
  140.0069  143.5684  152.2854 LP  0  0  0  0  0  0  0  0  0  0  0  0  # atno 17343 bound_to 10162
  157.2235  130.6492  149.5820 LP  0  0  0  0  0  0  0  0  0  0  0  0  # atno 17370 bound_to 10713
  155.9714  130.4621  150.6135 LP  0  0  0  0  0  0  0  0  0  0  0  0  # atno 17371 bound_to 10713
  139.9515  135.0174  156.9006 LP  0  0  0  0  0  0  0  0  0  0  0  0  # atno 17394 bound_to 11000
  140.5692  134.0460  155.7424 LP  0  0  0  0  0  0  0  0  0  0  0  0  # atno 17395 bound_to 11000

$$$$
