AV-unprocessed.smi:197|AV-procd|sdf|1546|dock2
  -GOLD-   2262019403D 1   1.00000     0.00000
 Structure written by MMmdl.
 54 57  0  0  0  0  0  0  0  0  1 V2000
  152.0209  144.5251  160.2589 C   0  0  0  0  0  0  0  0  0  0  0  0
  151.7129  143.1744  159.9519 O   0  0  0  0  0  0  0  0  0  0  0  0
  152.8389  142.3063  159.9246 C   0  0  0  0  0  0  0  0  0  0  0  0
  152.4917  140.8980  159.4043 C   0  0  0  0  0  0  0  0  0  0  0  0
  152.8335  139.7469  160.3875 C   0  0  2  0  0  0  0  0  0  0  0  0
  153.9769  140.1481  161.3495 C   0  0  0  0  0  0  0  0  0  0  0  0
  154.2969  139.0713  162.2236 O   0  0  0  0  0  0  0  0  0  0  0  0
  154.7502  137.9267  161.5135 C   0  0  0  0  0  0  0  0  0  0  0  0
  153.6284  137.4386  160.5875 C   0  0  0  0  0  0  0  0  0  0  0  0
  153.2122  138.5103  159.6906 N   0  0  0  0  0  0  0  0  0  0  0  0
  152.3479  138.0460  158.7603 C   0  0  0  0  0  0  0  0  0  0  0  0
  151.6309  136.9426  159.0849 N   0  0  0  0  0  0  0  0  0  0  0  0
  150.7693  136.4234  158.2054 C   0  0  0  0  0  0  0  0  0  0  0  0
  150.4799  136.8436  156.9720 N   0  0  0  0  0  0  0  0  0  0  0  0
  151.1950  137.9584  156.6459 C   0  0  0  0  0  0  0  0  0  0  0  0
  152.1374  138.6266  157.4769 C   0  0  0  0  0  0  0  0  0  0  0  0
  152.6528  139.7330  156.8131 N   0  0  0  0  0  0  0  0  0  0  0  0
  152.0632  139.7095  155.6495 C   0  0  0  0  0  0  0  0  0  0  0  0
  151.1797  138.6708  155.4594 N   0  0  0  0  0  0  0  0  0  0  0  0
  150.4002  138.4017  154.2608 C   0  0  0  0  0  0  0  0  0  0  0  0
  149.1137  139.2574  154.1539 C   0  0  2  0  0  0  0  0  0  0  0  0
  148.4459  138.9102  152.9519 O   0  0  0  0  0  0  0  0  0  0  0  0
  149.4223  140.7583  154.1120 C   0  0  0  0  0  0  0  0  0  0  0  0
  148.8638  141.2911  155.4265 C   0  0  0  0  0  0  0  0  0  0  0  0
  147.7531  140.4457  155.6639 O   0  0  0  0  0  0  0  0  0  0  0  0
  148.1769  139.1203  155.3825 C   0  0  1  0  0  0  0  0  0  0  0  0
  146.9675  138.1808  155.2465 C   0  0  0  0  0  0  0  0  0  0  0  0
  151.0974  145.0988  160.3349 H   0  0  0  0  0  0  0  0  0  0  0  0
  152.6286  144.9865  159.4823 H   0  0  0  0  0  0  0  0  0  0  0  0
  152.5453  144.6075  161.2114 H   0  0  0  0  0  0  0  0  0  0  0  0
  153.6363  142.7460  159.3236 H   0  0  0  0  0  0  0  0  0  0  0  0
  153.2361  142.2404  160.9368 H   0  0  0  0  0  0  0  0  0  0  0  0
  151.4320  140.8887  159.1520 H   0  0  0  0  0  0  0  0  0  0  0  0
  153.0115  140.7307  158.4604 H   0  0  0  0  0  0  0  0  0  0  0  0
  151.9540  139.5343  160.9947 H   0  0  0  0  0  0  0  0  0  0  0  0
  154.8663  140.4528  160.7955 H   0  0  0  0  0  0  0  0  0  0  0  0
  153.6822  140.9948  161.9681 H   0  0  0  0  0  0  0  0  0  0  0  0
  155.6515  138.1645  160.9465 H   0  0  0  0  0  0  0  0  0  0  0  0
  155.0165  137.1469  162.2270 H   0  0  0  0  0  0  0  0  0  0  0  0
  153.9750  136.5795  160.0108 H   0  0  0  0  0  0  0  0  0  0  0  0
  152.7761  137.1057  161.1817 H   0  0  0  0  0  0  0  0  0  0  0  0
  150.2380  135.5432  158.5357 H   0  0  0  0  0  0  0  0  0  0  0  0
  152.2637  140.4498  154.8888 H   0  0  0  0  0  0  0  0  0  0  0  0
  151.0371  138.5715  153.3915 H   0  0  0  0  0  0  0  0  0  0  0  0
  150.1502  137.3398  154.2502 H   0  0  0  0  0  0  0  0  0  0  0  0
  148.6448  138.0083  152.7513 H   0  0  0  0  0  0  0  0  0  0  0  0
  150.4842  140.9805  154.0011 H   0  0  0  0  0  0  0  0  0  0  0  0
  148.9034  141.2448  153.2843 H   0  0  0  0  0  0  0  0  0  0  0  0
  149.5894  141.1816  156.2340 H   0  0  0  0  0  0  0  0  0  0  0  0
  148.5689  142.3390  155.3664 H   0  0  0  0  0  0  0  0  0  0  0  0
  148.7624  138.8045  156.2467 H   0  0  0  0  0  0  0  0  0  0  0  0
  147.2850  137.1621  155.0275 H   0  0  0  0  0  0  0  0  0  0  0  0
  146.2906  138.5031  154.4553 H   0  0  0  0  0  0  0  0  0  0  0  0
  146.3964  138.1538  156.1745 H   0  0  0  0  0  0  0  0  0  0  0  0
  1  2  1  0  0  0  0
  1 28  1  0  0  0  0
  1 29  1  0  0  0  0
  1 30  1  0  0  0  0
  2  3  1  0  0  0  0
  3  4  1  0  0  0  0
  3 31  1  0  0  0  0
  3 32  1  0  0  0  0
  4  5  1  0  0  0  0
  4 33  1  0  0  0  0
  4 34  1  0  0  0  0
  5 10  1  0  0  0  0
  5  6  1  0  0  0  0
  5 35  1  0  0  0  0
  6  7  1  0  0  0  0
  6 36  1  0  0  0  0
  6 37  1  0  0  0  0
  7  8  1  0  0  0  0
  8  9  1  0  0  0  0
  8 38  1  0  0  0  0
  8 39  1  0  0  0  0
  9 10  1  0  0  0  0
  9 40  1  0  0  0  0
  9 41  1  0  0  0  0
 10 11  1  0  0  0  0
 11 16  1  0  0  0  0
 11 12  2  0  0  0  0
 12 13  1  0  0  0  0
 13 14  2  0  0  0  0
 13 42  1  0  0  0  0
 14 15  1  0  0  0  0
 15 19  1  0  0  0  0
 15 16  2  0  0  0  0
 16 17  1  0  0  0  0
 17 18  2  0  0  0  0
 18 19  1  0  0  0  0
 18 43  1  0  0  0  0
 19 20  1  0  0  0  0
 20 21  1  0  0  0  0
 20 44  1  0  0  0  0
 20 45  1  0  0  0  0
 21 26  1  0  0  0  0
 21 22  1  0  0  0  0
 21 23  1  0  0  0  0
 22 46  1  0  0  0  0
 23 24  1  0  0  0  0
 23 47  1  0  0  0  0
 23 48  1  0  0  0  0
 24 25  1  0  0  0  0
 24 49  1  0  0  0  0
 24 50  1  0  0  0  0
 25 26  1  0  0  0  0
 26 27  1  0  0  0  0
 26 51  1  0  0  0  0
 27 52  1  0  0  0  0
 27 53  1  0  0  0  0
 27 54  1  0  0  0  0
M  END
> <s_m_source_file>
AV-unprocessed.smi

> <i_m_source_file_index>
197

> <i_lp_mmshare_version>
43012

> <i_f3d_flags>
0

> <s_epik_input>
W0NIM11PW0NIMl1bQ0gyXVtDQEBIXTFbQ0gyXU9bQ0gyXVtDSDJdTjFjKG5bY0hdbjIpYyhjMjMpbltjSF1uM1tDSDJdW0NAQF00KFtPSF0pW0NIMl1bQ0gyXU9bQ0BIXTRbQ0gzXQ==

> <s_epik_cmdline>
J2VwaWtfcHl0aG9uJywgJy1waCcsICc3LjAnLCAnLXRuJywgJzgnLCAnLW1hJywgJzIwMCcsICctbWV0YWxfYmluZGluZycsICctaW1hZScsICc8aW5maWxlLm1hZT4nLCAnLW9tYWUnLCAnPG91dGZpbGUubWFlPic=

> <r_lp_tautomer_probability>
1

> <r_epik_Ionization_Penalty>
0.000106218

> <r_epik_Ionization_Penalty_Charging>
0

> <r_epik_Ionization_Penalty_Neutral>
0.000106218

> <r_epik_State_Penalty>
-0

> <r_epik_Charging_Adjusted_Penalty>
0

> <i_epik_Tot_Q>
0

> <i_epik_Tot_abs_Q>
0

> <r_epik_Metal_State_Penalty>
-0

> <b_epik_Metal_Only>
0

> <s_lp_Force_Field>
OPLS_2005

> <r_lp_Energy>
42.2513

> <b_lp_Chiralities_Consistent>
1

> <s_lp_Variant>
AV-unprocessed.smi:197-3

> <Gold.Version>
5.8.1

> <Gold.Id.Protein>
6NUR|6NUR_protein|mol2

> <Gold.PLP.Fitness>
39.4467

> <Gold.PLP.PLP>
-35.7167

> <Gold.PLP.part.hbond>
-3.7092

> <Gold.PLP.part.metal>
0.0000

> <Gold.PLP.part.buried>
-0.1514

> <Gold.PLP.part.nonpolar>
-31.2488

> <Gold.PLP.part.repulsive>
0.0359

> <Gold.PLP.ligand.clash>
0.0024

> <Gold.PLP.ligand.torsion>
1.6381

> <Gold.PLP.Chemscore.Hbond>
2.2190

> <Gold.PLP.Chemscore.CHOScore>
0.0000

> <Gold.PLP.Chemscore.Metal>
0.0000

> <Gold.Chemscore.Hbonds>
donor molecule, donor type, donor heavy atom, donor atom, acceptor molecule, acceptor atom, score
      L1  H    22    46       P1  7948  1.00
      P1  H  6896  6908       L1    12  0.42
      P1  H  7997  8010       L1    17  0.79

> <Gold.PLP.Chemscore.Internal.Correction>
0.3516

> <Gold.Rescore>
     Score         DG    S(hbond)    S(metal)    S(lipo)     H(rot)  DE(clash)    DE(int)     intcor
     12.01     -14.41       1.84        0.00      85.79       2.84       0.51       1.89       ----

> <Gold.Chemscore.Fitness>
12.0059

> <Gold.Chemscore.DG>
-14.4082

> <Gold.Chemscore.ZeroCoef>
-5.4800

> <Gold.Chemscore.Hbond>
1.8414

> <Gold.Chemscore.Metal>
0.0000

> <Gold.Chemscore.Lipo>
85.7903

> <Gold.Chemscore.Internal_Hbond>
0.0000

> <Gold.Chemscore.DEClash>
0.5124

> <Gold.Chemscore.DEInternal>
1.8900

> <Gold.Chemscore.Rot>
2.8358

> <Gold.Chemscore.Internal.Correction>
   9.000000E+99

> <Gold.Chemscore.Hbonds>
donor molecule, donor type, donor heavy atom, donor atom, acceptor molecule, acceptor atom, score
      L1  H    22    46       P1  7948  0.97
      P1  H  6896  6908       L1    12  0.02
      P1  H  7997  8010       L1    17  0.13

> <Gold.Chemscore.Hbond.Weighted>
-6.1503

> <Gold.Chemscore.Metal.Weighted>
-0.0000

> <Gold.Chemscore.Lipo.Weighted>
-10.0375

> <Gold.Chemscore.Internal_Hbond.Weighted>
0.0000

> <Gold.Chemscore.DEClash.Weighted>
0.5124

> <Gold.Chemscore.DEInternal.Weighted>
1.8900

> <Gold.Chemscore.Rot.Weighted>
7.2596

> <Gold.Chemscore.Internal.Correction.Weighted>
   9.000000E+99

> <Gold.Protein.RotatedTorsions>
[ 6907 6896 6895 6894 ] final -106.26 input  -60.11 | X-H torsion
[ 7974 7965 7964 7962 ] final  151.11 input  175.53 | X-H torsion
[ 8008 7997 7996 7995 ] final   87.19 input   59.86 | X-H torsion
[ 10167 10162 10161 10158 ] final  133.60 input  -65.29 | X-H torsion
[ 10718 10713 10712 10709 ] final  137.30 input   66.30 | X-H torsion
[ 10763 10752 10751 10750 ] final  126.54 input  -60.55 | X-H torsion
[ 11005 11000 10999 10996 ] final  -35.80 input  -57.11 | X-H torsion

> <Gold.Protein.ActiveResidues>
 VAL166  LYS551  ARG553  GLY616  TRP617  ASP618  TYR619  PRO620  LYS621  CYS622 
 ASP623  PHE694  ASN695  SER759  ASP760  ASP761  ALA762  ILE779  LEU786  VAL792 
 PHE793  MET794  SER795  GLU796  ALA797  LYS798  CYS799  TRP800  GLU811  SER814 

> <Gold.Protein.RotatedAtoms>
  150.7379  134.0003  159.3635 H   0  0  0  0  0  0  0  0  0  0  0  0  # atno 6907 bound_to 6896
  151.7957  135.0721  160.0403 H   0  0  0  0  0  0  0  0  0  0  0  0  # atno 6908 bound_to 6896
  152.3176  133.5783  159.5759 H   0  0  0  0  0  0  0  0  0  0  0  0  # atno 6909 bound_to 6896
  144.8315  139.6496  143.6056 H   0  0  0  0  0  0  0  0  0  0  0  0  # atno 7974 bound_to 7965
  155.9723  140.3384  155.6586 H   0  0  0  0  0  0  0  0  0  0  0  0  # atno 8008 bound_to 7997
  155.6659  140.0721  157.2556 H   0  0  0  0  0  0  0  0  0  0  0  0  # atno 8009 bound_to 7997
  154.4169  140.1700  156.1814 H   0  0  0  0  0  0  0  0  0  0  0  0  # atno 8010 bound_to 7997
  139.5290  144.6608  151.5020 H   0  0  0  0  0  0  0  0  0  0  0  0  # atno 10167 bound_to 10162
  157.4376  131.1054  151.0180 H   0  0  0  0  0  0  0  0  0  0  0  0  # atno 10718 bound_to 10713
  153.6949  135.3293  155.3211 H   0  0  0  0  0  0  0  0  0  0  0  0  # atno 10763 bound_to 10752
  154.8429  135.4440  154.1470 H   0  0  0  0  0  0  0  0  0  0  0  0  # atno 10764 bound_to 10752
  153.2522  135.6982  153.7745 H   0  0  0  0  0  0  0  0  0  0  0  0  # atno 10765 bound_to 10752
  140.9824  133.7049  156.1707 H   0  0  0  0  0  0  0  0  0  0  0  0  # atno 11005 bound_to 11000
  146.2618  139.6428  142.9357 LP  0  0  0  0  0  0  0  0  0  0  0  0  # atno 17320 bound_to 7965
  145.4884  141.0438  143.2606 LP  0  0  0  0  0  0  0  0  0  0  0  0  # atno 17321 bound_to 7965
  140.6455  143.8803  150.6733 LP  0  0  0  0  0  0  0  0  0  0  0  0  # atno 17342 bound_to 10162
  140.2151  143.3852  152.1687 LP  0  0  0  0  0  0  0  0  0  0  0  0  # atno 17343 bound_to 10162
  157.1055  130.5999  149.5470 LP  0  0  0  0  0  0  0  0  0  0  0  0  # atno 17370 bound_to 10713
  155.9936  130.4998  150.7388 LP  0  0  0  0  0  0  0  0  0  0  0  0  # atno 17371 bound_to 10713
  140.7166  134.4404  157.5578 LP  0  0  0  0  0  0  0  0  0  0  0  0  # atno 17394 bound_to 11000
  139.8956  134.8679  156.2125 LP  0  0  0  0  0  0  0  0  0  0  0  0  # atno 17395 bound_to 11000

$$$$
