AV-unprocessed.smi:811|AV-procd|sdf|3811|dock3
  -GOLD-   22720 1253D 1   1.00000     0.00000
 Structure written by MMmdl.
 46 48  0  0  0  0  0  0  0  0  2 V2000
  144.4081  134.9600  150.4532 C   0  0  0  0  0  0  0  0  0  0  0  0
  144.6435  136.3190  150.9823 N   0  3  1  0  0  0  0  0  0  0  0  0
  144.0402  136.5789  152.3108 C   0  0  0  0  0  0  0  0  0  0  0  0
  145.0225  137.4835  153.0746 C   0  0  0  0  0  0  0  0  0  0  0  0
  146.0585  137.8947  152.0255 C   0  0  1  0  0  0  0  0  0  0  0  0
  147.3859  138.1693  152.5653 N   0  0  0  0  0  0  0  0  0  0  0  0
  147.6334  139.0186  153.5720 C   0  0  0  0  0  0  0  0  0  0  0  0
  146.7513  139.6442  154.1596 O   0  0  0  0  0  0  0  0  0  0  0  0
  148.9462  139.0725  153.8562 N   0  0  0  0  0  0  0  0  0  0  0  0
  149.6057  139.8934  154.8106 C   0  0  0  0  0  0  0  0  0  0  0  0
  150.9724  139.6608  155.0583 C   0  0  0  0  0  0  0  0  0  0  0  0
  151.6533  140.4747  155.9833 C   0  0  0  0  0  0  0  0  0  0  0  0
  150.9504  141.5146  156.6363 C   0  0  0  0  0  0  0  0  0  0  0  0
  151.6110  142.3462  157.5673 N   0  0  0  0  0  0  0  0  0  0  0  0
  151.5231  141.9289  158.9647 C   0  0  0  0  0  0  0  0  0  0  0  0
  152.5178  142.7255  159.8270 C   0  0  0  0  0  0  0  0  0  0  0  0
  152.3007  144.1215  159.6509 O   0  0  0  0  0  0  0  0  0  0  0  0
  152.5067  144.5216  158.3004 C   0  0  0  0  0  0  0  0  0  0  0  0
  151.5069  143.7934  157.3867 C   0  0  0  0  0  0  0  0  0  0  0  0
  149.6401  141.7508  156.3812 N   0  0  0  0  0  0  0  0  0  0  0  0
  148.9895  140.9660  155.4972 C   0  0  0  0  0  0  0  0  0  0  0  0
  146.0637  136.7005  151.0763 C   0  0  0  0  0  0  0  0  0  0  0  0
  144.8551  134.2021  151.0980 H   0  0  0  0  0  0  0  0  0  0  0  0
  144.8395  134.8602  149.4567 H   0  0  0  0  0  0  0  0  0  0  0  0
  143.3385  134.7608  150.3797 H   0  0  0  0  0  0  0  0  0  0  0  0
  143.0723  137.0628  152.1767 H   0  0  0  0  0  0  0  0  0  0  0  0
  143.8748  135.6529  152.8635 H   0  0  0  0  0  0  0  0  0  0  0  0
  144.5311  138.3442  153.5299 H   0  0  0  0  0  0  0  0  0  0  0  0
  145.4974  136.9124  153.8742 H   0  0  0  0  0  0  0  0  0  0  0  0
  145.6935  138.7690  151.4816 H   0  0  0  0  0  0  0  0  0  0  0  0
  148.1662  137.6884  152.1417 H   0  0  0  0  0  0  0  0  0  0  0  0
  149.5403  138.4278  153.3557 H   0  0  0  0  0  0  0  0  0  0  0  0
  151.4976  138.8673  154.5468 H   0  0  0  0  0  0  0  0  0  0  0  0
  152.7036  140.3036  156.1660 H   0  0  0  0  0  0  0  0  0  0  0  0
  150.5050  142.0983  159.3178 H   0  0  0  0  0  0  0  0  0  0  0  0
  151.7266  140.8657  159.0823 H   0  0  0  0  0  0  0  0  0  0  0  0
  152.3839  142.4769  160.8798 H   0  0  0  0  0  0  0  0  0  0  0  0
  153.5469  142.4713  159.5685 H   0  0  0  0  0  0  0  0  0  0  0  0
  152.3681  145.6000  158.2236 H   0  0  0  0  0  0  0  0  0  0  0  0
  153.5343  144.3107  157.9996 H   0  0  0  0  0  0  0  0  0  0  0  0
  151.7075  144.0598  156.3481 H   0  0  0  0  0  0  0  0  0  0  0  0
  150.4896  144.1142  157.6158 H   0  0  0  0  0  0  0  0  0  0  0  0
  147.9579  141.2344  155.3312 H   0  0  0  0  0  0  0  0  0  0  0  0
  146.6410  135.8762  151.5002 H   0  0  0  0  0  0  0  0  0  0  0  0
  146.4799  136.9428  150.0978 H   0  0  0  0  0  0  0  0  0  0  0  0
  144.2150  136.9741  150.3436 H   0  0  0  0  0  0  0  0  0  0  0  0
  1  2  1  0  0  0  0
  1 23  1  0  0  0  0
  1 24  1  0  0  0  0
  1 25  1  0  0  0  0
  2 22  1  0  0  0  0
  2  3  1  0  0  0  0
  2 46  1  0  0  0  0
  3  4  1  0  0  0  0
  3 26  1  0  0  0  0
  3 27  1  0  0  0  0
  4  5  1  0  0  0  0
  4 28  1  0  0  0  0
  4 29  1  0  0  0  0
  5  6  1  0  0  0  0
  5 22  1  0  0  0  0
  5 30  1  0  0  0  0
  6  7  1  0  0  0  0
  6 31  1  0  0  0  0
  7  8  2  0  0  0  0
  7  9  1  0  0  0  0
  9 10  1  0  0  0  0
  9 32  1  0  0  0  0
 10 21  1  0  0  0  0
 10 11  2  0  0  0  0
 11 12  1  0  0  0  0
 11 33  1  0  0  0  0
 12 13  2  0  0  0  0
 12 34  1  0  0  0  0
 13 14  1  0  0  0  0
 13 20  1  0  0  0  0
 14 19  1  0  0  0  0
 14 15  1  0  0  0  0
 15 16  1  0  0  0  0
 15 35  1  0  0  0  0
 15 36  1  0  0  0  0
 16 17  1  0  0  0  0
 16 37  1  0  0  0  0
 16 38  1  0  0  0  0
 17 18  1  0  0  0  0
 18 19  1  0  0  0  0
 18 39  1  0  0  0  0
 18 40  1  0  0  0  0
 19 41  1  0  0  0  0
 19 42  1  0  0  0  0
 20 21  2  0  0  0  0
 21 43  1  0  0  0  0
 22 44  1  0  0  0  0
 22 45  1  0  0  0  0
M  CHG  1   2   1
M  END
> <s_m_source_file>
AV-unprocessed.smi

> <i_m_source_file_index>
811

> <i_lp_mmshare_version>
43012

> <i_f3d_flags>
0

> <s_epik_input>
W0NIM11OMVtDSDJdW0NIMl1bQ0BIXShbQ0gyXTEpW05IXUMoPU8pW05IXWMyW2NIXVtjSF1jKG5bY0hdMilOM1tDSDJdW0NIMl1PW0NIMl1bQ0gyXTM=

> <s_epik_cmdline>
J2VwaWtfcHl0aG9uJywgJy1waCcsICc3LjAnLCAnLXRuJywgJzgnLCAnLW1hJywgJzIwMCcsICctbWV0YWxfYmluZGluZycsICctaW1hZScsICc8aW5maWxlLm1hZT4nLCAnLW9tYWUnLCAnPG91dGZpbGUubWFlPic=

> <r_lp_tautomer_probability>
1

> <r_epik_Ionization_Penalty>
0.00503422

> <r_epik_Ionization_Penalty_Charging>
0.00366104

> <r_epik_Ionization_Penalty_Neutral>
0.00137318

> <r_epik_State_Penalty>
-0

> <r_epik_Charging_Adjusted_Penalty>
0.00366104

> <i_epik_Tot_Q>
1

> <i_epik_Tot_abs_Q>
1

> <r_epik_Metal_State_Penalty>
-0

> <b_epik_Metal_Only>
0

> <s_lp_Force_Field>
OPLS_2005

> <r_lp_Energy>
42.4701

> <b_lp_Chiralities_Consistent>
1

> <s_lp_Variant>
AV-unprocessed.smi:811-1

> <Gold.Version>
5.8.1

> <Gold.Id.Protein>
6NUR|6NUR_protein|mol2

> <Gold.PLP.Fitness>
47.2501

> <Gold.PLP.PLP>
-41.9898

> <Gold.PLP.part.hbond>
-3.4615

> <Gold.PLP.part.metal>
0.0000

> <Gold.PLP.part.buried>
-0.3853

> <Gold.PLP.part.nonpolar>
-39.0016

> <Gold.PLP.part.repulsive>
0.4861

> <Gold.PLP.ligand.clash>
0.0000

> <Gold.PLP.ligand.torsion>
0.5312

> <Gold.PLP.Chemscore.Hbond>
1.9920

> <Gold.PLP.Chemscore.CHOScore>
0.0000

> <Gold.PLP.Chemscore.Metal>
0.0000

> <Gold.Chemscore.Hbonds>
donor molecule, donor type, donor heavy atom, donor atom, acceptor molecule, acceptor atom, score
      L1  H     2    46       P1 10171  1.00
      L1  H     6    31       P1  7948  0.99

> <Gold.PLP.Chemscore.Internal.Correction>
0.3467

> <Gold.Rescore>
     Score         DG    S(hbond)    S(metal)    S(lipo)     H(rot)  DE(clash)    DE(int)     intcor
     18.21     -20.91       1.95        0.00     103.16       1.23       1.06       1.64       ----

> <Gold.Chemscore.Fitness>
18.2120

> <Gold.Chemscore.DG>
-20.9077

> <Gold.Chemscore.ZeroCoef>
-5.4800

> <Gold.Chemscore.Hbond>
1.9476

> <Gold.Chemscore.Metal>
0.0000

> <Gold.Chemscore.Lipo>
103.1629

> <Gold.Chemscore.Internal_Hbond>
0.0000

> <Gold.Chemscore.DEClash>
1.0556

> <Gold.Chemscore.DEInternal>
1.6401

> <Gold.Chemscore.Rot>
1.2295

> <Gold.Chemscore.Internal.Correction>
   9.000000E+99

> <Gold.Chemscore.Hbonds>
donor molecule, donor type, donor heavy atom, donor atom, acceptor molecule, acceptor atom, score
      L1  H     2    46       P1 10171  0.97
      L1  H     6    31       P1  7948  0.93

> <Gold.Chemscore.Hbond.Weighted>
-6.5051

> <Gold.Chemscore.Metal.Weighted>
-0.0000

> <Gold.Chemscore.Lipo.Weighted>
-12.0701

> <Gold.Chemscore.Internal_Hbond.Weighted>
0.0000

> <Gold.Chemscore.DEClash.Weighted>
1.0556

> <Gold.Chemscore.DEInternal.Weighted>
1.6401

> <Gold.Chemscore.Rot.Weighted>
3.1474

> <Gold.Chemscore.Internal.Correction.Weighted>
   9.000000E+99

> <Gold.Protein.RotatedTorsions>
[ 6907 6896 6895 6894 ] final   34.63 input  -60.11 | X-H torsion
[ 7974 7965 7964 7962 ] final -123.88 input  175.53 | X-H torsion
[ 8008 7997 7996 7995 ] final -167.97 input   59.86 | X-H torsion
[ 10167 10162 10161 10158 ] final   37.07 input  -65.29 | X-H torsion
[ 10718 10713 10712 10709 ] final -149.69 input   66.30 | X-H torsion
[ 10763 10752 10751 10750 ] final   -3.88 input  -60.55 | X-H torsion
[ 11005 11000 10999 10996 ] final  134.14 input  -57.11 | X-H torsion

> <Gold.Protein.ActiveResidues>
 VAL166  LYS551  ARG553  GLY616  TRP617  ASP618  TYR619  PRO620  LYS621  CYS622 
 ASP623  PHE694  ASN695  SER759  ASP760  ASP761  ALA762  ILE779  LEU786  VAL792 
 PHE793  MET794  SER795  GLU796  ALA797  LYS798  CYS799  TRP800  GLU811  SER814 

> <Gold.Protein.RotatedAtoms>
  152.1051  134.9314  160.0568 H   0  0  0  0  0  0  0  0  0  0  0  0  # atno 6907 bound_to 6896
  152.0513  133.4015  159.4386 H   0  0  0  0  0  0  0  0  0  0  0  0  # atno 6908 bound_to 6896
  150.6841  134.3225  159.4836 H   0  0  0  0  0  0  0  0  0  0  0  0  # atno 6909 bound_to 6896
  145.0140  140.7930  143.4421 H   0  0  0  0  0  0  0  0  0  0  0  0  # atno 7974 bound_to 7965
  155.8850  140.1015  157.1459 H   0  0  0  0  0  0  0  0  0  0  0  0  # atno 8008 bound_to 7997
  154.4009  140.1322  156.4307 H   0  0  0  0  0  0  0  0  0  0  0  0  # atno 8009 bound_to 7997
  155.7600  140.3463  155.5195 H   0  0  0  0  0  0  0  0  0  0  0  0  # atno 8010 bound_to 7997
  140.4067  144.1649  150.6136 H   0  0  0  0  0  0  0  0  0  0  0  0  # atno 10167 bound_to 10162
  156.4364  130.8100  151.2329 H   0  0  0  0  0  0  0  0  0  0  0  0  # atno 10718 bound_to 10713
  153.3773  135.6997  153.6592 H   0  0  0  0  0  0  0  0  0  0  0  0  # atno 10763 bound_to 10752
  153.5217  135.3610  155.2635 H   0  0  0  0  0  0  0  0  0  0  0  0  # atno 10764 bound_to 10752
  154.8688  135.4159  154.3064 H   0  0  0  0  0  0  0  0  0  0  0  0  # atno 10765 bound_to 10752
  139.9896  134.9520  156.9824 H   0  0  0  0  0  0  0  0  0  0  0  0  # atno 11005 bound_to 11000
  145.1985  139.2264  143.5205 LP  0  0  0  0  0  0  0  0  0  0  0  0  # atno 17320 bound_to 7965
  146.3475  140.1797  142.8589 LP  0  0  0  0  0  0  0  0  0  0  0  0  # atno 17321 bound_to 7965
  140.4682  143.2423  151.9126 LP  0  0  0  0  0  0  0  0  0  0  0  0  # atno 17342 bound_to 10162
  139.4783  144.5397  151.8545 LP  0  0  0  0  0  0  0  0  0  0  0  0  # atno 17343 bound_to 10162
  157.7507  131.0182  150.3616 LP  0  0  0  0  0  0  0  0  0  0  0  0  # atno 17370 bound_to 10713
  156.3964  130.3907  149.6991 LP  0  0  0  0  0  0  0  0  0  0  0  0  # atno 17371 bound_to 10713
  140.4935  134.1169  155.7237 LP  0  0  0  0  0  0  0  0  0  0  0  0  # atno 17394 bound_to 11000
  141.1554  133.8892  157.1990 LP  0  0  0  0  0  0  0  0  0  0  0  0  # atno 17395 bound_to 11000

$$$$
