AV-unprocessed.smi:2346|AV-procd|sdf|9366|dock4
  -GOLD-   2272012593D 1   1.00000     0.00000
 Structure written by MMmdl.
 44 46  0  0  0  0  0  0  0  0  1 V2000
  147.8077  136.3514  162.5820 C   0  0  0  0  0  0  0  0  0  0  0  0
  148.3711  136.9229  161.4112 O   0  0  0  0  0  0  0  0  0  0  0  0
  148.6724  136.0903  160.3527 C   0  0  0  0  0  0  0  0  0  0  0  0
  148.2979  134.7240  160.2940 C   0  0  0  0  0  0  0  0  0  0  0  0
  148.6441  133.9350  159.1792 C   0  0  0  0  0  0  0  0  0  0  0  0
  148.2558  132.5354  159.1278 C   0  0  0  0  0  0  0  0  0  0  0  0
  147.9469  131.4212  159.0870 N   0  0  0  0  0  0  0  0  0  0  0  0
  149.3669  134.5050  158.1146 C   0  0  0  0  0  0  0  0  0  0  0  0
  149.7441  135.8592  158.1647 C   0  0  0  0  0  0  0  0  0  0  0  0
  149.4008  136.6587  159.2830 C   0  0  0  0  0  0  0  0  0  0  0  0
  149.7336  137.9901  159.4010 O   0  0  0  0  0  0  0  0  0  0  0  0
  150.2048  138.6857  158.2556 C   0  0  0  0  0  0  0  0  0  0  0  0
  151.4147  139.5378  158.6658 C   0  0  0  0  0  0  0  0  0  0  0  0
  151.4190  140.8327  157.9981 N   0  0  0  0  0  0  0  0  0  0  0  0
  151.2226  141.1061  156.6825 C   0  0  0  0  0  0  0  0  0  0  0  0
  150.9385  140.0309  155.6700 C   0  0  1  0  0  0  0  0  0  0  0  0
  149.6612  140.3207  154.8707 C   0  0  0  0  0  0  0  0  0  0  0  0
  152.0051  139.8600  154.7584 O   0  0  0  0  0  0  0  0  0  0  0  0
  151.2663  142.3987  156.3497 N   0  0  0  0  0  0  0  0  0  0  0  0
  151.5461  143.0162  157.5525 C   0  0  0  0  0  0  0  0  0  0  0  0
  151.7347  144.3823  157.8616 C   0  0  0  0  0  0  0  0  0  0  0  0
  152.0239  144.7817  159.1829 C   0  0  0  0  0  0  0  0  0  0  0  0
  152.1253  143.8236  160.2122 C   0  0  0  0  0  0  0  0  0  0  0  0
  151.9347  142.4584  159.9263 C   0  0  0  0  0  0  0  0  0  0  0  0
  151.6490  142.0642  158.6051 C   0  0  0  0  0  0  0  0  0  0  0  0
  147.6431  137.1367  163.3197 H   0  0  0  0  0  0  0  0  0  0  0  0
  148.4773  135.6152  163.0286 H   0  0  0  0  0  0  0  0  0  0  0  0
  146.8434  135.8861  162.3741 H   0  0  0  0  0  0  0  0  0  0  0  0
  147.7435  134.2626  161.0980 H   0  0  0  0  0  0  0  0  0  0  0  0
  149.6358  133.9090  157.2540 H   0  0  0  0  0  0  0  0  0  0  0  0
  150.2947  136.2643  157.3295 H   0  0  0  0  0  0  0  0  0  0  0  0
  150.4982  137.9802  157.4766 H   0  0  0  0  0  0  0  0  0  0  0  0
  149.4204  139.3282  157.8539 H   0  0  0  0  0  0  0  0  0  0  0  0
  151.4407  139.6814  159.7458 H   0  0  0  0  0  0  0  0  0  0  0  0
  152.3376  139.0163  158.4098 H   0  0  0  0  0  0  0  0  0  0  0  0
  150.8292  139.0748  156.1802 H   0  0  0  0  0  0  0  0  0  0  0  0
  148.7982  140.4072  155.5315 H   0  0  0  0  0  0  0  0  0  0  0  0
  149.4518  139.5216  154.1589 H   0  0  0  0  0  0  0  0  0  0  0  0
  149.7453  141.2533  154.3116 H   0  0  0  0  0  0  0  0  0  0  0  0
  152.3199  138.9719  154.8343 H   0  0  0  0  0  0  0  0  0  0  0  0
  151.6606  145.1235  157.0798 H   0  0  0  0  0  0  0  0  0  0  0  0
  152.1698  145.8281  159.4075 H   0  0  0  0  0  0  0  0  0  0  0  0
  152.3498  144.1369  161.2212 H   0  0  0  0  0  0  0  0  0  0  0  0
  152.0161  141.7218  160.7118 H   0  0  0  0  0  0  0  0  0  0  0  0
  1  2  1  0  0  0  0
  1 26  1  0  0  0  0
  1 27  1  0  0  0  0
  1 28  1  0  0  0  0
  2  3  1  0  0  0  0
  3 10  1  0  0  0  0
  3  4  2  0  0  0  0
  4  5  1  0  0  0  0
  4 29  1  0  0  0  0
  5  6  1  0  0  0  0
  5  8  2  0  0  0  0
  6  7  3  0  0  0  0
  8  9  1  0  0  0  0
  8 30  1  0  0  0  0
  9 10  2  0  0  0  0
  9 31  1  0  0  0  0
 10 11  1  0  0  0  0
 11 12  1  0  0  0  0
 12 13  1  0  0  0  0
 12 32  1  0  0  0  0
 12 33  1  0  0  0  0
 13 14  1  0  0  0  0
 13 34  1  0  0  0  0
 13 35  1  0  0  0  0
 14 25  1  0  0  0  0
 14 15  1  0  0  0  0
 15 16  1  0  0  0  0
 15 19  2  0  0  0  0
 16 17  1  0  0  0  0
 16 18  1  0  0  0  0
 16 36  1  0  0  0  0
 17 37  1  0  0  0  0
 17 38  1  0  0  0  0
 17 39  1  0  0  0  0
 18 40  1  0  0  0  0
 19 20  1  0  0  0  0
 20 25  2  0  0  0  0
 20 21  1  0  0  0  0
 21 22  2  0  0  0  0
 21 41  1  0  0  0  0
 22 23  1  0  0  0  0
 22 42  1  0  0  0  0
 23 24  2  0  0  0  0
 23 43  1  0  0  0  0
 24 25  1  0  0  0  0
 24 44  1  0  0  0  0
M  END
> <s_m_source_file>
AV-unprocessed.smi

> <i_m_source_file_index>
2346

> <i_lp_mmshare_version>
43012

> <i_f3d_flags>
0

> <s_epik_input>
W0NIM11PYzFbY0hdYyhDI04pW2NIXVtjSF1jMU9bQ0gyXVtDSDJdbihjKG4yKVtDQEhdKFtDSDNdKVtPSF0pYyhjMjMpW2NIXVtjSF1bY0hdW2NIXTM=

> <s_epik_cmdline>
J2VwaWtfcHl0aG9uJywgJy1waCcsICc3LjAnLCAnLXRuJywgJzgnLCAnLW1hJywgJzIwMCcsICctbWV0YWxfYmluZGluZycsICctaW1hZScsICc8aW5maWxlLm1hZT4nLCAnLW9tYWUnLCAnPG91dGZpbGUubWFlPic=

> <r_epik_Ionization_Penalty>
0.0419826

> <r_epik_Ionization_Penalty_Charging>
0

> <r_epik_Ionization_Penalty_Neutral>
0.0419826

> <r_epik_State_Penalty>
0.0354317

> <r_epik_Charging_Adjusted_Penalty>
0.0354317

> <i_epik_Tot_Q>
0

> <i_epik_Tot_abs_Q>
0

> <r_epik_Metal_State_Penalty>
3.65115e-05

> <b_epik_Metal_Only>
0

> <s_lp_Force_Field>
OPLS_2005

> <r_lp_Energy>
17.2355

> <b_lp_Chiralities_Consistent>
1

> <s_lp_Variant>
AV-unprocessed.smi:2346-2

> <Gold.Version>
5.8.1

> <Gold.Id.Protein>
6NUR|6NUR_protein|mol2

> <Gold.PLP.Fitness>
53.0254

> <Gold.PLP.PLP>
-47.1341

> <Gold.PLP.part.hbond>
-4.7529

> <Gold.PLP.part.metal>
0.0000

> <Gold.PLP.part.buried>
-1.8567

> <Gold.PLP.part.nonpolar>
-40.2786

> <Gold.PLP.part.repulsive>
0.1071

> <Gold.PLP.ligand.clash>
0.0000

> <Gold.PLP.ligand.torsion>
1.0890

> <Gold.PLP.Chemscore.Hbond>
2.6552

> <Gold.PLP.Chemscore.CHOScore>
0.0000

> <Gold.PLP.Chemscore.Metal>
0.0000

> <Gold.Chemscore.Hbonds>
donor molecule, donor type, donor heavy atom, donor atom, acceptor molecule, acceptor atom, score
      P1  H  6931  6943       L1     2  1.00
      P1  H  7989  7998       L1    18  0.88

> <Gold.PLP.Chemscore.Internal.Correction>
0.1036

> <Gold.Rescore>
     Score         DG    S(hbond)    S(metal)    S(lipo)     H(rot)  DE(clash)    DE(int)     intcor
     17.43     -19.58       1.91        0.00     122.20       2.57       0.22       1.93       ----

> <Gold.Chemscore.Fitness>
17.4274

> <Gold.Chemscore.DG>
-19.5783

> <Gold.Chemscore.ZeroCoef>
-5.4800

> <Gold.Chemscore.Hbond>
1.9087

> <Gold.Chemscore.Metal>
0.0000

> <Gold.Chemscore.Lipo>
122.2006

> <Gold.Chemscore.Internal_Hbond>
0.0000

> <Gold.Chemscore.DEClash>
0.2167

> <Gold.Chemscore.DEInternal>
1.9341

> <Gold.Chemscore.Rot>
2.5681

> <Gold.Chemscore.Internal.Correction>
   9.000000E+99

> <Gold.Chemscore.Hbonds>
donor molecule, donor type, donor heavy atom, donor atom, acceptor molecule, acceptor atom, score
      P1  H  6931  6943       L1     2  0.43
      P1  H  6934  6947       L1     2  0.02
      P1  H  7989  7998       L1    18  0.48

> <Gold.Chemscore.Hbond.Weighted>
-6.3751

> <Gold.Chemscore.Metal.Weighted>
-0.0000

> <Gold.Chemscore.Lipo.Weighted>
-14.2975

> <Gold.Chemscore.Internal_Hbond.Weighted>
0.0000

> <Gold.Chemscore.DEClash.Weighted>
0.2167

> <Gold.Chemscore.DEInternal.Weighted>
1.9341

> <Gold.Chemscore.Rot.Weighted>
6.5743

> <Gold.Chemscore.Internal.Correction.Weighted>
   9.000000E+99

> <Gold.Protein.RotatedTorsions>
[ 6907 6896 6895 6894 ] final  140.46 input  -60.11 | X-H torsion
[ 7974 7965 7964 7962 ] final  -91.45 input  175.53 | X-H torsion
[ 8008 7997 7996 7995 ] final   19.57 input   59.86 | X-H torsion
[ 10167 10162 10161 10158 ] final   54.07 input  -65.29 | X-H torsion
[ 10718 10713 10712 10709 ] final -126.53 input   66.30 | X-H torsion
[ 10763 10752 10751 10750 ] final    9.21 input  -60.55 | X-H torsion
[ 11005 11000 10999 10996 ] final -114.79 input  -57.11 | X-H torsion

> <Gold.Protein.ActiveResidues>
 VAL166  LYS551  ARG553  GLY616  TRP617  ASP618  TYR619  PRO620  LYS621  CYS622 
 ASP623  PHE694  ASN695  SER759  ASP760  ASP761  ALA762  ILE779  LEU786  VAL792 
 PHE793  MET794  SER795  GLU796  ALA797  LYS798  CYS799  TRP800  GLU811  SER814 

> <Gold.Protein.RotatedAtoms>
  152.2428  133.5149  159.5279 H   0  0  0  0  0  0  0  0  0  0  0  0  # atno 6907 bound_to 6896
  150.7069  134.1066  159.3994 H   0  0  0  0  0  0  0  0  0  0  0  0  # atno 6908 bound_to 6896
  151.8987  135.0387  160.0555 H   0  0  0  0  0  0  0  0  0  0  0  0  # atno 6909 bound_to 6896
  145.4129  140.9546  143.2224 H   0  0  0  0  0  0  0  0  0  0  0  0  # atno 7974 bound_to 7965
  154.9227  140.3029  155.5208 H   0  0  0  0  0  0  0  0  0  0  0  0  # atno 8008 bound_to 7997
  156.3009  140.2368  156.4215 H   0  0  0  0  0  0  0  0  0  0  0  0  # atno 8009 bound_to 7997
  154.8314  140.0418  157.1468 H   0  0  0  0  0  0  0  0  0  0  0  0  # atno 8010 bound_to 7997
  140.2341  144.3655  150.6404 H   0  0  0  0  0  0  0  0  0  0  0  0  # atno 10167 bound_to 10162
  156.1773  130.6708  151.0259 H   0  0  0  0  0  0  0  0  0  0  0  0  # atno 10718 bound_to 10713
  153.2166  135.6876  153.8050 H   0  0  0  0  0  0  0  0  0  0  0  0  # atno 10763 bound_to 10752
  153.7264  135.3259  155.3278 H   0  0  0  0  0  0  0  0  0  0  0  0  # atno 10764 bound_to 10752
  154.8249  135.4625  154.0995 H   0  0  0  0  0  0  0  0  0  0  0  0  # atno 10765 bound_to 10752
  141.0529  133.9658  157.2805 H   0  0  0  0  0  0  0  0  0  0  0  0  # atno 11005 bound_to 11000
  144.8297  139.5650  143.6949 LP  0  0  0  0  0  0  0  0  0  0  0  0  # atno 17320 bound_to 7965
  146.2695  139.6602  142.9305 LP  0  0  0  0  0  0  0  0  0  0  0  0  # atno 17321 bound_to 7965
  140.6163  143.2172  151.6785 LP  0  0  0  0  0  0  0  0  0  0  0  0  # atno 17342 bound_to 10162
  139.5100  144.3558  152.0609 LP  0  0  0  0  0  0  0  0  0  0  0  0  # atno 17343 bound_to 10162
  157.6844  131.0829  150.7281 LP  0  0  0  0  0  0  0  0  0  0  0  0  # atno 17370 bound_to 10713
  156.7339  130.4718  149.5493 LP  0  0  0  0  0  0  0  0  0  0  0  0  # atno 17371 bound_to 10713
  139.9365  135.0196  156.8574 LP  0  0  0  0  0  0  0  0  0  0  0  0  # atno 17394 bound_to 11000
  140.6020  134.0163  155.7541 LP  0  0  0  0  0  0  0  0  0  0  0  0  # atno 17395 bound_to 11000

$$$$
