AV-unprocessed.smi:3081|AV-procd|sdf|11740|dock3
  -GOLD-   2272017133D 1   1.00000     0.00000
 Structure written by MMmdl.
 26 27  0  0  0  0  0  0  0  0  2 V2000
  151.6003  137.7820  154.2524 C   0  0  0  0  0  0  0  0  0  0  0  0
  151.6608  139.1085  154.7262 C   0  0  0  0  0  0  0  0  0  0  0  0
  151.6220  139.2751  156.1274 C   0  0  0  0  0  0  0  0  0  0  0  0
  151.6768  140.6581  156.7613 C   0  0  2  0  0  0  0  0  0  0  0  0
  151.5829  140.6006  158.2991 C   0  0  0  0  0  0  0  0  0  0  0  0
  151.6366  142.0164  158.8936 C   0  0  0  0  0  0  0  0  0  0  0  0
  150.5598  142.9175  158.2661 C   0  0  0  0  0  0  0  0  0  0  0  0
  150.6987  142.9503  156.7939 N   0  3  0  0  0  0  0  0  0  0  0  0
  150.6123  141.6092  156.1743 C   0  0  0  0  0  0  0  0  0  0  0  0
  151.5307  138.2145  156.9627 N   0  0  0  0  0  0  0  0  0  0  0  0
  151.4810  137.0036  156.4003 C   0  0  0  0  0  0  0  0  0  0  0  0
  151.5093  136.7297  155.0940 N   0  0  0  0  0  0  0  0  0  0  0  0
  151.6241  137.5650  153.1948 H   0  0  0  0  0  0  0  0  0  0  0  0
  151.7333  139.9454  154.0471 H   0  0  0  0  0  0  0  0  0  0  0  0
  152.6534  141.0786  156.5155 H   0  0  0  0  0  0  0  0  0  0  0  0
  150.6527  140.1179  158.6021 H   0  0  0  0  0  0  0  0  0  0  0  0
  152.3946  139.9957  158.7052 H   0  0  0  0  0  0  0  0  0  0  0  0
  151.5027  141.9719  159.9748 H   0  0  0  0  0  0  0  0  0  0  0  0
  152.6230  142.4495  158.7221 H   0  0  0  0  0  0  0  0  0  0  0  0
  149.5634  142.5572  158.5257 H   0  0  0  0  0  0  0  0  0  0  0  0
  150.6432  143.9326  158.6541 H   0  0  0  0  0  0  0  0  0  0  0  0
  149.9711  143.5358  156.4087 H   0  0  0  0  0  0  0  0  0  0  0  0
  150.7461  141.7099  155.0970 H   0  0  0  0  0  0  0  0  0  0  0  0
  149.6088  141.2125  156.3354 H   0  0  0  0  0  0  0  0  0  0  0  0
  151.4086  136.1605  157.0711 H   0  0  0  0  0  0  0  0  0  0  0  0
  151.5960  143.3536  156.5648 H   0  0  0  0  0  0  0  0  0  0  0  0
  1 12  1  0  0  0  0
  1  2  2  0  0  0  0
  1 13  1  0  0  0  0
  2  3  1  0  0  0  0
  2 14  1  0  0  0  0
  3  4  1  0  0  0  0
  3 10  2  0  0  0  0
  4  9  1  0  0  0  0
  4  5  1  0  0  0  0
  4 15  1  0  0  0  0
  5  6  1  0  0  0  0
  5 16  1  0  0  0  0
  5 17  1  0  0  0  0
  6  7  1  0  0  0  0
  6 18  1  0  0  0  0
  6 19  1  0  0  0  0
  7  8  1  0  0  0  0
  7 20  1  0  0  0  0
  7 21  1  0  0  0  0
  8  9  1  0  0  0  0
  8 22  1  0  0  0  0
  8 26  1  0  0  0  0
  9 23  1  0  0  0  0
  9 24  1  0  0  0  0
 10 11  1  0  0  0  0
 11 12  2  0  0  0  0
 11 25  1  0  0  0  0
M  CHG  1   8   1
M  END
> <s_m_source_file>
AV-unprocessed.smi

> <i_m_source_file_index>
3081

> <i_lp_mmshare_version>
43012

> <i_f3d_flags>
0

> <s_epik_input>
bjFbY0hdbltjSF1bY0hdYzFbQ0BASF0yW0NIMl1bQ0gyXVtDSDJdW05IXVtDSDJdMg==

> <s_epik_cmdline>
J2VwaWtfcHl0aG9uJywgJy1waCcsICc3LjAnLCAnLXRuJywgJzgnLCAnLW1hJywgJzIwMCcsICctbWV0YWxfYmluZGluZycsICctaW1hZScsICc8aW5maWxlLm1hZT4nLCAnLW9tYWUnLCAnPG91dGZpbGUubWFlPic=

> <r_lp_tautomer_probability>
1

> <r_epik_Ionization_Penalty>
0.000373217

> <r_epik_Ionization_Penalty_Charging>
0.000372054

> <r_epik_Ionization_Penalty_Neutral>
1.16293e-06

> <r_epik_State_Penalty>
0.00022692

> <r_epik_Charging_Adjusted_Penalty>
0.000598973

> <i_epik_Tot_Q>
1

> <i_epik_Tot_abs_Q>
1

> <r_epik_Metal_State_Penalty>
-0

> <b_epik_Metal_Only>
0

> <s_epik_Chemistry_Notes>
This compound contains an electron-poor aromatic ring that is susceptible to covalent hydrolysis at low pH, typically resulting in measured values for nitrogen ring protonation that are around two units higher than predicted values.

> <s_lp_Force_Field>
OPLS_2005

> <r_lp_Energy>
7.17513

> <b_lp_Chiralities_Consistent>
1

> <s_lp_Variant>
AV-unprocessed.smi:3081-1

> <Gold.Version>
5.8.1

> <Gold.Id.Protein>
6NUR|6NUR_protein|mol2

> <Gold.PLP.Fitness>
34.0915

> <Gold.PLP.PLP>
-22.1650

> <Gold.PLP.part.hbond>
-2.0000

> <Gold.PLP.part.metal>
0.0000

> <Gold.PLP.part.buried>
-2.6162

> <Gold.PLP.part.nonpolar>
-17.6796

> <Gold.PLP.part.repulsive>
0.1608

> <Gold.PLP.ligand.clash>
0.0000

> <Gold.PLP.ligand.torsion>
0.0548

> <Gold.PLP.Chemscore.Hbond>
3.0000

> <Gold.PLP.Chemscore.CHOScore>
1.0000

> <Gold.PLP.Chemscore.Metal>
0.0000

> <Gold.Chemscore.Hbonds>
donor molecule, donor type, donor heavy atom, donor atom, acceptor molecule, acceptor atom, score
      L1  H     8    22       P1  8028  2.00
      P1  H 10752 10763       L1    12  1.00
      L1  C     1    13       P1  7949  1.00

> <Gold.PLP.Chemscore.Internal.Correction>
0.0361

> <Gold.Rescore>
     Score         DG    S(hbond)    S(metal)    S(lipo)     H(rot)  DE(clash)    DE(int)     intcor
     14.96     -15.38       1.79        0.00      55.41       1.00       0.31       0.10       ----

> <Gold.Chemscore.Fitness>
14.9588

> <Gold.Chemscore.DG>
-15.3750

> <Gold.Chemscore.ZeroCoef>
-5.4800

> <Gold.Chemscore.Hbond>
1.7880

> <Gold.Chemscore.Metal>
0.0000

> <Gold.Chemscore.Lipo>
55.4117

> <Gold.Chemscore.Internal_Hbond>
0.0000

> <Gold.Chemscore.DEClash>
0.3145

> <Gold.Chemscore.DEInternal>
0.1017

> <Gold.Chemscore.Rot>
1.0000

> <Gold.Chemscore.Internal.Correction>
   9.000000E+99

> <Gold.Chemscore.Hbonds>
donor molecule, donor type, donor heavy atom, donor atom, acceptor molecule, acceptor atom, score
      L1  H     8    22       P1  8028  1.00
      P1  H 10752 10763       L1    12  0.29

> <Gold.Chemscore.Hbond.Weighted>
-5.9719

> <Gold.Chemscore.Metal.Weighted>
-0.0000

> <Gold.Chemscore.Lipo.Weighted>
-6.4832

> <Gold.Chemscore.Internal_Hbond.Weighted>
0.0000

> <Gold.Chemscore.DEClash.Weighted>
0.3145

> <Gold.Chemscore.DEInternal.Weighted>
0.1017

> <Gold.Chemscore.Rot.Weighted>
2.5600

> <Gold.Chemscore.Internal.Correction.Weighted>
   9.000000E+99

> <Gold.Protein.RotatedTorsions>
[ 6907 6896 6895 6894 ] final   96.53 input  -60.11 | X-H torsion
[ 7974 7965 7964 7962 ] final   21.29 input  175.53 | X-H torsion
[ 8008 7997 7996 7995 ] final -101.03 input   59.86 | X-H torsion
[ 10167 10162 10161 10158 ] final  -48.24 input  -65.29 | X-H torsion
[ 10718 10713 10712 10709 ] final   38.55 input   66.30 | X-H torsion
[ 10763 10752 10751 10750 ] final   50.25 input  -60.55 | X-H torsion
[ 11005 11000 10999 10996 ] final  158.71 input  -57.11 | X-H torsion

> <Gold.Protein.ActiveResidues>
 VAL166  LYS551  ARG553  GLY616  TRP617  ASP618  TYR619  PRO620  LYS621  CYS622 
 ASP623  PHE694  ASN695  SER759  ASP760  ASP761  ALA762  ILE779  LEU786  VAL792 
 PHE793  MET794  SER795  GLU796  ALA797  LYS798  CYS799  TRP800  GLU811  SER814 

> <Gold.Protein.RotatedAtoms>
  152.5434  134.0873  159.8261 H   0  0  0  0  0  0  0  0  0  0  0  0  # atno 6907 bound_to 6896
  151.0967  133.5267  159.2619 H   0  0  0  0  0  0  0  0  0  0  0  0  # atno 6908 bound_to 6896
  151.2038  135.0462  159.8937 H   0  0  0  0  0  0  0  0  0  0  0  0  # atno 6909 bound_to 6896
  146.2077  139.8047  142.8713 H   0  0  0  0  0  0  0  0  0  0  0  0  # atno 7974 bound_to 7965
  154.8368  140.0437  157.1514 H   0  0  0  0  0  0  0  0  0  0  0  0  # atno 8008 bound_to 7997
  154.9091  140.3011  155.5255 H   0  0  0  0  0  0  0  0  0  0  0  0  # atno 8009 bound_to 7997
  156.2990  140.2361  156.4128 H   0  0  0  0  0  0  0  0  0  0  0  0  # atno 8010 bound_to 7997
  140.6740  143.2748  151.4042 H   0  0  0  0  0  0  0  0  0  0  0  0  # atno 10167 bound_to 10162
  157.3602  130.7645  149.7042 H   0  0  0  0  0  0  0  0  0  0  0  0  # atno 10718 bound_to 10713
  152.9785  135.5885  154.4222 H   0  0  0  0  0  0  0  0  0  0  0  0  # atno 10763 bound_to 10752
  154.3845  135.2767  155.2194 H   0  0  0  0  0  0  0  0  0  0  0  0  # atno 10764 bound_to 10752
  154.4093  135.6085  153.5997 H   0  0  0  0  0  0  0  0  0  0  0  0  # atno 10765 bound_to 10752
  140.1891  134.8420  157.2892 H   0  0  0  0  0  0  0  0  0  0  0  0  # atno 11005 bound_to 11000
  145.3259  141.0255  143.3474 LP  0  0  0  0  0  0  0  0  0  0  0  0  # atno 17320 bound_to 7965
  144.8833  139.4873  143.6712 LP  0  0  0  0  0  0  0  0  0  0  0  0  # atno 17321 bound_to 7965
  139.6022  144.1272  152.2210 LP  0  0  0  0  0  0  0  0  0  0  0  0  # atno 17342 bound_to 10162
  140.0660  144.5818  150.7227 LP  0  0  0  0  0  0  0  0  0  0  0  0  # atno 17343 bound_to 10162
  155.9736  130.4116  150.3989 LP  0  0  0  0  0  0  0  0  0  0  0  0  # atno 17370 bound_to 10713
  157.2065  131.0450  151.2622 LP  0  0  0  0  0  0  0  0  0  0  0  0  # atno 17371 bound_to 10713
  140.2179  134.4058  155.7580 LP  0  0  0  0  0  0  0  0  0  0  0  0  # atno 17394 bound_to 11000
  141.2226  133.7151  156.8444 LP  0  0  0  0  0  0  0  0  0  0  0  0  # atno 17395 bound_to 11000

$$$$
