AV-unprocessed.smi:3116|AV-procd|sdf|11873|dock1
  -GOLD-   2272017253D 1   1.00000     0.00000
 Structure written by MMmdl.
 33 33  0  0  0  0  0  0  0  0  1 V2000
  148.7211  138.1750  156.4748 C   0  0  0  0  0  0  0  0  0  0  0  0
  149.1495  139.6456  156.2911 C   0  0  1  0  0  0  0  0  0  0  0  0
  150.1139  140.0524  157.3249 N   0  0  0  0  0  0  0  0  0  0  0  0
  150.2906  141.5001  157.4339 C   0  0  1  0  0  0  0  0  0  0  0  0
  149.0622  142.0413  158.1857 C   0  0  0  0  0  0  0  0  0  0  0  0
  151.6318  141.7976  158.1589 C   0  0  2  0  0  0  0  0  0  0  0  0
  151.9499  140.7870  159.2775 C   0  0  0  0  0  0  0  0  0  0  0  0
  151.6661  143.1564  158.6914 N   0  0  0  0  0  0  0  0  0  0  0  0
  152.4387  144.2173  158.2657 C   0  0  0  0  0  0  0  0  0  0  0  0
  152.1207  145.2938  159.0430 C   0  0  0  0  0  0  0  0  0  0  0  0
  151.1296  144.7890  159.9296 C   0  0  0  0  0  0  0  0  0  0  0  0
  150.8583  143.5122  159.7165 N   0  0  0  0  0  0  0  0  0  0  0  0
  149.7446  139.9027  154.9000 C   0  0  0  0  0  0  0  0  0  0  0  0
  148.9238  139.7374  153.8595 N   0  0  0  0  0  0  0  0  0  0  0  0
  150.9141  140.2560  154.7566 O   0  0  0  0  0  0  0  0  0  0  0  0
  148.0405  137.8597  155.6827 H   0  0  0  0  0  0  0  0  0  0  0  0
  148.1995  138.0256  157.4200 H   0  0  0  0  0  0  0  0  0  0  0  0
  149.5795  137.5020  156.4639 H   0  0  0  0  0  0  0  0  0  0  0  0
  148.2614  140.2760  156.3617 H   0  0  0  0  0  0  0  0  0  0  0  0
  149.8781  139.6641  158.2268 H   0  0  0  0  0  0  0  0  0  0  0  0
  150.3133  141.9671  156.4477 H   0  0  0  0  0  0  0  0  0  0  0  0
  149.0662  143.1302  158.2262 H   0  0  0  0  0  0  0  0  0  0  0  0
  149.0238  141.6687  159.2101 H   0  0  0  0  0  0  0  0  0  0  0  0
  148.1358  141.7479  157.6905 H   0  0  0  0  0  0  0  0  0  0  0  0
  152.4365  141.7274  157.4250 H   0  0  0  0  0  0  0  0  0  0  0  0
  152.1123  139.7857  158.8798 H   0  0  0  0  0  0  0  0  0  0  0  0
  151.1419  140.7291  160.0073 H   0  0  0  0  0  0  0  0  0  0  0  0
  152.8587  141.0684  159.8105 H   0  0  0  0  0  0  0  0  0  0  0  0
  153.1400  144.1201  157.4500 H   0  0  0  0  0  0  0  0  0  0  0  0
  152.5327  146.2904  158.9861 H   0  0  0  0  0  0  0  0  0  0  0  0
  150.6018  145.3091  160.7153 H   0  0  0  0  0  0  0  0  0  0  0  0
  149.2678  139.8898  152.9221 H   0  0  0  0  0  0  0  0  0  0  0  0
  147.9664  139.4570  154.0144 H   0  0  0  0  0  0  0  0  0  0  0  0
  1  2  1  0  0  0  0
  1 16  1  0  0  0  0
  1 17  1  0  0  0  0
  1 18  1  0  0  0  0
  2  3  1  0  0  0  0
  2 13  1  0  0  0  0
  2 19  1  0  0  0  0
  3  4  1  0  0  0  0
  3 20  1  0  0  0  0
  4  5  1  0  0  0  0
  4  6  1  0  0  0  0
  4 21  1  0  0  0  0
  5 22  1  0  0  0  0
  5 23  1  0  0  0  0
  5 24  1  0  0  0  0
  6  7  1  0  0  0  0
  6  8  1  0  0  0  0
  6 25  1  0  0  0  0
  7 26  1  0  0  0  0
  7 27  1  0  0  0  0
  7 28  1  0  0  0  0
  8 12  1  0  0  0  0
  8  9  1  0  0  0  0
  9 10  2  0  0  0  0
  9 29  1  0  0  0  0
 10 11  1  0  0  0  0
 10 30  1  0  0  0  0
 11 12  2  0  0  0  0
 11 31  1  0  0  0  0
 13 14  1  0  0  0  0
 13 15  2  0  0  0  0
 14 32  1  0  0  0  0
 14 33  1  0  0  0  0
M  END
> <s_m_source_file>
AV-unprocessed.smi

> <i_m_source_file_index>
3116

> <i_lp_mmshare_version>
43012

> <i_f3d_flags>
0

> <s_epik_input>
W05IMl1DKD1PKVtDQEhdKFtDSDNdKVtOSF1bQ0BIXShbQ0gzXSlbQ0BIXShbQ0gzXSluMVtjSF1bY0hdW2NIXW4x

> <s_epik_cmdline>
J2VwaWtfcHl0aG9uJywgJy1waCcsICc3LjAnLCAnLXRuJywgJzgnLCAnLW1hJywgJzIwMCcsICctbWV0YWxfYmluZGluZycsICctaW1hZScsICc8aW5maWxlLm1hZT4nLCAnLW9tYWUnLCAnPG91dGZpbGUubWFlPic=

> <r_lp_tautomer_probability>
1

> <r_epik_Ionization_Penalty>
0.865977

> <r_epik_Ionization_Penalty_Charging>
0

> <r_epik_Ionization_Penalty_Neutral>
0.865977

> <r_epik_State_Penalty>
0.901888

> <r_epik_Charging_Adjusted_Penalty>
0.901888

> <i_epik_Tot_Q>
0

> <i_epik_Tot_abs_Q>
0

> <r_epik_Metal_State_Penalty>
0.901181

> <b_epik_Metal_Only>
0

> <s_lp_Force_Field>
OPLS_2005

> <r_lp_Energy>
8.51746

> <b_lp_Chiralities_Consistent>
1

> <s_lp_Variant>
AV-unprocessed.smi:3116-12

> <Gold.Version>
5.8.1

> <Gold.Id.Protein>
6NUR|6NUR_protein|mol2

> <Gold.PLP.Fitness>
34.2416

> <Gold.PLP.PLP>
-29.7223

> <Gold.PLP.part.hbond>
-1.9412

> <Gold.PLP.part.metal>
0.0000

> <Gold.PLP.part.buried>
-5.7345

> <Gold.PLP.part.nonpolar>
-22.2691

> <Gold.PLP.part.repulsive>
0.2632

> <Gold.PLP.ligand.clash>
0.0000

> <Gold.PLP.ligand.torsion>
0.7914

> <Gold.PLP.Chemscore.Hbond>
2.0000

> <Gold.PLP.Chemscore.CHOScore>
0.0000

> <Gold.PLP.Chemscore.Metal>
0.0000

> <Gold.Chemscore.Hbonds>
donor molecule, donor type, donor heavy atom, donor atom, acceptor molecule, acceptor atom, score
      L1  H    14    32       P1  7957  1.00
      P1  H  7989  7998       L1    15  1.00

> <Gold.PLP.Chemscore.Internal.Correction>
0.1021

> <Gold.Rescore>
     Score         DG    S(hbond)    S(metal)    S(lipo)     H(rot)  DE(clash)    DE(int)     intcor
     11.61     -13.76       2.00        0.00      65.89       2.38       0.00       2.16       ----

> <Gold.Chemscore.Fitness>
11.6068

> <Gold.Chemscore.DG>
-13.7643

> <Gold.Chemscore.ZeroCoef>
-5.4800

> <Gold.Chemscore.Hbond>
1.9993

> <Gold.Chemscore.Metal>
0.0000

> <Gold.Chemscore.Lipo>
65.8856

> <Gold.Chemscore.Internal_Hbond>
0.0000

> <Gold.Chemscore.DEClash>
0.0000

> <Gold.Chemscore.DEInternal>
2.1575

> <Gold.Chemscore.Rot>
2.3836

> <Gold.Chemscore.Internal.Correction>
   9.000000E+99

> <Gold.Chemscore.Hbonds>
donor molecule, donor type, donor heavy atom, donor atom, acceptor molecule, acceptor atom, score
      L1  H    14    32       P1  7957  1.00
      P1  H  7989  7998       L1    15  0.97

> <Gold.Chemscore.Hbond.Weighted>
-6.6776

> <Gold.Chemscore.Metal.Weighted>
-0.0000

> <Gold.Chemscore.Lipo.Weighted>
-7.7086

> <Gold.Chemscore.Internal_Hbond.Weighted>
0.0000

> <Gold.Chemscore.DEClash.Weighted>
0.0000

> <Gold.Chemscore.DEInternal.Weighted>
2.1575

> <Gold.Chemscore.Rot.Weighted>
6.1020

> <Gold.Chemscore.Internal.Correction.Weighted>
   9.000000E+99

> <Gold.Protein.RotatedTorsions>
[ 6907 6896 6895 6894 ] final -178.19 input  -60.11 | X-H torsion
[ 7974 7965 7964 7962 ] final  161.77 input  175.53 | X-H torsion
[ 8008 7997 7996 7995 ] final  107.40 input   59.86 | X-H torsion
[ 10167 10162 10161 10158 ] final  172.03 input  -65.29 | X-H torsion
[ 10718 10713 10712 10709 ] final   -9.11 input   66.30 | X-H torsion
[ 10763 10752 10751 10750 ] final   -8.74 input  -60.55 | X-H torsion
[ 11005 11000 10999 10996 ] final   62.87 input  -57.11 | X-H torsion

> <Gold.Protein.ActiveResidues>
 VAL166  LYS551  ARG553  GLY616  TRP617  ASP618  TYR619  PRO620  LYS621  CYS622 
 ASP623  PHE694  ASN695  SER759  ASP760  ASP761  ALA762  ILE779  LEU786  VAL792 
 PHE793  MET794  SER795  GLU796  ALA797  LYS798  CYS799  TRP800  GLU811  SER814 

> <Gold.Protein.RotatedAtoms>
  151.6333  133.3330  159.3113 H   0  0  0  0  0  0  0  0  0  0  0  0  # atno 6907 bound_to 6896
  150.8045  134.7165  159.6643 H   0  0  0  0  0  0  0  0  0  0  0  0  # atno 6908 bound_to 6896
  152.4140  134.6079  160.0069 H   0  0  0  0  0  0  0  0  0  0  0  0  # atno 6909 bound_to 6896
  144.7669  139.7944  143.6311 H   0  0  0  0  0  0  0  0  0  0  0  0  # atno 7974 bound_to 7965
  156.1821  140.3095  155.9169 H   0  0  0  0  0  0  0  0  0  0  0  0  # atno 8008 bound_to 7997
  155.3361  140.0463  157.3061 H   0  0  0  0  0  0  0  0  0  0  0  0  # atno 8009 bound_to 7997
  154.5355  140.2244  155.8741 H   0  0  0  0  0  0  0  0  0  0  0  0  # atno 8010 bound_to 7997
  139.5064  144.3419  152.0009 H   0  0  0  0  0  0  0  0  0  0  0  0  # atno 10167 bound_to 10162
  156.6928  130.5070  149.5939 H   0  0  0  0  0  0  0  0  0  0  0  0  # atno 10718 bound_to 10713
  153.4448  135.7014  153.6146 H   0  0  0  0  0  0  0  0  0  0  0  0  # atno 10763 bound_to 10752
  153.4505  135.3759  155.2281 H   0  0  0  0  0  0  0  0  0  0  0  0  # atno 10764 bound_to 10752
  154.8728  135.3996  154.3852 H   0  0  0  0  0  0  0  0  0  0  0  0  # atno 10765 bound_to 10752
  140.0062  134.6365  155.9851 H   0  0  0  0  0  0  0  0  0  0  0  0  # atno 11005 bound_to 11000
  146.1784  139.4966  142.9882 LP  0  0  0  0  0  0  0  0  0  0  0  0  # atno 17320 bound_to 7965
  145.6441  141.0278  143.1795 LP  0  0  0  0  0  0  0  0  0  0  0  0  # atno 17321 bound_to 7965
  140.2857  144.3810  150.6104 LP  0  0  0  0  0  0  0  0  0  0  0  0  # atno 17342 bound_to 10162
  140.5984  143.2167  151.7119 LP  0  0  0  0  0  0  0  0  0  0  0  0  # atno 17343 bound_to 10162
  156.1785  130.6483  151.0923 LP  0  0  0  0  0  0  0  0  0  0  0  0  # atno 17370 bound_to 10713
  157.7002  131.0778  150.6843 LP  0  0  0  0  0  0  0  0  0  0  0  0  # atno 17371 bound_to 10713
  141.1679  133.6537  156.4544 LP  0  0  0  0  0  0  0  0  0  0  0  0  # atno 17394 bound_to 11000
  140.4636  134.6818  157.5097 LP  0  0  0  0  0  0  0  0  0  0  0  0  # atno 17395 bound_to 11000

$$$$
