AV-unprocessed.smi:752|AV-procd|sdf|3596|dock8
  -GOLD-   22720 0593D 1   1.00000     0.00000
 Structure written by MMmdl.
 41 42  0  0  0  0  0  0  0  0  1 V2000
  151.9879  145.7075  159.5194 C   0  0  0  0  0  0  0  0  0  0  0  0
  151.6481  144.2269  159.3190 C   0  0  0  0  0  0  0  0  0  0  0  0
  152.5285  143.3235  160.1155 C   0  0  0  0  0  0  0  0  0  0  0  0
  153.3512  142.4262  159.5666 N   0  0  0  0  0  0  0  0  0  0  0  0
  154.0517  141.6809  160.5206 C   0  0  0  0  0  0  0  0  0  0  0  0
  155.0321  140.6322  160.0784 C   0  0  0  0  0  0  0  0  0  0  0  0
  155.5903  139.8594  161.2779 C   0  0  0  0  0  0  0  0  0  0  0  0
  156.7763  139.9666  161.5926 O   0  0  0  0  0  0  0  0  0  0  0  0
  154.7229  139.0704  161.9315 N   0  0  0  0  0  0  0  0  0  0  0  0
  155.0331  138.2465  163.0966 C   0  0  0  0  0  0  0  0  0  0  0  0
  154.5306  136.7944  162.9467 C   0  0  1  0  0  0  0  0  0  0  0  0
  155.2640  136.0140  161.8319 C   0  0  0  0  0  0  0  0  0  0  0  0
  154.7684  134.5627  161.7236 C   0  0  0  0  0  0  0  0  0  0  0  0
  154.8884  133.8284  163.0666 C   0  0  0  0  0  0  0  0  0  0  0  0
  154.1433  134.5912  164.1736 C   0  0  1  0  0  0  0  0  0  0  0  0
  154.3268  133.9299  165.4077 O   0  0  0  0  0  0  0  0  0  0  0  0
  154.6511  136.0394  164.2867 C   0  0  0  0  0  0  0  0  0  0  0  0
  153.7245  142.0143  161.8122 C   0  0  0  0  0  0  0  0  0  0  0  0
  152.5353  143.2858  161.8746 S   0  0  0  0  0  0  0  0  0  0  0  0
  151.3318  146.3407  158.9221 H   0  0  0  0  0  0  0  0  0  0  0  0
  153.0158  145.9182  159.2229 H   0  0  0  0  0  0  0  0  0  0  0  0
  151.8726  145.9998  160.5635 H   0  0  0  0  0  0  0  0  0  0  0  0
  150.6097  144.0423  159.5970 H   0  0  0  0  0  0  0  0  0  0  0  0
  151.7404  143.9638  158.2650 H   0  0  0  0  0  0  0  0  0  0  0  0
  154.5542  139.9438  159.3800 H   0  0  0  0  0  0  0  0  0  0  0  0
  155.8681  141.0826  159.5419 H   0  0  0  0  0  0  0  0  0  0  0  0
  153.7700  139.0413  161.5982 H   0  0  0  0  0  0  0  0  0  0  0  0
  156.1027  138.2589  163.3130 H   0  0  0  0  0  0  0  0  0  0  0  0
  154.5488  138.7122  163.9553 H   0  0  0  0  0  0  0  0  0  0  0  0
  153.4718  136.8350  162.6852 H   0  0  0  0  0  0  0  0  0  0  0  0
  155.1227  136.5023  160.8680 H   0  0  0  0  0  0  0  0  0  0  0  0
  156.3377  136.0194  162.0251 H   0  0  0  0  0  0  0  0  0  0  0  0
  153.7282  134.5561  161.3951 H   0  0  0  0  0  0  0  0  0  0  0  0
  155.3371  134.0329  160.9590 H   0  0  0  0  0  0  0  0  0  0  0  0
  154.4906  132.8173  162.9721 H   0  0  0  0  0  0  0  0  0  0  0  0
  155.9423  133.7251  163.3297 H   0  0  0  0  0  0  0  0  0  0  0  0
  153.0752  134.5986  163.9527 H   0  0  0  0  0  0  0  0  0  0  0  0
  154.2448  132.9992  165.2653 H   0  0  0  0  0  0  0  0  0  0  0  0
  155.6926  136.0399  164.6126 H   0  0  0  0  0  0  0  0  0  0  0  0
  154.0866  136.5642  165.0586 H   0  0  0  0  0  0  0  0  0  0  0  0
  154.1117  141.5914  162.7273 H   0  0  0  0  0  0  0  0  0  0  0  0
  1  2  1  0  0  0  0
  1 20  1  0  0  0  0
  1 21  1  0  0  0  0
  1 22  1  0  0  0  0
  2  3  1  0  0  0  0
  2 23  1  0  0  0  0
  2 24  1  0  0  0  0
  3 19  1  0  0  0  0
  3  4  2  0  0  0  0
  4  5  1  0  0  0  0
  5  6  1  0  0  0  0
  5 18  2  0  0  0  0
  6  7  1  0  0  0  0
  6 25  1  0  0  0  0
  6 26  1  0  0  0  0
  7  8  2  0  0  0  0
  7  9  1  0  0  0  0
  9 10  1  0  0  0  0
  9 27  1  0  0  0  0
 10 11  1  0  0  0  0
 10 28  1  0  0  0  0
 10 29  1  0  0  0  0
 11 17  1  0  0  0  0
 11 12  1  0  0  0  0
 11 30  1  0  0  0  0
 12 13  1  0  0  0  0
 12 31  1  0  0  0  0
 12 32  1  0  0  0  0
 13 14  1  0  0  0  0
 13 33  1  0  0  0  0
 13 34  1  0  0  0  0
 14 15  1  0  0  0  0
 14 35  1  0  0  0  0
 14 36  1  0  0  0  0
 15 16  1  0  0  0  0
 15 17  1  0  0  0  0
 15 37  1  0  0  0  0
 16 38  1  0  0  0  0
 17 39  1  0  0  0  0
 17 40  1  0  0  0  0
 18 19  1  0  0  0  0
 18 41  1  0  0  0  0
M  END
> <s_m_source_file>
AV-unprocessed.smi

> <i_m_source_file_index>
752

> <i_lp_mmshare_version>
43012

> <i_f3d_flags>
0

> <s_epik_input>
W0NIM11bQ0gyXWMxbmMoW2NIXXMxKVtDSDJdQyg9TylbTkhdW0NIMl1bQ0BASF0yW0NIMl1bQ0gyXVtDSDJdW0NAQEhdKFtPSF0pW0NIMl0y

> <s_epik_cmdline>
J2VwaWtfcHl0aG9uJywgJy1waCcsICc3LjAnLCAnLXRuJywgJzgnLCAnLW1hJywgJzIwMCcsICctbWV0YWxfYmluZGluZycsICctaW1hZScsICc8aW5maWxlLm1hZT4nLCAnLW9tYWUnLCAnPG91dGZpbGUubWFlPic=

> <r_lp_tautomer_probability>
1

> <r_epik_Ionization_Penalty>
5.44903e-05

> <r_epik_Ionization_Penalty_Charging>
0

> <r_epik_Ionization_Penalty_Neutral>
5.44903e-05

> <r_epik_State_Penalty>
-0

> <r_epik_Charging_Adjusted_Penalty>
0

> <i_epik_Tot_Q>
0

> <i_epik_Tot_abs_Q>
0

> <r_epik_Metal_State_Penalty>
-0

> <b_epik_Metal_Only>
0

> <s_lp_Force_Field>
OPLS_2005

> <r_lp_Energy>
4.53549

> <b_lp_Chiralities_Consistent>
1

> <s_lp_Variant>
AV-unprocessed.smi:752-2

> <Gold.Version>
5.8.1

> <Gold.Id.Protein>
6NUR|6NUR_protein|mol2

> <Gold.PLP.Fitness>
45.5110

> <Gold.PLP.PLP>
-45.8696

> <Gold.PLP.part.hbond>
-1.9381

> <Gold.PLP.part.metal>
0.0000

> <Gold.PLP.part.buried>
-4.6311

> <Gold.PLP.part.nonpolar>
-37.9304

> <Gold.PLP.part.repulsive>
0.0000

> <Gold.PLP.ligand.clash>
0.0000

> <Gold.PLP.ligand.torsion>
0.1894

> <Gold.PLP.Chemscore.Hbond>
0.0000

> <Gold.PLP.Chemscore.CHOScore>
0.0000

> <Gold.PLP.Chemscore.Metal>
0.0000

> <Gold.PLP.Chemscore.Internal.Correction>
0.0203

> <Gold.Rescore>
     Score         DG    S(hbond)    S(metal)    S(lipo)     H(rot)  DE(clash)    DE(int)     intcor
     14.10     -14.35       0.00        0.00     121.44       2.08       0.07       0.18       ----

> <Gold.Chemscore.Fitness>
14.0967

> <Gold.Chemscore.DG>
-14.3536

> <Gold.Chemscore.ZeroCoef>
-5.4800

> <Gold.Chemscore.Hbond>
0.0000

> <Gold.Chemscore.Metal>
0.0000

> <Gold.Chemscore.Lipo>
121.4405

> <Gold.Chemscore.Internal_Hbond>
0.0000

> <Gold.Chemscore.DEClash>
0.0726

> <Gold.Chemscore.DEInternal>
0.1843

> <Gold.Chemscore.Rot>
2.0840

> <Gold.Chemscore.Internal.Correction>
   9.000000E+99

> <Gold.Chemscore.Hbond.Weighted>
-0.0000

> <Gold.Chemscore.Metal.Weighted>
-0.0000

> <Gold.Chemscore.Lipo.Weighted>
-14.2085

> <Gold.Chemscore.Internal_Hbond.Weighted>
0.0000

> <Gold.Chemscore.DEClash.Weighted>
0.0726

> <Gold.Chemscore.DEInternal.Weighted>
0.1843

> <Gold.Chemscore.Rot.Weighted>
5.3350

> <Gold.Chemscore.Internal.Correction.Weighted>
   9.000000E+99

> <Gold.Protein.RotatedTorsions>
[ 6907 6896 6895 6894 ] final  177.58 input  -60.11 | X-H torsion
[ 7974 7965 7964 7962 ] final  110.73 input  175.53 | X-H torsion
[ 8008 7997 7996 7995 ] final  133.05 input   59.86 | X-H torsion
[ 10167 10162 10161 10158 ] final  -53.55 input  -65.29 | X-H torsion
[ 10718 10713 10712 10709 ] final -126.27 input   66.30 | X-H torsion
[ 10763 10752 10751 10750 ] final  154.81 input  -60.55 | X-H torsion
[ 11005 11000 10999 10996 ] final   -2.27 input  -57.11 | X-H torsion

> <Gold.Protein.ActiveResidues>
 VAL166  LYS551  ARG553  GLY616  TRP617  ASP618  TYR619  PRO620  LYS621  CYS622 
 ASP623  PHE694  ASN695  SER759  ASP760  ASP761  ALA762  ILE779  LEU786  VAL792 
 PHE793  MET794  SER795  GLU796  ALA797  LYS798  CYS799  TRP800  GLU811  SER814 

> <Gold.Protein.RotatedAtoms>
  151.7018  133.3311  159.3268 H   0  0  0  0  0  0  0  0  0  0  0  0  # atno 6907 bound_to 6896
  150.7733  134.6609  159.6348 H   0  0  0  0  0  0  0  0  0  0  0  0  # atno 6908 bound_to 6896
  152.3765  134.6658  160.0210 H   0  0  0  0  0  0  0  0  0  0  0  0  # atno 6909 bound_to 6896
  145.2512  139.2739  143.4066 H   0  0  0  0  0  0  0  0  0  0  0  0  # atno 7974 bound_to 7965
  156.2989  140.2531  156.3190 H   0  0  0  0  0  0  0  0  0  0  0  0  # atno 8008 bound_to 7997
  154.9253  140.0399  157.2038 H   0  0  0  0  0  0  0  0  0  0  0  0  # atno 8009 bound_to 7997
  154.8271  140.2869  155.5752 H   0  0  0  0  0  0  0  0  0  0  0  0  # atno 8010 bound_to 7997
  140.6479  143.2547  151.4808 H   0  0  0  0  0  0  0  0  0  0  0  0  # atno 10167 bound_to 10162
  156.1750  130.6693  151.0230 H   0  0  0  0  0  0  0  0  0  0  0  0  # atno 10718 bound_to 10713
  154.1583  135.2811  155.3116 H   0  0  0  0  0  0  0  0  0  0  0  0  # atno 10763 bound_to 10752
  154.6166  135.5481  153.7533 H   0  0  0  0  0  0  0  0  0  0  0  0  # atno 10764 bound_to 10752
  153.0200  135.6428  154.1725 H   0  0  0  0  0  0  0  0  0  0  0  0  # atno 10765 bound_to 10752
  140.6565  133.9358  155.8410 H   0  0  0  0  0  0  0  0  0  0  0  0  # atno 11005 bound_to 11000
  146.3302  140.2903  142.8615 LP  0  0  0  0  0  0  0  0  0  0  0  0  # atno 17320 bound_to 7965
  144.9501  140.8170  143.5577 LP  0  0  0  0  0  0  0  0  0  0  0  0  # atno 17321 bound_to 7965
  139.5691  144.1971  152.1809 LP  0  0  0  0  0  0  0  0  0  0  0  0  # atno 17342 bound_to 10162
  140.1262  144.5329  150.6831 LP  0  0  0  0  0  0  0  0  0  0  0  0  # atno 17343 bound_to 10162
  157.6829  131.0833  150.7321 LP  0  0  0  0  0  0  0  0  0  0  0  0  # atno 17370 bound_to 10713
  156.7379  130.4730  149.5484 LP  0  0  0  0  0  0  0  0  0  0  0  0  # atno 17371 bound_to 10713
  141.0498  134.0502  157.3798 LP  0  0  0  0  0  0  0  0  0  0  0  0  # atno 17394 bound_to 11000
  139.9028  135.0170  156.7347 LP  0  0  0  0  0  0  0  0  0  0  0  0  # atno 17395 bound_to 11000

$$$$
