AV-unprocessed.smi:828|AV-procd|sdf|3861|dock1
  -GOLD-   22720 1313D 1   1.00000     0.00000
 Structure written by MMmdl.
 35 36  0  0  0  0  0  0  0  0  2 V2000
  150.9978  142.3016  156.5127 C   0  0  0  0  0  0  0  0  0  0  0  0
  150.5997  141.1479  155.6567 C   0  0  0  0  0  0  0  0  0  0  0  0
  151.4787  140.2529  155.1889 N   0  0  0  0  0  0  0  0  0  0  0  0
  150.8716  139.2741  154.4146 N   0  0  0  0  0  0  0  0  0  0  0  0
  149.5474  139.4593  154.3230 C   0  0  0  0  0  0  0  0  0  0  0  0
  148.6811  138.6098  153.5849 N   0  0  0  0  0  0  0  0  0  0  0  0
  147.3526  138.7243  153.4106 C   0  0  0  0  0  0  0  0  0  0  0  0
  146.6536  139.6409  153.8429 O   0  0  0  0  0  0  0  0  0  0  0  0
  146.8645  137.6962  152.7011 N   0  0  0  0  0  0  0  0  0  0  0  0
  145.4601  137.4997  152.3520 C   0  0  0  0  0  0  0  0  0  0  0  0
  145.1261  136.0127  152.1122 C   0  0  1  0  0  0  0  0  0  0  0  0
  144.8790  135.6477  150.6440 C   0  0  0  0  0  0  0  0  0  0  0  0
  145.1556  134.1521  150.6108 C   0  0  0  0  0  0  0  0  0  0  0  0
  146.3081  133.9826  151.6024 C   0  0  0  0  0  0  0  0  0  0  0  0
  146.2308  135.1233  152.5470 N   0  3  2  0  0  0  0  0  0  0  0  0
  146.1598  134.7152  153.9673 C   0  0  0  0  0  0  0  0  0  0  0  0
  148.9296  140.8586  155.1845 S   0  0  0  0  0  0  0  0  0  0  0  0
  152.0838  142.3721  156.5841 H   0  0  0  0  0  0  0  0  0  0  0  0
  150.5881  142.1796  157.5152 H   0  0  0  0  0  0  0  0  0  0  0  0
  150.6157  143.2300  156.0882 H   0  0  0  0  0  0  0  0  0  0  0  0
  149.1228  137.8085  153.1589 H   0  0  0  0  0  0  0  0  0  0  0  0
  147.5135  136.9911  152.3828 H   0  0  0  0  0  0  0  0  0  0  0  0
  144.8067  137.9211  153.1182 H   0  0  0  0  0  0  0  0  0  0  0  0
  145.2683  138.0728  151.4447 H   0  0  0  0  0  0  0  0  0  0  0  0
  144.2288  135.7484  152.6754 H   0  0  0  0  0  0  0  0  0  0  0  0
  143.8726  135.8977  150.3066 H   0  0  0  0  0  0  0  0  0  0  0  0
  145.5902  136.1639  149.9972 H   0  0  0  0  0  0  0  0  0  0  0  0
  144.2785  133.6083  150.9644 H   0  0  0  0  0  0  0  0  0  0  0  0
  145.3980  133.7862  149.6127 H   0  0  0  0  0  0  0  0  0  0  0  0
  146.2633  133.0127  152.1005 H   0  0  0  0  0  0  0  0  0  0  0  0
  147.2650  134.0392  151.0820 H   0  0  0  0  0  0  0  0  0  0  0  0
  145.2618  134.1274  154.1628 H   0  0  0  0  0  0  0  0  0  0  0  0
  146.1476  135.5881  154.6203 H   0  0  0  0  0  0  0  0  0  0  0  0
  147.0282  134.1113  154.2323 H   0  0  0  0  0  0  0  0  0  0  0  0
  147.0879  135.6443  152.4263 H   0  0  0  0  0  0  0  0  0  0  0  0
  1  2  1  0  0  0  0
  1 18  1  0  0  0  0
  1 19  1  0  0  0  0
  1 20  1  0  0  0  0
  2 17  1  0  0  0  0
  2  3  2  0  0  0  0
  3  4  1  0  0  0  0
  4  5  2  0  0  0  0
  5  6  1  0  0  0  0
  5 17  1  0  0  0  0
  6  7  1  0  0  0  0
  6 21  1  0  0  0  0
  7  8  2  0  0  0  0
  7  9  1  0  0  0  0
  9 10  1  0  0  0  0
  9 22  1  0  0  0  0
 10 11  1  0  0  0  0
 10 23  1  0  0  0  0
 10 24  1  0  0  0  0
 11 15  1  0  0  0  0
 11 12  1  0  0  0  0
 11 25  1  0  0  0  0
 12 13  1  0  0  0  0
 12 26  1  0  0  0  0
 12 27  1  0  0  0  0
 13 14  1  0  0  0  0
 13 28  1  0  0  0  0
 13 29  1  0  0  0  0
 14 15  1  0  0  0  0
 14 30  1  0  0  0  0
 14 31  1  0  0  0  0
 15 16  1  0  0  0  0
 15 35  1  0  0  0  0
 16 32  1  0  0  0  0
 16 33  1  0  0  0  0
 16 34  1  0  0  0  0
M  CHG  1  15   1
M  END
> <s_m_source_file>
AV-unprocessed.smi

> <i_m_source_file_index>
828

> <i_lp_mmshare_version>
43012

> <i_f3d_flags>
0

> <s_epik_input>
W0NIM11jMW5uYyhzMSlbTkhdQyg9TylbTkhdW0NIMl1bQ0BASF0yW0NIMl1bQ0gyXVtDSDJdTjJbQ0gzXQ==

> <s_epik_cmdline>
J2VwaWtfcHl0aG9uJywgJy1waCcsICc3LjAnLCAnLXRuJywgJzgnLCAnLW1hJywgJzIwMCcsICctbWV0YWxfYmluZGluZycsICctaW1hZScsICc8aW5maWxlLm1hZT4nLCAnLW9tYWUnLCAnPG91dGZpbGUubWFlPic=

> <r_lp_tautomer_probability>
1

> <r_epik_Ionization_Penalty>
0.00466477

> <r_epik_Ionization_Penalty_Charging>
0.00372199

> <r_epik_Ionization_Penalty_Neutral>
0.000942783

> <r_epik_State_Penalty>
-0

> <r_epik_Charging_Adjusted_Penalty>
0.00372199

> <i_epik_Tot_Q>
1

> <i_epik_Tot_abs_Q>
1

> <r_epik_Metal_State_Penalty>
0.28212

> <b_epik_Metal_Only>
0

> <s_lp_Force_Field>
OPLS_2005

> <r_lp_Energy>
24.9421

> <b_lp_Chiralities_Consistent>
1

> <s_lp_Variant>
AV-unprocessed.smi:828-4

> <Gold.Version>
5.8.1

> <Gold.Id.Protein>
6NUR|6NUR_protein|mol2

> <Gold.PLP.Fitness>
39.0428

> <Gold.PLP.PLP>
-28.8227

> <Gold.PLP.part.hbond>
-6.0000

> <Gold.PLP.part.metal>
0.0000

> <Gold.PLP.part.buried>
-2.7306

> <Gold.PLP.part.nonpolar>
-20.3530

> <Gold.PLP.part.repulsive>
0.4264

> <Gold.PLP.ligand.clash>
0.0000

> <Gold.PLP.ligand.torsion>
0.8611

> <Gold.PLP.Chemscore.Hbond>
3.9760

> <Gold.PLP.Chemscore.CHOScore>
0.0000

> <Gold.PLP.Chemscore.Metal>
0.0000

> <Gold.Chemscore.Hbonds>
donor molecule, donor type, donor heavy atom, donor atom, acceptor molecule, acceptor atom, score
      L1  H     6    21       P1  7948  0.96
      L1  H     9    22       P1  7948  1.00
      L1  H    15    35       P1  7948  2.00

> <Gold.PLP.Chemscore.Internal.Correction>
0.0144

> <Gold.Rescore>
     Score         DG    S(hbond)    S(metal)    S(lipo)     H(rot)  DE(clash)    DE(int)     intcor
     15.69     -17.99       2.87        0.00      54.03       1.33       0.16       2.15       ----

> <Gold.Chemscore.Fitness>
15.6865

> <Gold.Chemscore.DG>
-17.9885

> <Gold.Chemscore.ZeroCoef>
-5.4800

> <Gold.Chemscore.Hbond>
2.8713

> <Gold.Chemscore.Metal>
0.0000

> <Gold.Chemscore.Lipo>
54.0314

> <Gold.Chemscore.Internal_Hbond>
0.0000

> <Gold.Chemscore.DEClash>
0.1557

> <Gold.Chemscore.DEInternal>
2.1464

> <Gold.Chemscore.Rot>
1.3294

> <Gold.Chemscore.Internal.Correction>
   9.000000E+99

> <Gold.Chemscore.Hbonds>
donor molecule, donor type, donor heavy atom, donor atom, acceptor molecule, acceptor atom, score
      L1  H     6    21       P1  7948  0.87
      L1  H     9    22       P1  7948  1.00
      L1  H    15    35       P1  7948  0.94

> <Gold.Chemscore.Hbond.Weighted>
-9.5902

> <Gold.Chemscore.Metal.Weighted>
-0.0000

> <Gold.Chemscore.Lipo.Weighted>
-6.3217

> <Gold.Chemscore.Internal_Hbond.Weighted>
0.0000

> <Gold.Chemscore.DEClash.Weighted>
0.1557

> <Gold.Chemscore.DEInternal.Weighted>
2.1464

> <Gold.Chemscore.Rot.Weighted>
3.4033

> <Gold.Chemscore.Internal.Correction.Weighted>
   9.000000E+99

> <Gold.Protein.RotatedTorsions>
[ 6907 6896 6895 6894 ] final  101.97 input  -60.11 | X-H torsion
[ 7974 7965 7964 7962 ] final   47.84 input  175.53 | X-H torsion
[ 8008 7997 7996 7995 ] final   67.02 input   59.86 | X-H torsion
[ 10167 10162 10161 10158 ] final  168.06 input  -65.29 | X-H torsion
[ 10718 10713 10712 10709 ] final  178.22 input   66.30 | X-H torsion
[ 10763 10752 10751 10750 ] final  110.57 input  -60.55 | X-H torsion
[ 11005 11000 10999 10996 ] final  -20.52 input  -57.11 | X-H torsion

> <Gold.Protein.ActiveResidues>
 VAL166  LYS551  ARG553  GLY616  TRP617  ASP618  TYR619  PRO620  LYS621  CYS622 
 ASP623  PHE694  ASN695  SER759  ASP760  ASP761  ALA762  ILE779  LEU786  VAL792 
 PHE793  MET794  SER795  GLU796  ALA797  LYS798  CYS799  TRP800  GLU811  SER814 

> <Gold.Protein.RotatedAtoms>
  152.5336  134.0046  159.7910 H   0  0  0  0  0  0  0  0  0  0  0  0  # atno 6907 bound_to 6896
  151.0259  133.5827  159.2673 H   0  0  0  0  0  0  0  0  0  0  0  0  # atno 6908 bound_to 6896
  151.2849  135.0732  159.9236 H   0  0  0  0  0  0  0  0  0  0  0  0  # atno 6909 bound_to 6896
  146.0260  139.4707  142.9867 H   0  0  0  0  0  0  0  0  0  0  0  0  # atno 7974 bound_to 7965
  155.6865  140.3496  155.4876 H   0  0  0  0  0  0  0  0  0  0  0  0  # atno 8008 bound_to 7997
  155.9562  140.1128  157.0957 H   0  0  0  0  0  0  0  0  0  0  0  0  # atno 8009 bound_to 7997
  154.4132  140.1184  156.5104 H   0  0  0  0  0  0  0  0  0  0  0  0  # atno 8010 bound_to 7997
  139.4959  144.3855  151.9575 H   0  0  0  0  0  0  0  0  0  0  0  0  # atno 10167 bound_to 10162
  156.8938  130.9856  151.3045 H   0  0  0  0  0  0  0  0  0  0  0  0  # atno 10718 bound_to 10713
  153.4508  135.3744  155.2283 H   0  0  0  0  0  0  0  0  0  0  0  0  # atno 10763 bound_to 10752
  154.8756  135.3885  154.4041 H   0  0  0  0  0  0  0  0  0  0  0  0  # atno 10764 bound_to 10752
  153.4600  135.7086  153.6120 H   0  0  0  0  0  0  0  0  0  0  0  0  # atno 10765 bound_to 10752
  140.8472  133.7883  155.9926 H   0  0  0  0  0  0  0  0  0  0  0  0  # atno 11005 bound_to 11000
  145.7117  141.0104  143.1450 LP  0  0  0  0  0  0  0  0  0  0  0  0  # atno 17320 bound_to 7965
  144.7010  139.8765  143.7444 LP  0  0  0  0  0  0  0  0  0  0  0  0  # atno 17321 bound_to 7965
  140.3292  144.3337  150.5991 LP  0  0  0  0  0  0  0  0  0  0  0  0  # atno 17342 bound_to 10162
  140.5659  143.2186  151.7684 LP  0  0  0  0  0  0  0  0  0  0  0  0  # atno 17343 bound_to 10162
  157.6068  130.8553  149.8887 LP  0  0  0  0  0  0  0  0  0  0  0  0  # atno 17370 bound_to 10713
  156.0616  130.3699  150.0970 LP  0  0  0  0  0  0  0  0  0  0  0  0  # atno 17371 bound_to 10713
  140.8830  134.2588  157.5134 LP  0  0  0  0  0  0  0  0  0  0  0  0  # atno 17394 bound_to 11000
  139.8703  134.9624  156.4429 LP  0  0  0  0  0  0  0  0  0  0  0  0  # atno 17395 bound_to 11000

$$$$
