AV-unprocessed.smi:1495|AV-procd|sdf|6053|dock3
  -GOLD-   22720 6173D 1   1.00000     0.00000
 Structure written by MMmdl.
 40 41  0  0  0  0  0  0  0  0  1 V2000
  154.3948  139.5480  160.7804 C   0  0  0  0  0  0  0  0  0  0  0  0
  154.2782  140.8354  161.6054 C   0  0  0  0  0  0  0  0  0  0  0  0
  153.1374  141.7493  161.1322 C   0  0  2  0  0  0  0  0  0  0  0  0
  153.2642  142.1080  159.6370 C   0  0  0  0  0  0  0  0  0  0  0  0
  152.1562  143.0073  159.2834 N   0  0  0  0  0  0  0  0  0  0  0  0
  151.0711  142.6992  158.5303 C   0  0  0  0  0  0  0  0  0  0  0  0
  150.1750  143.5051  158.2750 O   0  0  0  0  0  0  0  0  0  0  0  0
  151.0601  141.4461  158.0492 N   0  0  0  0  0  0  0  0  0  0  0  0
  150.0085  140.8890  157.2103 C   0  0  0  0  0  0  0  0  0  0  0  0
  150.3351  141.1001  155.7256 C   0  0  0  0  0  0  0  0  0  0  0  0
  149.1673  140.7895  154.8398 C   0  0  0  0  0  0  0  0  0  0  0  0
  148.4737  141.6737  154.0516 C   0  0  0  0  0  0  0  0  0  0  0  0
  147.1886  140.8912  153.1734 S   0  0  0  0  0  0  0  0  0  0  0  0
  147.6494  139.3658  153.9201 C   0  0  0  0  0  0  0  0  0  0  0  0
  146.9508  138.0772  153.6521 C   0  0  0  0  0  0  0  0  0  0  0  0
  148.6860  139.4794  154.7542 N   0  0  0  0  0  0  0  0  0  0  0  0
  152.2464  144.2434  160.0641 C   0  0  0  0  0  0  0  0  0  0  0  0
  152.1410  143.8783  161.5552 C   0  0  0  0  0  0  0  0  0  0  0  0
  153.1737  142.9556  161.8956 O   0  0  0  0  0  0  0  0  0  0  0  0
  155.2241  138.9351  161.1337 H   0  0  0  0  0  0  0  0  0  0  0  0
  154.5697  139.7691  159.7271 H   0  0  0  0  0  0  0  0  0  0  0  0
  153.4866  138.9491  160.8511 H   0  0  0  0  0  0  0  0  0  0  0  0
  154.1376  140.5840  162.6573 H   0  0  0  0  0  0  0  0  0  0  0  0
  155.2234  141.3756  161.5430 H   0  0  0  0  0  0  0  0  0  0  0  0
  152.1850  141.2438  161.3035 H   0  0  0  0  0  0  0  0  0  0  0  0
  154.2112  142.6169  159.4508 H   0  0  0  0  0  0  0  0  0  0  0  0
  153.3004  141.1973  159.0395 H   0  0  0  0  0  0  0  0  0  0  0  0
  151.8327  140.8396  158.2823 H   0  0  0  0  0  0  0  0  0  0  0  0
  149.9014  139.8232  157.4206 H   0  0  0  0  0  0  0  0  0  0  0  0
  149.0590  141.3656  157.4605 H   0  0  0  0  0  0  0  0  0  0  0  0
  150.6560  142.1305  155.5659 H   0  0  0  0  0  0  0  0  0  0  0  0
  151.1859  140.4761  155.4486 H   0  0  0  0  0  0  0  0  0  0  0  0
  148.6416  142.7340  153.9334 H   0  0  0  0  0  0  0  0  0  0  0  0
  147.6773  137.2784  153.5006 H   0  0  0  0  0  0  0  0  0  0  0  0
  146.3326  138.1599  152.7581 H   0  0  0  0  0  0  0  0  0  0  0  0
  146.3126  137.8169  154.4966 H   0  0  0  0  0  0  0  0  0  0  0  0
  153.2003  144.7327  159.8624 H   0  0  0  0  0  0  0  0  0  0  0  0
  151.4751  144.9686  159.8014 H   0  0  0  0  0  0  0  0  0  0  0  0
  152.2473  144.7709  162.1717 H   0  0  0  0  0  0  0  0  0  0  0  0
  151.1652  143.4460  161.7821 H   0  0  0  0  0  0  0  0  0  0  0  0
  1  2  1  0  0  0  0
  1 20  1  0  0  0  0
  1 21  1  0  0  0  0
  1 22  1  0  0  0  0
  2  3  1  0  0  0  0
  2 23  1  0  0  0  0
  2 24  1  0  0  0  0
  3 19  1  0  0  0  0
  3  4  1  0  0  0  0
  3 25  1  0  0  0  0
  4  5  1  0  0  0  0
  4 26  1  0  0  0  0
  4 27  1  0  0  0  0
  5  6  1  0  0  0  0
  5 17  1  0  0  0  0
  6  7  2  0  0  0  0
  6  8  1  0  0  0  0
  8  9  1  0  0  0  0
  8 28  1  0  0  0  0
  9 10  1  0  0  0  0
  9 29  1  0  0  0  0
  9 30  1  0  0  0  0
 10 11  1  0  0  0  0
 10 31  1  0  0  0  0
 10 32  1  0  0  0  0
 11 16  1  0  0  0  0
 11 12  2  0  0  0  0
 12 13  1  0  0  0  0
 12 33  1  0  0  0  0
 13 14  1  0  0  0  0
 14 15  1  0  0  0  0
 14 16  2  0  0  0  0
 15 34  1  0  0  0  0
 15 35  1  0  0  0  0
 15 36  1  0  0  0  0
 17 18  1  0  0  0  0
 17 37  1  0  0  0  0
 17 38  1  0  0  0  0
 18 19  1  0  0  0  0
 18 39  1  0  0  0  0
 18 40  1  0  0  0  0
M  END
> <s_m_source_file>
AV-unprocessed.smi

> <i_m_source_file_index>
1495

> <i_lp_mmshare_version>
43012

> <i_f3d_flags>
0

> <s_epik_input>
W0NIM11bQ0gyXVtDQEBIXTFbQ0gyXU4oW0NIMl1bQ0gyXU8xKUMoPU8pW05IXVtDSDJdW0NIMl1jMltjSF1zYyhuMilbQ0gzXQ==

> <s_epik_cmdline>
J2VwaWtfcHl0aG9uJywgJy1waCcsICc3LjAnLCAnLXRuJywgJzgnLCAnLW1hJywgJzIwMCcsICctbWV0YWxfYmluZGluZycsICctaW1hZScsICc8aW5maWxlLm1hZT4nLCAnLW9tYWUnLCAnPG91dGZpbGUubWFlPic=

> <r_epik_Ionization_Penalty>
0.00206013

> <r_epik_Ionization_Penalty_Charging>
0

> <r_epik_Ionization_Penalty_Neutral>
0.00206013

> <r_epik_State_Penalty>
0.00138662

> <r_epik_Charging_Adjusted_Penalty>
0.00138662

> <i_epik_Tot_Q>
0

> <i_epik_Tot_abs_Q>
0

> <r_epik_Metal_State_Penalty>
-0

> <b_epik_Metal_Only>
0

> <s_lp_Force_Field>
OPLS_2005

> <r_lp_Energy>
21.6891

> <b_lp_Chiralities_Consistent>
1

> <s_lp_Variant>
AV-unprocessed.smi:1495-1

> <Gold.Version>
5.8.1

> <Gold.Id.Protein>
6NUR|6NUR_protein|mol2

> <Gold.PLP.Fitness>
41.9721

> <Gold.PLP.PLP>
-39.4848

> <Gold.PLP.part.hbond>
0.0000

> <Gold.PLP.part.metal>
0.0000

> <Gold.PLP.part.buried>
-3.4587

> <Gold.PLP.part.nonpolar>
-36.4462

> <Gold.PLP.part.repulsive>
0.4190

> <Gold.PLP.ligand.clash>
0.0000

> <Gold.PLP.ligand.torsion>
0.2835

> <Gold.PLP.Chemscore.Hbond>
0.0000

> <Gold.PLP.Chemscore.CHOScore>
0.9991

> <Gold.PLP.Chemscore.Metal>
0.0000

> <Gold.Chemscore.Hbonds>
donor molecule, donor type, donor heavy atom, donor atom, acceptor molecule, acceptor atom, score
      L1  C    12    33       P1  8028  0.80

> <Gold.PLP.Chemscore.Internal.Correction>
0.0572

> <Gold.Rescore>
     Score         DG    S(hbond)    S(metal)    S(lipo)     H(rot)  DE(clash)    DE(int)     intcor
     13.72     -14.41       0.00        0.00     107.47       1.42       0.34       0.36       ----

> <Gold.Chemscore.Fitness>
13.7155

> <Gold.Chemscore.DG>
-14.4150

> <Gold.Chemscore.ZeroCoef>
-5.4800

> <Gold.Chemscore.Hbond>
0.0000

> <Gold.Chemscore.Metal>
0.0000

> <Gold.Chemscore.Lipo>
107.4681

> <Gold.Chemscore.Internal_Hbond>
0.0000

> <Gold.Chemscore.DEClash>
0.3364

> <Gold.Chemscore.DEInternal>
0.3631

> <Gold.Chemscore.Rot>
1.4214

> <Gold.Chemscore.Internal.Correction>
   9.000000E+99

> <Gold.Chemscore.Hbond.Weighted>
-0.0000

> <Gold.Chemscore.Metal.Weighted>
-0.0000

> <Gold.Chemscore.Lipo.Weighted>
-12.5738

> <Gold.Chemscore.Internal_Hbond.Weighted>
0.0000

> <Gold.Chemscore.DEClash.Weighted>
0.3364

> <Gold.Chemscore.DEInternal.Weighted>
0.3631

> <Gold.Chemscore.Rot.Weighted>
3.6388

> <Gold.Chemscore.Internal.Correction.Weighted>
   9.000000E+99

> <Gold.Protein.RotatedTorsions>
[ 6907 6896 6895 6894 ] final   81.74 input  -60.11 | X-H torsion
[ 7974 7965 7964 7962 ] final  -47.62 input  175.53 | X-H torsion
[ 8008 7997 7996 7995 ] final -155.49 input   59.86 | X-H torsion
[ 10167 10162 10161 10158 ] final   92.62 input  -65.29 | X-H torsion
[ 10718 10713 10712 10709 ] final  -72.98 input   66.30 | X-H torsion
[ 10763 10752 10751 10750 ] final   79.73 input  -60.55 | X-H torsion
[ 11005 11000 10999 10996 ] final  -10.62 input  -57.11 | X-H torsion

> <Gold.Protein.ActiveResidues>
 VAL166  LYS551  ARG553  GLY616  TRP617  ASP618  TYR619  PRO620  LYS621  CYS622 
 ASP623  PHE694  ASN695  SER759  ASP760  ASP761  ALA762  ILE779  LEU786  VAL792 
 PHE793  MET794  SER795  GLU796  ALA797  LYS798  CYS799  TRP800  GLU811  SER814 

> <Gold.Protein.RotatedAtoms>
  152.5278  134.3157  159.9129 H   0  0  0  0  0  0  0  0  0  0  0  0  # atno 6907 bound_to 6896
  151.3106  133.4076  159.2654 H   0  0  0  0  0  0  0  0  0  0  0  0  # atno 6908 bound_to 6896
  151.0041  134.9362  159.8028 H   0  0  0  0  0  0  0  0  0  0  0  0  # atno 6909 bound_to 6896
  145.9597  140.7492  142.9464 H   0  0  0  0  0  0  0  0  0  0  0  0  # atno 7974 bound_to 7965
  155.7026  140.0768  157.2404 H   0  0  0  0  0  0  0  0  0  0  0  0  # atno 8008 bound_to 7997
  154.4071  140.1644  156.2260 H   0  0  0  0  0  0  0  0  0  0  0  0  # atno 8009 bound_to 7997
  155.9354  140.3388  155.6286 H   0  0  0  0  0  0  0  0  0  0  0  0  # atno 8010 bound_to 7997
  139.8259  144.6710  150.9461 H   0  0  0  0  0  0  0  0  0  0  0  0  # atno 10167 bound_to 10162
  156.0298  130.4384  150.2675 H   0  0  0  0  0  0  0  0  0  0  0  0  # atno 10718 bound_to 10713
  153.0976  135.4829  154.8808 H   0  0  0  0  0  0  0  0  0  0  0  0  # atno 10763 bound_to 10752
  154.7342  135.3067  154.8841 H   0  0  0  0  0  0  0  0  0  0  0  0  # atno 10764 bound_to 10752
  153.9468  135.6828  153.4797 H   0  0  0  0  0  0  0  0  0  0  0  0  # atno 10765 bound_to 10752
  140.7466  133.8626  155.9011 H   0  0  0  0  0  0  0  0  0  0  0  0  # atno 11005 bound_to 11000
  144.6812  140.2570  143.7324 LP  0  0  0  0  0  0  0  0  0  0  0  0  # atno 17320 bound_to 7965
  145.8057  139.1982  143.2022 LP  0  0  0  0  0  0  0  0  0  0  0  0  # atno 17321 bound_to 7965
  140.7810  143.4047  151.1090 LP  0  0  0  0  0  0  0  0  0  0  0  0  # atno 17342 bound_to 10162
  139.7704  143.8502  152.3119 LP  0  0  0  0  0  0  0  0  0  0  0  0  # atno 17343 bound_to 10162
  157.0777  131.0134  151.3168 LP  0  0  0  0  0  0  0  0  0  0  0  0  # atno 17370 bound_to 10713
  157.4951  130.7846  149.7547 LP  0  0  0  0  0  0  0  0  0  0  0  0  # atno 17371 bound_to 10713
  140.9788  134.1433  157.4512 LP  0  0  0  0  0  0  0  0  0  0  0  0  # atno 17394 bound_to 11000
  139.8795  135.0004  156.6006 LP  0  0  0  0  0  0  0  0  0  0  0  0  # atno 17395 bound_to 11000

$$$$
