AV-unprocessed.smi:1123|AV-procd|sdf|4832|dock1
  -GOLD-   22720 3393D 1   1.00000     0.00000
 Structure written by MMmdl.
 38 39  0  0  0  0  0  0  0  0  2 V2000
  146.1773  129.3995  150.9479 C   0  0  0  0  0  0  0  0  0  0  0  0
  145.4070  130.5989  151.5368 C   0  0  1  0  0  0  0  0  0  0  0  0
  146.2520  131.4218  152.5227 C   0  0  0  0  0  0  0  0  0  0  0  0
  145.7294  132.2729  153.2433 O   0  0  0  0  0  0  0  0  0  0  0  0
  147.5684  131.1571  152.5455 N   0  0  0  0  0  0  0  0  0  0  0  0
  148.5332  131.8058  153.4255 C   0  0  0  0  0  0  0  0  0  0  0  0
  149.2857  130.7806  154.2953 C   0  0  0  0  0  0  0  0  0  0  0  0
  150.3134  131.4173  155.1561 N   0  3  0  0  0  0  0  0  0  0  0  0
  149.7808  132.5794  155.9069 C   0  0  0  0  0  0  0  0  0  0  0  0
  150.8905  133.2342  156.7469 C   0  0  0  0  0  0  0  0  0  0  0  0
  151.4553  132.2697  157.6259 O   0  0  0  0  0  0  0  0  0  0  0  0
  152.0504  131.1897  156.9177 C   0  0  0  0  0  0  0  0  0  0  0  0
  150.9808  130.4672  156.0811 C   0  0  0  0  0  0  0  0  0  0  0  0
  144.8588  131.4629  150.4985 N   0  0  0  0  0  0  0  0  0  0  0  0
  145.4600  132.0356  149.4532 C   0  0  0  0  0  0  0  0  0  0  0  0
  144.6419  132.7290  148.6741 N   0  0  0  0  0  0  0  0  0  0  0  0
  143.4657  132.5215  149.3368 C   0  0  0  0  0  0  0  0  0  0  0  0
  143.5373  131.7617  150.4295 N   0  0  0  0  0  0  0  0  0  0  0  0
  146.5358  128.7372  151.7366 H   0  0  0  0  0  0  0  0  0  0  0  0
  147.0424  129.7140  150.3627 H   0  0  0  0  0  0  0  0  0  0  0  0
  145.5351  128.8093  150.2938 H   0  0  0  0  0  0  0  0  0  0  0  0
  144.5613  130.1939  152.0952 H   0  0  0  0  0  0  0  0  0  0  0  0
  147.9212  130.4438  151.9239 H   0  0  0  0  0  0  0  0  0  0  0  0
  149.2200  132.4016  152.8235 H   0  0  0  0  0  0  0  0  0  0  0  0
  147.9923  132.5066  154.0621 H   0  0  0  0  0  0  0  0  0  0  0  0
  148.5549  130.2721  154.9260 H   0  0  0  0  0  0  0  0  0  0  0  0
  149.7519  130.0077  153.6820 H   0  0  0  0  0  0  0  0  0  0  0  0
  149.3682  133.3123  155.2127 H   0  0  0  0  0  0  0  0  0  0  0  0
  148.9644  132.2544  156.5541 H   0  0  0  0  0  0  0  0  0  0  0  0
  151.6653  133.6594  156.1071 H   0  0  0  0  0  0  0  0  0  0  0  0
  150.4808  134.0533  157.3380 H   0  0  0  0  0  0  0  0  0  0  0  0
  152.8601  131.5559  156.2844 H   0  0  0  0  0  0  0  0  0  0  0  0
  152.4951  130.5000  157.6353 H   0  0  0  0  0  0  0  0  0  0  0  0
  150.2380  130.0152  156.7403 H   0  0  0  0  0  0  0  0  0  0  0  0
  151.4481  129.6555  155.5250 H   0  0  0  0  0  0  0  0  0  0  0  0
  146.5174  131.9400  149.2552 H   0  0  0  0  0  0  0  0  0  0  0  0
  142.5274  132.9370  149.0000 H   0  0  0  0  0  0  0  0  0  0  0  0
  151.0249  131.7817  154.5388 H   0  0  0  0  0  0  0  0  0  0  0  0
  1  2  1  0  0  0  0
  1 19  1  0  0  0  0
  1 20  1  0  0  0  0
  1 21  1  0  0  0  0
  2  3  1  0  0  0  0
  2 14  1  0  0  0  0
  2 22  1  0  0  0  0
  3  4  2  0  0  0  0
  3  5  1  0  0  0  0
  5  6  1  0  0  0  0
  5 23  1  0  0  0  0
  6  7  1  0  0  0  0
  6 24  1  0  0  0  0
  6 25  1  0  0  0  0
  7  8  1  0  0  0  0
  7 26  1  0  0  0  0
  7 27  1  0  0  0  0
  8 13  1  0  0  0  0
  8  9  1  0  0  0  0
  8 38  1  0  0  0  0
  9 10  1  0  0  0  0
  9 28  1  0  0  0  0
  9 29  1  0  0  0  0
 10 11  1  0  0  0  0
 10 30  1  0  0  0  0
 10 31  1  0  0  0  0
 11 12  1  0  0  0  0
 12 13  1  0  0  0  0
 12 32  1  0  0  0  0
 12 33  1  0  0  0  0
 13 34  1  0  0  0  0
 13 35  1  0  0  0  0
 14 18  1  0  0  0  0
 14 15  1  0  0  0  0
 15 16  2  0  0  0  0
 15 36  1  0  0  0  0
 16 17  1  0  0  0  0
 17 18  2  0  0  0  0
 17 37  1  0  0  0  0
M  CHG  1   8   1
M  END
> <s_m_source_file>
AV-unprocessed.smi

> <i_m_source_file_index>
1123

> <i_lp_mmshare_version>
43012

> <i_f3d_flags>
0

> <s_epik_input>
bjFbY0hdbltjSF1uMVtDQEhdKFtDSDNdKUMoPU8pW05IXVtDSDJdW0NIMl1OMltDSDJdW0NIMl1PW0NIMl1bQ0gyXTI=

> <s_epik_cmdline>
J2VwaWtfcHl0aG9uJywgJy1waCcsICc3LjAnLCAnLXRuJywgJzgnLCAnLW1hJywgJzIwMCcsICctbWV0YWxfYmluZGluZycsICctaW1hZScsICc8aW5maWxlLm1hZT4nLCAnLW9tYWUnLCAnPG91dGZpbGUubWFlPic=

> <r_lp_tautomer_probability>
1

> <r_epik_Ionization_Penalty>
0.71326

> <r_epik_Ionization_Penalty_Charging>
0.713252

> <r_epik_Ionization_Penalty_Neutral>
7.98515e-06

> <r_epik_State_Penalty>
0.737017

> <r_epik_Charging_Adjusted_Penalty>
1.45027

> <i_epik_Tot_Q>
1

> <i_epik_Tot_abs_Q>
1

> <r_epik_Metal_State_Penalty>
0.73702

> <b_epik_Metal_Only>
0

> <s_lp_Force_Field>
OPLS_2005

> <r_lp_Energy>
21.0283

> <b_lp_Chiralities_Consistent>
1

> <s_lp_Variant>
AV-unprocessed.smi:1123-4

> <Gold.Version>
5.8.1

> <Gold.Id.Protein>
6NUR|6NUR_protein|mol2

> <Gold.PLP.Fitness>
40.8200

> <Gold.PLP.PLP>
-31.7642

> <Gold.PLP.part.hbond>
-2.5682

> <Gold.PLP.part.metal>
0.0000

> <Gold.PLP.part.buried>
-4.4342

> <Gold.PLP.part.nonpolar>
-24.9959

> <Gold.PLP.part.repulsive>
2.0714

> <Gold.PLP.ligand.clash>
0.0000

> <Gold.PLP.ligand.torsion>
0.3726

> <Gold.PLP.Chemscore.Hbond>
1.2246

> <Gold.PLP.Chemscore.CHOScore>
2.0000

> <Gold.PLP.Chemscore.Metal>
0.0000

> <Gold.Chemscore.Hbonds>
donor molecule, donor type, donor heavy atom, donor atom, acceptor molecule, acceptor atom, score
      L1  H     5    23       P1 10747  0.48
      P1  H  6896  6907       L1    11  1.00
      L1  C    15    36       P1 10747  0.20
      L1  C    17    37       P1 10186  1.00

> <Gold.PLP.Chemscore.Internal.Correction>
0.1272

> <Gold.Rescore>
     Score         DG    S(hbond)    S(metal)    S(lipo)     H(rot)  DE(clash)    DE(int)     intcor
      6.74      -7.21       0.79        0.00      51.07       2.69       0.12       0.35       ----

> <Gold.Chemscore.Fitness>
6.7390

> <Gold.Chemscore.DG>
-7.2120

> <Gold.Chemscore.ZeroCoef>
-5.4800

> <Gold.Chemscore.Hbond>
0.7927

> <Gold.Chemscore.Metal>
0.0000

> <Gold.Chemscore.Lipo>
51.0686

> <Gold.Chemscore.Internal_Hbond>
0.0000

> <Gold.Chemscore.DEClash>
0.1221

> <Gold.Chemscore.DEInternal>
0.3509

> <Gold.Chemscore.Rot>
2.6916

> <Gold.Chemscore.Internal.Correction>
   9.000000E+99

> <Gold.Chemscore.Hbonds>
donor molecule, donor type, donor heavy atom, donor atom, acceptor molecule, acceptor atom, score
      L1  H     5    23       P1 10747  0.47
      P1  H  6896  6907       L1    11  0.34

> <Gold.Chemscore.Hbond.Weighted>
-2.6476

> <Gold.Chemscore.Metal.Weighted>
-0.0000

> <Gold.Chemscore.Lipo.Weighted>
-5.9750

> <Gold.Chemscore.Internal_Hbond.Weighted>
0.0000

> <Gold.Chemscore.DEClash.Weighted>
0.1221

> <Gold.Chemscore.DEInternal.Weighted>
0.3509

> <Gold.Chemscore.Rot.Weighted>
6.8906

> <Gold.Chemscore.Internal.Correction.Weighted>
   9.000000E+99

> <Gold.Protein.RotatedTorsions>
[ 6907 6896 6895 6894 ] final  177.57 input  -60.11 | X-H torsion
[ 7974 7965 7964 7962 ] final    3.99 input  175.53 | X-H torsion
[ 8008 7997 7996 7995 ] final   32.63 input   59.86 | X-H torsion
[ 10167 10162 10161 10158 ] final   89.00 input  -65.29 | X-H torsion
[ 10718 10713 10712 10709 ] final  -13.89 input   66.30 | X-H torsion
[ 10763 10752 10751 10750 ] final  172.64 input  -60.55 | X-H torsion
[ 11005 11000 10999 10996 ] final  132.48 input  -57.11 | X-H torsion

> <Gold.Protein.ActiveResidues>
 VAL166  LYS551  ARG553  GLY616  TRP617  ASP618  TYR619  PRO620  LYS621  CYS622 
 ASP623  PHE694  ASN695  SER759  ASP760  ASP761  ALA762  ILE779  LEU786  VAL792 
 PHE793  MET794  SER795  GLU796  ALA797  LYS798  CYS799  TRP800  GLU811  SER814 

> <Gold.Protein.RotatedAtoms>
  151.7018  133.3311  159.3268 H   0  0  0  0  0  0  0  0  0  0  0  0  # atno 6907 bound_to 6896
  150.7732  134.6609  159.6348 H   0  0  0  0  0  0  0  0  0  0  0  0  # atno 6908 bound_to 6896
  152.3765  134.6659  160.0210 H   0  0  0  0  0  0  0  0  0  0  0  0  # atno 6909 bound_to 6896
  146.2444  140.0602  142.8369 H   0  0  0  0  0  0  0  0  0  0  0  0  # atno 7974 bound_to 7965
  155.1256  140.3252  155.4486 H   0  0  0  0  0  0  0  0  0  0  0  0  # atno 8008 bound_to 7997
  156.2650  140.2019  156.6325 H   0  0  0  0  0  0  0  0  0  0  0  0  # atno 8009 bound_to 7997
  154.6651  140.0543  157.0091 H   0  0  0  0  0  0  0  0  0  0  0  0  # atno 8010 bound_to 7997
  139.8617  144.6540  150.9051 H   0  0  0  0  0  0  0  0  0  0  0  0  # atno 10167 bound_to 10162
  156.6238  130.4882  149.6154 H   0  0  0  0  0  0  0  0  0  0  0  0  # atno 10718 bound_to 10713
  154.4289  135.2759  155.1925 H   0  0  0  0  0  0  0  0  0  0  0  0  # atno 10763 bound_to 10752
  154.3840  135.6081  153.5810 H   0  0  0  0  0  0  0  0  0  0  0  0  # atno 10764 bound_to 10752
  152.9835  135.5887  154.4597 H   0  0  0  0  0  0  0  0  0  0  0  0  # atno 10765 bound_to 10752
  139.9793  134.9553  156.9589 H   0  0  0  0  0  0  0  0  0  0  0  0  # atno 11005 bound_to 11000
  145.0907  140.9282  143.4771 LP  0  0  0  0  0  0  0  0  0  0  0  0  # atno 17320 bound_to 7965
  145.0774  139.2985  143.5801 LP  0  0  0  0  0  0  0  0  0  0  0  0  # atno 17321 bound_to 7965
  140.7774  143.3739  151.1599 LP  0  0  0  0  0  0  0  0  0  0  0  0  # atno 17342 bound_to 10162
  139.7368  143.8987  152.3037 LP  0  0  0  0  0  0  0  0  0  0  0  0  # atno 17343 bound_to 10162
  156.2290  130.6783  151.1444 LP  0  0  0  0  0  0  0  0  0  0  0  0  # atno 17370 bound_to 10713
  157.7220  131.0675  150.6096 LP  0  0  0  0  0  0  0  0  0  0  0  0  # atno 17371 bound_to 10713
  140.5129  134.0984  155.7274 LP  0  0  0  0  0  0  0  0  0  0  0  0  # atno 17394 bound_to 11000
  141.1467  133.9043  157.2198 LP  0  0  0  0  0  0  0  0  0  0  0  0  # atno 17395 bound_to 11000

$$$$
