AV-unprocessed.smi:3153|AV-procd|sdf|12019|dock4
  -GOLD-   2272017433D 1   1.00000     0.00000
 Structure written by MMmdl.
 38 39  0  0  0  0  0  0  0  0  2 V2000
  144.8607  135.7393  149.6424 O   0  0  0  0  0  0  0  0  0  0  0  0
  145.0107  135.4539  151.0225 C   0  0  0  0  0  0  0  0  0  0  0  0
  145.2737  136.7944  151.7450 C   0  0  0  0  0  0  0  0  0  0  0  0
  146.4907  137.4735  151.2515 N   0  3  0  0  0  0  0  0  0  0  0  0
  146.6785  138.8349  151.7883 C   0  0  0  0  0  0  0  0  0  0  0  0
  147.3440  138.7958  153.1724 C   0  0  0  0  0  0  0  0  0  0  0  0
  147.4983  140.1220  153.7400 N   0  0  0  0  0  0  0  0  0  0  0  0
  146.5201  141.0506  154.0287 C   0  0  0  0  0  0  0  0  0  0  0  0
  147.1417  142.1439  154.5605 C   0  0  0  0  0  0  0  0  0  0  0  0
  148.5177  141.7817  154.5660 C   0  0  0  0  0  0  0  0  0  0  0  0
  148.7273  140.5690  154.0790 N   0  0  0  0  0  0  0  0  0  0  0  0
  143.6850  134.8373  151.5301 C   0  0  0  0  0  0  0  0  0  0  0  0
  143.3993  133.4463  150.9366 C   0  0  0  0  0  0  0  0  0  0  0  0
  144.5697  132.4850  151.1831 C   0  0  0  0  0  0  0  0  0  0  0  0
  145.8790  133.0622  150.6277 C   0  0  0  0  0  0  0  0  0  0  0  0
  146.1771  134.4525  151.2177 C   0  0  0  0  0  0  0  0  0  0  0  0
  144.5254  136.6183  149.5488 H   0  0  0  0  0  0  0  0  0  0  0  0
  144.4207  137.4629  151.6177 H   0  0  0  0  0  0  0  0  0  0  0  0
  145.3800  136.6217  152.8172 H   0  0  0  0  0  0  0  0  0  0  0  0
  147.2937  136.9143  151.5014 H   0  0  0  0  0  0  0  0  0  0  0  0
  147.2899  139.4104  151.0918 H   0  0  0  0  0  0  0  0  0  0  0  0
  145.7091  139.3308  151.8538 H   0  0  0  0  0  0  0  0  0  0  0  0
  146.7497  138.1928  153.8602 H   0  0  0  0  0  0  0  0  0  0  0  0
  148.3290  138.3307  153.1119 H   0  0  0  0  0  0  0  0  0  0  0  0
  145.4750  140.8605  153.8329 H   0  0  0  0  0  0  0  0  0  0  0  0
  146.6830  143.0615  154.8980 H   0  0  0  0  0  0  0  0  0  0  0  0
  149.3638  142.3589  154.9089 H   0  0  0  0  0  0  0  0  0  0  0  0
  143.7245  134.7468  152.6166 H   0  0  0  0  0  0  0  0  0  0  0  0
  142.8493  135.5048  151.3151 H   0  0  0  0  0  0  0  0  0  0  0  0
  142.4876  133.0385  151.3741 H   0  0  0  0  0  0  0  0  0  0  0  0
  143.2133  133.5305  149.8654 H   0  0  0  0  0  0  0  0  0  0  0  0
  144.6743  132.3000  152.2530 H   0  0  0  0  0  0  0  0  0  0  0  0
  144.3620  131.5196  150.7203 H   0  0  0  0  0  0  0  0  0  0  0  0
  146.7038  132.3832  150.8461 H   0  0  0  0  0  0  0  0  0  0  0  0
  145.8166  133.1277  149.5408 H   0  0  0  0  0  0  0  0  0  0  0  0
  147.0949  134.8390  150.7733 H   0  0  0  0  0  0  0  0  0  0  0  0
  146.3805  134.3420  152.2838 H   0  0  0  0  0  0  0  0  0  0  0  0
  146.4369  137.5265  150.2442 H   0  0  0  0  0  0  0  0  0  0  0  0
  1  2  1  0  0  0  0
  1 17  1  0  0  0  0
  2 16  1  0  0  0  0
  2  3  1  0  0  0  0
  2 12  1  0  0  0  0
  3  4  1  0  0  0  0
  3 18  1  0  0  0  0
  3 19  1  0  0  0  0
  4  5  1  0  0  0  0
  4 20  1  0  0  0  0
  4 38  1  0  0  0  0
  5  6  1  0  0  0  0
  5 21  1  0  0  0  0
  5 22  1  0  0  0  0
  6  7  1  0  0  0  0
  6 23  1  0  0  0  0
  6 24  1  0  0  0  0
  7 11  1  0  0  0  0
  7  8  1  0  0  0  0
  8  9  2  0  0  0  0
  8 25  1  0  0  0  0
  9 10  1  0  0  0  0
  9 26  1  0  0  0  0
 10 11  2  0  0  0  0
 10 27  1  0  0  0  0
 12 13  1  0  0  0  0
 12 28  1  0  0  0  0
 12 29  1  0  0  0  0
 13 14  1  0  0  0  0
 13 30  1  0  0  0  0
 13 31  1  0  0  0  0
 14 15  1  0  0  0  0
 14 32  1  0  0  0  0
 14 33  1  0  0  0  0
 15 16  1  0  0  0  0
 15 34  1  0  0  0  0
 15 35  1  0  0  0  0
 16 36  1  0  0  0  0
 16 37  1  0  0  0  0
M  CHG  1   4   1
M  END
> <s_m_source_file>
AV-unprocessed.smi

> <i_m_source_file_index>
3153

> <i_lp_mmshare_version>
43012

> <i_f3d_flags>
0

> <s_epik_input>
W0NIMl0xW0NIMl1bQ0gyXVtDSDJdW0NIMl1DMShbT0hdKVtDSDJdW05IXVtDSDJdW0NIMl1uMltjSF1bY0hdW2NIXW4y

> <s_epik_cmdline>
J2VwaWtfcHl0aG9uJywgJy1waCcsICc3LjAnLCAnLXRuJywgJzgnLCAnLW1hJywgJzIwMCcsICctbWV0YWxfYmluZGluZycsICctaW1hZScsICc8aW5maWxlLm1hZT4nLCAnLW9tYWUnLCAnPG91dGZpbGUubWFlPic=

> <r_lp_tautomer_probability>
1

> <r_epik_Ionization_Penalty>
0.0240152

> <r_epik_Ionization_Penalty_Charging>
0.0240119

> <r_epik_Ionization_Penalty_Neutral>
3.38076e-06

> <r_epik_State_Penalty>
0.0194671

> <r_epik_Charging_Adjusted_Penalty>
0.043479

> <i_epik_Tot_Q>
1

> <i_epik_Tot_abs_Q>
1

> <r_epik_Metal_State_Penalty>
0.0195093

> <b_epik_Metal_Only>
0

> <s_lp_Force_Field>
OPLS_2005

> <r_lp_Energy>
15.7554

> <b_lp_Chiralities_Consistent>
1

> <s_lp_Variant>
AV-unprocessed.smi:3153-1

> <Gold.Version>
5.8.1

> <Gold.Id.Protein>
6NUR|6NUR_protein|mol2

> <Gold.PLP.Fitness>
48.7783

> <Gold.PLP.PLP>
-34.7430

> <Gold.PLP.part.hbond>
-3.7423

> <Gold.PLP.part.metal>
0.0000

> <Gold.PLP.part.buried>
-4.2943

> <Gold.PLP.part.nonpolar>
-28.8599

> <Gold.PLP.part.repulsive>
0.6610

> <Gold.PLP.ligand.clash>
0.0000

> <Gold.PLP.ligand.torsion>
0.1416

> <Gold.PLP.Chemscore.Hbond>
2.9913

> <Gold.PLP.Chemscore.CHOScore>
1.7658

> <Gold.PLP.Chemscore.Metal>
0.0000

> <Gold.Chemscore.Hbonds>
donor molecule, donor type, donor heavy atom, donor atom, acceptor molecule, acceptor atom, score
      L1  H     1    17       P1 10171  0.93
      L1  H     4    20       P1  7948  2.00
      L1  C     8    25       P1 10175  1.00
      L1  C    10    27       P1  8028  0.72

> <Gold.PLP.Chemscore.Internal.Correction>
0.0475

> <Gold.Rescore>
     Score         DG    S(hbond)    S(metal)    S(lipo)     H(rot)  DE(clash)    DE(int)     intcor
     14.90     -15.44       2.01        0.00      77.17       2.26       0.16       0.39       ----

> <Gold.Chemscore.Fitness>
14.8985

> <Gold.Chemscore.DG>
-15.4431

> <Gold.Chemscore.ZeroCoef>
-5.4800

> <Gold.Chemscore.Hbond>
2.0119

> <Gold.Chemscore.Metal>
0.0000

> <Gold.Chemscore.Lipo>
77.1741

> <Gold.Chemscore.Internal_Hbond>
0.0000

> <Gold.Chemscore.DEClash>
0.1585

> <Gold.Chemscore.DEInternal>
0.3861

> <Gold.Chemscore.Rot>
2.2601

> <Gold.Chemscore.Internal.Correction>
   9.000000E+99

> <Gold.Chemscore.Hbonds>
donor molecule, donor type, donor heavy atom, donor atom, acceptor molecule, acceptor atom, score
      L1  H     1    17       P1 10171  0.89
      L1  H     4    20       P1  7948  1.00

> <Gold.Chemscore.Hbond.Weighted>
-6.7196

> <Gold.Chemscore.Metal.Weighted>
-0.0000

> <Gold.Chemscore.Lipo.Weighted>
-9.0294

> <Gold.Chemscore.Internal_Hbond.Weighted>
0.0000

> <Gold.Chemscore.DEClash.Weighted>
0.1585

> <Gold.Chemscore.DEInternal.Weighted>
0.3861

> <Gold.Chemscore.Rot.Weighted>
5.7858

> <Gold.Chemscore.Internal.Correction.Weighted>
   9.000000E+99

> <Gold.Protein.RotatedTorsions>
[ 6907 6896 6895 6894 ] final  172.03 input  -60.11 | X-H torsion
[ 7974 7965 7964 7962 ] final  143.69 input  175.53 | X-H torsion
[ 8008 7997 7996 7995 ] final -177.75 input   59.86 | X-H torsion
[ 10167 10162 10161 10158 ] final -101.88 input  -65.29 | X-H torsion
[ 10718 10713 10712 10709 ] final -159.18 input   66.30 | X-H torsion
[ 10763 10752 10751 10750 ] final   15.57 input  -60.55 | X-H torsion
[ 11005 11000 10999 10996 ] final -141.84 input  -57.11 | X-H torsion

> <Gold.Protein.ActiveResidues>
 VAL166  LYS551  ARG553  GLY616  TRP617  ASP618  TYR619  PRO620  LYS621  CYS622 
 ASP623  PHE694  ASN695  SER759  ASP760  ASP761  ALA762  ILE779  LEU786  VAL792 
 PHE793  MET794  SER795  GLU796  ALA797  LYS798  CYS799  TRP800  GLU811  SER814 

> <Gold.Protein.RotatedAtoms>
  151.7908  133.3359  159.3498 H   0  0  0  0  0  0  0  0  0  0  0  0  # atno 6907 bound_to 6896
  150.7393  134.5845  159.5965 H   0  0  0  0  0  0  0  0  0  0  0  0  # atno 6908 bound_to 6896
  152.3212  134.7380  160.0364 H   0  0  0  0  0  0  0  0  0  0  0  0  # atno 6909 bound_to 6896
  144.8899  139.5573  143.5803 H   0  0  0  0  0  0  0  0  0  0  0  0  # atno 7974 bound_to 7965
  156.0107  140.1240  157.0456 H   0  0  0  0  0  0  0  0  0  0  0  0  # atno 8008 bound_to 7997
  154.4275  140.1088  156.5895 H   0  0  0  0  0  0  0  0  0  0  0  0  # atno 8009 bound_to 7997
  155.6083  140.3471  155.4617 H   0  0  0  0  0  0  0  0  0  0  0  0  # atno 8010 bound_to 7997
  140.2366  143.3569  152.0839 H   0  0  0  0  0  0  0  0  0  0  0  0  # atno 10167 bound_to 10162
  156.5645  130.8661  151.2819 H   0  0  0  0  0  0  0  0  0  0  0  0  # atno 10718 bound_to 10713
  153.1513  135.6779  153.8879 H   0  0  0  0  0  0  0  0  0  0  0  0  # atno 10763 bound_to 10752
  153.8304  135.3118  155.3419 H   0  0  0  0  0  0  0  0  0  0  0  0  # atno 10764 bound_to 10752
  154.7864  135.4860  154.0041 H   0  0  0  0  0  0  0  0  0  0  0  0  # atno 10765 bound_to 10752
  140.8284  134.2547  157.4868 H   0  0  0  0  0  0  0  0  0  0  0  0  # atno 11005 bound_to 11000
  146.3047  139.7542  142.9065 LP  0  0  0  0  0  0  0  0  0  0  0  0  # atno 17320 bound_to 7965
  145.3802  141.0357  143.3182 LP  0  0  0  0  0  0  0  0  0  0  0  0  # atno 17321 bound_to 7965
  139.5092  144.6862  151.5880 LP  0  0  0  0  0  0  0  0  0  0  0  0  # atno 17342 bound_to 10162
  140.6145  143.9374  150.6478 LP  0  0  0  0  0  0  0  0  0  0  0  0  # atno 17343 bound_to 10162
  157.7361  130.9774  150.2120 LP  0  0  0  0  0  0  0  0  0  0  0  0  # atno 17370 bound_to 10713
  156.2770  130.3728  149.7974 LP  0  0  0  0  0  0  0  0  0  0  0  0  # atno 17371 bound_to 10713
  139.8705  134.9573  156.4264 LP  0  0  0  0  0  0  0  0  0  0  0  0  # atno 17394 bound_to 11000
  140.9024  133.7770  155.9696 LP  0  0  0  0  0  0  0  0  0  0  0  0  # atno 17395 bound_to 11000

$$$$
