#       Name:                AV-unprocessed.smi:1645
#       Creating user name   scv26
#       Creation time:       Fri Mar 27 07:31:03 2020


#       File generated by GOLD software.
#

@<TRIPOS>MOLECULE
AV-unprocessed.smi:1645
    59    62     1
SMALL
NO_CHARGES


@<TRIPOS>ATOM
      1 ****        -0.9261   1.3740   0.3080 O.2            1 S1                 0.0000
      2 ****        -1.2875   0.2465   0.6437 C.2            1 S1                 0.0000
      3 ****        -0.4770  -0.8157   0.7907 N.am           1 S1                 0.0000
      4 ****         0.9381  -0.8668   0.6658 C.ar           1 S1                 0.0000
      5 ****         1.5396  -2.1266   0.4660 C.ar           1 S1                 0.0000
      6 ****         2.9419  -2.2261   0.3566 C.ar           1 S1                 0.0000
      7 ****         3.7437  -1.0614   0.4614 C.ar           1 S1                 0.0000
      8 ****         5.1543  -1.0617   0.3670 N.3            1 S1                 0.0000
      9 ****         5.8655  -0.2256   1.3402 C.3            1 S1                 0.0000
     10 ****         7.3217   0.0256   0.9137 C.3            1 S1                 0.0000
     11 ****         8.0476  -1.2939   0.6199 C.3            1 S1                 0.0000
     12 ****         7.2683  -2.0900  -0.4349 C.3            1 S1                 0.0000
     13 ****         5.8119  -2.3191   0.0047 C.3            1 S1                 0.0000
     14 ****         3.1179   0.1237   0.6632 N.pl3          1 S1                 1.0000
     15 ****         1.7797   0.2655   0.7700 C.ar           1 S1                 0.0000
     16 ****        -2.5663  -0.0759   0.8855 N.am           1 S1                 0.0000
     17 ****        -3.6915   0.8509   0.7961 C.3            1 S1                 0.0000
     18 ****        -4.8508   0.4865   1.7393 C.3            1 S1                 0.0000
     19 ****        -6.1333   0.8608   0.9691 C.3            1 S1                 0.0000
     20 ****        -5.6706   1.4392  -0.3077 N.4            1 S1                 1.0000
     21 ****        -6.5946   1.3602  -1.4597 C.3            1 S1                 0.0000
     22 ****        -5.9695   2.0944  -2.6630 C.3            1 S1                 0.0000
     23 ****        -4.5501   1.5774  -2.9743 C.3            1 S1                 0.0000
     24 ****        -3.6618   1.5976  -1.7153 C.3            1 S1                 0.0000
     25 ****        -4.3602   0.8297  -0.5801 C.3            1 S1                 0.0000
     26 ****        -0.9279  -1.6987   0.9814 H              1 S1                 0.0000
     27 ****         0.9323  -3.0172   0.3937 H              1 S1                 0.0000
     28 ****         3.3755  -3.2033   0.2071 H              1 S1                 0.0000
     29 ****         5.3784   0.7398   1.4746 H              1 S1                 0.0000
     30 ****         5.8430  -0.7260   2.3090 H              1 S1                 0.0000
     31 ****         7.3381   0.6576   0.0245 H              1 S1                 0.0000
     32 ****         7.8476   0.5764   1.6941 H              1 S1                 0.0000
     33 ****         9.0618  -1.0969   0.2712 H              1 S1                 0.0000
     34 ****         8.1377  -1.8799   1.5355 H              1 S1                 0.0000
     35 ****         7.2827  -1.5490  -1.3822 H              1 S1                 0.0000
     36 ****         7.7569  -3.0471  -0.6181 H              1 S1                 0.0000
     37 ****         5.7803  -2.9969   0.8587 H              1 S1                 0.0000
     38 ****         5.2796  -2.8015  -0.8155 H              1 S1                 0.0000
     39 ****         1.4459   1.2767   0.9478 H              1 S1                 0.0000
     40 ****        -2.7769  -1.0267   1.1527 H              1 S1                 0.0000
     41 ****        -3.3708   1.8690   1.0284 H              1 S1                 0.0000
     42 ****        -4.8575  -0.5813   1.9633 H              1 S1                 0.0000
     43 ****        -4.7732   1.0200   2.6874 H              1 S1                 0.0000
     44 ****        -6.7352  -0.0307   0.7856 H              1 S1                 0.0000
     45 ****        -6.7484   1.5788   1.5126 H              1 S1                 0.0000
     46 ****        -6.7915   0.3163  -1.7082 H              1 S1                 0.0000
     47 ****        -7.5493   1.8162  -1.1952 H              1 S1                 0.0000
     48 ****        -6.6079   1.9859  -3.5402 H              1 S1                 0.0000
     49 ****        -5.9223   3.1628  -2.4480 H              1 S1                 0.0000
     50 ****        -4.6121   0.5579  -3.3576 H              1 S1                 0.0000
     51 ****        -4.0965   2.1770  -3.7641 H              1 S1                 0.0000
     52 ****        -2.6934   1.1494  -1.9384 H              1 S1                 0.0000
     53 ****        -3.4690   2.6272  -1.4109 H              1 S1                 0.0000
     54 ****        -4.5158  -0.2075  -0.8867 H              1 S1                 0.0000
     55 ****        -5.4946   2.4180  -0.1310 H              1 S1                 0.0000
     56 ****         3.6935   0.9626   0.7408 H              1 S1                 0.0000
     57 ****         0.0394   1.5545   0.1208 LP             1 S1                 0.0000
     58 ****        -1.5981   2.1097   0.2225 LP             1 S1                 0.0000
     59 ****         5.2672  -0.5521  -0.4860 LP             1 S1                 0.0000
@<TRIPOS>BOND
    1    1    2 2     
    2    2    3 am    
    3    2   16 am    
    4    3    4 1     
    5    3   26 1     
    6    4   15 ar    
    7    4    5 ar    
    8    5    6 ar    
    9    5   27 1     
   10    6    7 ar    
   11    6   28 1     
   12    7    8 1     
   13    7   14 ar    
   14    8   13 1     
   15    8    9 1     
   16    9   10 1     
   17    9   29 1     
   18    9   30 1     
   19   10   11 1     
   20   10   31 1     
   21   10   32 1     
   22   11   12 1     
   23   11   33 1     
   24   11   34 1     
   25   12   13 1     
   26   12   35 1     
   27   12   36 1     
   28   13   37 1     
   29   13   38 1     
   30   14   15 ar    
   31   14   56 1     
   32   15   39 1     
   33   16   17 1     
   34   16   40 1     
   35   17   25 1     
   36   17   18 1     
   37   17   41 1     
   38   18   19 1     
   39   18   42 1     
   40   18   43 1     
   41   19   20 1     
   42   19   44 1     
   43   19   45 1     
   44   20   25 1     
   45   20   21 1     
   46   20   55 1     
   47   21   22 1     
   48   21   46 1     
   49   21   47 1     
   50   22   23 1     
   51   22   48 1     
   52   22   49 1     
   53   23   24 1     
   54   23   50 1     
   55   23   51 1     
   56   24   25 1     
   57   24   52 1     
   58   24   53 1     
   59   25   54 1     
   60    1   57 1     
   61    1   58 1     
   62    8   59 1     
@<TRIPOS>SUBSTRUCTURE
      1 S1             1
@<TRIPOS>SET
LONE_PAIRS      STATIC     ATOMS    <user>   **** ""
3 57 58 59
DONOR_HYDROGENS      STATIC     ATOMS    <user>   **** ""
4 26 56 40 55
ATOM$BLUE        STATIC     ATOMS    COLORGROUP SYSTEM
3 57 58 59
ATOM$RED        STATIC     ATOMS    COLORGROUP SYSTEM
4 26 56 40 55
