#       Name:                AV-unprocessed.smi:1424
#       Creating user name   scv26
#       Creation time:       Fri Mar 27 05:45:29 2020


#       File generated by GOLD software.
#

@<TRIPOS>MOLECULE
AV-unprocessed.smi:1424
    49    51     1
SMALL
NO_CHARGES


@<TRIPOS>ATOM
      1 ****         1.4921   2.1083   0.8182 O.2            1 S1                 0.0000
      2 ****         0.9220   1.0221   0.9177 C.2            1 S1                 0.0000
      3 ****         1.5683  -0.1462   1.0353 N.am           1 S1                 0.0000
      4 ****         3.0192  -0.3021   1.0684 C.3            1 S1                 0.0000
      5 ****         3.6629  -0.2028  -0.3343 C.3            1 S1                 0.0000
      6 ****         3.1579  -1.2970  -1.3026 C.3            1 S1                 0.0000
      7 ****         3.8732  -2.6186  -0.9915 C.3            1 S1                 0.0000
      8 ****         5.5291  -2.1543  -0.3571 S.o2           1 S1                 0.0000
      9 ****         5.6865  -2.6970   1.0008 O.2            1 S1                 0.0000
     10 ****         6.5441  -2.3979  -1.3931 O.2            1 S1                 0.0000
     11 ****         5.1906  -0.3550  -0.2591 C.3            1 S1                 0.0000
     12 ****        -0.4096   0.8429   0.9009 N.am           1 S1                 0.0000
     13 ****        -1.4291   1.8283   0.7647 C.ar           1 S1                 0.0000
     14 ****        -1.2573   3.1422   1.2725 C.ar           1 S1                 0.0000
     15 ****        -2.2742   4.1006   1.1039 C.ar           1 S1                 0.0000
     16 ****        -3.4520   3.7310   0.4329 C.ar           1 S1                 0.0000
     17 ****        -3.5945   2.4688  -0.0206 N.pl3          1 S1                 1.0000
     18 ****        -2.6591   1.4969   0.1242 C.ar           1 S1                 0.0000
     19 ****        -2.9566   0.2145  -0.3914 N.3            1 S1                 0.0000
     20 ****        -4.1362   0.0082  -1.2240 C.3            1 S1                 0.0000
     21 ****        -4.3207  -1.5057  -1.2813 C.3            1 S1                 0.0000
     22 ****        -3.8695  -1.9436   0.1086 C.3            1 S1                 0.0000
     23 ****        -2.7500  -0.9564   0.4550 C.3            1 S1                 0.0000
     24 ****         1.0206  -0.9909   1.1099 H              1 S1                 0.0000
     25 ****         3.4479   0.4494   1.7336 H              1 S1                 0.0000
     26 ****         3.2414  -1.2682   1.5220 H              1 S1                 0.0000
     27 ****         3.4285   0.7799  -0.7453 H              1 S1                 0.0000
     28 ****         2.0742  -1.4127  -1.2853 H              1 S1                 0.0000
     29 ****         3.4162  -0.9987  -2.3193 H              1 S1                 0.0000
     30 ****         3.3532  -3.1698  -0.2079 H              1 S1                 0.0000
     31 ****         3.9717  -3.2637  -1.8647 H              1 S1                 0.0000
     32 ****         5.6630   0.1177  -1.1205 H              1 S1                 0.0000
     33 ****         5.6314   0.0653   0.6451 H              1 S1                 0.0000
     34 ****        -0.7266  -0.1152   0.8887 H              1 S1                 0.0000
     35 ****        -0.3593   3.4315   1.7970 H              1 S1                 0.0000
     36 ****        -2.1500   5.1047   1.4826 H              1 S1                 0.0000
     37 ****        -4.2824   4.3985   0.2534 H              1 S1                 0.0000
     38 ****        -5.0134   0.4658  -0.7648 H              1 S1                 0.0000
     39 ****        -4.0035   0.4378  -2.2174 H              1 S1                 0.0000
     40 ****        -5.3444  -1.8015  -1.5125 H              1 S1                 0.0000
     41 ****        -3.6633  -1.9350  -2.0389 H              1 S1                 0.0000
     42 ****        -4.6937  -1.8265   0.8135 H              1 S1                 0.0000
     43 ****        -3.5435  -2.9835   0.1435 H              1 S1                 0.0000
     44 ****        -1.7811  -1.3950   0.2155 H              1 S1                 0.0000
     45 ****        -2.7586  -0.7039   1.5162 H              1 S1                 0.0000
     46 ****        -4.4653   2.2286  -0.4945 H              1 S1                 0.0000
     47 ****         2.4912   2.1508   0.8225 LP             1 S1                 0.0000
     48 ****         0.9562   2.9483   0.7331 LP             1 S1                 0.0000
     49 ****        -2.1842   0.2765  -1.0234 LP             1 S1                 0.0000
@<TRIPOS>BOND
    1    1    2 2     
    2    2    3 am    
    3    2   12 am    
    4    3    4 1     
    5    3   24 1     
    6    4    5 1     
    7    4   25 1     
    8    4   26 1     
    9    5   11 1     
   10    5    6 1     
   11    5   27 1     
   12    6    7 1     
   13    6   28 1     
   14    6   29 1     
   15    7    8 1     
   16    7   30 1     
   17    7   31 1     
   18    8    9 2     
   19    8   10 2     
   20    8   11 1     
   21   11   32 1     
   22   11   33 1     
   23   12   13 1     
   24   12   34 1     
   25   13   18 ar    
   26   13   14 ar    
   27   14   15 ar    
   28   14   35 1     
   29   15   16 ar    
   30   15   36 1     
   31   16   17 ar    
   32   16   37 1     
   33   17   18 ar    
   34   17   46 1     
   35   18   19 1     
   36   19   23 1     
   37   19   20 1     
   38   20   21 1     
   39   20   38 1     
   40   20   39 1     
   41   21   22 1     
   42   21   40 1     
   43   21   41 1     
   44   22   23 1     
   45   22   42 1     
   46   22   43 1     
   47   23   44 1     
   48   23   45 1     
   49    1   47 1     
   50    1   48 1     
   51   19   49 1     
@<TRIPOS>SUBSTRUCTURE
      1 S1             1
@<TRIPOS>SET
LONE_PAIRS      STATIC     ATOMS    <user>   **** ""
5 47 48 9 10 49
DONOR_HYDROGENS      STATIC     ATOMS    <user>   **** ""
3 24 34 46
ATOM$BLUE        STATIC     ATOMS    COLORGROUP SYSTEM
5 47 48 9 10 49
ATOM$RED        STATIC     ATOMS    COLORGROUP SYSTEM
3 24 34 46
