#       Name:                AV-unprocessed.smi:1604
#       Creating user name   scv26
#       Creation time:       Fri Mar 27 07:09:58 2020


#       File generated by GOLD software.
#

@<TRIPOS>MOLECULE
AV-unprocessed.smi:1604
    52    54     1
SMALL
NO_CHARGES


@<TRIPOS>ATOM
      1 ****         0.6499   2.1611  -0.0965 O.2            1 S1                 0.0000
      2 ****         0.3411   1.0439  -0.5121 C.2            1 S1                 0.0000
      3 ****         1.1991   0.0331  -0.7265 N.am           1 S1                 0.0000
      4 ****         2.6009   0.0111  -0.4839 C.ar           1 S1                 0.0000
      5 ****         3.4036   1.1581  -0.6973 C.ar           1 S1                 0.0000
      6 ****         4.7940   1.0710  -0.5123 C.ar           1 S1                 0.0000
      7 ****         5.3374  -0.1680  -0.1348 C.ar           1 S1                 0.0000
      8 ****         4.5887  -1.2721   0.0588 N.ar           1 S1                 0.0000
      9 ****         3.2441  -1.2010  -0.1014 C.ar           1 S1                 0.0000
     10 ****         2.5094  -2.3862   0.1336 N.3            1 S1                 0.0000
     11 ****         1.4269  -2.3389   1.1129 C.3            1 S1                 0.0000
     12 ****         1.4379  -3.6887   1.8384 C.3            1 S1                 0.0000
     13 ****         2.1712  -4.6123   0.8707 C.3            1 S1                 0.0000
     14 ****         3.1916  -3.6721   0.2356 C.3            1 S1                 0.0000
     15 ****        -0.9172   0.6744  -0.7892 N.am           1 S1                 0.0000
     16 ****        -2.1039   1.5203  -0.6661 C.3            1 S1                 0.0000
     17 ****        -2.5755   1.5853   0.8095 C.3            1 S1                 0.0000
     18 ****        -4.0670   1.9120   1.0314 C.3            1 S1                 0.0000
     19 ****        -4.5772   3.1898   0.3353 C.3            1 S1                 0.0000
     20 ****        -4.3620   3.2828  -1.1945 C.3            1 S1                 0.0000
     21 ****        -4.2135   1.9913  -1.8648 N.am           1 S1                 0.0000
     22 ****        -3.1902   1.1375  -1.6896 C.2            1 S1                 0.0000
     23 ****        -3.1291   0.0744  -2.3059 O.2            1 S1                 0.0000
     24 ****         0.7891  -0.8546  -0.9776 H              1 S1                 0.0000
     25 ****         2.9775   2.0949  -1.0228 H              1 S1                 0.0000
     26 ****         5.4290   1.9301  -0.6695 H              1 S1                 0.0000
     27 ****         6.4020  -0.2785   0.0090 H              1 S1                 0.0000
     28 ****         1.5404  -1.5098   1.8131 H              1 S1                 0.0000
     29 ****         0.4815  -2.2094   0.5856 H              1 S1                 0.0000
     30 ****         2.0086  -3.6036   2.7641 H              1 S1                 0.0000
     31 ****         0.4381  -4.0420   2.0916 H              1 S1                 0.0000
     32 ****         2.6311  -5.4699   1.3620 H              1 S1                 0.0000
     33 ****         1.4805  -4.9836   0.1123 H              1 S1                 0.0000
     34 ****         3.5190  -4.0279  -0.7417 H              1 S1                 0.0000
     35 ****         4.0652  -3.5969   0.8843 H              1 S1                 0.0000
     36 ****        -1.0723  -0.2646  -1.1264 H              1 S1                 0.0000
     37 ****        -1.7871   2.5242  -0.9523 H              1 S1                 0.0000
     38 ****        -2.3767   0.6285   1.2944 H              1 S1                 0.0000
     39 ****        -1.9651   2.3154   1.3424 H              1 S1                 0.0000
     40 ****        -4.6745   1.0628   0.7157 H              1 S1                 0.0000
     41 ****        -4.2472   2.0030   2.1028 H              1 S1                 0.0000
     42 ****        -5.6464   3.2666   0.5358 H              1 S1                 0.0000
     43 ****        -4.1304   4.0650   0.8081 H              1 S1                 0.0000
     44 ****        -5.2022   3.8096  -1.6476 H              1 S1                 0.0000
     45 ****        -3.4886   3.8986  -1.4116 H              1 S1                 0.0000
     46 ****        -4.9335   1.7339  -2.5243 H              1 S1                 0.0000
     47 ****         1.6057   2.3715   0.1093 LP             1 S1                 0.0000
     48 ****        -0.0550   2.8581   0.0352 LP             1 S1                 0.0000
     49 ****         5.0210  -2.1357   0.3182 LP             1 S1                 0.0000
     50 ****         2.1159  -2.3690  -0.7855 LP             1 S1                 0.0000
     51 ****        -2.3676  -0.5536  -2.1453 LP             1 S1                 0.0000
     52 ****        -3.8409  -0.1617  -2.9674 LP             1 S1                 0.0000
@<TRIPOS>BOND
    1    1    2 2     
    2    2    3 am    
    3    2   15 am    
    4    3    4 1     
    5    3   24 1     
    6    4    9 ar    
    7    4    5 ar    
    8    5    6 ar    
    9    5   25 1     
   10    6    7 ar    
   11    6   26 1     
   12    7    8 ar    
   13    7   27 1     
   14    8    9 ar    
   15    9   10 1     
   16   10   14 1     
   17   10   11 1     
   18   11   12 1     
   19   11   28 1     
   20   11   29 1     
   21   12   13 1     
   22   12   30 1     
   23   12   31 1     
   24   13   14 1     
   25   13   32 1     
   26   13   33 1     
   27   14   34 1     
   28   14   35 1     
   29   15   16 1     
   30   15   36 1     
   31   16   22 1     
   32   16   17 1     
   33   16   37 1     
   34   17   18 1     
   35   17   38 1     
   36   17   39 1     
   37   18   19 1     
   38   18   40 1     
   39   18   41 1     
   40   19   20 1     
   41   19   42 1     
   42   19   43 1     
   43   20   21 1     
   44   20   44 1     
   45   20   45 1     
   46   21   22 am    
   47   21   46 1     
   48   22   23 2     
   49    1   47 1     
   50    1   48 1     
   51    8   49 1     
   52   10   50 1     
   53   23   51 1     
   54   23   52 1     
@<TRIPOS>SUBSTRUCTURE
      1 S1             1
@<TRIPOS>SET
LONE_PAIRS      STATIC     ATOMS    <user>   **** ""
6 47 48 49 50 51 52
DONOR_HYDROGENS      STATIC     ATOMS    <user>   **** ""
3 24 36 46
ATOM$BLUE        STATIC     ATOMS    COLORGROUP SYSTEM
6 47 48 49 50 51 52
ATOM$RED        STATIC     ATOMS    COLORGROUP SYSTEM
3 24 36 46
