AV-unprocessed.smi:2462|AV-procd|sdf|9717|dock2
  -GOLD-   2272013353D 1   1.00000     0.00000
 Structure written by MMmdl.
 40 41  0  0  0  0  0  0  0  0  1 V2000
  152.3582  143.4373  161.5474 C   0  0  0  0  0  0  0  0  0  0  0  0
  152.1014  142.8345  160.1778 C   0  0  0  0  0  0  0  0  0  0  0  0
  151.2321  143.5541  159.3547 N   0  0  0  0  0  0  0  0  0  0  0  0
  150.9354  143.1025  158.1804 C   0  0  0  0  0  0  0  0  0  0  0  0
  151.4519  141.8871  157.6978 N   0  0  0  0  0  0  0  0  0  0  0  0
  151.0093  141.4904  156.3431 C   0  0  0  0  0  0  0  0  0  0  0  0
  149.5660  140.8984  156.2544 C   0  0  1  0  0  0  0  0  0  0  0  0
  148.6706  141.9495  156.5669 O   0  0  0  0  0  0  0  0  0  0  0  0
  149.2094  140.5067  154.7995 C   0  0  0  0  0  0  0  0  0  0  0  0
  149.8598  139.1845  154.3546 C   0  0  0  0  0  0  0  0  0  0  0  0
  149.5052  138.0311  155.3100 C   0  0  1  0  0  0  0  0  0  0  0  0
  150.1550  136.7133  154.8653 C   0  0  0  0  0  0  0  0  0  0  0  0
  149.8992  138.3940  156.7527 C   0  0  0  0  0  0  0  0  0  0  0  0
  149.2538  139.7154  157.2057 C   0  0  0  0  0  0  0  0  0  0  0  0
  152.3646  141.1621  158.4112 C   0  0  0  0  0  0  0  0  0  0  0  0
  152.8920  140.1459  157.9563 O   0  0  0  0  0  0  0  0  0  0  0  0
  152.6735  141.6744  159.7564 C   0  0  0  0  0  0  0  0  0  0  0  0
  153.6312  140.8495  160.6076 C   0  0  0  0  0  0  0  0  0  0  0  0
  153.4180  143.6599  161.6742 H   0  0  0  0  0  0  0  0  0  0  0  0
  152.0494  142.7467  162.3325 H   0  0  0  0  0  0  0  0  0  0  0  0
  151.8029  144.3663  161.6831 H   0  0  0  0  0  0  0  0  0  0  0  0
  150.2727  143.6345  157.4962 H   0  0  0  0  0  0  0  0  0  0  0  0
  151.1020  142.3424  155.6661 H   0  0  0  0  0  0  0  0  0  0  0  0
  151.7120  140.7683  155.9293 H   0  0  0  0  0  0  0  0  0  0  0  0
  149.0254  142.7568  156.2273 H   0  0  0  0  0  0  0  0  0  0  0  0
  148.1279  140.3955  154.7037 H   0  0  0  0  0  0  0  0  0  0  0  0
  149.4896  141.3064  154.1121 H   0  0  0  0  0  0  0  0  0  0  0  0
  149.5270  138.9421  153.3448 H   0  0  0  0  0  0  0  0  0  0  0  0
  150.9422  139.2978  154.2950 H   0  0  0  0  0  0  0  0  0  0  0  0
  148.4238  137.8901  155.2817 H   0  0  0  0  0  0  0  0  0  0  0  0
  151.2432  136.7861  154.8703 H   0  0  0  0  0  0  0  0  0  0  0  0
  149.8438  136.4432  153.8559 H   0  0  0  0  0  0  0  0  0  0  0  0
  149.8736  135.8937  155.5273 H   0  0  0  0  0  0  0  0  0  0  0  0
  149.5982  137.5951  157.4310 H   0  0  0  0  0  0  0  0  0  0  0  0
  150.9822  138.4600  156.8265 H   0  0  0  0  0  0  0  0  0  0  0  0
  149.5440  139.9435  158.2314 H   0  0  0  0  0  0  0  0  0  0  0  0
  148.1740  139.5612  157.2395 H   0  0  0  0  0  0  0  0  0  0  0  0
  153.2322  139.8455  160.7561 H   0  0  0  0  0  0  0  0  0  0  0  0
  153.8108  141.2791  161.5917 H   0  0  0  0  0  0  0  0  0  0  0  0
  154.5965  140.7597  160.1084 H   0  0  0  0  0  0  0  0  0  0  0  0
  1  2  1  0  0  0  0
  1 19  1  0  0  0  0
  1 20  1  0  0  0  0
  1 21  1  0  0  0  0
  2 17  2  0  0  0  0
  2  3  1  0  0  0  0
  3  4  2  0  0  0  0
  4  5  1  0  0  0  0
  4 22  1  0  0  0  0
  5  6  1  0  0  0  0
  5 15  1  0  0  0  0
  6  7  1  0  0  0  0
  6 23  1  0  0  0  0
  6 24  1  0  0  0  0
  7 14  1  0  0  0  0
  7  8  1  0  0  0  0
  7  9  1  0  0  0  0
  8 25  1  0  0  0  0
  9 10  1  0  0  0  0
  9 26  1  0  0  0  0
  9 27  1  0  0  0  0
 10 11  1  0  0  0  0
 10 28  1  0  0  0  0
 10 29  1  0  0  0  0
 11 12  1  0  0  0  0
 11 13  1  0  0  0  0
 11 30  1  0  0  0  0
 12 31  1  0  0  0  0
 12 32  1  0  0  0  0
 12 33  1  0  0  0  0
 13 14  1  0  0  0  0
 13 34  1  0  0  0  0
 13 35  1  0  0  0  0
 14 36  1  0  0  0  0
 14 37  1  0  0  0  0
 15 16  2  0  0  0  0
 15 17  1  0  0  0  0
 17 18  1  0  0  0  0
 18 38  1  0  0  0  0
 18 39  1  0  0  0  0
 18 40  1  0  0  0  0
M  END
> <s_m_source_file>
AV-unprocessed.smi

> <i_m_source_file_index>
2462

> <i_lp_mmshare_version>
43012

> <i_f3d_flags>
0

> <s_epik_input>
W0NIM11jMW5bY0hdbihjKD1PKWMxW0NIM10pW0NIMl1bQ0BAXTIoW09IXSlbQ0gyXVtDSDJdW0NAQEhdKFtDSDNdKVtDSDJdW0NIMl0y

> <s_epik_cmdline>
J2VwaWtfcHl0aG9uJywgJy1waCcsICc3LjAnLCAnLXRuJywgJzgnLCAnLW1hJywgJzIwMCcsICctbWV0YWxfYmluZGluZycsICctaW1hZScsICc8aW5maWxlLm1hZT4nLCAnLW9tYWUnLCAnPG91dGZpbGUubWFlPic=

> <r_lp_tautomer_probability>
1

> <r_epik_Ionization_Penalty>
0.000179745

> <r_epik_Ionization_Penalty_Charging>
2.35483e-07

> <r_epik_Ionization_Penalty_Neutral>
0.00017951

> <r_epik_State_Penalty>
-0

> <r_epik_Charging_Adjusted_Penalty>
2.35483e-07

> <i_epik_Tot_Q>
0

> <i_epik_Tot_abs_Q>
0

> <r_epik_Metal_State_Penalty>
-0

> <b_epik_Metal_Only>
0

> <s_lp_Force_Field>
OPLS_2005

> <r_lp_Energy>
24.5365

> <b_lp_Chiralities_Consistent>
1

> <s_lp_Variant>
AV-unprocessed.smi:2462-1

> <Gold.Version>
5.8.1

> <Gold.Id.Protein>
6NUR|6NUR_protein|mol2

> <Gold.PLP.Fitness>
42.8457

> <Gold.PLP.PLP>
-34.3991

> <Gold.PLP.part.hbond>
-2.0000

> <Gold.PLP.part.metal>
0.0000

> <Gold.PLP.part.buried>
-5.0044

> <Gold.PLP.part.nonpolar>
-28.4211

> <Gold.PLP.part.repulsive>
0.0659

> <Gold.PLP.ligand.clash>
0.0000

> <Gold.PLP.ligand.torsion>
0.2197

> <Gold.PLP.Chemscore.Hbond>
1.9360

> <Gold.PLP.Chemscore.CHOScore>
1.0000

> <Gold.PLP.Chemscore.Metal>
0.0000

> <Gold.Chemscore.Hbonds>
donor molecule, donor type, donor heavy atom, donor atom, acceptor molecule, acceptor atom, score
      L1  H     8    25       P1  8028  0.96
      P1  H  7997  8008       L1    16  1.00
      L1  C     4    22       P1  8028  1.00

> <Gold.PLP.Chemscore.Internal.Correction>
0.0780

> <Gold.Rescore>
     Score         DG    S(hbond)    S(metal)    S(lipo)     H(rot)  DE(clash)    DE(int)     intcor
     16.80     -17.18       1.94        0.00      81.30       1.68       0.04       0.34       ----

> <Gold.Chemscore.Fitness>
16.8037

> <Gold.Chemscore.DG>
-17.1790

> <Gold.Chemscore.ZeroCoef>
-5.4800

> <Gold.Chemscore.Hbond>
1.9390

> <Gold.Chemscore.Metal>
0.0000

> <Gold.Chemscore.Lipo>
81.3049

> <Gold.Chemscore.Internal_Hbond>
0.0000

> <Gold.Chemscore.DEClash>
0.0376

> <Gold.Chemscore.DEInternal>
0.3377

> <Gold.Chemscore.Rot>
1.6758

> <Gold.Chemscore.Internal.Correction>
   9.000000E+99

> <Gold.Chemscore.Hbonds>
donor molecule, donor type, donor heavy atom, donor atom, acceptor molecule, acceptor atom, score
      L1  H     8    25       P1  8028  0.88
      P1  H  7997  8008       L1    16  0.95

> <Gold.Chemscore.Hbond.Weighted>
-6.4763

> <Gold.Chemscore.Metal.Weighted>
-0.0000

> <Gold.Chemscore.Lipo.Weighted>
-9.5127

> <Gold.Chemscore.Internal_Hbond.Weighted>
0.0000

> <Gold.Chemscore.DEClash.Weighted>
0.0376

> <Gold.Chemscore.DEInternal.Weighted>
0.3377

> <Gold.Chemscore.Rot.Weighted>
4.2899

> <Gold.Chemscore.Internal.Correction.Weighted>
   9.000000E+99

> <Gold.Protein.RotatedTorsions>
[ 6907 6896 6895 6894 ] final  107.07 input  -60.11 | X-H torsion
[ 7974 7965 7964 7962 ] final   36.02 input  175.53 | X-H torsion
[ 8008 7997 7996 7995 ] final  -73.69 input   59.86 | X-H torsion
[ 10167 10162 10161 10158 ] final   96.05 input  -65.29 | X-H torsion
[ 10718 10713 10712 10709 ] final   40.93 input   66.30 | X-H torsion
[ 10763 10752 10751 10750 ] final -166.00 input  -60.55 | X-H torsion
[ 11005 11000 10999 10996 ] final   -9.82 input  -57.11 | X-H torsion

> <Gold.Protein.ActiveResidues>
 VAL166  LYS551  ARG553  GLY616  TRP617  ASP618  TYR619  PRO620  LYS621  CYS622 
 ASP623  PHE694  ASN695  SER759  ASP760  ASP761  ALA762  ILE779  LEU786  VAL792 
 PHE793  MET794  SER795  GLU796  ALA797  LYS798  CYS799  TRP800  GLU811  SER814 

> <Gold.Protein.RotatedAtoms>
  152.5169  133.9289  159.7570 H   0  0  0  0  0  0  0  0  0  0  0  0  # atno 6907 bound_to 6896
  150.9644  133.6402  159.2755 H   0  0  0  0  0  0  0  0  0  0  0  0  # atno 6908 bound_to 6896
  151.3636  135.0914  159.9495 H   0  0  0  0  0  0  0  0  0  0  0  0  # atno 6909 bound_to 6896
  146.1241  139.6070  142.9270 H   0  0  0  0  0  0  0  0  0  0  0  0  # atno 7974 bound_to 7965
  154.5268  140.0774  156.8274 H   0  0  0  0  0  0  0  0  0  0  0  0  # atno 8008 bound_to 7997
  155.3458  140.3410  155.4221 H   0  0  0  0  0  0  0  0  0  0  0  0  # atno 8009 bound_to 7997
  156.1740  140.1629  156.8382 H   0  0  0  0  0  0  0  0  0  0  0  0  # atno 8010 bound_to 7997
  139.7930  144.6844  150.9866 H   0  0  0  0  0  0  0  0  0  0  0  0  # atno 10167 bound_to 10162
  157.3878  130.7789  149.7244 H   0  0  0  0  0  0  0  0  0  0  0  0  # atno 10718 bound_to 10713
  154.6876  135.2965  154.9525 H   0  0  0  0  0  0  0  0  0  0  0  0  # atno 10763 bound_to 10752
  154.0499  135.6646  153.4803 H   0  0  0  0  0  0  0  0  0  0  0  0  # atno 10764 bound_to 10752
  153.0590  135.5127  154.7952 H   0  0  0  0  0  0  0  0  0  0  0  0  # atno 10765 bound_to 10752
  140.7382  133.8692  155.8947 H   0  0  0  0  0  0  0  0  0  0  0  0  # atno 11005 bound_to 11000
  145.5402  141.0421  143.2335 LP  0  0  0  0  0  0  0  0  0  0  0  0  # atno 17320 bound_to 7965
  144.7626  139.6921  143.7228 LP  0  0  0  0  0  0  0  0  0  0  0  0  # atno 17321 bound_to 7965
  140.7820  143.4360  151.0622 LP  0  0  0  0  0  0  0  0  0  0  0  0  # atno 17342 bound_to 10162
  139.8036  143.8049  152.3165 LP  0  0  0  0  0  0  0  0  0  0  0  0  # atno 17343 bound_to 10162
  155.9791  130.4044  150.3609 LP  0  0  0  0  0  0  0  0  0  0  0  0  # atno 17370 bound_to 10713
  157.1722  131.0371  151.2790 LP  0  0  0  0  0  0  0  0  0  0  0  0  # atno 17371 bound_to 10713
  140.9860  134.1342  157.4452 LP  0  0  0  0  0  0  0  0  0  0  0  0  # atno 17394 bound_to 11000
  139.8811  135.0025  156.6133 LP  0  0  0  0  0  0  0  0  0  0  0  0  # atno 17395 bound_to 11000

$$$$
