#       Name:                AV-unprocessed.smi:1560
#       Creating user name   scv26
#       Creation time:       Fri Mar 27 06:47:22 2020


#       File generated by GOLD software.
#

@<TRIPOS>MOLECULE
AV-unprocessed.smi:1560
    56    57     1
SMALL
NO_CHARGES


@<TRIPOS>ATOM
      1 ****        -3.8328  -0.8869  -0.5084 C.3            1 S1                 0.0000
      2 ****        -2.3019  -0.7569  -0.5991 C.3            1 S1                 0.0000
      3 ****        -1.6075  -0.1077   0.6374 C.3            1 S1                 0.0000
      4 ****        -2.0480   1.3794   0.6902 C.3            1 S1                 0.0000
      5 ****        -0.0626  -0.1706   0.4482 C.3            1 S1                 0.0000
      6 ****         0.3926   0.5370  -0.7450 N.am           1 S1                 0.0000
      7 ****         1.6367   0.4701  -1.2396 C.2            1 S1                 0.0000
      8 ****         2.5267  -0.2084  -0.7247 O.2            1 S1                 0.0000
      9 ****         1.8963   1.2788  -2.5192 C.3            1 S1                 0.0000
     10 ****         3.3253   1.4330  -2.8291 N.am           1 S1                 0.0000
     11 ****         3.9419   0.5758  -3.7295 C.2            1 S1                 0.0000
     12 ****         5.2540   0.6541  -4.0550 C.2            1 S1                 0.0000
     13 ****         6.1044   1.6759  -3.4541 C.2            1 S1                 0.0000
     14 ****         7.3016   1.8290  -3.6862 O.2            1 S1                 0.0000
     15 ****         5.4484   2.5168  -2.5510 N.am           1 S1                 0.0000
     16 ****         4.0973   2.4396  -2.2089 C.2            1 S1                 0.0000
     17 ****         3.6194   3.2284  -1.3944 O.2            1 S1                 0.0000
     18 ****        -2.0210  -0.8223   1.9007 N.4            1 S1                 1.0000
     19 ****        -1.6829  -2.2727   1.9680 C.3            1 S1                 0.0000
     20 ****        -2.3400  -2.9217   3.1965 C.3            1 S1                 0.0000
     21 ****        -1.9018  -2.2577   4.3732 O.3            1 S1                 0.0000
     22 ****        -2.2813  -0.8889   4.3763 C.3            1 S1                 0.0000
     23 ****        -1.6376  -0.1636   3.1818 C.3            1 S1                 0.0000
     24 ****         5.9979   3.2384  -2.1073 H              1 S1                 0.0000
     25 ****        -4.2289  -1.3457  -1.4144 H              1 S1                 0.0000
     26 ****        -4.3166   0.0835  -0.4006 H              1 S1                 0.0000
     27 ****        -4.1395  -1.5118   0.3302 H              1 S1                 0.0000
     28 ****        -1.8761  -1.7387  -0.8045 H              1 S1                 0.0000
     29 ****        -2.0758  -0.1747  -1.4933 H              1 S1                 0.0000
     30 ****        -1.9743   1.8587  -0.2866 H              1 S1                 0.0000
     31 ****        -1.4247   1.9666   1.3649 H              1 S1                 0.0000
     32 ****        -3.0815   1.4847   1.0212 H              1 S1                 0.0000
     33 ****         0.4521   0.2621   1.3065 H              1 S1                 0.0000
     34 ****         0.2709  -1.2059   0.3711 H              1 S1                 0.0000
     35 ****        -0.2816   1.1158  -1.2250 H              1 S1                 0.0000
     36 ****         1.3853   0.7811  -3.3448 H              1 S1                 0.0000
     37 ****         1.4194   2.2577  -2.4356 H              1 S1                 0.0000
     38 ****         3.3513  -0.1999  -4.1962 H              1 S1                 0.0000
     39 ****         5.6766  -0.0441  -4.7631 H              1 S1                 0.0000
     40 ****        -2.0225  -2.8063   1.0827 H              1 S1                 0.0000
     41 ****        -0.6031  -2.4088   2.0313 H              1 S1                 0.0000
     42 ****        -3.4282  -2.8864   3.1227 H              1 S1                 0.0000
     43 ****        -2.0592  -3.9731   3.2609 H              1 S1                 0.0000
     44 ****        -3.3686  -0.8002   4.3454 H              1 S1                 0.0000
     45 ****        -1.9527  -0.4349   5.3114 H              1 S1                 0.0000
     46 ****        -0.5535  -0.1642   3.2963 H              1 S1                 0.0000
     47 ****        -1.9649   0.8737   3.2153 H              1 S1                 0.0000
     48 ****        -3.0304  -0.7890   1.8856 H              1 S1                 0.0000
     49 ****         2.3356  -0.7413   0.0995 LP             1 S1                 0.0000
     50 ****         3.4403  -0.2262  -1.1311 LP             1 S1                 0.0000
     51 ****         7.7668   1.2247  -4.3331 LP             1 S1                 0.0000
     52 ****         7.8105   2.5579  -3.2282 LP             1 S1                 0.0000
     53 ****         2.6514   3.1699  -1.1504 LP             1 S1                 0.0000
     54 ****         4.1990   3.9280  -0.9765 LP             1 S1                 0.0000
     55 ****        -0.9050  -2.3178   4.4271 LP             1 S1                 0.0000
     56 ****        -2.3064  -2.7080   5.1691 LP             1 S1                 0.0000
@<TRIPOS>BOND
    1    1    2 1     
    2    1   25 1     
    3    1   26 1     
    4    1   27 1     
    5    2    3 1     
    6    2   28 1     
    7    2   29 1     
    8    3    4 1     
    9    3    5 1     
   10    3   18 1     
   11    4   30 1     
   12    4   31 1     
   13    4   32 1     
   14    5    6 1     
   15    5   33 1     
   16    5   34 1     
   17    6    7 am    
   18    6   35 1     
   19    7    8 2     
   20    7    9 1     
   21    9   10 1     
   22    9   36 1     
   23    9   37 1     
   24   10   16 1     
   25   10   11 1     
   26   11   12 2     
   27   11   38 1     
   28   12   13 1     
   29   12   39 1     
   30   13   14 2     
   31   13   15 1     
   32   15   24 1     
   33   15   16 1     
   34   16   17 2     
   35   18   23 1     
   36   18   19 1     
   37   18   48 1     
   38   19   20 1     
   39   19   40 1     
   40   19   41 1     
   41   20   21 1     
   42   20   42 1     
   43   20   43 1     
   44   21   22 1     
   45   22   23 1     
   46   22   44 1     
   47   22   45 1     
   48   23   46 1     
   49   23   47 1     
   50    8   49 1     
   51    8   50 1     
   52   14   51 1     
   53   14   52 1     
   54   17   53 1     
   55   17   54 1     
   56   21   55 1     
   57   21   56 1     
@<TRIPOS>SUBSTRUCTURE
      1 S1             1
@<TRIPOS>SET
LONE_PAIRS      STATIC     ATOMS    <user>   **** ""
8 49 50 51 52 53 54 55 56
DONOR_HYDROGENS      STATIC     ATOMS    <user>   **** ""
3 35 24 48
ATOM$BLUE        STATIC     ATOMS    COLORGROUP SYSTEM
8 49 50 51 52 53 54 55 56
ATOM$RED        STATIC     ATOMS    COLORGROUP SYSTEM
3 35 24 48
