#       Name:                AV-unprocessed.smi:2804
#       Creating user name   scv26
#       Creation time:       Fri Mar 27 15:24:45 2020


#       File generated by GOLD software.
#

@<TRIPOS>MOLECULE
AV-unprocessed.smi:2804
    39    40     1
SMALL
NO_CHARGES


@<TRIPOS>ATOM
      1 ****        -3.7663   2.6749  -0.7303 C.3            1 S1                 0.0000
      2 ****        -2.5279   1.7734  -0.6970 C.3            1 S1                 0.0000
      3 ****        -2.0874   1.4302   0.7346 C.3            1 S1                 0.0000
      4 ****        -0.9152   0.5586   0.7325 N.am           1 S1                 0.0000
      5 ****         0.3805   0.9510   0.7289 C.2            1 S1                 0.0000
      6 ****         0.7837   2.1139   0.7369 O.2            1 S1                 0.0000
      7 ****         1.1553  -0.1591   0.7031 N.am           1 S1                 0.0000
      8 ****         2.6188  -0.1984   0.6702 C.3            1 S1                 0.0000
      9 ****         3.2297  -0.2307  -0.7574 C.3            1 S1                 0.0000
     10 ****         2.2492  -0.3628  -1.7729 O.3            1 S1                 0.0000
     11 ****         4.1119   0.9958  -1.0643 C.3            1 S1                 0.0000
     12 ****         4.6456   0.8853  -2.2812 F              1 S1                 0.0000
     13 ****         3.4051   2.1236  -0.9880 F              1 S1                 0.0000
     14 ****         5.1113   1.0560  -0.1839 F              1 S1                 0.0000
     15 ****         0.3318  -1.2939   0.6757 C.ar           1 S1                 0.0000
     16 ****         0.6458  -2.6632   0.6262 C.ar           1 S1                 0.0000
     17 ****        -0.4364  -3.5736   0.5967 C.ar           1 S1                 0.0000
     18 ****        -1.7775  -3.1095   0.6134 C.ar           1 S1                 0.0000
     19 ****        -2.0648  -1.7250   0.6602 C.ar           1 S1                 0.0000
     20 ****        -0.9712  -0.8422   0.6920 C.ar           1 S1                 0.0000
     21 ****        -4.0525   2.9034  -1.7571 H              1 S1                 0.0000
     22 ****        -3.5797   3.6197  -0.2191 H              1 S1                 0.0000
     23 ****        -4.6169   2.1937  -0.2469 H              1 S1                 0.0000
     24 ****        -2.7389   0.8553  -1.2468 H              1 S1                 0.0000
     25 ****        -1.7111   2.2681  -1.2240 H              1 S1                 0.0000
     26 ****        -1.8636   2.3448   1.2861 H              1 S1                 0.0000
     27 ****        -2.9009   0.9448   1.2747 H              1 S1                 0.0000
     28 ****         3.0123   0.6485   1.2340 H              1 S1                 0.0000
     29 ****         2.9523  -1.0767   1.2234 H              1 S1                 0.0000
     30 ****         3.8599  -1.1181  -0.8297 H              1 S1                 0.0000
     31 ****         1.7592  -1.1552  -1.6151 H              1 S1                 0.0000
     32 ****         1.6681  -3.0106   0.6090 H              1 S1                 0.0000
     33 ****        -0.2396  -4.6350   0.5594 H              1 S1                 0.0000
     34 ****        -2.5890  -3.8219   0.5885 H              1 S1                 0.0000
     35 ****        -3.0832  -1.3664   0.6688 H              1 S1                 0.0000
     36 ****         0.1293   2.8700   0.7471 LP             1 S1                 0.0000
     37 ****         1.7658   2.3027   0.7332 LP             1 S1                 0.0000
     38 ****         2.6943  -0.4137  -2.6670 LP             1 S1                 0.0000
     39 ****         1.6333   0.4247  -1.7516 LP             1 S1                 0.0000
@<TRIPOS>BOND
    1    1    2 1     
    2    1   21 1     
    3    1   22 1     
    4    1   23 1     
    5    2    3 1     
    6    2   24 1     
    7    2   25 1     
    8    3    4 1     
    9    3   26 1     
   10    3   27 1     
   11    4   20 1     
   12    4    5 am    
   13    5    6 2     
   14    5    7 am    
   15    7    8 1     
   16    7   15 1     
   17    8    9 1     
   18    8   28 1     
   19    8   29 1     
   20    9   10 1     
   21    9   11 1     
   22    9   30 1     
   23   10   31 1     
   24   11   12 1     
   25   11   13 1     
   26   11   14 1     
   27   15   20 ar    
   28   15   16 ar    
   29   16   17 ar    
   30   16   32 1     
   31   17   18 ar    
   32   17   33 1     
   33   18   19 ar    
   34   18   34 1     
   35   19   20 ar    
   36   19   35 1     
   37    6   36 1     
   38    6   37 1     
   39   10   38 1     
   40   10   39 1     
@<TRIPOS>SUBSTRUCTURE
      1 S1             1
@<TRIPOS>SET
LONE_PAIRS      STATIC     ATOMS    <user>   **** ""
4 36 37 38 39
DONOR_HYDROGENS      STATIC     ATOMS    <user>   **** ""
1 31
ATOM$BLUE        STATIC     ATOMS    COLORGROUP SYSTEM
4 36 37 38 39
ATOM$RED        STATIC     ATOMS    COLORGROUP SYSTEM
1 31
