AV-unprocessed.smi:278|AV-procd|sdf|2088|dock8
  -GOLD-   2262021363D 1   1.00000     0.00000
 Structure written by MMmdl.
 50 54  0  0  0  0  0  0  0  0  1 V2000
  145.1446  136.1430  159.8370 O   0  0  0  0  0  0  0  0  0  0  0  0
  146.0358  136.4639  160.9627 S   0  0  0  0  0  0  0  0  0  0  0  0
  146.0591  137.8162  161.5407 O   0  0  0  0  0  0  0  0  0  0  0  0
  145.7635  135.2454  162.3074 C   0  0  0  0  0  0  0  0  0  0  0  0
  147.1320  134.6157  162.6011 C   0  0  0  0  0  0  0  0  0  0  0  0
  147.9843  134.6384  161.3189 C   0  0  1  0  0  0  0  0  0  0  0  0
  147.5720  133.5888  160.2812 C   0  0  0  0  0  0  0  0  0  0  0  0
  147.9031  134.1724  158.9879 N   0  0  0  0  0  0  0  0  0  0  0  0
  147.4776  133.5949  157.8333 C   0  0  0  0  0  0  0  0  0  0  0  0
  146.5372  132.6142  157.8969 N   0  0  0  0  0  0  0  0  0  0  0  0
  146.0822  132.0336  156.7832 C   0  0  0  0  0  0  0  0  0  0  0  0
  146.4291  132.2715  155.5178 N   0  0  0  0  0  0  0  0  0  0  0  0
  147.3860  133.2395  155.4439 C   0  0  0  0  0  0  0  0  0  0  0  0
  147.9654  133.9436  156.5387 C   0  0  0  0  0  0  0  0  0  0  0  0
  148.9161  134.8416  156.0632 N   0  0  0  0  0  0  0  0  0  0  0  0
  148.8883  134.6886  154.7677 C   0  0  0  0  0  0  0  0  0  0  0  0
  147.9910  133.7517  154.3106 N   0  0  0  0  0  0  0  0  0  0  0  0
  147.7394  133.3862  152.9280 C   0  0  0  0  0  0  0  0  0  0  0  0
  146.4060  133.9579  152.4065 C   0  0  1  0  0  0  0  0  0  0  0  0
  146.5614  135.3429  152.1603 O   0  0  0  0  0  0  0  0  0  0  0  0
  145.9387  133.2687  151.1113 C   0  0  2  0  0  0  0  0  0  0  0  0
  144.6410  133.8337  150.5282 C   0  0  0  0  0  0  0  0  0  0  0  0
  144.1252  132.6584  149.7312 C   0  0  0  0  0  0  0  0  0  0  0  0
  144.4838  131.4898  150.6430 C   0  0  0  0  0  0  0  0  0  0  0  0
  145.6511  131.8926  151.3548 O   0  0  0  0  0  0  0  0  0  0  0  0
  147.9801  135.6242  159.0945 C   0  0  0  0  0  0  0  0  0  0  0  0
  147.7658  135.9573  160.5771 C   0  0  1  0  0  0  0  0  0  0  0  0
  149.0429  134.5119  161.5507 H   0  0  0  0  0  0  0  0  0  0  0  0
  148.4339  136.7439  160.9287 H   0  0  0  0  0  0  0  0  0  0  0  0
  145.3244  135.7350  163.1768 H   0  0  0  0  0  0  0  0  0  0  0  0
  145.0617  134.4950  161.9428 H   0  0  0  0  0  0  0  0  0  0  0  0
  147.6349  135.2156  163.3605 H   0  0  0  0  0  0  0  0  0  0  0  0
  147.0341  133.6091  163.0088 H   0  0  0  0  0  0  0  0  0  0  0  0
  148.0962  132.6453  160.4375 H   0  0  0  0  0  0  0  0  0  0  0  0
  146.4996  133.3937  160.3275 H   0  0  0  0  0  0  0  0  0  0  0  0
  145.3303  131.2715  156.9267 H   0  0  0  0  0  0  0  0  0  0  0  0
  149.5199  135.2634  154.1059 H   0  0  0  0  0  0  0  0  0  0  0  0
  148.5718  133.7366  152.3160 H   0  0  0  0  0  0  0  0  0  0  0  0
  147.7392  132.2976  152.8607 H   0  0  0  0  0  0  0  0  0  0  0  0
  145.6382  133.8376  153.1720 H   0  0  0  0  0  0  0  0  0  0  0  0
  147.4222  135.4861  151.7975 H   0  0  0  0  0  0  0  0  0  0  0  0
  146.7218  133.3144  150.3525 H   0  0  0  0  0  0  0  0  0  0  0  0
  143.9360  134.0824  151.3231 H   0  0  0  0  0  0  0  0  0  0  0  0
  144.7997  134.7251  149.9208 H   0  0  0  0  0  0  0  0  0  0  0  0
  143.0587  132.7197  149.5132 H   0  0  0  0  0  0  0  0  0  0  0  0
  144.6655  132.5804  148.7868 H   0  0  0  0  0  0  0  0  0  0  0  0
  143.6851  131.3107  151.3639 H   0  0  0  0  0  0  0  0  0  0  0  0
  144.6532  130.5663  150.0888 H   0  0  0  0  0  0  0  0  0  0  0  0
  148.9757  135.9386  158.7802 H   0  0  0  0  0  0  0  0  0  0  0  0
  147.2558  136.1314  158.4570 H   0  0  0  0  0  0  0  0  0  0  0  0
  1  2  2  0  0  0  0
  2 27  1  0  0  0  0
  2  3  2  0  0  0  0
  2  4  1  0  0  0  0
  4  5  1  0  0  0  0
  4 30  1  0  0  0  0
  4 31  1  0  0  0  0
  5  6  1  0  0  0  0
  5 32  1  0  0  0  0
  5 33  1  0  0  0  0
  6 28  1  0  0  0  0
  6 27  1  0  0  0  0
  6  7  1  0  0  0  0
  7  8  1  0  0  0  0
  7 34  1  0  0  0  0
  7 35  1  0  0  0  0
  8  9  1  0  0  0  0
  8 26  1  0  0  0  0
  9 14  1  0  0  0  0
  9 10  2  0  0  0  0
 10 11  1  0  0  0  0
 11 12  2  0  0  0  0
 11 36  1  0  0  0  0
 12 13  1  0  0  0  0
 13 17  1  0  0  0  0
 13 14  2  0  0  0  0
 14 15  1  0  0  0  0
 15 16  2  0  0  0  0
 16 17  1  0  0  0  0
 16 37  1  0  0  0  0
 17 18  1  0  0  0  0
 18 19  1  0  0  0  0
 18 38  1  0  0  0  0
 18 39  1  0  0  0  0
 19 20  1  0  0  0  0
 19 21  1  0  0  0  0
 19 40  1  0  0  0  0
 20 41  1  0  0  0  0
 21 25  1  0  0  0  0
 21 22  1  0  0  0  0
 21 42  1  0  0  0  0
 22 23  1  0  0  0  0
 22 43  1  0  0  0  0
 22 44  1  0  0  0  0
 23 24  1  0  0  0  0
 23 45  1  0  0  0  0
 23 46  1  0  0  0  0
 24 25  1  0  0  0  0
 24 47  1  0  0  0  0
 24 48  1  0  0  0  0
 26 27  1  0  0  0  0
 26 49  1  0  0  0  0
 26 50  1  0  0  0  0
 27 29  1  0  0  0  0
M  END
> <s_m_source_file>
AV-unprocessed.smi

> <i_m_source_file_index>
278

> <i_lp_mmshare_version>
43012

> <i_f3d_flags>
0

> <s_epik_input>
W0NIMl0xW0NIMl1TKD1PKSg9TylbQ0BASF0oW0NAQEhdMTIpW0NIMl1OKFtDSDJdMiljKG5bY0hdbjMpYyhjMzQpbltjSF1uNFtDSDJdW0NASF0oW09IXSlbQ0BASF01W0NIMl1bQ0gyXVtDSDJdTzU=

> <s_epik_cmdline>
J2VwaWtfcHl0aG9uJywgJy1waCcsICc3LjAnLCAnLXRuJywgJzgnLCAnLW1hJywgJzIwMCcsICctbWV0YWxfYmluZGluZycsICctaW1hZScsICc8aW5maWxlLm1hZT4nLCAnLW9tYWUnLCAnPG91dGZpbGUubWFlPic=

> <r_lp_tautomer_probability>
1

> <r_epik_Ionization_Penalty>
0.000636766

> <r_epik_Ionization_Penalty_Charging>
0

> <r_epik_Ionization_Penalty_Neutral>
0.000636766

> <r_epik_State_Penalty>
0.000329976

> <r_epik_Charging_Adjusted_Penalty>
0.000329976

> <i_epik_Tot_Q>
0

> <i_epik_Tot_abs_Q>
0

> <r_epik_Metal_State_Penalty>
-0

> <b_epik_Metal_Only>
0

> <s_lp_Force_Field>
OPLS_2005

> <r_lp_Energy>
48.1975

> <b_lp_Chiralities_Consistent>
1

> <s_lp_Variant>
AV-unprocessed.smi:278-2

> <Gold.Version>
5.8.1

> <Gold.Id.Protein>
6NUR|6NUR_protein|mol2

> <Gold.PLP.Fitness>
43.2494

> <Gold.PLP.PLP>
-35.9724

> <Gold.PLP.part.hbond>
-2.0000

> <Gold.PLP.part.metal>
0.0000

> <Gold.PLP.part.buried>
-6.4398

> <Gold.PLP.part.nonpolar>
-27.9336

> <Gold.PLP.part.repulsive>
0.2535

> <Gold.PLP.ligand.clash>
0.0000

> <Gold.PLP.ligand.torsion>
0.7628

> <Gold.PLP.Chemscore.Hbond>
1.9280

> <Gold.PLP.Chemscore.CHOScore>
0.9077

> <Gold.PLP.Chemscore.Metal>
0.0000

> <Gold.Chemscore.Hbonds>
donor molecule, donor type, donor heavy atom, donor atom, acceptor molecule, acceptor atom, score
      L1  H    20    41       P1  7948  1.00
      P1  H  6934  6947       L1     3  0.90
      L1  C    16    37       P1  7948  0.98

> <Gold.PLP.Chemscore.Internal.Correction>
0.2955

> <Gold.Rescore>
     Score         DG    S(hbond)    S(metal)    S(lipo)     H(rot)  DE(clash)    DE(int)     intcor
     15.81     -16.38       1.93        0.00      84.66       2.13       0.01       0.56       ----

> <Gold.Chemscore.Fitness>
15.8089

> <Gold.Chemscore.DG>
-16.3764

> <Gold.Chemscore.ZeroCoef>
-5.4800

> <Gold.Chemscore.Hbond>
1.9330

> <Gold.Chemscore.Metal>
0.0000

> <Gold.Chemscore.Lipo>
84.6574

> <Gold.Chemscore.Internal_Hbond>
0.0000

> <Gold.Chemscore.DEClash>
0.0058

> <Gold.Chemscore.DEInternal>
0.5616

> <Gold.Chemscore.Rot>
2.1346

> <Gold.Chemscore.Internal.Correction>
   9.000000E+99

> <Gold.Chemscore.Hbonds>
donor molecule, donor type, donor heavy atom, donor atom, acceptor molecule, acceptor atom, score
      L1  H    20    41       P1  7948  0.96
      P1  H  6934  6947       L1     3  0.87

> <Gold.Chemscore.Hbond.Weighted>
-6.4561

> <Gold.Chemscore.Metal.Weighted>
-0.0000

> <Gold.Chemscore.Lipo.Weighted>
-9.9049

> <Gold.Chemscore.Internal_Hbond.Weighted>
0.0000

> <Gold.Chemscore.DEClash.Weighted>
0.0058

> <Gold.Chemscore.DEInternal.Weighted>
0.5616

> <Gold.Chemscore.Rot.Weighted>
5.4646

> <Gold.Chemscore.Internal.Correction.Weighted>
   9.000000E+99

> <Gold.Protein.RotatedTorsions>
[ 6907 6896 6895 6894 ] final  169.92 input  -60.11 | X-H torsion
[ 7974 7965 7964 7962 ] final   95.83 input  175.53 | X-H torsion
[ 8008 7997 7996 7995 ] final  120.45 input   59.86 | X-H torsion
[ 10167 10162 10161 10158 ] final  101.19 input  -65.29 | X-H torsion
[ 10718 10713 10712 10709 ] final  -51.97 input   66.30 | X-H torsion
[ 10763 10752 10751 10750 ] final  -30.27 input  -60.55 | X-H torsion
[ 11005 11000 10999 10996 ] final  136.96 input  -57.11 | X-H torsion

> <Gold.Protein.ActiveResidues>
 VAL166  LYS551  ARG553  GLY616  TRP617  ASP618  TYR619  PRO620  LYS621  CYS622 
 ASP623  PHE694  ASN695  SER759  ASP760  ASP761  ALA762  ILE779  LEU786  VAL792 
 PHE793  MET794  SER795  GLU796  ALA797  LYS798  CYS799  TRP800  GLU811  SER814 

> <Gold.Protein.RotatedAtoms>
  151.8242  133.3399  159.3593 H   0  0  0  0  0  0  0  0  0  0  0  0  # atno 6907 bound_to 6896
  150.7285  134.5544  159.5820 H   0  0  0  0  0  0  0  0  0  0  0  0  # atno 6908 bound_to 6896
  152.2983  134.7642  160.0414 H   0  0  0  0  0  0  0  0  0  0  0  0  # atno 6909 bound_to 6896
  145.4469  139.2296  143.3061 H   0  0  0  0  0  0  0  0  0  0  0  0  # atno 7974 bound_to 7965
  156.2643  140.2830  156.1152 H   0  0  0  0  0  0  0  0  0  0  0  0  # atno 8008 bound_to 7997
  155.1215  140.0392  157.2768 H   0  0  0  0  0  0  0  0  0  0  0  0  # atno 8009 bound_to 7997
  154.6667  140.2578  155.7056 H   0  0  0  0  0  0  0  0  0  0  0  0  # atno 8010 bound_to 7997
  139.7460  144.6998  151.0504 H   0  0  0  0  0  0  0  0  0  0  0  0  # atno 10167 bound_to 10162
  156.1663  130.4149  149.9715 H   0  0  0  0  0  0  0  0  0  0  0  0  # atno 10718 bound_to 10713
  153.7783  135.6907  153.4893 H   0  0  0  0  0  0  0  0  0  0  0  0  # atno 10763 bound_to 10752
  153.1828  135.4500  155.0049 H   0  0  0  0  0  0  0  0  0  0  0  0  # atno 10764 bound_to 10752
  154.8091  135.3370  154.7288 H   0  0  0  0  0  0  0  0  0  0  0  0  # atno 10765 bound_to 10752
  140.0081  134.9450  157.0219 H   0  0  0  0  0  0  0  0  0  0  0  0  # atno 11005 bound_to 11000
  146.2525  140.5224  142.8887 LP  0  0  0  0  0  0  0  0  0  0  0  0  # atno 17320 bound_to 7965
  144.8086  140.6344  143.6430 LP  0  0  0  0  0  0  0  0  0  0  0  0  # atno 17321 bound_to 7965
  140.7792  143.4867  150.9947 LP  0  0  0  0  0  0  0  0  0  0  0  0  # atno 17342 bound_to 10162
  139.8555  143.7383  152.3176 LP  0  0  0  0  0  0  0  0  0  0  0  0  # atno 17343 bound_to 10162
  156.7529  130.9122  151.3638 LP  0  0  0  0  0  0  0  0  0  0  0  0  # atno 17370 bound_to 10713
  157.6770  130.9104  150.0174 LP  0  0  0  0  0  0  0  0  0  0  0  0  # atno 17371 bound_to 10713
  140.4604  134.1490  155.7191 LP  0  0  0  0  0  0  0  0  0  0  0  0  # atno 17394 bound_to 11000
  141.1691  133.8644  157.1624 LP  0  0  0  0  0  0  0  0  0  0  0  0  # atno 17395 bound_to 11000

$$$$
