AV-unprocessed.smi:1868|AV-procd|sdf|7588|dock6
  -GOLD-   22720 9303D 1   1.00000     0.00000
 Structure written by MMmdl.
 48 50  0  0  0  0  0  0  0  0  3 V2000
  149.6097  141.3338  154.6159 C   0  0  0  0  0  0  0  0  0  0  0  0
  150.3538  141.6481  155.8702 C   0  0  0  0  0  0  0  0  0  0  0  0
  150.4861  142.8816  156.4344 N   0  3  0  0  0  0  0  0  0  0  0  0
  151.2461  142.7888  157.6011 C   0  0  0  0  0  0  0  0  0  0  0  0
  151.6433  143.7641  158.5104 C   0  0  0  0  0  0  0  0  0  0  0  0
  152.4186  143.3299  159.6056 C   0  0  0  0  0  0  0  0  0  0  0  0
  152.7701  141.9734  159.7647 C   0  0  0  0  0  0  0  0  0  0  0  0
  152.3619  140.9933  158.8358 C   0  0  0  0  0  0  0  0  0  0  0  0
  151.5957  141.4315  157.7561 C   0  0  0  0  0  0  0  0  0  0  0  0
  151.0263  140.7659  156.6649 N   0  0  0  0  0  0  0  0  0  0  0  0
  151.2091  139.3118  156.5340 C   0  0  0  0  0  0  0  0  0  0  0  0
  151.8156  138.8962  155.1782 C   0  0  2  0  0  0  0  0  0  0  0  0
  152.5759  139.9738  154.6647 O   0  0  0  0  0  0  0  0  0  0  0  0
  150.7145  138.5224  154.1638 C   0  0  0  0  0  0  0  0  0  0  0  0
  150.1635  137.1573  154.3698 N   0  3  2  0  0  0  0  0  0  0  0  0
  149.0695  137.1437  155.3754 C   0  0  0  0  0  0  0  0  0  0  0  0
  148.4190  135.7536  155.4740 C   0  0  0  0  0  0  0  0  0  0  0  0
  149.4602  134.6719  155.8053 C   0  0  1  0  0  0  0  0  0  0  0  0
  148.8273  133.2751  155.8765 C   0  0  0  0  0  0  0  0  0  0  0  0
  150.5961  134.7313  154.7707 C   0  0  0  0  0  0  0  0  0  0  0  0
  151.2034  136.1418  154.6867 C   0  0  0  0  0  0  0  0  0  0  0  0
  149.1313  142.2297  154.2192 H   0  0  0  0  0  0  0  0  0  0  0  0
  148.8391  140.5881  154.8112 H   0  0  0  0  0  0  0  0  0  0  0  0
  150.2916  140.9419  153.8611 H   0  0  0  0  0  0  0  0  0  0  0  0
  151.3743  144.8036  158.3916 H   0  0  0  0  0  0  0  0  0  0  0  0
  152.7494  144.0515  160.3387 H   0  0  0  0  0  0  0  0  0  0  0  0
  153.3638  141.6791  160.6182 H   0  0  0  0  0  0  0  0  0  0  0  0
  152.6353  139.9572  158.9677 H   0  0  0  0  0  0  0  0  0  0  0  0
  151.8324  138.9696  157.3610 H   0  0  0  0  0  0  0  0  0  0  0  0
  150.2348  138.8418  156.6727 H   0  0  0  0  0  0  0  0  0  0  0  0
  152.4883  138.0558  155.3435 H   0  0  0  0  0  0  0  0  0  0  0  0
  153.2671  140.1817  155.2745 H   0  0  0  0  0  0  0  0  0  0  0  0
  149.8967  139.2437  154.2064 H   0  0  0  0  0  0  0  0  0  0  0  0
  151.1339  138.6019  153.1591 H   0  0  0  0  0  0  0  0  0  0  0  0
  149.4626  137.4461  156.3473 H   0  0  0  0  0  0  0  0  0  0  0  0
  148.3066  137.8732  155.1013 H   0  0  0  0  0  0  0  0  0  0  0  0
  147.6387  135.7675  156.2360 H   0  0  0  0  0  0  0  0  0  0  0  0
  147.9242  135.5158  154.5310 H   0  0  0  0  0  0  0  0  0  0  0  0
  149.8820  134.8942  156.7867 H   0  0  0  0  0  0  0  0  0  0  0  0
  148.3843  132.9902  154.9217 H   0  0  0  0  0  0  0  0  0  0  0  0
  148.0420  133.2376  156.6322 H   0  0  0  0  0  0  0  0  0  0  0  0
  149.5700  132.5207  156.1373 H   0  0  0  0  0  0  0  0  0  0  0  0
  151.3748  134.0131  155.0304 H   0  0  0  0  0  0  0  0  0  0  0  0
  150.2213  134.4371  153.7891 H   0  0  0  0  0  0  0  0  0  0  0  0
  151.9827  136.1410  153.9262 H   0  0  0  0  0  0  0  0  0  0  0  0
  151.6868  136.3965  155.6313 H   0  0  0  0  0  0  0  0  0  0  0  0
  149.7392  136.8848  153.4949 H   0  0  0  0  0  0  0  0  0  0  0  0
  150.0834  143.7255  156.0475 H   0  0  0  0  0  0  0  0  0  0  0  0
  1  2  1  0  0  0  0
  1 22  1  0  0  0  0
  1 23  1  0  0  0  0
  1 24  1  0  0  0  0
  2 10  1  0  0  0  0
  2  3  2  0  0  0  0
  3  4  1  0  0  0  0
  3 48  1  0  0  0  0
  4  9  2  0  0  0  0
  4  5  1  0  0  0  0
  5  6  2  0  0  0  0
  5 25  1  0  0  0  0
  6  7  1  0  0  0  0
  6 26  1  0  0  0  0
  7  8  2  0  0  0  0
  7 27  1  0  0  0  0
  8  9  1  0  0  0  0
  8 28  1  0  0  0  0
  9 10  1  0  0  0  0
 10 11  1  0  0  0  0
 11 12  1  0  0  0  0
 11 29  1  0  0  0  0
 11 30  1  0  0  0  0
 12 13  1  0  0  0  0
 12 14  1  0  0  0  0
 12 31  1  0  0  0  0
 13 32  1  0  0  0  0
 14 15  1  0  0  0  0
 14 33  1  0  0  0  0
 14 34  1  0  0  0  0
 15 21  1  0  0  0  0
 15 16  1  0  0  0  0
 15 47  1  0  0  0  0
 16 17  1  0  0  0  0
 16 35  1  0  0  0  0
 16 36  1  0  0  0  0
 17 18  1  0  0  0  0
 17 37  1  0  0  0  0
 17 38  1  0  0  0  0
 18 19  1  0  0  0  0
 18 20  1  0  0  0  0
 18 39  1  0  0  0  0
 19 40  1  0  0  0  0
 19 41  1  0  0  0  0
 19 42  1  0  0  0  0
 20 21  1  0  0  0  0
 20 43  1  0  0  0  0
 20 44  1  0  0  0  0
 21 45  1  0  0  0  0
 21 46  1  0  0  0  0
M  CHG  1   3   1
M  CHG  1  15   1
M  END
> <s_m_source_file>
AV-unprocessed.smi

> <i_m_source_file_index>
1868

> <i_lp_mmshare_version>
43012

> <i_f3d_flags>
0

> <s_epik_input>
W2NIXTFbY0hdW2NIXVtjSF1jKGMxMiluKGMobjIpW0NIM10pW0NIMl1bQ0BIXShbT0hdKVtDSDJdTjNbQ0gyXVtDSDJdW0NIXShbQ0gzXSlbQ0gyXVtDSDJdMw==

> <s_epik_cmdline>
J2VwaWtfcHl0aG9uJywgJy1waCcsICc3LjAnLCAnLXRuJywgJzgnLCAnLW1hJywgJzIwMCcsICctbWV0YWxfYmluZGluZycsICctaW1hZScsICc8aW5maWxlLm1hZT4nLCAnLW9tYWUnLCAnPG91dGZpbGUubWFlPic=

> <r_epik_Ionization_Penalty>
1.10901

> <r_epik_Ionization_Penalty_Charging>
1.10901

> <r_epik_Ionization_Penalty_Neutral>
6.90208e-07

> <r_epik_State_Penalty>
1.18788

> <r_epik_Charging_Adjusted_Penalty>
2.29689

> <i_epik_Tot_Q>
2

> <i_epik_Tot_abs_Q>
2

> <r_epik_Metal_State_Penalty>
5.19353

> <b_epik_Metal_Only>
0

> <s_lp_Force_Field>
OPLS_2005

> <r_lp_Energy>
30.2902

> <b_lp_Chiralities_Consistent>
1

> <s_lp_Variant>
AV-unprocessed.smi:1868-5

> <Gold.Version>
5.8.1

> <Gold.Id.Protein>
6NUR|6NUR_protein|mol2

> <Gold.PLP.Fitness>
53.6698

> <Gold.PLP.PLP>
-41.4115

> <Gold.PLP.part.hbond>
-2.8550

> <Gold.PLP.part.metal>
0.0000

> <Gold.PLP.part.buried>
-3.6049

> <Gold.PLP.part.nonpolar>
-34.3141

> <Gold.PLP.part.repulsive>
0.0948

> <Gold.PLP.ligand.clash>
0.0000

> <Gold.PLP.ligand.torsion>
0.8770

> <Gold.PLP.Chemscore.Hbond>
4.6560

> <Gold.PLP.Chemscore.CHOScore>
0.0000

> <Gold.PLP.Chemscore.Metal>
0.0000

> <Gold.Chemscore.Hbonds>
donor molecule, donor type, donor heavy atom, donor atom, acceptor molecule, acceptor atom, score
      L1  H     3    48       P1  8028  2.00
      L1  H    15    47       P1  7948  2.00
      P1  H  7989  7998       L1    13  0.50

> <Gold.PLP.Chemscore.Internal.Correction>
0.0443

> <Gold.Rescore>
     Score         DG    S(hbond)    S(metal)    S(lipo)     H(rot)  DE(clash)    DE(int)     intcor
     20.58     -21.62       2.67        0.00     105.09       1.99       0.00       1.03       ----

> <Gold.Chemscore.Fitness>
20.5841

> <Gold.Chemscore.DG>
-21.6179

> <Gold.Chemscore.ZeroCoef>
-5.4800

> <Gold.Chemscore.Hbond>
2.6729

> <Gold.Chemscore.Metal>
0.0000

> <Gold.Chemscore.Lipo>
105.0887

> <Gold.Chemscore.Internal_Hbond>
0.0000

> <Gold.Chemscore.DEClash>
0.0009

> <Gold.Chemscore.DEInternal>
1.0329

> <Gold.Chemscore.Rot>
1.9863

> <Gold.Chemscore.Internal.Correction>
   9.000000E+99

> <Gold.Chemscore.Hbonds>
donor molecule, donor type, donor heavy atom, donor atom, acceptor molecule, acceptor atom, score
      L1  H     3    48       P1  8028  0.97
      L1  H    15    47       P1  7948  0.55
      P1  H  7989  7998       L1    13  0.41

> <Gold.Chemscore.Hbond.Weighted>
-8.9275

> <Gold.Chemscore.Metal.Weighted>
-0.0000

> <Gold.Chemscore.Lipo.Weighted>
-12.2954

> <Gold.Chemscore.Internal_Hbond.Weighted>
0.0000

> <Gold.Chemscore.DEClash.Weighted>
0.0009

> <Gold.Chemscore.DEInternal.Weighted>
1.0329

> <Gold.Chemscore.Rot.Weighted>
5.0850

> <Gold.Chemscore.Internal.Correction.Weighted>
   9.000000E+99

> <Gold.Protein.RotatedTorsions>
[ 6907 6896 6895 6894 ] final -124.00 input  -60.11 | X-H torsion
[ 7974 7965 7964 7962 ] final  178.94 input  175.53 | X-H torsion
[ 8008 7997 7996 7995 ] final  -92.97 input   59.86 | X-H torsion
[ 10167 10162 10161 10158 ] final   83.27 input  -65.29 | X-H torsion
[ 10718 10713 10712 10709 ] final   53.61 input   66.30 | X-H torsion
[ 10763 10752 10751 10750 ] final -165.14 input  -60.55 | X-H torsion
[ 11005 11000 10999 10996 ] final   15.70 input  -57.11 | X-H torsion

> <Gold.Protein.ActiveResidues>
 VAL166  LYS551  ARG553  GLY616  TRP617  ASP618  TYR619  PRO620  LYS621  CYS622 
 ASP623  PHE694  ASN695  SER759  ASP760  ASP761  ALA762  ILE779  LEU786  VAL792 
 PHE793  MET794  SER795  GLU796  ALA797  LYS798  CYS799  TRP800  GLU811  SER814 

> <Gold.Protein.RotatedAtoms>
  150.8725  133.7485  159.2956 H   0  0  0  0  0  0  0  0  0  0  0  0  # atno 6907 bound_to 6896
  151.5092  135.1063  159.9859 H   0  0  0  0  0  0  0  0  0  0  0  0  # atno 6908 bound_to 6896
  152.4705  133.7974  159.6990 H   0  0  0  0  0  0  0  0  0  0  0  0  # atno 6909 bound_to 6896
  144.7151  140.0473  143.6436 H   0  0  0  0  0  0  0  0  0  0  0  0  # atno 7974 bound_to 7965
  154.7298  140.0503  157.0716 H   0  0  0  0  0  0  0  0  0  0  0  0  # atno 8008 bound_to 7997
  155.0317  140.3158  155.4737 H   0  0  0  0  0  0  0  0  0  0  0  0  # atno 8009 bound_to 7997
  156.2838  140.2148  156.5439 H   0  0  0  0  0  0  0  0  0  0  0  0  # atno 8010 bound_to 7997
  139.9201  144.6218  150.8449 H   0  0  0  0  0  0  0  0  0  0  0  0  # atno 10167 bound_to 10162
  157.5183  130.8547  149.8524 H   0  0  0  0  0  0  0  0  0  0  0  0  # atno 10718 bound_to 10713
  154.6961  135.2979  154.9410 H   0  0  0  0  0  0  0  0  0  0  0  0  # atno 10763 bound_to 10752
  154.0357  135.6664  153.4789 H   0  0  0  0  0  0  0  0  0  0  0  0  # atno 10764 bound_to 10752
  153.0647  135.5095  154.8079 H   0  0  0  0  0  0  0  0  0  0  0  0  # atno 10765 bound_to 10752
  140.4553  134.1182  155.7708 H   0  0  0  0  0  0  0  0  0  0  0  0  # atno 11005 bound_to 11000
  145.9974  139.3063  143.0948 LP  0  0  0  0  0  0  0  0  0  0  0  0  # atno 17320 bound_to 7965
  145.8833  140.9349  143.0590 LP  0  0  0  0  0  0  0  0  0  0  0  0  # atno 17321 bound_to 7965
  140.7664  143.3303  151.2424 LP  0  0  0  0  0  0  0  0  0  0  0  0  # atno 17342 bound_to 10162
  139.6869  143.9758  152.2839 LP  0  0  0  0  0  0  0  0  0  0  0  0  # atno 17343 bound_to 10162
  156.0335  130.3758  150.1622 LP  0  0  0  0  0  0  0  0  0  0  0  0  # atno 17370 bound_to 10713
  156.9811  130.9864  151.3437 LP  0  0  0  0  0  0  0  0  0  0  0  0  # atno 17371 bound_to 10713
  141.1646  133.8728  157.1752 LP  0  0  0  0  0  0  0  0  0  0  0  0  # atno 17394 bound_to 11000
  139.9980  135.0039  157.0126 LP  0  0  0  0  0  0  0  0  0  0  0  0  # atno 17395 bound_to 11000

$$$$
