AV-unprocessed.smi:1385|AV-procd|sdf|5630|dock3
  -GOLD-   22720 5243D 1   1.00000     0.00000
 Structure written by MMmdl.
 39 40  0  0  0  0  0  0  0  0  2 V2000
  150.5313  141.9307  156.1958 C   0  0  0  0  0  0  0  0  0  0  0  0
  150.1664  140.7227  155.4027 C   0  0  0  0  0  0  0  0  0  0  0  0
  151.0793  139.9377  154.8178 N   0  0  0  0  0  0  0  0  0  0  0  0
  150.5010  138.8759  154.1360 N   0  0  0  0  0  0  0  0  0  0  0  0
  149.1642  138.8909  154.2295 C   0  0  0  0  0  0  0  0  0  0  0  0
  148.3201  137.9222  153.6247 N   0  0  0  0  0  0  0  0  0  0  0  0
  146.9763  137.8765  153.6188 C   0  0  0  0  0  0  0  0  0  0  0  0
  146.2320  138.6994  154.1519 O   0  0  0  0  0  0  0  0  0  0  0  0
  146.5303  136.8007  152.9536 N   0  0  0  0  0  0  0  0  0  0  0  0
  145.1229  136.4504  152.7627 C   0  0  2  0  0  0  0  0  0  0  0  0
  144.6713  135.3433  153.7360 C   0  0  0  0  0  0  0  0  0  0  0  0
  145.2965  133.9813  153.3880 C   0  0  0  0  0  0  0  0  0  0  0  0
  144.9954  133.5970  151.9830 N   0  3  2  0  0  0  0  0  0  0  0  0
  145.4605  132.2277  151.6413 C   0  0  0  0  0  0  0  0  0  0  0  0
  145.2076  131.8577  150.1761 C   0  0  0  0  0  0  0  0  0  0  0  0
  146.2819  131.6112  149.4229 N   0  0  0  0  0  0  0  0  0  0  0  0
  144.0651  131.8097  149.7238 O   0  0  0  0  0  0  0  0  0  0  0  0
  145.4828  134.6179  151.0205 C   0  0  0  0  0  0  0  0  0  0  0  0
  144.8703  136.0002  151.3135 C   0  0  0  0  0  0  0  0  0  0  0  0
  148.4978  140.2155  155.1689 S   0  0  0  0  0  0  0  0  0  0  0  0
  151.5108  142.3041  155.8957 H   0  0  0  0  0  0  0  0  0  0  0  0
  150.5598  141.6840  157.2571 H   0  0  0  0  0  0  0  0  0  0  0  0
  149.7956  142.7197  156.0389 H   0  0  0  0  0  0  0  0  0  0  0  0
  148.7973  137.1724  153.1466 H   0  0  0  0  0  0  0  0  0  0  0  0
  147.2144  136.1837  152.5408 H   0  0  0  0  0  0  0  0  0  0  0  0
  144.5264  137.3460  152.9467 H   0  0  0  0  0  0  0  0  0  0  0  0
  144.9114  135.6133  154.7650 H   0  0  0  0  0  0  0  0  0  0  0  0
  143.5848  135.2549  153.6963 H   0  0  0  0  0  0  0  0  0  0  0  0
  146.3770  134.0123  153.5364 H   0  0  0  0  0  0  0  0  0  0  0  0
  144.9091  133.2276  154.0740 H   0  0  0  0  0  0  0  0  0  0  0  0
  146.5375  132.1556  151.7980 H   0  0  0  0  0  0  0  0  0  0  0  0
  144.9979  131.4974  152.3076 H   0  0  0  0  0  0  0  0  0  0  0  0
  146.1748  131.3592  148.4507 H   0  0  0  0  0  0  0  0  0  0  0  0
  147.2045  131.6741  149.8301 H   0  0  0  0  0  0  0  0  0  0  0  0
  146.5720  134.6668  151.0598 H   0  0  0  0  0  0  0  0  0  0  0  0
  145.2171  134.3213  150.0050 H   0  0  0  0  0  0  0  0  0  0  0  0
  143.7945  135.9559  151.1371 H   0  0  0  0  0  0  0  0  0  0  0  0
  145.2600  136.7401  150.6131 H   0  0  0  0  0  0  0  0  0  0  0  0
  143.9891  133.5797  151.8926 H   0  0  0  0  0  0  0  0  0  0  0  0
  1  2  1  0  0  0  0
  1 21  1  0  0  0  0
  1 22  1  0  0  0  0
  1 23  1  0  0  0  0
  2 20  1  0  0  0  0
  2  3  2  0  0  0  0
  3  4  1  0  0  0  0
  4  5  2  0  0  0  0
  5  6  1  0  0  0  0
  5 20  1  0  0  0  0
  6  7  1  0  0  0  0
  6 24  1  0  0  0  0
  7  8  2  0  0  0  0
  7  9  1  0  0  0  0
  9 10  1  0  0  0  0
  9 25  1  0  0  0  0
 10 19  1  0  0  0  0
 10 11  1  0  0  0  0
 10 26  1  0  0  0  0
 11 12  1  0  0  0  0
 11 27  1  0  0  0  0
 11 28  1  0  0  0  0
 12 13  1  0  0  0  0
 12 29  1  0  0  0  0
 12 30  1  0  0  0  0
 13 14  1  0  0  0  0
 13 18  1  0  0  0  0
 13 39  1  0  0  0  0
 14 15  1  0  0  0  0
 14 31  1  0  0  0  0
 14 32  1  0  0  0  0
 15 16  1  0  0  0  0
 15 17  2  0  0  0  0
 16 33  1  0  0  0  0
 16 34  1  0  0  0  0
 18 19  1  0  0  0  0
 18 35  1  0  0  0  0
 18 36  1  0  0  0  0
 19 37  1  0  0  0  0
 19 38  1  0  0  0  0
M  CHG  1  13   1
M  END
> <s_m_source_file>
AV-unprocessed.smi

> <i_m_source_file_index>
1385

> <i_lp_mmshare_version>
43012

> <i_f3d_flags>
0

> <s_epik_input>
W0NIM11jMW5uYyhzMSlbTkhdQyg9TylbTkhdW0NIXTJbQ0gyXVtDSDJdTihbQ0gyXVtDSDJdMilbQ0gyXUMoPU8pW05IMl0=

> <s_epik_cmdline>
J2VwaWtfcHl0aG9uJywgJy1waCcsICc3LjAnLCAnLXRuJywgJzgnLCAnLW1hJywgJzIwMCcsICctbWV0YWxfYmluZGluZycsICctaW1hZScsICc8aW5maWxlLm1hZT4nLCAnLW9tYWUnLCAnPG91dGZpbGUubWFlPic=

> <r_lp_tautomer_probability>
1

> <r_epik_Ionization_Penalty>
0.866317

> <r_epik_Ionization_Penalty_Charging>
0.862349

> <r_epik_Ionization_Penalty_Neutral>
0.00396799

> <r_epik_State_Penalty>
0.898939

> <r_epik_Charging_Adjusted_Penalty>
1.76129

> <i_epik_Tot_Q>
1

> <i_epik_Tot_abs_Q>
1

> <r_epik_Metal_State_Penalty>
1.25402

> <b_epik_Metal_Only>
0

> <s_lp_Force_Field>
OPLS_2005

> <r_lp_Energy>
11.903

> <b_lp_Chiralities_Consistent>
1

> <s_lp_Variant>
AV-unprocessed.smi:1385-3

> <Gold.Version>
5.8.1

> <Gold.Id.Protein>
6NUR|6NUR_protein|mol2

> <Gold.PLP.Fitness>
39.9409

> <Gold.PLP.PLP>
-27.3029

> <Gold.PLP.part.hbond>
-5.0430

> <Gold.PLP.part.metal>
0.0000

> <Gold.PLP.part.buried>
-5.1246

> <Gold.PLP.part.nonpolar>
-18.7747

> <Gold.PLP.part.repulsive>
0.8630

> <Gold.PLP.ligand.clash>
0.0000

> <Gold.PLP.ligand.torsion>
0.2754

> <Gold.PLP.Chemscore.Hbond>
4.3893

> <Gold.PLP.Chemscore.CHOScore>
0.0000

> <Gold.PLP.Chemscore.Metal>
0.0000

> <Gold.Chemscore.Hbonds>
donor molecule, donor type, donor heavy atom, donor atom, acceptor molecule, acceptor atom, score
      L1  H     6    24       P1  7948  1.00
      L1  H     9    25       P1  7948  0.82
      L1  H    16    34       P1 10747  1.00
      P1  H  7989  7998       L1     3  1.00
      P1  H 10785 10796       L1    17  0.57

> <Gold.PLP.Chemscore.Internal.Correction>
0.0209

> <Gold.Rescore>
     Score         DG    S(hbond)    S(metal)    S(lipo)     H(rot)  DE(clash)    DE(int)     intcor
     16.09     -17.85       3.71        0.00      44.93       2.07       0.22       1.54       ----

> <Gold.Chemscore.Fitness>
16.0911

> <Gold.Chemscore.DG>
-17.8470

> <Gold.Chemscore.ZeroCoef>
-5.4800

> <Gold.Chemscore.Hbond>
3.7115

> <Gold.Chemscore.Metal>
0.0000

> <Gold.Chemscore.Lipo>
44.9308

> <Gold.Chemscore.Internal_Hbond>
0.0000

> <Gold.Chemscore.DEClash>
0.2169

> <Gold.Chemscore.DEInternal>
1.5390

> <Gold.Chemscore.Rot>
2.0650

> <Gold.Chemscore.Internal.Correction>
   9.000000E+99

> <Gold.Chemscore.Hbonds>
donor molecule, donor type, donor heavy atom, donor atom, acceptor molecule, acceptor atom, score
      L1  H     6    24       P1  7948  0.92
      L1  H     9    25       P1  7948  0.81
      L1  H    16    34       P1 10747  0.92
      P1  H  7989  7998       L1     3  0.11
      P1  H 10785 10796       L1    17  0.56

> <Gold.Chemscore.Hbond.Weighted>
-12.3965

> <Gold.Chemscore.Metal.Weighted>
-0.0000

> <Gold.Chemscore.Lipo.Weighted>
-5.2569

> <Gold.Chemscore.Internal_Hbond.Weighted>
0.0000

> <Gold.Chemscore.DEClash.Weighted>
0.2169

> <Gold.Chemscore.DEInternal.Weighted>
1.5390

> <Gold.Chemscore.Rot.Weighted>
5.2864

> <Gold.Chemscore.Internal.Correction.Weighted>
   9.000000E+99

> <Gold.Protein.RotatedTorsions>
[ 6907 6896 6895 6894 ] final   91.72 input  -60.11 | X-H torsion
[ 7974 7965 7964 7962 ] final  -94.43 input  175.53 | X-H torsion
[ 8008 7997 7996 7995 ] final   85.55 input   59.86 | X-H torsion
[ 10167 10162 10161 10158 ] final  166.66 input  -65.29 | X-H torsion
[ 10718 10713 10712 10709 ] final -147.53 input   66.30 | X-H torsion
[ 10763 10752 10751 10750 ] final -155.10 input  -60.55 | X-H torsion
[ 11005 11000 10999 10996 ] final  -76.15 input  -57.11 | X-H torsion

> <Gold.Protein.ActiveResidues>
 VAL166  LYS551  ARG553  GLY616  TRP617  ASP618  TYR619  PRO620  LYS621  CYS622 
 ASP623  PHE694  ASN695  SER759  ASP760  ASP761  ALA762  ILE779  LEU786  VAL792 
 PHE793  MET794  SER795  GLU796  ALA797  LYS798  CYS799  TRP800  GLU811  SER814 

> <Gold.Protein.RotatedAtoms>
  152.5451  134.1614  159.8558 H   0  0  0  0  0  0  0  0  0  0  0  0  # atno 6907 bound_to 6896
  151.1632  133.4825  159.2601 H   0  0  0  0  0  0  0  0  0  0  0  0  # atno 6908 bound_to 6896
  151.1352  135.0162  159.8655 H   0  0  0  0  0  0  0  0  0  0  0  0  # atno 6909 bound_to 6896
  145.3733  140.9508  143.2435 H   0  0  0  0  0  0  0  0  0  0  0  0  # atno 7974 bound_to 7965
  155.9515  140.3400  155.6412 H   0  0  0  0  0  0  0  0  0  0  0  0  # atno 8008 bound_to 7997
  155.6914  140.0749  157.2465 H   0  0  0  0  0  0  0  0  0  0  0  0  # atno 8009 bound_to 7997
  154.4123  140.1656  156.2078 H   0  0  0  0  0  0  0  0  0  0  0  0  # atno 8010 bound_to 7997
  139.4929  144.4004  151.9416 H   0  0  0  0  0  0  0  0  0  0  0  0  # atno 10167 bound_to 10162
  156.4087  130.7970  151.2186 H   0  0  0  0  0  0  0  0  0  0  0  0  # atno 10718 bound_to 10713
  154.7811  135.3175  154.7987 H   0  0  0  0  0  0  0  0  0  0  0  0  # atno 10763 bound_to 10752
  153.8698  135.6845  153.4779 H   0  0  0  0  0  0  0  0  0  0  0  0  # atno 10764 bound_to 10752
  153.1448  135.4724  154.9487 H   0  0  0  0  0  0  0  0  0  0  0  0  # atno 10765 bound_to 10752
  141.1651  133.6973  156.7626 H   0  0  0  0  0  0  0  0  0  0  0  0  # atno 11005 bound_to 11000
  144.8560  139.5249  143.6834 LP  0  0  0  0  0  0  0  0  0  0  0  0  # atno 17320 bound_to 7965
  146.2875  139.7046  142.9185 LP  0  0  0  0  0  0  0  0  0  0  0  0  # atno 17321 bound_to 7965
  140.3443  144.3165  150.5961 LP  0  0  0  0  0  0  0  0  0  0  0  0  # atno 17342 bound_to 10162
  140.5539  143.2202  151.7880 LP  0  0  0  0  0  0  0  0  0  0  0  0  # atno 17343 bound_to 10162
  157.7506  131.0264  150.3962 LP  0  0  0  0  0  0  0  0  0  0  0  0  # atno 17370 bound_to 10713
  156.4256  130.3961  149.6795 LP  0  0  0  0  0  0  0  0  0  0  0  0  # atno 17371 bound_to 10713
  140.2523  134.8531  157.3679 LP  0  0  0  0  0  0  0  0  0  0  0  0  # atno 17394 bound_to 11000
  140.1691  134.4632  155.7843 LP  0  0  0  0  0  0  0  0  0  0  0  0  # atno 17395 bound_to 11000

$$$$
