AV-unprocessed.smi:2358|AV-procd|sdf|9406|dock1
  -GOLD-   2272013 43D 1   1.00000     0.00000
 Structure written by MMmdl.
 46 48  0  0  0  0  0  0  0  0  2 V2000
  153.4716  140.9416  160.4918 C   0  0  0  0  0  0  0  0  0  0  0  0
  152.7607  141.9907  159.6616 C   0  0  0  0  0  0  0  0  0  0  0  0
  152.7458  143.3364  160.0791 C   0  0  0  0  0  0  0  0  0  0  0  0
  152.0795  144.3078  159.3074 C   0  0  0  0  0  0  0  0  0  0  0  0
  152.0669  145.7531  159.7609 C   0  0  0  0  0  0  0  0  0  0  0  0
  151.4296  143.9286  158.1152 C   0  0  0  0  0  0  0  0  0  0  0  0
  151.4341  142.5867  157.6833 C   0  0  0  0  0  0  0  0  0  0  0  0
  150.7702  142.3072  156.5079 O   0  0  0  0  0  0  0  0  0  0  0  0
  150.9309  141.0172  155.9324 C   0  0  0  0  0  0  0  0  0  0  0  0
  149.7480  140.7435  154.9876 C   0  0  1  0  0  0  0  0  0  0  0  0
  149.6465  139.3395  154.8515 O   0  0  0  0  0  0  0  0  0  0  0  0
  148.4130  141.2672  155.5640 C   0  0  0  0  0  0  0  0  0  0  0  0
  147.3709  140.2333  155.5537 N   0  0  0  0  0  0  0  0  0  0  0  0
  147.2099  139.6061  154.3303 N   0  0  0  0  0  0  0  0  0  0  0  0
  146.3365  138.6657  154.1716 C   0  0  0  0  0  0  0  0  0  0  0  0
  146.1769  138.0095  152.8831 N   0  0  0  0  0  0  0  0  0  0  0  0
  145.4714  136.8614  152.6190 C   0  0  0  0  0  0  0  0  0  0  0  0
  145.6021  136.6277  151.2743 C   0  0  0  0  0  0  0  0  0  0  0  0
  146.3790  137.6400  150.7765 N   0  3  0  0  0  0  0  0  0  0  0  0
  146.7303  138.4836  151.7538 C   0  0  0  0  0  0  0  0  0  0  0  0
  145.5027  138.2596  155.2980 C   0  0  0  0  0  0  0  0  0  0  0  0
  145.6720  138.8747  156.4883 C   0  0  0  0  0  0  0  0  0  0  0  0
  146.6622  139.9320  156.6805 C   0  0  0  0  0  0  0  0  0  0  0  0
  146.8450  140.4952  157.7589 O   0  0  0  0  0  0  0  0  0  0  0  0
  152.1068  141.6175  158.4696 C   0  0  0  0  0  0  0  0  0  0  0  0
  154.1431  141.3999  161.2184 H   0  0  0  0  0  0  0  0  0  0  0  0
  154.0623  140.2844  159.8532 H   0  0  0  0  0  0  0  0  0  0  0  0
  152.7450  140.3343  161.0318 H   0  0  0  0  0  0  0  0  0  0  0  0
  153.2447  143.6260  160.9927 H   0  0  0  0  0  0  0  0  0  0  0  0
  151.3556  146.3444  159.1835 H   0  0  0  0  0  0  0  0  0  0  0  0
  153.0565  146.1943  159.6401 H   0  0  0  0  0  0  0  0  0  0  0  0
  151.7870  145.8192  160.8127 H   0  0  0  0  0  0  0  0  0  0  0  0
  150.9193  144.6730  157.5214 H   0  0  0  0  0  0  0  0  0  0  0  0
  151.8823  140.9249  155.4046 H   0  0  0  0  0  0  0  0  0  0  0  0
  150.9264  140.2856  156.7419 H   0  0  0  0  0  0  0  0  0  0  0  0
  149.9454  141.2014  154.0171 H   0  0  0  0  0  0  0  0  0  0  0  0
  150.4579  138.9487  155.1386 H   0  0  0  0  0  0  0  0  0  0  0  0
  148.5522  141.7002  156.5568 H   0  0  0  0  0  0  0  0  0  0  0  0
  148.0533  142.0975  154.9535 H   0  0  0  0  0  0  0  0  0  0  0  0
  144.9421  136.3083  153.3819 H   0  0  0  0  0  0  0  0  0  0  0  0
  145.2103  135.8373  150.6506 H   0  0  0  0  0  0  0  0  0  0  0  0
  147.3377  139.3588  151.6172 H   0  0  0  0  0  0  0  0  0  0  0  0
  144.7551  137.4880  155.2177 H   0  0  0  0  0  0  0  0  0  0  0  0
  145.0574  138.5786  157.3257 H   0  0  0  0  0  0  0  0  0  0  0  0
  152.1342  140.5786  158.1779 H   0  0  0  0  0  0  0  0  0  0  0  0
  146.6503  137.7383  149.8060 H   0  0  0  0  0  0  0  0  0  0  0  0
  1  2  1  0  0  0  0
  1 26  1  0  0  0  0
  1 27  1  0  0  0  0
  1 28  1  0  0  0  0
  2 25  1  0  0  0  0
  2  3  2  0  0  0  0
  3  4  1  0  0  0  0
  3 29  1  0  0  0  0
  4  5  1  0  0  0  0
  4  6  2  0  0  0  0
  5 30  1  0  0  0  0
  5 31  1  0  0  0  0
  5 32  1  0  0  0  0
  6  7  1  0  0  0  0
  6 33  1  0  0  0  0
  7  8  1  0  0  0  0
  7 25  2  0  0  0  0
  8  9  1  0  0  0  0
  9 10  1  0  0  0  0
  9 34  1  0  0  0  0
  9 35  1  0  0  0  0
 10 11  1  0  0  0  0
 10 12  1  0  0  0  0
 10 36  1  0  0  0  0
 11 37  1  0  0  0  0
 12 13  1  0  0  0  0
 12 38  1  0  0  0  0
 12 39  1  0  0  0  0
 13 23  1  0  0  0  0
 13 14  1  0  0  0  0
 14 15  2  0  0  0  0
 15 16  1  0  0  0  0
 15 21  1  0  0  0  0
 16 20  1  0  0  0  0
 16 17  1  0  0  0  0
 17 18  2  0  0  0  0
 17 40  1  0  0  0  0
 18 19  1  0  0  0  0
 18 41  1  0  0  0  0
 19 20  2  0  0  0  0
 19 46  1  0  0  0  0
 20 42  1  0  0  0  0
 21 22  2  0  0  0  0
 21 43  1  0  0  0  0
 22 23  1  0  0  0  0
 22 44  1  0  0  0  0
 23 24  2  0  0  0  0
 25 45  1  0  0  0  0
M  CHG  1  19   1
M  END
> <s_m_source_file>
AV-unprocessed.smi

> <i_m_source_file_index>
2358

> <i_lp_mmshare_version>
43012

> <i_f3d_flags>
0

> <s_epik_input>
W0NIM11jMVtjSF1jKFtDSDNdKVtjSF1jKFtjSF0xKU9bQ0gyXVtDQEhdKFtPSF0pW0NIMl1uMm5jKFtjSF1bY0hdYzI9TyktbjNbY0hdW2NIXW5bY0hdMw==

> <s_epik_cmdline>
J2VwaWtfcHl0aG9uJywgJy1waCcsICc3LjAnLCAnLXRuJywgJzgnLCAnLW1hJywgJzIwMCcsICctbWV0YWxfYmluZGluZycsICctaW1hZScsICc8aW5maWxlLm1hZT4nLCAnLW9tYWUnLCAnPG91dGZpbGUubWFlPic=

> <r_lp_tautomer_probability>
1

> <r_epik_Ionization_Penalty>
1.66053

> <r_epik_Ionization_Penalty_Charging>
2.42216e-09

> <r_epik_Ionization_Penalty_Neutral>
1.66053

> <r_epik_State_Penalty>
1.76336

> <r_epik_Charging_Adjusted_Penalty>
1.76336

> <i_epik_Tot_Q>
1

> <i_epik_Tot_abs_Q>
1

> <r_epik_Metal_State_Penalty>
1.79856

> <b_epik_Metal_Only>
0

> <s_lp_Force_Field>
OPLS_2005

> <r_lp_Energy>
39.182

> <b_lp_Chiralities_Consistent>
1

> <s_lp_Variant>
AV-unprocessed.smi:2358-4

> <Gold.Version>
5.8.1

> <Gold.Id.Protein>
6NUR|6NUR_protein|mol2

> <Gold.PLP.Fitness>
47.0920

> <Gold.PLP.PLP>
-46.4647

> <Gold.PLP.part.hbond>
-2.1445

> <Gold.PLP.part.metal>
0.0000

> <Gold.PLP.part.buried>
-5.3694

> <Gold.PLP.part.nonpolar>
-41.3372

> <Gold.PLP.part.repulsive>
1.3661

> <Gold.PLP.ligand.clash>
0.0000

> <Gold.PLP.ligand.torsion>
1.2447

> <Gold.PLP.Chemscore.Hbond>
0.0000

> <Gold.PLP.Chemscore.CHOScore>
1.0000

> <Gold.PLP.Chemscore.Metal>
0.0000

> <Gold.Chemscore.Hbonds>
donor molecule, donor type, donor heavy atom, donor atom, acceptor molecule, acceptor atom, score
      L1  C    20    42       P1  7957  1.00

> <Gold.PLP.Chemscore.Internal.Correction>
0.1167

> <Gold.Rescore>
     Score         DG    S(hbond)    S(metal)    S(lipo)     H(rot)  DE(clash)    DE(int)     intcor
      9.58     -12.59       0.00        0.00     118.87       2.65       0.13       2.89       ----

> <Gold.Chemscore.Fitness>
9.5752

> <Gold.Chemscore.DG>
-12.5945

> <Gold.Chemscore.ZeroCoef>
-5.4800

> <Gold.Chemscore.Hbond>
0.0000

> <Gold.Chemscore.Metal>
0.0000

> <Gold.Chemscore.Lipo>
118.8720

> <Gold.Chemscore.Internal_Hbond>
0.0000

> <Gold.Chemscore.DEClash>
0.1296

> <Gold.Chemscore.DEInternal>
2.8898

> <Gold.Chemscore.Rot>
2.6537

> <Gold.Chemscore.Internal.Correction>
   9.000000E+99

> <Gold.Chemscore.Hbond.Weighted>
-0.0000

> <Gold.Chemscore.Metal.Weighted>
-0.0000

> <Gold.Chemscore.Lipo.Weighted>
-13.9080

> <Gold.Chemscore.Internal_Hbond.Weighted>
0.0000

> <Gold.Chemscore.DEClash.Weighted>
0.1296

> <Gold.Chemscore.DEInternal.Weighted>
2.8898

> <Gold.Chemscore.Rot.Weighted>
6.7935

> <Gold.Chemscore.Internal.Correction.Weighted>
   9.000000E+99

> <Gold.Protein.RotatedTorsions>
[ 6907 6896 6895 6894 ] final   15.52 input  -60.11 | X-H torsion
[ 7974 7965 7964 7962 ] final   -6.97 input  175.53 | X-H torsion
[ 8008 7997 7996 7995 ] final  -79.71 input   59.86 | X-H torsion
[ 10167 10162 10161 10158 ] final  138.89 input  -65.29 | X-H torsion
[ 10718 10713 10712 10709 ] final  -59.54 input   66.30 | X-H torsion
[ 10763 10752 10751 10750 ] final   15.52 input  -60.55 | X-H torsion
[ 11005 11000 10999 10996 ] final   -1.79 input  -57.11 | X-H torsion

> <Gold.Protein.ActiveResidues>
 VAL166  LYS551  ARG553  GLY616  TRP617  ASP618  TYR619  PRO620  LYS621  CYS622 
 ASP623  PHE694  ASN695  SER759  ASP760  ASP761  ALA762  ILE779  LEU786  VAL792 
 PHE793  MET794  SER795  GLU796  ALA797  LYS798  CYS799  TRP800  GLU811  SER814 

> <Gold.Protein.RotatedAtoms>
  151.8194  135.0656  160.0422 H   0  0  0  0  0  0  0  0  0  0  0  0  # atno 6907 bound_to 6896
  152.2962  133.5605  159.5597 H   0  0  0  0  0  0  0  0  0  0  0  0  # atno 6908 bound_to 6896
  150.7252  134.0273  159.3764 H   0  0  0  0  0  0  0  0  0  0  0  0  # atno 6909 bound_to 6896
  146.2318  140.2249  142.8338 H   0  0  0  0  0  0  0  0  0  0  0  0  # atno 7974 bound_to 7965
  154.5812  140.0674  156.9106 H   0  0  0  0  0  0  0  0  0  0  0  0  # atno 8008 bound_to 7997
  155.2460  140.3348  155.4269 H   0  0  0  0  0  0  0  0  0  0  0  0  # atno 8009 bound_to 7997
  156.2190  140.1790  156.7506 H   0  0  0  0  0  0  0  0  0  0  0  0  # atno 8010 bound_to 7997
  139.5096  144.6327  151.5776 H   0  0  0  0  0  0  0  0  0  0  0  0  # atno 10167 bound_to 10162
  156.1055  130.4181  150.0729 H   0  0  0  0  0  0  0  0  0  0  0  0  # atno 10718 bound_to 10713
  153.1517  135.6780  153.8872 H   0  0  0  0  0  0  0  0  0  0  0  0  # atno 10763 bound_to 10752
  153.8296  135.3119  155.3418 H   0  0  0  0  0  0  0  0  0  0  0  0  # atno 10764 bound_to 10752
  154.7867  135.4858  154.0049 H   0  0  0  0  0  0  0  0  0  0  0  0  # atno 10765 bound_to 10752
  140.6513  133.9402  155.8381 H   0  0  0  0  0  0  0  0  0  0  0  0  # atno 11005 bound_to 11000
  144.9603  140.8268  143.5518 LP  0  0  0  0  0  0  0  0  0  0  0  0  # atno 17320 bound_to 7965
  145.2219  139.2155  143.5088 LP  0  0  0  0  0  0  0  0  0  0  0  0  # atno 17321 bound_to 7965
  140.6065  143.9514  150.6422 LP  0  0  0  0  0  0  0  0  0  0  0  0  # atno 17342 bound_to 10162
  140.2743  143.3434  152.1209 LP  0  0  0  0  0  0  0  0  0  0  0  0  # atno 17343 bound_to 10162
  156.8705  130.9522  151.3609 LP  0  0  0  0  0  0  0  0  0  0  0  0  # atno 17370 bound_to 10713
  157.6231  130.8670  149.9142 LP  0  0  0  0  0  0  0  0  0  0  0  0  # atno 17371 bound_to 10713
  141.0535  134.0451  157.3753 LP  0  0  0  0  0  0  0  0  0  0  0  0  # atno 17394 bound_to 11000
  139.9045  135.0175  156.7422 LP  0  0  0  0  0  0  0  0  0  0  0  0  # atno 17395 bound_to 11000

$$$$
