AV-unprocessed.smi:3117|AV-procd|sdf|11879|dock9
  -GOLD-   2272017263D 1   1.00000     0.00000
 Structure written by MMmdl.
 37 37  0  0  0  0  0  0  0  0  2 V2000
  150.6856  141.9718  157.5268 C   0  0  0  0  0  0  0  0  0  0  0  0
  151.6148  141.1504  158.4390 C   0  0  1  0  0  0  0  0  0  0  0  0
  152.1168  139.9831  157.6799 N   0  3  0  0  0  0  0  0  0  0  0  0
  151.0788  139.2187  156.9540 C   0  0  0  0  0  0  0  0  0  0  0  0
  151.3382  139.1755  155.4331 C   0  0  0  0  0  0  0  0  0  0  0  0
  152.7769  138.7108  155.1516 C   0  0  0  0  0  0  0  0  0  0  0  0
  150.3325  138.2765  154.6905 C   0  0  0  0  0  0  0  0  0  0  0  0
  151.2263  140.4916  154.9267 O   0  0  0  0  0  0  0  0  0  0  0  0
  152.7968  141.9824  159.0064 C   0  0  2  0  0  0  0  0  0  0  0  0
  153.6077  141.2253  160.0761 C   0  0  0  0  0  0  0  0  0  0  0  0
  152.3540  143.2669  159.5350 N   0  0  0  0  0  0  0  0  0  0  0  0
  151.9169  144.3747  158.8377 C   0  0  0  0  0  0  0  0  0  0  0  0
  151.6080  145.3390  159.7540 C   0  0  0  0  0  0  0  0  0  0  0  0
  151.8959  144.7229  161.0036 C   0  0  0  0  0  0  0  0  0  0  0  0
  152.3413  143.4843  160.8698 N   0  0  0  0  0  0  0  0  0  0  0  0
  150.2061  142.7894  158.0654 H   0  0  0  0  0  0  0  0  0  0  0  0
  149.8882  141.3493  157.1196 H   0  0  0  0  0  0  0  0  0  0  0  0
  151.2327  142.4019  156.6872 H   0  0  0  0  0  0  0  0  0  0  0  0
  151.0075  140.7951  159.2738 H   0  0  0  0  0  0  0  0  0  0  0  0
  152.7930  140.3087  157.0044 H   0  0  0  0  0  0  0  0  0  0  0  0
  151.0389  138.2040  157.3526 H   0  0  0  0  0  0  0  0  0  0  0  0
  150.1069  139.6729  157.1526 H   0  0  0  0  0  0  0  0  0  0  0  0
  152.9413  137.6955  155.5146 H   0  0  0  0  0  0  0  0  0  0  0  0
  153.5083  139.3561  155.6399 H   0  0  0  0  0  0  0  0  0  0  0  0
  152.9966  138.7156  154.0832 H   0  0  0  0  0  0  0  0  0  0  0  0
  150.3759  137.2510  155.0590 H   0  0  0  0  0  0  0  0  0  0  0  0
  150.5419  138.2482  153.6204 H   0  0  0  0  0  0  0  0  0  0  0  0
  149.3068  138.6266  154.8103 H   0  0  0  0  0  0  0  0  0  0  0  0
  151.6764  141.0804  155.5139 H   0  0  0  0  0  0  0  0  0  0  0  0
  153.4752  142.2044  158.1808 H   0  0  0  0  0  0  0  0  0  0  0  0
  154.0783  140.3318  159.6656 H   0  0  0  0  0  0  0  0  0  0  0  0
  152.9785  140.9155  160.9111 H   0  0  0  0  0  0  0  0  0  0  0  0
  154.4049  141.8518  160.4773 H   0  0  0  0  0  0  0  0  0  0  0  0
  151.8607  144.3854  157.7592 H   0  0  0  0  0  0  0  0  0  0  0  0
  151.2345  146.3339  159.5615 H   0  0  0  0  0  0  0  0  0  0  0  0
  151.7950  145.1351  161.9968 H   0  0  0  0  0  0  0  0  0  0  0  0
  152.5832  139.3583  158.3223 H   0  0  0  0  0  0  0  0  0  0  0  0
  1  2  1  0  0  0  0
  1 16  1  0  0  0  0
  1 17  1  0  0  0  0
  1 18  1  0  0  0  0
  2  3  1  0  0  0  0
  2  9  1  0  0  0  0
  2 19  1  0  0  0  0
  3  4  1  0  0  0  0
  3 20  1  0  0  0  0
  3 37  1  0  0  0  0
  4  5  1  0  0  0  0
  4 21  1  0  0  0  0
  4 22  1  0  0  0  0
  5  6  1  0  0  0  0
  5  7  1  0  0  0  0
  5  8  1  0  0  0  0
  6 23  1  0  0  0  0
  6 24  1  0  0  0  0
  6 25  1  0  0  0  0
  7 26  1  0  0  0  0
  7 27  1  0  0  0  0
  7 28  1  0  0  0  0
  8 29  1  0  0  0  0
  9 10  1  0  0  0  0
  9 11  1  0  0  0  0
  9 30  1  0  0  0  0
 10 31  1  0  0  0  0
 10 32  1  0  0  0  0
 10 33  1  0  0  0  0
 11 15  1  0  0  0  0
 11 12  1  0  0  0  0
 12 13  2  0  0  0  0
 12 34  1  0  0  0  0
 13 14  1  0  0  0  0
 13 35  1  0  0  0  0
 14 15  2  0  0  0  0
 14 36  1  0  0  0  0
M  CHG  1   3   1
M  END
> <s_m_source_file>
AV-unprocessed.smi

> <i_m_source_file_index>
3117

> <i_lp_mmshare_version>
43012

> <i_f3d_flags>
0

> <s_epik_input>
W0NIM11DKFtDSDNdKShbT0hdKVtDSDJdW05IXVtDQEBIXShbQ0gzXSlbQ0BIXShbQ0gzXSluMVtjSF1bY0hdW2NIXW4x

> <s_epik_cmdline>
J2VwaWtfcHl0aG9uJywgJy1waCcsICc3LjAnLCAnLXRuJywgJzgnLCAnLW1hJywgJzIwMCcsICctbWV0YWxfYmluZGluZycsICctaW1hZScsICc8aW5maWxlLm1hZT4nLCAnLW9tYWUnLCAnPG91dGZpbGUubWFlPic=

> <r_lp_tautomer_probability>
1

> <r_epik_Ionization_Penalty>
0.0164263

> <r_epik_Ionization_Penalty_Charging>
0.0164138

> <r_epik_Ionization_Penalty_Neutral>
1.24697e-05

> <r_epik_State_Penalty>
0.0129543

> <r_epik_Charging_Adjusted_Penalty>
0.0293681

> <i_epik_Tot_Q>
1

> <i_epik_Tot_abs_Q>
1

> <r_epik_Metal_State_Penalty>
0.0129806

> <b_epik_Metal_Only>
0

> <s_lp_Force_Field>
OPLS_2005

> <r_lp_Energy>
13.915

> <b_lp_Chiralities_Consistent>
1

> <s_lp_Variant>
AV-unprocessed.smi:3117-2

> <Gold.Version>
5.8.1

> <Gold.Id.Protein>
6NUR|6NUR_protein|mol2

> <Gold.PLP.Fitness>
38.3169

> <Gold.PLP.PLP>
-37.0845

> <Gold.PLP.part.hbond>
-0.7801

> <Gold.PLP.part.metal>
0.0000

> <Gold.PLP.part.buried>
-4.0931

> <Gold.PLP.part.nonpolar>
-33.1953

> <Gold.PLP.part.repulsive>
0.1631

> <Gold.PLP.ligand.clash>
0.0000

> <Gold.PLP.ligand.torsion>
0.9333

> <Gold.PLP.Chemscore.Hbond>
1.0000

> <Gold.PLP.Chemscore.CHOScore>
0.0000

> <Gold.PLP.Chemscore.Metal>
0.0000

> <Gold.Chemscore.Hbonds>
donor molecule, donor type, donor heavy atom, donor atom, acceptor molecule, acceptor atom, score
      P1  H  7989  7998       L1     8  0.99

> <Gold.PLP.Chemscore.Internal.Correction>
0.0989

> <Gold.Rescore>
     Score         DG    S(hbond)    S(metal)    S(lipo)     H(rot)  DE(clash)    DE(int)     intcor
     11.89     -13.52       0.79        0.00      95.80       2.27       0.01       1.63       ----

> <Gold.Chemscore.Fitness>
11.8855

> <Gold.Chemscore.DG>
-13.5243

> <Gold.Chemscore.ZeroCoef>
-5.4800

> <Gold.Chemscore.Hbond>
0.7942

> <Gold.Chemscore.Metal>
0.0000

> <Gold.Chemscore.Lipo>
95.8043

> <Gold.Chemscore.Internal_Hbond>
0.0000

> <Gold.Chemscore.DEClash>
0.0060

> <Gold.Chemscore.DEInternal>
1.6328

> <Gold.Chemscore.Rot>
2.2725

> <Gold.Chemscore.Internal.Correction>
   9.000000E+99

> <Gold.Chemscore.Hbonds>
donor molecule, donor type, donor heavy atom, donor atom, acceptor molecule, acceptor atom, score
      P1  H  7989  7998       L1     8  0.52

> <Gold.Chemscore.Hbond.Weighted>
-2.6528

> <Gold.Chemscore.Metal.Weighted>
-0.0000

> <Gold.Chemscore.Lipo.Weighted>
-11.2091

> <Gold.Chemscore.Internal_Hbond.Weighted>
0.0000

> <Gold.Chemscore.DEClash.Weighted>
0.0060

> <Gold.Chemscore.DEInternal.Weighted>
1.6328

> <Gold.Chemscore.Rot.Weighted>
5.8176

> <Gold.Chemscore.Internal.Correction.Weighted>
   9.000000E+99

> <Gold.Protein.RotatedTorsions>
[ 6907 6896 6895 6894 ] final  120.17 input  -60.11 | X-H torsion
[ 7974 7965 7964 7962 ] final   70.52 input  175.53 | X-H torsion
[ 8008 7997 7996 7995 ] final  139.66 input   59.86 | X-H torsion
[ 10167 10162 10161 10158 ] final  -43.89 input  -65.29 | X-H torsion
[ 10718 10713 10712 10709 ] final -116.50 input   66.30 | X-H torsion
[ 10763 10752 10751 10750 ] final -175.61 input  -60.55 | X-H torsion
[ 11005 11000 10999 10996 ] final  103.13 input  -57.11 | X-H torsion

> <Gold.Protein.ActiveResidues>
 VAL166  LYS551  ARG553  GLY616  TRP617  ASP618  TYR619  PRO620  LYS621  CYS622 
 ASP623  PHE694  ASN695  SER759  ASP760  ASP761  ALA762  ILE779  LEU786  VAL792 
 PHE793  MET794  SER795  GLU796  ALA797  LYS798  CYS799  TRP800  GLU811  SER814 

> <Gold.Protein.RotatedAtoms>
  152.4418  133.7462  159.6668 H   0  0  0  0  0  0  0  0  0  0  0  0  # atno 6907 bound_to 6896
  150.8310  133.8081  159.3105 H   0  0  0  0  0  0  0  0  0  0  0  0  # atno 6908 bound_to 6896
  151.5735  135.1064  160.0052 H   0  0  0  0  0  0  0  0  0  0  0  0  # atno 6909 bound_to 6896
  145.7771  139.2870  143.1287 H   0  0  0  0  0  0  0  0  0  0  0  0  # atno 7974 bound_to 7965
  156.2987  140.2362  156.4274 H   0  0  0  0  0  0  0  0  0  0  0  0  # atno 8008 bound_to 7997
  154.8301  140.0433  157.1491 H   0  0  0  0  0  0  0  0  0  0  0  0  # atno 8009 bound_to 7997
  154.9217  140.3004  155.5216 H   0  0  0  0  0  0  0  0  0  0  0  0  # atno 8010 bound_to 7997
  140.6917  143.2959  151.3416 H   0  0  0  0  0  0  0  0  0  0  0  0  # atno 10167 bound_to 10162
  156.0968  130.6139  150.9043 H   0  0  0  0  0  0  0  0  0  0  0  0  # atno 10718 bound_to 10713
  154.5823  135.2837  155.0720 H   0  0  0  0  0  0  0  0  0  0  0  0  # atno 10763 bound_to 10752
  154.2051  135.6417  153.5102 H   0  0  0  0  0  0  0  0  0  0  0  0  # atno 10764 bound_to 10752
  153.0092  135.5478  154.6481 H   0  0  0  0  0  0  0  0  0  0  0  0  # atno 10765 bound_to 10752
  139.8782  134.9251  156.5163 H   0  0  0  0  0  0  0  0  0  0  0  0  # atno 11005 bound_to 11000
  146.0111  140.8434  142.9970 LP  0  0  0  0  0  0  0  0  0  0  0  0  # atno 17320 bound_to 7965
  144.6802  140.2491  143.7334 LP  0  0  0  0  0  0  0  0  0  0  0  0  # atno 17321 bound_to 7965
  139.6327  144.0689  152.2490 LP  0  0  0  0  0  0  0  0  0  0  0  0  # atno 17342 bound_to 10162
  140.0169  144.6182  150.7600 LP  0  0  0  0  0  0  0  0  0  0  0  0  # atno 17343 bound_to 10162
  157.6130  131.0935  150.8761 LP  0  0  0  0  0  0  0  0  0  0  0  0  # atno 17370 bound_to 10713
  156.8897  130.5208  149.5287 LP  0  0  0  0  0  0  0  0  0  0  0  0  # atno 17371 bound_to 10713
  140.8483  133.8152  155.9143 LP  0  0  0  0  0  0  0  0  0  0  0  0  # atno 17394 bound_to 11000
  140.9169  134.2190  157.4951 LP  0  0  0  0  0  0  0  0  0  0  0  0  # atno 17395 bound_to 11000

$$$$
