AV-unprocessed.smi:2313|AV-procd|sdf|9265|dock9
  -GOLD-   2272012493D 1   1.00000     0.00000
 Structure written by MMmdl.
 37 38  0  0  0  0  0  0  0  0  1 V2000
  153.4039  142.8931  163.2728 C   0  0  0  0  0  0  0  0  0  0  0  0
  152.9373  142.9913  161.8323 C   0  0  0  0  0  0  0  0  0  0  0  0
  152.0660  144.0737  161.4241 C   0  0  0  0  0  0  0  0  0  0  0  0
  151.6604  144.1447  160.1475 C   0  0  0  0  0  0  0  0  0  0  0  0
  152.0576  143.1975  159.1875 N   0  0  0  0  0  0  0  0  0  0  0  0
  151.5440  143.3687  157.8181 C   0  0  0  0  0  0  0  0  0  0  0  0
  150.7009  142.1740  157.3539 C   0  0  0  0  0  0  0  0  0  0  0  0
  150.8634  141.0664  157.8654 O   0  0  0  0  0  0  0  0  0  0  0  0
  149.8095  142.4273  156.3808 N   0  0  0  0  0  0  0  0  0  0  0  0
  148.9122  141.4868  155.6977 C   0  0  2  0  0  0  0  0  0  0  0  0
  148.1171  140.7769  156.8056 C   0  0  0  0  0  0  0  0  0  0  0  0
  149.6612  140.4557  154.9526 C   0  0  0  0  0  0  0  0  0  0  0  0
  150.2506  139.6493  154.3679 N   0  0  0  0  0  0  0  0  0  0  0  0
  147.9203  142.1314  154.7257 C   0  0  0  0  0  0  0  0  0  0  0  0
  146.4631  142.3901  155.0438 C   0  0  0  0  0  0  0  0  0  0  0  0
  146.8398  141.3357  154.0275 C   0  0  0  0  0  0  0  0  0  0  0  0
  152.8796  142.1504  159.5006 C   0  0  0  0  0  0  0  0  0  0  0  0
  153.2252  141.3238  158.6539 O   0  0  0  0  0  0  0  0  0  0  0  0
  153.3156  142.0802  160.9042 C   0  0  0  0  0  0  0  0  0  0  0  0
  154.1676  140.9827  161.2313 C   0  0  0  0  0  0  0  0  0  0  0  0
  154.8716  140.1055  161.5051 N   0  0  0  0  0  0  0  0  0  0  0  0
  153.0050  143.7110  163.8735 H   0  0  0  0  0  0  0  0  0  0  0  0
  154.4922  142.9355  163.3251 H   0  0  0  0  0  0  0  0  0  0  0  0
  153.0730  141.9543  163.7175 H   0  0  0  0  0  0  0  0  0  0  0  0
  151.7390  144.8157  162.1376 H   0  0  0  0  0  0  0  0  0  0  0  0
  151.0045  144.9229  159.7852 H   0  0  0  0  0  0  0  0  0  0  0  0
  150.9296  144.2664  157.7398 H   0  0  0  0  0  0  0  0  0  0  0  0
  152.3765  143.5292  157.1301 H   0  0  0  0  0  0  0  0  0  0  0  0
  149.7665  143.3802  156.0497 H   0  0  0  0  0  0  0  0  0  0  0  0
  147.4389  140.0302  156.3908 H   0  0  0  0  0  0  0  0  0  0  0  0
  147.5163  141.4832  157.3800 H   0  0  0  0  0  0  0  0  0  0  0  0
  148.7796  140.2618  157.5028 H   0  0  0  0  0  0  0  0  0  0  0  0
  148.3849  142.9073  154.1195 H   0  0  0  0  0  0  0  0  0  0  0  0
  146.0520  142.0418  155.9868 H   0  0  0  0  0  0  0  0  0  0  0  0
  146.0276  143.3134  154.6677 H   0  0  0  0  0  0  0  0  0  0  0  0
  146.6529  141.5583  152.9790 H   0  0  0  0  0  0  0  0  0  0  0  0
  146.6963  140.2954  154.3125 H   0  0  0  0  0  0  0  0  0  0  0  0
  1  2  1  0  0  0  0
  1 22  1  0  0  0  0
  1 23  1  0  0  0  0
  1 24  1  0  0  0  0
  2 19  2  0  0  0  0
  2  3  1  0  0  0  0
  3  4  2  0  0  0  0
  3 25  1  0  0  0  0
  4  5  1  0  0  0  0
  4 26  1  0  0  0  0
  5  6  1  0  0  0  0
  5 17  1  0  0  0  0
  6  7  1  0  0  0  0
  6 27  1  0  0  0  0
  6 28  1  0  0  0  0
  7  8  2  0  0  0  0
  7  9  1  0  0  0  0
  9 10  1  0  0  0  0
  9 29  1  0  0  0  0
 10 11  1  0  0  0  0
 10 12  1  0  0  0  0
 10 14  1  0  0  0  0
 11 30  1  0  0  0  0
 11 31  1  0  0  0  0
 11 32  1  0  0  0  0
 12 13  3  0  0  0  0
 14 16  1  0  0  0  0
 14 15  1  0  0  0  0
 14 33  1  0  0  0  0
 15 16  1  0  0  0  0
 15 34  1  0  0  0  0
 15 35  1  0  0  0  0
 16 36  1  0  0  0  0
 16 37  1  0  0  0  0
 17 18  2  0  0  0  0
 17 19  1  0  0  0  0
 19 20  1  0  0  0  0
 20 21  3  0  0  0  0
M  END
> <s_m_source_file>
AV-unprocessed.smi

> <i_m_source_file_index>
2313

> <i_lp_mmshare_version>
43012

> <i_f3d_flags>
0

> <s_epik_input>
W0NIM11jMVtjSF1bY0hdbihjKD1PKWMxQyNOKVtDSDJdQyg9TylbTkhdW0NAQF0oW0NIM10pKEMjTilbQ0hdMltDSDJdW0NIMl0y

> <s_epik_cmdline>
J2VwaWtfcHl0aG9uJywgJy1waCcsICc3LjAnLCAnLXRuJywgJzgnLCAnLW1hJywgJzIwMCcsICctbWV0YWxfYmluZGluZycsICctaW1hZScsICc8aW5maWxlLm1hZT4nLCAnLW9tYWUnLCAnPG91dGZpbGUubWFlPic=

> <r_lp_tautomer_probability>
1

> <r_epik_Ionization_Penalty>
4.65501e-07

> <r_epik_Ionization_Penalty_Charging>
2.39086e-10

> <r_epik_Ionization_Penalty_Neutral>
4.65262e-07

> <r_epik_State_Penalty>
-0

> <r_epik_Charging_Adjusted_Penalty>
2.39086e-10

> <i_epik_Tot_Q>
0

> <i_epik_Tot_abs_Q>
0

> <r_epik_Metal_State_Penalty>
-0

> <b_epik_Metal_Only>
0

> <s_lp_Force_Field>
OPLS_2005

> <r_lp_Energy>
23.1169

> <b_lp_Chiralities_Consistent>
1

> <s_lp_Variant>
AV-unprocessed.smi:2313-2

> <Gold.Version>
5.8.1

> <Gold.Id.Protein>
6NUR|6NUR_protein|mol2

> <Gold.PLP.Fitness>
53.2073

> <Gold.PLP.PLP>
-48.6328

> <Gold.PLP.part.hbond>
-2.9724

> <Gold.PLP.part.metal>
0.0000

> <Gold.PLP.part.buried>
-0.8764

> <Gold.PLP.part.nonpolar>
-44.5377

> <Gold.PLP.part.repulsive>
0.2416

> <Gold.PLP.ligand.clash>
0.0000

> <Gold.PLP.ligand.torsion>
1.3093

> <Gold.PLP.Chemscore.Hbond>
1.9000

> <Gold.PLP.Chemscore.CHOScore>
0.0000

> <Gold.PLP.Chemscore.Metal>
0.0000

> <Gold.Chemscore.Hbonds>
donor molecule, donor type, donor heavy atom, donor atom, acceptor molecule, acceptor atom, score
      L1  H     9    29       P1  8028  1.00
      P1  H  7989  7998       L1    13  0.94

> <Gold.PLP.Chemscore.Internal.Correction>
1.4930

> <Gold.Rescore>
     Score         DG    S(hbond)    S(metal)    S(lipo)     H(rot)  DE(clash)    DE(int)     intcor
     10.06     -16.94       1.65        0.00      90.08       1.80       0.25       6.63       ----

> <Gold.Chemscore.Fitness>
10.0556

> <Gold.Chemscore.DG>
-16.9380

> <Gold.Chemscore.ZeroCoef>
-5.4800

> <Gold.Chemscore.Hbond>
1.6514

> <Gold.Chemscore.Metal>
0.0000

> <Gold.Chemscore.Lipo>
90.0751

> <Gold.Chemscore.Internal_Hbond>
0.0000

> <Gold.Chemscore.DEClash>
0.2518

> <Gold.Chemscore.DEInternal>
6.6307

> <Gold.Chemscore.Rot>
1.7955

> <Gold.Chemscore.Internal.Correction>
   9.000000E+99

> <Gold.Chemscore.Hbonds>
donor molecule, donor type, donor heavy atom, donor atom, acceptor molecule, acceptor atom, score
      L1  H     9    29       P1  8028  0.95
      P1  H  7989  7998       L1    13  0.20

> <Gold.Chemscore.Hbond.Weighted>
-5.5158

> <Gold.Chemscore.Metal.Weighted>
-0.0000

> <Gold.Chemscore.Lipo.Weighted>
-10.5388

> <Gold.Chemscore.Internal_Hbond.Weighted>
0.0000

> <Gold.Chemscore.DEClash.Weighted>
0.2518

> <Gold.Chemscore.DEInternal.Weighted>
6.6307

> <Gold.Chemscore.Rot.Weighted>
4.5965

> <Gold.Chemscore.Internal.Correction.Weighted>
   9.000000E+99

> <Gold.Protein.RotatedTorsions>
[ 6907 6896 6895 6894 ] final -172.92 input  -60.11 | X-H torsion
[ 7974 7965 7964 7962 ] final  -71.81 input  175.53 | X-H torsion
[ 8008 7997 7996 7995 ] final   -8.57 input   59.86 | X-H torsion
[ 10167 10162 10161 10158 ] final  147.19 input  -65.29 | X-H torsion
[ 10718 10713 10712 10709 ] final  -70.93 input   66.30 | X-H torsion
[ 10763 10752 10751 10750 ] final  154.20 input  -60.55 | X-H torsion
[ 11005 11000 10999 10996 ] final   63.79 input  -57.11 | X-H torsion

> <Gold.Protein.ActiveResidues>
 VAL166  LYS551  ARG553  GLY616  TRP617  ASP618  TYR619  PRO620  LYS621  CYS622 
 ASP623  PHE694  ASN695  SER759  ASP760  ASP761  ALA762  ILE779  LEU786  VAL792 
 PHE793  MET794  SER795  GLU796  ALA797  LYS798  CYS799  TRP800  GLU811  SER814 

> <Gold.Protein.RotatedAtoms>
  151.5478  133.3422  159.2947 H   0  0  0  0  0  0  0  0  0  0  0  0  # atno 6907 bound_to 6896
  150.8497  134.7820  159.7010 H   0  0  0  0  0  0  0  0  0  0  0  0  # atno 6908 bound_to 6896
  152.4546  134.5328  159.9867 H   0  0  0  0  0  0  0  0  0  0  0  0  # atno 6909 bound_to 6896
  145.6733  140.9213  143.0871 H   0  0  0  0  0  0  0  0  0  0  0  0  # atno 7974 bound_to 7965
  154.5729  140.2377  155.8166 H   0  0  0  0  0  0  0  0  0  0  0  0  # atno 8008 bound_to 7997
  156.2120  140.3023  155.9712 H   0  0  0  0  0  0  0  0  0  0  0  0  # atno 8009 bound_to 7997
  155.2680  140.0417  157.2994 H   0  0  0  0  0  0  0  0  0  0  0  0  # atno 8010 bound_to 7997
  139.4894  144.5774  151.6939 H   0  0  0  0  0  0  0  0  0  0  0  0  # atno 10167 bound_to 10162
  156.0385  130.4341  150.2368 H   0  0  0  0  0  0  0  0  0  0  0  0  # atno 10718 bound_to 10713
  154.1484  135.2816  155.3142 H   0  0  0  0  0  0  0  0  0  0  0  0  # atno 10763 bound_to 10752
  154.6235  135.5459  153.7605 H   0  0  0  0  0  0  0  0  0  0  0  0  # atno 10764 bound_to 10752
  153.0228  135.6445  154.1629 H   0  0  0  0  0  0  0  0  0  0  0  0  # atno 10765 bound_to 10752
  140.0001  134.6455  155.9945 H   0  0  0  0  0  0  0  0  0  0  0  0  # atno 11005 bound_to 11000
  144.7050  139.8601  143.7433 LP  0  0  0  0  0  0  0  0  0  0  0  0  # atno 17320 bound_to 7965
  146.1027  139.4024  143.0337 LP  0  0  0  0  0  0  0  0  0  0  0  0  # atno 17321 bound_to 7965
  140.5373  144.0636  150.6075 LP  0  0  0  0  0  0  0  0  0  0  0  0  # atno 17342 bound_to 10162
  140.3646  143.2889  152.0346 LP  0  0  0  0  0  0  0  0  0  0  0  0  # atno 17343 bound_to 10162
  157.0466  131.0050  151.3267 LP  0  0  0  0  0  0  0  0  0  0  0  0  # atno 17370 bound_to 10713
  157.5171  130.7975  149.7768 LP  0  0  0  0  0  0  0  0  0  0  0  0  # atno 17371 bound_to 10713
  141.1635  133.6538  156.4400 LP  0  0  0  0  0  0  0  0  0  0  0  0  # atno 17394 bound_to 11000
  140.4744  134.6723  157.5143 LP  0  0  0  0  0  0  0  0  0  0  0  0  # atno 17395 bound_to 11000

$$$$
