#       Name:                AV-unprocessed.smi:2060
#       Creating user name   scv26
#       Creation time:       Fri Mar 27 11:02:46 2020


#       File generated by GOLD software.
#

@<TRIPOS>MOLECULE
AV-unprocessed.smi:2060
    53    54     1
SMALL
NO_CHARGES


@<TRIPOS>ATOM
      1 ****        -2.9520  -1.8813  -0.7231 C.3            1 S1                 0.0000
      2 ****        -1.4421  -1.5810  -0.7159 C.3            1 S1                 0.0000
      3 ****        -0.8945  -0.9042   0.5785 C.3            1 S1                 0.0000
      4 ****        -1.5182   0.5144   0.6557 C.3            1 S1                 0.0000
      5 ****         0.6590  -0.7893   0.4763 C.3            1 S1                 0.0000
      6 ****         1.1198  -0.0270  -0.6841 N.am           1 S1                 0.0000
      7 ****         1.5300   1.2499  -0.6667 C.2            1 S1                 0.0000
      8 ****         1.5492   1.9441   0.3500 O.2            1 S1                 0.0000
      9 ****         1.9058   1.6581  -1.8905 N.am           1 S1                 0.0000
     10 ****         2.3808   2.9405  -2.2656 C.2            1 S1                 0.0000
     11 ****         2.7675   3.2105  -3.6051 C.2            1 S1                 0.0000
     12 ****         3.1534   4.5205  -3.5558 C.2            1 S1                 0.0000
     13 ****         3.6737   5.4632  -4.5864 C.3            1 S1                 0.0000
     14 ****         3.0106   5.0093  -2.2939 O.3            1 S1                 0.0000
     15 ****         2.5148   3.9913  -1.4708 N.2            1 S1                 0.0000
     16 ****        -1.2894  -1.7051   1.7951 N.4            1 S1                 1.0000
     17 ****        -0.8152  -3.1181   1.8277 C.3            1 S1                 0.0000
     18 ****        -1.4542  -3.8739   3.0040 C.3            1 S1                 0.0000
     19 ****        -1.1368  -3.2146   4.2216 O.3            1 S1                 0.0000
     20 ****        -1.6509  -1.8907   4.2514 C.3            1 S1                 0.0000
     21 ****        -1.0268  -1.0632   3.1150 C.3            1 S1                 0.0000
     22 ****        -3.2406  -2.3504  -1.6638 H              1 S1                 0.0000
     23 ****        -3.5468  -0.9741  -0.6204 H              1 S1                 0.0000
     24 ****        -3.2359  -2.5635   0.0780 H              1 S1                 0.0000
     25 ****        -0.8976  -2.5014  -0.9254 H              1 S1                 0.0000
     26 ****        -1.2328  -0.9441  -1.5761 H              1 S1                 0.0000
     27 ****        -1.4570   1.0362  -0.2998 H              1 S1                 0.0000
     28 ****        -1.0076   1.1474   1.3816 H              1 S1                 0.0000
     29 ****        -2.5716   0.4799   0.9342 H              1 S1                 0.0000
     30 ****         1.0809  -0.3617   1.3861 H              1 S1                 0.0000
     31 ****         1.1082  -1.7769   0.3791 H              1 S1                 0.0000
     32 ****         1.1377  -0.5158  -1.5672 H              1 S1                 0.0000
     33 ****         1.8469   0.9795  -2.6353 H              1 S1                 0.0000
     34 ****         2.7645   2.5541  -4.4626 H              1 S1                 0.0000
     35 ****         4.1351   4.9206  -5.4116 H              1 S1                 0.0000
     36 ****         4.4235   6.1307  -4.1611 H              1 S1                 0.0000
     37 ****         2.8671   6.0741  -4.9920 H              1 S1                 0.0000
     38 ****        -1.0689  -3.6483   0.9122 H              1 S1                 0.0000
     39 ****         0.2697  -3.1522   1.9294 H              1 S1                 0.0000
     40 ****        -2.5363  -3.9447   2.8816 H              1 S1                 0.0000
     41 ****        -1.0712  -4.8937   3.0465 H              1 S1                 0.0000
     42 ****        -2.7389  -1.9070   4.1687 H              1 S1                 0.0000
     43 ****        -1.4124  -1.4423   5.2160 H              1 S1                 0.0000
     44 ****         0.0462  -0.9686   3.2830 H              1 S1                 0.0000
     45 ****        -1.4503  -0.0623   3.1690 H              1 S1                 0.0000
     46 ****        -2.2957  -1.7674   1.7346 H              1 S1                 0.0000
     47 ****         1.2482   1.5605   1.2231 LP             1 S1                 0.0000
     48 ****         1.8657   2.8915   0.3026 LP             1 S1                 0.0000
     49 ****         2.3706   5.7776  -2.3013 LP             1 S1                 0.0000
     50 ****         3.8976   5.3176  -1.9503 LP             1 S1                 0.0000
     51 ****         2.3068   4.0457  -0.4942 LP             1 S1                 0.0000
     52 ****        -0.1424  -3.1785   4.3209 LP             1 S1                 0.0000
     53 ****        -1.5292  -3.7319   4.9821 LP             1 S1                 0.0000
@<TRIPOS>BOND
    1    1    2 1     
    2    1   22 1     
    3    1   23 1     
    4    1   24 1     
    5    2    3 1     
    6    2   25 1     
    7    2   26 1     
    8    3    4 1     
    9    3    5 1     
   10    3   16 1     
   11    4   27 1     
   12    4   28 1     
   13    4   29 1     
   14    5    6 1     
   15    5   30 1     
   16    5   31 1     
   17    6    7 am    
   18    6   32 1     
   19    7    8 2     
   20    7    9 am    
   21    9   10 1     
   22    9   33 1     
   23   10   15 2     
   24   10   11 1     
   25   11   12 2     
   26   11   34 1     
   27   12   13 1     
   28   12   14 1     
   29   13   35 1     
   30   13   36 1     
   31   13   37 1     
   32   14   15 1     
   33   16   21 1     
   34   16   17 1     
   35   16   46 1     
   36   17   18 1     
   37   17   38 1     
   38   17   39 1     
   39   18   19 1     
   40   18   40 1     
   41   18   41 1     
   42   19   20 1     
   43   20   21 1     
   44   20   42 1     
   45   20   43 1     
   46   21   44 1     
   47   21   45 1     
   48    8   47 1     
   49    8   48 1     
   50   14   49 1     
   51   14   50 1     
   52   15   51 1     
   53   19   52 1     
   54   19   53 1     
@<TRIPOS>SUBSTRUCTURE
      1 S1             1
@<TRIPOS>SET
LONE_PAIRS      STATIC     ATOMS    <user>   **** ""
7 47 48 49 50 51 52 53
DONOR_HYDROGENS      STATIC     ATOMS    <user>   **** ""
3 32 33 46
ATOM$BLUE        STATIC     ATOMS    COLORGROUP SYSTEM
7 47 48 49 50 51 52 53
ATOM$RED        STATIC     ATOMS    COLORGROUP SYSTEM
3 32 33 46
