AV-unprocessed.smi:2297|AV-procd|sdf|9222|dock10
  -GOLD-   2272012443D 1   1.00000     0.00000
 Structure written by MMmdl.
 44 45  0  0  0  0  0  0  0  0  1 V2000
  153.4319  142.0801  162.2113 C   0  0  0  0  0  0  0  0  0  0  0  0
  152.8215  142.2257  160.8325 C   0  0  0  0  0  0  0  0  0  0  0  0
  152.4564  143.4967  160.3457 C   0  0  0  0  0  0  0  0  0  0  0  0
  151.8887  143.6251  159.0633 C   0  0  0  0  0  0  0  0  0  0  0  0
  151.4971  144.9944  158.5470 C   0  0  0  0  0  0  0  0  0  0  0  0
  151.6882  142.4778  158.2690 C   0  0  0  0  0  0  0  0  0  0  0  0
  152.0476  141.1990  158.7409 C   0  0  0  0  0  0  0  0  0  0  0  0
  151.8156  140.1346  157.8967 O   0  0  0  0  0  0  0  0  0  0  0  0
  151.7780  140.3798  156.4957 C   0  0  0  0  0  0  0  0  0  0  0  0
  151.8613  139.0517  155.7242 C   0  0  2  0  0  0  0  0  0  0  0  0
  153.2061  138.8630  155.3317 O   0  0  0  0  0  0  0  0  0  0  0  0
  150.9276  139.0073  154.4935 C   0  0  0  0  0  0  0  0  0  0  0  0
  149.5319  139.3210  154.8418 N   0  0  0  0  0  0  0  0  0  0  0  0
  148.8755  138.3992  155.6734 C   0  0  0  0  0  0  0  0  0  0  0  0
  147.6494  138.5732  156.0452 N   0  0  0  0  0  0  0  0  0  0  0  0
  146.9435  139.7004  155.6146 C   0  0  0  0  0  0  0  0  0  0  0  0
  145.5088  139.8017  156.1012 C   0  0  0  0  0  0  0  0  0  0  0  0
  147.5232  140.6330  154.8104 C   0  0  0  0  0  0  0  0  0  0  0  0
  146.8024  141.8764  154.3042 C   0  0  0  0  0  0  0  0  0  0  0  0
  148.9215  140.4536  154.3878 C   0  0  0  0  0  0  0  0  0  0  0  0
  149.5137  141.2661  153.6747 O   0  0  0  0  0  0  0  0  0  0  0  0
  152.6169  141.0821  160.0340 C   0  0  0  0  0  0  0  0  0  0  0  0
  153.6250  143.0519  162.6667 H   0  0  0  0  0  0  0  0  0  0  0  0
  154.3768  141.5395  162.1523 H   0  0  0  0  0  0  0  0  0  0  0  0
  152.7583  141.5249  162.8645 H   0  0  0  0  0  0  0  0  0  0  0  0
  152.6106  144.3758  160.9546 H   0  0  0  0  0  0  0  0  0  0  0  0
  151.0871  144.9381  157.5382 H   0  0  0  0  0  0  0  0  0  0  0  0
  152.3655  145.6531  158.5251 H   0  0  0  0  0  0  0  0  0  0  0  0
  150.7436  145.4409  159.1962 H   0  0  0  0  0  0  0  0  0  0  0  0
  151.2535  142.5740  157.2846 H   0  0  0  0  0  0  0  0  0  0  0  0
  150.8767  140.9280  156.2151 H   0  0  0  0  0  0  0  0  0  0  0  0
  152.6373  140.9938  156.2212 H   0  0  0  0  0  0  0  0  0  0  0  0
  151.6124  138.2498  156.4204 H   0  0  0  0  0  0  0  0  0  0  0  0
  153.4328  137.9547  155.4594 H   0  0  0  0  0  0  0  0  0  0  0  0
  151.2682  139.7371  153.7565 H   0  0  0  0  0  0  0  0  0  0  0  0
  151.0181  138.0481  153.9790 H   0  0  0  0  0  0  0  0  0  0  0  0
  149.4701  137.5375  155.9818 H   0  0  0  0  0  0  0  0  0  0  0  0
  144.8187  139.7943  155.2572 H   0  0  0  0  0  0  0  0  0  0  0  0
  145.3606  140.7228  156.6654 H   0  0  0  0  0  0  0  0  0  0  0  0
  145.2498  138.9666  156.7529 H   0  0  0  0  0  0  0  0  0  0  0  0
  147.3297  142.7753  154.6257 H   0  0  0  0  0  0  0  0  0  0  0  0
  145.7766  141.9537  154.6603 H   0  0  0  0  0  0  0  0  0  0  0  0
  146.7716  141.8743  153.2141 H   0  0  0  0  0  0  0  0  0  0  0  0
  152.9057  140.1228  160.4360 H   0  0  0  0  0  0  0  0  0  0  0  0
  1  2  1  0  0  0  0
  1 23  1  0  0  0  0
  1 24  1  0  0  0  0
  1 25  1  0  0  0  0
  2 22  1  0  0  0  0
  2  3  2  0  0  0  0
  3  4  1  0  0  0  0
  3 26  1  0  0  0  0
  4  5  1  0  0  0  0
  4  6  2  0  0  0  0
  5 27  1  0  0  0  0
  5 28  1  0  0  0  0
  5 29  1  0  0  0  0
  6  7  1  0  0  0  0
  6 30  1  0  0  0  0
  7  8  1  0  0  0  0
  7 22  2  0  0  0  0
  8  9  1  0  0  0  0
  9 10  1  0  0  0  0
  9 31  1  0  0  0  0
  9 32  1  0  0  0  0
 10 11  1  0  0  0  0
 10 12  1  0  0  0  0
 10 33  1  0  0  0  0
 11 34  1  0  0  0  0
 12 13  1  0  0  0  0
 12 35  1  0  0  0  0
 12 36  1  0  0  0  0
 13 20  1  0  0  0  0
 13 14  1  0  0  0  0
 14 15  2  0  0  0  0
 14 37  1  0  0  0  0
 15 16  1  0  0  0  0
 16 17  1  0  0  0  0
 16 18  2  0  0  0  0
 17 38  1  0  0  0  0
 17 39  1  0  0  0  0
 17 40  1  0  0  0  0
 18 19  1  0  0  0  0
 18 20  1  0  0  0  0
 19 41  1  0  0  0  0
 19 42  1  0  0  0  0
 19 43  1  0  0  0  0
 20 21  2  0  0  0  0
 22 44  1  0  0  0  0
M  END
> <s_m_source_file>
AV-unprocessed.smi

> <i_m_source_file_index>
2297

> <i_lp_mmshare_version>
43012

> <i_f3d_flags>
0

> <s_epik_input>
W0NIM11jMVtjSF1jKFtDSDNdKVtjSF1jKFtjSF0xKU9bQ0gyXVtDQEhdKFtPSF0pW0NIMl1uMltjSF1uYyhbQ0gzXSljKFtDSDNdKWMyPU8=

> <s_epik_cmdline>
J2VwaWtfcHl0aG9uJywgJy1waCcsICc3LjAnLCAnLXRuJywgJzgnLCAnLW1hJywgJzIwMCcsICctbWV0YWxfYmluZGluZycsICctaW1hZScsICc8aW5maWxlLm1hZT4nLCAnLW9tYWUnLCAnPG91dGZpbGUubWFlPic=

> <r_lp_tautomer_probability>
1

> <r_epik_Ionization_Penalty>
3.72236e-05

> <r_epik_Ionization_Penalty_Charging>
8.38864e-08

> <r_epik_Ionization_Penalty_Neutral>
3.71397e-05

> <r_epik_State_Penalty>
-0

> <r_epik_Charging_Adjusted_Penalty>
8.38864e-08

> <i_epik_Tot_Q>
0

> <i_epik_Tot_abs_Q>
0

> <r_epik_Metal_State_Penalty>
-0

> <b_epik_Metal_Only>
0

> <s_lp_Force_Field>
OPLS_2005

> <r_lp_Energy>
24.6499

> <b_lp_Chiralities_Consistent>
1

> <s_lp_Variant>
AV-unprocessed.smi:2297-1

> <Gold.Version>
5.8.1

> <Gold.Id.Protein>
6NUR|6NUR_protein|mol2

> <Gold.PLP.Fitness>
49.2632

> <Gold.PLP.PLP>
-45.1945

> <Gold.PLP.part.hbond>
-3.0000

> <Gold.PLP.part.metal>
0.0000

> <Gold.PLP.part.buried>
-4.5254

> <Gold.PLP.part.nonpolar>
-38.5950

> <Gold.PLP.part.repulsive>
1.8240

> <Gold.PLP.ligand.clash>
0.0565

> <Gold.PLP.ligand.torsion>
1.0016

> <Gold.PLP.Chemscore.Hbond>
2.0136

> <Gold.PLP.Chemscore.CHOScore>
0.0000

> <Gold.PLP.Chemscore.Metal>
0.0000

> <Gold.Chemscore.Hbonds>
donor molecule, donor type, donor heavy atom, donor atom, acceptor molecule, acceptor atom, score
      P1  H  7989  7998       L1    21  0.17
      P1  H  7997  8009       L1    11  1.00
      P1  H  8011  8017       L1    21  0.90

> <Gold.PLP.Chemscore.Internal.Correction>
0.0874

> <Gold.Rescore>
     Score         DG    S(hbond)    S(metal)    S(lipo)     H(rot)  DE(clash)    DE(int)     intcor
     18.23     -20.49       2.08        0.00     119.80       2.32       1.32       0.95       ----

> <Gold.Chemscore.Fitness>
18.2274

> <Gold.Chemscore.DG>
-20.4922

> <Gold.Chemscore.ZeroCoef>
-5.4800

> <Gold.Chemscore.Hbond>
2.0792

> <Gold.Chemscore.Metal>
0.0000

> <Gold.Chemscore.Lipo>
119.7971

> <Gold.Chemscore.Internal_Hbond>
0.0000

> <Gold.Chemscore.DEClash>
1.3185

> <Gold.Chemscore.DEInternal>
0.9463

> <Gold.Chemscore.Rot>
2.3236

> <Gold.Chemscore.Internal.Correction>
   9.000000E+99

> <Gold.Chemscore.Hbonds>
donor molecule, donor type, donor heavy atom, donor atom, acceptor molecule, acceptor atom, score
      P1  H  7989  7998       L1    21  0.16
      P1  H  7997  8009       L1    11  0.87
      P1  H  8011  8017       L1    21  0.88

> <Gold.Chemscore.Hbond.Weighted>
-6.9444

> <Gold.Chemscore.Metal.Weighted>
-0.0000

> <Gold.Chemscore.Lipo.Weighted>
-14.0163

> <Gold.Chemscore.Internal_Hbond.Weighted>
0.0000

> <Gold.Chemscore.DEClash.Weighted>
1.3185

> <Gold.Chemscore.DEInternal.Weighted>
0.9463

> <Gold.Chemscore.Rot.Weighted>
5.9484

> <Gold.Chemscore.Internal.Correction.Weighted>
   9.000000E+99

> <Gold.Protein.RotatedTorsions>
[ 6907 6896 6895 6894 ] final   71.20 input  -60.11 | X-H torsion
[ 7974 7965 7964 7962 ] final   65.41 input  175.53 | X-H torsion
[ 8008 7997 7996 7995 ] final -137.09 input   59.86 | X-H torsion
[ 10167 10162 10161 10158 ] final   15.35 input  -65.29 | X-H torsion
[ 10718 10713 10712 10709 ] final  122.33 input   66.30 | X-H torsion
[ 10763 10752 10751 10750 ] final -111.07 input  -60.55 | X-H torsion
[ 11005 11000 10999 10996 ] final  -42.94 input  -57.11 | X-H torsion

> <Gold.Protein.ActiveResidues>
 VAL166  LYS551  ARG553  GLY616  TRP617  ASP618  TYR619  PRO620  LYS621  CYS622 
 ASP623  PHE694  ASN695  SER759  ASP760  ASP761  ALA762  ILE779  LEU786  VAL792 
 PHE793  MET794  SER795  GLU796  ALA797  LYS798  CYS799  TRP800  GLU811  SER814 

> <Gold.Protein.RotatedAtoms>
  152.4795  134.4756  159.9649 H   0  0  0  0  0  0  0  0  0  0  0  0  # atno 6907 bound_to 6896
  151.4765  133.3550  159.2839 H   0  0  0  0  0  0  0  0  0  0  0  0  # atno 6908 bound_to 6896
  150.8858  134.8281  159.7318 H   0  0  0  0  0  0  0  0  0  0  0  0  # atno 6909 bound_to 6896
  145.8388  139.3183  143.0943 H   0  0  0  0  0  0  0  0  0  0  0  0  # atno 7974 bound_to 7965
  155.4060  140.0509  157.3034 H   0  0  0  0  0  0  0  0  0  0  0  0  # atno 8008 bound_to 7997
  154.4968  140.2141  155.9390 H   0  0  0  0  0  0  0  0  0  0  0  0  # atno 8009 bound_to 7997
  156.1416  140.3153  155.8509 H   0  0  0  0  0  0  0  0  0  0  0  0  # atno 8010 bound_to 7997
  140.5873  143.8865  150.6841 H   0  0  0  0  0  0  0  0  0  0  0  0  # atno 10167 bound_to 10162
  157.5751  131.1080  150.8295 H   0  0  0  0  0  0  0  0  0  0  0  0  # atno 10718 bound_to 10713
  154.8281  135.4541  154.0983 H   0  0  0  0  0  0  0  0  0  0  0  0  # atno 10763 bound_to 10752
  153.2279  135.6902  153.7930 H   0  0  0  0  0  0  0  0  0  0  0  0  # atno 10764 bound_to 10752
  153.7323  135.3325  155.3264 H   0  0  0  0  0  0  0  0  0  0  0  0  # atno 10765 bound_to 10752
  141.0350  133.6804  156.2663 H   0  0  0  0  0  0  0  0  0  0  0  0  # atno 11005 bound_to 11000
  145.9488  140.8924  143.0270 LP  0  0  0  0  0  0  0  0  0  0  0  0  # atno 17320 bound_to 7965
  144.6735  140.1651  143.7419 LP  0  0  0  0  0  0  0  0  0  0  0  0  # atno 17321 bound_to 7965
  140.2379  143.3686  152.1511 LP  0  0  0  0  0  0  0  0  0  0  0  0  # atno 17342 bound_to 10162
  139.5205  144.7034  151.5426 LP  0  0  0  0  0  0  0  0  0  0  0  0  # atno 17343 bound_to 10162
  156.8756  130.5161  149.5294 LP  0  0  0  0  0  0  0  0  0  0  0  0  # atno 17370 bound_to 10713
  156.0795  130.5809  150.9537 LP  0  0  0  0  0  0  0  0  0  0  0  0  # atno 17371 bound_to 10713
  140.6339  134.5235  157.5562 LP  0  0  0  0  0  0  0  0  0  0  0  0  # atno 17394 bound_to 11000
  139.9234  134.8104  156.1142 LP  0  0  0  0  0  0  0  0  0  0  0  0  # atno 17395 bound_to 11000

$$$$
