#       Name:                AV-unprocessed.smi:2173
#       Creating user name   scv26
#       Creation time:       Fri Mar 27 12:03:18 2020


#       File generated by GOLD software.
#

@<TRIPOS>MOLECULE
AV-unprocessed.smi:2173
    38    39     1
SMALL
NO_CHARGES


@<TRIPOS>ATOM
      1 ****         0.6609   2.3709  -0.5120 O.2            1 S1                 0.0000
      2 ****         0.2378   1.2690  -0.8634 C.2            1 S1                 0.0000
      3 ****         1.0385   0.2563  -1.2284 N.am           1 S1                 0.0000
      4 ****         2.4970   0.2822  -1.1863 C.3            1 S1                 0.0000
      5 ****         3.0634   0.1393   0.2422 C.3            1 S1                 0.0000
      6 ****         2.5185  -1.0593   1.0030 C.ar           1 S1                 0.0000
      7 ****         3.1511  -2.3169   0.9066 C.ar           1 S1                 0.0000
      8 ****         2.5958  -3.4032   1.6107 C.ar           1 S1                 0.0000
      9 ****         1.4345  -3.1922   2.3789 C.ar           1 S1                 0.0000
     10 ****         0.8789  -1.8979   2.4114 C.ar           1 S1                 0.0000
     11 ****         1.4039  -0.8503   1.7409 N.ar           1 S1                 0.0000
     12 ****        -1.2697   0.9856  -0.8816 C.3            1 S1                 0.0000
     13 ****        -1.8285   0.8977   0.5570 C.3            1 S1                 0.0000
     14 ****        -3.3462   0.8662   0.5808 C.2            1 S1                 0.0000
     15 ****        -4.1091   1.2173  -0.4685 C.2            1 S1                 0.0000
     16 ****        -3.5403   1.6908  -1.7948 C.3            1 S1                 0.0000
     17 ****        -2.0428   2.0412  -1.6974 C.3            1 S1                 0.0000
     18 ****         0.6059  -0.6133  -1.5043 H              1 S1                 0.0000
     19 ****         2.8537  -0.5455  -1.7997 H              1 S1                 0.0000
     20 ****         2.8720   1.1941  -1.6537 H              1 S1                 0.0000
     21 ****         4.1503   0.0656   0.1969 H              1 S1                 0.0000
     22 ****         2.8512   1.0443   0.8135 H              1 S1                 0.0000
     23 ****         4.0381  -2.4478   0.3043 H              1 S1                 0.0000
     24 ****         3.0512  -4.3811   1.5610 H              1 S1                 0.0000
     25 ****         0.9806  -4.0022   2.9304 H              1 S1                 0.0000
     26 ****        -0.0115  -1.6988   2.9894 H              1 S1                 0.0000
     27 ****        -1.4271   0.0193  -1.3650 H              1 S1                 0.0000
     28 ****        -1.4547  -0.0045   1.0424 H              1 S1                 0.0000
     29 ****        -1.4990   1.7427   1.1633 H              1 S1                 0.0000
     30 ****        -3.8118   0.5525   1.5035 H              1 S1                 0.0000
     31 ****        -5.1851   1.1593  -0.3932 H              1 S1                 0.0000
     32 ****        -3.6961   0.9004  -2.5295 H              1 S1                 0.0000
     33 ****        -4.1030   2.5590  -2.1386 H              1 S1                 0.0000
     34 ****        -1.9366   3.0179  -1.2221 H              1 S1                 0.0000
     35 ****        -1.6225   2.1400  -2.6992 H              1 S1                 0.0000
     36 ****         1.6455   2.5444  -0.4891 LP             1 S1                 0.0000
     37 ****         0.0199   3.0922  -0.2495 LP             1 S1                 0.0000
     38 ****         0.9809   0.0546   1.7884 LP             1 S1                 0.0000
@<TRIPOS>BOND
    1    1    2 2     
    2    2    3 am    
    3    2   12 1     
    4    3    4 1     
    5    3   18 1     
    6    4    5 1     
    7    4   19 1     
    8    4   20 1     
    9    5    6 1     
   10    5   21 1     
   11    5   22 1     
   12    6   11 ar    
   13    6    7 ar    
   14    7    8 ar    
   15    7   23 1     
   16    8    9 ar    
   17    8   24 1     
   18    9   10 ar    
   19    9   25 1     
   20   10   11 ar    
   21   10   26 1     
   22   12   17 1     
   23   12   13 1     
   24   12   27 1     
   25   13   14 1     
   26   13   28 1     
   27   13   29 1     
   28   14   15 2     
   29   14   30 1     
   30   15   16 1     
   31   15   31 1     
   32   16   17 1     
   33   16   32 1     
   34   16   33 1     
   35   17   34 1     
   36   17   35 1     
   37    1   36 1     
   38    1   37 1     
   39   11   38 1     
@<TRIPOS>SUBSTRUCTURE
      1 S1             1
@<TRIPOS>SET
LONE_PAIRS      STATIC     ATOMS    <user>   **** ""
3 36 37 38
DONOR_HYDROGENS      STATIC     ATOMS    <user>   **** ""
1 18
ATOM$BLUE        STATIC     ATOMS    COLORGROUP SYSTEM
3 36 37 38
ATOM$RED        STATIC     ATOMS    COLORGROUP SYSTEM
1 18
