#       Name:                AV-unprocessed.smi:1995
#       Creating user name   scv26
#       Creation time:       Fri Mar 27 10:28:53 2020


#       File generated by GOLD software.
#

@<TRIPOS>MOLECULE
AV-unprocessed.smi:1995
    48    49     1
SMALL
NO_CHARGES


@<TRIPOS>ATOM
      1 ****        -2.7716  -1.5712   0.9889 C.3            1 S1                 0.0000
      2 ****        -1.2601  -1.2774   1.0028 C.3            1 S1                 0.0000
      3 ****        -0.6878  -0.6257  -0.2962 C.3            1 S1                 0.0000
      4 ****        -1.3001   0.7987  -0.3763 C.3            1 S1                 0.0000
      5 ****         0.8623  -0.4944  -0.1387 C.3            1 S1                 0.0000
      6 ****         1.2787   0.2614   1.0435 N.am           1 S1                 0.0000
      7 ****         1.7115   1.5308   1.0512 C.2            1 S1                 0.0000
      8 ****         1.8134   2.2215   0.0374 O.2            1 S1                 0.0000
      9 ****         2.0055   1.9352   2.2976 N.am           1 S1                 0.0000
     10 ****         2.4663   3.2102   2.7102 C.2            1 S1                 0.0000
     11 ****         2.6927   3.4256   4.0075 N.2            1 S1                 0.0000
     12 ****         3.1375   4.7279   4.2536 C.2            1 S1                 0.0000
     13 ****         3.2464   5.4971   3.1217 C.2            1 S1                 0.0000
     14 ****         2.7920   4.6136   1.6896 S.3            1 S1                 0.0000
     15 ****        -1.0617  -1.4192  -1.5019 N.3            1 S1                 0.0000
     16 ****        -0.6083  -2.8157  -1.4987 C.3            1 S1                 0.0000
     17 ****        -1.1621  -3.6036  -2.6981 C.3            1 S1                 0.0000
     18 ****        -0.7853  -2.9597  -3.9093 O.3            1 S1                 0.0000
     19 ****        -1.2510  -1.6173  -3.9788 C.3            1 S1                 0.0000
     20 ****        -0.6985  -0.8136  -2.7890 C.3            1 S1                 0.0000
     21 ****        -3.0784  -2.0357   1.9261 H              1 S1                 0.0000
     22 ****        -3.0453  -2.2537   0.1846 H              1 S1                 0.0000
     23 ****        -3.3598  -0.6615   0.8717 H              1 S1                 0.0000
     24 ****        -1.0638  -0.6332   1.8606 H              1 S1                 0.0000
     25 ****        -0.7258  -2.1996   1.2298 H              1 S1                 0.0000
     26 ****        -1.2551   1.3191   0.5808 H              1 S1                 0.0000
     27 ****        -2.3478   0.7714  -0.6764 H              1 S1                 0.0000
     28 ****        -0.7736   1.4294  -1.0930 H              1 S1                 0.0000
     29 ****         1.3181  -1.4788  -0.0381 H              1 S1                 0.0000
     30 ****         1.3103  -0.0538  -1.0296 H              1 S1                 0.0000
     31 ****         1.2275  -0.2243   1.9270 H              1 S1                 0.0000
     32 ****         1.8764   1.2597   3.0364 H              1 S1                 0.0000
     33 ****         3.3542   5.0249   5.2690 H              1 S1                 0.0000
     34 ****         3.5655   6.5259   3.0441 H              1 S1                 0.0000
     35 ****         0.4802  -2.8600  -1.5271 H              1 S1                 0.0000
     36 ****        -0.9216  -3.3276  -0.5911 H              1 S1                 0.0000
     37 ****        -0.7678  -4.6198  -2.6986 H              1 S1                 0.0000
     38 ****        -2.2489  -3.6821  -2.6406 H              1 S1                 0.0000
     39 ****        -0.9230  -1.1753  -4.9197 H              1 S1                 0.0000
     40 ****        -2.3421  -1.6019  -3.9816 H              1 S1                 0.0000
     41 ****        -1.0856   0.2009  -2.8670 H              1 S1                 0.0000
     42 ****         0.3851  -0.7477  -2.8853 H              1 S1                 0.0000
     43 ****         1.5670   1.8408  -0.8538 LP             1 S1                 0.0000
     44 ****         2.1427   3.1633   0.1051 LP             1 S1                 0.0000
     45 ****         2.5599   2.7365   4.7199 LP             1 S1                 0.0000
     46 ****        -2.0583  -1.4113  -1.4205 LP             1 S1                 0.0000
     47 ****        -1.1680  -3.4724  -4.6778 LP             1 S1                 0.0000
     48 ****         0.2126  -2.9570  -3.9743 LP             1 S1                 0.0000
@<TRIPOS>BOND
    1    1    2 1     
    2    1   21 1     
    3    1   22 1     
    4    1   23 1     
    5    2    3 1     
    6    2   24 1     
    7    2   25 1     
    8    3    4 1     
    9    3    5 1     
   10    3   15 1     
   11    4   26 1     
   12    4   27 1     
   13    4   28 1     
   14    5    6 1     
   15    5   29 1     
   16    5   30 1     
   17    6    7 am    
   18    6   31 1     
   19    7    8 2     
   20    7    9 am    
   21    9   10 1     
   22    9   32 1     
   23   10   14 1     
   24   10   11 2     
   25   11   12 1     
   26   12   13 2     
   27   12   33 1     
   28   13   14 1     
   29   13   34 1     
   30   15   20 1     
   31   15   16 1     
   32   16   17 1     
   33   16   35 1     
   34   16   36 1     
   35   17   18 1     
   36   17   37 1     
   37   17   38 1     
   38   18   19 1     
   39   19   20 1     
   40   19   39 1     
   41   19   40 1     
   42   20   41 1     
   43   20   42 1     
   44    8   43 1     
   45    8   44 1     
   46   11   45 1     
   47   15   46 1     
   48   18   47 1     
   49   18   48 1     
@<TRIPOS>SUBSTRUCTURE
      1 S1             1
@<TRIPOS>SET
LONE_PAIRS      STATIC     ATOMS    <user>   **** ""
6 43 44 45 46 47 48
DONOR_HYDROGENS      STATIC     ATOMS    <user>   **** ""
2 31 32
ATOM$BLUE        STATIC     ATOMS    COLORGROUP SYSTEM
6 43 44 45 46 47 48
ATOM$RED        STATIC     ATOMS    COLORGROUP SYSTEM
2 31 32
