AV-unprocessed.smi:2855|AV-procd|sdf|10977|dock6
  -GOLD-   2272015433D 1   1.00000     0.00000
 Structure written by MMmdl.
 47 48  0  0  0  0  0  0  0  0  1 V2000
  151.1466  144.4380  159.2258 C   0  0  0  0  0  0  0  0  0  0  0  0
  150.9336  143.0614  158.5798 C   0  0  2  0  0  0  0  0  0  0  0  0
  151.7448  141.9711  159.2970 C   0  0  0  0  0  0  0  0  0  0  0  0
  151.5373  140.5904  158.6548 C   0  0  0  0  0  0  0  0  0  0  0  0
  151.8906  140.5776  157.1459 C   0  0  1  0  0  0  0  0  0  0  0  0
  151.7078  139.1662  156.5039 C   0  0  0  0  0  0  0  0  0  0  0  0
  152.3799  138.0505  157.3271 C   0  0  0  0  0  0  0  0  0  0  0  0
  152.2318  139.0953  155.0561 C   0  0  0  0  0  0  0  0  0  0  0  0
  151.1089  141.7043  156.4115 C   0  0  1  0  0  0  0  0  0  0  0  0
  149.6894  141.3687  156.3017 N   0  0  0  0  0  0  0  0  0  0  0  0
  149.0134  141.1751  155.1598 C   0  0  0  0  0  0  0  0  0  0  0  0
  149.5071  141.3316  154.0426 O   0  0  0  0  0  0  0  0  0  0  0  0
  147.5489  140.7440  155.3051 C   0  0  0  0  0  0  0  0  0  0  0  0
  146.6201  141.8562  155.0603 N   0  0  0  0  0  0  0  0  0  0  0  0
  146.5749  142.4750  153.8191 C   0  0  0  0  0  0  0  0  0  0  0  0
  145.7353  143.4962  153.5257 C   0  0  0  0  0  0  0  0  0  0  0  0
  144.8114  144.0061  154.5333 C   0  0  0  0  0  0  0  0  0  0  0  0
  144.0146  144.9260  154.3636 O   0  0  0  0  0  0  0  0  0  0  0  0
  144.8854  143.3563  155.7684 N   0  0  0  0  0  0  0  0  0  0  0  0
  145.7475  142.3031  156.0775 C   0  0  0  0  0  0  0  0  0  0  0  0
  145.7290  141.7975  157.1996 O   0  0  0  0  0  0  0  0  0  0  0  0
  151.2920  143.0803  157.0833 C   0  0  0  0  0  0  0  0  0  0  0  0
  144.2622  143.6736  156.4966 H   0  0  0  0  0  0  0  0  0  0  0  0
  152.1909  144.7462  159.1685 H   0  0  0  0  0  0  0  0  0  0  0  0
  150.8601  144.4263  160.2776 H   0  0  0  0  0  0  0  0  0  0  0  0
  150.5468  145.2015  158.7296 H   0  0  0  0  0  0  0  0  0  0  0  0
  149.8752  142.8162  158.6771 H   0  0  0  0  0  0  0  0  0  0  0  0
  152.8057  142.2247  159.2749 H   0  0  0  0  0  0  0  0  0  0  0  0
  151.4608  141.9286  160.3491 H   0  0  0  0  0  0  0  0  0  0  0  0
  152.1533  139.8781  159.2011 H   0  0  0  0  0  0  0  0  0  0  0  0
  150.5035  140.2729  158.7973 H   0  0  0  0  0  0  0  0  0  0  0  0
  152.9494  140.8292  157.0662 H   0  0  0  0  0  0  0  0  0  0  0  0
  150.6420  138.9364  156.4701 H   0  0  0  0  0  0  0  0  0  0  0  0
  153.4370  138.2609  157.4920 H   0  0  0  0  0  0  0  0  0  0  0  0
  152.3112  137.0897  156.8162 H   0  0  0  0  0  0  0  0  0  0  0  0
  151.9058  137.9153  158.2984 H   0  0  0  0  0  0  0  0  0  0  0  0
  153.2810  139.3863  154.9994 H   0  0  0  0  0  0  0  0  0  0  0  0
  151.6660  139.7385  154.3830 H   0  0  0  0  0  0  0  0  0  0  0  0
  152.1469  138.0843  154.6569 H   0  0  0  0  0  0  0  0  0  0  0  0
  151.5273  141.7990  155.4087 H   0  0  0  0  0  0  0  0  0  0  0  0
  149.1931  141.2272  157.1696 H   0  0  0  0  0  0  0  0  0  0  0  0
  147.3224  139.9157  154.6300 H   0  0  0  0  0  0  0  0  0  0  0  0
  147.4134  140.3425  156.3102 H   0  0  0  0  0  0  0  0  0  0  0  0
  147.2382  142.1277  153.0397 H   0  0  0  0  0  0  0  0  0  0  0  0
  145.7460  143.9372  152.5394 H   0  0  0  0  0  0  0  0  0  0  0  0
  150.6931  143.8299  156.5642 H   0  0  0  0  0  0  0  0  0  0  0  0
  152.3306  143.3933  156.9678 H   0  0  0  0  0  0  0  0  0  0  0  0
  1  2  1  0  0  0  0
  1 24  1  0  0  0  0
  1 25  1  0  0  0  0
  1 26  1  0  0  0  0
  2 22  1  0  0  0  0
  2  3  1  0  0  0  0
  2 27  1  0  0  0  0
  3  4  1  0  0  0  0
  3 28  1  0  0  0  0
  3 29  1  0  0  0  0
  4  5  1  0  0  0  0
  4 30  1  0  0  0  0
  4 31  1  0  0  0  0
  5  6  1  0  0  0  0
  5  9  1  0  0  0  0
  5 32  1  0  0  0  0
  6  7  1  0  0  0  0
  6  8  1  0  0  0  0
  6 33  1  0  0  0  0
  7 34  1  0  0  0  0
  7 35  1  0  0  0  0
  7 36  1  0  0  0  0
  8 37  1  0  0  0  0
  8 38  1  0  0  0  0
  8 39  1  0  0  0  0
  9 10  1  0  0  0  0
  9 22  1  0  0  0  0
  9 40  1  0  0  0  0
 10 11  1  0  0  0  0
 10 41  1  0  0  0  0
 11 12  2  0  0  0  0
 11 13  1  0  0  0  0
 13 14  1  0  0  0  0
 13 42  1  0  0  0  0
 13 43  1  0  0  0  0
 14 20  1  0  0  0  0
 14 15  1  0  0  0  0
 15 16  2  0  0  0  0
 15 44  1  0  0  0  0
 16 17  1  0  0  0  0
 16 45  1  0  0  0  0
 17 18  2  0  0  0  0
 17 19  1  0  0  0  0
 19 23  1  0  0  0  0
 19 20  1  0  0  0  0
 20 21  2  0  0  0  0
 22 46  1  0  0  0  0
 22 47  1  0  0  0  0
M  END
> <s_m_source_file>
AV-unprocessed.smi

> <i_m_source_file_index>
2855

> <i_lp_mmshare_version>
43012

> <i_f3d_flags>
0

> <s_epik_input>
W0NIM11bQ0BASF0xW0NIMl1bQ0gyXVtDQEBIXShbQ0hdKFtDSDNdKVtDSDNdKVtDQEhdKFtDSDJdMSlbTkhdQyg9TylbQ0gyXW4yW2NIXVtjSF1jKD1PKVtuSF1jMj1P

> <s_epik_cmdline>
J2VwaWtfcHl0aG9uJywgJy1waCcsICc3LjAnLCAnLXRuJywgJzgnLCAnLW1hJywgJzIwMCcsICctbWV0YWxfYmluZGluZycsICctaW1hZScsICc8aW5maWxlLm1hZT4nLCAnLW9tYWUnLCAnPG91dGZpbGUubWFlPic=

> <r_lp_tautomer_probability>
0.999537

> <r_epik_Ionization_Penalty>
0.00306256

> <r_epik_Ionization_Penalty_Charging>
0.00306254

> <r_epik_Ionization_Penalty_Neutral>
2.0223e-08

> <r_epik_State_Penalty>
0.0021533

> <r_epik_Charging_Adjusted_Penalty>
0.00521583

> <i_epik_Tot_Q>
0

> <i_epik_Tot_abs_Q>
0

> <r_epik_Metal_State_Penalty>
0.362116

> <b_epik_Metal_Only>
0

> <s_lp_Force_Field>
OPLS_2005

> <r_lp_Energy>
12.8991

> <b_lp_Chiralities_Consistent>
1

> <s_lp_Variant>
AV-unprocessed.smi:2855-1

> <Gold.Version>
5.8.1

> <Gold.Id.Protein>
6NUR|6NUR_protein|mol2

> <Gold.PLP.Fitness>
41.4160

> <Gold.PLP.PLP>
-39.2567

> <Gold.PLP.part.hbond>
-2.0000

> <Gold.PLP.part.metal>
0.0000

> <Gold.PLP.part.buried>
-6.7954

> <Gold.PLP.part.nonpolar>
-30.1596

> <Gold.PLP.part.repulsive>
0.3786

> <Gold.PLP.ligand.clash>
0.0000

> <Gold.PLP.ligand.torsion>
0.2923

> <Gold.PLP.Chemscore.Hbond>
0.8990

> <Gold.PLP.Chemscore.CHOScore>
0.0000

> <Gold.PLP.Chemscore.Metal>
0.0000

> <Gold.Chemscore.Hbonds>
donor molecule, donor type, donor heavy atom, donor atom, acceptor molecule, acceptor atom, score
      P1  H  7989  7998       L1    12  0.17
      P1  H  8011  8017       L1    12  0.72

> <Gold.PLP.Chemscore.Internal.Correction>
0.0468

> <Gold.Rescore>
     Score         DG    S(hbond)    S(metal)    S(lipo)     H(rot)  DE(clash)    DE(int)     intcor
     14.64     -15.50       1.08        0.00      95.29       1.85       0.55       0.31       ----

> <Gold.Chemscore.Fitness>
14.6419

> <Gold.Chemscore.DG>
-15.5014

> <Gold.Chemscore.ZeroCoef>
-5.4800

> <Gold.Chemscore.Hbond>
1.0834

> <Gold.Chemscore.Metal>
0.0000

> <Gold.Chemscore.Lipo>
95.2910

> <Gold.Chemscore.Internal_Hbond>
0.0000

> <Gold.Chemscore.DEClash>
0.5472

> <Gold.Chemscore.DEInternal>
0.3123

> <Gold.Chemscore.Rot>
1.8539

> <Gold.Chemscore.Internal.Correction>
   9.000000E+99

> <Gold.Chemscore.Hbonds>
donor molecule, donor type, donor heavy atom, donor atom, acceptor molecule, acceptor atom, score
      P1  H  7989  7998       L1    12  0.17
      P1  H  8011  8017       L1    12  0.67

> <Gold.Chemscore.Hbond.Weighted>
-3.6184

> <Gold.Chemscore.Metal.Weighted>
-0.0000

> <Gold.Chemscore.Lipo.Weighted>
-11.1490

> <Gold.Chemscore.Internal_Hbond.Weighted>
0.0000

> <Gold.Chemscore.DEClash.Weighted>
0.5472

> <Gold.Chemscore.DEInternal.Weighted>
0.3123

> <Gold.Chemscore.Rot.Weighted>
4.7460

> <Gold.Chemscore.Internal.Correction.Weighted>
   9.000000E+99

> <Gold.Protein.RotatedTorsions>
[ 6907 6896 6895 6894 ] final   40.33 input  -60.11 | X-H torsion
[ 7974 7965 7964 7962 ] final -149.45 input  175.53 | X-H torsion
[ 8008 7997 7996 7995 ] final  177.05 input   59.86 | X-H torsion
[ 10167 10162 10161 10158 ] final  123.77 input  -65.29 | X-H torsion
[ 10718 10713 10712 10709 ] final   94.97 input   66.30 | X-H torsion
[ 10763 10752 10751 10750 ] final -165.15 input  -60.55 | X-H torsion
[ 11005 11000 10999 10996 ] final -143.56 input  -57.11 | X-H torsion

> <Gold.Protein.ActiveResidues>
 VAL166  LYS551  ARG553  GLY616  TRP617  ASP618  TYR619  PRO620  LYS621  CYS622 
 ASP623  PHE694  ASN695  SER759  ASP760  ASP761  ALA762  ILE779  LEU786  VAL792 
 PHE793  MET794  SER795  GLU796  ALA797  LYS798  CYS799  TRP800  GLU811  SER814 

> <Gold.Protein.RotatedAtoms>
  152.1812  134.8753  160.0525 H   0  0  0  0  0  0  0  0  0  0  0  0  # atno 6907 bound_to 6896
  151.9676  133.3710  159.4067 H   0  0  0  0  0  0  0  0  0  0  0  0  # atno 6908 bound_to 6896
  150.6918  134.4097  159.5200 H   0  0  0  0  0  0  0  0  0  0  0  0  # atno 6909 bound_to 6896
  144.7967  140.5063  143.5735 H   0  0  0  0  0  0  0  0  0  0  0  0  # atno 7974 bound_to 7965
  156.0699  140.1368  156.9841 H   0  0  0  0  0  0  0  0  0  0  0  0  # atno 8008 bound_to 7997
  154.4526  140.0974  156.6714 H   0  0  0  0  0  0  0  0  0  0  0  0  # atno 8009 bound_to 7997
  155.5245  140.3457  155.4415 H   0  0  0  0  0  0  0  0  0  0  0  0  # atno 8010 bound_to 7997
  139.5780  144.6973  151.3602 H   0  0  0  0  0  0  0  0  0  0  0  0  # atno 10167 bound_to 10162
  157.6943  131.0530  150.4267 H   0  0  0  0  0  0  0  0  0  0  0  0  # atno 10718 bound_to 10713
  154.6960  135.2979  154.9411 H   0  0  0  0  0  0  0  0  0  0  0  0  # atno 10763 bound_to 10752
  154.0358  135.6664  153.4789 H   0  0  0  0  0  0  0  0  0  0  0  0  # atno 10764 bound_to 10752
  153.0646  135.5095  154.8078 H   0  0  0  0  0  0  0  0  0  0  0  0  # atno 10765 bound_to 10752
  140.8112  134.2742  157.4940 H   0  0  0  0  0  0  0  0  0  0  0  0  # atno 11005 bound_to 11000
  145.5656  139.1481  143.3317 LP  0  0  0  0  0  0  0  0  0  0  0  0  # atno 17320 bound_to 7965
  146.2237  140.5791  142.9006 LP  0  0  0  0  0  0  0  0  0  0  0  0  # atno 17321 bound_to 7965
  140.7061  143.7510  150.7485 LP  0  0  0  0  0  0  0  0  0  0  0  0  # atno 17342 bound_to 10162
  140.1035  143.4766  152.2412 LP  0  0  0  0  0  0  0  0  0  0  0  0  # atno 17343 bound_to 10162
  156.4638  130.4037  149.6560 LP  0  0  0  0  0  0  0  0  0  0  0  0  # atno 17370 bound_to 10713
  156.3665  130.7509  151.2487 LP  0  0  0  0  0  0  0  0  0  0  0  0  # atno 17371 bound_to 10713
  139.8714  134.9484  156.3996 LP  0  0  0  0  0  0  0  0  0  0  0  0  # atno 17394 bound_to 11000
  140.9195  133.7655  155.9889 LP  0  0  0  0  0  0  0  0  0  0  0  0  # atno 17395 bound_to 11000

$$$$
