AV-unprocessed.smi:261|AV-procd|sdf|1986|dock3
  -GOLD-   2262021163D 1   1.00000     0.00000
 Structure written by MMmdl.
 51 54  0  0  0  0  0  0  0  0  1 V2000
  143.6152  134.8802  159.7579 C   0  0  0  0  0  0  0  0  0  0  0  0
  144.6690  135.7114  159.2979 O   0  0  0  0  0  0  0  0  0  0  0  0
  145.8145  134.9965  158.8504 C   0  0  2  0  0  0  0  0  0  0  0  0
  146.6110  134.3928  160.0151 C   0  0  0  0  0  0  0  0  0  0  0  0
  147.5119  135.5334  160.5152 C   0  0  2  0  0  0  0  0  0  0  0  0
  146.8371  136.3403  161.6459 C   0  0  0  0  0  0  0  0  0  0  0  0
  145.8353  135.7799  162.3325 N   0  0  0  0  0  0  0  0  0  0  0  0
  147.2215  137.4817  161.8903 O   0  0  0  0  0  0  0  0  0  0  0  0
  147.7684  136.3007  159.2956 N   0  0  0  0  0  0  0  0  0  0  0  0
  148.8085  137.1599  159.1064 C   0  0  0  0  0  0  0  0  0  0  0  0
  149.9219  136.9817  159.8664 N   0  0  0  0  0  0  0  0  0  0  0  0
  150.9816  137.7819  159.7277 C   0  0  0  0  0  0  0  0  0  0  0  0
  151.1440  138.8112  158.8975 N   0  0  0  0  0  0  0  0  0  0  0  0
  150.0349  139.0024  158.1285 C   0  0  0  0  0  0  0  0  0  0  0  0
  148.8336  138.2353  158.1658 C   0  0  0  0  0  0  0  0  0  0  0  0
  147.9380  138.7419  157.2291 N   0  0  0  0  0  0  0  0  0  0  0  0
  148.5726  139.7327  156.6671 C   0  0  0  0  0  0  0  0  0  0  0  0
  149.8431  139.9543  157.1426 N   0  0  0  0  0  0  0  0  0  0  0  0
  150.7784  140.9715  156.6926 C   0  0  0  0  0  0  0  0  0  0  0  0
  150.5505  142.3604  157.3312 C   0  0  2  0  0  0  0  0  0  0  0  0
  151.0294  143.3866  156.4832 O   0  0  0  0  0  0  0  0  0  0  0  0
  151.1182  142.5288  158.7600 C   0  0  2  0  0  0  0  0  0  0  0  0
  151.3135  143.9660  159.2416 C   0  0  0  0  0  0  0  0  0  0  0  0
  152.3192  143.8142  160.3734 C   0  0  0  0  0  0  0  0  0  0  0  0
  152.9274  142.4227  160.1606 C   0  0  0  0  0  0  0  0  0  0  0  0
  152.4114  141.9668  158.9183 O   0  0  0  0  0  0  0  0  0  0  0  0
  146.7990  136.0031  158.2453 C   0  0  0  0  0  0  0  0  0  0  0  0
  145.5267  134.2460  158.1122 H   0  0  0  0  0  0  0  0  0  0  0  0
  148.4327  135.0965  160.9007 H   0  0  0  0  0  0  0  0  0  0  0  0
  142.7733  135.5002  160.0657 H   0  0  0  0  0  0  0  0  0  0  0  0
  143.9151  134.2793  160.6162 H   0  0  0  0  0  0  0  0  0  0  0  0
  143.2668  134.2130  158.9684 H   0  0  0  0  0  0  0  0  0  0  0  0
  145.9865  133.9533  160.7931 H   0  0  0  0  0  0  0  0  0  0  0  0
  147.2414  133.5893  159.6314 H   0  0  0  0  0  0  0  0  0  0  0  0
  145.3814  136.2969  163.0718 H   0  0  0  0  0  0  0  0  0  0  0  0
  145.5343  134.8434  162.1054 H   0  0  0  0  0  0  0  0  0  0  0  0
  151.8195  137.5645  160.3734 H   0  0  0  0  0  0  0  0  0  0  0  0
  148.1319  140.3264  155.8796 H   0  0  0  0  0  0  0  0  0  0  0  0
  151.7907  140.6218  156.8992 H   0  0  0  0  0  0  0  0  0  0  0  0
  150.7016  141.0517  155.6077 H   0  0  0  0  0  0  0  0  0  0  0  0
  149.4718  142.5077  157.3931 H   0  0  0  0  0  0  0  0  0  0  0  0
  150.2918  143.8897  156.1743 H   0  0  0  0  0  0  0  0  0  0  0  0
  150.4517  142.0173  159.4578 H   0  0  0  0  0  0  0  0  0  0  0  0
  151.7466  144.5855  158.4556 H   0  0  0  0  0  0  0  0  0  0  0  0
  150.3814  144.4324  159.5614 H   0  0  0  0  0  0  0  0  0  0  0  0
  153.0756  144.5987  160.3333 H   0  0  0  0  0  0  0  0  0  0  0  0
  151.8297  143.8702  161.3462 H   0  0  0  0  0  0  0  0  0  0  0  0
  154.0172  142.4404  160.1441 H   0  0  0  0  0  0  0  0  0  0  0  0
  152.6109  141.7400  160.9504 H   0  0  0  0  0  0  0  0  0  0  0  0
  147.3232  135.5520  157.4013 H   0  0  0  0  0  0  0  0  0  0  0  0
  146.2933  136.9016  157.8885 H   0  0  0  0  0  0  0  0  0  0  0  0
  1  2  1  0  0  0  0
  1 30  1  0  0  0  0
  1 31  1  0  0  0  0
  1 32  1  0  0  0  0
  2  3  1  0  0  0  0
  3 28  1  0  0  0  0
  3 27  1  0  0  0  0
  3  4  1  0  0  0  0
  4  5  1  0  0  0  0
  4 33  1  0  0  0  0
  4 34  1  0  0  0  0
  5 29  1  0  0  0  0
  5  6  1  0  0  0  0
  5  9  1  0  0  0  0
  6  7  1  0  0  0  0
  6  8  2  0  0  0  0
  7 35  1  0  0  0  0
  7 36  1  0  0  0  0
  9 10  1  0  0  0  0
  9 27  1  0  0  0  0
 10 15  1  0  0  0  0
 10 11  2  0  0  0  0
 11 12  1  0  0  0  0
 12 13  2  0  0  0  0
 12 37  1  0  0  0  0
 13 14  1  0  0  0  0
 14 18  1  0  0  0  0
 14 15  2  0  0  0  0
 15 16  1  0  0  0  0
 16 17  2  0  0  0  0
 17 18  1  0  0  0  0
 17 38  1  0  0  0  0
 18 19  1  0  0  0  0
 19 20  1  0  0  0  0
 19 39  1  0  0  0  0
 19 40  1  0  0  0  0
 20 21  1  0  0  0  0
 20 22  1  0  0  0  0
 20 41  1  0  0  0  0
 21 42  1  0  0  0  0
 22 26  1  0  0  0  0
 22 23  1  0  0  0  0
 22 43  1  0  0  0  0
 23 24  1  0  0  0  0
 23 44  1  0  0  0  0
 23 45  1  0  0  0  0
 24 25  1  0  0  0  0
 24 46  1  0  0  0  0
 24 47  1  0  0  0  0
 25 26  1  0  0  0  0
 25 48  1  0  0  0  0
 25 49  1  0  0  0  0
 27 50  1  0  0  0  0
 27 51  1  0  0  0  0
M  END
> <s_m_source_file>
AV-unprocessed.smi

> <i_m_source_file_index>
261

> <i_lp_mmshare_version>
43012

> <i_f3d_flags>
0

> <s_epik_input>
W0NIM11PW0NASF0xW0NIMl1bQ0BASF0oQyg9TylbTkgyXSlOKFtDSDJdMSljKG5bY0hdbjIpYyhjMjMpbltjSF1uM1tDSDJdW0NASF0oW09IXSlbQ0BASF00W0NIMl1bQ0gyXVtDSDJdTzQ=

> <s_epik_cmdline>
J2VwaWtfcHl0aG9uJywgJy1waCcsICc3LjAnLCAnLXRuJywgJzgnLCAnLW1hJywgJzIwMCcsICctbWV0YWxfYmluZGluZycsICctaW1hZScsICc8aW5maWxlLm1hZT4nLCAnLW9tYWUnLCAnPG91dGZpbGUubWFlPic=

> <r_lp_tautomer_probability>
1

> <r_epik_Ionization_Penalty>
0.000713824

> <r_epik_Ionization_Penalty_Charging>
0

> <r_epik_Ionization_Penalty_Neutral>
0.000713824

> <r_epik_State_Penalty>
0.000402132

> <r_epik_Charging_Adjusted_Penalty>
0.000402132

> <i_epik_Tot_Q>
0

> <i_epik_Tot_abs_Q>
0

> <r_epik_Metal_State_Penalty>
-0

> <b_epik_Metal_Only>
0

> <s_lp_Force_Field>
OPLS_2005

> <r_lp_Energy>
46.7805

> <b_lp_Chiralities_Consistent>
1

> <s_lp_Variant>
AV-unprocessed.smi:261-4

> <Gold.Version>
5.8.1

> <Gold.Id.Protein>
6NUR|6NUR_protein|mol2

> <Gold.PLP.Fitness>
44.6548

> <Gold.PLP.PLP>
-37.4048

> <Gold.PLP.part.hbond>
-4.0000

> <Gold.PLP.part.metal>
0.0000

> <Gold.PLP.part.buried>
-7.1980

> <Gold.PLP.part.nonpolar>
-26.7639

> <Gold.PLP.part.repulsive>
0.0664

> <Gold.PLP.ligand.clash>
0.0000

> <Gold.PLP.ligand.torsion>
1.8188

> <Gold.PLP.Chemscore.Hbond>
3.6006

> <Gold.PLP.Chemscore.CHOScore>
0.0000

> <Gold.PLP.Chemscore.Metal>
0.0000

> <Gold.Chemscore.Hbonds>
donor molecule, donor type, donor heavy atom, donor atom, acceptor molecule, acceptor atom, score
      L1  H    21    42       P1  8028  1.00
      P1  H  6896  6908       L1    11  0.40
      P1  H  6931  6943       L1     8  0.72
      P1  H  6934  6947       L1     8  0.74

> <Gold.PLP.Chemscore.Internal.Correction>
0.0858

> <Gold.Rescore>
     Score         DG    S(hbond)    S(metal)    S(lipo)     H(rot)  DE(clash)    DE(int)     intcor
     15.86     -17.53       3.64        0.00      68.81       3.18       0.01       1.65       ----

> <Gold.Chemscore.Fitness>
15.8630

> <Gold.Chemscore.DG>
-17.5300

> <Gold.Chemscore.ZeroCoef>
-5.4800

> <Gold.Chemscore.Hbond>
3.6371

> <Gold.Chemscore.Metal>
0.0000

> <Gold.Chemscore.Lipo>
68.8084

> <Gold.Chemscore.Internal_Hbond>
0.0000

> <Gold.Chemscore.DEClash>
0.0124

> <Gold.Chemscore.DEInternal>
1.6545

> <Gold.Chemscore.Rot>
3.1831

> <Gold.Chemscore.Internal.Correction>
   9.000000E+99

> <Gold.Chemscore.Hbonds>
donor molecule, donor type, donor heavy atom, donor atom, acceptor molecule, acceptor atom, score
      L1  H    21    42       P1  8028  1.00
      P1  H  6896  6908       L1    11  0.07
      P1  H  6931  6943       L1     8  0.71
      P1  H  6934  6947       L1     8  0.74

> <Gold.Chemscore.Hbond.Weighted>
-12.1480

> <Gold.Chemscore.Metal.Weighted>
-0.0000

> <Gold.Chemscore.Lipo.Weighted>
-8.0506

> <Gold.Chemscore.Internal_Hbond.Weighted>
0.0000

> <Gold.Chemscore.DEClash.Weighted>
0.0124

> <Gold.Chemscore.DEInternal.Weighted>
1.6545

> <Gold.Chemscore.Rot.Weighted>
8.1486

> <Gold.Chemscore.Internal.Correction.Weighted>
   9.000000E+99

> <Gold.Protein.RotatedTorsions>
[ 6907 6896 6895 6894 ] final -153.62 input  -60.11 | X-H torsion
[ 7974 7965 7964 7962 ] final  114.70 input  175.53 | X-H torsion
[ 8008 7997 7996 7995 ] final  -54.63 input   59.86 | X-H torsion
[ 10167 10162 10161 10158 ] final   -8.47 input  -65.29 | X-H torsion
[ 10718 10713 10712 10709 ] final   48.83 input   66.30 | X-H torsion
[ 10763 10752 10751 10750 ] final   94.16 input  -60.55 | X-H torsion
[ 11005 11000 10999 10996 ] final  115.19 input  -57.11 | X-H torsion

> <Gold.Protein.ActiveResidues>
 VAL166  LYS551  ARG553  GLY616  TRP617  ASP618  TYR619  PRO620  LYS621  CYS622 
 ASP623  PHE694  ASN695  SER759  ASP760  ASP761  ALA762  ILE779  LEU786  VAL792 
 PHE793  MET794  SER795  GLU796  ALA797  LYS798  CYS799  TRP800  GLU811  SER814 

> <Gold.Protein.RotatedAtoms>
  151.2453  133.4378  159.2608 H   0  0  0  0  0  0  0  0  0  0  0  0  # atno 6907 bound_to 6896
  151.0667  134.9772  159.8298 H   0  0  0  0  0  0  0  0  0  0  0  0  # atno 6908 bound_to 6896
  152.5406  134.2400  159.8911 H   0  0  0  0  0  0  0  0  0  0  0  0  # atno 6909 bound_to 6896
  145.2012  139.2952  143.4317 H   0  0  0  0  0  0  0  0  0  0  0  0  # atno 7974 bound_to 7965
  154.4169  140.1172  156.5346 H   0  0  0  0  0  0  0  0  0  0  0  0  # atno 8008 bound_to 7997
  155.6570  140.3496  155.4749 H   0  0  0  0  0  0  0  0  0  0  0  0  # atno 8009 bound_to 7997
  155.9745  140.1148  157.0772 H   0  0  0  0  0  0  0  0  0  0  0  0  # atno 8010 bound_to 7997
  140.7060  143.5965  150.8841 H   0  0  0  0  0  0  0  0  0  0  0  0  # atno 10167 bound_to 10162
  157.4726  130.8265  149.8005 H   0  0  0  0  0  0  0  0  0  0  0  0  # atno 10718 bound_to 10713
  153.2384  135.4300  155.0672 H   0  0  0  0  0  0  0  0  0  0  0  0  # atno 10763 bound_to 10752
  154.8329  135.3396  154.6685 H   0  0  0  0  0  0  0  0  0  0  0  0  # atno 10764 bound_to 10752
  153.7109  135.7023  153.5094 H   0  0  0  0  0  0  0  0  0  0  0  0  # atno 10765 bound_to 10752
  139.9002  134.9580  156.7007 H   0  0  0  0  0  0  0  0  0  0  0  0  # atno 11005 bound_to 11000
  146.3417  140.2257  142.8592 LP  0  0  0  0  0  0  0  0  0  0  0  0  # atno 17320 bound_to 7965
  144.9946  140.8578  143.5318 LP  0  0  0  0  0  0  0  0  0  0  0  0  # atno 17321 bound_to 7965
  139.9690  143.6078  152.2979 LP  0  0  0  0  0  0  0  0  0  0  0  0  # atno 17342 bound_to 10162
  139.6658  144.7662  151.1876 LP  0  0  0  0  0  0  0  0  0  0  0  0  # atno 17343 bound_to 10162
  156.0081  130.3846  150.2360 LP  0  0  0  0  0  0  0  0  0  0  0  0  # atno 17370 bound_to 10713
  157.0543  131.0071  151.3243 LP  0  0  0  0  0  0  0  0  0  0  0  0  # atno 17371 bound_to 10713
  140.7153  133.9188  155.8111 LP  0  0  0  0  0  0  0  0  0  0  0  0  # atno 17394 bound_to 11000
  141.0269  134.0811  157.4058 LP  0  0  0  0  0  0  0  0  0  0  0  0  # atno 17395 bound_to 11000

$$$$
