AV-unprocessed.smi:1490|AV-procd|sdf|6031|dock2
  -GOLD-   22720 6133D 1   1.00000     0.00000
 Structure written by MMmdl.
 37 38  0  0  0  0  0  0  0  0  3 V2000
  151.4483  128.6409  154.9456 C   0  0  0  0  0  0  0  0  0  0  0  0
  150.0996  129.0512  155.0794 O   0  0  0  0  0  0  0  0  0  0  0  0
  149.6922  129.9478  154.0591 C   0  0  0  0  0  0  0  0  0  0  0  0
  148.2533  130.4089  154.3320 C   0  0  0  0  0  0  0  0  0  0  0  0
  147.9210  131.6429  153.6064 N   0  0  0  0  0  0  0  0  0  0  0  0
  148.3991  132.9102  153.7550 C   0  0  0  0  0  0  0  0  0  0  0  0
  149.6163  133.4363  154.9159 S   0  0  0  0  0  0  0  0  0  0  0  0
  149.8844  135.1981  154.5699 C   0  0  0  0  0  0  0  0  0  0  0  0
  150.6988  135.8896  155.6624 C   0  0  0  0  0  0  0  0  0  0  0  0
  150.3951  135.7247  156.8430 O   0  0  0  0  0  0  0  0  0  0  0  0
  151.7044  136.6300  155.1461 N   0  5  0  0  0  0  0  0  0  0  0  0
  151.3979  137.9142  154.5480 C   0  0  0  0  0  0  0  0  0  0  0  0
  151.9908  139.0041  155.3382 C   0  0  0  0  0  0  0  0  0  0  0  0
  152.4579  139.8618  155.9596 N   0  0  0  0  0  0  0  0  0  0  0  0
  147.7557  133.7025  152.8539 N   0  3  0  0  0  0  0  0  0  0  0  0
  146.8477  132.9344  152.1232 C   0  0  0  0  0  0  0  0  0  0  0  0
  145.9674  133.2879  151.1056 C   0  0  0  0  0  0  0  0  0  0  0  0
  145.1662  132.2566  150.5725 C   0  0  0  0  0  0  0  0  0  0  0  0
  144.0511  132.6212  149.3080 Cl  0  0  0  0  0  0  0  0  0  0  0  0
  145.2584  130.9343  151.0550 C   0  0  0  0  0  0  0  0  0  0  0  0
  146.1546  130.5863  152.0871 C   0  0  0  0  0  0  0  0  0  0  0  0
  146.9451  131.6117  152.6047 C   0  0  0  0  0  0  0  0  0  0  0  0
  151.7031  127.9558  155.7543 H   0  0  0  0  0  0  0  0  0  0  0  0
  152.1267  129.4931  154.9997 H   0  0  0  0  0  0  0  0  0  0  0  0
  151.6105  128.1222  154.0001 H   0  0  0  0  0  0  0  0  0  0  0  0
  150.3578  130.8114  154.0302 H   0  0  0  0  0  0  0  0  0  0  0  0
  149.7511  129.4562  153.0868 H   0  0  0  0  0  0  0  0  0  0  0  0
  147.5486  129.6387  154.0171 H   0  0  0  0  0  0  0  0  0  0  0  0
  148.0840  130.5629  155.3979 H   0  0  0  0  0  0  0  0  0  0  0  0
  150.3912  135.2965  153.6095 H   0  0  0  0  0  0  0  0  0  0  0  0
  148.9193  135.6968  154.4677 H   0  0  0  0  0  0  0  0  0  0  0  0
  151.7862  138.0095  153.5332 H   0  0  0  0  0  0  0  0  0  0  0  0
  150.3255  138.1023  154.4929 H   0  0  0  0  0  0  0  0  0  0  0  0
  145.8941  134.3011  150.7384 H   0  0  0  0  0  0  0  0  0  0  0  0
  144.6280  130.1694  150.6250 H   0  0  0  0  0  0  0  0  0  0  0  0
  146.2141  129.5713  152.4508 H   0  0  0  0  0  0  0  0  0  0  0  0
  147.9228  134.6957  152.7567 H   0  0  0  0  0  0  0  0  0  0  0  0
  1  2  1  0  0  0  0
  1 23  1  0  0  0  0
  1 24  1  0  0  0  0
  1 25  1  0  0  0  0
  2  3  1  0  0  0  0
  3  4  1  0  0  0  0
  3 26  1  0  0  0  0
  3 27  1  0  0  0  0
  4  5  1  0  0  0  0
  4 28  1  0  0  0  0
  4 29  1  0  0  0  0
  5 22  1  0  0  0  0
  5  6  1  0  0  0  0
  6  7  1  0  0  0  0
  6 15  2  0  0  0  0
  7  8  1  0  0  0  0
  8  9  1  0  0  0  0
  8 30  1  0  0  0  0
  8 31  1  0  0  0  0
  9 10  2  0  0  0  0
  9 11  1  0  0  0  0
 11 12  1  0  0  0  0
 12 13  1  0  0  0  0
 12 32  1  0  0  0  0
 12 33  1  0  0  0  0
 13 14  3  0  0  0  0
 15 16  1  0  0  0  0
 15 37  1  0  0  0  0
 16 22  2  0  0  0  0
 16 17  1  0  0  0  0
 17 18  2  0  0  0  0
 17 34  1  0  0  0  0
 18 19  1  0  0  0  0
 18 20  1  0  0  0  0
 20 21  2  0  0  0  0
 20 35  1  0  0  0  0
 21 22  1  0  0  0  0
 21 36  1  0  0  0  0
M  CHG  1  11  -1
M  CHG  1  15   1
M  END
> <s_m_source_file>
AV-unprocessed.smi

> <i_m_source_file_index>
1490

> <i_lp_mmshare_version>
43012

> <i_f3d_flags>
0

> <s_epik_input>
W2NIXTFjKENsKVtjSF1bY0hdYyhjMTIpbihbQ0gyXVtDSDJdT1tDSDNdKWMobjIpU1tDSDJdQyg9TylbTkhdW0NIMl1DI04=

> <s_epik_cmdline>
J2VwaWtfcHl0aG9uJywgJy1waCcsICc3LjAnLCAnLXRuJywgJzgnLCAnLW1hJywgJzIwMCcsICctbWV0YWxfYmluZGluZycsICctaW1hZScsICc8aW5maWxlLm1hZT4nLCAnLW9tYWUnLCAnPG91dGZpbGUubWFlPic=

> <r_epik_Ionization_Penalty>
9.25224

> <r_epik_Ionization_Penalty_Charging>
9.25224

> <r_epik_Ionization_Penalty_Neutral>
2.90678e-12

> <r_epik_State_Penalty>
9.37242

> <r_epik_Charging_Adjusted_Penalty>
18.6247

> <i_epik_Tot_Q>
0

> <i_epik_Tot_abs_Q>
2

> <r_epik_Metal_State_Penalty>
5.29561

> <b_epik_Metal_Only>
1

> <s_lp_Force_Field>
OPLS_2005

> <r_lp_Energy>
5.70634

> <b_lp_Chiralities_Consistent>
1

> <s_lp_Variant>
AV-unprocessed.smi:1490-3

> <Gold.Version>
5.8.1

> <Gold.Id.Protein>
6NUR|6NUR_protein|mol2

> <Gold.PLP.Fitness>
55.3604

> <Gold.PLP.PLP>
-42.1409

> <Gold.PLP.part.hbond>
-3.0000

> <Gold.PLP.part.metal>
0.0000

> <Gold.PLP.part.buried>
-3.5991

> <Gold.PLP.part.nonpolar>
-35.7507

> <Gold.PLP.part.repulsive>
0.1571

> <Gold.PLP.ligand.clash>
0.0000

> <Gold.PLP.ligand.torsion>
1.0286

> <Gold.PLP.Chemscore.Hbond>
4.9840

> <Gold.PLP.Chemscore.CHOScore>
0.0000

> <Gold.PLP.Chemscore.Metal>
0.0000

> <Gold.Chemscore.Hbonds>
donor molecule, donor type, donor heavy atom, donor atom, acceptor molecule, acceptor atom, score
      L1  H    15    37       P1  7948  1.89
      P1  H  7997  8010       L1    14  1.00
      P1  H 10752 10764       L1    11  1.89

> <Gold.PLP.Chemscore.Internal.Correction>
0.3246

> <Gold.Rescore>
     Score         DG    S(hbond)    S(metal)    S(lipo)     H(rot)  DE(clash)    DE(int)     intcor
     15.83     -18.20       2.67        0.00      92.43       2.74       1.18       1.19       ----

> <Gold.Chemscore.Fitness>
15.8296

> <Gold.Chemscore.DG>
-18.2000

> <Gold.Chemscore.ZeroCoef>
-5.4800

> <Gold.Chemscore.Hbond>
2.6721

> <Gold.Chemscore.Metal>
0.0000

> <Gold.Chemscore.Lipo>
92.4336

> <Gold.Chemscore.Internal_Hbond>
0.0000

> <Gold.Chemscore.DEClash>
1.1768

> <Gold.Chemscore.DEInternal>
1.1935

> <Gold.Chemscore.Rot>
2.7420

> <Gold.Chemscore.Internal.Correction>
   9.000000E+99

> <Gold.Chemscore.Hbonds>
donor molecule, donor type, donor heavy atom, donor atom, acceptor molecule, acceptor atom, score
      L1  H    15    37       P1  7948  0.71
      P1  H  7997  8010       L1    14  0.99
      P1  H 10752 10764       L1    11  0.72

> <Gold.Chemscore.Hbond.Weighted>
-8.9247

> <Gold.Chemscore.Metal.Weighted>
-0.0000

> <Gold.Chemscore.Lipo.Weighted>
-10.8147

> <Gold.Chemscore.Internal_Hbond.Weighted>
0.0000

> <Gold.Chemscore.DEClash.Weighted>
1.1768

> <Gold.Chemscore.DEInternal.Weighted>
1.1935

> <Gold.Chemscore.Rot.Weighted>
7.0194

> <Gold.Chemscore.Internal.Correction.Weighted>
   9.000000E+99

> <Gold.Protein.RotatedTorsions>
[ 6907 6896 6895 6894 ] final  143.19 input  -60.11 | X-H torsion
[ 7974 7965 7964 7962 ] final   -8.10 input  175.53 | X-H torsion
[ 8008 7997 7996 7995 ] final   75.75 input   59.86 | X-H torsion
[ 10167 10162 10161 10158 ] final  -47.95 input  -65.29 | X-H torsion
[ 10718 10713 10712 10709 ] final -105.24 input   66.30 | X-H torsion
[ 10763 10752 10751 10750 ] final  -77.09 input  -60.55 | X-H torsion
[ 11005 11000 10999 10996 ] final  143.79 input  -57.11 | X-H torsion

> <Gold.Protein.ActiveResidues>
 VAL166  LYS551  ARG553  GLY616  TRP617  ASP618  TYR619  PRO620  LYS621  CYS622 
 ASP623  PHE694  ASN695  SER759  ASP760  ASP761  ALA762  ILE779  LEU786  VAL792 
 PHE793  MET794  SER795  GLU796  ALA797  LYS798  CYS799  TRP800  GLU811  SER814 

> <Gold.Protein.RotatedAtoms>
  152.2094  133.4900  159.5101 H   0  0  0  0  0  0  0  0  0  0  0  0  # atno 6907 bound_to 6896
  150.6987  134.1487  159.4141 H   0  0  0  0  0  0  0  0  0  0  0  0  # atno 6908 bound_to 6896
  151.9406  135.0215  160.0586 H   0  0  0  0  0  0  0  0  0  0  0  0  # atno 6909 bound_to 6896
  146.2289  140.2418  142.8344 H   0  0  0  0  0  0  0  0  0  0  0  0  # atno 7974 bound_to 7965
  155.8174  140.3471  155.5493 H   0  0  0  0  0  0  0  0  0  0  0  0  # atno 8008 bound_to 7997
  155.8378  140.0937  157.1773 H   0  0  0  0  0  0  0  0  0  0  0  0  # atno 8009 bound_to 7997
  154.4004  140.1400  156.3679 H   0  0  0  0  0  0  0  0  0  0  0  0  # atno 8010 bound_to 7997
  140.6752  143.2761  151.4001 H   0  0  0  0  0  0  0  0  0  0  0  0  # atno 10167 bound_to 10162
  156.0338  130.5554  150.7511 H   0  0  0  0  0  0  0  0  0  0  0  0  # atno 10718 bound_to 10713
  154.5084  135.5776  153.6585 H   0  0  0  0  0  0  0  0  0  0  0  0  # atno 10763 bound_to 10752
  152.9892  135.6152  154.2912 H   0  0  0  0  0  0  0  0  0  0  0  0  # atno 10764 bound_to 10752
  154.2824  135.2850  155.2670 H   0  0  0  0  0  0  0  0  0  0  0  0  # atno 10765 bound_to 10752
  140.0582  134.9219  157.1137 H   0  0  0  0  0  0  0  0  0  0  0  0  # atno 11005 bound_to 11000
  144.9478  140.8147  143.5590 LP  0  0  0  0  0  0  0  0  0  0  0  0  # atno 17320 bound_to 7965
  145.2376  139.2087  143.5010 LP  0  0  0  0  0  0  0  0  0  0  0  0  # atno 17321 bound_to 7965
  139.6041  144.1233  152.2230 LP  0  0  0  0  0  0  0  0  0  0  0  0  # atno 17342 bound_to 10162
  140.0627  144.5844  150.7251 LP  0  0  0  0  0  0  0  0  0  0  0  0  # atno 17343 bound_to 10162
  157.5055  131.0922  151.0262 LP  0  0  0  0  0  0  0  0  0  0  0  0  # atno 17370 bound_to 10713
  157.0632  130.5834  149.5389 LP  0  0  0  0  0  0  0  0  0  0  0  0  # atno 17371 bound_to 10713
  140.3812  134.2285  155.7171 LP  0  0  0  0  0  0  0  0  0  0  0  0  # atno 17394 bound_to 11000
  141.1961  133.8090  157.0685 LP  0  0  0  0  0  0  0  0  0  0  0  0  # atno 17395 bound_to 11000

$$$$
