AV-unprocessed.smi:354|AV-procd|sdf|2406|dock2
  -GOLD-   2262022343D 1   1.00000     0.00000
 Structure written by MMmdl.
 37 39  0  0  0  0  0  0  0  0  2 V2000
  152.2588  137.2187  153.7197 O   0  0  0  0  0  0  0  0  0  0  0  0
  151.5559  137.6470  154.8651 C   0  0  0  0  0  0  0  0  0  0  0  0
  150.4447  138.5862  154.5304 C   0  0  0  0  0  0  0  0  0  0  0  0
  149.3934  138.3187  153.7054 N   0  3  0  0  0  0  0  0  0  0  0  0
  148.5504  139.4287  153.6387 C   0  0  0  0  0  0  0  0  0  0  0  0
  147.3661  139.6323  152.9367 C   0  0  0  0  0  0  0  0  0  0  0  0
  146.7513  140.8928  153.0851 C   0  0  0  0  0  0  0  0  0  0  0  0
  147.3146  141.8926  153.9043 C   0  0  0  0  0  0  0  0  0  0  0  0
  148.5141  141.6737  154.6130 C   0  0  0  0  0  0  0  0  0  0  0  0
  149.1151  140.4237  154.4631 C   0  0  0  0  0  0  0  0  0  0  0  0
  150.2798  139.8578  154.9961 N   0  0  0  0  0  0  0  0  0  0  0  0
  151.1099  140.6404  155.9261 C   0  0  0  0  0  0  0  0  0  0  0  0
  150.2887  141.3515  157.0219 C   0  0  1  0  0  0  0  0  0  0  0  0
  149.4954  140.4215  157.7337 O   0  0  0  0  0  0  0  0  0  0  0  0
  151.1816  142.1722  157.9423 C   0  0  0  0  0  0  0  0  0  0  0  0
  151.2156  143.5774  157.8087 C   0  0  0  0  0  0  0  0  0  0  0  0
  152.0424  144.3531  158.6441 C   0  0  0  0  0  0  0  0  0  0  0  0
  152.8429  143.7288  159.6191 C   0  0  0  0  0  0  0  0  0  0  0  0
  152.8157  142.3283  159.7578 C   0  0  0  0  0  0  0  0  0  0  0  0
  151.9903  141.5498  158.9226 C   0  0  0  0  0  0  0  0  0  0  0  0
  151.9849  140.2025  159.0663 F   0  0  0  0  0  0  0  0  0  0  0  0
  151.6327  136.9677  153.0578 H   0  0  0  0  0  0  0  0  0  0  0  0
  151.1548  136.7770  155.3850 H   0  0  0  0  0  0  0  0  0  0  0  0
  152.2521  138.1353  155.5475 H   0  0  0  0  0  0  0  0  0  0  0  0
  146.9332  138.8689  152.3070 H   0  0  0  0  0  0  0  0  0  0  0  0
  145.8304  141.0978  152.5589 H   0  0  0  0  0  0  0  0  0  0  0  0
  146.8173  142.8478  153.9911 H   0  0  0  0  0  0  0  0  0  0  0  0
  148.9393  142.4493  155.2327 H   0  0  0  0  0  0  0  0  0  0  0  0
  151.8725  139.9903  156.3546 H   0  0  0  0  0  0  0  0  0  0  0  0
  151.6486  141.3795  155.3320 H   0  0  0  0  0  0  0  0  0  0  0  0
  149.5881  142.0312  156.5356 H   0  0  0  0  0  0  0  0  0  0  0  0
  148.8649  140.0473  157.1372 H   0  0  0  0  0  0  0  0  0  0  0  0
  150.6078  144.0681  157.0626 H   0  0  0  0  0  0  0  0  0  0  0  0
  152.0640  145.4274  158.5352 H   0  0  0  0  0  0  0  0  0  0  0  0
  153.4783  144.3234  160.2590 H   0  0  0  0  0  0  0  0  0  0  0  0
  153.4315  141.8490  160.5045 H   0  0  0  0  0  0  0  0  0  0  0  0
  149.2626  137.4369  153.2267 H   0  0  0  0  0  0  0  0  0  0  0  0
  1  2  1  0  0  0  0
  1 22  1  0  0  0  0
  2  3  1  0  0  0  0
  2 23  1  0  0  0  0
  2 24  1  0  0  0  0
  3 11  1  0  0  0  0
  3  4  2  0  0  0  0
  4  5  1  0  0  0  0
  4 37  1  0  0  0  0
  5 10  2  0  0  0  0
  5  6  1  0  0  0  0
  6  7  2  0  0  0  0
  6 25  1  0  0  0  0
  7  8  1  0  0  0  0
  7 26  1  0  0  0  0
  8  9  2  0  0  0  0
  8 27  1  0  0  0  0
  9 10  1  0  0  0  0
  9 28  1  0  0  0  0
 10 11  1  0  0  0  0
 11 12  1  0  0  0  0
 12 13  1  0  0  0  0
 12 29  1  0  0  0  0
 12 30  1  0  0  0  0
 13 14  1  0  0  0  0
 13 15  1  0  0  0  0
 13 31  1  0  0  0  0
 14 32  1  0  0  0  0
 15 20  1  0  0  0  0
 15 16  2  0  0  0  0
 16 17  1  0  0  0  0
 16 33  1  0  0  0  0
 17 18  2  0  0  0  0
 17 34  1  0  0  0  0
 18 19  1  0  0  0  0
 18 35  1  0  0  0  0
 19 20  2  0  0  0  0
 19 36  1  0  0  0  0
 20 21  1  0  0  0  0
M  CHG  1   4   1
M  END
> <s_m_source_file>
AV-unprocessed.smi

> <i_m_source_file_index>
354

> <i_lp_mmshare_version>
43012

> <i_f3d_flags>
0

> <s_epik_input>
W2NIXTFbY0hdW2NIXVtjSF1jKGMxMiluKGMobjIpW0NIMl1bT0hdKVtDSDJdW0NASF0oW09IXSljM1tjSF1bY0hdW2NIXVtjSF1jM0Y=

> <s_epik_cmdline>
J2VwaWtfcHl0aG9uJywgJy1waCcsICc3LjAnLCAnLXRuJywgJzgnLCAnLW1hJywgJzIwMCcsICctbWV0YWxfYmluZGluZycsICctaW1hZScsICc8aW5maWxlLm1hZT4nLCAnLW9tYWUnLCAnPG91dGZpbGUubWFlPic=

> <r_epik_Ionization_Penalty>
1.35643

> <r_epik_Ionization_Penalty_Charging>
1.35557

> <r_epik_Ionization_Penalty_Neutral>
0.000857128

> <r_epik_State_Penalty>
1.43401

> <r_epik_Charging_Adjusted_Penalty>
2.78958

> <i_epik_Tot_Q>
1

> <i_epik_Tot_abs_Q>
1

> <r_epik_Metal_State_Penalty>
5.47166

> <b_epik_Metal_Only>
0

> <s_lp_Force_Field>
OPLS_2005

> <r_lp_Energy>
15.3671

> <b_lp_Chiralities_Consistent>
1

> <s_lp_Variant>
AV-unprocessed.smi:354-4

> <Gold.Version>
5.8.1

> <Gold.Id.Protein>
6NUR|6NUR_protein|mol2

> <Gold.PLP.Fitness>
61.6829

> <Gold.PLP.PLP>
-50.5939

> <Gold.PLP.part.hbond>
-3.8196

> <Gold.PLP.part.metal>
0.0000

> <Gold.PLP.part.buried>
1.1671

> <Gold.PLP.part.nonpolar>
-48.2351

> <Gold.PLP.part.repulsive>
0.0525

> <Gold.PLP.ligand.clash>
0.0000

> <Gold.PLP.ligand.torsion>
0.4769

> <Gold.PLP.Chemscore.Hbond>
4.0000

> <Gold.PLP.Chemscore.CHOScore>
0.0000

> <Gold.PLP.Chemscore.Metal>
0.0000

> <Gold.Chemscore.Hbonds>
donor molecule, donor type, donor heavy atom, donor atom, acceptor molecule, acceptor atom, score
      L1  H     1    22       P1  7949  1.00
      L1  H     4    37       P1  7948  2.00
      P1  H 10752 10765       L1     1  0.98

> <Gold.PLP.Chemscore.Internal.Correction>
0.0429

> <Gold.Rescore>
     Score         DG    S(hbond)    S(metal)    S(lipo)     H(rot)  DE(clash)    DE(int)     intcor
     18.92     -21.84       2.45        0.00     131.52       2.82       1.32       1.60       ----

> <Gold.Chemscore.Fitness>
18.9223

> <Gold.Chemscore.DG>
-21.8401

> <Gold.Chemscore.ZeroCoef>
-5.4800

> <Gold.Chemscore.Hbond>
2.4539

> <Gold.Chemscore.Metal>
0.0000

> <Gold.Chemscore.Lipo>
131.5210

> <Gold.Chemscore.Internal_Hbond>
0.0000

> <Gold.Chemscore.DEClash>
1.3186

> <Gold.Chemscore.DEInternal>
1.5992

> <Gold.Chemscore.Rot>
2.8219

> <Gold.Chemscore.Internal.Correction>
   9.000000E+99

> <Gold.Chemscore.Hbonds>
donor molecule, donor type, donor heavy atom, donor atom, acceptor molecule, acceptor atom, score
      L1  H     1    22       P1  7949  0.91
      L1  H     4    37       P1  7948  0.98
      P1  H 10752 10765       L1     1  0.21

> <Gold.Chemscore.Hbond.Weighted>
-8.1961

> <Gold.Chemscore.Metal.Weighted>
-0.0000

> <Gold.Chemscore.Lipo.Weighted>
-15.3880

> <Gold.Chemscore.Internal_Hbond.Weighted>
0.0000

> <Gold.Chemscore.DEClash.Weighted>
1.3186

> <Gold.Chemscore.DEInternal.Weighted>
1.5992

> <Gold.Chemscore.Rot.Weighted>
7.2240

> <Gold.Chemscore.Internal.Correction.Weighted>
   9.000000E+99

> <Gold.Protein.RotatedTorsions>
[ 6907 6896 6895 6894 ] final -143.91 input  -60.11 | X-H torsion
[ 7974 7965 7964 7962 ] final  -38.26 input  175.53 | X-H torsion
[ 8008 7997 7996 7995 ] final -129.99 input   59.86 | X-H torsion
[ 10167 10162 10161 10158 ] final  -85.29 input  -65.29 | X-H torsion
[ 10718 10713 10712 10709 ] final   85.53 input   66.30 | X-H torsion
[ 10763 10752 10751 10750 ] final  146.42 input  -60.55 | X-H torsion
[ 11005 11000 10999 10996 ] final  135.57 input  -57.11 | X-H torsion

> <Gold.Protein.ActiveResidues>
 VAL166  LYS551  ARG553  GLY616  TRP617  ASP618  TYR619  PRO620  LYS621  CYS622 
 ASP623  PHE694  ASN695  SER759  ASP760  ASP761  ALA762  ILE779  LEU786  VAL792 
 PHE793  MET794  SER795  GLU796  ALA797  LYS798  CYS799  TRP800  GLU811  SER814 

> <Gold.Protein.RotatedAtoms>
  151.1068  133.5202  159.2607 H   0  0  0  0  0  0  0  0  0  0  0  0  # atno 6907 bound_to 6896
  151.2012  135.0442  159.8883 H   0  0  0  0  0  0  0  0  0  0  0  0  # atno 6908 bound_to 6896
  152.5447  134.0896  159.8324 H   0  0  0  0  0  0  0  0  0  0  0  0  # atno 6909 bound_to 6896
  146.0502  140.6491  142.9045 H   0  0  0  0  0  0  0  0  0  0  0  0  # atno 7974 bound_to 7965
  155.2883  140.0447  157.3021 H   0  0  0  0  0  0  0  0  0  0  0  0  # atno 8008 bound_to 7997
  154.5556  140.2331  155.8383 H   0  0  0  0  0  0  0  0  0  0  0  0  # atno 8009 bound_to 7997
  156.2004  140.3027  155.9523 H   0  0  0  0  0  0  0  0  0  0  0  0  # atno 8010 bound_to 7997
  140.4051  143.2646  151.9091 H   0  0  0  0  0  0  0  0  0  0  0  0  # atno 10167 bound_to 10162
  157.6916  131.0178  150.2837 H   0  0  0  0  0  0  0  0  0  0  0  0  # atno 10718 bound_to 10713
  154.0216  135.2905  155.3380 H   0  0  0  0  0  0  0  0  0  0  0  0  # atno 10763 bound_to 10752
  154.7042  135.5176  153.8574 H   0  0  0  0  0  0  0  0  0  0  0  0  # atno 10764 bound_to 10752
  153.0678  135.6637  154.0438 H   0  0  0  0  0  0  0  0  0  0  0  0  # atno 10765 bound_to 10752
  139.9988  134.9486  157.0026 H   0  0  0  0  0  0  0  0  0  0  0  0  # atno 11005 bound_to 11000
  144.7119  140.4069  143.7074 LP  0  0  0  0  0  0  0  0  0  0  0  0  # atno 17320 bound_to 7965
  145.6737  139.1604  143.2740 LP  0  0  0  0  0  0  0  0  0  0  0  0  # atno 17321 bound_to 7965
  139.4783  144.5594  151.8263 LP  0  0  0  0  0  0  0  0  0  0  0  0  # atno 17342 bound_to 10162
  140.4698  144.1603  150.5916 LP  0  0  0  0  0  0  0  0  0  0  0  0  # atno 17343 bound_to 10162
  156.3379  130.3810  149.7434 LP  0  0  0  0  0  0  0  0  0  0  0  0  # atno 17370 bound_to 10713
  156.4952  130.8103  151.3111 LP  0  0  0  0  0  0  0  0  0  0  0  0  # atno 17371 bound_to 10713
  140.4766  134.1332  155.7210 LP  0  0  0  0  0  0  0  0  0  0  0  0  # atno 17394 bound_to 11000
  141.1626  133.8764  157.1806 LP  0  0  0  0  0  0  0  0  0  0  0  0  # atno 17395 bound_to 11000

$$$$
