AV-unprocessed.smi:2983|AV-procd|sdf|11377|dock9
  -GOLD-   2272016293D 1   1.00000     0.00000
 Structure written by MMmdl.
 39 40  0  0  0  0  0  0  0  0  1 V2000
  152.6228  142.7242  162.0798 C   0  0  0  0  0  0  0  0  0  0  0  0
  152.1797  144.1075  161.5912 C   0  0  0  0  0  0  0  0  0  0  0  0
  151.6131  144.0740  160.1656 C   0  0  0  0  0  0  0  0  0  0  0  0
  152.6193  143.5107  159.1484 C   0  0  0  0  0  0  0  0  0  0  0  0
  152.1375  142.3088  158.4978 N   0  0  0  0  0  0  0  0  0  0  0  0
  151.3436  142.3167  157.3472 C   0  0  0  0  0  0  0  0  0  0  0  0
  151.0008  143.5414  156.7971 N   0  0  0  0  0  0  0  0  0  0  0  0
  150.9131  141.1623  156.7607 C   0  0  0  0  0  0  0  0  0  0  0  0
  150.1323  141.1240  155.6109 N   0  0  0  0  0  0  0  0  0  0  0  0
  148.8909  141.8714  155.4564 C   0  0  0  0  0  0  0  0  0  0  0  0
  147.7096  140.9148  155.2085 C   0  0  0  0  0  0  0  0  0  0  0  0
  147.9989  140.0683  154.0996 O   0  0  0  0  0  0  0  0  0  0  0  0
  149.1639  139.2769  154.3158 C   0  0  0  0  0  0  0  0  0  0  0  0
  150.3796  140.1985  154.5140 C   0  0  0  0  0  0  0  0  0  0  0  0
  151.2782  139.8596  157.3266 C   0  0  0  0  0  0  0  0  0  0  0  0
  150.9337  138.7636  156.8856 O   0  0  0  0  0  0  0  0  0  0  0  0
  152.0931  139.9166  158.4549 N   0  0  0  0  0  0  0  0  0  0  0  0
  152.5531  141.0795  159.0628 C   0  0  0  0  0  0  0  0  0  0  0  0
  153.2898  140.9962  160.0461 O   0  0  0  0  0  0  0  0  0  0  0  0
  152.3802  139.0383  158.8616 H   0  0  0  0  0  0  0  0  0  0  0  0
  153.0184  142.7777  163.0943 H   0  0  0  0  0  0  0  0  0  0  0  0
  153.4034  142.3129  161.4394 H   0  0  0  0  0  0  0  0  0  0  0  0
  151.7879  142.0230  162.0848 H   0  0  0  0  0  0  0  0  0  0  0  0
  151.4280  144.5063  162.2737 H   0  0  0  0  0  0  0  0  0  0  0  0
  153.0284  144.7912  161.6319 H   0  0  0  0  0  0  0  0  0  0  0  0
  150.7049  143.4702  160.1503 H   0  0  0  0  0  0  0  0  0  0  0  0
  151.3175  145.0817  159.8706 H   0  0  0  0  0  0  0  0  0  0  0  0
  152.8756  144.2380  158.3759 H   0  0  0  0  0  0  0  0  0  0  0  0
  153.5679  143.2575  159.6210 H   0  0  0  0  0  0  0  0  0  0  0  0
  151.3104  144.4103  157.2079 H   0  0  0  0  0  0  0  0  0  0  0  0
  150.4562  143.6126  155.9498 H   0  0  0  0  0  0  0  0  0  0  0  0
  148.7033  142.4789  156.3426 H   0  0  0  0  0  0  0  0  0  0  0  0
  148.9996  142.5616  154.6188 H   0  0  0  0  0  0  0  0  0  0  0  0
  147.4990  140.3111  156.0918 H   0  0  0  0  0  0  0  0  0  0  0  0
  146.8051  141.4839  154.9934 H   0  0  0  0  0  0  0  0  0  0  0  0
  149.0208  138.6278  155.1810 H   0  0  0  0  0  0  0  0  0  0  0  0
  149.3185  138.6291  153.4530 H   0  0  0  0  0  0  0  0  0  0  0  0
  150.5775  140.7678  153.6051 H   0  0  0  0  0  0  0  0  0  0  0  0
  151.2720  139.6043  154.7150 H   0  0  0  0  0  0  0  0  0  0  0  0
  1  2  1  0  0  0  0
  1 21  1  0  0  0  0
  1 22  1  0  0  0  0
  1 23  1  0  0  0  0
  2  3  1  0  0  0  0
  2 24  1  0  0  0  0
  2 25  1  0  0  0  0
  3  4  1  0  0  0  0
  3 26  1  0  0  0  0
  3 27  1  0  0  0  0
  4  5  1  0  0  0  0
  4 28  1  0  0  0  0
  4 29  1  0  0  0  0
  5 18  1  0  0  0  0
  5  6  1  0  0  0  0
  6  7  1  0  0  0  0
  6  8  2  0  0  0  0
  7 30  1  0  0  0  0
  7 31  1  0  0  0  0
  8  9  1  0  0  0  0
  8 15  1  0  0  0  0
  9 14  1  0  0  0  0
  9 10  1  0  0  0  0
 10 11  1  0  0  0  0
 10 32  1  0  0  0  0
 10 33  1  0  0  0  0
 11 12  1  0  0  0  0
 11 34  1  0  0  0  0
 11 35  1  0  0  0  0
 12 13  1  0  0  0  0
 13 14  1  0  0  0  0
 13 36  1  0  0  0  0
 13 37  1  0  0  0  0
 14 38  1  0  0  0  0
 14 39  1  0  0  0  0
 15 16  2  0  0  0  0
 15 17  1  0  0  0  0
 17 20  1  0  0  0  0
 17 18  1  0  0  0  0
 18 19  2  0  0  0  0
M  END
> <s_m_source_file>
AV-unprocessed.smi

> <i_m_source_file_index>
2983

> <i_lp_mmshare_version>
43012

> <i_f3d_flags>
0

> <s_epik_input>
W0NIM11bQ0gyXVtDSDJdW0NIMl1uMWMoW05IMl0pYyhjKD1PKVtuSF1jMT1PKU4yW0NIMl1bQ0gyXU9bQ0gyXVtDSDJdMg==

> <s_epik_cmdline>
J2VwaWtfcHl0aG9uJywgJy1waCcsICc3LjAnLCAnLXRuJywgJzgnLCAnLW1hJywgJzIwMCcsICctbWV0YWxfYmluZGluZycsICctaW1hZScsICc8aW5maWxlLm1hZT4nLCAnLW9tYWUnLCAnPG91dGZpbGUubWFlPic=

> <r_lp_tautomer_probability>
1

> <r_epik_Ionization_Penalty>
1.02563e-05

> <r_epik_Ionization_Penalty_Charging>
2.70122e-06

> <r_epik_Ionization_Penalty_Neutral>
7.55508e-06

> <r_epik_State_Penalty>
-0

> <r_epik_Charging_Adjusted_Penalty>
2.70122e-06

> <i_epik_Tot_Q>
0

> <i_epik_Tot_abs_Q>
0

> <r_epik_Metal_State_Penalty>
-0

> <b_epik_Metal_Only>
0

> <s_epik_Chemistry_Notes>
This compound has an imine and may undergo hydrolysis.

> <s_lp_Force_Field>
OPLS_2005

> <r_lp_Energy>
27.0785

> <b_lp_Chiralities_Consistent>
1

> <s_lp_Variant>
AV-unprocessed.smi:2983-1

> <Gold.Version>
5.8.1

> <Gold.Id.Protein>
6NUR|6NUR_protein|mol2

> <Gold.PLP.Fitness>
35.5244

> <Gold.PLP.PLP>
-35.3211

> <Gold.PLP.part.hbond>
-1.0000

> <Gold.PLP.part.metal>
0.0000

> <Gold.PLP.part.buried>
-0.7703

> <Gold.PLP.part.nonpolar>
-33.6808

> <Gold.PLP.part.repulsive>
0.2592

> <Gold.PLP.ligand.clash>
0.0000

> <Gold.PLP.ligand.torsion>
1.5477

> <Gold.PLP.Chemscore.Hbond>
0.5600

> <Gold.PLP.Chemscore.CHOScore>
0.0000

> <Gold.PLP.Chemscore.Metal>
0.0000

> <Gold.Chemscore.Hbonds>
donor molecule, donor type, donor heavy atom, donor atom, acceptor molecule, acceptor atom, score
      L1  H     7    31       P1  8028  0.54

> <Gold.PLP.Chemscore.Internal.Correction>
1.6187

> <Gold.Rescore>
     Score         DG    S(hbond)    S(metal)    S(lipo)     H(rot)  DE(clash)    DE(int)     intcor
      8.25     -12.03       0.40        0.00      76.36       1.45       0.30       3.49       ----

> <Gold.Chemscore.Fitness>
8.2460

> <Gold.Chemscore.DG>
-12.0331

> <Gold.Chemscore.ZeroCoef>
-5.4800

> <Gold.Chemscore.Hbond>
0.3998

> <Gold.Chemscore.Metal>
0.0000

> <Gold.Chemscore.Lipo>
76.3560

> <Gold.Chemscore.Internal_Hbond>
0.0000

> <Gold.Chemscore.DEClash>
0.2973

> <Gold.Chemscore.DEInternal>
3.4898

> <Gold.Chemscore.Rot>
1.4515

> <Gold.Chemscore.Internal.Correction>
   9.000000E+99

> <Gold.Chemscore.Hbonds>
donor molecule, donor type, donor heavy atom, donor atom, acceptor molecule, acceptor atom, score
      L1  H     7    31       P1  8028  0.54

> <Gold.Chemscore.Hbond.Weighted>
-1.3354

> <Gold.Chemscore.Metal.Weighted>
-0.0000

> <Gold.Chemscore.Lipo.Weighted>
-8.9336

> <Gold.Chemscore.Internal_Hbond.Weighted>
0.0000

> <Gold.Chemscore.DEClash.Weighted>
0.2973

> <Gold.Chemscore.DEInternal.Weighted>
3.4898

> <Gold.Chemscore.Rot.Weighted>
3.7159

> <Gold.Chemscore.Internal.Correction.Weighted>
   9.000000E+99

> <Gold.Protein.RotatedTorsions>
[ 6907 6896 6895 6894 ] final  137.28 input  -60.11 | X-H torsion
[ 7974 7965 7964 7962 ] final   72.56 input  175.53 | X-H torsion
[ 8008 7997 7996 7995 ] final   84.24 input   59.86 | X-H torsion
[ 10167 10162 10161 10158 ] final   21.78 input  -65.29 | X-H torsion
[ 10718 10713 10712 10709 ] final   40.25 input   66.30 | X-H torsion
[ 10763 10752 10751 10750 ] final  113.65 input  -60.55 | X-H torsion
[ 11005 11000 10999 10996 ] final  122.68 input  -57.11 | X-H torsion

> <Gold.Protein.ActiveResidues>
 VAL166  LYS551  ARG553  GLY616  TRP617  ASP618  TYR619  PRO620  LYS621  CYS622 
 ASP623  PHE694  ASN695  SER759  ASP760  ASP761  ALA762  ILE779  LEU786  VAL792 
 PHE793  MET794  SER795  GLU796  ALA797  LYS798  CYS799  TRP800  GLU811  SER814 

> <Gold.Protein.RotatedAtoms>
  152.2799  133.5460  159.5490 H   0  0  0  0  0  0  0  0  0  0  0  0  # atno 6907 bound_to 6896
  150.7192  134.0579  159.3830 H   0  0  0  0  0  0  0  0  0  0  0  0  # atno 6908 bound_to 6896
  151.8490  135.0564  160.0507 H   0  0  0  0  0  0  0  0  0  0  0  0  # atno 6909 bound_to 6896
  145.7518  139.2763  143.1427 H   0  0  0  0  0  0  0  0  0  0  0  0  # atno 7974 bound_to 7965
  155.9345  140.3412  155.6276 H   0  0  0  0  0  0  0  0  0  0  0  0  # atno 8008 bound_to 7997
  155.7116  140.0772  157.2387 H   0  0  0  0  0  0  0  0  0  0  0  0  # atno 8009 bound_to 7997
  154.4091  140.1621  156.2290 H   0  0  0  0  0  0  0  0  0  0  0  0  # atno 8010 bound_to 7997
  140.5400  143.9694  150.6513 H   0  0  0  0  0  0  0  0  0  0  0  0  # atno 10167 bound_to 10162
  157.3800  130.7748  149.7186 H   0  0  0  0  0  0  0  0  0  0  0  0  # atno 10718 bound_to 10713
  153.4956  135.3649  155.2514 H   0  0  0  0  0  0  0  0  0  0  0  0  # atno 10763 bound_to 10752
  154.8750  135.3987  154.3537 H   0  0  0  0  0  0  0  0  0  0  0  0  # atno 10764 bound_to 10752
  153.4165  135.7079  153.6389 H   0  0  0  0  0  0  0  0  0  0  0  0  # atno 10765 bound_to 10752
  139.9279  134.9641  156.8145 H   0  0  0  0  0  0  0  0  0  0  0  0  # atno 11005 bound_to 11000
  146.0349  140.8222  142.9857 LP  0  0  0  0  0  0  0  0  0  0  0  0  # atno 17320 bound_to 7965
  144.6848  140.2823  143.7290 LP  0  0  0  0  0  0  0  0  0  0  0  0  # atno 17321 bound_to 7965
  140.3092  143.3209  152.0896 LP  0  0  0  0  0  0  0  0  0  0  0  0  # atno 17342 bound_to 10162
  139.4985  144.6647  151.6383 LP  0  0  0  0  0  0  0  0  0  0  0  0  # atno 17343 bound_to 10162
  155.9774  130.4064  150.3717 LP  0  0  0  0  0  0  0  0  0  0  0  0  # atno 17370 bound_to 10713
  157.1819  131.0394  151.2744 LP  0  0  0  0  0  0  0  0  0  0  0  0  # atno 17371 bound_to 10713
  140.6285  133.9928  155.7651 LP  0  0  0  0  0  0  0  0  0  0  0  0  # atno 17394 bound_to 11000
  141.0848  134.0006  157.3330 LP  0  0  0  0  0  0  0  0  0  0  0  0  # atno 17395 bound_to 11000

$$$$
