AV-unprocessed.smi:2358|AV-procd|sdf|9404|dock2
  -GOLD-   2272013 33D 1   1.00000     0.00000
 Structure written by MMmdl.
 45 47  0  0  0  0  0  0  0  0  1 V2000
  150.2991  128.0297  153.9176 C   0  0  0  0  0  0  0  0  0  0  0  0
  149.2591  129.0762  153.5739 C   0  0  0  0  0  0  0  0  0  0  0  0
  148.0231  128.6932  153.0164 C   0  0  0  0  0  0  0  0  0  0  0  0
  147.0584  129.6694  152.7004 C   0  0  0  0  0  0  0  0  0  0  0  0
  145.7293  129.2509  152.1068 C   0  0  0  0  0  0  0  0  0  0  0  0
  147.3347  131.0303  152.9432 C   0  0  0  0  0  0  0  0  0  0  0  0
  148.5676  131.4311  153.4972 C   0  0  0  0  0  0  0  0  0  0  0  0
  148.7513  132.7825  153.6978 O   0  0  0  0  0  0  0  0  0  0  0  0
  149.8776  133.2058  154.4550 C   0  0  0  0  0  0  0  0  0  0  0  0
  150.0607  134.7221  154.2674 C   0  0  1  0  0  0  0  0  0  0  0  0
  148.7706  135.2714  154.0826 O   0  0  0  0  0  0  0  0  0  0  0  0
  150.6918  135.3884  155.5109 C   0  0  0  0  0  0  0  0  0  0  0  0
  151.0210  136.7983  155.2671 N   0  0  0  0  0  0  0  0  0  0  0  0
  149.9407  137.5689  154.8707 N   0  0  0  0  0  0  0  0  0  0  0  0
  150.0823  138.8327  154.6318 C   0  0  0  0  0  0  0  0  0  0  0  0
  148.9951  139.6962  154.2168 N   0  0  0  0  0  0  0  0  0  0  0  0
  147.9095  139.1540  153.5320 C   0  0  0  0  0  0  0  0  0  0  0  0
  147.0579  140.2067  153.2801 C   0  0  0  0  0  0  0  0  0  0  0  0
  147.5945  141.3867  153.7946 N   0  0  0  0  0  0  0  0  0  0  0  0
  148.7453  141.0081  154.3370 C   0  0  0  0  0  0  0  0  0  0  0  0
  151.3854  139.4586  154.7764 C   0  0  0  0  0  0  0  0  0  0  0  0
  152.4319  138.6998  155.1680 C   0  0  0  0  0  0  0  0  0  0  0  0
  152.2890  137.2718  155.4492 C   0  0  0  0  0  0  0  0  0  0  0  0
  153.2232  136.5624  155.8210 O   0  0  0  0  0  0  0  0  0  0  0  0
  149.5309  130.4393  153.8110 C   0  0  0  0  0  0  0  0  0  0  0  0
  149.8704  127.0271  153.9100 H   0  0  0  0  0  0  0  0  0  0  0  0
  150.7106  128.2135  154.9105 H   0  0  0  0  0  0  0  0  0  0  0  0
  151.1155  128.0590  153.1961 H   0  0  0  0  0  0  0  0  0  0  0  0
  147.8118  127.6499  152.8311 H   0  0  0  0  0  0  0  0  0  0  0  0
  145.1629  130.1132  151.7539 H   0  0  0  0  0  0  0  0  0  0  0  0
  145.1308  128.7313  152.8553 H   0  0  0  0  0  0  0  0  0  0  0  0
  145.8844  128.5785  151.2628 H   0  0  0  0  0  0  0  0  0  0  0  0
  146.5948  131.7800  152.7030 H   0  0  0  0  0  0  0  0  0  0  0  0
  149.7741  132.9533  155.5120 H   0  0  0  0  0  0  0  0  0  0  0  0
  150.7547  132.6823  154.0717 H   0  0  0  0  0  0  0  0  0  0  0  0
  150.6776  134.9077  153.3868 H   0  0  0  0  0  0  0  0  0  0  0  0
  148.7599  135.7454  153.2649 H   0  0  0  0  0  0  0  0  0  0  0  0
  150.0602  135.2607  156.3923 H   0  0  0  0  0  0  0  0  0  0  0  0
  151.6217  134.8767  155.7651 H   0  0  0  0  0  0  0  0  0  0  0  0
  147.8184  138.1067  153.2814 H   0  0  0  0  0  0  0  0  0  0  0  0
  146.1054  140.2055  152.7709 H   0  0  0  0  0  0  0  0  0  0  0  0
  149.4092  141.7048  154.8270 H   0  0  0  0  0  0  0  0  0  0  0  0
  151.5237  140.5103  154.5772 H   0  0  0  0  0  0  0  0  0  0  0  0
  153.4033  139.1592  155.2782 H   0  0  0  0  0  0  0  0  0  0  0  0
  150.4878  130.7009  154.2364 H   0  0  0  0  0  0  0  0  0  0  0  0
  1  2  1  0  0  0  0
  1 26  1  0  0  0  0
  1 27  1  0  0  0  0
  1 28  1  0  0  0  0
  2 25  1  0  0  0  0
  2  3  2  0  0  0  0
  3  4  1  0  0  0  0
  3 29  1  0  0  0  0
  4  5  1  0  0  0  0
  4  6  2  0  0  0  0
  5 30  1  0  0  0  0
  5 31  1  0  0  0  0
  5 32  1  0  0  0  0
  6  7  1  0  0  0  0
  6 33  1  0  0  0  0
  7  8  1  0  0  0  0
  7 25  2  0  0  0  0
  8  9  1  0  0  0  0
  9 10  1  0  0  0  0
  9 34  1  0  0  0  0
  9 35  1  0  0  0  0
 10 11  1  0  0  0  0
 10 12  1  0  0  0  0
 10 36  1  0  0  0  0
 11 37  1  0  0  0  0
 12 13  1  0  0  0  0
 12 38  1  0  0  0  0
 12 39  1  0  0  0  0
 13 23  1  0  0  0  0
 13 14  1  0  0  0  0
 14 15  2  0  0  0  0
 15 16  1  0  0  0  0
 15 21  1  0  0  0  0
 16 20  1  0  0  0  0
 16 17  1  0  0  0  0
 17 18  2  0  0  0  0
 17 40  1  0  0  0  0
 18 19  1  0  0  0  0
 18 41  1  0  0  0  0
 19 20  2  0  0  0  0
 20 42  1  0  0  0  0
 21 22  2  0  0  0  0
 21 43  1  0  0  0  0
 22 23  1  0  0  0  0
 22 44  1  0  0  0  0
 23 24  2  0  0  0  0
 25 45  1  0  0  0  0
M  END
> <s_m_source_file>
AV-unprocessed.smi

> <i_m_source_file_index>
2358

> <i_lp_mmshare_version>
43012

> <i_f3d_flags>
0

> <s_epik_input>
W0NIM11jMVtjSF1jKFtDSDNdKVtjSF1jKFtjSF0xKU9bQ0gyXVtDQEhdKFtPSF0pW0NIMl1uMm5jKFtjSF1bY0hdYzI9TyktbjNbY0hdW2NIXW5bY0hdMw==

> <s_epik_cmdline>
J2VwaWtfcHl0aG9uJywgJy1waCcsICc3LjAnLCAnLXRuJywgJzgnLCAnLW1hJywgJzIwMCcsICctbWV0YWxfYmluZGluZycsICctaW1hZScsICc8aW5maWxlLm1hZT4nLCAnLW9tYWUnLCAnPG91dGZpbGUubWFlPic=

> <r_lp_tautomer_probability>
1

> <r_epik_Ionization_Penalty>
0.03707

> <r_epik_Ionization_Penalty_Charging>
0.0370699

> <r_epik_Ionization_Penalty_Neutral>
1.17174e-07

> <r_epik_State_Penalty>
0.0310055

> <r_epik_Charging_Adjusted_Penalty>
0.0680754

> <i_epik_Tot_Q>
0

> <i_epik_Tot_abs_Q>
0

> <r_epik_Metal_State_Penalty>
0.0291724

> <b_epik_Metal_Only>
0

> <s_lp_Force_Field>
OPLS_2005

> <r_lp_Energy>
35.3101

> <b_lp_Chiralities_Consistent>
1

> <s_lp_Variant>
AV-unprocessed.smi:2358-2

> <Gold.Version>
5.8.1

> <Gold.Id.Protein>
6NUR|6NUR_protein|mol2

> <Gold.PLP.Fitness>
51.8875

> <Gold.PLP.PLP>
-41.6285

> <Gold.PLP.part.hbond>
-2.0000

> <Gold.PLP.part.metal>
0.0000

> <Gold.PLP.part.buried>
-1.2077

> <Gold.PLP.part.nonpolar>
-38.8254

> <Gold.PLP.part.repulsive>
0.4168

> <Gold.PLP.ligand.clash>
0.0000

> <Gold.PLP.ligand.torsion>
0.8529

> <Gold.PLP.Chemscore.Hbond>
2.0000

> <Gold.PLP.Chemscore.CHOScore>
1.9346

> <Gold.PLP.Chemscore.Metal>
0.0000

> <Gold.Chemscore.Hbonds>
donor molecule, donor type, donor heavy atom, donor atom, acceptor molecule, acceptor atom, score
      L1  H    11    37       P1  7948  0.88
      P1  H 10752 10764       L1    24  0.22
      L1  C    17    40       P1  7948  0.82
      L1  C    18    41       P1 10175  1.00

> <Gold.PLP.Chemscore.Internal.Correction>
0.1612

> <Gold.Rescore>
     Score         DG    S(hbond)    S(metal)    S(lipo)     H(rot)  DE(clash)    DE(int)     intcor
     13.52     -15.68       1.84        0.00      91.43       2.60       0.06       2.11       ----

> <Gold.Chemscore.Fitness>
13.5173

> <Gold.Chemscore.DG>
-15.6834

> <Gold.Chemscore.ZeroCoef>
-5.4800

> <Gold.Chemscore.Hbond>
1.8440

> <Gold.Chemscore.Metal>
0.0000

> <Gold.Chemscore.Lipo>
91.4267

> <Gold.Chemscore.Internal_Hbond>
0.0000

> <Gold.Chemscore.DEClash>
0.0551

> <Gold.Chemscore.DEInternal>
2.1110

> <Gold.Chemscore.Rot>
2.5986

> <Gold.Chemscore.Internal.Correction>
   9.000000E+99

> <Gold.Chemscore.Hbonds>
donor molecule, donor type, donor heavy atom, donor atom, acceptor molecule, acceptor atom, score
      L1  H    11    37       P1  7948  0.82
      P1  H 10752 10764       L1    24  0.23

> <Gold.Chemscore.Hbond.Weighted>
-6.1588

> <Gold.Chemscore.Metal.Weighted>
-0.0000

> <Gold.Chemscore.Lipo.Weighted>
-10.6969

> <Gold.Chemscore.Internal_Hbond.Weighted>
0.0000

> <Gold.Chemscore.DEClash.Weighted>
0.0551

> <Gold.Chemscore.DEInternal.Weighted>
2.1110

> <Gold.Chemscore.Rot.Weighted>
6.6524

> <Gold.Chemscore.Internal.Correction.Weighted>
   9.000000E+99

> <Gold.Protein.RotatedTorsions>
[ 6907 6896 6895 6894 ] final  143.06 input  -60.11 | X-H torsion
[ 7974 7965 7964 7962 ] final  114.24 input  175.53 | X-H torsion
[ 8008 7997 7996 7995 ] final -142.43 input   59.86 | X-H torsion
[ 10167 10162 10161 10158 ] final   42.53 input  -65.29 | X-H torsion
[ 10718 10713 10712 10709 ] final  -94.86 input   66.30 | X-H torsion
[ 10763 10752 10751 10750 ] final   -3.62 input  -60.55 | X-H torsion
[ 11005 11000 10999 10996 ] final -160.74 input  -57.11 | X-H torsion

> <Gold.Protein.ActiveResidues>
 VAL166  LYS551  ARG553  GLY616  TRP617  ASP618  TYR619  PRO620  LYS621  CYS622 
 ASP623  PHE694  ASN695  SER759  ASP760  ASP761  ALA762  ILE779  LEU786  VAL792 
 PHE793  MET794  SER795  GLU796  ALA797  LYS798  CYS799  TRP800  GLU811  SER814 

> <Gold.Protein.RotatedAtoms>
  152.2110  133.4911  159.5109 H   0  0  0  0  0  0  0  0  0  0  0  0  # atno 6907 bound_to 6896
  150.6990  134.1467  159.4134 H   0  0  0  0  0  0  0  0  0  0  0  0  # atno 6908 bound_to 6896
  151.9386  135.0223  160.0585 H   0  0  0  0  0  0  0  0  0  0  0  0  # atno 6909 bound_to 6896
  145.2069  139.2925  143.4289 H   0  0  0  0  0  0  0  0  0  0  0  0  # atno 7974 bound_to 7965
  155.4941  140.0570  157.2949 H   0  0  0  0  0  0  0  0  0  0  0  0  # atno 8008 bound_to 7997
  154.4612  140.1997  156.0191 H   0  0  0  0  0  0  0  0  0  0  0  0  # atno 8009 bound_to 7997
  156.0892  140.3236  155.7798 H   0  0  0  0  0  0  0  0  0  0  0  0  # atno 8010 bound_to 7997
  140.3534  144.2320  150.6143 H   0  0  0  0  0  0  0  0  0  0  0  0  # atno 10167 bound_to 10162
  156.0034  130.5085  150.5990 H   0  0  0  0  0  0  0  0  0  0  0  0  # atno 10718 bound_to 10713
  153.3738  135.6995  153.6617 H   0  0  0  0  0  0  0  0  0  0  0  0  # atno 10763 bound_to 10752
  153.5256  135.3603  155.2653 H   0  0  0  0  0  0  0  0  0  0  0  0  # atno 10764 bound_to 10752
  154.8684  135.4168  154.3022 H   0  0  0  0  0  0  0  0  0  0  0  0  # atno 10765 bound_to 10752
  140.6281  134.4680  157.5228 H   0  0  0  0  0  0  0  0  0  0  0  0  # atno 11005 bound_to 11000
  146.3406  140.2332  142.8594 LP  0  0  0  0  0  0  0  0  0  0  0  0  # atno 17320 bound_to 7965
  144.9893  140.8532  143.5349 LP  0  0  0  0  0  0  0  0  0  0  0  0  # atno 17321 bound_to 7965
  140.5197  143.2269  151.8409 LP  0  0  0  0  0  0  0  0  0  0  0  0  # atno 17342 bound_to 10162
  139.4823  144.4852  151.9256 LP  0  0  0  0  0  0  0  0  0  0  0  0  # atno 17343 bound_to 10162
  157.3842  131.0785  151.1450 LP  0  0  0  0  0  0  0  0  0  0  0  0  # atno 17370 bound_to 10713
  157.2163  130.6461  149.5793 LP  0  0  0  0  0  0  0  0  0  0  0  0  # atno 17371 bound_to 10713
  139.9127  134.8311  156.1473 LP  0  0  0  0  0  0  0  0  0  0  0  0  # atno 17394 bound_to 11000
  141.0695  133.6803  156.2111 LP  0  0  0  0  0  0  0  0  0  0  0  0  # atno 17395 bound_to 11000

$$$$
