AV-unprocessed.smi:252|AV-procd|sdf|1940|dock3
  -GOLD-   2262021 63D 1   1.00000     0.00000
 Structure written by MMmdl.
 56 59  0  0  0  0  0  0  0  0  1 V2000
  147.9907  126.4993  152.1981 C   0  0  0  0  0  0  0  0  0  0  0  0
  147.9832  127.7943  151.3724 C   0  0  0  0  0  0  0  0  0  0  0  0
  146.9188  128.7899  151.8421 C   0  0  0  0  0  0  0  0  0  0  0  0
  146.1287  128.4772  152.7328 O   0  0  0  0  0  0  0  0  0  0  0  0
  146.9124  129.9840  151.2251 N   0  0  0  0  0  0  0  0  0  0  0  0
  146.0174  131.1139  151.4796 C   0  0  2  0  0  0  0  0  0  0  0  0
  145.1825  131.5018  150.2413 C   0  0  0  0  0  0  0  0  0  0  0  0
  144.2338  132.6576  150.5909 C   0  0  0  0  0  0  0  0  0  0  0  0
  145.0116  133.8476  151.1763 C   0  0  0  0  0  0  0  0  0  0  0  0
  145.8200  133.4314  152.3227 N   0  0  0  0  0  0  0  0  0  0  0  0
  146.2391  134.4470  153.1194 C   0  0  0  0  0  0  0  0  0  0  0  0
  147.1775  134.2176  154.0768 N   0  0  0  0  0  0  0  0  0  0  0  0
  147.6072  135.2161  154.8544 C   0  0  0  0  0  0  0  0  0  0  0  0
  147.2378  136.4983  154.8466 N   0  0  0  0  0  0  0  0  0  0  0  0
  146.2910  136.7341  153.8940 C   0  0  0  0  0  0  0  0  0  0  0  0
  145.7380  135.7743  152.9997 C   0  0  0  0  0  0  0  0  0  0  0  0
  144.7863  136.3793  152.1867 N   0  0  0  0  0  0  0  0  0  0  0  0
  144.7867  137.6267  152.5691 C   0  0  0  0  0  0  0  0  0  0  0  0
  145.6683  137.9303  153.5817 N   0  0  0  0  0  0  0  0  0  0  0  0
  145.8823  139.2357  154.1865 C   0  0  0  0  0  0  0  0  0  0  0  0
  147.1893  139.9193  153.7191 C   0  0  1  0  0  0  0  0  0  0  0  0
  147.4603  139.5130  152.3870 O   0  0  0  0  0  0  0  0  0  0  0  0
  147.1431  141.4397  153.7583 C   0  0  0  0  0  0  0  0  0  0  0  0
  148.6171  141.8127  153.8509 C   0  0  0  0  0  0  0  0  0  0  0  0
  149.1979  140.8002  154.6626 O   0  0  0  0  0  0  0  0  0  0  0  0
  148.3942  139.6210  154.6384 C   0  0  2  0  0  0  0  0  0  0  0  0
  149.2400  138.3866  154.2870 C   0  0  0  0  0  0  0  0  0  0  0  0
  146.7580  132.3384  152.0585 C   0  0  0  0  0  0  0  0  0  0  0  0
  148.7791  125.8288  151.8559 H   0  0  0  0  0  0  0  0  0  0  0  0
  147.0450  125.9632  152.1118 H   0  0  0  0  0  0  0  0  0  0  0  0
  148.1671  126.7037  153.2549 H   0  0  0  0  0  0  0  0  0  0  0  0
  148.9689  128.2589  151.4217 H   0  0  0  0  0  0  0  0  0  0  0  0
  147.7999  127.5618  150.3232 H   0  0  0  0  0  0  0  0  0  0  0  0
  147.6040  130.1278  150.5035 H   0  0  0  0  0  0  0  0  0  0  0  0
  145.3229  130.7629  152.2441 H   0  0  0  0  0  0  0  0  0  0  0  0
  145.8301  131.8109  149.4204 H   0  0  0  0  0  0  0  0  0  0  0  0
  144.6102  130.6450  149.8843 H   0  0  0  0  0  0  0  0  0  0  0  0
  143.6834  132.9716  149.7038 H   0  0  0  0  0  0  0  0  0  0  0  0
  143.4907  132.3172  151.3134 H   0  0  0  0  0  0  0  0  0  0  0  0
  145.6739  134.2659  150.4170 H   0  0  0  0  0  0  0  0  0  0  0  0
  144.3109  134.6373  151.4452 H   0  0  0  0  0  0  0  0  0  0  0  0
  148.3565  134.9499  155.5853 H   0  0  0  0  0  0  0  0  0  0  0  0
  144.1436  138.3665  152.1146 H   0  0  0  0  0  0  0  0  0  0  0  0
  145.0220  139.8609  153.9438 H   0  0  0  0  0  0  0  0  0  0  0  0
  145.8802  139.1222  155.2714 H   0  0  0  0  0  0  0  0  0  0  0  0
  148.3034  139.8574  152.1351 H   0  0  0  0  0  0  0  0  0  0  0  0
  146.6401  141.8879  152.9003 H   0  0  0  0  0  0  0  0  0  0  0  0
  146.6315  141.7770  154.6608 H   0  0  0  0  0  0  0  0  0  0  0  0
  149.0818  141.7858  152.8643 H   0  0  0  0  0  0  0  0  0  0  0  0
  148.7745  142.8052  154.2731 H   0  0  0  0  0  0  0  0  0  0  0  0
  148.0299  139.5012  155.6598 H   0  0  0  0  0  0  0  0  0  0  0  0
  148.6258  137.4861  154.2589 H   0  0  0  0  0  0  0  0  0  0  0  0
  150.0217  138.2312  155.0306 H   0  0  0  0  0  0  0  0  0  0  0  0
  149.7285  138.4937  153.3182 H   0  0  0  0  0  0  0  0  0  0  0  0
  147.2638  132.0530  152.9822 H   0  0  0  0  0  0  0  0  0  0  0  0
  147.5233  132.6916  151.3665 H   0  0  0  0  0  0  0  0  0  0  0  0
  1  2  1  0  0  0  0
  1 29  1  0  0  0  0
  1 30  1  0  0  0  0
  1 31  1  0  0  0  0
  2  3  1  0  0  0  0
  2 32  1  0  0  0  0
  2 33  1  0  0  0  0
  3  4  2  0  0  0  0
  3  5  1  0  0  0  0
  5  6  1  0  0  0  0
  5 34  1  0  0  0  0
  6 28  1  0  0  0  0
  6  7  1  0  0  0  0
  6 35  1  0  0  0  0
  7  8  1  0  0  0  0
  7 36  1  0  0  0  0
  7 37  1  0  0  0  0
  8  9  1  0  0  0  0
  8 38  1  0  0  0  0
  8 39  1  0  0  0  0
  9 10  1  0  0  0  0
  9 40  1  0  0  0  0
  9 41  1  0  0  0  0
 10 11  1  0  0  0  0
 10 28  1  0  0  0  0
 11 16  1  0  0  0  0
 11 12  2  0  0  0  0
 12 13  1  0  0  0  0
 13 14  2  0  0  0  0
 13 42  1  0  0  0  0
 14 15  1  0  0  0  0
 15 19  1  0  0  0  0
 15 16  2  0  0  0  0
 16 17  1  0  0  0  0
 17 18  2  0  0  0  0
 18 19  1  0  0  0  0
 18 43  1  0  0  0  0
 19 20  1  0  0  0  0
 20 21  1  0  0  0  0
 20 44  1  0  0  0  0
 20 45  1  0  0  0  0
 21 26  1  0  0  0  0
 21 22  1  0  0  0  0
 21 23  1  0  0  0  0
 22 46  1  0  0  0  0
 23 24  1  0  0  0  0
 23 47  1  0  0  0  0
 23 48  1  0  0  0  0
 24 25  1  0  0  0  0
 24 49  1  0  0  0  0
 24 50  1  0  0  0  0
 25 26  1  0  0  0  0
 26 27  1  0  0  0  0
 26 51  1  0  0  0  0
 27 52  1  0  0  0  0
 27 53  1  0  0  0  0
 27 54  1  0  0  0  0
 28 55  1  0  0  0  0
 28 56  1  0  0  0  0
M  END
> <s_m_source_file>
AV-unprocessed.smi

> <i_m_source_file_index>
252

> <i_lp_mmshare_version>
43012

> <i_f3d_flags>
0

> <s_epik_input>
W0NIM11bQ0gyXUMoPU8pW05IXVtDQEBIXTFbQ0gyXVtDSDJdW0NIMl1OKFtDSDJdMSljKG5bY0hdbjIpYyhjMjMpbltjSF1uM1tDSDJdW0NAQF00KFtPSF0pW0NIMl1bQ0gyXU9bQ0BIXTRbQ0gzXQ==

> <s_epik_cmdline>
J2VwaWtfcHl0aG9uJywgJy1waCcsICc3LjAnLCAnLXRuJywgJzgnLCAnLW1hJywgJzIwMCcsICctbWV0YWxfYmluZGluZycsICctaW1hZScsICc8aW5maWxlLm1hZT4nLCAnLW9tYWUnLCAnPG91dGZpbGUubWFlPic=

> <r_lp_tautomer_probability>
1

> <r_epik_Ionization_Penalty>
0.00182575

> <r_epik_Ionization_Penalty_Charging>
0

> <r_epik_Ionization_Penalty_Neutral>
0.00182575

> <r_epik_State_Penalty>
0.00104524

> <r_epik_Charging_Adjusted_Penalty>
0.00104524

> <i_epik_Tot_Q>
0

> <i_epik_Tot_abs_Q>
0

> <r_epik_Metal_State_Penalty>
-0

> <b_epik_Metal_Only>
0

> <s_lp_Force_Field>
OPLS_2005

> <r_lp_Energy>
36.8902

> <b_lp_Chiralities_Consistent>
1

> <s_lp_Variant>
AV-unprocessed.smi:252-5

> <Gold.Version>
5.8.1

> <Gold.Id.Protein>
6NUR|6NUR_protein|mol2

> <Gold.PLP.Fitness>
45.6472

> <Gold.PLP.PLP>
-37.3684

> <Gold.PLP.part.hbond>
-1.4887

> <Gold.PLP.part.metal>
0.0000

> <Gold.PLP.part.buried>
-2.5842

> <Gold.PLP.part.nonpolar>
-34.7524

> <Gold.PLP.part.repulsive>
0.7304

> <Gold.PLP.ligand.clash>
0.5388

> <Gold.PLP.ligand.torsion>
1.2842

> <Gold.PLP.Chemscore.Hbond>
1.7680

> <Gold.PLP.Chemscore.CHOScore>
1.8662

> <Gold.PLP.Chemscore.Metal>
0.0000

> <Gold.Chemscore.Hbonds>
donor molecule, donor type, donor heavy atom, donor atom, acceptor molecule, acceptor atom, score
      L1  H     5    34       P1 10747  0.83
      L1  H    22    46       P1  7957  1.00
      L1  C    18    43       P1 10171  0.89
      L1  C    18    43       P1 10175  1.00

> <Gold.PLP.Chemscore.Internal.Correction>
0.4831

> <Gold.Rescore>
     Score         DG    S(hbond)    S(metal)    S(lipo)     H(rot)  DE(clash)    DE(int)     intcor
     11.11     -14.55       1.67        0.00      88.97       2.70       0.28       3.16       ----

> <Gold.Chemscore.Fitness>
11.1099

> <Gold.Chemscore.DG>
-14.5525

> <Gold.Chemscore.ZeroCoef>
-5.4800

> <Gold.Chemscore.Hbond>
1.6724

> <Gold.Chemscore.Metal>
0.0000

> <Gold.Chemscore.Lipo>
88.9682

> <Gold.Chemscore.Internal_Hbond>
0.0000

> <Gold.Chemscore.DEClash>
0.2830

> <Gold.Chemscore.DEInternal>
3.1596

> <Gold.Chemscore.Rot>
2.7041

> <Gold.Chemscore.Internal.Correction>
   9.000000E+99

> <Gold.Chemscore.Hbonds>
donor molecule, donor type, donor heavy atom, donor atom, acceptor molecule, acceptor atom, score
      L1  H     5    34       P1 10747  0.79
      L1  H    22    46       P1  7957  0.97

> <Gold.Chemscore.Hbond.Weighted>
-5.5857

> <Gold.Chemscore.Metal.Weighted>
-0.0000

> <Gold.Chemscore.Lipo.Weighted>
-10.4093

> <Gold.Chemscore.Internal_Hbond.Weighted>
0.0000

> <Gold.Chemscore.DEClash.Weighted>
0.2830

> <Gold.Chemscore.DEInternal.Weighted>
3.1596

> <Gold.Chemscore.Rot.Weighted>
6.9225

> <Gold.Chemscore.Internal.Correction.Weighted>
   9.000000E+99

> <Gold.Protein.RotatedTorsions>
[ 6907 6896 6895 6894 ] final  -50.59 input  -60.11 | X-H torsion
[ 7974 7965 7964 7962 ] final  146.58 input  175.53 | X-H torsion
[ 8008 7997 7996 7995 ] final  -69.36 input   59.86 | X-H torsion
[ 10167 10162 10161 10158 ] final  -20.27 input  -65.29 | X-H torsion
[ 10718 10713 10712 10709 ] final  172.80 input   66.30 | X-H torsion
[ 10763 10752 10751 10750 ] final  179.18 input  -60.55 | X-H torsion
[ 11005 11000 10999 10996 ] final  -46.06 input  -57.11 | X-H torsion

> <Gold.Protein.ActiveResidues>
 VAL166  LYS551  ARG553  GLY616  TRP617  ASP618  TYR619  PRO620  LYS621  CYS622 
 ASP623  PHE694  ASN695  SER759  ASP760  ASP761  ALA762  ILE779  LEU786  VAL792 
 PHE793  MET794  SER795  GLU796  ALA797  LYS798  CYS799  TRP800  GLU811  SER814 

> <Gold.Protein.RotatedAtoms>
  150.8692  134.8062  159.7141 H   0  0  0  0  0  0  0  0  0  0  0  0  # atno 6907 bound_to 6896
  152.4703  134.4974  159.9724 H   0  0  0  0  0  0  0  0  0  0  0  0  # atno 6908 bound_to 6896
  151.5065  133.3455  159.2913 H   0  0  0  0  0  0  0  0  0  0  0  0  # atno 6909 bound_to 6896
  144.8660  139.5922  143.5909 H   0  0  0  0  0  0  0  0  0  0  0  0  # atno 7974 bound_to 7965
  154.4933  140.0855  156.7642 H   0  0  0  0  0  0  0  0  0  0  0  0  # atno 8008 bound_to 7997
  155.4177  140.3444  155.4250 H   0  0  0  0  0  0  0  0  0  0  0  0  # atno 8009 bound_to 7997
  156.1360  140.1515  156.8982 H   0  0  0  0  0  0  0  0  0  0  0  0  # atno 8010 bound_to 7997
  140.7275  143.4739  151.0210 H   0  0  0  0  0  0  0  0  0  0  0  0  # atno 10167 bound_to 10162
  156.9737  131.0097  151.2899 H   0  0  0  0  0  0  0  0  0  0  0  0  # atno 10718 bound_to 10713
  154.5173  135.2792  155.1292 H   0  0  0  0  0  0  0  0  0  0  0  0  # atno 10763 bound_to 10752
  154.2863  135.6275  153.5371 H   0  0  0  0  0  0  0  0  0  0  0  0  # atno 10764 bound_to 10752
  152.9930  135.5663  154.5654 H   0  0  0  0  0  0  0  0  0  0  0  0  # atno 10765 bound_to 10752
  141.0555  133.6727  156.3101 H   0  0  0  0  0  0  0  0  0  0  0  0  # atno 11005 bound_to 11000
  146.2896  139.7100  142.9171 LP  0  0  0  0  0  0  0  0  0  0  0  0  # atno 17320 bound_to 7965
  145.4221  141.0407  143.2958 LP  0  0  0  0  0  0  0  0  0  0  0  0  # atno 17321 bound_to 7965
  139.8432  143.7535  152.3180 LP  0  0  0  0  0  0  0  0  0  0  0  0  # atno 17342 bound_to 10162
  139.7692  144.7482  151.0250 LP  0  0  0  0  0  0  0  0  0  0  0  0  # atno 17343 bound_to 10162
  157.5575  130.8223  149.8223 LP  0  0  0  0  0  0  0  0  0  0  0  0  # atno 17370 bound_to 10713
  156.0272  130.3775  150.1788 LP  0  0  0  0  0  0  0  0  0  0  0  0  # atno 17371 bound_to 10713
  140.5972  134.5591  157.5511 LP  0  0  0  0  0  0  0  0  0  0  0  0  # atno 17394 bound_to 11000
  139.9386  134.7828  156.0736 LP  0  0  0  0  0  0  0  0  0  0  0  0  # atno 17395 bound_to 11000

$$$$
