AV-unprocessed.smi:2923|AV-procd|sdf|11206|dock3
  -GOLD-   2272016 93D 1   1.00000     0.00000
 Structure written by MMmdl.
 47 49  0  0  0  0  0  0  0  0  2 V2000
  144.9728  131.2973  150.6282 C   0  0  0  0  0  0  0  0  0  0  0  0
  144.5081  132.5968  150.1559 N   0  0  0  0  0  0  0  0  0  0  0  0
  143.7642  132.7035  148.9076 C   0  0  0  0  0  0  0  0  0  0  0  0
  144.7598  133.7538  150.9248 C   0  0  0  0  0  0  0  0  0  0  0  0
  144.7396  133.7640  152.3408 C   0  0  0  0  0  0  0  0  0  0  0  0
  145.0005  134.9616  153.0372 C   0  0  0  0  0  0  0  0  0  0  0  0
  145.2779  136.1464  152.3238 C   0  0  0  0  0  0  0  0  0  0  0  0
  145.5372  137.3213  153.0826 N   0  0  0  0  0  0  0  0  0  0  0  0
  145.9925  138.5180  152.6725 C   0  0  0  0  0  0  0  0  0  0  0  0
  146.2722  138.8193  151.5130 O   0  0  0  0  0  0  0  0  0  0  0  0
  146.1079  139.3659  153.7028 N   0  0  0  0  0  0  0  0  0  0  0  0
  146.5797  140.7485  153.6049 C   0  0  2  0  0  0  0  0  0  0  0  0
  148.1107  140.8872  153.7768 C   0  0  2  0  0  0  0  0  0  0  0  0
  149.0531  139.7077  153.7716 C   0  0  0  0  0  0  0  0  0  0  0  0
  149.2510  139.4240  155.2632 C   0  0  0  0  0  0  0  0  0  0  0  0
  148.1251  140.0241  155.9005 O   0  0  0  0  0  0  0  0  0  0  0  0
  147.8509  141.2519  155.2296 C   0  0  2  0  0  0  0  0  0  0  0  0
  146.3697  141.5492  154.9171 C   0  0  0  0  0  0  0  0  0  0  0  0
  146.0652  143.0351  154.7030 C   0  0  0  0  0  0  0  0  0  0  0  0
  145.3404  141.0406  155.9360 C   0  0  0  0  0  0  0  0  0  0  0  0
  145.2908  136.0840  150.9093 C   0  0  0  0  0  0  0  0  0  0  0  0
  145.0357  134.9149  150.2826 N   0  3  0  0  0  0  0  0  0  0  0  0
  144.5105  131.0504  151.5845 H   0  0  0  0  0  0  0  0  0  0  0  0
  146.0558  131.2994  150.7555 H   0  0  0  0  0  0  0  0  0  0  0  0
  144.7226  130.5051  149.9221 H   0  0  0  0  0  0  0  0  0  0  0  0
  144.2878  133.3511  148.2036 H   0  0  0  0  0  0  0  0  0  0  0  0
  142.7700  133.1139  149.0871 H   0  0  0  0  0  0  0  0  0  0  0  0
  143.6409  131.7289  148.4347 H   0  0  0  0  0  0  0  0  0  0  0  0
  144.5276  132.8702  152.9084 H   0  0  0  0  0  0  0  0  0  0  0  0
  144.9847  134.9656  154.1174 H   0  0  0  0  0  0  0  0  0  0  0  0
  145.3350  137.2478  154.0690 H   0  0  0  0  0  0  0  0  0  0  0  0
  145.8603  139.0380  154.6251 H   0  0  0  0  0  0  0  0  0  0  0  0
  146.2054  141.2811  152.7287 H   0  0  0  0  0  0  0  0  0  0  0  0
  148.4846  141.7476  153.2195 H   0  0  0  0  0  0  0  0  0  0  0  0
  148.6325  138.8447  153.2568 H   0  0  0  0  0  0  0  0  0  0  0  0
  150.0022  139.9409  153.2884 H   0  0  0  0  0  0  0  0  0  0  0  0
  149.3159  138.3583  155.4838 H   0  0  0  0  0  0  0  0  0  0  0  0
  150.1613  139.9041  155.6258 H   0  0  0  0  0  0  0  0  0  0  0  0
  148.4459  142.0913  155.5929 H   0  0  0  0  0  0  0  0  0  0  0  0
  146.1639  143.6024  155.6291 H   0  0  0  0  0  0  0  0  0  0  0  0
  145.0521  143.1862  154.3288 H   0  0  0  0  0  0  0  0  0  0  0  0
  146.7450  143.4852  153.9789 H   0  0  0  0  0  0  0  0  0  0  0  0
  145.3529  141.6370  156.8487 H   0  0  0  0  0  0  0  0  0  0  0  0
  145.5293  140.0094  156.2347 H   0  0  0  0  0  0  0  0  0  0  0  0
  144.3284  141.0797  155.5317 H   0  0  0  0  0  0  0  0  0  0  0  0
  145.4965  136.9091  150.2454 H   0  0  0  0  0  0  0  0  0  0  0  0
  145.0520  134.9073  149.2625 H   0  0  0  0  0  0  0  0  0  0  0  0
  1  2  1  0  0  0  0
  1 23  1  0  0  0  0
  1 24  1  0  0  0  0
  1 25  1  0  0  0  0
  2  3  1  0  0  0  0
  2  4  1  0  0  0  0
  3 26  1  0  0  0  0
  3 27  1  0  0  0  0
  3 28  1  0  0  0  0
  4 22  1  0  0  0  0
  4  5  2  0  0  0  0
  5  6  1  0  0  0  0
  5 29  1  0  0  0  0
  6  7  2  0  0  0  0
  6 30  1  0  0  0  0
  7  8  1  0  0  0  0
  7 21  1  0  0  0  0
  8  9  1  0  0  0  0
  8 31  1  0  0  0  0
  9 10  2  0  0  0  0
  9 11  1  0  0  0  0
 11 12  1  0  0  0  0
 11 32  1  0  0  0  0
 12 18  1  0  0  0  0
 12 13  1  0  0  0  0
 12 33  1  0  0  0  0
 13 17  1  0  0  0  0
 13 14  1  0  0  0  0
 13 34  1  0  0  0  0
 14 15  1  0  0  0  0
 14 35  1  0  0  0  0
 14 36  1  0  0  0  0
 15 16  1  0  0  0  0
 15 37  1  0  0  0  0
 15 38  1  0  0  0  0
 16 17  1  0  0  0  0
 17 18  1  0  0  0  0
 17 39  1  0  0  0  0
 18 19  1  0  0  0  0
 18 20  1  0  0  0  0
 19 40  1  0  0  0  0
 19 41  1  0  0  0  0
 19 42  1  0  0  0  0
 20 43  1  0  0  0  0
 20 44  1  0  0  0  0
 20 45  1  0  0  0  0
 21 22  2  0  0  0  0
 21 46  1  0  0  0  0
 22 47  1  0  0  0  0
M  CHG  1  22   1
M  END
> <s_m_source_file>
AV-unprocessed.smi

> <i_m_source_file_index>
2923

> <i_lp_mmshare_version>
43012

> <i_f3d_flags>
0

> <s_epik_input>
W0NIM11OKFtDSDNdKWMxW2NIXVtjSF1jKFtjSF1uMSlbTkhdQyg9TylbTkhdW0NASF0yQyhbQ0gzXSkoW0NIM10pW0NAQEhdKFtDQEhdMjMpT1tDSDJdW0NIMl0z

> <s_epik_cmdline>
J2VwaWtfcHl0aG9uJywgJy1waCcsICc3LjAnLCAnLXRuJywgJzgnLCAnLW1hJywgJzIwMCcsICctbWV0YWxfYmluZGluZycsICctaW1hZScsICc8aW5maWxlLm1hZT4nLCAnLW9tYWUnLCAnPG91dGZpbGUubWFlPic=

> <r_lp_tautomer_probability>
0.999994

> <r_epik_Ionization_Penalty>
0.252205

> <r_epik_Ionization_Penalty_Charging>
0.252185

> <r_epik_Ionization_Penalty_Neutral>
1.99479e-05

> <r_epik_State_Penalty>
0.243573

> <r_epik_Charging_Adjusted_Penalty>
0.495758

> <i_epik_Tot_Q>
1

> <i_epik_Tot_abs_Q>
1

> <r_epik_Metal_State_Penalty>
0.534372

> <b_epik_Metal_Only>
0

> <s_lp_Force_Field>
OPLS_2005

> <r_lp_Energy>
46.9132

> <b_lp_Chiralities_Consistent>
1

> <s_lp_Variant>
AV-unprocessed.smi:2923-5

> <Gold.Version>
5.8.1

> <Gold.Id.Protein>
6NUR|6NUR_protein|mol2

> <Gold.PLP.Fitness>
42.7460

> <Gold.PLP.PLP>
-38.9009

> <Gold.PLP.part.hbond>
-2.8687

> <Gold.PLP.part.metal>
0.0000

> <Gold.PLP.part.buried>
-2.5591

> <Gold.PLP.part.nonpolar>
-34.3968

> <Gold.PLP.part.repulsive>
0.7238

> <Gold.PLP.ligand.clash>
0.0000

> <Gold.PLP.ligand.torsion>
0.7934

> <Gold.PLP.Chemscore.Hbond>
1.7475

> <Gold.PLP.Chemscore.CHOScore>
0.0000

> <Gold.PLP.Chemscore.Metal>
0.0000

> <Gold.Chemscore.Hbonds>
donor molecule, donor type, donor heavy atom, donor atom, acceptor molecule, acceptor atom, score
      L1  H    22    47       P1  7921  0.94

> <Gold.PLP.Chemscore.Internal.Correction>
0.1894

> <Gold.Rescore>
     Score         DG    S(hbond)    S(metal)    S(lipo)     H(rot)  DE(clash)    DE(int)     intcor
     17.23     -19.25       1.85        0.00      86.63       1.00       0.22       1.79       ----

> <Gold.Chemscore.Fitness>
17.2305

> <Gold.Chemscore.DG>
-19.2480

> <Gold.Chemscore.ZeroCoef>
-5.4800

> <Gold.Chemscore.Hbond>
1.8540

> <Gold.Chemscore.Metal>
0.0000

> <Gold.Chemscore.Lipo>
86.6310

> <Gold.Chemscore.Internal_Hbond>
0.0000

> <Gold.Chemscore.DEClash>
0.2244

> <Gold.Chemscore.DEInternal>
1.7932

> <Gold.Chemscore.Rot>
1.0000

> <Gold.Chemscore.Internal.Correction>
   9.000000E+99

> <Gold.Chemscore.Hbonds>
donor molecule, donor type, donor heavy atom, donor atom, acceptor molecule, acceptor atom, score
      L1  H    22    47       P1  7921  0.90

> <Gold.Chemscore.Hbond.Weighted>
-6.1922

> <Gold.Chemscore.Metal.Weighted>
-0.0000

> <Gold.Chemscore.Lipo.Weighted>
-10.1358

> <Gold.Chemscore.Internal_Hbond.Weighted>
0.0000

> <Gold.Chemscore.DEClash.Weighted>
0.2244

> <Gold.Chemscore.DEInternal.Weighted>
1.7932

> <Gold.Chemscore.Rot.Weighted>
2.5600

> <Gold.Chemscore.Internal.Correction.Weighted>
   9.000000E+99

> <Gold.Protein.RotatedTorsions>
[ 6907 6896 6895 6894 ] final   55.52 input  -60.11 | X-H torsion
[ 7974 7965 7964 7962 ] final  -50.30 input  175.53 | X-H torsion
[ 8008 7997 7996 7995 ] final  -57.21 input   59.86 | X-H torsion
[ 10167 10162 10161 10158 ] final  -93.85 input  -65.29 | X-H torsion
[ 10718 10713 10712 10709 ] final   10.16 input   66.30 | X-H torsion
[ 10763 10752 10751 10750 ] final  -88.20 input  -60.55 | X-H torsion
[ 11005 11000 10999 10996 ] final   34.04 input  -57.11 | X-H torsion

> <Gold.Protein.ActiveResidues>
 VAL166  LYS551  ARG553  GLY616  TRP617  ASP618  TYR619  PRO620  LYS621  CYS622 
 ASP623  PHE694  ASN695  SER759  ASP760  ASP761  ALA762  ILE779  LEU786  VAL792 
 PHE793  MET794  SER795  GLU796  ALA797  LYS798  CYS799  TRP800  GLU811  SER814 

> <Gold.Protein.RotatedAtoms>
  152.3547  134.6957  160.0225 H   0  0  0  0  0  0  0  0  0  0  0  0  # atno 6907 bound_to 6896
  151.7300  133.3312  159.3346 H   0  0  0  0  0  0  0  0  0  0  0  0  # atno 6908 bound_to 6896
  150.7563  134.6306  159.6229 H   0  0  0  0  0  0  0  0  0  0  0  0  # atno 6909 bound_to 6896
  145.9314  140.7746  142.9598 H   0  0  0  0  0  0  0  0  0  0  0  0  # atno 7974 bound_to 7965
  154.4259  140.1112  156.5761 H   0  0  0  0  0  0  0  0  0  0  0  0  # atno 8008 bound_to 7997
  155.6162  140.3494  155.4618 H   0  0  0  0  0  0  0  0  0  0  0  0  # atno 8009 bound_to 7997
  156.0060  140.1209  157.0490 H   0  0  0  0  0  0  0  0  0  0  0  0  # atno 8010 bound_to 7997
  140.3204  143.3052  152.0052 H   0  0  0  0  0  0  0  0  0  0  0  0  # atno 10167 bound_to 10162
  156.9769  130.5991  149.5673 H   0  0  0  0  0  0  0  0  0  0  0  0  # atno 10718 bound_to 10713
  154.6419  135.5386  153.7799 H   0  0  0  0  0  0  0  0  0  0  0  0  # atno 10763 bound_to 10752
  153.0338  135.6461  154.1147 H   0  0  0  0  0  0  0  0  0  0  0  0  # atno 10764 bound_to 10752
  154.1070  135.2929  155.3219 H   0  0  0  0  0  0  0  0  0  0  0  0  # atno 10765 bound_to 10752
  140.2569  134.3237  155.7871 H   0  0  0  0  0  0  0  0  0  0  0  0  # atno 11005 bound_to 11000
  144.6765  140.2133  143.7374 LP  0  0  0  0  0  0  0  0  0  0  0  0  # atno 17320 bound_to 7965
  145.8421  139.2135  143.1821 LP  0  0  0  0  0  0  0  0  0  0  0  0  # atno 17321 bound_to 7965
  139.4875  144.6315  151.7060 LP  0  0  0  0  0  0  0  0  0  0  0  0  # atno 17342 bound_to 10162
  140.5488  144.0458  150.6118 LP  0  0  0  0  0  0  0  0  0  0  0  0  # atno 17343 bound_to 10162
  156.0260  130.5353  150.8407 LP  0  0  0  0  0  0  0  0  0  0  0  0  # atno 17370 bound_to 10713
  157.5553  131.0945  150.9637 LP  0  0  0  0  0  0  0  0  0  0  0  0  # atno 17371 bound_to 10713
  141.2195  133.7386  156.9125 LP  0  0  0  0  0  0  0  0  0  0  0  0  # atno 17394 bound_to 11000
  140.1503  134.9235  157.2583 LP  0  0  0  0  0  0  0  0  0  0  0  0  # atno 17395 bound_to 11000

$$$$
