AV-unprocessed.smi:148|AV-procd|sdf|1202|dock2
  -GOLD-   2262018363D 1   1.00000     0.00000
 Structure written by MMmdl.
 63 67  0  0  0  0  0  0  0  0  1 V2000
  148.4275  131.7667  160.8402 O   0  0  0  0  0  0  0  0  0  0  0  0
  147.2453  132.4598  160.4989 C   0  0  0  0  0  0  0  0  0  0  0  0
  147.5643  133.8083  159.8110 C   0  0  2  0  0  0  0  0  0  0  0  0
  148.5032  133.6178  158.5914 C   0  0  0  0  0  0  0  0  0  0  0  0
  147.7734  133.3871  157.3573 N   0  0  0  0  0  0  0  0  0  0  0  0
  147.4082  132.1667  156.8363 C   0  0  0  0  0  0  0  0  0  0  0  0
  146.7616  132.2169  155.7038 N   0  0  0  0  0  0  0  0  0  0  0  0
  146.6732  133.5756  155.4245 C   0  0  0  0  0  0  0  0  0  0  0  0
  146.1176  134.3396  154.3593 C   0  0  0  0  0  0  0  0  0  0  0  0
  145.5022  133.8181  153.2737 N   0  0  0  0  0  0  0  0  0  0  0  0
  146.4566  133.0365  152.4879 C   0  0  0  0  0  0  0  0  0  0  0  0
  145.7511  132.2322  151.3890 C   0  0  0  0  0  0  0  0  0  0  0  0
  144.9145  133.1629  150.5060 C   0  0  0  0  0  0  0  0  0  0  0  0
  143.9206  133.9511  151.3698 C   0  0  0  0  0  0  0  0  0  0  0  0
  144.6351  134.7308  152.5050 C   0  0  1  0  0  0  0  0  0  0  0  0
  143.6557  135.5442  153.4096 C   0  0  2  0  0  0  0  0  0  0  0  0
  142.4608  134.7643  153.9929 C   0  0  0  0  0  0  0  0  0  0  0  0
  141.3141  135.7773  154.1458 C   0  0  0  0  0  0  0  0  0  0  0  0
  141.8854  137.1371  153.7331 C   0  0  0  0  0  0  0  0  0  0  0  0
  143.0237  136.7916  152.7742 C   0  0  1  0  0  0  0  0  0  0  0  0
  143.9444  137.8569  152.6599 O   0  0  0  0  0  0  0  0  0  0  0  0
  146.2057  135.6905  154.4308 N   0  0  0  0  0  0  0  0  0  0  0  0
  146.8188  136.2653  155.4699 C   0  0  0  0  0  0  0  0  0  0  0  0
  147.3958  135.6851  156.5248 N   0  0  0  0  0  0  0  0  0  0  0  0
  147.2950  134.3262  156.4607 C   0  0  0  0  0  0  0  0  0  0  0  0
  148.0777  134.8684  160.8245 C   0  0  2  0  0  0  0  0  0  0  0  0
  147.5166  134.7522  162.2435 C   0  0  0  0  0  0  0  0  0  0  0  0
  147.0133  136.1591  162.5632 C   0  0  0  0  0  0  0  0  0  0  0  0
  147.7718  136.9958  161.7056 O   0  0  0  0  0  0  0  0  0  0  0  0
  147.8342  136.3378  160.4512 C   0  0  0  0  0  0  0  0  0  0  0  0
  149.1275  132.3949  160.9328 H   0  0  0  0  0  0  0  0  0  0  0  0
  146.6276  131.8308  159.8577 H   0  0  0  0  0  0  0  0  0  0  0  0
  146.6885  132.6107  161.4234 H   0  0  0  0  0  0  0  0  0  0  0  0
  146.6202  134.1919  159.4206 H   0  0  0  0  0  0  0  0  0  0  0  0
  149.1355  134.4908  158.4366 H   0  0  0  0  0  0  0  0  0  0  0  0
  149.1781  132.7773  158.7486 H   0  0  0  0  0  0  0  0  0  0  0  0
  147.6444  131.2317  157.3236 H   0  0  0  0  0  0  0  0  0  0  0  0
  147.1901  133.7078  152.0385 H   0  0  0  0  0  0  0  0  0  0  0  0
  147.0073  132.3551  153.1383 H   0  0  0  0  0  0  0  0  0  0  0  0
  146.4861  131.7004  150.7844 H   0  0  0  0  0  0  0  0  0  0  0  0
  145.1095  131.4744  151.8406 H   0  0  0  0  0  0  0  0  0  0  0  0
  145.5686  133.8531  149.9719 H   0  0  0  0  0  0  0  0  0  0  0  0
  144.3815  132.5864  149.7493 H   0  0  0  0  0  0  0  0  0  0  0  0
  143.3706  134.6288  150.7190 H   0  0  0  0  0  0  0  0  0  0  0  0
  143.1903  133.2557  151.7819 H   0  0  0  0  0  0  0  0  0  0  0  0
  145.2907  135.4513  152.0154 H   0  0  0  0  0  0  0  0  0  0  0  0
  144.2151  135.9201  154.2677 H   0  0  0  0  0  0  0  0  0  0  0  0
  142.1428  133.9501  153.3436 H   0  0  0  0  0  0  0  0  0  0  0  0
  142.7239  134.3178  154.9521 H   0  0  0  0  0  0  0  0  0  0  0  0
  140.4950  135.5033  153.4800 H   0  0  0  0  0  0  0  0  0  0  0  0
  140.9160  135.7988  155.1609 H   0  0  0  0  0  0  0  0  0  0  0  0
  141.1365  137.7884  153.2816 H   0  0  0  0  0  0  0  0  0  0  0  0
  142.2792  137.6459  154.6147 H   0  0  0  0  0  0  0  0  0  0  0  0
  142.5976  136.5734  151.7961 H   0  0  0  0  0  0  0  0  0  0  0  0
  143.7797  138.3105  151.8473 H   0  0  0  0  0  0  0  0  0  0  0  0
  146.8555  137.3445  155.4515 H   0  0  0  0  0  0  0  0  0  0  0  0
  149.1567  134.7450  160.9257 H   0  0  0  0  0  0  0  0  0  0  0  0
  146.7293  134.0073  162.3542 H   0  0  0  0  0  0  0  0  0  0  0  0
  148.3158  134.4749  162.9321 H   0  0  0  0  0  0  0  0  0  0  0  0
  145.9542  136.2552  162.3182 H   0  0  0  0  0  0  0  0  0  0  0  0
  147.1487  136.4269  163.6112 H   0  0  0  0  0  0  0  0  0  0  0  0
  148.6292  136.7470  159.8271 H   0  0  0  0  0  0  0  0  0  0  0  0
  146.8879  136.4894  159.9334 H   0  0  0  0  0  0  0  0  0  0  0  0
  1  2  1  0  0  0  0
  1 31  1  0  0  0  0
  2  3  1  0  0  0  0
  2 32  1  0  0  0  0
  2 33  1  0  0  0  0
  3  4  1  0  0  0  0
  3 26  1  0  0  0  0
  3 34  1  0  0  0  0
  4  5  1  0  0  0  0
  4 35  1  0  0  0  0
  4 36  1  0  0  0  0
  5 25  1  0  0  0  0
  5  6  1  0  0  0  0
  6  7  2  0  0  0  0
  6 37  1  0  0  0  0
  7  8  1  0  0  0  0
  8 25  2  0  0  0  0
  8  9  1  0  0  0  0
  9 10  1  0  0  0  0
  9 22  2  0  0  0  0
 10 15  1  0  0  0  0
 10 11  1  0  0  0  0
 11 12  1  0  0  0  0
 11 38  1  0  0  0  0
 11 39  1  0  0  0  0
 12 13  1  0  0  0  0
 12 40  1  0  0  0  0
 12 41  1  0  0  0  0
 13 14  1  0  0  0  0
 13 42  1  0  0  0  0
 13 43  1  0  0  0  0
 14 15  1  0  0  0  0
 14 44  1  0  0  0  0
 14 45  1  0  0  0  0
 15 16  1  0  0  0  0
 15 46  1  0  0  0  0
 16 20  1  0  0  0  0
 16 17  1  0  0  0  0
 16 47  1  0  0  0  0
 17 18  1  0  0  0  0
 17 48  1  0  0  0  0
 17 49  1  0  0  0  0
 18 19  1  0  0  0  0
 18 50  1  0  0  0  0
 18 51  1  0  0  0  0
 19 20  1  0  0  0  0
 19 52  1  0  0  0  0
 19 53  1  0  0  0  0
 20 21  1  0  0  0  0
 20 54  1  0  0  0  0
 21 55  1  0  0  0  0
 22 23  1  0  0  0  0
 23 24  2  0  0  0  0
 23 56  1  0  0  0  0
 24 25  1  0  0  0  0
 26 30  1  0  0  0  0
 26 27  1  0  0  0  0
 26 57  1  0  0  0  0
 27 28  1  0  0  0  0
 27 58  1  0  0  0  0
 27 59  1  0  0  0  0
 28 29  1  0  0  0  0
 28 60  1  0  0  0  0
 28 61  1  0  0  0  0
 29 30  1  0  0  0  0
 30 62  1  0  0  0  0
 30 63  1  0  0  0  0
M  END
> <s_m_source_file>
AV-unprocessed.smi

> <i_m_source_file_index>
148

> <i_lp_mmshare_version>
43012

> <i_f3d_flags>
0

> <s_epik_input>
W0NIMl0xT1tDSDJdW0NIMl1bQ0BIXTFbQ0BIXShbQ0gyXVtPSF0pW0NIMl1uKFtjSF1uMiljKGMyMyluW2NIXW5jM040W0NIMl1bQ0gyXVtDSDJdW0NIMl1bQ0BIXTRbQ0BASF01W0NIMl1bQ0gyXVtDSDJdW0NASF01W09IXQ==

> <s_epik_cmdline>
J2VwaWtfcHl0aG9uJywgJy1waCcsICc3LjAnLCAnLXRuJywgJzgnLCAnLW1hJywgJzIwMCcsICctbWV0YWxfYmluZGluZycsICctaW1hZScsICc8aW5maWxlLm1hZT4nLCAnLW9tYWUnLCAnPG91dGZpbGUubWFlPic=

> <r_lp_tautomer_probability>
1

> <r_epik_Ionization_Penalty>
0.00556303

> <r_epik_Ionization_Penalty_Charging>
0

> <r_epik_Ionization_Penalty_Neutral>
0.00556303

> <r_epik_State_Penalty>
0.00401767

> <r_epik_Charging_Adjusted_Penalty>
0.00401767

> <i_epik_Tot_Q>
0

> <i_epik_Tot_abs_Q>
0

> <r_epik_Metal_State_Penalty>
-0

> <b_epik_Metal_Only>
0

> <s_lp_Force_Field>
OPLS_2005

> <r_lp_Energy>
68.457

> <b_lp_Chiralities_Consistent>
1

> <s_lp_Variant>
AV-unprocessed.smi:148-1

> <Gold.Version>
5.8.1

> <Gold.Id.Protein>
6NUR|6NUR_protein|mol2

> <Gold.PLP.Fitness>
45.3111

> <Gold.PLP.PLP>
-40.3890

> <Gold.PLP.part.hbond>
-4.0000

> <Gold.PLP.part.metal>
0.0000

> <Gold.PLP.part.buried>
-6.7419

> <Gold.PLP.part.nonpolar>
-29.0972

> <Gold.PLP.part.repulsive>
0.2522

> <Gold.PLP.ligand.clash>
0.0000

> <Gold.PLP.ligand.torsion>
1.8425

> <Gold.PLP.Chemscore.Hbond>
2.7360

> <Gold.PLP.Chemscore.CHOScore>
0.0000

> <Gold.PLP.Chemscore.Metal>
0.0000

> <Gold.Chemscore.Hbonds>
donor molecule, donor type, donor heavy atom, donor atom, acceptor molecule, acceptor atom, score
      L1  H    21    55       P1 10171  0.98
      P1  H  6931  6943       L1    29  1.00
      P1  H  6934  6947       L1    29  0.31

> <Gold.PLP.Chemscore.Internal.Correction>
0.3991

> <Gold.Rescore>
     Score         DG    S(hbond)    S(metal)    S(lipo)     H(rot)  DE(clash)    DE(int)     intcor
     12.92     -16.46       2.53        0.00      94.40       3.32       0.29       3.25       ----

> <Gold.Chemscore.Fitness>
12.9240

> <Gold.Chemscore.DG>
-16.4606

> <Gold.Chemscore.ZeroCoef>
-5.4800

> <Gold.Chemscore.Hbond>
2.5256

> <Gold.Chemscore.Metal>
0.0000

> <Gold.Chemscore.Lipo>
94.4012

> <Gold.Chemscore.Internal_Hbond>
0.0000

> <Gold.Chemscore.DEClash>
0.2861

> <Gold.Chemscore.DEInternal>
3.2505

> <Gold.Chemscore.Rot>
3.3203

> <Gold.Chemscore.Internal.Correction>
   9.000000E+99

> <Gold.Chemscore.Hbonds>
donor molecule, donor type, donor heavy atom, donor atom, acceptor molecule, acceptor atom, score
      L1  H    21    55       P1 10171  0.85
      P1  H  6931  6943       L1    29  0.87
      P1  H  6934  6947       L1    29  0.06

> <Gold.Chemscore.Hbond.Weighted>
-8.4357

> <Gold.Chemscore.Metal.Weighted>
-0.0000

> <Gold.Chemscore.Lipo.Weighted>
-11.0449

> <Gold.Chemscore.Internal_Hbond.Weighted>
0.0000

> <Gold.Chemscore.DEClash.Weighted>
0.2861

> <Gold.Chemscore.DEInternal.Weighted>
3.2505

> <Gold.Chemscore.Rot.Weighted>
8.5000

> <Gold.Chemscore.Internal.Correction.Weighted>
   9.000000E+99

> <Gold.Protein.RotatedTorsions>
[ 6907 6896 6895 6894 ] final -103.25 input  -60.11 | X-H torsion
[ 7974 7965 7964 7962 ] final   64.64 input  175.53 | X-H torsion
[ 8008 7997 7996 7995 ] final   42.25 input   59.86 | X-H torsion
[ 10167 10162 10161 10158 ] final  -66.13 input  -65.29 | X-H torsion
[ 10718 10713 10712 10709 ] final   97.43 input   66.30 | X-H torsion
[ 10763 10752 10751 10750 ] final -116.01 input  -60.55 | X-H torsion
[ 11005 11000 10999 10996 ] final  124.95 input  -57.11 | X-H torsion

> <Gold.Protein.ActiveResidues>
 VAL166  LYS551  ARG553  GLY616  TRP617  ASP618  TYR619  PRO620  LYS621  CYS622 
 ASP623  PHE694  ASN695  SER759  ASP760  ASP761  ALA762  ILE779  LEU786  VAL792 
 PHE793  MET794  SER795  GLU796  ALA797  LYS798  CYS799  TRP800  GLU811  SER814 

> <Gold.Protein.RotatedAtoms>
  150.7232  134.0457  159.3780 H   0  0  0  0  0  0  0  0  0  0  0  0  # atno 6907 bound_to 6896
  151.8432  135.0581  160.0460 H   0  0  0  0  0  0  0  0  0  0  0  0  # atno 6908 bound_to 6896
  152.2846  133.5467  159.5556 H   0  0  0  0  0  0  0  0  0  0  0  0  # atno 6909 bound_to 6896
  145.8478  139.3235  143.0893 H   0  0  0  0  0  0  0  0  0  0  0  0  # atno 7974 bound_to 7965
  155.2830  140.3374  155.4257 H   0  0  0  0  0  0  0  0  0  0  0  0  # atno 8008 bound_to 7997
  156.2081  140.1759  156.7796 H   0  0  0  0  0  0  0  0  0  0  0  0  # atno 8009 bound_to 7997
  154.5648  140.0680  156.8859 H   0  0  0  0  0  0  0  0  0  0  0  0  # atno 8010 bound_to 7997
  140.5679  143.2316  151.6597 H   0  0  0  0  0  0  0  0  0  0  0  0  # atno 10167 bound_to 10162
  157.6912  131.0609  150.4643 H   0  0  0  0  0  0  0  0  0  0  0  0  # atno 10718 bound_to 10713
  154.8503  135.4361  154.1754 H   0  0  0  0  0  0  0  0  0  0  0  0  # atno 10763 bound_to 10752
  153.2857  135.6957  153.7348 H   0  0  0  0  0  0  0  0  0  0  0  0  # atno 10764 bound_to 10752
  153.6534  135.3447  155.3081 H   0  0  0  0  0  0  0  0  0  0  0  0  # atno 10765 bound_to 10752
  139.9383  134.9638  156.8486 H   0  0  0  0  0  0  0  0  0  0  0  0  # atno 11005 bound_to 11000
  145.9392  140.8992  143.0316 LP  0  0  0  0  0  0  0  0  0  0  0  0  # atno 17320 bound_to 7965
  144.6730  140.1525  143.7429 LP  0  0  0  0  0  0  0  0  0  0  0  0  # atno 17321 bound_to 7965
  139.5102  144.3549  152.0617 LP  0  0  0  0  0  0  0  0  0  0  0  0  # atno 17342 bound_to 10162
  140.2683  144.3992  150.6160 LP  0  0  0  0  0  0  0  0  0  0  0  0  # atno 17343 bound_to 10162
  156.4985  130.4112  149.6366 LP  0  0  0  0  0  0  0  0  0  0  0  0  # atno 17370 bound_to 10713
  156.3350  130.7352  151.2287 LP  0  0  0  0  0  0  0  0  0  0  0  0  # atno 17371 bound_to 10713
  140.6018  134.0165  155.7540 LP  0  0  0  0  0  0  0  0  0  0  0  0  # atno 17394 bound_to 11000
  141.1007  133.9773  157.3084 LP  0  0  0  0  0  0  0  0  0  0  0  0  # atno 17395 bound_to 11000

$$$$
