AV-unprocessed.smi:2114|AV-procd|sdf|8617|dock9
  -GOLD-   2272011363D 1   1.00000     0.00000
 Structure written by MMmdl.
 47 48  0  0  0  0  0  0  0  0  1 V2000
  153.8156  132.7204  165.1819 C   0  0  0  0  0  0  0  0  0  0  0  0
  154.8263  133.5935  164.7093 O   0  0  0  0  0  0  0  0  0  0  0  0
  154.3497  134.4933  163.7214 C   0  0  0  0  0  0  0  0  0  0  0  0
  155.4715  135.4704  163.3371 C   0  0  2  0  0  0  0  0  0  0  0  0
  156.1542  136.0614  164.5813 C   0  0  0  0  0  0  0  0  0  0  0  0
  154.9212  136.5397  162.5088 N   0  0  0  0  0  0  0  0  0  0  0  0
  154.3974  136.3846  161.2818 C   0  0  0  0  0  0  0  0  0  0  0  0
  154.3119  135.2974  160.7104 O   0  0  0  0  0  0  0  0  0  0  0  0
  153.8467  137.6308  160.6517 C   0  0  0  0  0  0  0  0  0  0  0  0
  154.1910  138.9168  161.1222 C   0  0  0  0  0  0  0  0  0  0  0  0
  153.6565  140.0487  160.4774 C   0  0  0  0  0  0  0  0  0  0  0  0
  152.7930  139.8705  159.3709 C   0  0  0  0  0  0  0  0  0  0  0  0
  152.2393  140.9916  158.7157 N   0  0  0  0  0  0  0  0  0  0  0  0
  150.8413  140.9179  158.2964 C   0  0  0  0  0  0  0  0  0  0  0  0
  150.4991  142.0886  157.3565 C   0  0  1  0  0  0  0  0  0  0  0  0
  149.0127  142.1143  156.9871 C   0  0  0  0  0  0  0  0  0  0  0  0
  150.8208  143.3159  158.0047 O   0  0  0  0  0  0  0  0  0  0  0  0
  152.2085  143.4230  158.3100 C   0  0  1  0  0  0  0  0  0  0  0  0
  152.4619  144.8079  158.9147 C   0  0  0  0  0  0  0  0  0  0  0  0
  152.6048  142.2901  159.2753 C   0  0  0  0  0  0  0  0  0  0  0  0
  152.4807  138.6352  158.9079 N   0  0  0  0  0  0  0  0  0  0  0  0
  152.9949  137.5529  159.5295 C   0  0  0  0  0  0  0  0  0  0  0  0
  154.2279  132.0635  165.9477 H   0  0  0  0  0  0  0  0  0  0  0  0
  153.4270  132.0959  164.3762 H   0  0  0  0  0  0  0  0  0  0  0  0
  152.9883  133.2763  165.6249 H   0  0  0  0  0  0  0  0  0  0  0  0
  154.0027  133.9462  162.8429 H   0  0  0  0  0  0  0  0  0  0  0  0
  153.4971  135.0455  164.1199 H   0  0  0  0  0  0  0  0  0  0  0  0
  156.2184  134.9179  162.7639 H   0  0  0  0  0  0  0  0  0  0  0  0
  156.5726  135.2741  165.2088 H   0  0  0  0  0  0  0  0  0  0  0  0
  155.4495  136.6311  165.1879 H   0  0  0  0  0  0  0  0  0  0  0  0
  156.9720  136.7283  164.3064 H   0  0  0  0  0  0  0  0  0  0  0  0
  154.9216  137.4668  162.9084 H   0  0  0  0  0  0  0  0  0  0  0  0
  154.8584  139.0473  161.9618 H   0  0  0  0  0  0  0  0  0  0  0  0
  153.9256  141.0340  160.8275 H   0  0  0  0  0  0  0  0  0  0  0  0
  150.6534  139.9743  157.7819 H   0  0  0  0  0  0  0  0  0  0  0  0
  150.1994  140.9428  159.1784 H   0  0  0  0  0  0  0  0  0  0  0  0
  151.0829  142.0048  156.4380 H   0  0  0  0  0  0  0  0  0  0  0  0
  148.7185  141.1957  156.4788 H   0  0  0  0  0  0  0  0  0  0  0  0
  148.7920  142.9483  156.3207 H   0  0  0  0  0  0  0  0  0  0  0  0
  148.3874  142.2215  157.8740 H   0  0  0  0  0  0  0  0  0  0  0  0
  152.7855  143.3372  157.3875 H   0  0  0  0  0  0  0  0  0  0  0  0
  153.5158  144.9428  159.1589 H   0  0  0  0  0  0  0  0  0  0  0  0
  151.8851  144.9515  159.8288 H   0  0  0  0  0  0  0  0  0  0  0  0
  152.1797  145.5955  158.2155 H   0  0  0  0  0  0  0  0  0  0  0  0
  152.0934  142.4143  160.2308 H   0  0  0  0  0  0  0  0  0  0  0  0
  153.6730  142.3539  159.4782 H   0  0  0  0  0  0  0  0  0  0  0  0
  152.7084  136.5970  159.1151 H   0  0  0  0  0  0  0  0  0  0  0  0
  1  2  1  0  0  0  0
  1 23  1  0  0  0  0
  1 24  1  0  0  0  0
  1 25  1  0  0  0  0
  2  3  1  0  0  0  0
  3  4  1  0  0  0  0
  3 26  1  0  0  0  0
  3 27  1  0  0  0  0
  4  5  1  0  0  0  0
  4  6  1  0  0  0  0
  4 28  1  0  0  0  0
  5 29  1  0  0  0  0
  5 30  1  0  0  0  0
  5 31  1  0  0  0  0
  6  7  1  0  0  0  0
  6 32  1  0  0  0  0
  7  8  2  0  0  0  0
  7  9  1  0  0  0  0
  9 22  1  0  0  0  0
  9 10  2  0  0  0  0
 10 11  1  0  0  0  0
 10 33  1  0  0  0  0
 11 12  2  0  0  0  0
 11 34  1  0  0  0  0
 12 13  1  0  0  0  0
 12 21  1  0  0  0  0
 13 20  1  0  0  0  0
 13 14  1  0  0  0  0
 14 15  1  0  0  0  0
 14 35  1  0  0  0  0
 14 36  1  0  0  0  0
 15 16  1  0  0  0  0
 15 17  1  0  0  0  0
 15 37  1  0  0  0  0
 16 38  1  0  0  0  0
 16 39  1  0  0  0  0
 16 40  1  0  0  0  0
 17 18  1  0  0  0  0
 18 19  1  0  0  0  0
 18 20  1  0  0  0  0
 18 41  1  0  0  0  0
 19 42  1  0  0  0  0
 19 43  1  0  0  0  0
 19 44  1  0  0  0  0
 20 45  1  0  0  0  0
 20 46  1  0  0  0  0
 21 22  2  0  0  0  0
 22 47  1  0  0  0  0
M  END
> <s_m_source_file>
AV-unprocessed.smi

> <i_m_source_file_index>
2114

> <i_lp_mmshare_version>
43012

> <i_f3d_flags>
0

> <s_epik_input>
W0NIM11PW0NIMl1bQ0BIXShbQ0gzXSlbTkhdQyg9TyljMVtjSF1bY0hdYyhuW2NIXTEpTjJbQ0gyXVtDQEBIXShbQ0gzXSlPW0NAQEhdKFtDSDNdKVtDSDJdMg==

> <s_epik_cmdline>
J2VwaWtfcHl0aG9uJywgJy1waCcsICc3LjAnLCAnLXRuJywgJzgnLCAnLW1hJywgJzIwMCcsICctbWV0YWxfYmluZGluZycsICctaW1hZScsICc8aW5maWxlLm1hZT4nLCAnLW9tYWUnLCAnPG91dGZpbGUubWFlPic=

> <r_lp_tautomer_probability>
1

> <r_epik_Ionization_Penalty>
1.92915e-05

> <r_epik_Ionization_Penalty_Charging>
0

> <r_epik_Ionization_Penalty_Neutral>
1.92915e-05

> <r_epik_State_Penalty>
-0

> <r_epik_Charging_Adjusted_Penalty>
0

> <i_epik_Tot_Q>
0

> <i_epik_Tot_abs_Q>
0

> <r_epik_Metal_State_Penalty>
-0

> <b_epik_Metal_Only>
0

> <s_lp_Force_Field>
OPLS_2005

> <r_lp_Energy>
18.4653

> <b_lp_Chiralities_Consistent>
1

> <s_lp_Variant>
AV-unprocessed.smi:2114-1

> <Gold.Version>
5.8.1

> <Gold.Id.Protein>
6NUR|6NUR_protein|mol2

> <Gold.PLP.Fitness>
37.2713

> <Gold.PLP.PLP>
-35.2697

> <Gold.PLP.part.hbond>
-1.0000

> <Gold.PLP.part.metal>
0.0000

> <Gold.PLP.part.buried>
-3.9336

> <Gold.PLP.part.nonpolar>
-30.3986

> <Gold.PLP.part.repulsive>
0.2208

> <Gold.PLP.ligand.clash>
0.0000

> <Gold.PLP.ligand.torsion>
0.4845

> <Gold.PLP.Chemscore.Hbond>
0.8775

> <Gold.PLP.Chemscore.CHOScore>
0.0000

> <Gold.PLP.Chemscore.Metal>
0.0000

> <Gold.Chemscore.Hbonds>
donor molecule, donor type, donor heavy atom, donor atom, acceptor molecule, acceptor atom, score
      P1  H  6896  6908       L1     8  0.83

> <Gold.PLP.Chemscore.Internal.Correction>
0.3382

> <Gold.Rescore>
     Score         DG    S(hbond)    S(metal)    S(lipo)     H(rot)  DE(clash)    DE(int)     intcor
     16.05     -16.51       0.97        0.00      99.74       1.52       0.06       0.40       ----

> <Gold.Chemscore.Fitness>
16.0497

> <Gold.Chemscore.DG>
-16.5069

> <Gold.Chemscore.ZeroCoef>
-5.4800

> <Gold.Chemscore.Hbond>
0.9746

> <Gold.Chemscore.Metal>
0.0000

> <Gold.Chemscore.Lipo>
99.7412

> <Gold.Chemscore.Internal_Hbond>
0.0000

> <Gold.Chemscore.DEClash>
0.0589

> <Gold.Chemscore.DEInternal>
0.3983

> <Gold.Chemscore.Rot>
1.5226

> <Gold.Chemscore.Internal.Correction>
   9.000000E+99

> <Gold.Chemscore.Hbonds>
donor molecule, donor type, donor heavy atom, donor atom, acceptor molecule, acceptor atom, score
      P1  H  6896  6908       L1     8  0.76

> <Gold.Chemscore.Hbond.Weighted>
-3.2551

> <Gold.Chemscore.Metal.Weighted>
-0.0000

> <Gold.Chemscore.Lipo.Weighted>
-11.6697

> <Gold.Chemscore.Internal_Hbond.Weighted>
0.0000

> <Gold.Chemscore.DEClash.Weighted>
0.0589

> <Gold.Chemscore.DEInternal.Weighted>
0.3983

> <Gold.Chemscore.Rot.Weighted>
3.8980

> <Gold.Chemscore.Internal.Correction.Weighted>
   9.000000E+99

> <Gold.Protein.RotatedTorsions>
[ 6907 6896 6895 6894 ] final  -66.02 input  -60.11 | X-H torsion
[ 7974 7965 7964 7962 ] final  -78.07 input  175.53 | X-H torsion
[ 8008 7997 7996 7995 ] final  128.23 input   59.86 | X-H torsion
[ 10167 10162 10161 10158 ] final -157.43 input  -65.29 | X-H torsion
[ 10718 10713 10712 10709 ] final   44.41 input   66.30 | X-H torsion
[ 10763 10752 10751 10750 ] final  -27.05 input  -60.55 | X-H torsion
[ 11005 11000 10999 10996 ] final   57.01 input  -57.11 | X-H torsion

> <Gold.Protein.ActiveResidues>
 VAL166  LYS551  ARG553  GLY616  TRP617  ASP618  TYR619  PRO620  LYS621  CYS622 
 ASP623  PHE694  ASN695  SER759  ASP760  ASP761  ALA762  ILE779  LEU786  VAL792 
 PHE793  MET794  SER795  GLU796  ALA797  LYS798  CYS799  TRP800  GLU811  SER814 

> <Gold.Protein.RotatedAtoms>
  150.7490  134.6079  159.6070 H   0  0  0  0  0  0  0  0  0  0  0  0  # atno 6907 bound_to 6896
  152.3422  134.7116  160.0269 H   0  0  0  0  0  0  0  0  0  0  0  0  # atno 6908 bound_to 6896
  151.7565  133.3295  159.3442 H   0  0  0  0  0  0  0  0  0  0  0  0  # atno 6909 bound_to 6896
  145.5914  140.9428  143.1290 H   0  0  0  0  0  0  0  0  0  0  0  0  # atno 7974 bound_to 7965
  156.2910  140.2650  156.2402 H   0  0  0  0  0  0  0  0  0  0  0  0  # atno 8008 bound_to 7997
  154.9985  140.0388  157.2368 H   0  0  0  0  0  0  0  0  0  0  0  0  # atno 8009 bound_to 7997
  154.7622  140.2763  155.6209 H   0  0  0  0  0  0  0  0  0  0  0  0  # atno 8010 bound_to 7997
  139.6771  143.9644  152.2316 H   0  0  0  0  0  0  0  0  0  0  0  0  # atno 10167 bound_to 10162
  157.4265  130.7999  149.7563 H   0  0  0  0  0  0  0  0  0  0  0  0  # atno 10718 bound_to 10713
  153.7259  135.6942  153.5001 H   0  0  0  0  0  0  0  0  0  0  0  0  # atno 10763 bound_to 10752
  153.2170  135.4383  155.0445 H   0  0  0  0  0  0  0  0  0  0  0  0  # atno 10764 bound_to 10752
  154.8269  135.3451  154.6791 H   0  0  0  0  0  0  0  0  0  0  0  0  # atno 10765 bound_to 10752
  140.0485  134.5771  155.9293 H   0  0  0  0  0  0  0  0  0  0  0  0  # atno 11005 bound_to 11000
  144.7350  139.7613  143.7333 LP  0  0  0  0  0  0  0  0  0  0  0  0  # atno 17320 bound_to 7965
  146.1644  139.4770  142.9967 LP  0  0  0  0  0  0  0  0  0  0  0  0  # atno 17321 bound_to 7965
  139.9424  144.6673  150.8253 LP  0  0  0  0  0  0  0  0  0  0  0  0  # atno 17342 bound_to 10162
  140.7639  143.3235  151.2567 LP  0  0  0  0  0  0  0  0  0  0  0  0  # atno 17343 bound_to 10162
  155.9898  130.3949  150.3056 LP  0  0  0  0  0  0  0  0  0  0  0  0  # atno 17370 bound_to 10713
  157.1209  131.0246  151.3010 LP  0  0  0  0  0  0  0  0  0  0  0  0  # atno 17371 bound_to 10713
  141.1919  133.6573  156.5476 LP  0  0  0  0  0  0  0  0  0  0  0  0  # atno 17394 bound_to 11000
  140.3955  134.7402  157.4748 LP  0  0  0  0  0  0  0  0  0  0  0  0  # atno 17395 bound_to 11000

$$$$
