AV-unprocessed.smi:2518|AV-procd|sdf|9902|dock6
  -GOLD-   2272013543D 1   1.00000     0.00000
 Structure written by MMmdl.
 41 43  0  0  0  0  0  0  0  0  1 V2000
  152.5141  144.8785  158.4019 C   0  0  0  0  0  0  0  0  0  0  0  0
  152.1865  143.4054  158.5334 C   0  0  0  0  0  0  0  0  0  0  0  0
  152.8854  142.6004  159.4546 C   0  0  0  0  0  0  0  0  0  0  0  0
  152.5785  141.2312  159.5709 C   0  0  0  0  0  0  0  0  0  0  0  0
  151.5742  140.6451  158.7736 C   0  0  0  0  0  0  0  0  0  0  0  0
  151.3397  139.2986  158.9535 O   0  0  0  0  0  0  0  0  0  0  0  0
  150.1943  138.7283  158.3351 C   0  0  0  0  0  0  0  0  0  0  0  0
  150.0932  137.2448  158.7348 C   0  0  1  0  0  0  0  0  0  0  0  0
  150.4921  137.1174  160.0847 O   0  0  0  0  0  0  0  0  0  0  0  0
  148.6680  136.6644  158.6272 C   0  0  0  0  0  0  0  0  0  0  0  0
  148.1441  136.1980  159.9024 N   0  0  0  0  0  0  0  0  0  0  0  0
  147.7053  137.1035  160.8139 N   0  0  0  0  0  0  0  0  0  0  0  0
  147.2878  136.3935  161.8601 C   0  0  0  0  0  0  0  0  0  0  0  0
  147.4479  134.9960  161.6534 C   0  0  0  0  0  0  0  0  0  0  0  0
  147.1715  133.7962  162.4374 C   0  0  0  0  0  0  0  0  0  0  0  0
  147.4602  132.6441  161.9179 N   0  0  0  0  0  0  0  0  0  0  0  0
  148.0237  132.5427  160.6407 N   0  0  0  0  0  0  0  0  0  0  0  0
  148.2999  131.1772  160.2005 C   0  0  0  0  0  0  0  0  0  0  0  0
  148.3269  133.6013  159.8306 C   0  0  0  0  0  0  0  0  0  0  0  0
  148.8429  133.4918  158.7184 O   0  0  0  0  0  0  0  0  0  0  0  0
  147.9896  134.9231  160.4124 C   0  0  0  0  0  0  0  0  0  0  0  0
  150.8758  141.4606  157.8469 C   0  0  0  0  0  0  0  0  0  0  0  0
  151.1826  142.8303  157.7296 C   0  0  0  0  0  0  0  0  0  0  0  0
  153.0104  145.2526  159.2979 H   0  0  0  0  0  0  0  0  0  0  0  0
  151.6056  145.4623  158.2509 H   0  0  0  0  0  0  0  0  0  0  0  0
  153.1743  145.0426  157.5500 H   0  0  0  0  0  0  0  0  0  0  0  0
  153.6591  143.0287  160.0748 H   0  0  0  0  0  0  0  0  0  0  0  0
  153.1206  140.6233  160.2804 H   0  0  0  0  0  0  0  0  0  0  0  0
  149.2818  139.2637  158.6033 H   0  0  0  0  0  0  0  0  0  0  0  0
  150.3277  138.8145  157.2571 H   0  0  0  0  0  0  0  0  0  0  0  0
  150.7649  136.6511  158.1133 H   0  0  0  0  0  0  0  0  0  0  0  0
  150.2599  137.9106  160.5428 H   0  0  0  0  0  0  0  0  0  0  0  0
  147.9874  137.4260  158.2429 H   0  0  0  0  0  0  0  0  0  0  0  0
  148.6374  135.8474  157.9070 H   0  0  0  0  0  0  0  0  0  0  0  0
  146.8898  136.9099  162.7211 H   0  0  0  0  0  0  0  0  0  0  0  0
  146.7337  133.8731  163.4325 H   0  0  0  0  0  0  0  0  0  0  0  0
  147.7890  130.9642  159.2602 H   0  0  0  0  0  0  0  0  0  0  0  0
  147.9678  130.4367  160.9301 H   0  0  0  0  0  0  0  0  0  0  0  0
  149.3707  131.0347  160.0480 H   0  0  0  0  0  0  0  0  0  0  0  0
  150.0998  141.0598  157.2125 H   0  0  0  0  0  0  0  0  0  0  0  0
  150.6430  143.4389  157.0187 H   0  0  0  0  0  0  0  0  0  0  0  0
  1  2  1  0  0  0  0
  1 24  1  0  0  0  0
  1 25  1  0  0  0  0
  1 26  1  0  0  0  0
  2 23  1  0  0  0  0
  2  3  2  0  0  0  0
  3  4  1  0  0  0  0
  3 27  1  0  0  0  0
  4  5  2  0  0  0  0
  4 28  1  0  0  0  0
  5  6  1  0  0  0  0
  5 22  1  0  0  0  0
  6  7  1  0  0  0  0
  7  8  1  0  0  0  0
  7 29  1  0  0  0  0
  7 30  1  0  0  0  0
  8  9  1  0  0  0  0
  8 10  1  0  0  0  0
  8 31  1  0  0  0  0
  9 32  1  0  0  0  0
 10 11  1  0  0  0  0
 10 33  1  0  0  0  0
 10 34  1  0  0  0  0
 11 21  1  0  0  0  0
 11 12  1  0  0  0  0
 12 13  2  0  0  0  0
 13 14  1  0  0  0  0
 13 35  1  0  0  0  0
 14 21  2  0  0  0  0
 14 15  1  0  0  0  0
 15 16  2  0  0  0  0
 15 36  1  0  0  0  0
 16 17  1  0  0  0  0
 17 18  1  0  0  0  0
 17 19  1  0  0  0  0
 18 37  1  0  0  0  0
 18 38  1  0  0  0  0
 18 39  1  0  0  0  0
 19 20  2  0  0  0  0
 19 21  1  0  0  0  0
 22 23  2  0  0  0  0
 22 40  1  0  0  0  0
 23 41  1  0  0  0  0
M  END
> <s_m_source_file>
AV-unprocessed.smi

> <i_m_source_file_index>
2518

> <i_lp_mmshare_version>
43012

> <i_f3d_flags>
0

> <s_epik_input>
W0NIM11jMVtjSF1bY0hdYyhbY0hdW2NIXTEpT1tDSDJdW0NASF0oW09IXSlbQ0gyXW4obltjSF0yKWMoYzIzKWMoPU8pbihbQ0gzXSluW2NIXTM=

> <s_epik_cmdline>
J2VwaWtfcHl0aG9uJywgJy1waCcsICc3LjAnLCAnLXRuJywgJzgnLCAnLW1hJywgJzIwMCcsICctbWV0YWxfYmluZGluZycsICctaW1hZScsICc8aW5maWxlLm1hZT4nLCAnLW9tYWUnLCAnPG91dGZpbGUubWFlPic=

> <r_lp_tautomer_probability>
1

> <r_epik_Ionization_Penalty>
2.246e-06

> <r_epik_Ionization_Penalty_Charging>
1.41975e-10

> <r_epik_Ionization_Penalty_Neutral>
2.24586e-06

> <r_epik_State_Penalty>
-0

> <r_epik_Charging_Adjusted_Penalty>
1.41975e-10

> <i_epik_Tot_Q>
0

> <i_epik_Tot_abs_Q>
0

> <r_epik_Metal_State_Penalty>
-0

> <b_epik_Metal_Only>
0

> <s_lp_Force_Field>
OPLS_2005

> <r_lp_Energy>
31.8709

> <b_lp_Chiralities_Consistent>
1

> <s_lp_Variant>
AV-unprocessed.smi:2518-2

> <Gold.Version>
5.8.1

> <Gold.Id.Protein>
6NUR|6NUR_protein|mol2

> <Gold.PLP.Fitness>
51.8059

> <Gold.PLP.PLP>
-45.3034

> <Gold.PLP.part.hbond>
-4.6468

> <Gold.PLP.part.metal>
0.0000

> <Gold.PLP.part.buried>
-5.1670

> <Gold.PLP.part.nonpolar>
-37.0191

> <Gold.PLP.part.repulsive>
0.0000

> <Gold.PLP.ligand.clash>
0.0000

> <Gold.PLP.ligand.torsion>
1.2964

> <Gold.PLP.Chemscore.Hbond>
3.0199

> <Gold.PLP.Chemscore.CHOScore>
0.0000

> <Gold.PLP.Chemscore.Metal>
0.0000

> <Gold.Chemscore.Hbonds>
donor molecule, donor type, donor heavy atom, donor atom, acceptor molecule, acceptor atom, score
      P1  H  6896  6907       L1    20  0.88
      P1  H  6896  6908       L1     9  0.57
      P1  H  6931  6943       L1    12  0.60
      P1  H  6934  6947       L1    12  0.93

> <Gold.PLP.Chemscore.Internal.Correction>
0.0357

> <Gold.Rescore>
     Score         DG    S(hbond)    S(metal)    S(lipo)     H(rot)  DE(clash)    DE(int)     intcor
     16.24     -19.19       1.88        0.00     114.99       2.35       0.48       2.47       ----

> <Gold.Chemscore.Fitness>
16.2353

> <Gold.Chemscore.DG>
-19.1869

> <Gold.Chemscore.ZeroCoef>
-5.4800

> <Gold.Chemscore.Hbond>
1.8762

> <Gold.Chemscore.Metal>
0.0000

> <Gold.Chemscore.Lipo>
114.9909

> <Gold.Chemscore.Internal_Hbond>
0.0000

> <Gold.Chemscore.DEClash>
0.4787

> <Gold.Chemscore.DEInternal>
2.4730

> <Gold.Chemscore.Rot>
2.3490

> <Gold.Chemscore.Internal.Correction>
   9.000000E+99

> <Gold.Chemscore.Hbonds>
donor molecule, donor type, donor heavy atom, donor atom, acceptor molecule, acceptor atom, score
      P1  H  6896  6907       L1    20  0.16
      P1  H  6896  6908       L1     9  0.14
      P1  H  6931  6943       L1    12  0.07
      P1  H  6934  6947       L1    12  0.74

> <Gold.Chemscore.Hbond.Weighted>
-6.2665

> <Gold.Chemscore.Metal.Weighted>
-0.0000

> <Gold.Chemscore.Lipo.Weighted>
-13.4539

> <Gold.Chemscore.Internal_Hbond.Weighted>
0.0000

> <Gold.Chemscore.DEClash.Weighted>
0.4787

> <Gold.Chemscore.DEInternal.Weighted>
2.4730

> <Gold.Chemscore.Rot.Weighted>
6.0136

> <Gold.Chemscore.Internal.Correction.Weighted>
   9.000000E+99

> <Gold.Protein.RotatedTorsions>
[ 6907 6896 6895 6894 ] final -121.61 input  -60.11 | X-H torsion
[ 7974 7965 7964 7962 ] final -144.87 input  175.53 | X-H torsion
[ 8008 7997 7996 7995 ] final   55.64 input   59.86 | X-H torsion
[ 10167 10162 10161 10158 ] final  -95.67 input  -65.29 | X-H torsion
[ 10718 10713 10712 10709 ] final    9.03 input   66.30 | X-H torsion
[ 10763 10752 10751 10750 ] final  102.42 input  -60.55 | X-H torsion
[ 11005 11000 10999 10996 ] final   49.93 input  -57.11 | X-H torsion

> <Gold.Protein.ActiveResidues>
 VAL166  LYS551  ARG553  GLY616  TRP617  ASP618  TYR619  PRO620  LYS621  CYS622 
 ASP623  PHE694  ASN695  SER759  ASP760  ASP761  ALA762  ILE779  LEU786  VAL792 
 PHE793  MET794  SER795  GLU796  ALA797  LYS798  CYS799  TRP800  GLU811  SER814 

> <Gold.Protein.RotatedAtoms>
  150.8499  133.7803  159.3029 H   0  0  0  0  0  0  0  0  0  0  0  0  # atno 6907 bound_to 6896
  151.5478  135.1066  159.9952 H   0  0  0  0  0  0  0  0  0  0  0  0  # atno 6908 bound_to 6896
  152.4544  133.7651  159.6824 H   0  0  0  0  0  0  0  0  0  0  0  0  # atno 6909 bound_to 6896
  144.8267  140.5655  143.5542 H   0  0  0  0  0  0  0  0  0  0  0  0  # atno 7974 bound_to 7965
  155.5044  140.3475  155.4377 H   0  0  0  0  0  0  0  0  0  0  0  0  # atno 8008 bound_to 7997
  156.0892  140.1406  156.9641 H   0  0  0  0  0  0  0  0  0  0  0  0  # atno 8009 bound_to 7997
  154.4625  140.0930  156.6908 H   0  0  0  0  0  0  0  0  0  0  0  0  # atno 8010 bound_to 7997
  140.3018  143.3158  152.0240 H   0  0  0  0  0  0  0  0  0  0  0  0  # atno 10167 bound_to 10162
  156.9604  130.5931  149.5662 H   0  0  0  0  0  0  0  0  0  0  0  0  # atno 10718 bound_to 10713
  153.3394  135.4011  155.1560 H   0  0  0  0  0  0  0  0  0  0  0  0  # atno 10763 bound_to 10752
  154.8640  135.3630  154.5365 H   0  0  0  0  0  0  0  0  0  0  0  0  # atno 10764 bound_to 10752
  153.5809  135.7076  153.5523 H   0  0  0  0  0  0  0  0  0  0  0  0  # atno 10765 bound_to 10752
  140.1060  134.5017  155.8719 H   0  0  0  0  0  0  0  0  0  0  0  0  # atno 11005 bound_to 11000
  145.4985  139.1484  143.3670 LP  0  0  0  0  0  0  0  0  0  0  0  0  # atno 17320 bound_to 7965
  146.2572  140.5125  142.8869 LP  0  0  0  0  0  0  0  0  0  0  0  0  # atno 17321 bound_to 7965
  139.4913  144.6450  151.6797 LP  0  0  0  0  0  0  0  0  0  0  0  0  # atno 17342 bound_to 10162
  140.5644  144.0214  150.6185 LP  0  0  0  0  0  0  0  0  0  0  0  0  # atno 17343 bound_to 10162
  156.0324  130.5415  150.8569 LP  0  0  0  0  0  0  0  0  0  0  0  0  # atno 17370 bound_to 10713
  157.5662  131.0946  150.9487 LP  0  0  0  0  0  0  0  0  0  0  0  0  # atno 17371 bound_to 10713
  141.2118  133.6711  156.6612 LP  0  0  0  0  0  0  0  0  0  0  0  0  # atno 17394 bound_to 11000
  140.3155  134.8051  157.4210 LP  0  0  0  0  0  0  0  0  0  0  0  0  # atno 17395 bound_to 11000

$$$$
