#       Name:                AV-unprocessed.smi:1043
#       Creating user name   scv26
#       Creation time:       Fri Mar 27 02:56:45 2020


#       File generated by GOLD software.
#

@<TRIPOS>MOLECULE
AV-unprocessed.smi:1043
    39    40     1
SMALL
NO_CHARGES


@<TRIPOS>ATOM
      1 ****        -1.9139   1.9391  -0.4254 C.3            1 S1                 0.0000
      2 ****        -1.2483   0.5445  -0.4907 C.3            1 S1                 0.0000
      3 ****         0.2138   0.7049  -0.5069 N.am           1 S1                 0.0000
      4 ****         1.0243   1.1977   0.4448 C.2            1 S1                 0.0000
      5 ****         0.5603   1.6053   1.5118 O.2            1 S1                 0.0000
      6 ****         2.3322   1.1739   0.1015 N.pl3          1 S1                -1.0000
      7 ****         3.2630   1.5912   0.9751 C.2            1 S1                 0.0000
      8 ****         3.8130   2.8143   0.9109 N.2            1 S1                 0.0000
      9 ****         4.7563   3.0410   1.9042 N.2            1 S1                 0.0000
     10 ****         4.9009   1.9740   2.6896 C.2            1 S1                 0.0000
     11 ****         3.8987   0.5960   2.2880 S.3            1 S1                 0.0000
     12 ****        -1.7509  -0.3125   0.7077 C.3            1 S1                 0.0000
     13 ****        -0.9249  -1.5465   1.1357 C.3            1 S1                 0.0000
     14 ****        -0.3390  -2.4341   0.0241 C.3            1 S1                 0.0000
     15 ****        -1.2127  -2.5838  -1.2285 C.3            1 S1                 0.0000
     16 ****        -1.0203  -1.4300  -2.2255 C.3            1 S1                 0.0000
     17 ****        -1.6955  -0.1052  -1.8272 C.3            1 S1                 0.0000
     18 ****        -2.9994   1.8614  -0.4961 H              1 S1                 0.0000
     19 ****        -1.5778   2.5800  -1.2415 H              1 S1                 0.0000
     20 ****        -1.6937   2.4602   0.5063 H              1 S1                 0.0000
     21 ****         0.6723   0.3896  -1.3489 H              1 S1                 0.0000
     22 ****         5.6033   1.9975   3.5092 H              1 S1                 0.0000
     23 ****        -1.8433   0.3225   1.5899 H              1 S1                 0.0000
     24 ****        -2.7725  -0.6337   0.5016 H              1 S1                 0.0000
     25 ****        -0.1056  -1.2271   1.7806 H              1 S1                 0.0000
     26 ****        -1.5610  -2.1623   1.7724 H              1 S1                 0.0000
     27 ****         0.6451  -2.0617  -0.2631 H              1 S1                 0.0000
     28 ****        -0.1541  -3.4220   0.4473 H              1 S1                 0.0000
     29 ****        -0.9205  -3.5064  -1.7314 H              1 S1                 0.0000
     30 ****        -2.2631  -2.7076  -0.9634 H              1 S1                 0.0000
     31 ****         0.0424  -1.2715  -2.4126 H              1 S1                 0.0000
     32 ****        -1.4372  -1.7384  -3.1844 H              1 S1                 0.0000
     33 ****        -2.7761  -0.2540  -1.8154 H              1 S1                 0.0000
     34 ****        -1.5152   0.6022  -2.6381 H              1 S1                 0.0000
     35 ****        -0.4259   1.5706   1.6739 LP             1 S1                 0.0000
     36 ****         1.1701   1.9707   2.2151 LP             1 S1                 0.0000
     37 ****         2.6061   0.8457  -0.8026 LP             1 S1                 0.0000
     38 ****         3.5682   3.4929   0.2183 LP             1 S1                 0.0000
     39 ****         5.2627   3.8961   2.0160 LP             1 S1                 0.0000
@<TRIPOS>BOND
    1    1    2 1     
    2    1   18 1     
    3    1   19 1     
    4    1   20 1     
    5    2   17 1     
    6    2    3 1     
    7    2   12 1     
    8    3    4 am    
    9    3   21 1     
   10    4    5 2     
   11    4    6 1     
   12    6    7 1     
   13    7   11 1     
   14    7    8 2     
   15    8    9 1     
   16    9   10 2     
   17   10   11 1     
   18   10   22 1     
   19   12   13 1     
   20   12   23 1     
   21   12   24 1     
   22   13   14 1     
   23   13   25 1     
   24   13   26 1     
   25   14   15 1     
   26   14   27 1     
   27   14   28 1     
   28   15   16 1     
   29   15   29 1     
   30   15   30 1     
   31   16   17 1     
   32   16   31 1     
   33   16   32 1     
   34   17   33 1     
   35   17   34 1     
   36    5   35 1     
   37    5   36 1     
   38    6   37 1     
   39    8   38 1     
   40    9   39 1     
@<TRIPOS>SUBSTRUCTURE
      1 S1             1
@<TRIPOS>SET
LONE_PAIRS      STATIC     ATOMS    <user>   **** ""
5 35 36 37 38 39
DONOR_HYDROGENS      STATIC     ATOMS    <user>   **** ""
1 21
ATOM$BLUE        STATIC     ATOMS    COLORGROUP SYSTEM
5 35 36 37 38 39
ATOM$RED        STATIC     ATOMS    COLORGROUP SYSTEM
1 21
