AV-unprocessed.smi:1258|AV-procd|sdf|5289|dock6
  -GOLD-   22720 4413D 1   1.00000     0.00000
 Structure written by MMmdl.
 33 34  0  0  0  0  0  0  0  0  1 V2000
  152.5567  142.5957  161.9445 C   0  0  0  0  0  0  0  0  0  0  0  0
  152.5939  143.2600  160.5610 C   0  0  2  0  0  0  0  0  0  0  0  0
  151.9240  144.6472  160.5840 C   0  0  0  0  0  0  0  0  0  0  0  0
  151.9609  145.3124  159.1994 C   0  0  0  0  0  0  0  0  0  0  0  0
  151.3142  144.4148  158.1336 C   0  0  0  0  0  0  0  0  0  0  0  0
  151.9781  143.0263  158.0936 C   0  0  2  0  0  0  0  0  0  0  0  0
  151.3029  142.1910  157.1046 N   0  0  0  0  0  0  0  0  0  0  0  0
  151.5993  140.9098  156.8380 C   0  0  0  0  0  0  0  0  0  0  0  0
  152.4836  140.2866  157.4275 O   0  0  0  0  0  0  0  0  0  0  0  0
  150.7606  140.2502  155.7363 C   0  0  0  0  0  0  0  0  0  0  0  0
  151.1331  138.8666  155.4962 N   0  0  0  0  0  0  0  0  0  0  0  0
  151.6802  138.2774  154.4310 C   0  0  0  0  0  0  0  0  0  0  0  0
  151.8556  136.9795  154.6265 N   0  0  0  0  0  0  0  0  0  0  0  0
  151.3733  136.7866  155.9102 N   0  0  0  0  0  0  0  0  0  0  0  0
  150.9436  137.9029  156.4316 N   0  0  0  0  0  0  0  0  0  0  0  0
  151.9444  142.3644  159.4875 C   0  0  0  0  0  0  0  0  0  0  0  0
  151.5318  142.4302  162.2780 H   0  0  0  0  0  0  0  0  0  0  0  0
  153.0539  143.2156  162.6911 H   0  0  0  0  0  0  0  0  0  0  0  0
  153.0623  141.6299  161.9295 H   0  0  0  0  0  0  0  0  0  0  0  0
  153.6424  143.3980  160.2924 H   0  0  0  0  0  0  0  0  0  0  0  0
  150.8884  144.5526  160.9137 H   0  0  0  0  0  0  0  0  0  0  0  0
  152.4214  145.2904  161.3109 H   0  0  0  0  0  0  0  0  0  0  0  0
  151.4490  146.2743  159.2355 H   0  0  0  0  0  0  0  0  0  0  0  0
  152.9946  145.5228  158.9220 H   0  0  0  0  0  0  0  0  0  0  0  0
  150.2493  144.3112  158.3478 H   0  0  0  0  0  0  0  0  0  0  0  0
  151.3889  144.8940  157.1566 H   0  0  0  0  0  0  0  0  0  0  0  0
  153.0189  143.1583  157.7910 H   0  0  0  0  0  0  0  0  0  0  0  0
  150.5620  142.6259  156.5741 H   0  0  0  0  0  0  0  0  0  0  0  0
  149.7061  140.2800  156.0133 H   0  0  0  0  0  0  0  0  0  0  0  0
  150.8680  140.8160  154.8095 H   0  0  0  0  0  0  0  0  0  0  0  0
  151.9459  138.7944  153.5206 H   0  0  0  0  0  0  0  0  0  0  0  0
  152.4600  141.4038  159.4551 H   0  0  0  0  0  0  0  0  0  0  0  0
  150.9119  142.1495  159.7675 H   0  0  0  0  0  0  0  0  0  0  0  0
  1  2  1  0  0  0  0
  1 17  1  0  0  0  0
  1 18  1  0  0  0  0
  1 19  1  0  0  0  0
  2 16  1  0  0  0  0
  2  3  1  0  0  0  0
  2 20  1  0  0  0  0
  3  4  1  0  0  0  0
  3 21  1  0  0  0  0
  3 22  1  0  0  0  0
  4  5  1  0  0  0  0
  4 23  1  0  0  0  0
  4 24  1  0  0  0  0
  5  6  1  0  0  0  0
  5 25  1  0  0  0  0
  5 26  1  0  0  0  0
  6  7  1  0  0  0  0
  6 16  1  0  0  0  0
  6 27  1  0  0  0  0
  7  8  1  0  0  0  0
  7 28  1  0  0  0  0
  8  9  2  0  0  0  0
  8 10  1  0  0  0  0
 10 11  1  0  0  0  0
 10 29  1  0  0  0  0
 10 30  1  0  0  0  0
 11 15  1  0  0  0  0
 11 12  1  0  0  0  0
 12 13  2  0  0  0  0
 12 31  1  0  0  0  0
 13 14  1  0  0  0  0
 14 15  2  0  0  0  0
 16 32  1  0  0  0  0
 16 33  1  0  0  0  0
M  END
> <s_m_source_file>
AV-unprocessed.smi

> <i_m_source_file_index>
1258

> <i_lp_mmshare_version>
43012

> <i_f3d_flags>
0

> <s_epik_input>
W0NIM11bQ0BASF0xW0NIMl1bQ0gyXVtDSDJdW0NASF0oW0NIMl0xKVtOSF1DKD1PKVtDSDJdbjJbY0hdbm5uMg==

> <s_epik_cmdline>
J2VwaWtfcHl0aG9uJywgJy1waCcsICc3LjAnLCAnLXRuJywgJzgnLCAnLW1hJywgJzIwMCcsICctbWV0YWxfYmluZGluZycsICctaW1hZScsICc8aW5maWxlLm1hZT4nLCAnLW9tYWUnLCAnPG91dGZpbGUubWFlPic=

> <r_lp_tautomer_probability>
1

> <r_epik_Ionization_Penalty>
5.03816e-07

> <r_epik_Ionization_Penalty_Charging>
0

> <r_epik_Ionization_Penalty_Neutral>
5.03816e-07

> <r_epik_State_Penalty>
-0

> <r_epik_Charging_Adjusted_Penalty>
0

> <i_epik_Tot_Q>
0

> <i_epik_Tot_abs_Q>
0

> <r_epik_Metal_State_Penalty>
-0

> <b_epik_Metal_Only>
0

> <s_lp_Force_Field>
OPLS_2005

> <r_lp_Energy>
11.1566

> <b_lp_Chiralities_Consistent>
1

> <s_lp_Variant>
AV-unprocessed.smi:1258-3

> <Gold.Version>
5.8.1

> <Gold.Id.Protein>
6NUR|6NUR_protein|mol2

> <Gold.PLP.Fitness>
44.1634

> <Gold.PLP.PLP>
-38.3256

> <Gold.PLP.part.hbond>
-2.2555

> <Gold.PLP.part.metal>
0.0000

> <Gold.PLP.part.buried>
-4.2932

> <Gold.PLP.part.nonpolar>
-31.2754

> <Gold.PLP.part.repulsive>
0.2416

> <Gold.PLP.ligand.clash>
0.0000

> <Gold.PLP.ligand.torsion>
0.0473

> <Gold.PLP.Chemscore.Hbond>
1.9760

> <Gold.PLP.Chemscore.CHOScore>
0.0000

> <Gold.PLP.Chemscore.Metal>
0.0000

> <Gold.Chemscore.Hbonds>
donor molecule, donor type, donor heavy atom, donor atom, acceptor molecule, acceptor atom, score
      P1  H  7997  8010       L1     9  0.93
      P1  H 10752 10764       L1    13  1.00

> <Gold.PLP.Chemscore.Internal.Correction>
0.0045

> <Gold.Rescore>
     Score         DG    S(hbond)    S(metal)    S(lipo)     H(rot)  DE(clash)    DE(int)     intcor
     15.40     -17.11       1.82        0.00      89.25       1.92       0.29       1.41       ----

> <Gold.Chemscore.Fitness>
15.4047

> <Gold.Chemscore.DG>
-17.1054

> <Gold.Chemscore.ZeroCoef>
-5.4800

> <Gold.Chemscore.Hbond>
1.8236

> <Gold.Chemscore.Metal>
0.0000

> <Gold.Chemscore.Lipo>
89.2471

> <Gold.Chemscore.Internal_Hbond>
0.0000

> <Gold.Chemscore.DEClash>
0.2926

> <Gold.Chemscore.DEInternal>
1.4081

> <Gold.Chemscore.Rot>
1.9169

> <Gold.Chemscore.Internal.Correction>
   9.000000E+99

> <Gold.Chemscore.Hbonds>
donor molecule, donor type, donor heavy atom, donor atom, acceptor molecule, acceptor atom, score
      P1  H  7997  8010       L1     9  0.83
      P1  H 10752 10764       L1    13  0.34

> <Gold.Chemscore.Hbond.Weighted>
-6.0908

> <Gold.Chemscore.Metal.Weighted>
-0.0000

> <Gold.Chemscore.Lipo.Weighted>
-10.4419

> <Gold.Chemscore.Internal_Hbond.Weighted>
0.0000

> <Gold.Chemscore.DEClash.Weighted>
0.2926

> <Gold.Chemscore.DEInternal.Weighted>
1.4081

> <Gold.Chemscore.Rot.Weighted>
4.9073

> <Gold.Chemscore.Internal.Correction.Weighted>
   9.000000E+99

> <Gold.Protein.RotatedTorsions>
[ 6907 6896 6895 6894 ] final   16.01 input  -60.11 | X-H torsion
[ 7974 7965 7964 7962 ] final  -36.47 input  175.53 | X-H torsion
[ 8008 7997 7996 7995 ] final   55.52 input   59.86 | X-H torsion
[ 10167 10162 10161 10158 ] final   13.53 input  -65.29 | X-H torsion
[ 10718 10713 10712 10709 ] final   69.27 input   66.30 | X-H torsion
[ 10763 10752 10751 10750 ] final  -69.01 input  -60.55 | X-H torsion
[ 11005 11000 10999 10996 ] final -136.96 input  -57.11 | X-H torsion

> <Gold.Protein.ActiveResidues>
 VAL166  LYS551  ARG553  GLY616  TRP617  ASP618  TYR619  PRO620  LYS621  CYS622 
 ASP623  PHE694  ASN695  SER759  ASP760  ASP761  ALA762  ILE779  LEU786  VAL792 
 PHE793  MET794  SER795  GLU796  ALA797  LYS798  CYS799  TRP800  GLU811  SER814 

> <Gold.Protein.RotatedAtoms>
  151.8271  135.0633  160.0432 H   0  0  0  0  0  0  0  0  0  0  0  0  # atno 6907 bound_to 6896
  152.2908  133.5555  159.5564 H   0  0  0  0  0  0  0  0  0  0  0  0  # atno 6908 bound_to 6896
  150.7229  134.0348  159.3788 H   0  0  0  0  0  0  0  0  0  0  0  0  # atno 6909 bound_to 6896
  146.0659  140.6282  142.8975 H   0  0  0  0  0  0  0  0  0  0  0  0  # atno 7974 bound_to 7965
  155.5025  140.3475  155.4373 H   0  0  0  0  0  0  0  0  0  0  0  0  # atno 8008 bound_to 7997
  156.0904  140.1409  156.9627 H   0  0  0  0  0  0  0  0  0  0  0  0  # atno 8009 bound_to 7997
  154.4632  140.0927  156.6926 H   0  0  0  0  0  0  0  0  0  0  0  0  # atno 8010 bound_to 7997
  140.5996  143.8632  150.6952 H   0  0  0  0  0  0  0  0  0  0  0  0  # atno 10167 bound_to 10162
  157.6336  130.9417  150.0490 H   0  0  0  0  0  0  0  0  0  0  0  0  # atno 10718 bound_to 10713
  154.3973  135.6039  153.5877 H   0  0  0  0  0  0  0  0  0  0  0  0  # atno 10763 bound_to 10752
  152.9788  135.5898  154.4226 H   0  0  0  0  0  0  0  0  0  0  0  0  # atno 10764 bound_to 10752
  154.4019  135.2843  155.2069 H   0  0  0  0  0  0  0  0  0  0  0  0  # atno 10765 bound_to 10752
  140.8756  134.1996  157.4624 H   0  0  0  0  0  0  0  0  0  0  0  0  # atno 11005 bound_to 11000
  144.7202  140.4347  143.7014 LP  0  0  0  0  0  0  0  0  0  0  0  0  # atno 17320 bound_to 7965
  145.6478  139.1560  143.2879 LP  0  0  0  0  0  0  0  0  0  0  0  0  # atno 17321 bound_to 7965
  140.2174  143.3835  152.1670 LP  0  0  0  0  0  0  0  0  0  0  0  0  # atno 17342 bound_to 10162
  139.5282  144.7128  151.5153 LP  0  0  0  0  0  0  0  0  0  0  0  0  # atno 17343 bound_to 10162
  156.1558  130.3643  149.9371 LP  0  0  0  0  0  0  0  0  0  0  0  0  # atno 17370 bound_to 10713
  156.7381  130.9069  151.3630 LP  0  0  0  0  0  0  0  0  0  0  0  0  # atno 17371 bound_to 10713
  139.8715  134.9794  156.5035 LP  0  0  0  0  0  0  0  0  0  0  0  0  # atno 17394 bound_to 11000
  140.8522  133.8123  155.9180 LP  0  0  0  0  0  0  0  0  0  0  0  0  # atno 17395 bound_to 11000

$$$$
