AV-unprocessed.smi:231|AV-procd|sdf|1766|dock7
  -GOLD-   2262020303D 1   1.00000     0.00000
 Structure written by MMmdl.
 50 53  0  0  0  0  0  0  0  0  1 V2000
  146.6139  141.9234  154.6029 C   0  0  0  0  0  0  0  0  0  0  0  0
  147.8495  141.5148  153.7910 C   0  0  0  0  0  0  0  0  0  0  0  0
  148.5857  140.3981  154.3792 N   0  0  0  0  0  0  0  0  0  0  0  0
  147.9447  139.2059  154.4183 C   0  0  0  0  0  0  0  0  0  0  0  0
  148.0018  138.5002  155.5752 N   0  0  0  0  0  0  0  0  0  0  0  0
  147.3982  137.3115  155.6640 C   0  0  0  0  0  0  0  0  0  0  0  0
  146.6909  136.6633  154.7365 N   0  0  0  0  0  0  0  0  0  0  0  0
  146.6095  137.3836  153.5809 C   0  0  0  0  0  0  0  0  0  0  0  0
  147.1997  138.6558  153.3382 C   0  0  0  0  0  0  0  0  0  0  0  0
  146.9048  139.0734  152.0467 N   0  0  0  0  0  0  0  0  0  0  0  0
  146.2001  138.0956  151.5471 C   0  0  0  0  0  0  0  0  0  0  0  0
  145.9545  137.0502  152.4085 N   0  0  0  0  0  0  0  0  0  0  0  0
  145.2544  135.8352  152.1124 C   0  0  0  0  0  0  0  0  0  0  0  0
  145.9144  134.4638  152.2944 C   0  0  0  0  0  0  0  0  0  0  0  0
  145.0886  133.9264  151.1022 C   0  0  0  0  0  0  0  0  0  0  0  0
  145.8066  132.9523  150.1475 C   0  0  0  0  0  0  0  0  0  0  0  0
  146.1741  131.7425  150.7796 O   0  0  0  0  0  0  0  0  0  0  0  0
  143.7557  133.2671  151.5063 C   0  0  0  0  0  0  0  0  0  0  0  0
  143.0000  132.8851  150.3747 O   0  0  0  0  0  0  0  0  0  0  0  0
  144.9910  135.4070  150.6657 C   0  0  0  0  0  0  0  0  0  0  0  0
  150.0138  140.5044  154.7202 C   0  0  1  0  0  0  0  0  0  0  0  0
  150.2790  141.4155  155.9367 C   0  0  0  0  0  0  0  0  0  0  0  0
  150.6285  140.4712  157.0960 C   0  0  0  0  0  0  0  0  0  0  0  0
  150.9774  139.2228  156.4484 N   0  0  0  0  0  0  0  0  0  0  0  0
  150.6445  139.1842  155.1586 C   0  0  0  0  0  0  0  0  0  0  0  0
  150.8329  138.2331  154.4036 O   0  0  0  0  0  0  0  0  0  0  0  0
  146.1206  142.7803  154.1443 H   0  0  0  0  0  0  0  0  0  0  0  0
  146.8801  142.2036  155.6218 H   0  0  0  0  0  0  0  0  0  0  0  0
  145.8841  141.1159  154.6522 H   0  0  0  0  0  0  0  0  0  0  0  0
  147.5460  141.2344  152.7818 H   0  0  0  0  0  0  0  0  0  0  0  0
  148.5074  142.3777  153.6755 H   0  0  0  0  0  0  0  0  0  0  0  0
  147.4969  136.8072  156.6139 H   0  0  0  0  0  0  0  0  0  0  0  0
  145.8366  138.1142  150.5301 H   0  0  0  0  0  0  0  0  0  0  0  0
  144.3189  135.8892  152.6716 H   0  0  0  0  0  0  0  0  0  0  0  0
  146.9890  134.4929  152.1078 H   0  0  0  0  0  0  0  0  0  0  0  0
  145.7013  133.9865  153.2513 H   0  0  0  0  0  0  0  0  0  0  0  0
  145.1709  132.7044  149.2969 H   0  0  0  0  0  0  0  0  0  0  0  0
  146.7151  133.3985  149.7417 H   0  0  0  0  0  0  0  0  0  0  0  0
  147.1098  131.6355  150.7014 H   0  0  0  0  0  0  0  0  0  0  0  0
  143.9259  132.3869  152.1271 H   0  0  0  0  0  0  0  0  0  0  0  0
  143.1420  133.9435  152.1014 H   0  0  0  0  0  0  0  0  0  0  0  0
  142.3635  133.5606  150.1966 H   0  0  0  0  0  0  0  0  0  0  0  0
  144.0185  135.7120  150.2787 H   0  0  0  0  0  0  0  0  0  0  0  0
  145.7900  135.7187  149.9909 H   0  0  0  0  0  0  0  0  0  0  0  0
  150.5558  140.8837  153.8526 H   0  0  0  0  0  0  0  0  0  0  0  0
  151.1433  142.0458  155.7219 H   0  0  0  0  0  0  0  0  0  0  0  0
  149.4604  142.0923  156.1798 H   0  0  0  0  0  0  0  0  0  0  0  0
  151.4498  140.8498  157.7048 H   0  0  0  0  0  0  0  0  0  0  0  0
  149.7645  140.3074  157.7418 H   0  0  0  0  0  0  0  0  0  0  0  0
  151.4142  138.4577  156.9420 H   0  0  0  0  0  0  0  0  0  0  0  0
  1  2  1  0  0  0  0
  1 27  1  0  0  0  0
  1 28  1  0  0  0  0
  1 29  1  0  0  0  0
  2  3  1  0  0  0  0
  2 30  1  0  0  0  0
  2 31  1  0  0  0  0
  3  4  1  0  0  0  0
  3 21  1  0  0  0  0
  4  9  1  0  0  0  0
  4  5  2  0  0  0  0
  5  6  1  0  0  0  0
  6  7  2  0  0  0  0
  6 32  1  0  0  0  0
  7  8  1  0  0  0  0
  8 12  1  0  0  0  0
  8  9  2  0  0  0  0
  9 10  1  0  0  0  0
 10 11  2  0  0  0  0
 11 12  1  0  0  0  0
 11 33  1  0  0  0  0
 12 13  1  0  0  0  0
 13 20  1  0  0  0  0
 13 14  1  0  0  0  0
 13 34  1  0  0  0  0
 14 15  1  0  0  0  0
 14 35  1  0  0  0  0
 14 36  1  0  0  0  0
 15 16  1  0  0  0  0
 15 18  1  0  0  0  0
 15 20  1  0  0  0  0
 16 17  1  0  0  0  0
 16 37  1  0  0  0  0
 16 38  1  0  0  0  0
 17 39  1  0  0  0  0
 18 19  1  0  0  0  0
 18 40  1  0  0  0  0
 18 41  1  0  0  0  0
 19 42  1  0  0  0  0
 20 43  1  0  0  0  0
 20 44  1  0  0  0  0
 21 25  1  0  0  0  0
 21 22  1  0  0  0  0
 21 45  1  0  0  0  0
 22 23  1  0  0  0  0
 22 46  1  0  0  0  0
 22 47  1  0  0  0  0
 23 24  1  0  0  0  0
 23 48  1  0  0  0  0
 23 49  1  0  0  0  0
 24 25  1  0  0  0  0
 24 50  1  0  0  0  0
 25 26  2  0  0  0  0
M  END
> <s_m_source_file>
AV-unprocessed.smi

> <i_m_source_file_index>
231

> <i_lp_mmshare_version>
43012

> <i_f3d_flags>
0

> <s_epik_input>
Tz1DMVtOSF1bQ0gyXVtDSDJdW0NASF0xTihbQ0gyXVtDSDNdKWMobltjSF1uMiljKGMyMyluW2NIXW4zW0NIXShbQ0gyXTQpW0NIMl1DNChbQ0gyXVtPSF0pW0NIMl1bT0hd

> <s_epik_cmdline>
J2VwaWtfcHl0aG9uJywgJy1waCcsICc3LjAnLCAnLXRuJywgJzgnLCAnLW1hJywgJzIwMCcsICctbWV0YWxfYmluZGluZycsICctaW1hZScsICc8aW5maWxlLm1hZT4nLCAnLW9tYWUnLCAnPG91dGZpbGUubWFlPic=

> <r_lp_tautomer_probability>
1

> <r_epik_Ionization_Penalty>
0.000842899

> <r_epik_Ionization_Penalty_Charging>
0

> <r_epik_Ionization_Penalty_Neutral>
0.000842899

> <r_epik_State_Penalty>
0.000441286

> <r_epik_Charging_Adjusted_Penalty>
0.000441286

> <i_epik_Tot_Q>
0

> <i_epik_Tot_abs_Q>
0

> <r_epik_Metal_State_Penalty>
-0

> <b_epik_Metal_Only>
0

> <s_lp_Force_Field>
OPLS_2005

> <r_lp_Energy>
52.3391

> <b_lp_Chiralities_Consistent>
1

> <s_lp_Variant>
AV-unprocessed.smi:231-2

> <Gold.Version>
5.8.1

> <Gold.Id.Protein>
6NUR|6NUR_protein|mol2

> <Gold.PLP.Fitness>
47.7458

> <Gold.PLP.PLP>
-40.8428

> <Gold.PLP.part.hbond>
-2.0000

> <Gold.PLP.part.metal>
0.0000

> <Gold.PLP.part.buried>
-1.8821

> <Gold.PLP.part.nonpolar>
-37.0407

> <Gold.PLP.part.repulsive>
1.4660

> <Gold.PLP.ligand.clash>
0.0000

> <Gold.PLP.ligand.torsion>
1.4293

> <Gold.PLP.Chemscore.Hbond>
2.0000

> <Gold.PLP.Chemscore.CHOScore>
0.9636

> <Gold.PLP.Chemscore.Metal>
0.0000

> <Gold.Chemscore.Hbonds>
donor molecule, donor type, donor heavy atom, donor atom, acceptor molecule, acceptor atom, score
      L1  H    17    39       P1 10747  0.91
      L1  H    19    42       P1 10186  1.00
      L1  C    11    33       P1 10171  0.99

> <Gold.PLP.Chemscore.Internal.Correction>
0.8709

> <Gold.Rescore>
     Score         DG    S(hbond)    S(metal)    S(lipo)     H(rot)  DE(clash)    DE(int)     intcor
      7.23     -10.81       1.95        0.00      69.29       3.63       0.58       3.00       ----

> <Gold.Chemscore.Fitness>
7.2313

> <Gold.Chemscore.DG>
-10.8067

> <Gold.Chemscore.ZeroCoef>
-5.4800

> <Gold.Chemscore.Hbond>
1.9472

> <Gold.Chemscore.Metal>
0.0000

> <Gold.Chemscore.Lipo>
69.2877

> <Gold.Chemscore.Internal_Hbond>
0.0000

> <Gold.Chemscore.DEClash>
0.5752

> <Gold.Chemscore.DEInternal>
3.0002

> <Gold.Chemscore.Rot>
3.6264

> <Gold.Chemscore.Internal.Correction>
   9.000000E+99

> <Gold.Chemscore.Hbonds>
donor molecule, donor type, donor heavy atom, donor atom, acceptor molecule, acceptor atom, score
      L1  H    17    39       P1 10747  0.88
      L1  H    19    42       P1 10186  1.00

> <Gold.Chemscore.Hbond.Weighted>
-6.5036

> <Gold.Chemscore.Metal.Weighted>
-0.0000

> <Gold.Chemscore.Lipo.Weighted>
-8.1067

> <Gold.Chemscore.Internal_Hbond.Weighted>
0.0000

> <Gold.Chemscore.DEClash.Weighted>
0.5752

> <Gold.Chemscore.DEInternal.Weighted>
3.0002

> <Gold.Chemscore.Rot.Weighted>
9.2835

> <Gold.Chemscore.Internal.Correction.Weighted>
   9.000000E+99

> <Gold.Protein.RotatedTorsions>
[ 6907 6896 6895 6894 ] final -126.45 input  -60.11 | X-H torsion
[ 7974 7965 7964 7962 ] final -159.28 input  175.53 | X-H torsion
[ 8008 7997 7996 7995 ] final   93.82 input   59.86 | X-H torsion
[ 10167 10162 10161 10158 ] final  112.47 input  -65.29 | X-H torsion
[ 10718 10713 10712 10709 ] final   52.80 input   66.30 | X-H torsion
[ 10763 10752 10751 10750 ] final -142.32 input  -60.55 | X-H torsion
[ 11005 11000 10999 10996 ] final  -71.10 input  -57.11 | X-H torsion

> <Gold.Protein.ActiveResidues>
 VAL166  LYS551  ARG553  GLY616  TRP617  ASP618  TYR619  PRO620  LYS621  CYS622 
 ASP623  PHE694  ASN695  SER759  ASP760  ASP761  ALA762  ILE779  LEU786  VAL792 
 PHE793  MET794  SER795  GLU796  ALA797  LYS798  CYS799  TRP800  GLU811  SER814 

> <Gold.Protein.RotatedAtoms>
  150.8970  133.7168  159.2888 H   0  0  0  0  0  0  0  0  0  0  0  0  # atno 6907 bound_to 6896
  151.4699  135.1043  159.9758 H   0  0  0  0  0  0  0  0  0  0  0  0  # atno 6908 bound_to 6896
  152.4854  133.8313  159.7160 H   0  0  0  0  0  0  0  0  0  0  0  0  # atno 6909 bound_to 6896
  144.7471  140.3708  143.6076 H   0  0  0  0  0  0  0  0  0  0  0  0  # atno 7974 bound_to 7965
  156.0510  140.3308  155.7351 H   0  0  0  0  0  0  0  0  0  0  0  0  # atno 8008 bound_to 7997
  155.5601  140.0618  157.2848 H   0  0  0  0  0  0  0  0  0  0  0  0  # atno 8009 bound_to 7997
  154.4436  140.1879  156.0762 H   0  0  0  0  0  0  0  0  0  0  0  0  # atno 8010 bound_to 7997
  139.6533  144.7128  151.2006 H   0  0  0  0  0  0  0  0  0  0  0  0  # atno 10167 bound_to 10162
  157.5108  130.8499  149.8432 H   0  0  0  0  0  0  0  0  0  0  0  0  # atno 10718 bound_to 10713
  154.8513  135.3499  154.6008 H   0  0  0  0  0  0  0  0  0  0  0  0  # atno 10763 bound_to 10752
  153.6617  135.6989  153.5180 H   0  0  0  0  0  0  0  0  0  0  0  0  # atno 10764 bound_to 10752
  153.2812  135.4263  155.1038 H   0  0  0  0  0  0  0  0  0  0  0  0  # atno 10765 bound_to 10752
  141.1586  133.6808  156.6854 H   0  0  0  0  0  0  0  0  0  0  0  0  # atno 11005 bound_to 11000
  145.7080  139.1677  143.2555 LP  0  0  0  0  0  0  0  0  0  0  0  0  # atno 17320 bound_to 7965
  146.1367  140.7112  142.9386 LP  0  0  0  0  0  0  0  0  0  0  0  0  # atno 17321 bound_to 7965
  140.7548  143.6114  150.8602 LP  0  0  0  0  0  0  0  0  0  0  0  0  # atno 17342 bound_to 10162
  139.9764  143.5999  152.2957 LP  0  0  0  0  0  0  0  0  0  0  0  0  # atno 17343 bound_to 10162
  156.0288  130.3771  150.1747 LP  0  0  0  0  0  0  0  0  0  0  0  0  # atno 17370 bound_to 10713
  156.9937  130.9901  151.3408 LP  0  0  0  0  0  0  0  0  0  0  0  0  # atno 17371 bound_to 10713
  140.3071  134.8117  157.4145 LP  0  0  0  0  0  0  0  0  0  0  0  0  # atno 17394 bound_to 11000
  140.1211  134.5218  155.8183 LP  0  0  0  0  0  0  0  0  0  0  0  0  # atno 17395 bound_to 11000

$$$$
