#       Name:                AV-unprocessed.smi:2268
#       Creating user name   scv26
#       Creation time:       Fri Mar 27 12:35:52 2020


#       File generated by GOLD software.
#

@<TRIPOS>MOLECULE
AV-unprocessed.smi:2268
    42    43     1
SMALL
NO_CHARGES


@<TRIPOS>ATOM
      1 ****        -2.0409  -2.7325   0.0424 C.3            1 S1                 0.0000
      2 ****        -1.9776  -2.2914   1.4949 C.ar           1 S1                 0.0000
      3 ****        -2.4334  -3.1824   2.4906 C.ar           1 S1                 0.0000
      4 ****        -2.3809  -2.8250   3.8502 C.ar           1 S1                 0.0000
      5 ****        -2.8194  -3.6890   4.7960 F              1 S1                 0.0000
      6 ****        -1.8679  -1.5712   4.2252 C.ar           1 S1                 0.0000
      7 ****        -1.4131  -0.6759   3.2397 C.ar           1 S1                 0.0000
      8 ****        -1.4696  -1.0182   1.8683 C.ar           1 S1                 0.0000
      9 ****        -0.9578  -0.0211   0.8288 C.3            1 S1                 0.0000
     10 ****        -1.3318   1.3041   1.1532 O.3            1 S1                 0.0000
     11 ****         0.5823  -0.0925   0.7161 C.3            1 S1                 0.0000
     12 ****         1.0842   0.5023  -0.5353 N.am           1 S1                 0.0000
     13 ****         1.0766  -0.3297  -1.6675 C.2            1 S1                 0.0000
     14 ****         1.4869   0.0864  -2.8204 N.2            1 S1                 0.0000
     15 ****         1.9544   1.3959  -2.9623 C.2            1 S1                 0.0000
     16 ****         2.4124   1.7813  -4.3578 C.3            1 S1                 0.0000
     17 ****         1.9890   2.2525  -1.9053 C.2            1 S1                 0.0000
     18 ****         2.4892   3.6886  -2.0002 C.3            1 S1                 0.0000
     19 ****         1.5254   1.7924  -0.5860 C.2            1 S1                 0.0000
     20 ****         1.5316   2.5158   0.4116 O.2            1 S1                 0.0000
     21 ****        -2.3429  -3.7768  -0.0431 H              1 S1                 0.0000
     22 ****        -1.0656  -2.6319  -0.4334 H              1 S1                 0.0000
     23 ****        -2.7635  -2.1305  -0.5089 H              1 S1                 0.0000
     24 ****        -2.8245  -4.1512   2.2156 H              1 S1                 0.0000
     25 ****        -1.8210  -1.2956   5.2685 H              1 S1                 0.0000
     26 ****        -1.0151   0.2803   3.5464 H              1 S1                 0.0000
     27 ****        -1.4135  -0.2339  -0.1371 H              1 S1                 0.0000
     28 ****        -2.2752   1.3593   1.1487 H              1 S1                 0.0000
     29 ****         1.0515   0.3484   1.5978 H              1 S1                 0.0000
     30 ****         0.8925  -1.1392   0.7465 H              1 S1                 0.0000
     31 ****         0.7000  -1.3408  -1.5039 H              1 S1                 0.0000
     32 ****         1.8248   2.6188  -4.7347 H              1 S1                 0.0000
     33 ****         2.2980   0.9521  -5.0572 H              1 S1                 0.0000
     34 ****         3.4642   2.0681  -4.3485 H              1 S1                 0.0000
     35 ****         3.3372   3.8357  -1.3305 H              1 S1                 0.0000
     36 ****         1.7011   4.3819  -1.7052 H              1 S1                 0.0000
     37 ****         2.8121   3.9664  -3.0021 H              1 S1                 0.0000
     38 ****        -0.9537   1.9363   0.4769 LP             1 S1                 0.0000
     39 ****        -0.9845   1.5399   2.0608 LP             1 S1                 0.0000
     40 ****         1.4699  -0.5276  -3.6096 LP             1 S1                 0.0000
     41 ****         1.2074   2.1610   1.2885 LP             1 S1                 0.0000
     42 ****         1.8608   3.4576   0.3442 LP             1 S1                 0.0000
@<TRIPOS>BOND
    1    1    2 1     
    2    1   21 1     
    3    1   22 1     
    4    1   23 1     
    5    2    8 ar    
    6    2    3 ar    
    7    3    4 ar    
    8    3   24 1     
    9    4    5 1     
   10    4    6 ar    
   11    6    7 ar    
   12    6   25 1     
   13    7    8 ar    
   14    7   26 1     
   15    8    9 1     
   16    9   10 1     
   17    9   11 1     
   18    9   27 1     
   19   10   28 1     
   20   11   12 1     
   21   11   29 1     
   22   11   30 1     
   23   12   19 am    
   24   12   13 1     
   25   13   14 2     
   26   13   31 1     
   27   14   15 1     
   28   15   16 1     
   29   15   17 2     
   30   16   32 1     
   31   16   33 1     
   32   16   34 1     
   33   17   18 1     
   34   17   19 1     
   35   18   35 1     
   36   18   36 1     
   37   18   37 1     
   38   19   20 2     
   39   10   38 1     
   40   10   39 1     
   41   14   40 1     
   42   20   41 1     
   43   20   42 1     
@<TRIPOS>SUBSTRUCTURE
      1 S1             1
@<TRIPOS>SET
LONE_PAIRS      STATIC     ATOMS    <user>   **** ""
5 38 39 40 41 42
DONOR_HYDROGENS      STATIC     ATOMS    <user>   **** ""
1 28
ATOM$BLUE        STATIC     ATOMS    COLORGROUP SYSTEM
5 38 39 40 41 42
ATOM$RED        STATIC     ATOMS    COLORGROUP SYSTEM
1 28
