AV-unprocessed.smi:2824|AV-procd|sdf|10887|dock7
  -GOLD-   2272015333D 1   1.00000     0.00000
 Structure written by MMmdl.
 38 39  0  0  0  0  0  0  0  0  1 V2000
  153.0857  141.3251  160.3003 C   0  0  0  0  0  0  0  0  0  0  0  0
  152.4269  142.5927  159.7888 C   0  0  0  0  0  0  0  0  0  0  0  0
  152.3489  143.7244  160.6276 C   0  0  0  0  0  0  0  0  0  0  0  0
  151.7424  144.9073  160.1681 C   0  0  0  0  0  0  0  0  0  0  0  0
  151.2128  144.9618  158.8666 C   0  0  0  0  0  0  0  0  0  0  0  0
  151.2884  143.8353  158.0252 C   0  0  0  0  0  0  0  0  0  0  0  0
  151.8968  142.6364  158.4778 C   0  0  0  0  0  0  0  0  0  0  0  0
  152.0074  141.4957  157.7092 O   0  0  0  0  0  0  0  0  0  0  0  0
  151.0754  141.2929  156.6555 C   0  0  0  0  0  0  0  0  0  0  0  0
  151.3672  139.9371  155.9907 C   0  0  1  0  0  0  0  0  0  0  0  0
  152.5896  140.0670  155.2904 O   0  0  0  0  0  0  0  0  0  0  0  0
  151.5347  138.8104  157.0342 C   0  0  0  0  0  0  0  0  0  0  0  0
  150.8974  137.5600  156.6036 N   0  0  0  0  0  0  0  0  0  0  0  0
  149.9574  137.0725  157.4947 N   0  0  0  0  0  0  0  0  0  0  0  0
  149.3184  135.9712  157.2634 C   0  0  0  0  0  0  0  0  0  0  0  0
  148.3197  135.5171  158.2991 C   0  0  0  0  0  0  0  0  0  0  0  0
  147.0861  135.4830  157.7946 F   0  0  0  0  0  0  0  0  0  0  0  0
  148.6336  134.2960  158.7329 F   0  0  0  0  0  0  0  0  0  0  0  0
  148.3286  136.3502  159.3403 F   0  0  0  0  0  0  0  0  0  0  0  0
  149.5924  135.2405  156.0370 C   0  0  0  0  0  0  0  0  0  0  0  0
  150.5088  135.7191  155.1685 C   0  0  0  0  0  0  0  0  0  0  0  0
  151.2387  136.9578  155.4269 C   0  0  0  0  0  0  0  0  0  0  0  0
  152.0852  137.4154  154.6597 O   0  0  0  0  0  0  0  0  0  0  0  0
  153.4015  141.4294  161.3385 H   0  0  0  0  0  0  0  0  0  0  0  0
  153.9644  141.0875  159.7002 H   0  0  0  0  0  0  0  0  0  0  0  0
  152.3921  140.4860  160.2408 H   0  0  0  0  0  0  0  0  0  0  0  0
  152.7546  143.6903  161.6281 H   0  0  0  0  0  0  0  0  0  0  0  0
  151.6846  145.7718  160.8130 H   0  0  0  0  0  0  0  0  0  0  0  0
  150.7478  145.8695  158.5111 H   0  0  0  0  0  0  0  0  0  0  0  0
  150.8714  143.9187  157.0335 H   0  0  0  0  0  0  0  0  0  0  0  0
  150.0445  141.3377  157.0121 H   0  0  0  0  0  0  0  0  0  0  0  0
  151.2112  142.0918  155.9247 H   0  0  0  0  0  0  0  0  0  0  0  0
  150.5635  139.6944  155.2942 H   0  0  0  0  0  0  0  0  0  0  0  0
  152.4017  140.1361  154.3669 H   0  0  0  0  0  0  0  0  0  0  0  0
  152.5910  138.6522  157.2612 H   0  0  0  0  0  0  0  0  0  0  0  0
  151.0895  139.1145  157.9833 H   0  0  0  0  0  0  0  0  0  0  0  0
  149.0654  134.3221  155.8255 H   0  0  0  0  0  0  0  0  0  0  0  0
  150.7091  135.1730  154.2584 H   0  0  0  0  0  0  0  0  0  0  0  0
  1  2  1  0  0  0  0
  1 24  1  0  0  0  0
  1 25  1  0  0  0  0
  1 26  1  0  0  0  0
  2  7  1  0  0  0  0
  2  3  2  0  0  0  0
  3  4  1  0  0  0  0
  3 27  1  0  0  0  0
  4  5  2  0  0  0  0
  4 28  1  0  0  0  0
  5  6  1  0  0  0  0
  5 29  1  0  0  0  0
  6  7  2  0  0  0  0
  6 30  1  0  0  0  0
  7  8  1  0  0  0  0
  8  9  1  0  0  0  0
  9 10  1  0  0  0  0
  9 31  1  0  0  0  0
  9 32  1  0  0  0  0
 10 11  1  0  0  0  0
 10 12  1  0  0  0  0
 10 33  1  0  0  0  0
 11 34  1  0  0  0  0
 12 13  1  0  0  0  0
 12 35  1  0  0  0  0
 12 36  1  0  0  0  0
 13 22  1  0  0  0  0
 13 14  1  0  0  0  0
 14 15  2  0  0  0  0
 15 16  1  0  0  0  0
 15 20  1  0  0  0  0
 16 17  1  0  0  0  0
 16 18  1  0  0  0  0
 16 19  1  0  0  0  0
 20 21  2  0  0  0  0
 20 37  1  0  0  0  0
 21 22  1  0  0  0  0
 21 38  1  0  0  0  0
 22 23  2  0  0  0  0
M  END
> <s_m_source_file>
AV-unprocessed.smi

> <i_m_source_file_index>
2824

> <i_lp_mmshare_version>
43012

> <i_f3d_flags>
0

> <s_epik_input>
W0NIM11jMVtjSF1bY0hdW2NIXVtjSF1jMU9bQ0gyXVtDQEhdKFtPSF0pW0NIMl1uMm5jKEMoRikoRilGKVtjSF1bY0hdYzI9Tw==

> <s_epik_cmdline>
J2VwaWtfcHl0aG9uJywgJy1waCcsICc3LjAnLCAnLXRuJywgJzgnLCAnLW1hJywgJzIwMCcsICctbWV0YWxfYmluZGluZycsICctaW1hZScsICc8aW5maWxlLm1hZT4nLCAnLW9tYWUnLCAnPG91dGZpbGUubWFlPic=

> <r_lp_tautomer_probability>
1

> <r_epik_Ionization_Penalty>
1.2156e-07

> <r_epik_Ionization_Penalty_Charging>
4.38548e-09

> <r_epik_Ionization_Penalty_Neutral>
1.17174e-07

> <r_epik_State_Penalty>
-0

> <r_epik_Charging_Adjusted_Penalty>
4.38548e-09

> <i_epik_Tot_Q>
0

> <i_epik_Tot_abs_Q>
0

> <r_epik_Metal_State_Penalty>
-0

> <b_epik_Metal_Only>
0

> <s_lp_Force_Field>
OPLS_2005

> <r_lp_Energy>
34.0789

> <b_lp_Chiralities_Consistent>
1

> <s_lp_Variant>
AV-unprocessed.smi:2824-2

> <Gold.Version>
5.8.1

> <Gold.Id.Protein>
6NUR|6NUR_protein|mol2

> <Gold.PLP.Fitness>
44.7916

> <Gold.PLP.PLP>
-40.8381

> <Gold.PLP.part.hbond>
-3.0000

> <Gold.PLP.part.metal>
0.0000

> <Gold.PLP.part.buried>
-4.4914

> <Gold.PLP.part.nonpolar>
-33.5619

> <Gold.PLP.part.repulsive>
0.1056

> <Gold.PLP.ligand.clash>
0.0000

> <Gold.PLP.ligand.torsion>
1.0286

> <Gold.PLP.Chemscore.Hbond>
1.9920

> <Gold.PLP.Chemscore.CHOScore>
0.0000

> <Gold.PLP.Chemscore.Metal>
0.0000

> <Gold.Chemscore.Hbonds>
donor molecule, donor type, donor heavy atom, donor atom, acceptor molecule, acceptor atom, score
      P1  H  7997  8010       L1    11  1.00
      P1  H 10752 10765       L1    23  0.45

> <Gold.PLP.Chemscore.Internal.Correction>
0.0348

> <Gold.Rescore>
     Score         DG    S(hbond)    S(metal)    S(lipo)     H(rot)  DE(clash)    DE(int)     intcor
     15.32     -17.75       1.92        0.00     106.80       2.60       0.08       2.36       ----

> <Gold.Chemscore.Fitness>
15.3152

> <Gold.Chemscore.DG>
-17.7527

> <Gold.Chemscore.ZeroCoef>
-5.4800

> <Gold.Chemscore.Hbond>
1.9243

> <Gold.Chemscore.Metal>
0.0000

> <Gold.Chemscore.Lipo>
106.8042

> <Gold.Chemscore.Internal_Hbond>
0.0000

> <Gold.Chemscore.DEClash>
0.0823

> <Gold.Chemscore.DEInternal>
2.3552

> <Gold.Chemscore.Rot>
2.5978

> <Gold.Chemscore.Internal.Correction>
   9.000000E+99

> <Gold.Chemscore.Hbonds>
donor molecule, donor type, donor heavy atom, donor atom, acceptor molecule, acceptor atom, score
      P1  H  7997  8010       L1    11  0.98
      P1  H 10752 10765       L1    23  0.02

> <Gold.Chemscore.Hbond.Weighted>
-6.4270

> <Gold.Chemscore.Metal.Weighted>
-0.0000

> <Gold.Chemscore.Lipo.Weighted>
-12.4961

> <Gold.Chemscore.Internal_Hbond.Weighted>
0.0000

> <Gold.Chemscore.DEClash.Weighted>
0.0823

> <Gold.Chemscore.DEInternal.Weighted>
2.3552

> <Gold.Chemscore.Rot.Weighted>
6.6504

> <Gold.Chemscore.Internal.Correction.Weighted>
   9.000000E+99

> <Gold.Protein.RotatedTorsions>
[ 6907 6896 6895 6894 ] final  162.88 input  -60.11 | X-H torsion
[ 7974 7965 7964 7962 ] final  105.69 input  175.53 | X-H torsion
[ 8008 7997 7996 7995 ] final   96.13 input   59.86 | X-H torsion
[ 10167 10162 10161 10158 ] final  -75.20 input  -65.29 | X-H torsion
[ 10718 10713 10712 10709 ] final  -77.58 input   66.30 | X-H torsion
[ 10763 10752 10751 10750 ] final  173.86 input  -60.55 | X-H torsion
[ 11005 11000 10999 10996 ] final  142.69 input  -57.11 | X-H torsion

> <Gold.Protein.ActiveResidues>
 VAL166  LYS551  ARG553  GLY616  TRP617  ASP618  TYR619  PRO620  LYS621  CYS622 
 ASP623  PHE694  ASN695  SER759  ASP760  ASP761  ALA762  ILE779  LEU786  VAL792 
 PHE793  MET794  SER795  GLU796  ALA797  LYS798  CYS799  TRP800  GLU811  SER814 

> <Gold.Protein.RotatedAtoms>
  151.9337  133.3618  159.3939 H   0  0  0  0  0  0  0  0  0  0  0  0  # atno 6907 bound_to 6896
  150.7012  134.4511  159.5346 H   0  0  0  0  0  0  0  0  0  0  0  0  # atno 6908 bound_to 6896
  152.2156  134.8461  160.0543 H   0  0  0  0  0  0  0  0  0  0  0  0  # atno 6909 bound_to 6896
  145.3164  139.2525  143.3735 H   0  0  0  0  0  0  0  0  0  0  0  0  # atno 7974 bound_to 7965
  156.0763  140.3277  155.7638 H   0  0  0  0  0  0  0  0  0  0  0  0  # atno 8008 bound_to 7997
  155.5224  140.0586  157.2921 H   0  0  0  0  0  0  0  0  0  0  0  0  # atno 8009 bound_to 7997
  154.4557  140.1941  156.0403 H   0  0  0  0  0  0  0  0  0  0  0  0  # atno 8010 bound_to 7997
  140.4963  143.2370  151.7826 H   0  0  0  0  0  0  0  0  0  0  0  0  # atno 10167 bound_to 10162
  156.0141  130.4495  150.3367 H   0  0  0  0  0  0  0  0  0  0  0  0  # atno 10718 bound_to 10713
  154.4460  135.2763  155.1815 H   0  0  0  0  0  0  0  0  0  0  0  0  # atno 10763 bound_to 10752
  154.3661  135.6119  153.5719 H   0  0  0  0  0  0  0  0  0  0  0  0  # atno 10764 bound_to 10752
  152.9844  135.5846  154.4796 H   0  0  0  0  0  0  0  0  0  0  0  0  # atno 10765 bound_to 10752
  140.0496  134.9262  157.0993 H   0  0  0  0  0  0  0  0  0  0  0  0  # atno 11005 bound_to 11000
  146.3099  140.3712  142.8674 LP  0  0  0  0  0  0  0  0  0  0  0  0  # atno 17320 bound_to 7965
  144.8974  140.7600  143.5888 LP  0  0  0  0  0  0  0  0  0  0  0  0  # atno 17321 bound_to 7965
  139.4862  144.4583  151.9572 LP  0  0  0  0  0  0  0  0  0  0  0  0  # atno 17342 bound_to 10162
  140.3671  144.2902  150.5925 LP  0  0  0  0  0  0  0  0  0  0  0  0  # atno 17343 bound_to 10162
  157.1464  131.0309  151.2905 LP  0  0  0  0  0  0  0  0  0  0  0  0  # atno 17370 bound_to 10713
  157.4429  130.7554  149.7085 LP  0  0  0  0  0  0  0  0  0  0  0  0  # atno 17371 bound_to 10713
  140.3938  134.2155  155.7165 LP  0  0  0  0  0  0  0  0  0  0  0  0  # atno 17394 bound_to 11000
  141.1924  133.8174  157.0842 LP  0  0  0  0  0  0  0  0  0  0  0  0  # atno 17395 bound_to 11000

$$$$
