AV-unprocessed.smi:2605|AV-procd|sdf|10194|dock8
  -GOLD-   2272014203D 1   1.00000     0.00000
 Structure written by MMmdl.
 26 27  0  0  0  0  0  0  0  0  2 V2000
  153.0839  139.4042  159.3579 C   0  0  0  0  0  0  0  0  0  0  0  0
  152.5839  140.6664  158.9793 C   0  0  0  0  0  0  0  0  0  0  0  0
  153.1648  141.8199  159.5462 C   0  0  0  0  0  0  0  0  0  0  0  0
  152.6507  143.2009  159.1720 C   0  0  1  0  0  0  0  0  0  0  0  0
  151.4870  143.1104  158.1587 C   0  0  0  0  0  0  0  0  0  0  0  0
  151.0273  144.4612  157.7757 N   0  3  0  0  0  0  0  0  0  0  0  0
  150.6578  145.2547  158.9645 C   0  0  0  0  0  0  0  0  0  0  0  0
  151.8398  145.3089  159.9493 C   0  0  0  0  0  0  0  0  0  0  0  0
  152.2126  143.9549  160.3467 N   0  0  0  0  0  0  0  0  0  0  0  0
  154.2174  141.6543  160.4727 C   0  0  0  0  0  0  0  0  0  0  0  0
  154.6429  140.3472  160.7829 C   0  0  0  0  0  0  0  0  0  0  0  0
  154.0920  139.2404  160.2408 N   0  0  0  0  0  0  0  0  0  0  0  0
  152.6619  138.5020  158.9403 H   0  0  0  0  0  0  0  0  0  0  0  0
  151.7740  140.7408  158.2684 H   0  0  0  0  0  0  0  0  0  0  0  0
  153.4790  143.7455  158.7154 H   0  0  0  0  0  0  0  0  0  0  0  0
  151.8058  142.5827  157.2593 H   0  0  0  0  0  0  0  0  0  0  0  0
  150.6492  142.5500  158.5772 H   0  0  0  0  0  0  0  0  0  0  0  0
  151.7769  144.9339  157.2913 H   0  0  0  0  0  0  0  0  0  0  0  0
  150.3794  146.2606  158.6494 H   0  0  0  0  0  0  0  0  0  0  0  0
  149.7809  144.8131  159.4405 H   0  0  0  0  0  0  0  0  0  0  0  0
  152.6964  145.8172  159.5042 H   0  0  0  0  0  0  0  0  0  0  0  0
  151.5599  145.8732  160.8392 H   0  0  0  0  0  0  0  0  0  0  0  0
  152.9614  143.9881  161.0248 H   0  0  0  0  0  0  0  0  0  0  0  0
  154.6918  142.5063  160.9372 H   0  0  0  0  0  0  0  0  0  0  0  0
  155.4467  140.1871  161.4861 H   0  0  0  0  0  0  0  0  0  0  0  0
  150.2304  144.3841  157.1601 H   0  0  0  0  0  0  0  0  0  0  0  0
  1 12  1  0  0  0  0
  1  2  2  0  0  0  0
  1 13  1  0  0  0  0
  2  3  1  0  0  0  0
  2 14  1  0  0  0  0
  3  4  1  0  0  0  0
  3 10  2  0  0  0  0
  4  9  1  0  0  0  0
  4  5  1  0  0  0  0
  4 15  1  0  0  0  0
  5  6  1  0  0  0  0
  5 16  1  0  0  0  0
  5 17  1  0  0  0  0
  6  7  1  0  0  0  0
  6 18  1  0  0  0  0
  6 26  1  0  0  0  0
  7  8  1  0  0  0  0
  7 19  1  0  0  0  0
  7 20  1  0  0  0  0
  8  9  1  0  0  0  0
  8 21  1  0  0  0  0
  8 22  1  0  0  0  0
  9 23  1  0  0  0  0
 10 11  1  0  0  0  0
 10 24  1  0  0  0  0
 11 12  2  0  0  0  0
 11 25  1  0  0  0  0
M  CHG  1   6   1
M  END
> <s_m_source_file>
AV-unprocessed.smi

> <i_m_source_file_index>
2605

> <i_lp_mmshare_version>
43012

> <i_f3d_flags>
0

> <s_epik_input>
W2NIXTFbY0hdbltjSF1bY0hdYzFbQ0BASF0yW0NIMl1bTkhdW0NIMl1bQ0gyXVtOSF0y

> <s_epik_cmdline>
J2VwaWtfcHl0aG9uJywgJy1waCcsICc3LjAnLCAnLXRuJywgJzgnLCAnLW1hJywgJzIwMCcsICctbWV0YWxfYmluZGluZycsICctaW1hZScsICc8aW5maWxlLm1hZT4nLCAnLW9tYWUnLCAnPG91dGZpbGUubWFlPic=

> <r_epik_Ionization_Penalty>
0.0197506

> <r_epik_Ionization_Penalty_Charging>
0.010317

> <r_epik_Ionization_Penalty_Neutral>
0.00943359

> <r_epik_State_Penalty>
0.319455

> <r_epik_Charging_Adjusted_Penalty>
0.329772

> <i_epik_Tot_Q>
1

> <i_epik_Tot_abs_Q>
1

> <r_epik_Metal_State_Penalty>
0.318246

> <b_epik_Metal_Only>
0

> <s_lp_Force_Field>
OPLS_2005

> <r_lp_Energy>
9.79217

> <b_lp_Chiralities_Consistent>
1

> <s_lp_Variant>
AV-unprocessed.smi:2605-2

> <Gold.Version>
5.8.1

> <Gold.Id.Protein>
6NUR|6NUR_protein|mol2

> <Gold.PLP.Fitness>
35.3472

> <Gold.PLP.PLP>
-29.3609

> <Gold.PLP.part.hbond>
-1.0000

> <Gold.PLP.part.metal>
0.0000

> <Gold.PLP.part.buried>
-4.4199

> <Gold.PLP.part.nonpolar>
-24.2046

> <Gold.PLP.part.repulsive>
0.0616

> <Gold.PLP.ligand.clash>
0.0000

> <Gold.PLP.ligand.torsion>
0.0105

> <Gold.PLP.Chemscore.Hbond>
2.0000

> <Gold.PLP.Chemscore.CHOScore>
0.0000

> <Gold.PLP.Chemscore.Metal>
0.0000

> <Gold.Chemscore.Hbonds>
donor molecule, donor type, donor heavy atom, donor atom, acceptor molecule, acceptor atom, score
      L1  H     6    26       P1  8028  2.00

> <Gold.PLP.Chemscore.Internal.Correction>
0.0074

> <Gold.Rescore>
     Score         DG    S(hbond)    S(metal)    S(lipo)     H(rot)  DE(clash)    DE(int)     intcor
     16.32     -16.55       0.95        0.00      89.28       1.00       0.22       0.00       ----

> <Gold.Chemscore.Fitness>
16.3225

> <Gold.Chemscore.DG>
-16.5475

> <Gold.Chemscore.ZeroCoef>
-5.4800

> <Gold.Chemscore.Hbond>
0.9525

> <Gold.Chemscore.Metal>
0.0000

> <Gold.Chemscore.Lipo>
89.2820

> <Gold.Chemscore.Internal_Hbond>
0.0000

> <Gold.Chemscore.DEClash>
0.2213

> <Gold.Chemscore.DEInternal>
0.0037

> <Gold.Chemscore.Rot>
1.0000

> <Gold.Chemscore.Internal.Correction>
   9.000000E+99

> <Gold.Chemscore.Hbonds>
donor molecule, donor type, donor heavy atom, donor atom, acceptor molecule, acceptor atom, score
      L1  H     6    26       P1  8028  0.67

> <Gold.Chemscore.Hbond.Weighted>
-3.1815

> <Gold.Chemscore.Metal.Weighted>
-0.0000

> <Gold.Chemscore.Lipo.Weighted>
-10.4460

> <Gold.Chemscore.Internal_Hbond.Weighted>
0.0000

> <Gold.Chemscore.DEClash.Weighted>
0.2213

> <Gold.Chemscore.DEInternal.Weighted>
0.0037

> <Gold.Chemscore.Rot.Weighted>
2.5600

> <Gold.Chemscore.Internal.Correction.Weighted>
   9.000000E+99

> <Gold.Protein.RotatedTorsions>
[ 6907 6896 6895 6894 ] final   55.96 input  -60.11 | X-H torsion
[ 7974 7965 7964 7962 ] final  159.74 input  175.53 | X-H torsion
[ 8008 7997 7996 7995 ] final   45.56 input   59.86 | X-H torsion
[ 10167 10162 10161 10158 ] final  173.84 input  -65.29 | X-H torsion
[ 10718 10713 10712 10709 ] final  -61.33 input   66.30 | X-H torsion
[ 10763 10752 10751 10750 ] final  151.71 input  -60.55 | X-H torsion
[ 11005 11000 10999 10996 ] final   37.40 input  -57.11 | X-H torsion

> <Gold.Protein.ActiveResidues>
 VAL166  LYS551  ARG553  GLY616  TRP617  ASP618  TYR619  PRO620  LYS621  CYS622 
 ASP623  PHE694  ASN695  SER759  ASP760  ASP761  ALA762  ILE779  LEU786  VAL792 
 PHE793  MET794  SER795  GLU796  ALA797  LYS798  CYS799  TRP800  GLU811  SER814 

> <Gold.Protein.RotatedAtoms>
  152.3590  134.6899  160.0212 H   0  0  0  0  0  0  0  0  0  0  0  0  # atno 6907 bound_to 6896
  151.7229  133.3309  159.3328 H   0  0  0  0  0  0  0  0  0  0  0  0  # atno 6908 bound_to 6896
  150.7591  134.6366  159.6259 H   0  0  0  0  0  0  0  0  0  0  0  0  # atno 6909 bound_to 6896
  144.7774  139.7659  143.6273 H   0  0  0  0  0  0  0  0  0  0  0  0  # atno 7974 bound_to 7965
  155.3379  140.3406  155.4239 H   0  0  0  0  0  0  0  0  0  0  0  0  # atno 8008 bound_to 7997
  156.1828  140.1670  156.8278 H   0  0  0  0  0  0  0  0  0  0  0  0  # atno 8009 bound_to 7997
  154.5353  140.0736  156.8399 H   0  0  0  0  0  0  0  0  0  0  0  0  # atno 8010 bound_to 7997
  139.5121  144.3215  152.0198 H   0  0  0  0  0  0  0  0  0  0  0  0  # atno 10167 bound_to 10162
  156.0929  130.4197  150.0978 H   0  0  0  0  0  0  0  0  0  0  0  0  # atno 10718 bound_to 10713
  154.1082  135.2841  155.3236 H   0  0  0  0  0  0  0  0  0  0  0  0  # atno 10763 bound_to 10752
  154.6508  135.5369  153.7902 H   0  0  0  0  0  0  0  0  0  0  0  0  # atno 10764 bound_to 10752
  153.0354  135.6509  154.1242 H   0  0  0  0  0  0  0  0  0  0  0  0  # atno 10765 bound_to 10752
  140.2230  134.3619  155.7997 H   0  0  0  0  0  0  0  0  0  0  0  0  # atno 11005 bound_to 11000
  146.1962  139.5230  142.9773 LP  0  0  0  0  0  0  0  0  0  0  0  0  # atno 17320 bound_to 7965
  145.6147  141.0333  143.1947 LP  0  0  0  0  0  0  0  0  0  0  0  0  # atno 17321 bound_to 7965
  140.2657  144.4019  150.6169 LP  0  0  0  0  0  0  0  0  0  0  0  0  # atno 17342 bound_to 10162
  140.6125  143.2170  151.6858 LP  0  0  0  0  0  0  0  0  0  0  0  0  # atno 17343 bound_to 10162
  156.8984  130.9612  151.3579 LP  0  0  0  0  0  0  0  0  0  0  0  0  # atno 17370 bound_to 10713
  157.6083  130.8564  149.8911 LP  0  0  0  0  0  0  0  0  0  0  0  0  # atno 17371 bound_to 10713
  141.2222  133.7203  156.8606 LP  0  0  0  0  0  0  0  0  0  0  0  0  # atno 17394 bound_to 11000
  140.1830  134.9020  157.2971 LP  0  0  0  0  0  0  0  0  0  0  0  0  # atno 17395 bound_to 11000

$$$$
