AV-unprocessed.smi:2478|AV-procd|sdf|9764|dock1
  -GOLD-   2272013403D 1   1.00000     0.00000
 Structure written by MMmdl.
 42 43  0  0  0  0  0  0  0  0  1 V2000
  144.8607  137.2473  160.4595 C   0  0  0  0  0  0  0  0  0  0  0  0
  145.6170  136.5604  161.6073 C   0  0  1  0  0  0  0  0  0  0  0  0
  145.3756  135.0372  161.6239 C   0  0  0  0  0  0  0  0  0  0  0  0
  146.1062  134.3623  162.7960 C   0  0  0  0  0  0  0  0  0  0  0  0
  147.6079  134.6845  162.7783 C   0  0  0  0  0  0  0  0  0  0  0  0
  147.8506  136.2026  162.7638 C   0  0  0  0  0  0  0  0  0  0  0  0
  147.1278  136.8841  161.5819 C   0  0  1  0  0  0  0  0  0  0  0  0
  147.6640  136.4312  160.3435 O   0  0  0  0  0  0  0  0  0  0  0  0
  149.0124  136.8107  160.1072 C   0  0  0  0  0  0  0  0  0  0  0  0
  149.3813  136.4799  158.6612 C   0  0  0  0  0  0  0  0  0  0  0  0
  149.3518  135.3120  158.2708 O   0  0  0  0  0  0  0  0  0  0  0  0
  149.7288  137.5344  157.9008 N   0  0  0  0  0  0  0  0  0  0  0  0
  150.1316  137.5506  156.5371 C   0  0  0  0  0  0  0  0  0  0  0  0
  149.6921  136.6476  155.6252 N   0  0  0  0  0  0  0  0  0  0  0  0
  150.1216  136.7314  154.3499 C   0  0  0  0  0  0  0  0  0  0  0  0
  151.0132  137.7220  153.9048 C   0  0  0  0  0  0  0  0  0  0  0  0
  151.4767  138.6647  154.8384 C   0  0  0  0  0  0  0  0  0  0  0  0
  151.0407  138.5798  156.1829 C   0  0  0  0  0  0  0  0  0  0  0  0
  151.4422  139.4804  157.1466 O   0  0  0  0  0  0  0  0  0  0  0  0
  151.2964  140.8122  156.9141 C   0  0  0  0  0  0  0  0  0  0  0  0
  149.9982  141.1092  156.6599 F   0  0  0  0  0  0  0  0  0  0  0  0
  151.6694  141.5114  158.0131 F   0  0  0  0  0  0  0  0  0  0  0  0
  145.1837  136.8728  159.4877 H   0  0  0  0  0  0  0  0  0  0  0  0
  145.0231  138.3253  160.4715 H   0  0  0  0  0  0  0  0  0  0  0  0
  143.7872  137.0752  160.5398 H   0  0  0  0  0  0  0  0  0  0  0  0
  145.2136  136.9646  162.5370 H   0  0  0  0  0  0  0  0  0  0  0  0
  144.3074  134.8296  161.6939 H   0  0  0  0  0  0  0  0  0  0  0  0
  145.7123  134.5981  160.6838 H   0  0  0  0  0  0  0  0  0  0  0  0
  145.6724  134.6981  163.7388 H   0  0  0  0  0  0  0  0  0  0  0  0
  145.9577  133.2829  162.7543 H   0  0  0  0  0  0  0  0  0  0  0  0
  148.0932  134.2388  163.6470 H   0  0  0  0  0  0  0  0  0  0  0  0
  148.0699  134.2307  161.9004 H   0  0  0  0  0  0  0  0  0  0  0  0
  147.4874  136.6309  163.6988 H   0  0  0  0  0  0  0  0  0  0  0  0
  148.9204  136.4069  162.7391 H   0  0  0  0  0  0  0  0  0  0  0  0
  147.2479  137.9663  161.6595 H   0  0  0  0  0  0  0  0  0  0  0  0
  149.1350  137.8805  160.2856 H   0  0  0  0  0  0  0  0  0  0  0  0
  149.6960  136.2793  160.7689 H   0  0  0  0  0  0  0  0  0  0  0  0
  149.7024  138.4371  158.3524 H   0  0  0  0  0  0  0  0  0  0  0  0
  149.7402  135.9891  153.6648 H   0  0  0  0  0  0  0  0  0  0  0  0
  151.3301  137.7596  152.8731 H   0  0  0  0  0  0  0  0  0  0  0  0
  152.1530  139.4418  154.5149 H   0  0  0  0  0  0  0  0  0  0  0  0
  151.9149  141.1464  156.0806 H   0  0  0  0  0  0  0  0  0  0  0  0
  1  2  1  0  0  0  0
  1 23  1  0  0  0  0
  1 24  1  0  0  0  0
  1 25  1  0  0  0  0
  2  7  1  0  0  0  0
  2  3  1  0  0  0  0
  2 26  1  0  0  0  0
  3  4  1  0  0  0  0
  3 27  1  0  0  0  0
  3 28  1  0  0  0  0
  4  5  1  0  0  0  0
  4 29  1  0  0  0  0
  4 30  1  0  0  0  0
  5  6  1  0  0  0  0
  5 31  1  0  0  0  0
  5 32  1  0  0  0  0
  6  7  1  0  0  0  0
  6 33  1  0  0  0  0
  6 34  1  0  0  0  0
  7  8  1  0  0  0  0
  7 35  1  0  0  0  0
  8  9  1  0  0  0  0
  9 10  1  0  0  0  0
  9 36  1  0  0  0  0
  9 37  1  0  0  0  0
 10 11  2  0  0  0  0
 10 12  1  0  0  0  0
 12 13  1  0  0  0  0
 12 38  1  0  0  0  0
 13 18  1  0  0  0  0
 13 14  2  0  0  0  0
 14 15  1  0  0  0  0
 15 16  2  0  0  0  0
 15 39  1  0  0  0  0
 16 17  1  0  0  0  0
 16 40  1  0  0  0  0
 17 18  2  0  0  0  0
 17 41  1  0  0  0  0
 18 19  1  0  0  0  0
 19 20  1  0  0  0  0
 20 21  1  0  0  0  0
 20 22  1  0  0  0  0
 20 42  1  0  0  0  0
M  END
> <s_m_source_file>
AV-unprocessed.smi

> <i_m_source_file_index>
2478

> <i_lp_mmshare_version>
43012

> <i_f3d_flags>
0

> <s_epik_input>
W0NIM11bQ0BASF0xW0NIMl1bQ0gyXVtDSDJdW0NIMl1bQ0BIXTFPW0NIMl1DKD1PKVtOSF1jMm5bY0hdW2NIXVtjSF1jMk9bQ0hdKEYpRg==

> <s_epik_cmdline>
J2VwaWtfcHl0aG9uJywgJy1waCcsICc3LjAnLCAnLXRuJywgJzgnLCAnLW1hJywgJzIwMCcsICctbWV0YWxfYmluZGluZycsICctaW1hZScsICc8aW5maWxlLm1hZT4nLCAnLW9tYWUnLCAnPG91dGZpbGUubWFlPic=

> <r_lp_tautomer_probability>
1

> <r_epik_Ionization_Penalty>
6.06012e-05

> <r_epik_Ionization_Penalty_Charging>
0

> <r_epik_Ionization_Penalty_Neutral>
6.06012e-05

> <r_epik_State_Penalty>
-0

> <r_epik_Charging_Adjusted_Penalty>
0

> <i_epik_Tot_Q>
0

> <i_epik_Tot_abs_Q>
0

> <r_epik_Metal_State_Penalty>
-0

> <b_epik_Metal_Only>
0

> <s_lp_Force_Field>
OPLS_2005

> <r_lp_Energy>
14.9607

> <b_lp_Chiralities_Consistent>
1

> <s_lp_Variant>
AV-unprocessed.smi:2478-2

> <Gold.Version>
5.8.1

> <Gold.Id.Protein>
6NUR|6NUR_protein|mol2

> <Gold.PLP.Fitness>
42.3242

> <Gold.PLP.PLP>
-36.5073

> <Gold.PLP.part.hbond>
-1.0000

> <Gold.PLP.part.metal>
0.0000

> <Gold.PLP.part.buried>
-2.3830

> <Gold.PLP.part.nonpolar>
-32.9118

> <Gold.PLP.part.repulsive>
0.1703

> <Gold.PLP.ligand.clash>
0.0000

> <Gold.PLP.ligand.torsion>
0.2943

> <Gold.PLP.Chemscore.Hbond>
1.0000

> <Gold.PLP.Chemscore.CHOScore>
1.0818

> <Gold.PLP.Chemscore.Metal>
0.0000

> <Gold.Chemscore.Hbonds>
donor molecule, donor type, donor heavy atom, donor atom, acceptor molecule, acceptor atom, score
      P1  H  6896  6908       L1    11  0.90
      L1  C    15    39       P1  7948  0.72

> <Gold.PLP.Chemscore.Internal.Correction>
0.1602

> <Gold.Rescore>
     Score         DG    S(hbond)    S(metal)    S(lipo)     H(rot)  DE(clash)    DE(int)     intcor
     12.68     -13.24       0.73        0.00      86.02       1.85       0.03       0.53       ----

> <Gold.Chemscore.Fitness>
12.6811

> <Gold.Chemscore.DG>
-13.2372

> <Gold.Chemscore.ZeroCoef>
-5.4800

> <Gold.Chemscore.Hbond>
0.7259

> <Gold.Chemscore.Metal>
0.0000

> <Gold.Chemscore.Lipo>
86.0166

> <Gold.Chemscore.Internal_Hbond>
0.0000

> <Gold.Chemscore.DEClash>
0.0291

> <Gold.Chemscore.DEInternal>
0.5270

> <Gold.Chemscore.Rot>
1.8481

> <Gold.Chemscore.Internal.Correction>
   9.000000E+99

> <Gold.Chemscore.Hbonds>
donor molecule, donor type, donor heavy atom, donor atom, acceptor molecule, acceptor atom, score
      P1  H  6896  6908       L1    11  0.17

> <Gold.Chemscore.Hbond.Weighted>
-2.4244

> <Gold.Chemscore.Metal.Weighted>
-0.0000

> <Gold.Chemscore.Lipo.Weighted>
-10.0639

> <Gold.Chemscore.Internal_Hbond.Weighted>
0.0000

> <Gold.Chemscore.DEClash.Weighted>
0.0291

> <Gold.Chemscore.DEInternal.Weighted>
0.5270

> <Gold.Chemscore.Rot.Weighted>
4.7311

> <Gold.Chemscore.Internal.Correction.Weighted>
   9.000000E+99

> <Gold.Protein.RotatedTorsions>
[ 6907 6896 6895 6894 ] final  168.42 input  -60.11 | X-H torsion
[ 7974 7965 7964 7962 ] final  -45.42 input  175.53 | X-H torsion
[ 8008 7997 7996 7995 ] final  143.92 input   59.86 | X-H torsion
[ 10167 10162 10161 10158 ] final   17.75 input  -65.29 | X-H torsion
[ 10718 10713 10712 10709 ] final   47.80 input   66.30 | X-H torsion
[ 10763 10752 10751 10750 ] final  -21.37 input  -60.55 | X-H torsion
[ 11005 11000 10999 10996 ] final  -22.53 input  -57.11 | X-H torsion

> <Gold.Protein.ActiveResidues>
 VAL166  LYS551  ARG553  GLY616  TRP617  ASP618  TYR619  PRO620  LYS621  CYS622 
 ASP623  PHE694  ASN695  SER759  ASP760  ASP761  ALA762  ILE779  LEU786  VAL792 
 PHE793  MET794  SER795  GLU796  ALA797  LYS798  CYS799  TRP800  GLU811  SER814 

> <Gold.Protein.RotatedAtoms>
  151.8480  133.3435  159.3663 H   0  0  0  0  0  0  0  0  0  0  0  0  # atno 6907 bound_to 6896
  150.7215  134.5327  159.5717 H   0  0  0  0  0  0  0  0  0  0  0  0  # atno 6908 bound_to 6896
  152.2814  134.7824  160.0447 H   0  0  0  0  0  0  0  0  0  0  0  0  # atno 6909 bound_to 6896
  145.9822  140.7271  142.9358 H   0  0  0  0  0  0  0  0  0  0  0  0  # atno 7974 bound_to 7965
  156.2920  140.2249  156.4969 H   0  0  0  0  0  0  0  0  0  0  0  0  # atno 8008 bound_to 7997
  154.7723  140.0466  157.1082 H   0  0  0  0  0  0  0  0  0  0  0  0  # atno 8009 bound_to 7997
  154.9859  140.3084  155.4930 H   0  0  0  0  0  0  0  0  0  0  0  0  # atno 8010 bound_to 7997
  140.5703  143.9173  150.6708 H   0  0  0  0  0  0  0  0  0  0  0  0  # atno 10167 bound_to 10162
  157.4621  130.8203  149.7898 H   0  0  0  0  0  0  0  0  0  0  0  0  # atno 10718 bound_to 10713
  153.6351  135.6987  153.5261 H   0  0  0  0  0  0  0  0  0  0  0  0  # atno 10763 bound_to 10752
  153.2828  135.4180  155.1094 H   0  0  0  0  0  0  0  0  0  0  0  0  # atno 10764 bound_to 10752
  154.8513  135.3606  154.5894 H   0  0  0  0  0  0  0  0  0  0  0  0  # atno 10765 bound_to 10752
  140.8666  133.7750  156.0137 H   0  0  0  0  0  0  0  0  0  0  0  0  # atno 11005 bound_to 11000
  144.6865  140.2928  143.7275 LP  0  0  0  0  0  0  0  0  0  0  0  0  # atno 17320 bound_to 7965
  145.7752  139.1871  143.2189 LP  0  0  0  0  0  0  0  0  0  0  0  0  # atno 17321 bound_to 7965
  140.2647  143.3499  152.1292 LP  0  0  0  0  0  0  0  0  0  0  0  0  # atno 17342 bound_to 10162
  139.5114  144.6900  151.5785 LP  0  0  0  0  0  0  0  0  0  0  0  0  # atno 17343 bound_to 10162
  156.0033  130.3868  150.2522 LP  0  0  0  0  0  0  0  0  0  0  0  0  # atno 17370 bound_to 10713
  157.0700  131.0114  151.3193 LP  0  0  0  0  0  0  0  0  0  0  0  0  # atno 17371 bound_to 10713
  140.8622  134.2827  157.5229 LP  0  0  0  0  0  0  0  0  0  0  0  0  # atno 17394 bound_to 11000
  139.8709  134.9524  156.4113 LP  0  0  0  0  0  0  0  0  0  0  0  0  # atno 17395 bound_to 11000

$$$$
