AV-unprocessed.smi:112|AV-procd|sdf|1086|dock1
  -GOLD-   2262018183D 1   1.00000     0.00000
 Structure written by MMmdl.
 54 57  0  0  0  0  0  0  0  0  3 V2000
  150.4617  130.8211  154.3103 C   0  0  0  0  0  0  0  0  0  0  0  0
  149.5060  132.0028  154.2769 C   0  0  0  0  0  0  0  0  0  0  0  0
  148.4859  132.0778  153.3921 C   0  0  0  0  0  0  0  0  0  0  0  0
  147.5998  133.1364  153.3359 N   0  0  0  0  0  0  0  0  0  0  0  0
  146.4800  133.1365  152.3243 C   0  0  1  0  0  0  0  0  0  0  0  0
  147.0227  133.1169  150.8981 C   0  0  0  0  0  0  0  0  0  0  0  0
  145.8900  132.4391  150.1474 C   0  0  2  0  0  0  0  0  0  0  0  0
  144.9963  133.4073  149.6319 O   0  0  0  0  0  0  0  0  0  0  0  0
  145.1924  131.5871  151.2284 C   0  0  1  0  0  0  0  0  0  0  0  0
  145.3414  130.0626  151.0711 C   0  0  0  0  0  0  0  0  0  0  0  0
  146.6651  129.6342  151.3209 O   0  0  0  0  0  0  0  0  0  0  0  0
  145.7338  131.9742  152.4892 O   0  0  0  0  0  0  0  0  0  0  0  0
  147.7473  134.2220  154.2228 C   0  0  0  0  0  0  0  0  0  0  0  0
  146.9751  135.1826  154.1859 O   0  0  0  0  0  0  0  0  0  0  0  0
  148.8106  134.1801  155.1532 N   0  0  0  0  0  0  0  0  0  0  0  0
  148.9837  135.3160  156.0879 C   0  0  0  0  0  0  0  0  0  0  0  0
  150.4386  135.8226  156.2002 C   0  0  0  0  0  0  0  0  0  0  0  0
  151.2378  135.5411  155.3066 O   0  0  0  0  0  0  0  0  0  0  0  0
  150.7697  136.5585  157.2908 N   0  0  0  0  0  0  0  0  0  0  0  0
  149.8167  136.8955  158.3629 C   0  0  0  0  0  0  0  0  0  0  0  0
  150.6017  137.7344  159.3945 C   0  0  0  0  0  0  0  0  0  0  0  0
  151.9769  137.8029  158.7999 C   0  0  0  0  0  0  0  0  0  0  0  0
  153.0940  138.4580  159.3448 C   0  0  0  0  0  0  0  0  0  0  0  0
  154.3227  138.4165  158.6403 C   0  0  0  0  0  0  0  0  0  0  0  0
  155.5179  139.0924  159.1829 N   0  3  0  0  0  0  0  0  0  0  0  0
  156.3340  139.5550  158.3923 O   0  0  0  0  0  0  0  0  0  0  0  0
  155.6427  139.1618  160.4015 O   0  5  0  0  0  0  0  0  0  0  0  0
  154.3874  137.7161  157.4063 C   0  0  0  0  0  0  0  0  0  0  0  0
  153.2540  137.0643  156.8725 C   0  0  0  0  0  0  0  0  0  0  0  0
  152.0404  137.1177  157.5919 C   0  0  0  0  0  0  0  0  0  0  0  0
  149.7122  133.0897  155.2371 C   0  0  0  0  0  0  0  0  0  0  0  0
  150.6093  133.0809  156.0823 O   0  0  0  0  0  0  0  0  0  0  0  0
  150.2145  130.0786  153.5510 H   0  0  0  0  0  0  0  0  0  0  0  0
  150.4254  130.3287  155.2826 H   0  0  0  0  0  0  0  0  0  0  0  0
  151.4850  131.1530  154.1313 H   0  0  0  0  0  0  0  0  0  0  0  0
  148.3574  131.2676  152.6884 H   0  0  0  0  0  0  0  0  0  0  0  0
  145.8302  133.9897  152.5236 H   0  0  0  0  0  0  0  0  0  0  0  0
  147.2705  134.1200  150.5489 H   0  0  0  0  0  0  0  0  0  0  0  0
  147.9184  132.4957  150.8563 H   0  0  0  0  0  0  0  0  0  0  0  0
  146.2621  131.8454  149.3116 H   0  0  0  0  0  0  0  0  0  0  0  0
  144.9638  134.1376  150.2308 H   0  0  0  0  0  0  0  0  0  0  0  0
  144.1261  131.8184  151.2572 H   0  0  0  0  0  0  0  0  0  0  0  0
  144.6553  129.5378  151.7364 H   0  0  0  0  0  0  0  0  0  0  0  0
  145.0835  129.7718  150.0525 H   0  0  0  0  0  0  0  0  0  0  0  0
  147.2603  130.2844  150.9801 H   0  0  0  0  0  0  0  0  0  0  0  0
  148.3393  136.1435  155.7896 H   0  0  0  0  0  0  0  0  0  0  0  0
  148.6289  135.0497  157.0844 H   0  0  0  0  0  0  0  0  0  0  0  0
  148.9787  137.4725  157.9694 H   0  0  0  0  0  0  0  0  0  0  0  0
  149.4225  135.9916  158.8293 H   0  0  0  0  0  0  0  0  0  0  0  0
  150.1845  138.7357  159.5055 H   0  0  0  0  0  0  0  0  0  0  0  0
  150.6318  137.2533  160.3727 H   0  0  0  0  0  0  0  0  0  0  0  0
  153.0023  138.9801  160.2861 H   0  0  0  0  0  0  0  0  0  0  0  0
  155.3137  137.6712  156.8526 H   0  0  0  0  0  0  0  0  0  0  0  0
  153.3459  136.5446  155.9321 H   0  0  0  0  0  0  0  0  0  0  0  0
  1  2  1  0  0  0  0
  1 33  1  0  0  0  0
  1 34  1  0  0  0  0
  1 35  1  0  0  0  0
  2 31  1  0  0  0  0
  2  3  2  0  0  0  0
  3  4  1  0  0  0  0
  3 36  1  0  0  0  0
  4  5  1  0  0  0  0
  4 13  1  0  0  0  0
  5 12  1  0  0  0  0
  5  6  1  0  0  0  0
  5 37  1  0  0  0  0
  6  7  1  0  0  0  0
  6 38  1  0  0  0  0
  6 39  1  0  0  0  0
  7  8  1  0  0  0  0
  7  9  1  0  0  0  0
  7 40  1  0  0  0  0
  8 41  1  0  0  0  0
  9 10  1  0  0  0  0
  9 12  1  0  0  0  0
  9 42  1  0  0  0  0
 10 11  1  0  0  0  0
 10 43  1  0  0  0  0
 10 44  1  0  0  0  0
 11 45  1  0  0  0  0
 13 14  2  0  0  0  0
 13 15  1  0  0  0  0
 15 16  1  0  0  0  0
 15 31  1  0  0  0  0
 16 17  1  0  0  0  0
 16 46  1  0  0  0  0
 16 47  1  0  0  0  0
 17 18  2  0  0  0  0
 17 19  1  0  0  0  0
 19 30  1  0  0  0  0
 19 20  1  0  0  0  0
 20 21  1  0  0  0  0
 20 48  1  0  0  0  0
 20 49  1  0  0  0  0
 21 22  1  0  0  0  0
 21 50  1  0  0  0  0
 21 51  1  0  0  0  0
 22 30  2  0  0  0  0
 22 23  1  0  0  0  0
 23 24  2  0  0  0  0
 23 52  1  0  0  0  0
 24 25  1  0  0  0  0
 24 28  1  0  0  0  0
 25 26  2  0  0  0  0
 25 27  1  0  0  0  0
 28 29  2  0  0  0  0
 28 53  1  0  0  0  0
 29 30  1  0  0  0  0
 29 54  1  0  0  0  0
 31 32  2  0  0  0  0
M  CHG  1  25   1
M  CHG  1  27  -1
M  END
> <s_m_source_file>
AV-unprocessed.smi

> <i_m_source_file_index>
112

> <i_lp_mmshare_version>
43012

> <i_f3d_flags>
0

> <s_epik_input>
W09IXVtDSDJdW0NAQEhdKE8xKVtDQEhdKFtPSF0pW0NIMl1bQ0BIXTFuKFtjSF1jMltDSDNdKWMoPU8pbihjMj1PKVtDSDJdQyg9TylOKFtDSDJdW0NIMl0zKWMoYzM0KVtjSF1bY0hdYyhbY0hdNClbTitdKD1PKVtPLV0=

> <s_epik_cmdline>
J2VwaWtfcHl0aG9uJywgJy1waCcsICc3LjAnLCAnLXRuJywgJzgnLCAnLW1hJywgJzIwMCcsICctbWV0YWxfYmluZGluZycsICctaW1hZScsICc8aW5maWxlLm1hZT4nLCAnLW9tYWUnLCAnPG91dGZpbGUubWFlPic=

> <r_lp_tautomer_probability>
1

> <r_epik_Ionization_Penalty>
2.5696e-07

> <r_epik_Ionization_Penalty_Charging>
1.04886e-08

> <r_epik_Ionization_Penalty_Neutral>
2.46472e-07

> <r_epik_State_Penalty>
-0

> <r_epik_Charging_Adjusted_Penalty>
1.04886e-08

> <i_epik_Tot_Q>
0

> <i_epik_Tot_abs_Q>
2

> <r_epik_Metal_State_Penalty>
-0

> <b_epik_Metal_Only>
0

> <s_epik_Chemistry_Notes>
This compound contains an acetal/aminal-like group ( X-CH(R)-Y where X, Y are N, S, or O) that may be acid/base labile, releasing an aldehyde.

> <s_lp_Force_Field>
OPLS_2005

> <r_lp_Energy>
61.0713

> <b_lp_Chiralities_Consistent>
1

> <s_lp_Variant>
AV-unprocessed.smi:112-4

> <Gold.Version>
5.8.1

> <Gold.Id.Protein>
6NUR|6NUR_protein|mol2

> <Gold.PLP.Fitness>
46.8358

> <Gold.PLP.PLP>
-36.7194

> <Gold.PLP.part.hbond>
-4.0000

> <Gold.PLP.part.metal>
0.0000

> <Gold.PLP.part.buried>
-3.9111

> <Gold.PLP.part.nonpolar>
-28.8413

> <Gold.PLP.part.repulsive>
0.3948

> <Gold.PLP.ligand.clash>
0.0154

> <Gold.PLP.ligand.torsion>
0.9019

> <Gold.PLP.Chemscore.Hbond>
3.0000

> <Gold.PLP.Chemscore.CHOScore>
0.9113

> <Gold.PLP.Chemscore.Metal>
0.0000

> <Gold.Chemscore.Hbonds>
donor molecule, donor type, donor heavy atom, donor atom, acceptor molecule, acceptor atom, score
      L1  H    11    45       P1 10747  1.00
      P1  H  7997  8008       L1    26  0.59
      P1  H 10752 10764       L1    18  1.00
      L1  C     3    36       P1 10747  1.00

> <Gold.PLP.Chemscore.Internal.Correction>
0.2014

> <Gold.Rescore>
     Score         DG    S(hbond)    S(metal)    S(lipo)     H(rot)  DE(clash)    DE(int)     intcor
     11.12     -17.30       2.85        0.00      91.56       3.29       0.41       5.77       ----

> <Gold.Chemscore.Fitness>
11.1205

> <Gold.Chemscore.DG>
-17.3010

> <Gold.Chemscore.ZeroCoef>
-5.4800

> <Gold.Chemscore.Hbond>
2.8548

> <Gold.Chemscore.Metal>
0.0000

> <Gold.Chemscore.Lipo>
91.5587

> <Gold.Chemscore.Internal_Hbond>
0.0000

> <Gold.Chemscore.DEClash>
0.4116

> <Gold.Chemscore.DEInternal>
5.7690

> <Gold.Chemscore.Rot>
3.2916

> <Gold.Chemscore.Internal.Correction>
   9.000000E+99

> <Gold.Chemscore.Hbonds>
donor molecule, donor type, donor heavy atom, donor atom, acceptor molecule, acceptor atom, score
      L1  H    11    45       P1 10747  0.96
      P1  H  7997  8008       L1    26  0.57
      P1  H 10752 10764       L1    18  0.98

> <Gold.Chemscore.Hbond.Weighted>
-9.5352

> <Gold.Chemscore.Metal.Weighted>
-0.0000

> <Gold.Chemscore.Lipo.Weighted>
-10.7124

> <Gold.Chemscore.Internal_Hbond.Weighted>
0.0000

> <Gold.Chemscore.DEClash.Weighted>
0.4116

> <Gold.Chemscore.DEInternal.Weighted>
5.7690

> <Gold.Chemscore.Rot.Weighted>
8.4265

> <Gold.Chemscore.Internal.Correction.Weighted>
   9.000000E+99

> <Gold.Protein.RotatedTorsions>
[ 6907 6896 6895 6894 ] final  144.26 input  -60.11 | X-H torsion
[ 7974 7965 7964 7962 ] final  -81.50 input  175.53 | X-H torsion
[ 8008 7997 7996 7995 ] final -167.74 input   59.86 | X-H torsion
[ 10167 10162 10161 10158 ] final  -18.79 input  -65.29 | X-H torsion
[ 10718 10713 10712 10709 ] final  -13.18 input   66.30 | X-H torsion
[ 10763 10752 10751 10750 ] final  -59.26 input  -60.55 | X-H torsion
[ 11005 11000 10999 10996 ] final  -94.12 input  -57.11 | X-H torsion

> <Gold.Protein.ActiveResidues>
 VAL166  LYS551  ARG553  GLY616  TRP617  ASP618  TYR619  PRO620  LYS621  CYS622 
 ASP623  PHE694  ASN695  SER759  ASP760  ASP761  ALA762  ILE779  LEU786  VAL792 
 PHE793  MET794  SER795  GLU796  ALA797  LYS798  CYS799  TRP800  GLU811  SER814 

> <Gold.Protein.RotatedAtoms>
  152.1960  133.4806  159.5032 H   0  0  0  0  0  0  0  0  0  0  0  0  # atno 6907 bound_to 6896
  150.6960  134.1652  159.4200 H   0  0  0  0  0  0  0  0  0  0  0  0  # atno 6908 bound_to 6896
  151.9568  135.0142  160.0596 H   0  0  0  0  0  0  0  0  0  0  0  0  # atno 6909 bound_to 6896
  145.5459  140.9503  143.1526 H   0  0  0  0  0  0  0  0  0  0  0  0  # atno 7974 bound_to 7965
  155.8818  140.1010  157.1480 H   0  0  0  0  0  0  0  0  0  0  0  0  # atno 8008 bound_to 7997
  154.4006  140.1327  156.4270 H   0  0  0  0  0  0  0  0  0  0  0  0  # atno 8009 bound_to 7997
  155.7634  140.3462  155.5212 H   0  0  0  0  0  0  0  0  0  0  0  0  # atno 8010 bound_to 7997
  140.7262  143.4882  151.0027 H   0  0  0  0  0  0  0  0  0  0  0  0  # atno 10167 bound_to 10162
  156.6339  130.4909  149.6119 H   0  0  0  0  0  0  0  0  0  0  0  0  # atno 10718 bound_to 10713
  154.2509  135.6326  153.5240 H   0  0  0  0  0  0  0  0  0  0  0  0  # atno 10763 bound_to 10752
  152.9912  135.5564  154.5808 H   0  0  0  0  0  0  0  0  0  0  0  0  # atno 10764 bound_to 10752
  154.5335  135.2890  155.1134 H   0  0  0  0  0  0  0  0  0  0  0  0  # atno 10765 bound_to 10752
  141.1479  133.7934  157.0254 H   0  0  0  0  0  0  0  0  0  0  0  0  # atno 11005 bound_to 11000
  144.7554  139.7089  143.7256 LP  0  0  0  0  0  0  0  0  0  0  0  0  # atno 17320 bound_to 7965
  146.1950  139.5211  142.9780 LP  0  0  0  0  0  0  0  0  0  0  0  0  # atno 17321 bound_to 7965
  139.8584  143.7346  152.3175 LP  0  0  0  0  0  0  0  0  0  0  0  0  # atno 17342 bound_to 10162
  139.7553  144.7522  151.0445 LP  0  0  0  0  0  0  0  0  0  0  0  0  # atno 17343 bound_to 10162
  156.2212  130.6738  151.1370 LP  0  0  0  0  0  0  0  0  0  0  0  0  # atno 17370 bound_to 10713
  157.7191  131.0692  150.6207 LP  0  0  0  0  0  0  0  0  0  0  0  0  # atno 17371 bound_to 10713
  140.0789  134.9660  157.1591 LP  0  0  0  0  0  0  0  0  0  0  0  0  # atno 17394 bound_to 11000
  140.3605  134.2499  155.7187 LP  0  0  0  0  0  0  0  0  0  0  0  0  # atno 17395 bound_to 11000

$$$$
