AV-unprocessed.smi:1940|AV-procd|sdf|7843|dock3
  -GOLD-   22720 9583D 1   1.00000     0.00000
 Structure written by MMmdl.
 50 52  0  0  0  0  0  0  0  0  2 V2000
  145.9942  137.4737  150.2738 C   0  0  0  0  0  0  0  0  0  0  0  0
  145.9297  137.5703  151.8049 C   0  0  2  0  0  0  0  0  0  0  0  0
  147.2418  137.9664  152.3160 N   0  0  0  0  0  0  0  0  0  0  0  0
  147.4758  138.9753  153.1675 C   0  0  0  0  0  0  0  0  0  0  0  0
  146.5964  139.7178  153.6030 O   0  0  0  0  0  0  0  0  0  0  0  0
  148.7841  139.0691  153.4599 N   0  0  0  0  0  0  0  0  0  0  0  0
  149.4249  139.9479  154.3750 C   0  0  0  0  0  0  0  0  0  0  0  0
  150.6435  139.5258  154.9494 C   0  0  0  0  0  0  0  0  0  0  0  0
  151.3040  140.3548  155.8792 C   0  0  0  0  0  0  0  0  0  0  0  0
  150.7287  141.5975  156.2289 C   0  0  0  0  0  0  0  0  0  0  0  0
  151.3085  142.4856  157.1443 N   0  0  0  0  0  0  0  0  0  0  0  0
  151.3452  143.8629  156.6584 C   0  0  0  0  0  0  0  0  0  0  0  0
  152.1555  144.7590  157.6112 C   0  0  0  0  0  0  0  0  0  0  0  0
  151.6196  144.6577  159.0484 C   0  0  0  0  0  0  0  0  0  0  0  0
  151.5777  143.1878  159.4964 C   0  0  0  0  0  0  0  0  0  0  0  0
  150.7799  142.3322  158.4972 C   0  0  0  0  0  0  0  0  0  0  0  0
  149.5564  141.9627  155.6663 N   0  3  0  0  0  0  0  0  0  0  0  0
  148.8921  141.1992  154.7718 C   0  0  0  0  0  0  0  0  0  0  0  0
  145.4353  136.2503  152.4417 C   0  0  1  0  0  0  0  0  0  0  0  0
  144.0157  135.8043  152.0658 C   0  0  0  0  0  0  0  0  0  0  0  0
  144.1100  134.3043  152.2278 C   0  0  0  0  0  0  0  0  0  0  0  0
  145.5153  134.0316  151.7044 C   0  0  0  0  0  0  0  0  0  0  0  0
  146.2893  135.1607  152.0953 O   0  0  0  0  0  0  0  0  0  0  0  0
  145.0219  137.2098  149.8567 H   0  0  0  0  0  0  0  0  0  0  0  0
  146.7101  136.7179  149.9495 H   0  0  0  0  0  0  0  0  0  0  0  0
  146.2928  138.4249  149.8322 H   0  0  0  0  0  0  0  0  0  0  0  0
  145.2063  138.3521  152.0435 H   0  0  0  0  0  0  0  0  0  0  0  0
  148.0288  137.4157  152.0064 H   0  0  0  0  0  0  0  0  0  0  0  0
  149.3969  138.4481  152.9520 H   0  0  0  0  0  0  0  0  0  0  0  0
  151.0752  138.5730  154.6789 H   0  0  0  0  0  0  0  0  0  0  0  0
  152.2385  140.0354  156.3171 H   0  0  0  0  0  0  0  0  0  0  0  0
  151.7865  143.8892  155.6611 H   0  0  0  0  0  0  0  0  0  0  0  0
  150.3279  144.2466  156.5690 H   0  0  0  0  0  0  0  0  0  0  0  0
  153.2046  144.4602  157.5904 H   0  0  0  0  0  0  0  0  0  0  0  0
  152.1214  145.7942  157.2706 H   0  0  0  0  0  0  0  0  0  0  0  0
  152.2421  145.2420  159.7266 H   0  0  0  0  0  0  0  0  0  0  0  0
  150.6172  145.0854  159.0977 H   0  0  0  0  0  0  0  0  0  0  0  0
  152.5946  142.8012  159.5766 H   0  0  0  0  0  0  0  0  0  0  0  0
  151.1373  143.1107  160.4906 H   0  0  0  0  0  0  0  0  0  0  0  0
  149.7299  142.6279  158.5148 H   0  0  0  0  0  0  0  0  0  0  0  0
  150.8220  141.2828  158.7923 H   0  0  0  0  0  0  0  0  0  0  0  0
  147.9590  141.6175  154.4255 H   0  0  0  0  0  0  0  0  0  0  0  0
  145.4911  136.3381  153.5278 H   0  0  0  0  0  0  0  0  0  0  0  0
  143.2498  136.2533  152.6984 H   0  0  0  0  0  0  0  0  0  0  0  0
  143.7781  136.0413  151.0287 H   0  0  0  0  0  0  0  0  0  0  0  0
  144.0407  134.0338  153.2823 H   0  0  0  0  0  0  0  0  0  0  0  0
  143.3374  133.7629  151.6815 H   0  0  0  0  0  0  0  0  0  0  0  0
  145.9361  133.1037  152.0923 H   0  0  0  0  0  0  0  0  0  0  0  0
  145.5116  133.9745  150.6150 H   0  0  0  0  0  0  0  0  0  0  0  0
  149.1490  142.8593  155.9331 H   0  0  0  0  0  0  0  0  0  0  0  0
  1  2  1  0  0  0  0
  1 24  1  0  0  0  0
  1 25  1  0  0  0  0
  1 26  1  0  0  0  0
  2  3  1  0  0  0  0
  2 19  1  0  0  0  0
  2 27  1  0  0  0  0
  3  4  1  0  0  0  0
  3 28  1  0  0  0  0
  4  5  2  0  0  0  0
  4  6  1  0  0  0  0
  6  7  1  0  0  0  0
  6 29  1  0  0  0  0
  7 18  1  0  0  0  0
  7  8  2  0  0  0  0
  8  9  1  0  0  0  0
  8 30  1  0  0  0  0
  9 10  2  0  0  0  0
  9 31  1  0  0  0  0
 10 11  1  0  0  0  0
 10 17  1  0  0  0  0
 11 16  1  0  0  0  0
 11 12  1  0  0  0  0
 12 13  1  0  0  0  0
 12 32  1  0  0  0  0
 12 33  1  0  0  0  0
 13 14  1  0  0  0  0
 13 34  1  0  0  0  0
 13 35  1  0  0  0  0
 14 15  1  0  0  0  0
 14 36  1  0  0  0  0
 14 37  1  0  0  0  0
 15 16  1  0  0  0  0
 15 38  1  0  0  0  0
 15 39  1  0  0  0  0
 16 40  1  0  0  0  0
 16 41  1  0  0  0  0
 17 18  2  0  0  0  0
 17 50  1  0  0  0  0
 18 42  1  0  0  0  0
 19 23  1  0  0  0  0
 19 20  1  0  0  0  0
 19 43  1  0  0  0  0
 20 21  1  0  0  0  0
 20 44  1  0  0  0  0
 20 45  1  0  0  0  0
 21 22  1  0  0  0  0
 21 46  1  0  0  0  0
 21 47  1  0  0  0  0
 22 23  1  0  0  0  0
 22 48  1  0  0  0  0
 22 49  1  0  0  0  0
M  CHG  1  17   1
M  END
> <s_m_source_file>
AV-unprocessed.smi

> <i_m_source_file_index>
1940

> <i_lp_mmshare_version>
43012

> <i_f3d_flags>
0

> <s_epik_input>
TzFbQ0gyXVtDSDJdW0NIMl1bQ0BIXTFbQ0BIXShbQ0gzXSlbTkhdQyg9TylbTkhdYzJbY0hdW2NIXWMobltjSF0yKU4zW0NIMl1bQ0gyXVtDSDJdW0NIMl1bQ0gyXTM=

> <s_epik_cmdline>
J2VwaWtfcHl0aG9uJywgJy1waCcsICc3LjAnLCAnLXRuJywgJzgnLCAnLW1hJywgJzIwMCcsICctbWV0YWxfYmluZGluZycsICctaW1hZScsICc8aW5maWxlLm1hZT4nLCAnLW9tYWUnLCAnPG91dGZpbGUubWFlPic=

> <r_lp_tautomer_probability>
0.999994

> <r_epik_Ionization_Penalty>
1.10603

> <r_epik_Ionization_Penalty_Charging>
1.10601

> <r_epik_Ionization_Penalty_Neutral>
1.929e-05

> <r_epik_State_Penalty>
1.16358

> <r_epik_Charging_Adjusted_Penalty>
2.26959

> <i_epik_Tot_Q>
1

> <i_epik_Tot_abs_Q>
1

> <r_epik_Metal_State_Penalty>
1.25013

> <b_epik_Metal_Only>
0

> <s_lp_Force_Field>
OPLS_2005

> <r_lp_Energy>
42.4745

> <b_lp_Chiralities_Consistent>
1

> <s_lp_Variant>
AV-unprocessed.smi:1940-7

> <Gold.Version>
5.8.1

> <Gold.Id.Protein>
6NUR|6NUR_protein|mol2

> <Gold.PLP.Fitness>
49.2400

> <Gold.PLP.PLP>
-41.5823

> <Gold.PLP.part.hbond>
-3.2237

> <Gold.PLP.part.metal>
0.0000

> <Gold.PLP.part.buried>
4.5355

> <Gold.PLP.part.nonpolar>
-43.7926

> <Gold.PLP.part.repulsive>
1.9484

> <Gold.PLP.ligand.clash>
0.0000

> <Gold.PLP.ligand.torsion>
0.7551

> <Gold.PLP.Chemscore.Hbond>
3.0000

> <Gold.PLP.Chemscore.CHOScore>
0.0000

> <Gold.PLP.Chemscore.Metal>
0.0000

> <Gold.Chemscore.Hbonds>
donor molecule, donor type, donor heavy atom, donor atom, acceptor molecule, acceptor atom, score
      L1  H     3    28       P1  7948  0.88
      L1  H    17    50       P1  8028  2.00

> <Gold.PLP.Chemscore.Internal.Correction>
0.1680

> <Gold.Rescore>
     Score         DG    S(hbond)    S(metal)    S(lipo)     H(rot)  DE(clash)    DE(int)     intcor
     17.42     -21.38       1.85        0.00     112.91       1.36       2.22       1.74       ----

> <Gold.Chemscore.Fitness>
17.4209

> <Gold.Chemscore.DG>
-21.3828

> <Gold.Chemscore.ZeroCoef>
-5.4800

> <Gold.Chemscore.Hbond>
1.8461

> <Gold.Chemscore.Metal>
0.0000

> <Gold.Chemscore.Lipo>
112.9132

> <Gold.Chemscore.Internal_Hbond>
0.0000

> <Gold.Chemscore.DEClash>
2.2209

> <Gold.Chemscore.DEInternal>
1.7410

> <Gold.Chemscore.Rot>
1.3571

> <Gold.Chemscore.Internal.Correction>
   9.000000E+99

> <Gold.Chemscore.Hbonds>
donor molecule, donor type, donor heavy atom, donor atom, acceptor molecule, acceptor atom, score
      L1  H     3    28       P1  7948  0.85
      L1  H     6    29       P1  7948  0.02
      L1  H    17    50       P1  8028  0.96

> <Gold.Chemscore.Hbond.Weighted>
-6.1660

> <Gold.Chemscore.Metal.Weighted>
-0.0000

> <Gold.Chemscore.Lipo.Weighted>
-13.2108

> <Gold.Chemscore.Internal_Hbond.Weighted>
0.0000

> <Gold.Chemscore.DEClash.Weighted>
2.2209

> <Gold.Chemscore.DEInternal.Weighted>
1.7410

> <Gold.Chemscore.Rot.Weighted>
3.4741

> <Gold.Chemscore.Internal.Correction.Weighted>
   9.000000E+99

> <Gold.Protein.RotatedTorsions>
[ 6907 6896 6895 6894 ] final   54.57 input  -60.11 | X-H torsion
[ 7974 7965 7964 7962 ] final   78.27 input  175.53 | X-H torsion
[ 8008 7997 7996 7995 ] final   38.30 input   59.86 | X-H torsion
[ 10167 10162 10161 10158 ] final  -19.75 input  -65.29 | X-H torsion
[ 10718 10713 10712 10709 ] final  124.78 input   66.30 | X-H torsion
[ 10763 10752 10751 10750 ] final  -47.55 input  -60.55 | X-H torsion
[ 11005 11000 10999 10996 ] final   24.09 input  -57.11 | X-H torsion

> <Gold.Protein.ActiveResidues>
 VAL166  LYS551  ARG553  GLY616  TRP617  ASP618  TYR619  PRO620  LYS621  CYS622 
 ASP623  PHE694  ASN695  SER759  ASP760  ASP761  ALA762  ILE779  LEU786  VAL792 
 PHE793  MET794  SER795  GLU796  ALA797  LYS798  CYS799  TRP800  GLU811  SER814 

> <Gold.Protein.RotatedAtoms>
  152.3452  134.7081  160.0252 H   0  0  0  0  0  0  0  0  0  0  0  0  # atno 6907 bound_to 6896
  151.7453  133.3319  159.3385 H   0  0  0  0  0  0  0  0  0  0  0  0  # atno 6908 bound_to 6896
  150.7504  134.6174  159.6162 H   0  0  0  0  0  0  0  0  0  0  0  0  # atno 6909 bound_to 6896
  145.6793  139.2519  143.1823 H   0  0  0  0  0  0  0  0  0  0  0  0  # atno 7974 bound_to 7965
  155.2180  140.3328  155.4319 H   0  0  0  0  0  0  0  0  0  0  0  0  # atno 8008 bound_to 7997
  156.2344  140.1865  156.7205 H   0  0  0  0  0  0  0  0  0  0  0  0  # atno 8009 bound_to 7997
  154.6034  140.0619  156.9384 H   0  0  0  0  0  0  0  0  0  0  0  0  # atno 8010 bound_to 7997
  140.7271  143.4789  151.0145 H   0  0  0  0  0  0  0  0  0  0  0  0  # atno 10167 bound_to 10162
  157.5557  131.1092  150.8626 H   0  0  0  0  0  0  0  0  0  0  0  0  # atno 10718 bound_to 10713
  154.0633  135.6615  153.4814 H   0  0  0  0  0  0  0  0  0  0  0  0  # atno 10763 bound_to 10752
  153.0418  135.5140  154.7638 H   0  0  0  0  0  0  0  0  0  0  0  0  # atno 10764 bound_to 10752
  154.6681  135.3025  154.9745 H   0  0  0  0  0  0  0  0  0  0  0  0  # atno 10765 bound_to 10752
  140.3625  134.2110  155.7671 H   0  0  0  0  0  0  0  0  0  0  0  0  # atno 11005 bound_to 11000
  146.0978  140.7580  142.9564 LP  0  0  0  0  0  0  0  0  0  0  0  0  # atno 17320 bound_to 7965
  144.7031  140.3739  143.7140 LP  0  0  0  0  0  0  0  0  0  0  0  0  # atno 17321 bound_to 7965
  139.8486  143.7469  152.3178 LP  0  0  0  0  0  0  0  0  0  0  0  0  # atno 17342 bound_to 10162
  139.7643  144.7497  151.0318 LP  0  0  0  0  0  0  0  0  0  0  0  0  # atno 17343 bound_to 10162
  156.9138  130.5290  149.5280 LP  0  0  0  0  0  0  0  0  0  0  0  0  # atno 17370 bound_to 10713
  156.0616  130.5668  150.9205 LP  0  0  0  0  0  0  0  0  0  0  0  0  # atno 17371 bound_to 10713
  141.1980  133.8047  157.0604 LP  0  0  0  0  0  0  0  0  0  0  0  0  # atno 17394 bound_to 11000
  140.0615  134.9752  157.1313 LP  0  0  0  0  0  0  0  0  0  0  0  0  # atno 17395 bound_to 11000

$$$$
