AV-unprocessed.smi:754|AV-procd|sdf|3609|dock3
  -GOLD-   22720 1 03D 1   1.00000     0.00000
 Structure written by MMmdl.
 37 38  0  0  0  0  0  0  0  0  1 V2000
  144.0868  132.2299  149.8419 C   0  0  0  0  0  0  0  0  0  0  0  0
  143.8869  133.3956  150.8124 C   0  0  0  0  0  0  0  0  0  0  0  0
  144.7828  134.4381  150.4660 O   0  0  0  0  0  0  0  0  0  0  0  0
  144.6902  135.5569  151.3337 C   0  0  2  0  0  0  0  0  0  0  0  0
  145.8846  136.5138  151.2690 C   0  0  0  0  0  0  0  0  0  0  0  0
  145.7265  136.6396  152.7850 C   0  0  2  0  0  0  0  0  0  0  0  0
  147.0063  136.7181  153.4777 N   0  0  0  0  0  0  0  0  0  0  0  0
  147.1422  136.8873  154.8013 C   0  0  0  0  0  0  0  0  0  0  0  0
  146.1958  137.0973  155.5593 O   0  0  0  0  0  0  0  0  0  0  0  0
  148.5605  136.7730  155.3593 C   0  0  0  0  0  0  0  0  0  0  0  0
  149.2590  138.0402  155.2445 N   0  0  0  0  0  0  0  0  0  0  0  0
  149.6359  138.7400  154.1722 C   0  0  0  0  0  0  0  0  0  0  0  0
  150.2842  139.8435  154.5114 N   0  0  0  0  0  0  0  0  0  0  0  0
  150.2892  139.7924  155.8954 N   0  0  0  0  0  0  0  0  0  0  0  0
  149.6825  138.7247  156.3363 N   0  0  0  0  0  0  0  0  0  0  0  0
  145.0790  135.2280  152.7959 C   0  0  0  0  0  0  0  0  0  0  0  0
  143.9111  135.0388  153.7636 C   0  0  0  0  0  0  0  0  0  0  0  0
  146.0196  134.0243  152.9911 C   0  0  0  0  0  0  0  0  0  0  0  0
  143.4144  131.4054  150.0794 H   0  0  0  0  0  0  0  0  0  0  0  0
  145.1088  131.8531  149.8887 H   0  0  0  0  0  0  0  0  0  0  0  0
  143.8893  132.5379  148.8148 H   0  0  0  0  0  0  0  0  0  0  0  0
  142.8557  133.7473  150.7624 H   0  0  0  0  0  0  0  0  0  0  0  0
  144.0740  133.0645  151.8348 H   0  0  0  0  0  0  0  0  0  0  0  0
  143.7303  136.0749  151.2678 H   0  0  0  0  0  0  0  0  0  0  0  0
  146.8101  136.0269  150.9561 H   0  0  0  0  0  0  0  0  0  0  0  0
  145.7015  137.4330  150.7120 H   0  0  0  0  0  0  0  0  0  0  0  0
  145.0235  137.4325  153.0519 H   0  0  0  0  0  0  0  0  0  0  0  0
  147.8368  136.5616  152.9253 H   0  0  0  0  0  0  0  0  0  0  0  0
  148.5274  136.4783  156.4090 H   0  0  0  0  0  0  0  0  0  0  0  0
  149.1192  136.0047  154.8228 H   0  0  0  0  0  0  0  0  0  0  0  0
  149.4460  138.4387  153.1527 H   0  0  0  0  0  0  0  0  0  0  0  0
  144.2520  134.9981  154.7986 H   0  0  0  0  0  0  0  0  0  0  0  0
  143.3672  134.1164  153.5578 H   0  0  0  0  0  0  0  0  0  0  0  0
  143.1955  135.8584  153.6929 H   0  0  0  0  0  0  0  0  0  0  0  0
  146.3788  133.9560  154.0187 H   0  0  0  0  0  0  0  0  0  0  0  0
  146.8980  134.0796  152.3480 H   0  0  0  0  0  0  0  0  0  0  0  0
  145.5160  133.0850  152.7615 H   0  0  0  0  0  0  0  0  0  0  0  0
  1  2  1  0  0  0  0
  1 19  1  0  0  0  0
  1 20  1  0  0  0  0
  1 21  1  0  0  0  0
  2  3  1  0  0  0  0
  2 22  1  0  0  0  0
  2 23  1  0  0  0  0
  3  4  1  0  0  0  0
  4 16  1  0  0  0  0
  4  5  1  0  0  0  0
  4 24  1  0  0  0  0
  5  6  1  0  0  0  0
  5 25  1  0  0  0  0
  5 26  1  0  0  0  0
  6  7  1  0  0  0  0
  6 16  1  0  0  0  0
  6 27  1  0  0  0  0
  7  8  1  0  0  0  0
  7 28  1  0  0  0  0
  8  9  2  0  0  0  0
  8 10  1  0  0  0  0
 10 11  1  0  0  0  0
 10 29  1  0  0  0  0
 10 30  1  0  0  0  0
 11 15  1  0  0  0  0
 11 12  1  0  0  0  0
 12 13  2  0  0  0  0
 12 31  1  0  0  0  0
 13 14  1  0  0  0  0
 14 15  2  0  0  0  0
 16 17  1  0  0  0  0
 16 18  1  0  0  0  0
 17 32  1  0  0  0  0
 17 33  1  0  0  0  0
 17 34  1  0  0  0  0
 18 35  1  0  0  0  0
 18 36  1  0  0  0  0
 18 37  1  0  0  0  0
M  END
> <s_m_source_file>
AV-unprocessed.smi

> <i_m_source_file_index>
754

> <i_lp_mmshare_version>
43012

> <i_f3d_flags>
0

> <s_epik_input>
W0NIM11bQ0gyXU9bQ0BASF0oQzEoW0NIM10pW0NIM10pW0NIMl1bQ0BIXTFbTkhdQyg9TylbQ0gyXW4yW2NIXW5ubjI=

> <s_epik_cmdline>
J2VwaWtfcHl0aG9uJywgJy1waCcsICc3LjAnLCAnLXRuJywgJzgnLCAnLW1hJywgJzIwMCcsICctbWV0YWxfYmluZGluZycsICctaW1hZScsICc8aW5maWxlLm1hZT4nLCAnLW9tYWUnLCAnPG91dGZpbGUubWFlPic=

> <r_lp_tautomer_probability>
1

> <r_epik_Ionization_Penalty>
8.28422e-07

> <r_epik_Ionization_Penalty_Charging>
0

> <r_epik_Ionization_Penalty_Neutral>
8.28422e-07

> <r_epik_State_Penalty>
-0

> <r_epik_Charging_Adjusted_Penalty>
0

> <i_epik_Tot_Q>
0

> <i_epik_Tot_abs_Q>
0

> <r_epik_Metal_State_Penalty>
-0

> <b_epik_Metal_Only>
0

> <s_lp_Force_Field>
OPLS_2005

> <r_lp_Energy>
20.4803

> <b_lp_Chiralities_Consistent>
1

> <s_lp_Variant>
AV-unprocessed.smi:754-3

> <Gold.Version>
5.8.1

> <Gold.Id.Protein>
6NUR|6NUR_protein|mol2

> <Gold.PLP.Fitness>
31.9720

> <Gold.PLP.PLP>
-21.3020

> <Gold.PLP.part.hbond>
-2.0000

> <Gold.PLP.part.metal>
0.0000

> <Gold.PLP.part.buried>
-3.2428

> <Gold.PLP.part.nonpolar>
-17.5876

> <Gold.PLP.part.repulsive>
0.3448

> <Gold.PLP.ligand.clash>
0.0000

> <Gold.PLP.ligand.torsion>
0.6005

> <Gold.PLP.Chemscore.Hbond>
2.0000

> <Gold.PLP.Chemscore.CHOScore>
1.8429

> <Gold.PLP.Chemscore.Metal>
0.0000

> <Gold.Chemscore.Hbonds>
donor molecule, donor type, donor heavy atom, donor atom, acceptor molecule, acceptor atom, score
      L1  H     7    28       P1  7948  1.00
      P1  H  7989  7998       L1    13  1.00
      L1  C    12    31       P1  7948  0.91
      L1  C    12    31       P1  7957  0.85

> <Gold.PLP.Chemscore.Internal.Correction>
0.3424

> <Gold.Rescore>
     Score         DG    S(hbond)    S(metal)    S(lipo)     H(rot)  DE(clash)    DE(int)     intcor
     10.34     -10.98       1.94        0.00      45.46       2.46       0.02       0.62       ----

> <Gold.Chemscore.Fitness>
10.3362

> <Gold.Chemscore.DG>
-10.9791

> <Gold.Chemscore.ZeroCoef>
-5.4800

> <Gold.Chemscore.Hbond>
1.9406

> <Gold.Chemscore.Metal>
0.0000

> <Gold.Chemscore.Lipo>
45.4615

> <Gold.Chemscore.Internal_Hbond>
0.0000

> <Gold.Chemscore.DEClash>
0.0182

> <Gold.Chemscore.DEInternal>
0.6247

> <Gold.Chemscore.Rot>
2.4616

> <Gold.Chemscore.Internal.Correction>
   9.000000E+99

> <Gold.Chemscore.Hbonds>
donor molecule, donor type, donor heavy atom, donor atom, acceptor molecule, acceptor atom, score
      L1  H     7    28       P1  7948  0.97
      P1  H  7989  7998       L1    13  0.97

> <Gold.Chemscore.Hbond.Weighted>
-6.4817

> <Gold.Chemscore.Metal.Weighted>
-0.0000

> <Gold.Chemscore.Lipo.Weighted>
-5.3190

> <Gold.Chemscore.Internal_Hbond.Weighted>
0.0000

> <Gold.Chemscore.DEClash.Weighted>
0.0182

> <Gold.Chemscore.DEInternal.Weighted>
0.6247

> <Gold.Chemscore.Rot.Weighted>
6.3016

> <Gold.Chemscore.Internal.Correction.Weighted>
   9.000000E+99

> <Gold.Protein.RotatedTorsions>
[ 6907 6896 6895 6894 ] final  103.85 input  -60.11 | X-H torsion
[ 7974 7965 7964 7962 ] final -100.84 input  175.53 | X-H torsion
[ 8008 7997 7996 7995 ] final   86.90 input   59.86 | X-H torsion
[ 10167 10162 10161 10158 ] final  178.89 input  -65.29 | X-H torsion
[ 10718 10713 10712 10709 ] final  -79.93 input   66.30 | X-H torsion
[ 10763 10752 10751 10750 ] final -131.75 input  -60.55 | X-H torsion
[ 11005 11000 10999 10996 ] final  121.53 input  -57.11 | X-H torsion

> <Gold.Protein.ActiveResidues>
 VAL166  LYS551  ARG553  GLY616  TRP617  ASP618  TYR619  PRO620  LYS621  CYS622 
 ASP623  PHE694  ASN695  SER759  ASP760  ASP761  ALA762  ILE779  LEU786  VAL792 
 PHE793  MET794  SER795  GLU796  ALA797  LYS798  CYS799  TRP800  GLU811  SER814 

> <Gold.Protein.RotatedAtoms>
  152.5283  133.9764  159.7785 H   0  0  0  0  0  0  0  0  0  0  0  0  # atno 6907 bound_to 6896
  151.0026  133.6033  159.2700 H   0  0  0  0  0  0  0  0  0  0  0  0  # atno 6908 bound_to 6896
  151.3137  135.0807  159.9334 H   0  0  0  0  0  0  0  0  0  0  0  0  # atno 6909 bound_to 6896
  145.2893  140.9348  143.2887 H   0  0  0  0  0  0  0  0  0  0  0  0  # atno 7974 bound_to 7965
  155.9686  140.3387  155.6555 H   0  0  0  0  0  0  0  0  0  0  0  0  # atno 8008 bound_to 7997
  155.6705  140.0726  157.2540 H   0  0  0  0  0  0  0  0  0  0  0  0  # atno 8009 bound_to 7997
  154.4160  140.1692  156.1861 H   0  0  0  0  0  0  0  0  0  0  0  0  # atno 8010 bound_to 7997
  139.5313  144.2626  152.0694 H   0  0  0  0  0  0  0  0  0  0  0  0  # atno 10167 bound_to 10162
  156.0081  130.4560  150.3723 H   0  0  0  0  0  0  0  0  0  0  0  0  # atno 10718 bound_to 10713
  154.8748  135.3820  154.4298 H   0  0  0  0  0  0  0  0  0  0  0  0  # atno 10763 bound_to 10752
  153.4993  135.7030  153.5846 H   0  0  0  0  0  0  0  0  0  0  0  0  # atno 10764 bound_to 10752
  153.4185  135.3907  155.2062 H   0  0  0  0  0  0  0  0  0  0  0  0  # atno 10765 bound_to 10752
  139.9230  134.9639  156.7972 H   0  0  0  0  0  0  0  0  0  0  0  0  # atno 11005 bound_to 11000
  144.9186  139.4439  143.6552 LP  0  0  0  0  0  0  0  0  0  0  0  0  # atno 17320 bound_to 7965
  146.3190  139.8034  142.8961 LP  0  0  0  0  0  0  0  0  0  0  0  0  # atno 17321 bound_to 7965
  140.2090  144.4582  150.6395 LP  0  0  0  0  0  0  0  0  0  0  0  0  # atno 17342 bound_to 10162
  140.6492  143.2221  151.6115 LP  0  0  0  0  0  0  0  0  0  0  0  0  # atno 17343 bound_to 10162
  157.1807  131.0391  151.2750 LP  0  0  0  0  0  0  0  0  0  0  0  0  # atno 17370 bound_to 10713
  157.4148  130.7405  149.6867 LP  0  0  0  0  0  0  0  0  0  0  0  0  # atno 17371 bound_to 10713
  140.6419  133.9811  155.7711 LP  0  0  0  0  0  0  0  0  0  0  0  0  # atno 17394 bound_to 11000
  141.0766  134.0126  157.3449 LP  0  0  0  0  0  0  0  0  0  0  0  0  # atno 17395 bound_to 11000

$$$$
