#       Name:                AV-unprocessed.smi:2588
#       Creating user name   scv26
#       Creation time:       Fri Mar 27 14:16:18 2020


#       File generated by GOLD software.
#

@<TRIPOS>MOLECULE
AV-unprocessed.smi:2588
    45    46     1
SMALL
NO_CHARGES


@<TRIPOS>ATOM
      1 ****        -2.5368  -1.7007   3.0693 C.3            1 S1                 0.0000
      2 ****        -2.1338  -1.5745   1.5847 C.3            1 S1                 0.0000
      3 ****        -2.7316  -2.7735   0.8177 C.3            1 S1                 0.0000
      4 ****        -0.6498  -1.4547   1.3998 N.4            1 S1                 1.0000
      5 ****        -0.0445  -0.3344   2.1801 C.3            1 S1                 0.0000
      6 ****         1.4897  -0.2856   2.0454 C.3            1 S1                 0.0000
      7 ****         1.9403  -0.2033   0.5812 C.3            1 S1                 0.0000
      8 ****         1.5929   1.0993   0.0154 N.am           1 S1                 0.0000
      9 ****         2.0287   1.5823  -1.1579 C.2            1 S1                 0.0000
     10 ****         2.8253   0.9860  -1.8825 O.2            1 S1                 0.0000
     11 ****         1.4837   2.9530  -1.5724 C.3            1 S1                 0.0000
     12 ****         0.9327   2.9336  -2.9274 N.am           1 S1                 0.0000
     13 ****         1.6036   3.5979  -3.9064 N.2            1 S1                 0.0000
     14 ****         1.0116   3.4885  -5.0378 C.2            1 S1                 0.0000
     15 ****        -0.4806   2.5390  -5.0497 S.3            1 S1                 0.0000
     16 ****        -0.2388   2.2793  -3.3003 C.2            1 S1                 0.0000
     17 ****        -1.0067   1.6237  -2.5971 O.2            1 S1                 0.0000
     18 ****         1.2930  -1.3649  -0.1932 C.3            1 S1                 0.0000
     19 ****        -0.2370  -1.3853  -0.0330 C.3            1 S1                 0.0000
     20 ****        -3.6015  -1.9143   3.1702 H              1 S1                 0.0000
     21 ****        -2.3651  -0.7805   3.6265 H              1 S1                 0.0000
     22 ****        -1.9934  -2.5074   3.5623 H              1 S1                 0.0000
     23 ****        -2.5946  -0.6668   1.1920 H              1 S1                 0.0000
     24 ****        -3.7831  -2.9156   1.0691 H              1 S1                 0.0000
     25 ****        -2.2099  -3.7006   1.0584 H              1 S1                 0.0000
     26 ****        -2.7017  -2.6333  -0.2625 H              1 S1                 0.0000
     27 ****        -0.4845   0.6108   1.8585 H              1 S1                 0.0000
     28 ****        -0.2617  -0.4381   3.2415 H              1 S1                 0.0000
     29 ****         1.8873   0.5592   2.6097 H              1 S1                 0.0000
     30 ****         1.9161  -1.1797   2.5023 H              1 S1                 0.0000
     31 ****         3.0261  -0.3072   0.5437 H              1 S1                 0.0000
     32 ****         0.9542   1.6718   0.5484 H              1 S1                 0.0000
     33 ****         0.7082   3.2805  -0.8775 H              1 S1                 0.0000
     34 ****         2.2913   3.6832  -1.4997 H              1 S1                 0.0000
     35 ****         1.3415   3.9232  -5.9813 H              1 S1                 0.0000
     36 ****         1.5539  -1.3197  -1.2509 H              1 S1                 0.0000
     37 ****         1.7010  -2.3085   0.1717 H              1 S1                 0.0000
     38 ****        -0.5971  -2.2514  -0.5844 H              1 S1                 0.0000
     39 ****        -0.6811  -0.5050  -0.5007 H              1 S1                 0.0000
     40 ****        -0.2497  -2.3060   1.7680 H              1 S1                 0.0000
     41 ****         3.1816   0.0935  -1.6058 LP             1 S1                 0.0000
     42 ****         3.1162   1.3940  -2.7479 LP             1 S1                 0.0000
     43 ****         2.4518   4.1074  -3.7617 LP             1 S1                 0.0000
     44 ****        -0.8177   1.5102  -1.6217 LP             1 S1                 0.0000
     45 ****        -1.8197   1.2043  -3.0010 LP             1 S1                 0.0000
@<TRIPOS>BOND
    1    1    2 1     
    2    1   20 1     
    3    1   21 1     
    4    1   22 1     
    5    2    3 1     
    6    2    4 1     
    7    2   23 1     
    8    3   24 1     
    9    3   25 1     
   10    3   26 1     
   11    4   19 1     
   12    4    5 1     
   13    4   40 1     
   14    5    6 1     
   15    5   27 1     
   16    5   28 1     
   17    6    7 1     
   18    6   29 1     
   19    6   30 1     
   20    7    8 1     
   21    7   18 1     
   22    7   31 1     
   23    8    9 am    
   24    8   32 1     
   25    9   10 2     
   26    9   11 1     
   27   11   12 1     
   28   11   33 1     
   29   11   34 1     
   30   12   16 am    
   31   12   13 1     
   32   13   14 2     
   33   14   15 1     
   34   14   35 1     
   35   15   16 1     
   36   16   17 2     
   37   18   19 1     
   38   18   36 1     
   39   18   37 1     
   40   19   38 1     
   41   19   39 1     
   42   10   41 1     
   43   10   42 1     
   44   13   43 1     
   45   17   44 1     
   46   17   45 1     
@<TRIPOS>SUBSTRUCTURE
      1 S1             1
@<TRIPOS>SET
LONE_PAIRS      STATIC     ATOMS    <user>   **** ""
5 41 42 43 44 45
DONOR_HYDROGENS      STATIC     ATOMS    <user>   **** ""
2 40 32
ATOM$BLUE        STATIC     ATOMS    COLORGROUP SYSTEM
5 41 42 43 44 45
ATOM$RED        STATIC     ATOMS    COLORGROUP SYSTEM
2 40 32
