AV-unprocessed.smi:26|AV-procd|sdf|183|dock8
  -GOLD-   2262015443D 1   1.00000     0.00000
 Structure written by MMmdl.
 58 61  0  0  0  0  0  0  0  0  1 V2000
  146.8707  138.1495  158.6024 C   0  0  0  0  0  0  0  0  0  0  0  0
  148.1173  137.6056  157.9804 C   0  0  0  0  0  0  0  0  0  0  0  0
  149.1171  138.2820  157.3487 C   0  0  0  0  0  0  0  0  0  0  0  0
  150.1000  137.3478  156.9259 C   0  0  0  0  0  0  0  0  0  0  0  0
  151.3610  137.6172  156.1869 C   0  0  0  0  0  0  0  0  0  0  0  0
  152.0694  136.7292  155.7103 O   0  0  0  0  0  0  0  0  0  0  0  0
  151.7407  139.1023  156.0346 C   0  0  0  0  0  0  0  0  0  0  0  0
  152.0121  139.7600  157.3075 N   0  0  0  0  0  0  0  0  0  0  0  0
  152.8978  139.1170  158.2079 C   0  0  0  0  0  0  0  0  0  0  0  0
  153.4350  138.0400  157.9429 O   0  0  0  0  0  0  0  0  0  0  0  0
  153.1262  139.8415  159.4524 C   0  0  0  0  0  0  0  0  0  0  0  0
  153.9552  139.3293  160.3777 F   0  0  0  0  0  0  0  0  0  0  0  0
  152.5203  141.0243  159.6918 C   0  0  0  0  0  0  0  0  0  0  0  0
  151.6497  141.6263  158.8012 N   0  0  0  0  0  0  0  0  0  0  0  0
  151.0716  142.9812  159.1489 C   0  0  2  0  0  0  0  0  0  0  0  0
  151.6783  144.1413  158.3452 C   0  0  0  0  0  0  0  0  0  0  0  0
  151.6656  145.2497  159.3756 C   0  0  0  0  0  0  0  0  0  0  0  0
  151.9486  144.4873  160.6656 C   0  0  0  0  0  0  0  0  0  0  0  0
  151.2851  143.2359  160.5073 O   0  0  0  0  0  0  0  0  0  0  0  0
  151.3955  141.0116  157.5521 C   0  0  0  0  0  0  0  0  0  0  0  0
  150.6773  141.5496  156.7078 O   0  0  0  0  0  0  0  0  0  0  0  0
  149.6798  136.0991  157.3253 C   0  0  0  0  0  0  0  0  0  0  0  0
  150.3503  134.7640  157.1473 C   0  0  0  0  0  0  0  0  0  0  0  0
  148.4368  136.2496  157.9582 N   0  0  0  0  0  0  0  0  0  0  0  0
  147.5908  135.1917  158.5329 C   0  0  2  0  0  0  0  0  0  0  0  0
  146.1605  135.2444  157.9594 C   0  0  0  0  0  0  0  0  0  0  0  0
  147.7104  135.1135  160.0580 C   0  0  0  0  0  0  0  0  0  0  0  0
  147.1858  133.9846  160.7274 C   0  0  0  0  0  0  0  0  0  0  0  0
  147.2669  133.8785  162.1290 C   0  0  0  0  0  0  0  0  0  0  0  0
  147.8696  134.9054  162.8786 C   0  0  0  0  0  0  0  0  0  0  0  0
  148.3891  136.0378  162.2240 C   0  0  0  0  0  0  0  0  0  0  0  0
  148.3079  136.1442  160.8218 C   0  0  0  0  0  0  0  0  0  0  0  0
  146.8699  139.2394  158.5792 H   0  0  0  0  0  0  0  0  0  0  0  0
  146.7850  137.8418  159.6445 H   0  0  0  0  0  0  0  0  0  0  0  0
  145.9859  137.8070  158.0658 H   0  0  0  0  0  0  0  0  0  0  0  0
  149.1353  139.3521  157.2040 H   0  0  0  0  0  0  0  0  0  0  0  0
  152.6223  139.2155  155.4019 H   0  0  0  0  0  0  0  0  0  0  0  0
  150.9503  139.6585  155.5285 H   0  0  0  0  0  0  0  0  0  0  0  0
  152.7315  141.5170  160.6296 H   0  0  0  0  0  0  0  0  0  0  0  0
  149.9958  142.9002  158.9884 H   0  0  0  0  0  0  0  0  0  0  0  0
  152.6976  143.9240  158.0292 H   0  0  0  0  0  0  0  0  0  0  0  0
  151.0784  144.3606  157.4620 H   0  0  0  0  0  0  0  0  0  0  0  0
  152.3966  146.0326  159.1727 H   0  0  0  0  0  0  0  0  0  0  0  0
  150.6765  145.7072  159.4207 H   0  0  0  0  0  0  0  0  0  0  0  0
  153.0191  144.3182  160.7834 H   0  0  0  0  0  0  0  0  0  0  0  0
  151.5932  145.0156  161.5503 H   0  0  0  0  0  0  0  0  0  0  0  0
  150.2965  134.4452  156.1065 H   0  0  0  0  0  0  0  0  0  0  0  0
  149.9172  133.9766  157.7553 H   0  0  0  0  0  0  0  0  0  0  0  0
  151.4016  134.8185  157.4286 H   0  0  0  0  0  0  0  0  0  0  0  0
  147.9894  134.2312  158.2118 H   0  0  0  0  0  0  0  0  0  0  0  0
  145.5797  134.3766  158.2729 H   0  0  0  0  0  0  0  0  0  0  0  0
  146.1843  135.2360  156.8693 H   0  0  0  0  0  0  0  0  0  0  0  0
  145.6156  136.1372  158.2625 H   0  0  0  0  0  0  0  0  0  0  0  0
  146.7182  133.1911  160.1626 H   0  0  0  0  0  0  0  0  0  0  0  0
  146.8653  133.0090  162.6285 H   0  0  0  0  0  0  0  0  0  0  0  0
  147.9321  134.8254  163.9539 H   0  0  0  0  0  0  0  0  0  0  0  0
  148.8501  136.8278  162.7982 H   0  0  0  0  0  0  0  0  0  0  0  0
  148.7157  137.0245  160.3492 H   0  0  0  0  0  0  0  0  0  0  0  0
  1  2  1  0  0  0  0
  1 33  1  0  0  0  0
  1 34  1  0  0  0  0
  1 35  1  0  0  0  0
  2 24  1  0  0  0  0
  2  3  2  0  0  0  0
  3  4  1  0  0  0  0
  3 36  1  0  0  0  0
  4  5  1  0  0  0  0
  4 22  2  0  0  0  0
  5  6  2  0  0  0  0
  5  7  1  0  0  0  0
  7  8  1  0  0  0  0
  7 37  1  0  0  0  0
  7 38  1  0  0  0  0
  8 20  1  0  0  0  0
  8  9  1  0  0  0  0
  9 10  2  0  0  0  0
  9 11  1  0  0  0  0
 11 12  1  0  0  0  0
 11 13  2  0  0  0  0
 13 14  1  0  0  0  0
 13 39  1  0  0  0  0
 14 15  1  0  0  0  0
 14 20  1  0  0  0  0
 15 19  1  0  0  0  0
 15 16  1  0  0  0  0
 15 40  1  0  0  0  0
 16 17  1  0  0  0  0
 16 41  1  0  0  0  0
 16 42  1  0  0  0  0
 17 18  1  0  0  0  0
 17 43  1  0  0  0  0
 17 44  1  0  0  0  0
 18 19  1  0  0  0  0
 18 45  1  0  0  0  0
 18 46  1  0  0  0  0
 20 21  2  0  0  0  0
 22 23  1  0  0  0  0
 22 24  1  0  0  0  0
 23 47  1  0  0  0  0
 23 48  1  0  0  0  0
 23 49  1  0  0  0  0
 24 25  1  0  0  0  0
 25 26  1  0  0  0  0
 25 27  1  0  0  0  0
 25 50  1  0  0  0  0
 26 51  1  0  0  0  0
 26 52  1  0  0  0  0
 26 53  1  0  0  0  0
 27 32  1  0  0  0  0
 27 28  2  0  0  0  0
 28 29  1  0  0  0  0
 28 54  1  0  0  0  0
 29 30  2  0  0  0  0
 29 55  1  0  0  0  0
 30 31  1  0  0  0  0
 30 56  1  0  0  0  0
 31 32  2  0  0  0  0
 31 57  1  0  0  0  0
 32 58  1  0  0  0  0
M  END
> <s_m_source_file>
AV-unprocessed.smi

> <i_m_source_file_index>
26

> <i_lp_mmshare_version>
43012

> <i_f3d_flags>
0

> <s_epik_input>
W2NIXTFbY0hdW2NIXVtjSF1bY0hdYzFbQ0BASF0oW0NIM10pbjJjKFtDSDNdKWMoW2NIXWMyW0NIM10pQyg9TylbQ0gyXW4zYyg9TyljKEYpW2NIXW4oYzM9TylbQ0BASF00W0NIMl1bQ0gyXVtDSDJdTzQ=

> <s_epik_cmdline>
J2VwaWtfcHl0aG9uJywgJy1waCcsICc3LjAnLCAnLXRuJywgJzgnLCAnLW1hJywgJzIwMCcsICctbWV0YWxfYmluZGluZycsICctaW1hZScsICc8aW5maWxlLm1hZT4nLCAnLW9tYWUnLCAnPG91dGZpbGUubWFlPic=

> <r_lp_tautomer_probability>
1

> <r_epik_Ionization_Penalty>
5.02402e-09

> <r_epik_Ionization_Penalty_Charging>
5.01743e-09

> <r_epik_Ionization_Penalty_Neutral>
6.58831e-12

> <r_epik_State_Penalty>
-0

> <r_epik_Charging_Adjusted_Penalty>
5.01743e-09

> <i_epik_Tot_Q>
0

> <i_epik_Tot_abs_Q>
0

> <r_epik_Metal_State_Penalty>
-0

> <b_epik_Metal_Only>
0

> <s_epik_Chemistry_Notes>
This compound contains an acetal/aminal-like group ( X-CH(R)-Y where X, Y are N, S, or O) that may be acid/base labile, releasing an aldehyde.

> <s_lp_Force_Field>
OPLS_2005

> <r_lp_Energy>
45.9461

> <b_lp_Chiralities_Consistent>
1

> <s_lp_Variant>
AV-unprocessed.smi:26-1

> <Gold.Version>
5.8.1

> <Gold.Id.Protein>
6NUR|6NUR_protein|mol2

> <Gold.PLP.Fitness>
52.0378

> <Gold.PLP.PLP>
-50.4997

> <Gold.PLP.part.hbond>
-1.7790

> <Gold.PLP.part.metal>
0.0000

> <Gold.PLP.part.buried>
-6.1758

> <Gold.PLP.part.nonpolar>
-43.5916

> <Gold.PLP.part.repulsive>
0.1779

> <Gold.PLP.ligand.clash>
0.0000

> <Gold.PLP.ligand.torsion>
0.8969

> <Gold.PLP.Chemscore.Hbond>
1.0000

> <Gold.PLP.Chemscore.CHOScore>
0.0000

> <Gold.PLP.Chemscore.Metal>
0.0000

> <Gold.Chemscore.Hbonds>
donor molecule, donor type, donor heavy atom, donor atom, acceptor molecule, acceptor atom, score
      P1  H 10752 10765       L1     6  1.00

> <Gold.PLP.Chemscore.Internal.Correction>
0.3319

> <Gold.Rescore>
     Score         DG    S(hbond)    S(metal)    S(lipo)     H(rot)  DE(clash)    DE(int)     intcor
     13.37     -18.14       1.09        0.00     117.30       1.84       0.21       4.56       ----

> <Gold.Chemscore.Fitness>
13.3749

> <Gold.Chemscore.DG>
-18.1409

> <Gold.Chemscore.ZeroCoef>
-5.4800

> <Gold.Chemscore.Hbond>
1.0889

> <Gold.Chemscore.Metal>
0.0000

> <Gold.Chemscore.Lipo>
117.2985

> <Gold.Chemscore.Internal_Hbond>
0.0000

> <Gold.Chemscore.DEClash>
0.2055

> <Gold.Chemscore.DEInternal>
4.5605

> <Gold.Chemscore.Rot>
1.8359

> <Gold.Chemscore.Internal.Correction>
   9.000000E+99

> <Gold.Chemscore.Hbonds>
donor molecule, donor type, donor heavy atom, donor atom, acceptor molecule, acceptor atom, score
      P1  H 10752 10765       L1     6  0.99

> <Gold.Chemscore.Hbond.Weighted>
-3.6370

> <Gold.Chemscore.Metal.Weighted>
-0.0000

> <Gold.Chemscore.Lipo.Weighted>
-13.7239

> <Gold.Chemscore.Internal_Hbond.Weighted>
0.0000

> <Gold.Chemscore.DEClash.Weighted>
0.2055

> <Gold.Chemscore.DEInternal.Weighted>
4.5605

> <Gold.Chemscore.Rot.Weighted>
4.7000

> <Gold.Chemscore.Internal.Correction.Weighted>
   9.000000E+99

> <Gold.Protein.RotatedTorsions>
[ 6907 6896 6895 6894 ] final   51.01 input  -60.11 | X-H torsion
[ 7974 7965 7964 7962 ] final   44.77 input  175.53 | X-H torsion
[ 8008 7997 7996 7995 ] final   33.37 input   59.86 | X-H torsion
[ 10167 10162 10161 10158 ] final   35.12 input  -65.29 | X-H torsion
[ 10718 10713 10712 10709 ] final  145.45 input   66.30 | X-H torsion
[ 10763 10752 10751 10750 ] final -161.10 input  -60.55 | X-H torsion
[ 11005 11000 10999 10996 ] final   81.36 input  -57.11 | X-H torsion

> <Gold.Protein.ActiveResidues>
 VAL166  LYS551  ARG553  GLY616  TRP617  ASP618  TYR619  PRO620  LYS621  CYS622 
 ASP623  PHE694  ASN695  SER759  ASP760  ASP761  ALA762  ILE779  LEU786  VAL792 
 PHE793  MET794  SER795  GLU796  ALA797  LYS798  CYS799  TRP800  GLU811  SER814 

> <Gold.Protein.RotatedAtoms>
  152.3080  134.7531  160.0342 H   0  0  0  0  0  0  0  0  0  0  0  0  # atno 6907 bound_to 6896
  151.8022  133.3366  159.3538 H   0  0  0  0  0  0  0  0  0  0  0  0  # atno 6908 bound_to 6896
  150.7306  134.5673  159.5917 H   0  0  0  0  0  0  0  0  0  0  0  0  # atno 6909 bound_to 6896
  146.0539  139.5037  142.9701 H   0  0  0  0  0  0  0  0  0  0  0  0  # atno 7974 bound_to 7965
  155.1374  140.3263  155.4460 H   0  0  0  0  0  0  0  0  0  0  0  0  # atno 8008 bound_to 7997
  156.2615  140.1999  156.6441 H   0  0  0  0  0  0  0  0  0  0  0  0  # atno 8009 bound_to 7997
  154.6567  140.0552  157.0003 H   0  0  0  0  0  0  0  0  0  0  0  0  # atno 8010 bound_to 7997
  140.4252  144.1403  150.6152 H   0  0  0  0  0  0  0  0  0  0  0  0  # atno 10167 bound_to 10162
  157.3451  131.0942  151.1049 H   0  0  0  0  0  0  0  0  0  0  0  0  # atno 10718 bound_to 10713
  154.7333  135.3051  154.8854 H   0  0  0  0  0  0  0  0  0  0  0  0  # atno 10763 bound_to 10752
  153.9691  135.6744  153.4751 H   0  0  0  0  0  0  0  0  0  0  0  0  # atno 10764 bound_to 10752
  153.0938  135.4946  154.8663 H   0  0  0  0  0  0  0  0  0  0  0  0  # atno 10765 bound_to 10752
  139.9101  134.7990  156.2030 H   0  0  0  0  0  0  0  0  0  0  0  0  # atno 11005 bound_to 11000
  145.6677  141.0224  143.1674 LP  0  0  0  0  0  0  0  0  0  0  0  0  # atno 17320 bound_to 7965
  144.7137  139.8274  143.7406 LP  0  0  0  0  0  0  0  0  0  0  0  0  # atno 17321 bound_to 7965
  140.4489  143.2495  151.9374 LP  0  0  0  0  0  0  0  0  0  0  0  0  # atno 17342 bound_to 10162
  139.4783  144.5581  151.8282 LP  0  0  0  0  0  0  0  0  0  0  0  0  # atno 17343 bound_to 10162
  157.2246  130.6497  149.5825 LP  0  0  0  0  0  0  0  0  0  0  0  0  # atno 17370 bound_to 10713
  155.9713  130.4618  150.6123 LP  0  0  0  0  0  0  0  0  0  0  0  0  # atno 17371 bound_to 10713
  141.0513  133.6887  156.1776 LP  0  0  0  0  0  0  0  0  0  0  0  0  # atno 17394 bound_to 11000
  140.6806  134.4771  157.5589 LP  0  0  0  0  0  0  0  0  0  0  0  0  # atno 17395 bound_to 11000

$$$$
