AV-unprocessed.smi:3166|AV-procd|sdf|12096|dock8
  -GOLD-   2272017533D 1   1.00000     0.00000
 Structure written by MMmdl.
 40 41  0  0  0  0  0  0  0  0  1 V2000
  144.0179  136.6106  152.5130 C   0  0  0  0  0  0  0  0  0  0  0  0
  145.4102  135.9945  152.3034 C   0  0  1  0  0  0  0  0  0  0  0  0
  145.6642  135.5938  150.8282 C   0  0  0  0  0  0  0  0  0  0  0  0
  145.4138  134.1878  150.5514 N   0  0  0  0  0  0  0  0  0  0  0  0
  144.2011  133.5413  150.4305 C   0  0  0  0  0  0  0  0  0  0  0  0
  144.4635  132.2280  150.1656 C   0  0  0  0  0  0  0  0  0  0  0  0
  145.8847  132.1666  150.1396 C   0  0  0  0  0  0  0  0  0  0  0  0
  146.4506  133.3410  150.3660 N   0  0  0  0  0  0  0  0  0  0  0  0
  146.4288  136.9084  152.8314 N   0  0  0  0  0  0  0  0  0  0  0  0
  146.3949  138.2732  152.3000 C   0  0  0  0  0  0  0  0  0  0  0  0
  146.7710  139.3286  153.3644 C   0  0  0  0  0  0  0  0  0  0  0  0
  145.7184  139.3577  154.3122 O   0  0  0  0  0  0  0  0  0  0  0  0
  148.0528  138.8773  154.1044 C   0  0  0  0  0  0  0  0  0  0  0  0
  148.5592  139.9135  155.1239 C   0  0  0  0  0  0  0  0  0  0  0  0
  148.7724  141.2833  154.4656 C   0  0  0  0  0  0  0  0  0  0  0  0
  147.4868  141.7677  153.7816 C   0  0  0  0  0  0  0  0  0  0  0  0
  146.9727  140.7406  152.7568 C   0  0  0  0  0  0  0  0  0  0  0  0
  143.2366  135.9471  152.1417 H   0  0  0  0  0  0  0  0  0  0  0  0
  143.9161  137.5663  151.9977 H   0  0  0  0  0  0  0  0  0  0  0  0
  143.8232  136.7861  153.5714 H   0  0  0  0  0  0  0  0  0  0  0  0
  145.4386  135.0778  152.8937 H   0  0  0  0  0  0  0  0  0  0  0  0
  145.0655  136.1930  150.1426 H   0  0  0  0  0  0  0  0  0  0  0  0
  146.7016  135.8133  150.5707 H   0  0  0  0  0  0  0  0  0  0  0  0
  143.2630  134.0639  150.5438 H   0  0  0  0  0  0  0  0  0  0  0  0
  143.7492  131.4325  150.0134 H   0  0  0  0  0  0  0  0  0  0  0  0
  146.5179  131.3098  149.9622 H   0  0  0  0  0  0  0  0  0  0  0  0
  147.3516  136.5142  152.6772 H   0  0  0  0  0  0  0  0  0  0  0  0
  147.0712  138.3576  151.4482 H   0  0  0  0  0  0  0  0  0  0  0  0
  145.3979  138.4997  151.9241 H   0  0  0  0  0  0  0  0  0  0  0  0
  144.9224  139.6028  153.8659 H   0  0  0  0  0  0  0  0  0  0  0  0
  147.8851  137.9222  154.6047 H   0  0  0  0  0  0  0  0  0  0  0  0
  148.8434  138.6978  153.3743 H   0  0  0  0  0  0  0  0  0  0  0  0
  147.8464  140.0069  155.9441 H   0  0  0  0  0  0  0  0  0  0  0  0
  149.4928  139.5677  155.5684 H   0  0  0  0  0  0  0  0  0  0  0  0
  149.0936  142.0098  155.2126 H   0  0  0  0  0  0  0  0  0  0  0  0
  149.5762  141.2172  153.7312 H   0  0  0  0  0  0  0  0  0  0  0  0
  146.7196  141.9547  154.5339 H   0  0  0  0  0  0  0  0  0  0  0  0
  147.6684  142.7224  153.2871 H   0  0  0  0  0  0  0  0  0  0  0  0
  147.6880  140.6771  151.9358 H   0  0  0  0  0  0  0  0  0  0  0  0
  146.0441  141.1094  152.3200 H   0  0  0  0  0  0  0  0  0  0  0  0
  1  2  1  0  0  0  0
  1 18  1  0  0  0  0
  1 19  1  0  0  0  0
  1 20  1  0  0  0  0
  2  3  1  0  0  0  0
  2  9  1  0  0  0  0
  2 21  1  0  0  0  0
  3  4  1  0  0  0  0
  3 22  1  0  0  0  0
  3 23  1  0  0  0  0
  4  8  1  0  0  0  0
  4  5  1  0  0  0  0
  5  6  2  0  0  0  0
  5 24  1  0  0  0  0
  6  7  1  0  0  0  0
  6 25  1  0  0  0  0
  7  8  2  0  0  0  0
  7 26  1  0  0  0  0
  9 10  1  0  0  0  0
  9 27  1  0  0  0  0
 10 11  1  0  0  0  0
 10 28  1  0  0  0  0
 10 29  1  0  0  0  0
 11 17  1  0  0  0  0
 11 12  1  0  0  0  0
 11 13  1  0  0  0  0
 12 30  1  0  0  0  0
 13 14  1  0  0  0  0
 13 31  1  0  0  0  0
 13 32  1  0  0  0  0
 14 15  1  0  0  0  0
 14 33  1  0  0  0  0
 14 34  1  0  0  0  0
 15 16  1  0  0  0  0
 15 35  1  0  0  0  0
 15 36  1  0  0  0  0
 16 17  1  0  0  0  0
 16 37  1  0  0  0  0
 16 38  1  0  0  0  0
 17 39  1  0  0  0  0
 17 40  1  0  0  0  0
M  END
> <s_m_source_file>
AV-unprocessed.smi

> <i_m_source_file_index>
3166

> <i_lp_mmshare_version>
43012

> <i_f3d_flags>
0

> <s_epik_input>
bjFbY0hdW2NIXVtjSF1uMVtDSDJdW0NAQEhdKFtDSDNdKVtOSF1bQ0gyXUMyKFtPSF0pW0NIMl1bQ0gyXVtDSDJdW0NIMl1bQ0gyXTI=

> <s_epik_cmdline>
J2VwaWtfcHl0aG9uJywgJy1waCcsICc3LjAnLCAnLXRuJywgJzgnLCAnLW1hJywgJzIwMCcsICctbWV0YWxfYmluZGluZycsICctaW1hZScsICc8aW5maWxlLm1hZT4nLCAnLW9tYWUnLCAnPG91dGZpbGUubWFlPic=

> <r_lp_tautomer_probability>
1

> <r_epik_Ionization_Penalty>
2.35964

> <r_epik_Ionization_Penalty_Charging>
0

> <r_epik_Ionization_Penalty_Neutral>
2.35964

> <r_epik_State_Penalty>
2.51455

> <r_epik_Charging_Adjusted_Penalty>
2.51455

> <i_epik_Tot_Q>
0

> <i_epik_Tot_abs_Q>
0

> <r_epik_Metal_State_Penalty>
2.51451

> <b_epik_Metal_Only>
0

> <s_lp_Force_Field>
OPLS_2005

> <r_lp_Energy>
22.3921

> <b_lp_Chiralities_Consistent>
1

> <s_lp_Variant>
AV-unprocessed.smi:3166-4

> <Gold.Version>
5.8.1

> <Gold.Id.Protein>
6NUR|6NUR_protein|mol2

> <Gold.PLP.Fitness>
43.4773

> <Gold.PLP.PLP>
-33.6398

> <Gold.PLP.part.hbond>
-2.0000

> <Gold.PLP.part.metal>
0.0000

> <Gold.PLP.part.buried>
-4.3226

> <Gold.PLP.part.nonpolar>
-27.9818

> <Gold.PLP.part.repulsive>
0.2222

> <Gold.PLP.ligand.clash>
0.0000

> <Gold.PLP.ligand.torsion>
1.0852

> <Gold.PLP.Chemscore.Hbond>
1.9913

> <Gold.PLP.Chemscore.CHOScore>
2.0000

> <Gold.PLP.Chemscore.Metal>
0.0000

> <Gold.Chemscore.Hbonds>
donor molecule, donor type, donor heavy atom, donor atom, acceptor molecule, acceptor atom, score
      L1  H     9    27       P1  7948  1.00
      L1  H    12    30       P1 10175  0.94
      L1  C     5    24       P1 10186  1.00
      L1  C     7    26       P1 10747  1.00

> <Gold.PLP.Chemscore.Internal.Correction>
0.0342

> <Gold.Rescore>
     Score         DG    S(hbond)    S(metal)    S(lipo)     H(rot)  DE(clash)    DE(int)     intcor
     15.96     -17.27       1.95        0.00      91.43       2.12       0.16       1.15       ----

> <Gold.Chemscore.Fitness>
15.9618

> <Gold.Chemscore.DG>
-17.2726

> <Gold.Chemscore.ZeroCoef>
-5.4800

> <Gold.Chemscore.Hbond>
1.9535

> <Gold.Chemscore.Metal>
0.0000

> <Gold.Chemscore.Lipo>
91.4329

> <Gold.Chemscore.Internal_Hbond>
0.0000

> <Gold.Chemscore.DEClash>
0.1639

> <Gold.Chemscore.DEInternal>
1.1469

> <Gold.Chemscore.Rot>
2.1209

> <Gold.Chemscore.Internal.Correction>
   9.000000E+99

> <Gold.Chemscore.Hbonds>
donor molecule, donor type, donor heavy atom, donor atom, acceptor molecule, acceptor atom, score
      L1  H     9    27       P1  7948  0.99
      L1  H    12    30       P1 10175  0.90

> <Gold.Chemscore.Hbond.Weighted>
-6.5246

> <Gold.Chemscore.Metal.Weighted>
-0.0000

> <Gold.Chemscore.Lipo.Weighted>
-10.6977

> <Gold.Chemscore.Internal_Hbond.Weighted>
0.0000

> <Gold.Chemscore.DEClash.Weighted>
0.1639

> <Gold.Chemscore.DEInternal.Weighted>
1.1469

> <Gold.Chemscore.Rot.Weighted>
5.4296

> <Gold.Chemscore.Internal.Correction.Weighted>
   9.000000E+99

> <Gold.Protein.RotatedTorsions>
[ 6907 6896 6895 6894 ] final  -36.70 input  -60.11 | X-H torsion
[ 7974 7965 7964 7962 ] final   -9.13 input  175.53 | X-H torsion
[ 8008 7997 7996 7995 ] final  -67.32 input   59.86 | X-H torsion
[ 10167 10162 10161 10158 ] final  162.84 input  -65.29 | X-H torsion
[ 10718 10713 10712 10709 ] final   87.07 input   66.30 | X-H torsion
[ 10763 10752 10751 10750 ] final   60.87 input  -60.55 | X-H torsion
[ 11005 11000 10999 10996 ] final -100.13 input  -57.11 | X-H torsion

> <Gold.Protein.ActiveResidues>
 VAL166  LYS551  ARG553  GLY616  TRP617  ASP618  TYR619  PRO620  LYS621  CYS622 
 ASP623  PHE694  ASN695  SER759  ASP760  ASP761  ALA762  ILE779  LEU786  VAL792 
 PHE793  MET794  SER795  GLU796  ALA797  LYS798  CYS799  TRP800  GLU811  SER814 

> <Gold.Protein.RotatedAtoms>
  151.0238  134.9489  159.8073 H   0  0  0  0  0  0  0  0  0  0  0  0  # atno 6907 bound_to 6896
  152.5331  134.2868  159.9038 H   0  0  0  0  0  0  0  0  0  0  0  0  # atno 6908 bound_to 6896
  151.2876  133.4138  159.2665 H   0  0  0  0  0  0  0  0  0  0  0  0  # atno 6909 bound_to 6896
  146.2261  140.2570  142.8350 H   0  0  0  0  0  0  0  0  0  0  0  0  # atno 7974 bound_to 7965
  154.4792  140.0895  156.7337 H   0  0  0  0  0  0  0  0  0  0  0  0  # atno 8008 bound_to 7997
  155.4514  140.3457  155.4283 H   0  0  0  0  0  0  0  0  0  0  0  0  # atno 8009 bound_to 7997
  156.1165  140.1462  156.9253 H   0  0  0  0  0  0  0  0  0  0  0  0  # atno 8010 bound_to 7997
  139.4866  144.4398  151.8967 H   0  0  0  0  0  0  0  0  0  0  0  0  # atno 10167 bound_to 10162
  157.6936  131.0241  150.3069 H   0  0  0  0  0  0  0  0  0  0  0  0  # atno 10718 bound_to 10713
  152.9933  135.5521  154.5943 H   0  0  0  0  0  0  0  0  0  0  0  0  # atno 10763 bound_to 10752
  154.5298  135.2813  155.1192 H   0  0  0  0  0  0  0  0  0  0  0  0  # atno 10764 bound_to 10752
  154.2512  135.6398  153.5293 H   0  0  0  0  0  0  0  0  0  0  0  0  # atno 10765 bound_to 10752
  141.1282  133.8375  157.1062 H   0  0  0  0  0  0  0  0  0  0  0  0  # atno 11005 bound_to 11000
  144.9368  140.8035  143.5655 LP  0  0  0  0  0  0  0  0  0  0  0  0  # atno 17320 bound_to 7965
  145.2518  139.2028  143.4938 LP  0  0  0  0  0  0  0  0  0  0  0  0  # atno 17321 bound_to 7965
  140.3849  144.2689  150.5905 LP  0  0  0  0  0  0  0  0  0  0  0  0  # atno 17342 bound_to 10162
  140.5200  143.2268  151.8404 LP  0  0  0  0  0  0  0  0  0  0  0  0  # atno 17343 bound_to 10162
  156.3576  130.3841  149.7278 LP  0  0  0  0  0  0  0  0  0  0  0  0  # atno 17370 bound_to 10713
  156.4735  130.8007  151.3024 LP  0  0  0  0  0  0  0  0  0  0  0  0  # atno 17371 bound_to 10713
  140.0303  134.9904  157.0767 LP  0  0  0  0  0  0  0  0  0  0  0  0  # atno 17394 bound_to 11000
  140.4296  134.1794  155.7167 LP  0  0  0  0  0  0  0  0  0  0  0  0  # atno 17395 bound_to 11000

$$$$
