AV-unprocessed.smi:1836|AV-procd|sdf|7477|dock6
  -GOLD-   22720 9173D 1   1.00000     0.00000
 Structure written by MMmdl.
 33 34  0  0  0  0  0  0  0  0  1 V2000
  151.6606  144.6307  158.3889 C   0  0  0  0  0  0  0  0  0  0  0  0
  151.0848  143.2100  158.4716 C   0  0  2  0  0  0  0  0  0  0  0  0
  152.2044  142.1498  158.3795 C   0  0  0  0  0  0  0  0  0  0  0  0
  152.8914  141.9602  159.6562 N   0  0  0  0  0  0  0  0  0  0  0  0
  152.7869  142.9579  160.7077 C   0  0  0  0  0  0  0  0  0  0  0  0
  153.4487  142.3133  161.9336 C   0  0  0  0  0  0  0  0  0  0  0  0
  154.2373  141.1139  161.3968 C   0  0  0  0  0  0  0  0  0  0  0  0
  153.7104  140.9523  159.9812 C   0  0  0  0  0  0  0  0  0  0  0  0
  154.0173  140.0041  159.2601 O   0  0  0  0  0  0  0  0  0  0  0  0
  150.1274  143.0444  157.3796 N   0  0  0  0  0  0  0  0  0  0  0  0
  149.6829  141.8723  156.9023 C   0  0  0  0  0  0  0  0  0  0  0  0
  150.0297  140.7793  157.3502 O   0  0  0  0  0  0  0  0  0  0  0  0
  148.8305  142.0577  155.8818 N   0  0  0  0  0  0  0  0  0  0  0  0
  148.1941  141.0713  155.0882 C   0  0  0  0  0  0  0  0  0  0  0  0
  147.0972  141.4242  154.4075 N   0  0  0  0  0  0  0  0  0  0  0  0
  146.5773  140.3654  153.6730 N   0  0  0  0  0  0  0  0  0  0  0  0
  147.3053  139.2551  153.8263 C   0  0  0  0  0  0  0  0  0  0  0  0
  148.7001  139.3918  154.8821 S   0  0  0  0  0  0  0  0  0  0  0  0
  152.3605  144.8183  159.2037 H   0  0  0  0  0  0  0  0  0  0  0  0
  150.8710  145.3799  158.4583 H   0  0  0  0  0  0  0  0  0  0  0  0
  152.1918  144.7917  157.4501 H   0  0  0  0  0  0  0  0  0  0  0  0
  150.5855  143.1228  159.4384 H   0  0  0  0  0  0  0  0  0  0  0  0
  151.8143  141.2016  158.0048 H   0  0  0  0  0  0  0  0  0  0  0  0
  152.9517  142.4702  157.6520 H   0  0  0  0  0  0  0  0  0  0  0  0
  153.3209  143.8592  160.4032 H   0  0  0  0  0  0  0  0  0  0  0  0
  151.7476  143.2248  160.9024 H   0  0  0  0  0  0  0  0  0  0  0  0
  154.0873  143.0192  162.4656 H   0  0  0  0  0  0  0  0  0  0  0  0
  152.6853  141.9700  162.6330 H   0  0  0  0  0  0  0  0  0  0  0  0
  155.3073  141.3211  161.3657 H   0  0  0  0  0  0  0  0  0  0  0  0
  154.0700  140.2135  161.9888 H   0  0  0  0  0  0  0  0  0  0  0  0
  149.7900  143.8900  156.9434 H   0  0  0  0  0  0  0  0  0  0  0  0
  148.6234  143.0137  155.6334 H   0  0  0  0  0  0  0  0  0  0  0  0
  147.0187  138.3494  153.3125 H   0  0  0  0  0  0  0  0  0  0  0  0
  1  2  1  0  0  0  0
  1 19  1  0  0  0  0
  1 20  1  0  0  0  0
  1 21  1  0  0  0  0
  2  3  1  0  0  0  0
  2 10  1  0  0  0  0
  2 22  1  0  0  0  0
  3  4  1  0  0  0  0
  3 23  1  0  0  0  0
  3 24  1  0  0  0  0
  4  8  1  0  0  0  0
  4  5  1  0  0  0  0
  5  6  1  0  0  0  0
  5 25  1  0  0  0  0
  5 26  1  0  0  0  0
  6  7  1  0  0  0  0
  6 27  1  0  0  0  0
  6 28  1  0  0  0  0
  7  8  1  0  0  0  0
  7 29  1  0  0  0  0
  7 30  1  0  0  0  0
  8  9  2  0  0  0  0
 10 11  1  0  0  0  0
 10 31  1  0  0  0  0
 11 12  2  0  0  0  0
 11 13  1  0  0  0  0
 13 14  1  0  0  0  0
 13 32  1  0  0  0  0
 14 18  1  0  0  0  0
 14 15  2  0  0  0  0
 15 16  1  0  0  0  0
 16 17  2  0  0  0  0
 17 18  1  0  0  0  0
 17 33  1  0  0  0  0
M  END
> <s_m_source_file>
AV-unprocessed.smi

> <i_m_source_file_index>
1836

> <i_lp_mmshare_version>
43012

> <i_f3d_flags>
0

> <s_epik_input>
Tz1DMVtDSDJdW0NIMl1bQ0gyXU4xW0NIMl1bQ0BASF0oW0NIM10pW05IXUMoPU8pW05IXWMybm5bY0hdczI=

> <s_epik_cmdline>
J2VwaWtfcHl0aG9uJywgJy1waCcsICc3LjAnLCAnLXRuJywgJzgnLCAnLW1hJywgJzIwMCcsICctbWV0YWxfYmluZGluZycsICctaW1hZScsICc8aW5maWxlLm1hZT4nLCAnLW9tYWUnLCAnPG91dGZpbGUubWFlPic=

> <r_lp_tautomer_probability>
1

> <r_epik_Ionization_Penalty>
0.00192022

> <r_epik_Ionization_Penalty_Charging>
0

> <r_epik_Ionization_Penalty_Neutral>
0.00192022

> <r_epik_State_Penalty>
-0

> <r_epik_Charging_Adjusted_Penalty>
0

> <i_epik_Tot_Q>
0

> <i_epik_Tot_abs_Q>
0

> <r_epik_Metal_State_Penalty>
0.336618

> <b_epik_Metal_Only>
0

> <s_lp_Force_Field>
OPLS_2005

> <r_lp_Energy>
16.7835

> <b_lp_Chiralities_Consistent>
1

> <s_lp_Variant>
AV-unprocessed.smi:1836-1

> <Gold.Version>
5.8.1

> <Gold.Id.Protein>
6NUR|6NUR_protein|mol2

> <Gold.PLP.Fitness>
47.4416

> <Gold.PLP.PLP>
-37.1025

> <Gold.PLP.part.hbond>
-3.0000

> <Gold.PLP.part.metal>
0.0000

> <Gold.PLP.part.buried>
-1.6841

> <Gold.PLP.part.nonpolar>
-31.8209

> <Gold.PLP.part.repulsive>
0.7461

> <Gold.PLP.ligand.clash>
0.0000

> <Gold.PLP.ligand.torsion>
0.7588

> <Gold.PLP.Chemscore.Hbond>
2.9440

> <Gold.PLP.Chemscore.CHOScore>
1.0000

> <Gold.PLP.Chemscore.Metal>
0.0000

> <Gold.Chemscore.Hbonds>
donor molecule, donor type, donor heavy atom, donor atom, acceptor molecule, acceptor atom, score
      L1  H    10    31       P1  8028  1.00
      L1  H    13    32       P1  8028  1.00
      P1  H  7997  8009       L1     9  0.62

> <Gold.PLP.Chemscore.Internal.Correction>
0.0246

> <Gold.Rescore>
     Score         DG    S(hbond)    S(metal)    S(lipo)     H(rot)  DE(clash)    DE(int)     intcor
     17.31     -19.49       2.89        0.00      75.60       1.76       0.04       2.14       ----

> <Gold.Chemscore.Fitness>
17.3067

> <Gold.Chemscore.DG>
-19.4871

> <Gold.Chemscore.ZeroCoef>
-5.4800

> <Gold.Chemscore.Hbond>
2.8921

> <Gold.Chemscore.Metal>
0.0000

> <Gold.Chemscore.Lipo>
75.6047

> <Gold.Chemscore.Internal_Hbond>
0.0000

> <Gold.Chemscore.DEClash>
0.0396

> <Gold.Chemscore.DEInternal>
2.1408

> <Gold.Chemscore.Rot>
1.7571

> <Gold.Chemscore.Internal.Correction>
   9.000000E+99

> <Gold.Chemscore.Hbonds>
donor molecule, donor type, donor heavy atom, donor atom, acceptor molecule, acceptor atom, score
      L1  H    10    31       P1  8028  0.91
      L1  H    13    32       P1  8028  0.98
      P1  H  7997  8009       L1     9  0.60

> <Gold.Chemscore.Hbond.Weighted>
-9.6596

> <Gold.Chemscore.Metal.Weighted>
-0.0000

> <Gold.Chemscore.Lipo.Weighted>
-8.8457

> <Gold.Chemscore.Internal_Hbond.Weighted>
0.0000

> <Gold.Chemscore.DEClash.Weighted>
0.0396

> <Gold.Chemscore.DEInternal.Weighted>
2.1408

> <Gold.Chemscore.Rot.Weighted>
4.4983

> <Gold.Chemscore.Internal.Correction.Weighted>
   9.000000E+99

> <Gold.Protein.RotatedTorsions>
[ 6907 6896 6895 6894 ] final  -76.38 input  -60.11 | X-H torsion
[ 7974 7965 7964 7962 ] final  149.13 input  175.53 | X-H torsion
[ 8008 7997 7996 7995 ] final  127.07 input   59.86 | X-H torsion
[ 10167 10162 10161 10158 ] final   80.36 input  -65.29 | X-H torsion
[ 10718 10713 10712 10709 ] final  -85.11 input   66.30 | X-H torsion
[ 10763 10752 10751 10750 ] final  -21.30 input  -60.55 | X-H torsion
[ 11005 11000 10999 10996 ] final  -39.75 input  -57.11 | X-H torsion

> <Gold.Protein.ActiveResidues>
 VAL166  LYS551  ARG553  GLY616  TRP617  ASP618  TYR619  PRO620  LYS621  CYS622 
 ASP623  PHE694  ASN695  SER759  ASP760  ASP761  ALA762  ILE779  LEU786  VAL792 
 PHE793  MET794  SER795  GLU796  ALA797  LYS798  CYS799  TRP800  GLU811  SER814 

> <Gold.Protein.RotatedAtoms>
  150.7029  134.4581  159.5367 H   0  0  0  0  0  0  0  0  0  0  0  0  # atno 6907 bound_to 6896
  152.2261  134.8364  160.0489 H   0  0  0  0  0  0  0  0  0  0  0  0  # atno 6908 bound_to 6896
  151.9197  133.3547  159.3929 H   0  0  0  0  0  0  0  0  0  0  0  0  # atno 6909 bound_to 6896
  144.8461  139.6241  143.5994 H   0  0  0  0  0  0  0  0  0  0  0  0  # atno 7974 bound_to 7965
  156.2881  140.2677  156.2214 H   0  0  0  0  0  0  0  0  0  0  0  0  # atno 8008 bound_to 7997
  155.0164  140.0387  157.2438 H   0  0  0  0  0  0  0  0  0  0  0  0  # atno 8009 bound_to 7997
  154.7473  140.2736  155.6327 H   0  0  0  0  0  0  0  0  0  0  0  0  # atno 8010 bound_to 7997
  139.9506  144.6029  150.8165 H   0  0  0  0  0  0  0  0  0  0  0  0  # atno 10167 bound_to 10162
  155.9999  130.4720  150.4512 H   0  0  0  0  0  0  0  0  0  0  0  0  # atno 10718 bound_to 10713
  153.6339  135.6988  153.5265 H   0  0  0  0  0  0  0  0  0  0  0  0  # atno 10763 bound_to 10752
  153.2837  135.4178  155.1102 H   0  0  0  0  0  0  0  0  0  0  0  0  # atno 10764 bound_to 10752
  154.8515  135.3608  154.5882 H   0  0  0  0  0  0  0  0  0  0  0  0  # atno 10765 bound_to 10752
  141.0125  133.6901  156.2229 H   0  0  0  0  0  0  0  0  0  0  0  0  # atno 11005 bound_to 11000
  146.2745  139.6719  142.9272 LP  0  0  0  0  0  0  0  0  0  0  0  0  # atno 17320 bound_to 7965
  145.4594  141.0432  143.2760 LP  0  0  0  0  0  0  0  0  0  0  0  0  # atno 17321 bound_to 7965
  140.7584  143.3106  151.2853 LP  0  0  0  0  0  0  0  0  0  0  0  0  # atno 17342 bound_to 10162
  139.6632  144.0152  152.2706 LP  0  0  0  0  0  0  0  0  0  0  0  0  # atno 17343 bound_to 10162
  157.2545  131.0553  151.2359 LP  0  0  0  0  0  0  0  0  0  0  0  0  # atno 17370 bound_to 10713
  157.3496  130.7075  149.6432 LP  0  0  0  0  0  0  0  0  0  0  0  0  # atno 17371 bound_to 10713
  140.6710  134.4867  157.5587 LP  0  0  0  0  0  0  0  0  0  0  0  0  # atno 17394 bound_to 11000
  139.9098  134.8370  156.1571 LP  0  0  0  0  0  0  0  0  0  0  0  0  # atno 17395 bound_to 11000

$$$$
