#       Name:                AV-unprocessed.smi:3142
#       Creating user name   scv26
#       Creation time:       Fri Mar 27 17:37:03 2020


#       File generated by GOLD software.
#

@<TRIPOS>MOLECULE
AV-unprocessed.smi:3142
    39    41     1
SMALL
NO_CHARGES


@<TRIPOS>ATOM
      1 ****        -2.7734  -2.3924  -0.9240 C.3            1 S1                 0.0000
      2 ****        -2.1763  -1.1167  -0.2994 C.3            1 S1                 0.0000
      3 ****        -0.6737  -0.9534  -0.5804 C.2            1 S1                 0.0000
      4 ****        -0.0037  -1.8988  -0.9975 O.2            1 S1                 0.0000
      5 ****        -0.1601   0.2636  -0.3405 N.am           1 S1                 0.0000
      6 ****         1.2367   0.6497  -0.5037 C.3            1 S1                 0.0000
      7 ****         1.6483   1.6833   0.5283 C.3            1 S1                 0.0000
      8 ****         3.0767   1.7971   1.0059 C.3            1 S1                 0.0000
      9 ****         2.0053   1.2747   1.9370 C.3            1 S1                 0.0000
     10 ****         1.5416   1.1494  -1.9059 C.3            1 S1                 0.0000
     11 ****         1.8990   0.1944  -3.0202 C.3            1 S1                 0.0000
     12 ****         2.9467   1.1288  -2.4603 C.3            1 S1                 0.0000
     13 ****        -2.4336  -1.0574   1.1329 N.pl3          1 S1                 0.0000
     14 ****        -3.1088  -0.0529   1.8158 C.2            1 S1                 0.0000
     15 ****        -3.0967  -0.4017   3.1472 C.2            1 S1                 0.0000
     16 ****        -2.4181  -1.6065   3.3100 N.2            1 S1                 0.0000
     17 ****        -2.0537  -1.9331   2.0769 C.2            1 S1                 0.0000
     18 ****        -2.6115  -2.4171  -2.0022 H              1 S1                 0.0000
     19 ****        -3.8497  -2.4395  -0.7557 H              1 S1                 0.0000
     20 ****        -2.3342  -3.2968  -0.5011 H              1 S1                 0.0000
     21 ****        -2.6798  -0.2639  -0.7578 H              1 S1                 0.0000
     22 ****        -0.7874   0.9771   0.0015 H              1 S1                 0.0000
     23 ****         1.8570  -0.2318  -0.3283 H              1 S1                 0.0000
     24 ****         1.1078   2.6238   0.4368 H              1 S1                 0.0000
     25 ****         3.8018   1.0790   0.6283 H              1 S1                 0.0000
     26 ****         3.4644   2.7960   1.1942 H              1 S1                 0.0000
     27 ****         1.6787   1.9251   2.7458 H              1 S1                 0.0000
     28 ****         2.0149   0.2114   2.1685 H              1 S1                 0.0000
     29 ****         0.9394   2.0083  -2.1972 H              1 S1                 0.0000
     30 ****         1.9903  -0.8621  -2.7765 H              1 S1                 0.0000
     31 ****         1.5070   0.4117  -4.0114 H              1 S1                 0.0000
     32 ****         3.2542   1.9694  -3.0792 H              1 S1                 0.0000
     33 ****         3.7316   0.6877  -1.8498 H              1 S1                 0.0000
     34 ****        -3.5307   0.8045   1.3125 H              1 S1                 0.0000
     35 ****        -3.5174   0.1200   3.9941 H              1 S1                 0.0000
     36 ****        -1.4927  -2.8294   1.8552 H              1 S1                 0.0000
     37 ****        -0.4362  -2.7862  -1.1574 LP             1 S1                 0.0000
     38 ****         0.9729  -1.7792  -1.1763 LP             1 S1                 0.0000
     39 ****        -2.2458  -2.1081   4.1578 LP             1 S1                 0.0000
@<TRIPOS>BOND
    1    1    2 1     
    2    1   18 1     
    3    1   19 1     
    4    1   20 1     
    5    2    3 1     
    6    2   13 1     
    7    2   21 1     
    8    3    4 2     
    9    3    5 am    
   10    5    6 1     
   11    5   22 1     
   12    6    7 1     
   13    6   10 1     
   14    6   23 1     
   15    7    9 1     
   16    7    8 1     
   17    7   24 1     
   18    8    9 1     
   19    8   25 1     
   20    8   26 1     
   21    9   27 1     
   22    9   28 1     
   23   10   12 1     
   24   10   11 1     
   25   10   29 1     
   26   11   12 1     
   27   11   30 1     
   28   11   31 1     
   29   12   32 1     
   30   12   33 1     
   31   13   17 1     
   32   13   14 1     
   33   14   15 2     
   34   14   34 1     
   35   15   16 1     
   36   15   35 1     
   37   16   17 2     
   38   17   36 1     
   39    4   37 1     
   40    4   38 1     
   41   16   39 1     
@<TRIPOS>SUBSTRUCTURE
      1 S1             1
@<TRIPOS>SET
LONE_PAIRS      STATIC     ATOMS    <user>   **** ""
3 37 38 39
DONOR_HYDROGENS      STATIC     ATOMS    <user>   **** ""
1 22
ATOM$BLUE        STATIC     ATOMS    COLORGROUP SYSTEM
3 37 38 39
ATOM$RED        STATIC     ATOMS    COLORGROUP SYSTEM
1 22
