AV-unprocessed.smi:207|AV-procd|sdf|1603|dock3
  -GOLD-   2262019513D 1   1.00000     0.00000
 Structure written by MMmdl.
 56 59  0  0  0  0  0  0  0  0  2 V2000
  146.3918  138.8984  155.0851 C   0  0  0  0  0  0  0  0  0  0  0  0
  147.3667  138.3134  154.0362 C   0  0  0  0  0  0  0  0  0  0  0  0
  147.0355  138.9119  152.6493 C   0  0  0  0  0  0  0  0  0  0  0  0
  148.8112  138.7732  154.3630 C   0  0  0  0  0  0  0  0  0  0  0  0
  149.3724  138.0872  155.5222 N   0  0  0  0  0  0  0  0  0  0  0  0
  150.4256  138.6987  156.1225 C   0  0  0  0  0  0  0  0  0  0  0  0
  151.5273  137.9399  156.3573 N   0  0  0  0  0  0  0  0  0  0  0  0
  152.6029  138.4693  156.9456 C   0  0  0  0  0  0  0  0  0  0  0  0
  152.7863  139.7177  157.3760 N   0  0  0  0  0  0  0  0  0  0  0  0
  151.6879  140.4902  157.1435 C   0  0  0  0  0  0  0  0  0  0  0  0
  150.4737  140.0672  156.5279 C   0  0  0  0  0  0  0  0  0  0  0  0
  149.5803  141.1325  156.4847 N   0  0  0  0  0  0  0  0  0  0  0  0
  150.2265  142.1214  157.0381 C   0  0  0  0  0  0  0  0  0  0  0  0
  151.5044  141.8267  157.4552 N   0  0  0  0  0  0  0  0  0  0  0  0
  152.4357  142.7333  158.1118 C   0  0  0  0  0  0  0  0  0  0  0  0
  151.9505  143.2674  159.4734 C   0  0  0  0  0  0  0  0  0  0  0  0
  152.3721  142.2750  160.5762 C   0  0  0  0  0  0  0  0  0  0  0  0
  151.8821  142.6401  161.8512 O   0  0  0  0  0  0  0  0  0  0  0  0
  152.2638  144.7483  159.7355 C   0  0  0  0  0  0  0  0  0  0  0  0
  150.8942  145.0281  160.1000 O   0  0  0  0  0  0  0  0  0  0  0  0
  150.4969  143.7581  159.5383 C   0  0  0  0  0  0  0  0  0  0  0  0
  149.3471  136.6365  155.4357 C   0  0  0  0  0  0  0  0  0  0  0  0
  147.9182  136.1471  155.1777 C   0  0  0  0  0  0  0  0  0  0  0  0
  147.3000  136.8106  153.9945 N   0  3  1  0  0  0  0  0  0  0  0  0
  145.9610  136.2331  153.6830 C   0  0  0  0  0  0  0  0  0  0  0  0
  145.6490  136.2858  152.1784 C   0  0  0  0  0  0  0  0  0  0  0  0
  144.2516  136.3100  151.9789 O   0  0  0  0  0  0  0  0  0  0  0  0
  146.4569  139.9868  155.1115 H   0  0  0  0  0  0  0  0  0  0  0  0
  146.6102  138.5437  156.0922 H   0  0  0  0  0  0  0  0  0  0  0  0
  145.3542  138.6474  154.8653 H   0  0  0  0  0  0  0  0  0  0  0  0
  147.2481  139.9816  152.6252 H   0  0  0  0  0  0  0  0  0  0  0  0
  145.9870  138.8075  152.3746 H   0  0  0  0  0  0  0  0  0  0  0  0
  147.6316  138.4461  151.8637 H   0  0  0  0  0  0  0  0  0  0  0  0
  149.4653  138.5631  153.5150 H   0  0  0  0  0  0  0  0  0  0  0  0
  148.8277  139.8558  154.4949 H   0  0  0  0  0  0  0  0  0  0  0  0
  153.4353  137.7969  157.0925 H   0  0  0  0  0  0  0  0  0  0  0  0
  149.7862  143.1011  157.1555 H   0  0  0  0  0  0  0  0  0  0  0  0
  153.3886  142.2150  158.2267 H   0  0  0  0  0  0  0  0  0  0  0  0
  152.6342  143.5583  157.4263 H   0  0  0  0  0  0  0  0  0  0  0  0
  151.9989  141.2732  160.3644 H   0  0  0  0  0  0  0  0  0  0  0  0
  153.4583  142.2027  160.6417 H   0  0  0  0  0  0  0  0  0  0  0  0
  152.5312  143.1768  162.2806 H   0  0  0  0  0  0  0  0  0  0  0  0
  152.9645  144.9263  160.5519 H   0  0  0  0  0  0  0  0  0  0  0  0
  152.5636  145.3025  158.8445 H   0  0  0  0  0  0  0  0  0  0  0  0
  150.0233  143.8877  158.5650 H   0  0  0  0  0  0  0  0  0  0  0  0
  149.8584  143.1807  160.2078 H   0  0  0  0  0  0  0  0  0  0  0  0
  150.0022  136.3119  154.6262 H   0  0  0  0  0  0  0  0  0  0  0  0
  149.7208  136.1936  156.3597 H   0  0  0  0  0  0  0  0  0  0  0  0
  147.9400  135.0671  155.0364 H   0  0  0  0  0  0  0  0  0  0  0  0
  147.3051  136.3273  156.0615 H   0  0  0  0  0  0  0  0  0  0  0  0
  145.9197  135.2017  154.0368 H   0  0  0  0  0  0  0  0  0  0  0  0
  145.1576  136.7470  154.2055 H   0  0  0  0  0  0  0  0  0  0  0  0
  146.1040  137.1484  151.6927 H   0  0  0  0  0  0  0  0  0  0  0  0
  146.0491  135.3987  151.6870 H   0  0  0  0  0  0  0  0  0  0  0  0
  144.0616  136.8695  151.2407 H   0  0  0  0  0  0  0  0  0  0  0  0
  147.8821  136.5583  153.2082 H   0  0  0  0  0  0  0  0  0  0  0  0
  1  2  1  0  0  0  0
  1 28  1  0  0  0  0
  1 29  1  0  0  0  0
  1 30  1  0  0  0  0
  2 24  1  0  0  0  0
  2  3  1  0  0  0  0
  2  4  1  0  0  0  0
  3 31  1  0  0  0  0
  3 32  1  0  0  0  0
  3 33  1  0  0  0  0
  4  5  1  0  0  0  0
  4 34  1  0  0  0  0
  4 35  1  0  0  0  0
  5  6  1  0  0  0  0
  5 22  1  0  0  0  0
  6 11  1  0  0  0  0
  6  7  2  0  0  0  0
  7  8  1  0  0  0  0
  8  9  2  0  0  0  0
  8 36  1  0  0  0  0
  9 10  1  0  0  0  0
 10 14  1  0  0  0  0
 10 11  2  0  0  0  0
 11 12  1  0  0  0  0
 12 13  2  0  0  0  0
 13 14  1  0  0  0  0
 13 37  1  0  0  0  0
 14 15  1  0  0  0  0
 15 16  1  0  0  0  0
 15 38  1  0  0  0  0
 15 39  1  0  0  0  0
 16 21  1  0  0  0  0
 16 17  1  0  0  0  0
 16 19  1  0  0  0  0
 17 18  1  0  0  0  0
 17 40  1  0  0  0  0
 17 41  1  0  0  0  0
 18 42  1  0  0  0  0
 19 20  1  0  0  0  0
 19 43  1  0  0  0  0
 19 44  1  0  0  0  0
 20 21  1  0  0  0  0
 21 45  1  0  0  0  0
 21 46  1  0  0  0  0
 22 23  1  0  0  0  0
 22 47  1  0  0  0  0
 22 48  1  0  0  0  0
 23 24  1  0  0  0  0
 23 49  1  0  0  0  0
 23 50  1  0  0  0  0
 24 25  1  0  0  0  0
 24 56  1  0  0  0  0
 25 26  1  0  0  0  0
 25 51  1  0  0  0  0
 25 52  1  0  0  0  0
 26 27  1  0  0  0  0
 26 53  1  0  0  0  0
 26 54  1  0  0  0  0
 27 55  1  0  0  0  0
M  CHG  1  24   1
M  END
> <s_m_source_file>
AV-unprocessed.smi

> <i_m_source_file_index>
207

> <i_lp_mmshare_version>
43012

> <i_f3d_flags>
0

> <s_epik_input>
W09IXVtDSDJdW0NIMl1OMVtDSDJdW0NIMl1OKFtDSDJdQzEoW0NIM10pW0NIM10pYyhuW2NIXW4yKWMoYzIzKW5bY0hdbjNbQ0gyXUM0KFtDSDJdW09IXSlbQ0gyXU9bQ0gyXTQ=

> <s_epik_cmdline>
J2VwaWtfcHl0aG9uJywgJy1waCcsICc3LjAnLCAnLXRuJywgJzgnLCAnLW1hJywgJzIwMCcsICctbWV0YWxfYmluZGluZycsICctaW1hZScsICc8aW5maWxlLm1hZT4nLCAnLW9tYWUnLCAnPG91dGZpbGUubWFlPic=

> <r_lp_tautomer_probability>
1

> <r_epik_Ionization_Penalty>
0.416568

> <r_epik_Ionization_Penalty_Charging>
0.416506

> <r_epik_Ionization_Penalty_Neutral>
6.2219e-05

> <r_epik_State_Penalty>
0.419386

> <r_epik_Charging_Adjusted_Penalty>
0.835892

> <i_epik_Tot_Q>
1

> <i_epik_Tot_abs_Q>
1

> <r_epik_Metal_State_Penalty>
0.420232

> <b_epik_Metal_Only>
0

> <s_lp_Force_Field>
OPLS_2005

> <r_lp_Energy>
56.8459

> <b_lp_Chiralities_Consistent>
1

> <s_lp_Variant>
AV-unprocessed.smi:207-2

> <Gold.Version>
5.8.1

> <Gold.Id.Protein>
6NUR|6NUR_protein|mol2

> <Gold.PLP.Fitness>
50.3613

> <Gold.PLP.PLP>
-34.6682

> <Gold.PLP.part.hbond>
-4.5750

> <Gold.PLP.part.metal>
0.0000

> <Gold.PLP.part.buried>
-5.4486

> <Gold.PLP.part.nonpolar>
-25.6267

> <Gold.PLP.part.repulsive>
0.3176

> <Gold.PLP.ligand.clash>
0.0000

> <Gold.PLP.ligand.torsion>
1.2757

> <Gold.PLP.Chemscore.Hbond>
4.7840

> <Gold.PLP.Chemscore.CHOScore>
1.0000

> <Gold.PLP.Chemscore.Metal>
0.0000

> <Gold.Chemscore.Hbonds>
donor molecule, donor type, donor heavy atom, donor atom, acceptor molecule, acceptor atom, score
      L1  H    24    56       P1  7948  2.00
      L1  H    27    55       P1 10171  0.49
      P1  H  6933  6945       L1    18  0.73
      P1  H  7997  8008       L1     9  1.00
      L1  C    13    37       P1  8028  1.00

> <Gold.PLP.Chemscore.Internal.Correction>
0.8926

> <Gold.Rescore>
     Score         DG    S(hbond)    S(metal)    S(lipo)     H(rot)  DE(clash)    DE(int)     intcor
     13.34     -16.49       3.15        0.00      87.24       3.80       0.75       2.40       ----

> <Gold.Chemscore.Fitness>
13.3445

> <Gold.Chemscore.DG>
-16.4936

> <Gold.Chemscore.ZeroCoef>
-5.4800

> <Gold.Chemscore.Hbond>
3.1538

> <Gold.Chemscore.Metal>
0.0000

> <Gold.Chemscore.Lipo>
87.2402

> <Gold.Chemscore.Internal_Hbond>
0.0000

> <Gold.Chemscore.DEClash>
0.7453

> <Gold.Chemscore.DEInternal>
2.4038

> <Gold.Chemscore.Rot>
3.7997

> <Gold.Chemscore.Internal.Correction>
   9.000000E+99

> <Gold.Chemscore.Hbonds>
donor molecule, donor type, donor heavy atom, donor atom, acceptor molecule, acceptor atom, score
      L1  H    24    56       P1  7948  1.00
      L1  H    27    55       P1 10171  0.48
      P1  H  6933  6945       L1    18  0.57
      P1  H  7997  8008       L1     9  0.24

> <Gold.Chemscore.Hbond.Weighted>
-10.5338

> <Gold.Chemscore.Metal.Weighted>
-0.0000

> <Gold.Chemscore.Lipo.Weighted>
-10.2071

> <Gold.Chemscore.Internal_Hbond.Weighted>
0.0000

> <Gold.Chemscore.DEClash.Weighted>
0.7453

> <Gold.Chemscore.DEInternal.Weighted>
2.4038

> <Gold.Chemscore.Rot.Weighted>
9.7273

> <Gold.Chemscore.Internal.Correction.Weighted>
   9.000000E+99

> <Gold.Protein.RotatedTorsions>
[ 6907 6896 6895 6894 ] final  175.81 input  -60.11 | X-H torsion
[ 7974 7965 7964 7962 ] final -118.09 input  175.53 | X-H torsion
[ 8008 7997 7996 7995 ] final  -51.69 input   59.86 | X-H torsion
[ 10167 10162 10161 10158 ] final  -64.97 input  -65.29 | X-H torsion
[ 10718 10713 10712 10709 ] final -138.43 input   66.30 | X-H torsion
[ 10763 10752 10751 10750 ] final  166.41 input  -60.55 | X-H torsion
[ 11005 11000 10999 10996 ] final -176.91 input  -57.11 | X-H torsion

> <Gold.Protein.ActiveResidues>
 VAL166  LYS551  ARG553  GLY616  TRP617  ASP618  TYR619  PRO620  LYS621  CYS622 
 ASP623  PHE694  ASN695  SER759  ASP760  ASP761  ALA762  ILE779  LEU786  VAL792 
 PHE793  MET794  SER795  GLU796  ALA797  LYS798  CYS799  TRP800  GLU811  SER814 

> <Gold.Protein.RotatedAtoms>
  151.7302  133.3317  159.3337 H   0  0  0  0  0  0  0  0  0  0  0  0  # atno 6907 bound_to 6896
  150.7616  134.6370  159.6226 H   0  0  0  0  0  0  0  0  0  0  0  0  # atno 6908 bound_to 6896
  152.3597  134.6892  160.0263 H   0  0  0  0  0  0  0  0  0  0  0  0  # atno 6909 bound_to 6896
  145.0777  140.8404  143.4057 H   0  0  0  0  0  0  0  0  0  0  0  0  # atno 7974 bound_to 7965
  154.4089  140.1242  156.4870 H   0  0  0  0  0  0  0  0  0  0  0  0  # atno 8008 bound_to 7997
  155.7029  140.3494  155.4921 H   0  0  0  0  0  0  0  0  0  0  0  0  # atno 8009 bound_to 7997
  155.9369  140.1080  157.1077 H   0  0  0  0  0  0  0  0  0  0  0  0  # atno 8010 bound_to 7997
  140.5763  143.2322  151.6436 H   0  0  0  0  0  0  0  0  0  0  0  0  # atno 10167 bound_to 10162
  156.2993  130.7420  151.1467 H   0  0  0  0  0  0  0  0  0  0  0  0  # atno 10718 bound_to 10713
  154.3385  135.2754  155.2435 H   0  0  0  0  0  0  0  0  0  0  0  0  # atno 10763 bound_to 10752
  154.4716  135.5881  153.6329 H   0  0  0  0  0  0  0  0  0  0  0  0  # atno 10764 bound_to 10752
  152.9860  135.6089  154.3584 H   0  0  0  0  0  0  0  0  0  0  0  0  # atno 10765 bound_to 10752
  140.4468  134.6381  157.4783 H   0  0  0  0  0  0  0  0  0  0  0  0  # atno 11005 bound_to 11000
  145.1215  139.2690  143.5586 LP  0  0  0  0  0  0  0  0  0  0  0  0  # atno 17320 bound_to 7965
  146.3530  140.0841  142.8616 LP  0  0  0  0  0  0  0  0  0  0  0  0  # atno 17321 bound_to 7965
  139.5144  144.3411  152.0739 LP  0  0  0  0  0  0  0  0  0  0  0  0  # atno 17342 bound_to 10162
  140.2555  144.4124  150.6205 LP  0  0  0  0  0  0  0  0  0  0  0  0  # atno 17343 bound_to 10162
  157.7364  131.0563  150.5417 LP  0  0  0  0  0  0  0  0  0  0  0  0  # atno 17370 bound_to 10713
  156.5543  130.4239  149.6093 LP  0  0  0  0  0  0  0  0  0  0  0  0  # atno 17371 bound_to 10713
  140.0033  134.6802  155.9495 LP  0  0  0  0  0  0  0  0  0  0  0  0  # atno 17394 bound_to 11000
  141.1682  133.6537  156.4554 LP  0  0  0  0  0  0  0  0  0  0  0  0  # atno 17395 bound_to 11000

$$$$
