AV-unprocessed.smi:1995|AV-procd|sdf|8081|dock9
  -GOLD-   2272010293D 1   1.00000     0.00000
 Structure written by MMmdl.
 41 42  0  0  0  0  0  0  0  0  2 V2000
  151.6354  137.8320  154.4333 C   0  0  0  0  0  0  0  0  0  0  0  0
  150.3284  138.3946  155.0212 C   0  0  0  0  0  0  0  0  0  0  0  0
  150.4848  139.6457  155.9439 C   0  0  2  0  0  0  0  0  0  0  0  0
  151.7555  140.3920  155.4553 C   0  0  0  0  0  0  0  0  0  0  0  0
  150.7272  139.1479  157.4067 C   0  0  0  0  0  0  0  0  0  0  0  0
  151.2129  140.1873  158.3160 N   0  0  0  0  0  0  0  0  0  0  0  0
  152.4605  140.3186  158.7900 C   0  0  0  0  0  0  0  0  0  0  0  0
  153.3366  139.5177  158.4560 O   0  0  0  0  0  0  0  0  0  0  0  0
  152.6131  141.3665  159.6315 N   0  5  0  0  0  0  0  0  0  0  0  0
  152.3214  142.6094  159.2146 C   0  0  0  0  0  0  0  0  0  0  0  0
  151.8290  142.8759  157.9994 N   0  0  0  0  0  0  0  0  0  0  0  0
  151.5953  144.2350  157.7809 C   0  0  0  0  0  0  0  0  0  0  0  0
  151.9096  145.0205  158.8581 C   0  0  0  0  0  0  0  0  0  0  0  0
  152.5107  144.0712  160.1874 S   0  0  0  0  0  0  0  0  0  0  0  0
  149.2931  140.5368  155.8469 N   0  0  0  0  0  0  0  0  0  0  0  0
  148.0831  140.0361  156.5107 C   0  0  0  0  0  0  0  0  0  0  0  0
  146.9452  141.0710  156.4923 C   0  0  0  0  0  0  0  0  0  0  0  0
  146.6605  141.4498  155.1508 O   0  0  0  0  0  0  0  0  0  0  0  0
  147.7960  141.9914  154.4869 C   0  0  0  0  0  0  0  0  0  0  0  0
  148.9374  140.9603  154.4873 C   0  0  0  0  0  0  0  0  0  0  0  0
  151.4261  136.9723  153.7967 H   0  0  0  0  0  0  0  0  0  0  0  0
  152.3183  137.4973  155.2134 H   0  0  0  0  0  0  0  0  0  0  0  0
  152.1571  138.5685  153.8223 H   0  0  0  0  0  0  0  0  0  0  0  0
  149.6406  138.6115  154.2041 H   0  0  0  0  0  0  0  0  0  0  0  0
  149.8476  137.5849  155.5714 H   0  0  0  0  0  0  0  0  0  0  0  0
  152.5896  139.7114  155.2825 H   0  0  0  0  0  0  0  0  0  0  0  0
  152.1039  141.1242  156.1838 H   0  0  0  0  0  0  0  0  0  0  0  0
  151.5774  140.9232  154.5203 H   0  0  0  0  0  0  0  0  0  0  0  0
  149.8292  138.6898  157.8210 H   0  0  0  0  0  0  0  0  0  0  0  0
  151.4854  138.3658  157.4194 H   0  0  0  0  0  0  0  0  0  0  0  0
  150.5345  140.8688  158.6228 H   0  0  0  0  0  0  0  0  0  0  0  0
  151.2024  144.5547  156.8272 H   0  0  0  0  0  0  0  0  0  0  0  0
  151.8239  146.0925  158.9516 H   0  0  0  0  0  0  0  0  0  0  0  0
  147.7325  139.1258  156.0246 H   0  0  0  0  0  0  0  0  0  0  0  0
  148.2841  139.7822  157.5499 H   0  0  0  0  0  0  0  0  0  0  0  0
  146.0451  140.6515  156.9420 H   0  0  0  0  0  0  0  0  0  0  0  0
  147.2154  141.9515  157.0776 H   0  0  0  0  0  0  0  0  0  0  0  0
  147.5204  142.2507  153.4647 H   0  0  0  0  0  0  0  0  0  0  0  0
  148.1089  142.9137  154.9790 H   0  0  0  0  0  0  0  0  0  0  0  0
  149.7904  141.4083  153.9810 H   0  0  0  0  0  0  0  0  0  0  0  0
  148.6307  140.1010  153.8912 H   0  0  0  0  0  0  0  0  0  0  0  0
  1  2  1  0  0  0  0
  1 21  1  0  0  0  0
  1 22  1  0  0  0  0
  1 23  1  0  0  0  0
  2  3  1  0  0  0  0
  2 24  1  0  0  0  0
  2 25  1  0  0  0  0
  3  4  1  0  0  0  0
  3  5  1  0  0  0  0
  3 15  1  0  0  0  0
  4 26  1  0  0  0  0
  4 27  1  0  0  0  0
  4 28  1  0  0  0  0
  5  6  1  0  0  0  0
  5 29  1  0  0  0  0
  5 30  1  0  0  0  0
  6  7  1  0  0  0  0
  6 31  1  0  0  0  0
  7  8  2  0  0  0  0
  7  9  1  0  0  0  0
  9 10  1  0  0  0  0
 10 14  1  0  0  0  0
 10 11  2  0  0  0  0
 11 12  1  0  0  0  0
 12 13  2  0  0  0  0
 12 32  1  0  0  0  0
 13 14  1  0  0  0  0
 13 33  1  0  0  0  0
 15 20  1  0  0  0  0
 15 16  1  0  0  0  0
 16 17  1  0  0  0  0
 16 34  1  0  0  0  0
 16 35  1  0  0  0  0
 17 18  1  0  0  0  0
 17 36  1  0  0  0  0
 17 37  1  0  0  0  0
 18 19  1  0  0  0  0
 19 20  1  0  0  0  0
 19 38  1  0  0  0  0
 19 39  1  0  0  0  0
 20 40  1  0  0  0  0
 20 41  1  0  0  0  0
M  CHG  1   9  -1
M  END
> <s_m_source_file>
AV-unprocessed.smi

> <i_m_source_file_index>
1995

> <i_lp_mmshare_version>
43012

> <i_f3d_flags>
0

> <s_epik_input>
W0NIMl0xW0NIMl1PW0NIMl1bQ0gyXU4xW0NAQF0oW0NIM10pKFtDSDJdW0NIM10pW0NIMl1bTkhdQyg9TylbTkhdYzJuW2NIXVtjSF1zMg==

> <s_epik_cmdline>
J2VwaWtfcHl0aG9uJywgJy1waCcsICc3LjAnLCAnLXRuJywgJzgnLCAnLW1hJywgJzIwMCcsICctbWV0YWxfYmluZGluZycsICctaW1hZScsICc8aW5maWxlLm1hZT4nLCAnLW9tYWUnLCAnPG91dGZpbGUubWFlPic=

> <r_lp_tautomer_probability>
0.999

> <r_epik_Ionization_Penalty>
8.86479

> <r_epik_Ionization_Penalty_Charging>
6.76546

> <r_epik_Ionization_Penalty_Neutral>
2.09933

> <r_epik_State_Penalty>
7.05418

> <r_epik_Charging_Adjusted_Penalty>
13.8196

> <i_epik_Tot_Q>
-1

> <i_epik_Tot_abs_Q>
1

> <r_epik_Metal_State_Penalty>
2.97744

> <b_epik_Metal_Only>
1

> <s_lp_Force_Field>
OPLS_2005

> <r_lp_Energy>
37.8837

> <b_lp_Chiralities_Consistent>
1

> <s_lp_Variant>
AV-unprocessed.smi:1995-6

> <Gold.Version>
5.8.1

> <Gold.Id.Protein>
6NUR|6NUR_protein|mol2

> <Gold.PLP.Fitness>
37.5081

> <Gold.PLP.PLP>
-34.2723

> <Gold.PLP.part.hbond>
-1.0000

> <Gold.PLP.part.metal>
0.0000

> <Gold.PLP.part.buried>
-2.3522

> <Gold.PLP.part.nonpolar>
-31.2273

> <Gold.PLP.part.repulsive>
0.3229

> <Gold.PLP.ligand.clash>
0.0000

> <Gold.PLP.ligand.torsion>
1.4246

> <Gold.PLP.Chemscore.Hbond>
1.0000

> <Gold.PLP.Chemscore.CHOScore>
0.9874

> <Gold.PLP.Chemscore.Metal>
0.0000

> <Gold.Chemscore.Hbonds>
donor molecule, donor type, donor heavy atom, donor atom, acceptor molecule, acceptor atom, score
      P1  H  7997  8009       L1     8  1.00
      L1  C    12    32       P1  8028  0.92

> <Gold.PLP.Chemscore.Internal.Correction>
0.1229

> <Gold.Rescore>
     Score         DG    S(hbond)    S(metal)    S(lipo)     H(rot)  DE(clash)    DE(int)     intcor
     11.22     -14.10       0.98        0.00      82.74       1.70       0.04       2.84       ----

> <Gold.Chemscore.Fitness>
11.2223

> <Gold.Chemscore.DG>
-14.1006

> <Gold.Chemscore.ZeroCoef>
-5.4800

> <Gold.Chemscore.Hbond>
0.9846

> <Gold.Chemscore.Metal>
0.0000

> <Gold.Chemscore.Lipo>
82.7386

> <Gold.Chemscore.Internal_Hbond>
0.0000

> <Gold.Chemscore.DEClash>
0.0421

> <Gold.Chemscore.DEInternal>
2.8362

> <Gold.Chemscore.Rot>
1.6985

> <Gold.Chemscore.Internal.Correction>
   9.000000E+99

> <Gold.Chemscore.Hbonds>
donor molecule, donor type, donor heavy atom, donor atom, acceptor molecule, acceptor atom, score
      P1  H  7997  8009       L1     8  0.96

> <Gold.Chemscore.Hbond.Weighted>
-3.2884

> <Gold.Chemscore.Metal.Weighted>
-0.0000

> <Gold.Chemscore.Lipo.Weighted>
-9.6804

> <Gold.Chemscore.Internal_Hbond.Weighted>
0.0000

> <Gold.Chemscore.DEClash.Weighted>
0.0421

> <Gold.Chemscore.DEInternal.Weighted>
2.8362

> <Gold.Chemscore.Rot.Weighted>
4.3482

> <Gold.Chemscore.Internal.Correction.Weighted>
   9.000000E+99

> <Gold.Protein.RotatedTorsions>
[ 6907 6896 6895 6894 ] final  -46.31 input  -60.11 | X-H torsion
[ 7974 7965 7964 7962 ] final -170.66 input  175.53 | X-H torsion
[ 8008 7997 7996 7995 ] final  142.55 input   59.86 | X-H torsion
[ 10167 10162 10161 10158 ] final -178.19 input  -65.29 | X-H torsion
[ 10718 10713 10712 10709 ] final -177.21 input   66.30 | X-H torsion
[ 10763 10752 10751 10750 ] final   99.21 input  -60.55 | X-H torsion
[ 11005 11000 10999 10996 ] final  -51.11 input  -57.11 | X-H torsion

> <Gold.Protein.ActiveResidues>
 VAL166  LYS551  ARG553  GLY616  TRP617  ASP618  TYR619  PRO620  LYS621  CYS622 
 ASP623  PHE694  ASN695  SER759  ASP760  ASP761  ALA762  ILE779  LEU786  VAL792 
 PHE793  MET794  SER795  GLU796  ALA797  LYS798  CYS799  TRP800  GLU811  SER814 

> <Gold.Protein.RotatedAtoms>
  150.9127  134.8544  159.7435 H   0  0  0  0  0  0  0  0  0  0  0  0  # atno 6907 bound_to 6896
  152.4952  134.4336  159.9530 H   0  0  0  0  0  0  0  0  0  0  0  0  # atno 6908 bound_to 6896
  151.4377  133.3613  159.2812 H   0  0  0  0  0  0  0  0  0  0  0  0  # atno 6909 bound_to 6896
  144.7167  140.2038  143.6335 H   0  0  0  0  0  0  0  0  0  0  0  0  # atno 7974 bound_to 7965
  156.2947  140.2286  156.4746 H   0  0  0  0  0  0  0  0  0  0  0  0  # atno 8008 bound_to 7997
  154.7905  140.0454  157.1218 H   0  0  0  0  0  0  0  0  0  0  0  0  # atno 8009 bound_to 7997
  154.9650  140.3059  155.5017 H   0  0  0  0  0  0  0  0  0  0  0  0  # atno 8010 bound_to 7997
  139.5444  144.2276  152.0959 H   0  0  0  0  0  0  0  0  0  0  0  0  # atno 10167 bound_to 10162
  156.8261  130.9637  151.3109 H   0  0  0  0  0  0  0  0  0  0  0  0  # atno 10718 bound_to 10713
  153.2985  135.4121  155.1232 H   0  0  0  0  0  0  0  0  0  0  0  0  # atno 10763 bound_to 10752
  154.8542  135.3536  154.5883 H   0  0  0  0  0  0  0  0  0  0  0  0  # atno 10764 bound_to 10752
  153.6308  135.7061  153.5334 H   0  0  0  0  0  0  0  0  0  0  0  0  # atno 10765 bound_to 10752
  141.0853  133.6644  156.3830 H   0  0  0  0  0  0  0  0  0  0  0  0  # atno 11005 bound_to 11000
  145.8655  139.2245  143.1691 LP  0  0  0  0  0  0  0  0  0  0  0  0  # atno 17320 bound_to 7965
  146.0133  140.8415  142.9960 LP  0  0  0  0  0  0  0  0  0  0  0  0  # atno 17321 bound_to 7965
  140.1760  144.4890  150.6554 LP  0  0  0  0  0  0  0  0  0  0  0  0  # atno 17342 bound_to 10162
  140.6686  143.2277  151.5680 LP  0  0  0  0  0  0  0  0  0  0  0  0  # atno 17343 bound_to 10162
  157.6431  130.8822  149.9487 LP  0  0  0  0  0  0  0  0  0  0  0  0  # atno 17370 bound_to 10713
  156.0961  130.3659  150.0304 LP  0  0  0  0  0  0  0  0  0  0  0  0  # atno 17371 bound_to 10713
  140.5376  134.6152  157.5370 LP  0  0  0  0  0  0  0  0  0  0  0  0  # atno 17394 bound_to 11000
  139.9671  134.7355  156.0116 LP  0  0  0  0  0  0  0  0  0  0  0  0  # atno 17395 bound_to 11000

$$$$
