AV-unprocessed.smi:1047|AV-procd|sdf|4593|dock9
  -GOLD-   22720 3 73D 1   1.00000     0.00000
 Structure written by MMmdl.
 55 57  0  0  0  0  0  0  0  0  1 V2000
  144.9850  132.2458  150.4396 C   0  0  0  0  0  0  0  0  0  0  0  0
  144.8207  133.7474  150.1656 C   0  0  0  0  0  0  0  0  0  0  0  0
  145.6083  134.6219  151.0329 N   0  0  0  0  0  0  0  0  0  0  0  0
  145.2313  134.4483  152.4310 C   0  0  0  0  0  0  0  0  0  0  0  0
  146.0429  135.3636  153.3624 C   0  0  0  0  0  0  0  0  0  0  0  0
  145.8816  136.7174  152.9528 O   0  0  0  0  0  0  0  0  0  0  0  0
  146.2984  136.9461  151.6084 C   0  0  2  0  0  0  0  0  0  0  0  0
  146.0842  138.4319  151.2861 C   0  0  0  0  0  0  0  0  0  0  0  0
  147.1596  139.2482  151.8396 N   0  0  0  0  0  0  0  0  0  0  0  0
  147.4452  138.9630  153.2418 C   0  0  0  0  0  0  0  0  0  0  0  0
  147.2032  140.2011  154.1210 C   0  0  2  0  0  0  0  0  0  0  0  0
  146.0423  140.8629  153.6553 O   0  0  0  0  0  0  0  0  0  0  0  0
  148.3924  141.1795  154.0693 C   0  0  0  0  0  0  0  0  0  0  0  0
  149.5909  140.6281  154.6764 N   0  0  0  0  0  0  0  0  0  0  0  0
  150.3302  139.5951  154.2280 C   0  0  0  0  0  0  0  0  0  0  0  0
  151.4000  139.2567  154.9418 N   0  0  0  0  0  0  0  0  0  0  0  0
  151.3485  140.1776  155.9743 C   0  0  0  0  0  0  0  0  0  0  0  0
  152.2064  140.3640  157.0803 C   0  0  0  0  0  0  0  0  0  0  0  0
  151.9572  141.3830  158.0273 C   0  0  0  0  0  0  0  0  0  0  0  0
  152.9077  141.5497  159.2001 C   0  0  0  0  0  0  0  0  0  0  0  0
  150.8328  142.2340  157.8763 C   0  0  0  0  0  0  0  0  0  0  0  0
  150.5416  143.3314  158.8847 C   0  0  0  0  0  0  0  0  0  0  0  0
  149.9674  142.0635  156.7753 C   0  0  0  0  0  0  0  0  0  0  0  0
  150.2271  141.0472  155.8392 C   0  0  0  0  0  0  0  0  0  0  0  0
  145.4742  136.0335  150.6780 C   0  0  0  0  0  0  0  0  0  0  0  0
  144.2927  131.6682  149.8270 H   0  0  0  0  0  0  0  0  0  0  0  0
  144.7766  132.0116  151.4840 H   0  0  0  0  0  0  0  0  0  0  0  0
  145.9904  131.8953  150.2078 H   0  0  0  0  0  0  0  0  0  0  0  0
  145.0524  133.9545  149.1199 H   0  0  0  0  0  0  0  0  0  0  0  0
  143.7639  133.9873  150.2911 H   0  0  0  0  0  0  0  0  0  0  0  0
  144.1680  134.6593  152.5562 H   0  0  0  0  0  0  0  0  0  0  0  0
  145.3798  133.4096  152.7286 H   0  0  0  0  0  0  0  0  0  0  0  0
  145.6996  135.2587  154.3916 H   0  0  0  0  0  0  0  0  0  0  0  0
  147.1000  135.0937  153.3471 H   0  0  0  0  0  0  0  0  0  0  0  0
  147.3569  136.6979  151.5053 H   0  0  0  0  0  0  0  0  0  0  0  0
  146.0514  138.5681  150.2045 H   0  0  0  0  0  0  0  0  0  0  0  0
  145.1170  138.7570  151.6721 H   0  0  0  0  0  0  0  0  0  0  0  0
  148.0024  139.1198  151.2878 H   0  0  0  0  0  0  0  0  0  0  0  0
  146.7952  138.1527  153.5746 H   0  0  0  0  0  0  0  0  0  0  0  0
  148.4692  138.6068  153.3647 H   0  0  0  0  0  0  0  0  0  0  0  0
  147.0422  139.8959  155.1565 H   0  0  0  0  0  0  0  0  0  0  0  0
  145.5918  140.2915  153.0526 H   0  0  0  0  0  0  0  0  0  0  0  0
  148.6244  141.4357  153.0349 H   0  0  0  0  0  0  0  0  0  0  0  0
  148.1429  142.1144  154.5733 H   0  0  0  0  0  0  0  0  0  0  0  0
  150.0705  139.0641  153.3237 H   0  0  0  0  0  0  0  0  0  0  0  0
  153.0619  139.7147  157.1953 H   0  0  0  0  0  0  0  0  0  0  0  0
  152.3821  141.3939  160.1423 H   0  0  0  0  0  0  0  0  0  0  0  0
  153.3380  142.5515  159.2039 H   0  0  0  0  0  0  0  0  0  0  0  0
  153.7288  140.8340  159.1525 H   0  0  0  0  0  0  0  0  0  0  0  0
  149.6286  143.8713  158.6320 H   0  0  0  0  0  0  0  0  0  0  0  0
  151.3601  144.0509  158.9140 H   0  0  0  0  0  0  0  0  0  0  0  0
  150.4149  142.9094  159.8821 H   0  0  0  0  0  0  0  0  0  0  0  0
  149.1094  142.7064  156.6455 H   0  0  0  0  0  0  0  0  0  0  0  0
  145.8034  136.1953  149.6520 H   0  0  0  0  0  0  0  0  0  0  0  0
  144.4237  136.3261  150.7190 H   0  0  0  0  0  0  0  0  0  0  0  0
  1  2  1  0  0  0  0
  1 26  1  0  0  0  0
  1 27  1  0  0  0  0
  1 28  1  0  0  0  0
  2  3  1  0  0  0  0
  2 29  1  0  0  0  0
  2 30  1  0  0  0  0
  3 25  1  0  0  0  0
  3  4  1  0  0  0  0
  4  5  1  0  0  0  0
  4 31  1  0  0  0  0
  4 32  1  0  0  0  0
  5  6  1  0  0  0  0
  5 33  1  0  0  0  0
  5 34  1  0  0  0  0
  6  7  1  0  0  0  0
  7  8  1  0  0  0  0
  7 25  1  0  0  0  0
  7 35  1  0  0  0  0
  8  9  1  0  0  0  0
  8 36  1  0  0  0  0
  8 37  1  0  0  0  0
  9 10  1  0  0  0  0
  9 38  1  0  0  0  0
 10 11  1  0  0  0  0
 10 39  1  0  0  0  0
 10 40  1  0  0  0  0
 11 12  1  0  0  0  0
 11 13  1  0  0  0  0
 11 41  1  0  0  0  0
 12 42  1  0  0  0  0
 13 14  1  0  0  0  0
 13 43  1  0  0  0  0
 13 44  1  0  0  0  0
 14 24  1  0  0  0  0
 14 15  1  0  0  0  0
 15 16  2  0  0  0  0
 15 45  1  0  0  0  0
 16 17  1  0  0  0  0
 17 24  2  0  0  0  0
 17 18  1  0  0  0  0
 18 19  2  0  0  0  0
 18 46  1  0  0  0  0
 19 20  1  0  0  0  0
 19 21  1  0  0  0  0
 20 47  1  0  0  0  0
 20 48  1  0  0  0  0
 20 49  1  0  0  0  0
 21 22  1  0  0  0  0
 21 23  2  0  0  0  0
 22 50  1  0  0  0  0
 22 51  1  0  0  0  0
 22 52  1  0  0  0  0
 23 24  1  0  0  0  0
 23 53  1  0  0  0  0
 25 54  1  0  0  0  0
 25 55  1  0  0  0  0
M  END
> <s_m_source_file>
AV-unprocessed.smi

> <i_m_source_file_index>
1047

> <i_lp_mmshare_version>
43012

> <i_f3d_flags>
0

> <s_epik_input>
W0NIM11bQ0gyXU4xW0NIMl1bQ0gyXU9bQ0BIXShbQ0gyXTEpW0NIMl1bTkhdW0NIMl1bQ0BIXShbT0hdKVtDSDJdbihbY0hdbjIpYyhjMjMpW2NIXWMoW0NIM10pYyhbY0hdMylbQ0gzXQ==

> <s_epik_cmdline>
J2VwaWtfcHl0aG9uJywgJy1waCcsICc3LjAnLCAnLXRuJywgJzgnLCAnLW1hJywgJzIwMCcsICctbWV0YWxfYmluZGluZycsICctaW1hZScsICc8aW5maWxlLm1hZT4nLCAnLW9tYWUnLCAnPG91dGZpbGUubWFlPic=

> <r_epik_Ionization_Penalty>
2.74124

> <r_epik_Ionization_Penalty_Charging>
0

> <r_epik_Ionization_Penalty_Neutral>
2.74124

> <r_epik_State_Penalty>
2.37482

> <r_epik_Charging_Adjusted_Penalty>
2.37482

> <i_epik_Tot_Q>
0

> <i_epik_Tot_abs_Q>
0

> <r_epik_Metal_State_Penalty>
2.25944

> <b_epik_Metal_Only>
0

> <s_lp_Force_Field>
OPLS_2005

> <r_lp_Energy>
33.9666

> <b_lp_Chiralities_Consistent>
1

> <s_lp_Variant>
AV-unprocessed.smi:1047-34

> <Gold.Version>
5.8.1

> <Gold.Id.Protein>
6NUR|6NUR_protein|mol2

> <Gold.PLP.Fitness>
45.4981

> <Gold.PLP.PLP>
-40.9361

> <Gold.PLP.part.hbond>
-2.0580

> <Gold.PLP.part.metal>
0.0000

> <Gold.PLP.part.buried>
4.4916

> <Gold.PLP.part.nonpolar>
-42.8735

> <Gold.PLP.part.repulsive>
0.3769

> <Gold.PLP.ligand.clash>
0.0000

> <Gold.PLP.ligand.torsion>
0.8552

> <Gold.PLP.Chemscore.Hbond>
1.1622

> <Gold.PLP.Chemscore.CHOScore>
0.8943

> <Gold.PLP.Chemscore.Metal>
0.0000

> <Gold.Chemscore.Hbonds>
donor molecule, donor type, donor heavy atom, donor atom, acceptor molecule, acceptor atom, score
      L1  H     9    38       P1  7957  0.70
      L1  H    12    42       P1 10175  0.51
      L1  C    15    45       P1  7957  0.94

> <Gold.PLP.Chemscore.Internal.Correction>
0.1030

> <Gold.Rescore>
     Score         DG    S(hbond)    S(metal)    S(lipo)     H(rot)  DE(clash)    DE(int)     intcor
     12.17     -17.30       1.22        0.00     121.33       2.52       2.68       2.45       ----

> <Gold.Chemscore.Fitness>
12.1685

> <Gold.Chemscore.DG>
-17.2965

> <Gold.Chemscore.ZeroCoef>
-5.4800

> <Gold.Chemscore.Hbond>
1.2221

> <Gold.Chemscore.Metal>
0.0000

> <Gold.Chemscore.Lipo>
121.3278

> <Gold.Chemscore.Internal_Hbond>
0.0000

> <Gold.Chemscore.DEClash>
2.6792

> <Gold.Chemscore.DEInternal>
2.4488

> <Gold.Chemscore.Rot>
2.5237

> <Gold.Chemscore.Internal.Correction>
   9.000000E+99

> <Gold.Chemscore.Hbonds>
donor molecule, donor type, donor heavy atom, donor atom, acceptor molecule, acceptor atom, score
      L1  H     9    38       P1  7957  0.49
      L1  H    12    42       P1 10175  0.47

> <Gold.Chemscore.Hbond.Weighted>
-4.0818

> <Gold.Chemscore.Metal.Weighted>
-0.0000

> <Gold.Chemscore.Lipo.Weighted>
-14.1954

> <Gold.Chemscore.Internal_Hbond.Weighted>
0.0000

> <Gold.Chemscore.DEClash.Weighted>
2.6792

> <Gold.Chemscore.DEInternal.Weighted>
2.4488

> <Gold.Chemscore.Rot.Weighted>
6.4607

> <Gold.Chemscore.Internal.Correction.Weighted>
   9.000000E+99

> <Gold.Protein.RotatedTorsions>
[ 6907 6896 6895 6894 ] final  136.72 input  -60.11 | X-H torsion
[ 7974 7965 7964 7962 ] final    4.91 input  175.53 | X-H torsion
[ 8008 7997 7996 7995 ] final -104.19 input   59.86 | X-H torsion
[ 10167 10162 10161 10158 ] final -146.63 input  -65.29 | X-H torsion
[ 10718 10713 10712 10709 ] final  170.00 input   66.30 | X-H torsion
[ 10763 10752 10751 10750 ] final  174.18 input  -60.55 | X-H torsion
[ 11005 11000 10999 10996 ] final  -17.60 input  -57.11 | X-H torsion

> <Gold.Protein.ActiveResidues>
 VAL166  LYS551  ARG553  GLY616  TRP617  ASP618  TYR619  PRO620  LYS621  CYS622 
 ASP623  PHE694  ASN695  SER759  ASP760  ASP761  ALA762  ILE779  LEU786  VAL792 
 PHE793  MET794  SER795  GLU796  ALA797  LYS798  CYS799  TRP800  GLU811  SER814 

> <Gold.Protein.RotatedAtoms>
  152.2862  133.5517  159.5528 H   0  0  0  0  0  0  0  0  0  0  0  0  # atno 6907 bound_to 6896
  150.7216  134.0494  159.3802 H   0  0  0  0  0  0  0  0  0  0  0  0  # atno 6908 bound_to 6896
  151.8402  135.0593  160.0498 H   0  0  0  0  0  0  0  0  0  0  0  0  # atno 6909 bound_to 6896
  146.2442  140.0463  142.8378 H   0  0  0  0  0  0  0  0  0  0  0  0  # atno 7974 bound_to 7965
  154.8818  140.0419  157.1787 H   0  0  0  0  0  0  0  0  0  0  0  0  # atno 8008 bound_to 7997
  154.8631  140.2947  155.5506 H   0  0  0  0  0  0  0  0  0  0  0  0  # atno 8009 bound_to 7997
  156.2998  140.2443  156.3608 H   0  0  0  0  0  0  0  0  0  0  0  0  # atno 8010 bound_to 7997
  139.7695  143.8258  152.2622 H   0  0  0  0  0  0  0  0  0  0  0  0  # atno 10167 bound_to 10162
  157.0145  131.0214  151.2793 H   0  0  0  0  0  0  0  0  0  0  0  0  # atno 10718 bound_to 10713
  154.4504  135.2764  155.1785 H   0  0  0  0  0  0  0  0  0  0  0  0  # atno 10763 bound_to 10752
  154.3614  135.6128  153.5696 H   0  0  0  0  0  0  0  0  0  0  0  0  # atno 10764 bound_to 10752
  152.9846  135.5835  154.4847 H   0  0  0  0  0  0  0  0  0  0  0  0  # atno 10765 bound_to 10752
  140.8185  133.8086  155.9635 H   0  0  0  0  0  0  0  0  0  0  0  0  # atno 11005 bound_to 11000
  145.1024  140.9354  143.4705 LP  0  0  0  0  0  0  0  0  0  0  0  0  # atno 17320 bound_to 7965
  145.0659  139.3069  143.5857 LP  0  0  0  0  0  0  0  0  0  0  0  0  # atno 17321 bound_to 7965
  139.8288  144.7263  150.9477 LP  0  0  0  0  0  0  0  0  0  0  0  0  # atno 17342 bound_to 10162
  140.7813  143.4089  151.1025 LP  0  0  0  0  0  0  0  0  0  0  0  0  # atno 17343 bound_to 10162
  157.5295  130.8049  149.7901 LP  0  0  0  0  0  0  0  0  0  0  0  0  # atno 17370 bound_to 10713
  156.0124  130.3827  150.2221 LP  0  0  0  0  0  0  0  0  0  0  0  0  # atno 17371 bound_to 10713
  140.9124  134.2244  157.4977 LP  0  0  0  0  0  0  0  0  0  0  0  0  # atno 17394 bound_to 11000
  139.8710  134.9756  156.4889 LP  0  0  0  0  0  0  0  0  0  0  0  0  # atno 17395 bound_to 11000

$$$$
