AV-unprocessed.smi:1388|AV-procd|sdf|5642|dock5
  -GOLD-   22720 5263D 1   1.00000     0.00000
 Structure written by MMmdl.
 46 47  0  0  0  0  0  0  0  0  2 V2000
  143.5172  136.7707  153.2009 C   0  0  0  0  0  0  0  0  0  0  0  0
  144.4189  137.8398  152.7991 N   0  0  0  0  0  0  0  0  0  0  0  0
  145.7552  137.7650  152.8680 C   0  0  0  0  0  0  0  0  0  0  0  0
  146.3547  136.7752  153.2898 O   0  0  0  0  0  0  0  0  0  0  0  0
  146.5264  139.0054  152.4042 C   0  0  0  0  0  0  0  0  0  0  0  0
  147.1196  139.7789  153.5257 N   0  3  2  0  0  0  0  0  0  0  0  0
  147.2538  141.2230  153.2063 C   0  0  0  0  0  0  0  0  0  0  0  0
  147.7377  142.0206  154.4284 C   0  0  0  0  0  0  0  0  0  0  0  0
  149.0669  141.4595  154.9668 C   0  0  1  0  0  0  0  0  0  0  0  0
  149.4826  142.1618  156.1775 N   0  0  0  0  0  0  0  0  0  0  0  0
  150.4699  141.7664  156.9948 C   0  0  0  0  0  0  0  0  0  0  0  0
  151.1456  140.7559  156.7976 O   0  0  0  0  0  0  0  0  0  0  0  0
  150.6103  142.6089  158.0334 N   0  0  0  0  0  0  0  0  0  0  0  0
  151.5544  142.5520  159.0976 C   0  0  0  0  0  0  0  0  0  0  0  0
  152.3894  141.4981  159.2786 N   0  0  0  0  0  0  0  0  0  0  0  0
  153.2637  141.5104  160.3054 C   0  0  0  0  0  0  0  0  0  0  0  0
  153.3618  142.5752  161.2173 C   0  0  0  0  0  0  0  0  0  0  0  0
  152.5042  143.6749  161.0443 C   0  0  0  0  0  0  0  0  0  0  0  0
  151.5859  143.6708  159.9727 C   0  0  0  0  0  0  0  0  0  0  0  0
  150.6571  144.8593  159.7846 C   0  0  0  0  0  0  0  0  0  0  0  0
  148.9074  139.9589  155.2582 C   0  0  0  0  0  0  0  0  0  0  0  0
  148.4022  139.2058  154.0163 C   0  0  0  0  0  0  0  0  0  0  0  0
  142.4825  137.0874  153.0684 H   0  0  0  0  0  0  0  0  0  0  0  0
  143.6627  136.5127  154.2509 H   0  0  0  0  0  0  0  0  0  0  0  0
  143.6805  135.8771  152.5966 H   0  0  0  0  0  0  0  0  0  0  0  0
  143.9989  138.6890  152.4491 H   0  0  0  0  0  0  0  0  0  0  0  0
  147.3027  138.7280  151.6892 H   0  0  0  0  0  0  0  0  0  0  0  0
  145.8128  139.6299  151.8650 H   0  0  0  0  0  0  0  0  0  0  0  0
  147.9482  141.3503  152.3742 H   0  0  0  0  0  0  0  0  0  0  0  0
  146.2917  141.6202  152.8808 H   0  0  0  0  0  0  0  0  0  0  0  0
  147.8516  143.0702  154.1551 H   0  0  0  0  0  0  0  0  0  0  0  0
  146.9762  141.9859  155.2092 H   0  0  0  0  0  0  0  0  0  0  0  0
  149.8402  141.5801  154.2053 H   0  0  0  0  0  0  0  0  0  0  0  0
  148.9778  143.0036  156.4140 H   0  0  0  0  0  0  0  0  0  0  0  0
  149.9697  143.3878  158.0684 H   0  0  0  0  0  0  0  0  0  0  0  0
  153.9033  140.6455  160.4021 H   0  0  0  0  0  0  0  0  0  0  0  0
  154.0755  142.5483  162.0273 H   0  0  0  0  0  0  0  0  0  0  0  0
  152.5534  144.5098  161.7279 H   0  0  0  0  0  0  0  0  0  0  0  0
  150.8225  145.6179  160.5502 H   0  0  0  0  0  0  0  0  0  0  0  0
  149.6154  144.5431  159.8462 H   0  0  0  0  0  0  0  0  0  0  0  0
  150.8230  145.3232  158.8118 H   0  0  0  0  0  0  0  0  0  0  0  0
  149.8596  139.5370  155.5820 H   0  0  0  0  0  0  0  0  0  0  0  0
  148.2068  139.8106  156.0816 H   0  0  0  0  0  0  0  0  0  0  0  0
  148.2735  138.1525  154.2669 H   0  0  0  0  0  0  0  0  0  0  0  0
  149.1495  139.2507  153.2225 H   0  0  0  0  0  0  0  0  0  0  0  0
  146.4589  139.7174  154.2877 H   0  0  0  0  0  0  0  0  0  0  0  0
  1  2  1  0  0  0  0
  1 23  1  0  0  0  0
  1 24  1  0  0  0  0
  1 25  1  0  0  0  0
  2  3  1  0  0  0  0
  2 26  1  0  0  0  0
  3  4  2  0  0  0  0
  3  5  1  0  0  0  0
  5  6  1  0  0  0  0
  5 27  1  0  0  0  0
  5 28  1  0  0  0  0
  6 22  1  0  0  0  0
  6  7  1  0  0  0  0
  6 46  1  0  0  0  0
  7  8  1  0  0  0  0
  7 29  1  0  0  0  0
  7 30  1  0  0  0  0
  8  9  1  0  0  0  0
  8 31  1  0  0  0  0
  8 32  1  0  0  0  0
  9 10  1  0  0  0  0
  9 21  1  0  0  0  0
  9 33  1  0  0  0  0
 10 11  1  0  0  0  0
 10 34  1  0  0  0  0
 11 12  2  0  0  0  0
 11 13  1  0  0  0  0
 13 14  1  0  0  0  0
 13 35  1  0  0  0  0
 14 19  1  0  0  0  0
 14 15  2  0  0  0  0
 15 16  1  0  0  0  0
 16 17  2  0  0  0  0
 16 36  1  0  0  0  0
 17 18  1  0  0  0  0
 17 37  1  0  0  0  0
 18 19  2  0  0  0  0
 18 38  1  0  0  0  0
 19 20  1  0  0  0  0
 20 39  1  0  0  0  0
 20 40  1  0  0  0  0
 20 41  1  0  0  0  0
 21 22  1  0  0  0  0
 21 42  1  0  0  0  0
 21 43  1  0  0  0  0
 22 44  1  0  0  0  0
 22 45  1  0  0  0  0
M  CHG  1   6   1
M  END
> <s_m_source_file>
AV-unprocessed.smi

> <i_m_source_file_index>
1388

> <i_lp_mmshare_version>
43012

> <i_f3d_flags>
0

> <s_epik_input>
W0NIM11bTkhdQyg9TylbQ0gyXU4xW0NIMl1bQ0gyXVtDSF0oW0NIMl1bQ0gyXTEpW05IXUMoPU8pW05IXWMybltjSF1bY0hdW2NIXWMyW0NIM10=

> <s_epik_cmdline>
J2VwaWtfcHl0aG9uJywgJy1waCcsICc3LjAnLCAnLXRuJywgJzgnLCAnLW1hJywgJzIwMCcsICctbWV0YWxfYmluZGluZycsICctaW1hZScsICc8aW5maWxlLm1hZT4nLCAnLW9tYWUnLCAnPG91dGZpbGUubWFlPic=

> <r_epik_Ionization_Penalty>
0.83891

> <r_epik_Ionization_Penalty_Charging>
0.838844

> <r_epik_Ionization_Penalty_Neutral>
6.58477e-05

> <r_epik_State_Penalty>
0.8734

> <r_epik_Charging_Adjusted_Penalty>
1.71224

> <i_epik_Tot_Q>
1

> <i_epik_Tot_abs_Q>
1

> <r_epik_Metal_State_Penalty>
0.877924

> <b_epik_Metal_Only>
0

> <s_lp_Force_Field>
OPLS_2005

> <r_lp_Energy>
15.763

> <b_lp_Chiralities_Consistent>
1

> <s_lp_Variant>
AV-unprocessed.smi:1388-2

> <Gold.Version>
5.8.1

> <Gold.Id.Protein>
6NUR|6NUR_protein|mol2

> <Gold.PLP.Fitness>
47.6285

> <Gold.PLP.PLP>
-43.0615

> <Gold.PLP.part.hbond>
-3.3152

> <Gold.PLP.part.metal>
0.0000

> <Gold.PLP.part.buried>
-5.0076

> <Gold.PLP.part.nonpolar>
-35.1852

> <Gold.PLP.part.repulsive>
0.3843

> <Gold.PLP.ligand.clash>
0.0000

> <Gold.PLP.ligand.torsion>
0.5697

> <Gold.PLP.Chemscore.Hbond>
1.8960

> <Gold.PLP.Chemscore.CHOScore>
0.0000

> <Gold.PLP.Chemscore.Metal>
0.0000

> <Gold.Chemscore.Hbonds>
donor molecule, donor type, donor heavy atom, donor atom, acceptor molecule, acceptor atom, score
      L1  H     2    26       P1 10175  1.00
      L1  H    10    34       P1  8028  0.69

> <Gold.PLP.Chemscore.Internal.Correction>
0.0185

> <Gold.Rescore>
     Score         DG    S(hbond)    S(metal)    S(lipo)     H(rot)  DE(clash)    DE(int)     intcor
     15.76     -19.33       1.98        0.00      98.57       1.69       0.24       3.33       ----

> <Gold.Chemscore.Fitness>
15.7634

> <Gold.Chemscore.DG>
-19.3277

> <Gold.Chemscore.ZeroCoef>
-5.4800

> <Gold.Chemscore.Hbond>
1.9850

> <Gold.Chemscore.Metal>
0.0000

> <Gold.Chemscore.Lipo>
98.5655

> <Gold.Chemscore.Internal_Hbond>
0.0000

> <Gold.Chemscore.DEClash>
0.2384

> <Gold.Chemscore.DEInternal>
3.3259

> <Gold.Chemscore.Rot>
1.6853

> <Gold.Chemscore.Internal.Correction>
   9.000000E+99

> <Gold.Chemscore.Hbonds>
donor molecule, donor type, donor heavy atom, donor atom, acceptor molecule, acceptor atom, score
      L1  H     2    26       P1 10175  0.98
      L1  H    10    34       P1  8028  0.68

> <Gold.Chemscore.Hbond.Weighted>
-6.6298

> <Gold.Chemscore.Metal.Weighted>
-0.0000

> <Gold.Chemscore.Lipo.Weighted>
-11.5322

> <Gold.Chemscore.Internal_Hbond.Weighted>
0.0000

> <Gold.Chemscore.DEClash.Weighted>
0.2384

> <Gold.Chemscore.DEInternal.Weighted>
3.3259

> <Gold.Chemscore.Rot.Weighted>
4.3143

> <Gold.Chemscore.Internal.Correction.Weighted>
   9.000000E+99

> <Gold.Protein.RotatedTorsions>
[ 6907 6896 6895 6894 ] final  -37.53 input  -60.11 | X-H torsion
[ 7974 7965 7964 7962 ] final -179.61 input  175.53 | X-H torsion
[ 8008 7997 7996 7995 ] final  149.81 input   59.86 | X-H torsion
[ 10167 10162 10161 10158 ] final   59.20 input  -65.29 | X-H torsion
[ 10718 10713 10712 10709 ] final    3.03 input   66.30 | X-H torsion
[ 10763 10752 10751 10750 ] final -101.45 input  -60.55 | X-H torsion
[ 11005 11000 10999 10996 ] final  103.13 input  -57.11 | X-H torsion

> <Gold.Protein.ActiveResidues>
 VAL166  LYS551  ARG553  GLY616  TRP617  ASP618  TYR619  PRO620  LYS621  CYS622 
 ASP623  PHE694  ASN695  SER759  ASP760  ASP761  ALA762  ILE779  LEU786  VAL792 
 PHE793  MET794  SER795  GLU796  ALA797  LYS798  CYS799  TRP800  GLU811  SER814 

> <Gold.Protein.RotatedAtoms>
  151.0136  134.9415  159.8020 H   0  0  0  0  0  0  0  0  0  0  0  0  # atno 6907 bound_to 6896
  152.5308  134.2996  159.9083 H   0  0  0  0  0  0  0  0  0  0  0  0  # atno 6908 bound_to 6896
  151.3002  133.4084  159.2673 H   0  0  0  0  0  0  0  0  0  0  0  0  # atno 6909 bound_to 6896
  144.7138  140.0691  143.6430 H   0  0  0  0  0  0  0  0  0  0  0  0  # atno 7974 bound_to 7965
  156.2740  140.2092  156.5917 H   0  0  0  0  0  0  0  0  0  0  0  0  # atno 8008 bound_to 7997
  154.6977  140.0524  157.0450 H   0  0  0  0  0  0  0  0  0  0  0  0  # atno 8009 bound_to 7997
  155.0778  140.3183  155.4613 H   0  0  0  0  0  0  0  0  0  0  0  0  # atno 8010 bound_to 7997
  140.1790  144.4201  150.6624 H   0  0  0  0  0  0  0  0  0  0  0  0  # atno 10167 bound_to 10162
  156.8717  130.5622  149.5657 H   0  0  0  0  0  0  0  0  0  0  0  0  # atno 10718 bound_to 10713
  154.7658  135.4897  153.9552 H   0  0  0  0  0  0  0  0  0  0  0  0  # atno 10763 bound_to 10752
  153.1307  135.6752  153.9191 H   0  0  0  0  0  0  0  0  0  0  0  0  # atno 10764 bound_to 10752
  153.8896  135.3122  155.3426 H   0  0  0  0  0  0  0  0  0  0  0  0  # atno 10765 bound_to 10752
  139.8782  134.9251  156.5163 H   0  0  0  0  0  0  0  0  0  0  0  0  # atno 11005 bound_to 11000
  145.9798  139.2933  143.1048 LP  0  0  0  0  0  0  0  0  0  0  0  0  # atno 17320 bound_to 7965
  145.9023  140.9235  143.0496 LP  0  0  0  0  0  0  0  0  0  0  0  0  # atno 17321 bound_to 7965
  140.6532  143.2230  151.6029 LP  0  0  0  0  0  0  0  0  0  0  0  0  # atno 17342 bound_to 10162
  139.5304  144.2932  152.1135 LP  0  0  0  0  0  0  0  0  0  0  0  0  # atno 17343 bound_to 10162
  156.0723  130.5753  150.9406 LP  0  0  0  0  0  0  0  0  0  0  0  0  # atno 17370 bound_to 10713
  157.6191  131.0931  150.8655 LP  0  0  0  0  0  0  0  0  0  0  0  0  # atno 17371 bound_to 10713
  140.8483  133.8151  155.9143 LP  0  0  0  0  0  0  0  0  0  0  0  0  # atno 17394 bound_to 11000
  140.9169  134.2190  157.4951 LP  0  0  0  0  0  0  0  0  0  0  0  0  # atno 17395 bound_to 11000

$$$$
