AV-unprocessed.smi:155|AV-procd|sdf|1284|dock3
  -GOLD-   2262018553D 1   1.00000     0.00000
 Structure written by MMmdl.
 64 67  0  0  0  0  0  0  0  0  3 V2000
  143.7705  132.6112  151.4487 C   0  0  0  0  0  0  0  0  0  0  0  0
  143.5820  133.6743  150.4343 N   0  3  0  0  0  0  0  0  0  0  0  0
  144.0924  133.2551  149.1097 C   0  0  0  0  0  0  0  0  0  0  0  0
  144.1287  134.9911  150.8512 C   0  0  0  0  0  0  0  0  0  0  0  0
  145.6605  134.9592  151.0632 C   0  0  0  0  0  0  0  0  0  0  0  0
  146.1835  136.0988  151.8638 N   0  3  1  0  0  0  0  0  0  0  0  0
  145.8295  137.4228  151.2953 C   0  0  0  0  0  0  0  0  0  0  0  0
  146.7758  138.5356  151.7653 C   0  0  0  0  0  0  0  0  0  0  0  0
  146.7347  138.8058  153.2769 C   0  0  0  0  0  0  0  0  0  0  0  0
  147.5118  137.8178  154.0302 N   0  0  0  0  0  0  0  0  0  0  0  0
  148.3250  138.2646  155.0225 C   0  0  0  0  0  0  0  0  0  0  0  0
  148.6784  137.4226  156.0301 N   0  0  0  0  0  0  0  0  0  0  0  0
  149.4931  137.8386  157.0046 C   0  0  0  0  0  0  0  0  0  0  0  0
  150.0615  139.0353  157.1628 N   0  0  0  0  0  0  0  0  0  0  0  0
  149.7118  139.8849  156.1559 C   0  0  0  0  0  0  0  0  0  0  0  0
  148.8587  139.5849  155.0560 C   0  0  0  0  0  0  0  0  0  0  0  0
  148.7297  140.7045  154.2417 N   0  0  0  0  0  0  0  0  0  0  0  0
  149.4684  141.6104  154.8223 C   0  0  0  0  0  0  0  0  0  0  0  0
  150.0990  141.2003  155.9746 N   0  0  0  0  0  0  0  0  0  0  0  0
  150.9763  141.9939  156.8165 C   0  0  0  0  0  0  0  0  0  0  0  0
  150.3765  142.2831  158.2086 C   0  0  2  0  0  0  0  0  0  0  0  0
  149.1165  142.8920  158.0073 O   0  0  0  0  0  0  0  0  0  0  0  0
  151.2679  143.1741  159.1049 C   0  0  1  0  0  0  0  0  0  0  0  0
  151.8889  144.4137  158.4539 C   0  0  0  0  0  0  0  0  0  0  0  0
  152.1281  145.2903  159.6627 C   0  0  0  0  0  0  0  0  0  0  0  0
  150.8918  144.9962  160.5091 C   0  0  0  0  0  0  0  0  0  0  0  0
  150.5510  143.6377  160.2455 O   0  0  0  0  0  0  0  0  0  0  0  0
  147.0725  136.4291  154.1920 C   0  0  0  0  0  0  0  0  0  0  0  0
  145.8866  135.9916  153.3155 C   0  0  0  0  0  0  0  0  0  0  0  0
  144.8295  132.4480  151.6531 H   0  0  0  0  0  0  0  0  0  0  0  0
  143.3438  131.6694  151.1015 H   0  0  0  0  0  0  0  0  0  0  0  0
  143.2737  132.8605  152.3858 H   0  0  0  0  0  0  0  0  0  0  0  0
  145.1747  133.1200  149.1326 H   0  0  0  0  0  0  0  0  0  0  0  0
  143.8555  133.9987  148.3478 H   0  0  0  0  0  0  0  0  0  0  0  0
  143.6376  132.3134  148.8001 H   0  0  0  0  0  0  0  0  0  0  0  0
  143.8493  135.7506  150.1196 H   0  0  0  0  0  0  0  0  0  0  0  0
  143.6479  135.2743  151.7884 H   0  0  0  0  0  0  0  0  0  0  0  0
  145.9477  134.0301  151.5580 H   0  0  0  0  0  0  0  0  0  0  0  0
  146.1766  134.9561  150.1029 H   0  0  0  0  0  0  0  0  0  0  0  0
  145.8896  137.3712  150.2072 H   0  0  0  0  0  0  0  0  0  0  0  0
  144.7953  137.6765  151.5332 H   0  0  0  0  0  0  0  0  0  0  0  0
  147.7986  138.3270  151.4478 H   0  0  0  0  0  0  0  0  0  0  0  0
  146.4884  139.4530  151.2507 H   0  0  0  0  0  0  0  0  0  0  0  0
  147.1458  139.8039  153.4328 H   0  0  0  0  0  0  0  0  0  0  0  0
  145.7081  138.8386  153.6432 H   0  0  0  0  0  0  0  0  0  0  0  0
  149.7236  137.1074  157.7657 H   0  0  0  0  0  0  0  0  0  0  0  0
  149.5775  142.6074  154.4206 H   0  0  0  0  0  0  0  0  0  0  0  0
  151.9259  141.4661  156.9157 H   0  0  0  0  0  0  0  0  0  0  0  0
  151.1926  142.9279  156.2963 H   0  0  0  0  0  0  0  0  0  0  0  0
  150.2086  141.3336  158.7184 H   0  0  0  0  0  0  0  0  0  0  0  0
  149.0738  143.2063  157.1173 H   0  0  0  0  0  0  0  0  0  0  0  0
  152.0774  142.5717  159.5189 H   0  0  0  0  0  0  0  0  0  0  0  0
  152.8012  144.1898  157.9007 H   0  0  0  0  0  0  0  0  0  0  0  0
  151.1917  144.9082  157.7770 H   0  0  0  0  0  0  0  0  0  0  0  0
  153.0290  144.9689  160.1876 H   0  0  0  0  0  0  0  0  0  0  0  0
  152.2340  146.3467  159.4143 H   0  0  0  0  0  0  0  0  0  0  0  0
  151.0634  145.1664  161.5721 H   0  0  0  0  0  0  0  0  0  0  0  0
  150.0592  145.6273  160.1957 H   0  0  0  0  0  0  0  0  0  0  0  0
  147.9127  135.7700  153.9756 H   0  0  0  0  0  0  0  0  0  0  0  0
  146.8136  136.2630  155.2390 H   0  0  0  0  0  0  0  0  0  0  0  0
  144.9809  136.5437  153.5715 H   0  0  0  0  0  0  0  0  0  0  0  0
  145.6753  134.9517  153.5684 H   0  0  0  0  0  0  0  0  0  0  0  0
  142.5853  133.7949  150.3210 H   0  0  0  0  0  0  0  0  0  0  0  0
  147.1883  136.0232  151.7857 H   0  0  0  0  0  0  0  0  0  0  0  0
  1  2  1  0  0  0  0
  1 30  1  0  0  0  0
  1 31  1  0  0  0  0
  1 32  1  0  0  0  0
  2  3  1  0  0  0  0
  2  4  1  0  0  0  0
  2 63  1  0  0  0  0
  3 33  1  0  0  0  0
  3 34  1  0  0  0  0
  3 35  1  0  0  0  0
  4  5  1  0  0  0  0
  4 36  1  0  0  0  0
  4 37  1  0  0  0  0
  5  6  1  0  0  0  0
  5 38  1  0  0  0  0
  5 39  1  0  0  0  0
  6 29  1  0  0  0  0
  6  7  1  0  0  0  0
  6 64  1  0  0  0  0
  7  8  1  0  0  0  0
  7 40  1  0  0  0  0
  7 41  1  0  0  0  0
  8  9  1  0  0  0  0
  8 42  1  0  0  0  0
  8 43  1  0  0  0  0
  9 10  1  0  0  0  0
  9 44  1  0  0  0  0
  9 45  1  0  0  0  0
 10 11  1  0  0  0  0
 10 28  1  0  0  0  0
 11 16  1  0  0  0  0
 11 12  2  0  0  0  0
 12 13  1  0  0  0  0
 13 14  2  0  0  0  0
 13 46  1  0  0  0  0
 14 15  1  0  0  0  0
 15 19  1  0  0  0  0
 15 16  2  0  0  0  0
 16 17  1  0  0  0  0
 17 18  2  0  0  0  0
 18 19  1  0  0  0  0
 18 47  1  0  0  0  0
 19 20  1  0  0  0  0
 20 21  1  0  0  0  0
 20 48  1  0  0  0  0
 20 49  1  0  0  0  0
 21 22  1  0  0  0  0
 21 23  1  0  0  0  0
 21 50  1  0  0  0  0
 22 51  1  0  0  0  0
 23 27  1  0  0  0  0
 23 24  1  0  0  0  0
 23 52  1  0  0  0  0
 24 25  1  0  0  0  0
 24 53  1  0  0  0  0
 24 54  1  0  0  0  0
 25 26  1  0  0  0  0
 25 55  1  0  0  0  0
 25 56  1  0  0  0  0
 26 27  1  0  0  0  0
 26 57  1  0  0  0  0
 26 58  1  0  0  0  0
 28 29  1  0  0  0  0
 28 59  1  0  0  0  0
 28 60  1  0  0  0  0
 29 61  1  0  0  0  0
 29 62  1  0  0  0  0
M  CHG  1   2   1
M  CHG  1   6   1
M  END
> <s_m_source_file>
AV-unprocessed.smi

> <i_m_source_file_index>
155

> <i_lp_mmshare_version>
43012

> <i_f3d_flags>
0

> <s_epik_input>
W0NIM11OKFtDSDNdKVtDSDJdW0NIMl1OMVtDSDJdW0NIMl1bQ0gyXU4oW0NIMl1bQ0gyXTEpYyhuW2NIXW4yKWMoYzIzKW5bY0hdbjNbQ0gyXVtDQEhdKFtPSF0pW0NAQEhdNFtDSDJdW0NIMl1bQ0gyXU80

> <s_epik_cmdline>
J2VwaWtfcHl0aG9uJywgJy1waCcsICc3LjAnLCAnLXRuJywgJzgnLCAnLW1hJywgJzIwMCcsICctbWV0YWxfYmluZGluZycsICctaW1hZScsICc8aW5maWxlLm1hZT4nLCAnLW9tYWUnLCAnPG91dGZpbGUubWFlPic=

> <r_lp_tautomer_probability>
1

> <r_epik_Ionization_Penalty>
3.0333

> <r_epik_Ionization_Penalty_Charging>
3.03317

> <r_epik_Ionization_Penalty_Neutral>
0.000131872

> <r_epik_State_Penalty>
1.99939

> <r_epik_Charging_Adjusted_Penalty>
5.03256

> <i_epik_Tot_Q>
2

> <i_epik_Tot_abs_Q>
2

> <r_epik_Metal_State_Penalty>
2.00021

> <b_epik_Metal_Only>
0

> <s_lp_Force_Field>
OPLS_2005

> <r_lp_Energy>
68.1254

> <b_lp_Chiralities_Consistent>
1

> <s_lp_Variant>
AV-unprocessed.smi:155-18

> <Gold.Version>
5.8.1

> <Gold.Id.Protein>
6NUR|6NUR_protein|mol2

> <Gold.PLP.Fitness>
63.7628

> <Gold.PLP.PLP>
-47.1172

> <Gold.PLP.part.hbond>
-4.6006

> <Gold.PLP.part.metal>
0.0000

> <Gold.PLP.part.buried>
5.0738

> <Gold.PLP.part.nonpolar>
-47.3891

> <Gold.PLP.part.repulsive>
0.3634

> <Gold.PLP.ligand.clash>
0.0000

> <Gold.PLP.ligand.torsion>
0.5128

> <Gold.PLP.Chemscore.Hbond>
5.0000

> <Gold.PLP.Chemscore.CHOScore>
0.7893

> <Gold.PLP.Chemscore.Metal>
0.0000

> <Gold.Chemscore.Hbonds>
donor molecule, donor type, donor heavy atom, donor atom, acceptor molecule, acceptor atom, score
      L1  H     2    63       P1 10186  2.00
      L1  H     6    64       P1  7948  2.00
      L1  H    22    51       P1  8028  0.83
      L1  C    18    47       P1  8028  0.90

> <Gold.PLP.Chemscore.Internal.Correction>
0.3033

> <Gold.Rescore>
     Score         DG    S(hbond)    S(metal)    S(lipo)     H(rot)  DE(clash)    DE(int)     intcor
     18.50     -22.00       2.74        0.00     123.24       2.75       1.97       1.53       ----

> <Gold.Chemscore.Fitness>
18.5050

> <Gold.Chemscore.DG>
-21.9966

> <Gold.Chemscore.ZeroCoef>
-5.4800

> <Gold.Chemscore.Hbond>
2.7353

> <Gold.Chemscore.Metal>
0.0000

> <Gold.Chemscore.Lipo>
123.2399

> <Gold.Chemscore.Internal_Hbond>
0.0000

> <Gold.Chemscore.DEClash>
1.9653

> <Gold.Chemscore.DEInternal>
1.5263

> <Gold.Chemscore.Rot>
2.7493

> <Gold.Chemscore.Internal.Correction>
   9.000000E+99

> <Gold.Chemscore.Hbonds>
donor molecule, donor type, donor heavy atom, donor atom, acceptor molecule, acceptor atom, score
      L1  H     2    63       P1 10186  0.97
      L1  H     6    64       P1  7948  1.00
      L1  H    22    51       P1  8028  0.61

> <Gold.Chemscore.Hbond.Weighted>
-9.1358

> <Gold.Chemscore.Metal.Weighted>
-0.0000

> <Gold.Chemscore.Lipo.Weighted>
-14.4191

> <Gold.Chemscore.Internal_Hbond.Weighted>
0.0000

> <Gold.Chemscore.DEClash.Weighted>
1.9653

> <Gold.Chemscore.DEInternal.Weighted>
1.5263

> <Gold.Chemscore.Rot.Weighted>
7.0383

> <Gold.Chemscore.Internal.Correction.Weighted>
   9.000000E+99

> <Gold.Protein.RotatedTorsions>
[ 6907 6896 6895 6894 ] final  -16.05 input  -60.11 | X-H torsion
[ 7974 7965 7964 7962 ] final   28.52 input  175.53 | X-H torsion
[ 8008 7997 7996 7995 ] final  -98.01 input   59.86 | X-H torsion
[ 10167 10162 10161 10158 ] final   42.15 input  -65.29 | X-H torsion
[ 10718 10713 10712 10709 ] final   21.04 input   66.30 | X-H torsion
[ 10763 10752 10751 10750 ] final  108.19 input  -60.55 | X-H torsion
[ 11005 11000 10999 10996 ] final -135.59 input  -57.11 | X-H torsion

> <Gold.Protein.ActiveResidues>
 VAL166  LYS551  ARG553  GLY616  TRP617  ASP618  TYR619  PRO620  LYS621  CYS622 
 ASP623  PHE694  ASN695  SER759  ASP760  ASP761  ALA762  ILE779  LEU786  VAL792 
 PHE793  MET794  SER795  GLU796  ALA797  LYS798  CYS799  TRP800  GLU811  SER814 

> <Gold.Protein.RotatedAtoms>
  151.3145  135.0803  159.9283 H   0  0  0  0  0  0  0  0  0  0  0  0  # atno 6907 bound_to 6896
  152.5270  133.9701  159.7768 H   0  0  0  0  0  0  0  0  0  0  0  0  # atno 6908 bound_to 6896
  151.0011  133.6003  159.2725 H   0  0  0  0  0  0  0  0  0  0  0  0  # atno 6909 bound_to 6896
  146.1724  139.7045  142.8958 H   0  0  0  0  0  0  0  0  0  0  0  0  # atno 7974 bound_to 7965
  154.7955  140.0458  157.1233 H   0  0  0  0  0  0  0  0  0  0  0  0  # atno 8008 bound_to 7997
  154.9541  140.3069  155.5041 H   0  0  0  0  0  0  0  0  0  0  0  0  # atno 8009 bound_to 7997
  156.2955  140.2283  156.4621 H   0  0  0  0  0  0  0  0  0  0  0  0  # atno 8010 bound_to 7997
  140.3572  144.2274  150.6141 H   0  0  0  0  0  0  0  0  0  0  0  0  # atno 10167 bound_to 10162
  157.1329  130.6599  149.5957 H   0  0  0  0  0  0  0  0  0  0  0  0  # atno 10718 bound_to 10713
  153.4172  135.3820  155.2088 H   0  0  0  0  0  0  0  0  0  0  0  0  # atno 10763 bound_to 10752
  154.8742  135.3808  154.4429 H   0  0  0  0  0  0  0  0  0  0  0  0  # atno 10764 bound_to 10752
  153.4944  135.7088  153.5929 H   0  0  0  0  0  0  0  0  0  0  0  0  # atno 10765 bound_to 10752
  140.8884  134.1843  157.4544 H   0  0  0  0  0  0  0  0  0  0  0  0  # atno 11005 bound_to 11000
  145.4304  141.0414  143.2914 LP  0  0  0  0  0  0  0  0  0  0  0  0  # atno 17320 bound_to 7965
  144.8184  139.5836  143.6998 LP  0  0  0  0  0  0  0  0  0  0  0  0  # atno 17321 bound_to 7965
  140.5162  143.2277  151.8460 LP  0  0  0  0  0  0  0  0  0  0  0  0  # atno 17342 bound_to 10162
  139.4818  144.4892  151.9207 LP  0  0  0  0  0  0  0  0  0  0  0  0  # atno 17343 bound_to 10162
  155.9804  130.4805  150.6771 LP  0  0  0  0  0  0  0  0  0  0  0  0  # atno 17370 bound_to 10713
  157.4376  131.0857  151.0976 LP  0  0  0  0  0  0  0  0  0  0  0  0  # atno 17371 bound_to 10713
  139.8727  134.9848  156.5254 LP  0  0  0  0  0  0  0  0  0  0  0  0  # atno 17394 bound_to 11000
  140.8377  133.8229  155.9044 LP  0  0  0  0  0  0  0  0  0  0  0  0  # atno 17395 bound_to 11000

$$$$
