AV-unprocessed.smi:114|AV-procd|sdf|1107|dock6
  -GOLD-   2262018223D 1   1.00000     0.00000
 Structure written by MMmdl.
 32 34  0  0  0  0  0  0  0  0  1 V2000
  143.3032  134.0346  153.5684 N   0  0  0  0  0  0  0  0  0  0  0  0
  144.2024  134.7841  154.2213 C   0  0  0  0  0  0  0  0  0  0  0  0
  144.7622  134.2847  155.3480 N   0  0  0  0  0  0  0  0  0  0  0  0
  145.6657  135.0002  156.0303 C   0  0  0  0  0  0  0  0  0  0  0  0
  146.1733  134.4217  157.1439 F   0  0  0  0  0  0  0  0  0  0  0  0
  146.1230  136.2225  155.7360 N   0  0  0  0  0  0  0  0  0  0  0  0
  145.5584  136.7268  154.6012 C   0  0  0  0  0  0  0  0  0  0  0  0
  144.5952  136.0738  153.7879 C   0  0  0  0  0  0  0  0  0  0  0  0
  144.2529  136.8863  152.7146 N   0  0  0  0  0  0  0  0  0  0  0  0
  144.9782  137.9594  152.8890 C   0  0  0  0  0  0  0  0  0  0  0  0
  145.7913  137.9441  154.0027 N   0  0  0  0  0  0  0  0  0  0  0  0
  146.7414  138.9890  154.4905 C   0  0  2  0  0  0  0  0  0  0  0  0
  146.0860  140.2123  154.4733 O   0  0  0  0  0  0  0  0  0  0  0  0
  147.0753  141.2272  154.4247 C   0  0  2  0  0  0  0  0  0  0  0  0
  146.4435  142.5534  153.9766 C   0  0  0  0  0  0  0  0  0  0  0  0
  145.0600  142.5466  154.2562 O   0  0  0  0  0  0  0  0  0  0  0  0
  148.0923  140.6612  153.4229 C   0  0  1  0  0  0  0  0  0  0  0  0
  149.3926  141.1115  153.7465 O   0  0  0  0  0  0  0  0  0  0  0  0
  147.9889  139.1447  153.5967 C   0  0  2  0  0  0  0  0  0  0  0  0
  147.8852  138.4997  152.3394 O   0  0  0  0  0  0  0  0  0  0  0  0
  146.9816  138.7089  155.5176 H   0  0  0  0  0  0  0  0  0  0  0  0
  147.5340  141.3220  155.4118 H   0  0  0  0  0  0  0  0  0  0  0  0
  147.8316  140.9578  152.4055 H   0  0  0  0  0  0  0  0  0  0  0  0
  148.8414  138.7299  154.1367 H   0  0  0  0  0  0  0  0  0  0  0  0
  142.8725  134.3860  152.7250 H   0  0  0  0  0  0  0  0  0  0  0  0
  143.0570  133.1210  153.9209 H   0  0  0  0  0  0  0  0  0  0  0  0
  144.9409  138.7940  152.2041 H   0  0  0  0  0  0  0  0  0  0  0  0
  146.8850  143.3839  154.5282 H   0  0  0  0  0  0  0  0  0  0  0  0
  146.6176  142.7390  152.9163 H   0  0  0  0  0  0  0  0  0  0  0  0
  144.6980  141.7236  153.9652 H   0  0  0  0  0  0  0  0  0  0  0  0
  149.3749  141.4764  154.6183 H   0  0  0  0  0  0  0  0  0  0  0  0
  148.4474  138.9475  151.7261 H   0  0  0  0  0  0  0  0  0  0  0  0
  1  2  1  0  0  0  0
  1 25  1  0  0  0  0
  1 26  1  0  0  0  0
  2  8  1  0  0  0  0
  2  3  2  0  0  0  0
  3  4  1  0  0  0  0
  4  5  1  0  0  0  0
  4  6  2  0  0  0  0
  6  7  1  0  0  0  0
  7 11  1  0  0  0  0
  7  8  2  0  0  0  0
  8  9  1  0  0  0  0
  9 10  2  0  0  0  0
 10 11  1  0  0  0  0
 10 27  1  0  0  0  0
 11 12  1  0  0  0  0
 12 21  1  0  0  0  0
 12 19  1  0  0  0  0
 12 13  1  0  0  0  0
 13 14  1  0  0  0  0
 14 22  1  0  0  0  0
 14 15  1  0  0  0  0
 14 17  1  0  0  0  0
 15 16  1  0  0  0  0
 15 28  1  0  0  0  0
 15 29  1  0  0  0  0
 16 30  1  0  0  0  0
 17 23  1  0  0  0  0
 17 18  1  0  0  0  0
 17 19  1  0  0  0  0
 18 31  1  0  0  0  0
 19 24  1  0  0  0  0
 19 20  1  0  0  0  0
 20 32  1  0  0  0  0
M  END
> <s_m_source_file>
AV-unprocessed.smi

> <i_m_source_file_index>
114

> <i_lp_mmshare_version>
43012

> <i_f3d_flags>
0

> <s_epik_input>
RmMobjEpbmMoW05IMl0pYyhjMTIpbltjSF1uMltDQEBIXTNPW0NASF0oW0NIMl1bT0hdKVtDQEBIXShbT0hdKVtDQEBIXTNbT0hd

> <s_epik_cmdline>
J2VwaWtfcHl0aG9uJywgJy1waCcsICc3LjAnLCAnLXRuJywgJzgnLCAnLW1hJywgJzIwMCcsICctbWV0YWxfYmluZGluZycsICctaW1hZScsICc8aW5maWxlLm1hZT4nLCAnLW9tYWUnLCAnPG91dGZpbGUubWFlPic=

> <r_lp_tautomer_probability>
1

> <r_epik_Ionization_Penalty>
1.13199e-05

> <r_epik_Ionization_Penalty_Charging>
0

> <r_epik_Ionization_Penalty_Neutral>
1.13199e-05

> <r_epik_State_Penalty>
-0

> <r_epik_Charging_Adjusted_Penalty>
0

> <i_epik_Tot_Q>
0

> <i_epik_Tot_abs_Q>
0

> <r_epik_Metal_State_Penalty>
-0

> <b_epik_Metal_Only>
0

> <s_epik_Chemistry_Notes>
This compound contains an acetal/aminal-like group ( X-CH(R)-Y where X, Y are N, S, or O) that may be acid/base labile, releasing an aldehyde.

> <s_lp_Force_Field>
OPLS_2005

> <r_lp_Energy>
35.9839

> <b_lp_Chiralities_Consistent>
1

> <s_lp_Variant>
AV-unprocessed.smi:114-1

> <Gold.Version>
5.8.1

> <Gold.Id.Protein>
6NUR|6NUR_protein|mol2

> <Gold.PLP.Fitness>
31.1343

> <Gold.PLP.PLP>
-16.8281

> <Gold.PLP.part.hbond>
-7.5628

> <Gold.PLP.part.metal>
0.0000

> <Gold.PLP.part.buried>
2.4636

> <Gold.PLP.part.nonpolar>
-12.7225

> <Gold.PLP.part.repulsive>
0.5680

> <Gold.PLP.ligand.clash>
0.0000

> <Gold.PLP.ligand.torsion>
0.7860

> <Gold.PLP.Chemscore.Hbond>
3.7133

> <Gold.PLP.Chemscore.CHOScore>
1.5753

> <Gold.PLP.Chemscore.Metal>
0.0000

> <Gold.Chemscore.Hbonds>
donor molecule, donor type, donor heavy atom, donor atom, acceptor molecule, acceptor atom, score
      L1  H     1    26       P1 10957  1.00
      L1  H    16    30       P1 10175  0.51
      L1  H    20    32       P1  7957  1.00
      P1  H  7989  7998       L1    18  0.15
      P1  H  8011  8017       L1    18  0.94
      L1  C    10    27       P1 10171  0.67
      L1  C    10    27       P1 10175  0.88

> <Gold.PLP.Chemscore.Internal.Correction>
0.0125

> <Gold.Rescore>
     Score         DG    S(hbond)    S(metal)    S(lipo)     H(rot)  DE(clash)    DE(int)     intcor
      4.59      -6.36       2.45        0.00      25.75       4.03       0.08       1.70       ----

> <Gold.Chemscore.Fitness>
4.5855

> <Gold.Chemscore.DG>
-6.3571

> <Gold.Chemscore.ZeroCoef>
-5.4800

> <Gold.Chemscore.Hbond>
2.4476

> <Gold.Chemscore.Metal>
0.0000

> <Gold.Chemscore.Lipo>
25.7541

> <Gold.Chemscore.Internal_Hbond>
0.0000

> <Gold.Chemscore.DEClash>
0.0757

> <Gold.Chemscore.DEInternal>
1.6959

> <Gold.Chemscore.Rot>
4.0277

> <Gold.Chemscore.Internal.Correction>
   9.000000E+99

> <Gold.Chemscore.Hbonds>
donor molecule, donor type, donor heavy atom, donor atom, acceptor molecule, acceptor atom, score
      L1  H     1    26       P1 10957  1.00
      L1  H    16    30       P1 10175  0.06
      L1  H    20    32       P1  7957  0.82
      P1  H  7989  7998       L1    18  0.04
      P1  H  8011  8017       L1    18  0.35

> <Gold.Chemscore.Hbond.Weighted>
-8.1748

> <Gold.Chemscore.Metal.Weighted>
-0.0000

> <Gold.Chemscore.Lipo.Weighted>
-3.0132

> <Gold.Chemscore.Internal_Hbond.Weighted>
0.0000

> <Gold.Chemscore.DEClash.Weighted>
0.0757

> <Gold.Chemscore.DEInternal.Weighted>
1.6959

> <Gold.Chemscore.Rot.Weighted>
10.3110

> <Gold.Chemscore.Internal.Correction.Weighted>
   9.000000E+99

> <Gold.Protein.RotatedTorsions>
[ 6907 6896 6895 6894 ] final  113.13 input  -60.11 | X-H torsion
[ 7974 7965 7964 7962 ] final  -36.24 input  175.53 | X-H torsion
[ 8008 7997 7996 7995 ] final    5.75 input   59.86 | X-H torsion
[ 10167 10162 10161 10158 ] final -150.23 input  -65.29 | X-H torsion
[ 10718 10713 10712 10709 ] final -159.47 input   66.30 | X-H torsion
[ 10763 10752 10751 10750 ] final  -49.82 input  -60.55 | X-H torsion
[ 11005 11000 10999 10996 ] final   -5.88 input  -57.11 | X-H torsion

> <Gold.Protein.ActiveResidues>
 VAL166  LYS551  ARG553  GLY616  TRP617  ASP618  TYR619  PRO620  LYS621  CYS622 
 ASP623  PHE694  ASN695  SER759  ASP760  ASP761  ALA762  ILE779  LEU786  VAL792 
 PHE793  MET794  SER795  GLU796  ALA797  LYS798  CYS799  TRP800  GLU811  SER814 

> <Gold.Protein.RotatedAtoms>
  152.4878  133.8419  159.7156 H   0  0  0  0  0  0  0  0  0  0  0  0  # atno 6907 bound_to 6896
  150.8980  133.7146  159.2893 H   0  0  0  0  0  0  0  0  0  0  0  0  # atno 6908 bound_to 6896
  151.4597  135.1041  159.9773 H   0  0  0  0  0  0  0  0  0  0  0  0  # atno 6909 bound_to 6896
  146.0678  140.6255  142.8967 H   0  0  0  0  0  0  0  0  0  0  0  0  # atno 7974 bound_to 7965
  154.7322  140.2733  155.6446 H   0  0  0  0  0  0  0  0  0  0  0  0  # atno 8008 bound_to 7997
  156.2853  140.2713  156.1951 H   0  0  0  0  0  0  0  0  0  0  0  0  # atno 8009 bound_to 7997
  155.0366  140.0371  157.2484 H   0  0  0  0  0  0  0  0  0  0  0  0  # atno 8010 bound_to 7997
  139.7373  143.8716  152.2552 H   0  0  0  0  0  0  0  0  0  0  0  0  # atno 10167 bound_to 10162
  156.5686  130.8678  151.2831 H   0  0  0  0  0  0  0  0  0  0  0  0  # atno 10718 bound_to 10713
  154.1002  135.6564  153.4867 H   0  0  0  0  0  0  0  0  0  0  0  0  # atno 10763 bound_to 10752
  153.0291  135.5223  154.7293 H   0  0  0  0  0  0  0  0  0  0  0  0  # atno 10764 bound_to 10752
  154.6443  135.2992  155.0034 H   0  0  0  0  0  0  0  0  0  0  0  0  # atno 10765 bound_to 10752
  140.6959  133.9031  155.8650 H   0  0  0  0  0  0  0  0  0  0  0  0  # atno 11005 bound_to 11000
  144.7213  140.4382  143.7006 LP  0  0  0  0  0  0  0  0  0  0  0  0  # atno 17320 bound_to 7965
  145.6446  139.1555  143.2896 LP  0  0  0  0  0  0  0  0  0  0  0  0  # atno 17321 bound_to 7965
  139.8656  144.7094  150.9047 LP  0  0  0  0  0  0  0  0  0  0  0  0  # atno 17342 bound_to 10162
  140.7780  143.3780  151.1527 LP  0  0  0  0  0  0  0  0  0  0  0  0  # atno 17343 bound_to 10162
  157.7353  130.9760  150.2075 LP  0  0  0  0  0  0  0  0  0  0  0  0  # atno 17370 bound_to 10713
  156.2735  130.3724  149.8008 LP  0  0  0  0  0  0  0  0  0  0  0  0  # atno 17371 bound_to 10713
  141.0203  134.0898  157.4127 LP  0  0  0  0  0  0  0  0  0  0  0  0  # atno 17394 bound_to 11000
  139.8910  135.0116  156.6768 LP  0  0  0  0  0  0  0  0  0  0  0  0  # atno 17395 bound_to 11000

$$$$
