AV-unprocessed.smi:2482|AV-procd|sdf|9782|dock1
  -GOLD-   2272013423D 1   1.00000     0.00000
 Structure written by MMmdl.
 34 35  0  0  0  0  0  0  0  0  3 V2000
  151.4191  144.3912  159.9545 C   0  0  0  0  0  0  0  0  0  0  0  0
  152.1571  143.0662  159.9984 C   0  0  0  0  0  0  0  0  0  0  0  0
  152.7462  142.7665  161.1762 N   0  0  0  0  0  0  0  0  0  0  0  0
  153.4110  141.5978  161.2662 C   0  0  0  0  0  0  0  0  0  0  0  0
  153.5201  140.6866  160.1988 C   0  0  0  0  0  0  0  0  0  0  0  0
  152.9158  140.9901  158.9585 C   0  0  0  0  0  0  0  0  0  0  0  0
  153.0065  140.1269  157.9332 N   0  5  0  0  0  0  0  0  0  0  0  0
  151.8841  139.7091  157.2993 C   0  0  0  0  0  0  0  0  0  0  0  0
  150.7536  139.5533  157.7657 O   0  0  0  0  0  0  0  0  0  0  0  0
  152.1545  139.4127  155.8070 C   0  0  1  0  0  0  0  0  0  0  0  0
  151.9351  137.9368  155.3974 C   0  0  0  0  0  0  0  0  0  0  0  0
  150.4950  137.5863  155.4146 N   0  3  2  0  0  0  0  0  0  0  0  0
  150.2490  136.1643  155.0954 C   0  0  0  0  0  0  0  0  0  0  0  0
  149.7178  138.5100  154.5579 C   0  0  0  0  0  0  0  0  0  0  0  0
  149.9590  139.9663  154.9872 C   0  0  0  0  0  0  0  0  0  0  0  0
  151.3575  140.2487  154.9587 O   0  0  0  0  0  0  0  0  0  0  0  0
  152.2093  142.2174  158.8666 C   0  0  0  0  0  0  0  0  0  0  0  0
  151.4186  142.6796  157.3943 Cl  0  0  0  0  0  0  0  0  0  0  0  0
  151.8526  145.0414  159.1943 H   0  0  0  0  0  0  0  0  0  0  0  0
  151.4702  144.9113  160.9118 H   0  0  0  0  0  0  0  0  0  0  0  0
  150.3678  144.2316  159.7140 H   0  0  0  0  0  0  0  0  0  0  0  0
  153.8706  141.3803  162.2191 H   0  0  0  0  0  0  0  0  0  0  0  0
  154.0657  139.7639  160.3331 H   0  0  0  0  0  0  0  0  0  0  0  0
  153.1999  139.6613  155.6181 H   0  0  0  0  0  0  0  0  0  0  0  0
  152.3340  137.7725  154.3953 H   0  0  0  0  0  0  0  0  0  0  0  0
  152.4869  137.2712  156.0633 H   0  0  0  0  0  0  0  0  0  0  0  0
  150.5742  135.9281  154.0815 H   0  0  0  0  0  0  0  0  0  0  0  0
  149.1874  135.9302  155.1789 H   0  0  0  0  0  0  0  0  0  0  0  0
  150.7883  135.5171  155.7879 H   0  0  0  0  0  0  0  0  0  0  0  0
  150.0094  138.3750  153.5151 H   0  0  0  0  0  0  0  0  0  0  0  0
  148.6552  138.2745  154.6279 H   0  0  0  0  0  0  0  0  0  0  0  0
  149.4536  140.6452  154.3005 H   0  0  0  0  0  0  0  0  0  0  0  0
  149.5376  140.1566  155.9751 H   0  0  0  0  0  0  0  0  0  0  0  0
  150.1774  137.7322  156.3630 H   0  0  0  0  0  0  0  0  0  0  0  0
  1  2  1  0  0  0  0
  1 19  1  0  0  0  0
  1 20  1  0  0  0  0
  1 21  1  0  0  0  0
  2 17  1  0  0  0  0
  2  3  2  0  0  0  0
  3  4  1  0  0  0  0
  4  5  2  0  0  0  0
  4 22  1  0  0  0  0
  5  6  1  0  0  0  0
  5 23  1  0  0  0  0
  6  7  1  0  0  0  0
  6 17  2  0  0  0  0
  7  8  1  0  0  0  0
  8  9  2  0  0  0  0
  8 10  1  0  0  0  0
 10 16  1  0  0  0  0
 10 11  1  0  0  0  0
 10 24  1  0  0  0  0
 11 12  1  0  0  0  0
 11 25  1  0  0  0  0
 11 26  1  0  0  0  0
 12 13  1  0  0  0  0
 12 14  1  0  0  0  0
 12 34  1  0  0  0  0
 13 27  1  0  0  0  0
 13 28  1  0  0  0  0
 13 29  1  0  0  0  0
 14 15  1  0  0  0  0
 14 30  1  0  0  0  0
 14 31  1  0  0  0  0
 15 16  1  0  0  0  0
 15 32  1  0  0  0  0
 15 33  1  0  0  0  0
 17 18  1  0  0  0  0
M  CHG  1   7  -1
M  CHG  1  12   1
M  END
> <s_m_source_file>
AV-unprocessed.smi

> <i_m_source_file_index>
2482

> <i_lp_mmshare_version>
43012

> <i_f3d_flags>
0

> <s_epik_input>
W0NIM11jMW5bY0hdW2NIXWMoYzFDbClbTkhdQyg9TylbQ0BASF0yW0NIMl1OKFtDSDNdKVtDSDJdW0NIMl1PMg==

> <s_epik_cmdline>
J2VwaWtfcHl0aG9uJywgJy1waCcsICc3LjAnLCAnLXRuJywgJzgnLCAnLW1hJywgJzIwMCcsICctbWV0YWxfYmluZGluZycsICctaW1hZScsICc8aW5maWxlLm1hZT4nLCAnLW9tYWUnLCAnPG91dGZpbGUubWFlPic=

> <r_epik_Ionization_Penalty>
6.9249

> <r_epik_Ionization_Penalty_Charging>
6.74596

> <r_epik_Ionization_Penalty_Neutral>
0.178941

> <r_epik_State_Penalty>
6.78185

> <r_epik_Charging_Adjusted_Penalty>
13.5278

> <i_epik_Tot_Q>
0

> <i_epik_Tot_abs_Q>
2

> <r_epik_Metal_State_Penalty>
2.70608

> <b_epik_Metal_Only>
1

> <s_lp_Force_Field>
OPLS_2005

> <r_lp_Energy>
12.3896

> <b_lp_Chiralities_Consistent>
1

> <s_lp_Variant>
AV-unprocessed.smi:2482-8

> <Gold.Version>
5.8.1

> <Gold.Id.Protein>
6NUR|6NUR_protein|mol2

> <Gold.PLP.Fitness>
43.3877

> <Gold.PLP.PLP>
-35.2723

> <Gold.PLP.part.hbond>
-2.0000

> <Gold.PLP.part.metal>
0.0000

> <Gold.PLP.part.buried>
-4.7945

> <Gold.PLP.part.nonpolar>
-28.6500

> <Gold.PLP.part.repulsive>
0.1377

> <Gold.PLP.ligand.clash>
0.0000

> <Gold.PLP.ligand.torsion>
0.6871

> <Gold.PLP.Chemscore.Hbond>
3.0000

> <Gold.PLP.Chemscore.CHOScore>
0.0000

> <Gold.PLP.Chemscore.Metal>
0.0000

> <Gold.Chemscore.Hbonds>
donor molecule, donor type, donor heavy atom, donor atom, acceptor molecule, acceptor atom, score
      P1  H  7989  7998       L1    16  1.00
      P1  H  7997  8009       L1     7  2.00

> <Gold.PLP.Chemscore.Internal.Correction>
0.4897

> <Gold.Rescore>
     Score         DG    S(hbond)    S(metal)    S(lipo)     H(rot)  DE(clash)    DE(int)     intcor
     18.58     -20.76       1.82        0.00     100.58       1.00       0.15       2.03       ----

> <Gold.Chemscore.Fitness>
18.5813

> <Gold.Chemscore.DG>
-20.7589

> <Gold.Chemscore.ZeroCoef>
-5.4800

> <Gold.Chemscore.Hbond>
1.8177

> <Gold.Chemscore.Metal>
0.0000

> <Gold.Chemscore.Lipo>
100.5791

> <Gold.Chemscore.Internal_Hbond>
0.0000

> <Gold.Chemscore.DEClash>
0.1454

> <Gold.Chemscore.DEInternal>
2.0321

> <Gold.Chemscore.Rot>
1.0000

> <Gold.Chemscore.Internal.Correction>
   9.000000E+99

> <Gold.Chemscore.Hbonds>
donor molecule, donor type, donor heavy atom, donor atom, acceptor molecule, acceptor atom, score
      P1  H  7989  7998       L1    16  0.54
      P1  H  7997  8009       L1     7  0.86

> <Gold.Chemscore.Hbond.Weighted>
-6.0711

> <Gold.Chemscore.Metal.Weighted>
-0.0000

> <Gold.Chemscore.Lipo.Weighted>
-11.7678

> <Gold.Chemscore.Internal_Hbond.Weighted>
0.0000

> <Gold.Chemscore.DEClash.Weighted>
0.1454

> <Gold.Chemscore.DEInternal.Weighted>
2.0321

> <Gold.Chemscore.Rot.Weighted>
2.5600

> <Gold.Chemscore.Internal.Correction.Weighted>
   9.000000E+99

> <Gold.Protein.RotatedTorsions>
[ 6907 6896 6895 6894 ] final -133.86 input  -60.11 | X-H torsion
[ 7974 7965 7964 7962 ] final  154.68 input  175.53 | X-H torsion
[ 8008 7997 7996 7995 ] final  159.35 input   59.86 | X-H torsion
[ 10167 10162 10161 10158 ] final -123.11 input  -65.29 | X-H torsion
[ 10718 10713 10712 10709 ] final  -56.67 input   66.30 | X-H torsion
[ 10763 10752 10751 10750 ] final  142.75 input  -60.55 | X-H torsion
[ 11005 11000 10999 10996 ] final   62.73 input  -57.11 | X-H torsion

> <Gold.Protein.ActiveResidues>
 VAL166  LYS551  ARG553  GLY616  TRP617  ASP618  TYR619  PRO620  LYS621  CYS622 
 ASP623  PHE694  ASN695  SER759  ASP760  ASP761  ALA762  ILE779  LEU786  VAL792 
 PHE793  MET794  SER795  GLU796  ALA797  LYS798  CYS799  TRP800  GLU811  SER814 

> <Gold.Protein.RotatedAtoms>
  150.9790  133.6265  159.2725 H   0  0  0  0  0  0  0  0  0  0  0  0  # atno 6907 bound_to 6896
  151.3526  135.0886  159.9418 H   0  0  0  0  0  0  0  0  0  0  0  0  # atno 6908 bound_to 6896
  152.5209  133.9380  159.7667 H   0  0  0  0  0  0  0  0  0  0  0  0  # atno 6909 bound_to 6896
  144.8073  139.6966  143.6156 H   0  0  0  0  0  0  0  0  0  0  0  0  # atno 7974 bound_to 7965
  156.2244  140.1833  156.7399 H   0  0  0  0  0  0  0  0  0  0  0  0  # atno 8008 bound_to 7997
  154.5917  140.0649  156.9276 H   0  0  0  0  0  0  0  0  0  0  0  0  # atno 8009 bound_to 7997
  155.2325  140.3316  155.4304 H   0  0  0  0  0  0  0  0  0  0  0  0  # atno 8010 bound_to 7997
  140.0070  143.5481  152.2279 H   0  0  0  0  0  0  0  0  0  0  0  0  # atno 10167 bound_to 10162
  156.1271  130.4162  150.0336 H   0  0  0  0  0  0  0  0  0  0  0  0  # atno 10718 bound_to 10713
  153.9609  135.2960  155.3433 H   0  0  0  0  0  0  0  0  0  0  0  0  # atno 10763 bound_to 10752
  154.7375  135.5040  153.9069 H   0  0  0  0  0  0  0  0  0  0  0  0  # atno 10764 bound_to 10752
  153.0947  135.6717  153.9896 H   0  0  0  0  0  0  0  0  0  0  0  0  # atno 10765 bound_to 10752
  140.0072  134.6351  155.9836 H   0  0  0  0  0  0  0  0  0  0  0  0  # atno 11005 bound_to 11000
  146.2366  139.5918  142.9519 LP  0  0  0  0  0  0  0  0  0  0  0  0  # atno 17320 bound_to 7965
  145.5407  141.0421  143.2332 LP  0  0  0  0  0  0  0  0  0  0  0  0  # atno 17321 bound_to 7965
  139.6231  144.7632  151.2696 LP  0  0  0  0  0  0  0  0  0  0  0  0  # atno 17342 bound_to 10162
  140.7396  143.6612  150.8162 LP  0  0  0  0  0  0  0  0  0  0  0  0  # atno 17343 bound_to 10162
  156.8258  130.9375  151.3639 LP  0  0  0  0  0  0  0  0  0  0  0  0  # atno 17370 bound_to 10713
  157.6451  130.8838  149.9524 LP  0  0  0  0  0  0  0  0  0  0  0  0  # atno 17371 bound_to 10713
  141.1685  133.6537  156.4567 LP  0  0  0  0  0  0  0  0  0  0  0  0  # atno 17394 bound_to 11000
  140.4619  134.6833  157.5089 LP  0  0  0  0  0  0  0  0  0  0  0  0  # atno 17395 bound_to 11000

$$$$
