#       Name:                AV-unprocessed.smi:1223
#       Creating user name   scv26
#       Creation time:       Fri Mar 27 04:18:29 2020


#       File generated by GOLD software.
#

@<TRIPOS>MOLECULE
AV-unprocessed.smi:1223
    38    39     1
SMALL
NO_CHARGES


@<TRIPOS>ATOM
      1 ****         0.5571   2.2590  -1.4735 O.2            1 S1                 0.0000
      2 ****         1.2125   1.3724  -0.9269 C.2            1 S1                 0.0000
      3 ****         2.7246   1.5361  -0.7529 C.3            1 S1                 0.0000
      4 ****         3.1186   1.4615   0.6440 N.pl3          1 S1                 0.0000
      5 ****         3.5728   0.3660   1.3492 C.2            1 S1                 0.0000
      6 ****         3.8062   0.7750   2.6307 C.2            1 S1                 0.0000
      7 ****         3.4643   2.1561   2.6120 C.2            1 S1                 0.0000
      8 ****         3.0539   2.5643   1.4221 N.2            1 S1                 0.0000
      9 ****         0.6723   0.2301  -0.4699 N.am           1 S1                 0.0000
     10 ****        -0.7428  -0.1331  -0.5448 C.3            1 S1                 0.0000
     11 ****        -1.0205  -1.1947   0.5484 C.3            1 S1                 0.0000
     12 ****        -2.3382  -1.9898   0.4117 C.3            1 S1                 0.0000
     13 ****        -3.5726  -1.1463   0.0328 C.3            1 S1                 0.0000
     14 ****        -3.5271  -0.4207  -1.3378 C.3            1 S1                 0.0000
     15 ****        -2.4265  -0.8215  -2.2151 N.am           1 S1                 0.0000
     16 ****        -1.1187  -0.7030  -1.9302 C.2            1 S1                 0.0000
     17 ****        -0.2531  -1.0612  -2.7282 O.2            1 S1                 0.0000
     18 ****         3.2415   0.7536  -1.3096 H              1 S1                 0.0000
     19 ****         3.0504   2.4924  -1.1651 H              1 S1                 0.0000
     20 ****         3.6874  -0.6029   0.8859 H              1 S1                 0.0000
     21 ****         4.1662   0.1788   3.4558 H              1 S1                 0.0000
     22 ****         3.5016   2.8693   3.4221 H              1 S1                 0.0000
     23 ****         1.2895  -0.4444  -0.0423 H              1 S1                 0.0000
     24 ****        -1.3382   0.7589  -0.3437 H              1 S1                 0.0000
     25 ****        -0.1997  -1.9127   0.5887 H              1 S1                 0.0000
     26 ****        -1.0159  -0.6916   1.5162 H              1 S1                 0.0000
     27 ****        -2.2110  -2.7884  -0.3205 H              1 S1                 0.0000
     28 ****        -2.5333  -2.5016   1.3546 H              1 S1                 0.0000
     29 ****        -4.4398  -1.8074   0.0388 H              1 S1                 0.0000
     30 ****        -3.7642  -0.4139   0.8176 H              1 S1                 0.0000
     31 ****        -4.4624  -0.5933  -1.8707 H              1 S1                 0.0000
     32 ****        -3.4766   0.6583  -1.1864 H              1 S1                 0.0000
     33 ****        -2.6776  -1.2064  -3.1143 H              1 S1                 0.0000
     34 ****         1.0123   3.0859  -1.8037 LP             1 S1                 0.0000
     35 ****        -0.4307   2.1526  -1.5874 LP             1 S1                 0.0000
     36 ****         2.7613   3.4833   1.1579 LP             1 S1                 0.0000
     37 ****         0.7137  -0.9858  -2.4843 LP             1 S1                 0.0000
     38 ****        -0.5166  -1.4277  -3.6205 LP             1 S1                 0.0000
@<TRIPOS>BOND
    1    1    2 2     
    2    2    3 1     
    3    2    9 am    
    4    3    4 1     
    5    3   18 1     
    6    3   19 1     
    7    4    8 1     
    8    4    5 1     
    9    5    6 2     
   10    5   20 1     
   11    6    7 1     
   12    6   21 1     
   13    7    8 2     
   14    7   22 1     
   15    9   10 1     
   16    9   23 1     
   17   10   16 1     
   18   10   11 1     
   19   10   24 1     
   20   11   12 1     
   21   11   25 1     
   22   11   26 1     
   23   12   13 1     
   24   12   27 1     
   25   12   28 1     
   26   13   14 1     
   27   13   29 1     
   28   13   30 1     
   29   14   15 1     
   30   14   31 1     
   31   14   32 1     
   32   15   16 am    
   33   15   33 1     
   34   16   17 2     
   35    1   34 1     
   36    1   35 1     
   37    8   36 1     
   38   17   37 1     
   39   17   38 1     
@<TRIPOS>SUBSTRUCTURE
      1 S1             1
@<TRIPOS>SET
LONE_PAIRS      STATIC     ATOMS    <user>   **** ""
5 34 35 36 37 38
DONOR_HYDROGENS      STATIC     ATOMS    <user>   **** ""
2 23 33
ATOM$BLUE        STATIC     ATOMS    COLORGROUP SYSTEM
5 34 35 36 37 38
ATOM$RED        STATIC     ATOMS    COLORGROUP SYSTEM
2 23 33
