AV-unprocessed.smi:234|AV-procd|sdf|1796|dock8
  -GOLD-   2262020363D 1   1.00000     0.00000
 Structure written by MMmdl.
 59 62  0  0  0  0  0  0  0  0  1 V2000
  152.2699  143.7224  159.6184 C   0  0  0  0  0  0  0  0  0  0  0  0
  152.2334  142.1928  159.5961 C   0  0  0  0  0  0  0  0  0  0  0  0
  151.4538  141.7707  158.4893 O   0  0  0  0  0  0  0  0  0  0  0  0
  152.0501  140.7106  157.7502 C   0  0  1  0  0  0  0  0  0  0  0  0
  151.7718  139.3816  158.4539 C   0  0  0  0  0  0  0  0  0  0  0  0
  150.4985  139.2990  157.6062 C   0  0  2  0  0  0  0  0  0  0  0  0
  150.1833  137.9353  157.1661 N   0  0  0  0  0  0  0  0  0  0  0  0
  150.6054  136.8356  158.0287 C   0  0  0  0  0  0  0  0  0  0  0  0
  148.9480  137.7088  156.6550 C   0  0  0  0  0  0  0  0  0  0  0  0
  147.9477  138.6066  156.8574 N   0  0  0  0  0  0  0  0  0  0  0  0
  146.7279  138.3760  156.3637 C   0  0  0  0  0  0  0  0  0  0  0  0
  146.2964  137.3262  155.6620 N   0  0  0  0  0  0  0  0  0  0  0  0
  147.2919  136.4134  155.4725 C   0  0  0  0  0  0  0  0  0  0  0  0
  148.6348  136.5271  155.9293 C   0  0  0  0  0  0  0  0  0  0  0  0
  149.3670  135.4142  155.5362 N   0  0  0  0  0  0  0  0  0  0  0  0
  148.5043  134.6809  154.8874 C   0  0  0  0  0  0  0  0  0  0  0  0
  147.2290  135.1964  154.8152 N   0  0  0  0  0  0  0  0  0  0  0  0
  146.0805  134.5858  154.1623 C   0  0  0  0  0  0  0  0  0  0  0  0
  146.1447  134.5548  152.6099 C   0  0  1  0  0  0  0  0  0  0  0  0
  146.5142  135.8598  152.2043 O   0  0  0  0  0  0  0  0  0  0  0  0
  147.1435  133.5441  152.0498 C   0  0  0  0  0  0  0  0  0  0  0  0
  146.3030  132.3004  151.7436 C   0  0  0  0  0  0  0  0  0  0  0  0
  144.9401  132.6821  151.9071 O   0  0  0  0  0  0  0  0  0  0  0  0
  144.8299  134.0999  151.9438 C   0  0  2  0  0  0  0  0  0  0  0  0
  144.6076  134.5922  150.5000 C   0  0  0  0  0  0  0  0  0  0  0  0
  151.2032  140.2030  156.5506 C   0  0  0  0  0  0  0  0  0  0  0  0
  150.3348  141.2471  155.8425 C   0  0  0  0  0  0  0  0  0  0  0  0
  152.0284  139.5086  155.4539 C   0  0  0  0  0  0  0  0  0  0  0  0
  152.8632  144.0863  160.4573 H   0  0  0  0  0  0  0  0  0  0  0  0
  151.2659  144.1367  159.7137 H   0  0  0  0  0  0  0  0  0  0  0  0
  152.7095  144.1164  158.7017 H   0  0  0  0  0  0  0  0  0  0  0  0
  153.2474  141.7984  159.5278 H   0  0  0  0  0  0  0  0  0  0  0  0
  151.7973  141.8171  160.5228 H   0  0  0  0  0  0  0  0  0  0  0  0
  153.1108  140.8587  157.5392 H   0  0  0  0  0  0  0  0  0  0  0  0
  152.5101  138.6126  158.2200 H   0  0  0  0  0  0  0  0  0  0  0  0
  151.6000  139.4588  159.5280 H   0  0  0  0  0  0  0  0  0  0  0  0
  149.6653  139.8067  158.0962 H   0  0  0  0  0  0  0  0  0  0  0  0
  149.7554  136.3324  158.4931 H   0  0  0  0  0  0  0  0  0  0  0  0
  151.2551  137.1834  158.8318 H   0  0  0  0  0  0  0  0  0  0  0  0
  151.1597  136.0991  157.4468 H   0  0  0  0  0  0  0  0  0  0  0  0
  145.9923  139.1418  156.5610 H   0  0  0  0  0  0  0  0  0  0  0  0
  148.7750  133.7316  154.4485 H   0  0  0  0  0  0  0  0  0  0  0  0
  145.9682  133.5729  154.5513 H   0  0  0  0  0  0  0  0  0  0  0  0
  145.1917  135.1307  154.4843 H   0  0  0  0  0  0  0  0  0  0  0  0
  147.4565  135.9262  152.2310 H   0  0  0  0  0  0  0  0  0  0  0  0
  147.5751  133.9100  151.1167 H   0  0  0  0  0  0  0  0  0  0  0  0
  147.9748  133.3409  152.7247 H   0  0  0  0  0  0  0  0  0  0  0  0
  146.4762  131.9527  150.7247 H   0  0  0  0  0  0  0  0  0  0  0  0
  146.5326  131.4785  152.4218 H   0  0  0  0  0  0  0  0  0  0  0  0
  143.9637  134.3918  152.5369 H   0  0  0  0  0  0  0  0  0  0  0  0
  144.4783  135.6740  150.4648 H   0  0  0  0  0  0  0  0  0  0  0  0
  143.7079  134.1452  150.0769 H   0  0  0  0  0  0  0  0  0  0  0  0
  145.4417  134.3341  149.8473 H   0  0  0  0  0  0  0  0  0  0  0  0
  149.7251  140.8021  155.0565 H   0  0  0  0  0  0  0  0  0  0  0  0
  150.9431  142.0207  155.3741 H   0  0  0  0  0  0  0  0  0  0  0  0
  149.6532  141.7411  156.5354 H   0  0  0  0  0  0  0  0  0  0  0  0
  151.3918  139.0639  154.6884 H   0  0  0  0  0  0  0  0  0  0  0  0
  152.6537  138.7100  155.8531 H   0  0  0  0  0  0  0  0  0  0  0  0
  152.6931  140.2128  154.9526 H   0  0  0  0  0  0  0  0  0  0  0  0
  1  2  1  0  0  0  0
  1 29  1  0  0  0  0
  1 30  1  0  0  0  0
  1 31  1  0  0  0  0
  2  3  1  0  0  0  0
  2 32  1  0  0  0  0
  2 33  1  0  0  0  0
  3  4  1  0  0  0  0
  4 26  1  0  0  0  0
  4  5  1  0  0  0  0
  4 34  1  0  0  0  0
  5  6  1  0  0  0  0
  5 35  1  0  0  0  0
  5 36  1  0  0  0  0
  6  7  1  0  0  0  0
  6 26  1  0  0  0  0
  6 37  1  0  0  0  0
  7  8  1  0  0  0  0
  7  9  1  0  0  0  0
  8 38  1  0  0  0  0
  8 39  1  0  0  0  0
  8 40  1  0  0  0  0
  9 14  1  0  0  0  0
  9 10  2  0  0  0  0
 10 11  1  0  0  0  0
 11 12  2  0  0  0  0
 11 41  1  0  0  0  0
 12 13  1  0  0  0  0
 13 17  1  0  0  0  0
 13 14  2  0  0  0  0
 14 15  1  0  0  0  0
 15 16  2  0  0  0  0
 16 17  1  0  0  0  0
 16 42  1  0  0  0  0
 17 18  1  0  0  0  0
 18 19  1  0  0  0  0
 18 43  1  0  0  0  0
 18 44  1  0  0  0  0
 19 24  1  0  0  0  0
 19 20  1  0  0  0  0
 19 21  1  0  0  0  0
 20 45  1  0  0  0  0
 21 22  1  0  0  0  0
 21 46  1  0  0  0  0
 21 47  1  0  0  0  0
 22 23  1  0  0  0  0
 22 48  1  0  0  0  0
 22 49  1  0  0  0  0
 23 24  1  0  0  0  0
 24 25  1  0  0  0  0
 24 50  1  0  0  0  0
 25 51  1  0  0  0  0
 25 52  1  0  0  0  0
 25 53  1  0  0  0  0
 26 27  1  0  0  0  0
 26 28  1  0  0  0  0
 27 54  1  0  0  0  0
 27 55  1  0  0  0  0
 27 56  1  0  0  0  0
 28 57  1  0  0  0  0
 28 58  1  0  0  0  0
 28 59  1  0  0  0  0
M  END
> <s_m_source_file>
AV-unprocessed.smi

> <i_m_source_file_index>
234

> <i_lp_mmshare_version>
43012

> <i_f3d_flags>
0

> <s_epik_input>
W0NIM11bQ0gyXU9bQ0BASF0oQzEoW0NIM10pW0NIM10pW0NIMl1bQ0BIXTFOKFtDSDNdKWMobltjSF1uMiljKGMyMyluW2NIXW4zW0NIMl1bQ0BAXTQoW09IXSlbQ0gyXVtDSDJdT1tDQEhdNFtDSDNd

> <s_epik_cmdline>
J2VwaWtfcHl0aG9uJywgJy1waCcsICc3LjAnLCAnLXRuJywgJzgnLCAnLW1hJywgJzIwMCcsICctbWV0YWxfYmluZGluZycsICctaW1hZScsICc8aW5maWxlLm1hZT4nLCAnLW9tYWUnLCAnPG91dGZpbGUubWFlPic=

> <r_lp_tautomer_probability>
1

> <r_epik_Ionization_Penalty>
0.00349132

> <r_epik_Ionization_Penalty_Charging>
0

> <r_epik_Ionization_Penalty_Neutral>
0.00349132

> <r_epik_State_Penalty>
0.00242418

> <r_epik_Charging_Adjusted_Penalty>
0.00242418

> <i_epik_Tot_Q>
0

> <i_epik_Tot_abs_Q>
0

> <r_epik_Metal_State_Penalty>
-0

> <b_epik_Metal_Only>
0

> <s_lp_Force_Field>
OPLS_2005

> <r_lp_Energy>
50.3749

> <b_lp_Chiralities_Consistent>
1

> <s_lp_Variant>
AV-unprocessed.smi:234-12

> <Gold.Version>
5.8.1

> <Gold.Id.Protein>
6NUR|6NUR_protein|mol2

> <Gold.PLP.Fitness>
34.9366

> <Gold.PLP.PLP>
-34.3584

> <Gold.PLP.part.hbond>
-0.8134

> <Gold.PLP.part.metal>
0.0000

> <Gold.PLP.part.buried>
-3.1204

> <Gold.PLP.part.nonpolar>
-28.8989

> <Gold.PLP.part.repulsive>
0.2261

> <Gold.PLP.ligand.clash>
0.0000

> <Gold.PLP.ligand.torsion>
1.6481

> <Gold.PLP.Chemscore.Hbond>
1.0000

> <Gold.PLP.Chemscore.CHOScore>
0.0000

> <Gold.PLP.Chemscore.Metal>
0.0000

> <Gold.Chemscore.Hbonds>
donor molecule, donor type, donor heavy atom, donor atom, acceptor molecule, acceptor atom, score
      L1  H    20    45       P1  7948  1.00

> <Gold.PLP.Chemscore.Internal.Correction>
0.8745

> <Gold.Rescore>
     Score         DG    S(hbond)    S(metal)    S(lipo)     H(rot)  DE(clash)    DE(int)     intcor
     11.36     -12.95       1.00        0.00      92.76       2.62       0.04       1.55       ----

> <Gold.Chemscore.Fitness>
11.3558

> <Gold.Chemscore.DG>
-12.9492

> <Gold.Chemscore.ZeroCoef>
-5.4800

> <Gold.Chemscore.Hbond>
0.9966

> <Gold.Chemscore.Metal>
0.0000

> <Gold.Chemscore.Lipo>
92.7587

> <Gold.Chemscore.Internal_Hbond>
0.0000

> <Gold.Chemscore.DEClash>
0.0402

> <Gold.Chemscore.DEInternal>
1.5532

> <Gold.Chemscore.Rot>
2.6219

> <Gold.Chemscore.Internal.Correction>
   9.000000E+99

> <Gold.Chemscore.Hbonds>
donor molecule, donor type, donor heavy atom, donor atom, acceptor molecule, acceptor atom, score
      L1  H    20    45       P1  7948  0.95

> <Gold.Chemscore.Hbond.Weighted>
-3.3286

> <Gold.Chemscore.Metal.Weighted>
-0.0000

> <Gold.Chemscore.Lipo.Weighted>
-10.8528

> <Gold.Chemscore.Internal_Hbond.Weighted>
0.0000

> <Gold.Chemscore.DEClash.Weighted>
0.0402

> <Gold.Chemscore.DEInternal.Weighted>
1.5532

> <Gold.Chemscore.Rot.Weighted>
6.7121

> <Gold.Chemscore.Internal.Correction.Weighted>
   9.000000E+99

> <Gold.Protein.RotatedTorsions>
[ 6907 6896 6895 6894 ] final   11.04 input  -60.11 | X-H torsion
[ 7974 7965 7964 7962 ] final  -66.12 input  175.53 | X-H torsion
[ 8008 7997 7996 7995 ] final  163.74 input   59.86 | X-H torsion
[ 10167 10162 10161 10158 ] final  119.94 input  -65.29 | X-H torsion
[ 10718 10713 10712 10709 ] final  -69.52 input   66.30 | X-H torsion
[ 10763 10752 10751 10750 ] final  -43.92 input  -60.55 | X-H torsion
[ 11005 11000 10999 10996 ] final  158.63 input  -57.11 | X-H torsion

> <Gold.Protein.ActiveResidues>
 VAL166  LYS551  ARG553  GLY616  TRP617  ASP618  TYR619  PRO620  LYS621  CYS622 
 ASP623  PHE694  ASN695  SER759  ASP760  ASP761  ALA762  ILE779  LEU786  VAL792 
 PHE793  MET794  SER795  GLU796  ALA797  LYS798  CYS799  TRP800  GLU811  SER814 

> <Gold.Protein.RotatedAtoms>
  151.7479  135.0839  160.0325 H   0  0  0  0  0  0  0  0  0  0  0  0  # atno 6907 bound_to 6896
  152.3436  133.6092  159.5903 H   0  0  0  0  0  0  0  0  0  0  0  0  # atno 6908 bound_to 6896
  150.7495  133.9600  159.3554 H   0  0  0  0  0  0  0  0  0  0  0  0  # atno 6909 bound_to 6896
  145.7457  140.8932  143.0506 H   0  0  0  0  0  0  0  0  0  0  0  0  # atno 7974 bound_to 7965
  156.1934  140.1715  156.8047 H   0  0  0  0  0  0  0  0  0  0  0  0  # atno 8008 bound_to 7997
  154.5499  140.0719  156.8682 H   0  0  0  0  0  0  0  0  0  0  0  0  # atno 8009 bound_to 7997
  155.3049  140.3364  155.4248 H   0  0  0  0  0  0  0  0  0  0  0  0  # atno 8010 bound_to 7997
  139.6014  144.7057  151.3055 H   0  0  0  0  0  0  0  0  0  0  0  0  # atno 10167 bound_to 10162
  156.0452  130.4314  150.2159 H   0  0  0  0  0  0  0  0  0  0  0  0  # atno 10718 bound_to 10713
  154.0035  135.6690  153.4760 H   0  0  0  0  0  0  0  0  0  0  0  0  # atno 10763 bound_to 10752
  153.0652  135.5005  154.8180 H   0  0  0  0  0  0  0  0  0  0  0  0  # atno 10764 bound_to 10752
  154.7039  135.3084  154.9263 H   0  0  0  0  0  0  0  0  0  0  0  0  # atno 10765 bound_to 10752
  140.1884  134.8425  157.2884 H   0  0  0  0  0  0  0  0  0  0  0  0  # atno 11005 bound_to 11000
  144.6860  139.9522  143.7478 LP  0  0  0  0  0  0  0  0  0  0  0  0  # atno 17320 bound_to 7965
  146.0405  139.3417  143.0700 LP  0  0  0  0  0  0  0  0  0  0  0  0  # atno 17321 bound_to 7965
  140.7252  143.7024  150.7834 LP  0  0  0  0  0  0  0  0  0  0  0  0  # atno 17342 bound_to 10162
  140.0601  143.5164  152.2632 LP  0  0  0  0  0  0  0  0  0  0  0  0  # atno 17343 bound_to 10162
  157.0250  130.9990  151.3329 LP  0  0  0  0  0  0  0  0  0  0  0  0  # atno 17370 bound_to 10713
  157.5318  130.8063  149.7925 LP  0  0  0  0  0  0  0  0  0  0  0  0  # atno 17371 bound_to 10713
  140.2187  134.4049  155.7576 LP  0  0  0  0  0  0  0  0  0  0  0  0  # atno 17394 bound_to 11000
  141.2225  133.7155  156.8456 LP  0  0  0  0  0  0  0  0  0  0  0  0  # atno 17395 bound_to 11000

$$$$
