#       Name:                AV-unprocessed.smi:3044
#       Creating user name   scv26
#       Creation time:       Fri Mar 27 16:58:54 2020


#       File generated by GOLD software.
#

@<TRIPOS>MOLECULE
AV-unprocessed.smi:3044
    46    47     1
SMALL
NO_CHARGES


@<TRIPOS>ATOM
      1 ****        -2.2119  -4.1754  -0.1207 C.3            1 S1                 0.0000
      2 ****        -3.3005  -3.2154  -0.5681 C.ar           1 S1                 0.0000
      3 ****        -4.5646  -3.6790  -0.4476 N.ar           1 S1                 0.0000
      4 ****        -5.5789  -2.8771  -0.8317 C.ar           1 S1                 0.0000
      5 ****        -5.3835  -1.5868  -1.3574 C.ar           1 S1                 0.0000
      6 ****        -4.0670  -1.1050  -1.4824 C.ar           1 S1                 0.0000
      7 ****        -2.9894  -1.9265  -1.0687 C.ar           1 S1                 0.0000
      8 ****        -1.6234  -1.5378  -1.1733 N.am           1 S1                 0.0000
      9 ****        -1.1010  -0.2988  -1.2340 C.2            1 S1                 0.0000
     10 ****        -1.7523   0.7430  -1.1681 O.2            1 S1                 0.0000
     11 ****         0.4185  -0.2206  -1.3603 C.3            1 S1                 0.0000
     12 ****         0.9336   0.3856  -0.1841 O.3            1 S1                 0.0000
     13 ****         2.3476   0.5479  -0.1672 C.3            1 S1                 0.0000
     14 ****         2.7865   1.7738  -0.9959 C.3            1 S1                 0.0000
     15 ****         2.2756   3.0859  -0.3805 C.3            1 S1                 0.0000
     16 ****         2.7292   3.2271   1.0806 C.3            1 S1                 0.0000
     17 ****         2.2867   2.0200   1.9294 C.3            1 S1                 0.0000
     18 ****         2.7527   2.1586   3.3858 C.3            1 S1                 0.0000
     19 ****         2.7862   0.7020   1.3011 C.3            1 S1                 0.0000
     20 ****        -1.6451  -3.7463   0.7057 H              1 S1                 0.0000
     21 ****        -1.5248  -4.3819  -0.9415 H              1 S1                 0.0000
     22 ****        -2.6279  -5.1264   0.2147 H              1 S1                 0.0000
     23 ****        -6.5756  -3.2785  -0.7238 H              1 S1                 0.0000
     24 ****        -6.2243  -0.9822  -1.6634 H              1 S1                 0.0000
     25 ****        -3.9121  -0.1253  -1.9062 H              1 S1                 0.0000
     26 ****        -0.9555  -2.2943  -1.1408 H              1 S1                 0.0000
     27 ****         0.8444  -1.2169  -1.4922 H              1 S1                 0.0000
     28 ****         0.6619   0.3637  -2.2474 H              1 S1                 0.0000
     29 ****         2.8174  -0.3519  -0.5679 H              1 S1                 0.0000
     30 ****         3.8760   1.8025  -1.0378 H              1 S1                 0.0000
     31 ****         2.4531   1.6913  -2.0294 H              1 S1                 0.0000
     32 ****         2.6355   3.9340  -0.9636 H              1 S1                 0.0000
     33 ****         1.1865   3.1159  -0.4322 H              1 S1                 0.0000
     34 ****         3.8151   3.3250   1.1154 H              1 S1                 0.0000
     35 ****         2.3234   4.1480   1.5007 H              1 S1                 0.0000
     36 ****         1.1959   1.9986   1.9374 H              1 S1                 0.0000
     37 ****         3.8409   2.1854   3.4534 H              1 S1                 0.0000
     38 ****         2.4019   1.3229   3.9919 H              1 S1                 0.0000
     39 ****         2.3686   3.0748   3.8351 H              1 S1                 0.0000
     40 ****         2.4267  -0.1489   1.8812 H              1 S1                 0.0000
     41 ****         3.8752   0.6673   1.3531 H              1 S1                 0.0000
     42 ****        -4.7432  -4.5929  -0.0831 LP             1 S1                 0.0000
     43 ****        -2.7459   0.7056  -1.0614 LP             1 S1                 0.0000
     44 ****        -1.2881   1.6272  -1.2212 LP             1 S1                 0.0000
     45 ****         0.6762  -0.1828   0.5973 LP             1 S1                 0.0000
     46 ****         0.5155   1.2893  -0.0910 LP             1 S1                 0.0000
@<TRIPOS>BOND
    1    1    2 1     
    2    1   20 1     
    3    1   21 1     
    4    1   22 1     
    5    2    7 ar    
    6    2    3 ar    
    7    3    4 ar    
    8    4    5 ar    
    9    4   23 1     
   10    5    6 ar    
   11    5   24 1     
   12    6    7 ar    
   13    6   25 1     
   14    7    8 1     
   15    8    9 am    
   16    8   26 1     
   17    9   10 2     
   18    9   11 1     
   19   11   12 1     
   20   11   27 1     
   21   11   28 1     
   22   12   13 1     
   23   13   19 1     
   24   13   14 1     
   25   13   29 1     
   26   14   15 1     
   27   14   30 1     
   28   14   31 1     
   29   15   16 1     
   30   15   32 1     
   31   15   33 1     
   32   16   17 1     
   33   16   34 1     
   34   16   35 1     
   35   17   18 1     
   36   17   19 1     
   37   17   36 1     
   38   18   37 1     
   39   18   38 1     
   40   18   39 1     
   41   19   40 1     
   42   19   41 1     
   43    3   42 1     
   44   10   43 1     
   45   10   44 1     
   46   12   45 1     
   47   12   46 1     
@<TRIPOS>SUBSTRUCTURE
      1 S1             1
@<TRIPOS>SET
LONE_PAIRS      STATIC     ATOMS    <user>   **** ""
5 42 43 44 45 46
DONOR_HYDROGENS      STATIC     ATOMS    <user>   **** ""
1 26
ATOM$BLUE        STATIC     ATOMS    COLORGROUP SYSTEM
5 42 43 44 45 46
ATOM$RED        STATIC     ATOMS    COLORGROUP SYSTEM
1 26
