AV-unprocessed.smi:148|AV-procd|sdf|1231|dock6
  -GOLD-   2262018433D 1   1.00000     0.00000
 Structure written by MMmdl.
 63 67  0  0  0  0  0  0  0  0  1 V2000
  147.7301  136.2221  154.2527 O   0  0  0  0  0  0  0  0  0  0  0  0
  148.3800  135.0873  154.7881 C   0  0  0  0  0  0  0  0  0  0  0  0
  149.4087  135.4847  155.8801 C   0  0  1  0  0  0  0  0  0  0  0  0
  148.7831  136.4269  156.9447 C   0  0  0  0  0  0  0  0  0  0  0  0
  149.7628  137.2024  157.6849 N   0  0  0  0  0  0  0  0  0  0  0  0
  149.9081  137.2602  159.0521 C   0  0  0  0  0  0  0  0  0  0  0  0
  150.8684  138.0358  159.4752 N   0  0  0  0  0  0  0  0  0  0  0  0
  151.4276  138.5515  158.3116 C   0  0  0  0  0  0  0  0  0  0  0  0
  152.4890  139.4593  158.0305 C   0  0  0  0  0  0  0  0  0  0  0  0
  153.2564  140.0750  158.9605 N   0  0  0  0  0  0  0  0  0  0  0  0
  153.9807  139.0647  159.7339 C   0  0  0  0  0  0  0  0  0  0  0  0
  155.0516  139.6970  160.6323 C   0  0  0  0  0  0  0  0  0  0  0  0
  154.4284  140.7717  161.5281 C   0  0  0  0  0  0  0  0  0  0  0  0
  153.7132  141.8137  160.6595 C   0  0  0  0  0  0  0  0  0  0  0  0
  152.6405  141.1598  159.7493 C   0  0  1  0  0  0  0  0  0  0  0  0
  151.8544  142.1999  158.8856 C   0  0  1  0  0  0  0  0  0  0  0  0
  150.5058  141.6890  158.3431 C   0  0  0  0  0  0  0  0  0  0  0  0
  149.5943  142.9193  158.2044 C   0  0  0  0  0  0  0  0  0  0  0  0
  150.4388  144.1279  158.6176 C   0  0  0  0  0  0  0  0  0  0  0  0
  151.5102  143.5487  159.5408 C   0  0  2  0  0  0  0  0  0  0  0  0
  152.6215  144.4154  159.6252 O   0  0  0  0  0  0  0  0  0  0  0  0
  152.7762  139.7162  156.7302 N   0  0  0  0  0  0  0  0  0  0  0  0
  152.0564  139.1452  155.7598 C   0  0  0  0  0  0  0  0  0  0  0  0
  151.0315  138.2973  155.8692 N   0  0  0  0  0  0  0  0  0  0  0  0
  150.7511  138.0252  157.1757 C   0  0  0  0  0  0  0  0  0  0  0  0
  150.1086  134.2520  156.5323 C   0  0  1  0  0  0  0  0  0  0  0  0
  149.1832  133.3390  157.3306 C   0  0  0  0  0  0  0  0  0  0  0  0
  148.5770  132.4240  156.2665 C   0  0  0  0  0  0  0  0  0  0  0  0
  149.4999  132.4240  155.1826 O   0  0  0  0  0  0  0  0  0  0  0  0
  150.6295  133.2147  155.5269 C   0  0  0  0  0  0  0  0  0  0  0  0
  148.2032  136.5036  153.4842 H   0  0  0  0  0  0  0  0  0  0  0  0
  147.6281  134.4016  155.1726 H   0  0  0  0  0  0  0  0  0  0  0  0
  148.8592  134.5454  153.9728 H   0  0  0  0  0  0  0  0  0  0  0  0
  150.1803  136.0625  155.3696 H   0  0  0  0  0  0  0  0  0  0  0  0
  148.0867  137.1183  156.4686 H   0  0  0  0  0  0  0  0  0  0  0  0
  148.2083  135.8654  157.6790 H   0  0  0  0  0  0  0  0  0  0  0  0
  149.2710  136.7111  159.7302 H   0  0  0  0  0  0  0  0  0  0  0  0
  153.2703  138.5065  160.3459 H   0  0  0  0  0  0  0  0  0  0  0  0
  154.4545  138.3448  159.0643 H   0  0  0  0  0  0  0  0  0  0  0  0
  155.5297  138.9297  161.2416 H   0  0  0  0  0  0  0  0  0  0  0  0
  155.8350  140.1392  160.0152 H   0  0  0  0  0  0  0  0  0  0  0  0
  153.7205  140.3158  162.2213 H   0  0  0  0  0  0  0  0  0  0  0  0
  155.1992  141.2497  162.1332 H   0  0  0  0  0  0  0  0  0  0  0  0
  153.2737  142.5703  161.3073 H   0  0  0  0  0  0  0  0  0  0  0  0
  154.4649  142.3222  160.0564 H   0  0  0  0  0  0  0  0  0  0  0  0
  151.9177  140.6878  160.4148 H   0  0  0  0  0  0  0  0  0  0  0  0
  152.4289  142.4290  157.9878 H   0  0  0  0  0  0  0  0  0  0  0  0
  150.6421  141.1839  157.3861 H   0  0  0  0  0  0  0  0  0  0  0  0
  150.0376  140.9685  159.0118 H   0  0  0  0  0  0  0  0  0  0  0  0
  149.2043  143.0299  157.1922 H   0  0  0  0  0  0  0  0  0  0  0  0
  148.7391  142.8180  158.8738 H   0  0  0  0  0  0  0  0  0  0  0  0
  150.9041  144.5609  157.7304 H   0  0  0  0  0  0  0  0  0  0  0  0
  149.8486  144.9100  159.0962 H   0  0  0  0  0  0  0  0  0  0  0  0
  151.0792  143.4133  160.5318 H   0  0  0  0  0  0  0  0  0  0  0  0
  152.3248  145.3001  159.4722 H   0  0  0  0  0  0  0  0  0  0  0  0
  152.3412  139.4064  154.7514 H   0  0  0  0  0  0  0  0  0  0  0  0
  150.9273  134.6047  157.1610 H   0  0  0  0  0  0  0  0  0  0  0  0
  149.7827  132.7385  158.0167 H   0  0  0  0  0  0  0  0  0  0  0  0
  148.4313  133.8412  157.9352 H   0  0  0  0  0  0  0  0  0  0  0  0
  148.4104  131.4146  156.6438 H   0  0  0  0  0  0  0  0  0  0  0  0
  147.6227  132.8160  155.9127 H   0  0  0  0  0  0  0  0  0  0  0  0
  151.1137  133.6259  154.6439 H   0  0  0  0  0  0  0  0  0  0  0  0
  151.3612  132.5661  156.0117 H   0  0  0  0  0  0  0  0  0  0  0  0
  1  2  1  0  0  0  0
  1 31  1  0  0  0  0
  2  3  1  0  0  0  0
  2 32  1  0  0  0  0
  2 33  1  0  0  0  0
  3  4  1  0  0  0  0
  3 26  1  0  0  0  0
  3 34  1  0  0  0  0
  4  5  1  0  0  0  0
  4 35  1  0  0  0  0
  4 36  1  0  0  0  0
  5 25  1  0  0  0  0
  5  6  1  0  0  0  0
  6  7  2  0  0  0  0
  6 37  1  0  0  0  0
  7  8  1  0  0  0  0
  8 25  2  0  0  0  0
  8  9  1  0  0  0  0
  9 10  1  0  0  0  0
  9 22  2  0  0  0  0
 10 15  1  0  0  0  0
 10 11  1  0  0  0  0
 11 12  1  0  0  0  0
 11 38  1  0  0  0  0
 11 39  1  0  0  0  0
 12 13  1  0  0  0  0
 12 40  1  0  0  0  0
 12 41  1  0  0  0  0
 13 14  1  0  0  0  0
 13 42  1  0  0  0  0
 13 43  1  0  0  0  0
 14 15  1  0  0  0  0
 14 44  1  0  0  0  0
 14 45  1  0  0  0  0
 15 16  1  0  0  0  0
 15 46  1  0  0  0  0
 16 20  1  0  0  0  0
 16 17  1  0  0  0  0
 16 47  1  0  0  0  0
 17 18  1  0  0  0  0
 17 48  1  0  0  0  0
 17 49  1  0  0  0  0
 18 19  1  0  0  0  0
 18 50  1  0  0  0  0
 18 51  1  0  0  0  0
 19 20  1  0  0  0  0
 19 52  1  0  0  0  0
 19 53  1  0  0  0  0
 20 21  1  0  0  0  0
 20 54  1  0  0  0  0
 21 55  1  0  0  0  0
 22 23  1  0  0  0  0
 23 24  2  0  0  0  0
 23 56  1  0  0  0  0
 24 25  1  0  0  0  0
 26 30  1  0  0  0  0
 26 27  1  0  0  0  0
 26 57  1  0  0  0  0
 27 28  1  0  0  0  0
 27 58  1  0  0  0  0
 27 59  1  0  0  0  0
 28 29  1  0  0  0  0
 28 60  1  0  0  0  0
 28 61  1  0  0  0  0
 29 30  1  0  0  0  0
 30 62  1  0  0  0  0
 30 63  1  0  0  0  0
M  END
> <s_m_source_file>
AV-unprocessed.smi

> <i_m_source_file_index>
148

> <i_lp_mmshare_version>
43012

> <i_f3d_flags>
0

> <s_epik_input>
W0NIMl0xT1tDSDJdW0NIMl1bQ0BIXTFbQ0BIXShbQ0gyXVtPSF0pW0NIMl1uKFtjSF1uMiljKGMyMyluW2NIXW5jM040W0NIMl1bQ0gyXVtDSDJdW0NIMl1bQ0BIXTRbQ0BASF01W0NIMl1bQ0gyXVtDSDJdW0NASF01W09IXQ==

> <s_epik_cmdline>
J2VwaWtfcHl0aG9uJywgJy1waCcsICc3LjAnLCAnLXRuJywgJzgnLCAnLW1hJywgJzIwMCcsICctbWV0YWxfYmluZGluZycsICctaW1hZScsICc8aW5maWxlLm1hZT4nLCAnLW9tYWUnLCAnPG91dGZpbGUubWFlPic=

> <r_lp_tautomer_probability>
1

> <r_epik_Ionization_Penalty>
0.00556303

> <r_epik_Ionization_Penalty_Charging>
0

> <r_epik_Ionization_Penalty_Neutral>
0.00556303

> <r_epik_State_Penalty>
0.00401767

> <r_epik_Charging_Adjusted_Penalty>
0.00401767

> <i_epik_Tot_Q>
0

> <i_epik_Tot_abs_Q>
0

> <r_epik_Metal_State_Penalty>
-0

> <b_epik_Metal_Only>
0

> <s_lp_Force_Field>
OPLS_2005

> <r_lp_Energy>
69.9352

> <b_lp_Chiralities_Consistent>
1

> <s_lp_Variant>
AV-unprocessed.smi:148-30

> <Gold.Version>
5.8.1

> <Gold.Id.Protein>
6NUR|6NUR_protein|mol2

> <Gold.PLP.Fitness>
43.7660

> <Gold.PLP.PLP>
-38.7068

> <Gold.PLP.part.hbond>
-3.0474

> <Gold.PLP.part.metal>
0.0000

> <Gold.PLP.part.buried>
-6.0615

> <Gold.PLP.part.nonpolar>
-29.9386

> <Gold.PLP.part.repulsive>
0.0006

> <Gold.PLP.ligand.clash>
0.0000

> <Gold.PLP.ligand.torsion>
0.7050

> <Gold.PLP.Chemscore.Hbond>
2.0000

> <Gold.PLP.Chemscore.CHOScore>
0.0000

> <Gold.PLP.Chemscore.Metal>
0.0000

> <Gold.Chemscore.Hbonds>
donor molecule, donor type, donor heavy atom, donor atom, acceptor molecule, acceptor atom, score
      L1  H     1    31       P1  7948  1.00
      P1  H  7997  8008       L1    22  1.00

> <Gold.PLP.Chemscore.Internal.Correction>
0.4693

> <Gold.Rescore>
     Score         DG    S(hbond)    S(metal)    S(lipo)     H(rot)  DE(clash)    DE(int)     intcor
     11.98     -15.96       1.90        0.00     108.11       3.32       0.02       3.96       ----

> <Gold.Chemscore.Fitness>
11.9836

> <Gold.Chemscore.DG>
-15.9582

> <Gold.Chemscore.ZeroCoef>
-5.4800

> <Gold.Chemscore.Hbond>
1.8950

> <Gold.Chemscore.Metal>
0.0000

> <Gold.Chemscore.Lipo>
108.1098

> <Gold.Chemscore.Internal_Hbond>
0.0000

> <Gold.Chemscore.DEClash>
0.0174

> <Gold.Chemscore.DEInternal>
3.9571

> <Gold.Chemscore.Rot>
3.3203

> <Gold.Chemscore.Internal.Correction>
   9.000000E+99

> <Gold.Chemscore.Hbonds>
donor molecule, donor type, donor heavy atom, donor atom, acceptor molecule, acceptor atom, score
      L1  H     1    31       P1  7948  0.97
      P1  H  7997  8008       L1    22  0.55

> <Gold.Chemscore.Hbond.Weighted>
-6.3293

> <Gold.Chemscore.Metal.Weighted>
-0.0000

> <Gold.Chemscore.Lipo.Weighted>
-12.6488

> <Gold.Chemscore.Internal_Hbond.Weighted>
0.0000

> <Gold.Chemscore.DEClash.Weighted>
0.0174

> <Gold.Chemscore.DEInternal.Weighted>
3.9571

> <Gold.Chemscore.Rot.Weighted>
8.5000

> <Gold.Chemscore.Internal.Correction.Weighted>
   9.000000E+99

> <Gold.Protein.RotatedTorsions>
[ 6907 6896 6895 6894 ] final  100.50 input  -60.11 | X-H torsion
[ 7974 7965 7964 7962 ] final   80.79 input  175.53 | X-H torsion
[ 8008 7997 7996 7995 ] final  -64.36 input   59.86 | X-H torsion
[ 10167 10162 10161 10158 ] final   51.40 input  -65.29 | X-H torsion
[ 10718 10713 10712 10709 ] final   46.16 input   66.30 | X-H torsion
[ 10763 10752 10751 10750 ] final  -66.58 input  -60.55 | X-H torsion
[ 11005 11000 10999 10996 ] final  -34.09 input  -57.11 | X-H torsion

> <Gold.Protein.ActiveResidues>
 VAL166  LYS551  ARG553  GLY616  TRP617  ASP618  TYR619  PRO620  LYS621  CYS622 
 ASP623  PHE694  ASN695  SER759  ASP760  ASP761  ALA762  ILE779  LEU786  VAL792 
 PHE793  MET794  SER795  GLU796  ALA797  LYS798  CYS799  TRP800  GLU811  SER814 

> <Gold.Protein.RotatedAtoms>
  152.5371  134.0268  159.8006 H   0  0  0  0  0  0  0  0  0  0  0  0  # atno 6907 bound_to 6896
  151.0445  133.5669  159.2655 H   0  0  0  0  0  0  0  0  0  0  0  0  # atno 6908 bound_to 6896
  151.2626  135.0666  159.9158 H   0  0  0  0  0  0  0  0  0  0  0  0  # atno 6909 bound_to 6896
  145.6467  139.2438  143.2000 H   0  0  0  0  0  0  0  0  0  0  0  0  # atno 7974 bound_to 7965
  154.4607  140.0955  156.6884 H   0  0  0  0  0  0  0  0  0  0  0  0  # atno 8008 bound_to 7997
  155.5003  140.3473  155.4351 H   0  0  0  0  0  0  0  0  0  0  0  0  # atno 8009 bound_to 7997
  156.0864  140.1386  156.9636 H   0  0  0  0  0  0  0  0  0  0  0  0  # atno 8010 bound_to 7997
  140.2623  144.3358  150.6314 H   0  0  0  0  0  0  0  0  0  0  0  0  # atno 10167 bound_to 10162
  157.4452  130.8105  149.7733 H   0  0  0  0  0  0  0  0  0  0  0  0  # atno 10718 bound_to 10713
  154.3620  135.6114  153.5695 H   0  0  0  0  0  0  0  0  0  0  0  0  # atno 10763 bound_to 10752
  152.9793  135.5817  154.4622 H   0  0  0  0  0  0  0  0  0  0  0  0  # atno 10764 bound_to 10752
  154.4362  135.2849  155.1857 H   0  0  0  0  0  0  0  0  0  0  0  0  # atno 10765 bound_to 10752
  140.9688  133.7122  156.1489 H   0  0  0  0  0  0  0  0  0  0  0  0  # atno 11005 bound_to 11000
  146.1237  140.7276  142.9445 LP  0  0  0  0  0  0  0  0  0  0  0  0  # atno 17320 bound_to 7965
  144.7137  140.4134  143.7060 LP  0  0  0  0  0  0  0  0  0  0  0  0  # atno 17321 bound_to 7965
  140.5956  143.2167  151.7171 LP  0  0  0  0  0  0  0  0  0  0  0  0  # atno 17342 bound_to 10162
  139.5013  144.3873  152.0316 LP  0  0  0  0  0  0  0  0  0  0  0  0  # atno 17343 bound_to 10162
  155.9964  130.3906  150.2779 LP  0  0  0  0  0  0  0  0  0  0  0  0  # atno 17370 bound_to 10713
  157.0947  131.0179  151.3108 LP  0  0  0  0  0  0  0  0  0  0  0  0  # atno 17371 bound_to 10713
  140.7360  134.4202  157.5560 LP  0  0  0  0  0  0  0  0  0  0  0  0  # atno 17394 bound_to 11000
  139.8904  134.8805  156.2370 LP  0  0  0  0  0  0  0  0  0  0  0  0  # atno 17395 bound_to 11000

$$$$
