AV-unprocessed.smi:281|AV-procd|sdf|2101|dock4
  -GOLD-   2262021393D 1   1.00000     0.00000
 Structure written by MMmdl.
 55 59  0  0  0  0  0  0  0  0  1 V2000
  147.3748  139.5417  153.6018 C   0  0  0  0  0  0  0  0  0  0  0  0
  148.5101  138.6540  154.1213 C   0  0  2  0  0  0  0  0  0  0  0  0
  148.0184  137.6474  155.1737 C   0  0  0  0  0  0  0  0  0  0  0  0
  149.1500  136.9025  155.7036 N   0  0  0  0  0  0  0  0  0  0  0  0
  148.7911  135.8757  156.5023 C   0  0  0  0  0  0  0  0  0  0  0  0
  148.4692  134.6709  155.9617 N   0  0  0  0  0  0  0  0  0  0  0  0
  148.1159  133.6574  156.7583 C   0  0  0  0  0  0  0  0  0  0  0  0
  148.0223  133.6353  158.0901 N   0  0  0  0  0  0  0  0  0  0  0  0
  148.3497  134.8442  158.6315 C   0  0  0  0  0  0  0  0  0  0  0  0
  148.7409  136.0082  157.9137 C   0  0  0  0  0  0  0  0  0  0  0  0
  148.9919  137.0526  158.7939 N   0  0  0  0  0  0  0  0  0  0  0  0
  148.7607  136.5344  159.9697 C   0  0  0  0  0  0  0  0  0  0  0  0
  148.3786  135.2110  159.9656 N   0  0  0  0  0  0  0  0  0  0  0  0
  148.0659  134.3889  161.1241 C   0  0  0  0  0  0  0  0  0  0  0  0
  147.1029  135.0735  162.1219 C   0  0  1  0  0  0  0  0  0  0  0  0
  147.8210  136.0371  162.8727 O   0  0  0  0  0  0  0  0  0  0  0  0
  145.9104  135.7644  161.4649 C   0  0  0  0  0  0  0  0  0  0  0  0
  144.8050  135.5922  162.4970 C   0  0  0  0  0  0  0  0  0  0  0  0
  145.0340  134.2775  162.9734 O   0  0  0  0  0  0  0  0  0  0  0  0
  146.4388  134.0855  163.1021 C   0  0  0  0  0  0  0  0  0  0  0  0
  150.1718  137.7707  156.2731 C   0  0  0  0  0  0  0  0  0  0  0  0
  150.6464  138.8193  155.2407 C   0  0  2  0  0  0  0  0  0  0  0  0
  151.5086  138.2292  154.1149 C   0  0  0  0  0  0  0  0  0  0  0  0
  152.9146  138.7385  154.4044 C   0  0  0  0  0  0  0  0  0  0  0  0
  152.6706  140.0077  154.9805 O   0  0  0  0  0  0  0  0  0  0  0  0
  151.6043  139.8393  155.9022 C   0  0  1  0  0  0  0  0  0  0  0  0
  150.9915  141.1973  156.2728 C   0  0  0  0  0  0  0  0  0  0  0  0
  149.5050  139.4997  154.7011 O   0  0  0  0  0  0  0  0  0  0  0  0
  146.5898  138.9434  153.1385 H   0  0  0  0  0  0  0  0  0  0  0  0
  147.7417  140.2451  152.8538 H   0  0  0  0  0  0  0  0  0  0  0  0
  146.9238  140.1194  154.4093 H   0  0  0  0  0  0  0  0  0  0  0  0
  148.9344  138.1120  153.2755 H   0  0  0  0  0  0  0  0  0  0  0  0
  147.5098  138.1698  155.9856 H   0  0  0  0  0  0  0  0  0  0  0  0
  147.2973  136.9607  154.7277 H   0  0  0  0  0  0  0  0  0  0  0  0
  147.8743  132.7316  156.2574 H   0  0  0  0  0  0  0  0  0  0  0  0
  148.8674  137.1075  160.8790 H   0  0  0  0  0  0  0  0  0  0  0  0
  147.6330  133.4534  160.7670 H   0  0  0  0  0  0  0  0  0  0  0  0
  148.9993  134.1221  161.6219 H   0  0  0  0  0  0  0  0  0  0  0  0
  148.0558  136.7506  162.2992 H   0  0  0  0  0  0  0  0  0  0  0  0
  146.0944  136.8065  161.1992 H   0  0  0  0  0  0  0  0  0  0  0  0
  145.6221  135.2355  160.5557 H   0  0  0  0  0  0  0  0  0  0  0  0
  144.9130  136.3066  163.3147 H   0  0  0  0  0  0  0  0  0  0  0  0
  143.8073  135.6992  162.0707 H   0  0  0  0  0  0  0  0  0  0  0  0
  146.6808  133.0467  162.8748 H   0  0  0  0  0  0  0  0  0  0  0  0
  146.7367  134.2701  164.1356 H   0  0  0  0  0  0  0  0  0  0  0  0
  149.7615  138.2811  157.1460 H   0  0  0  0  0  0  0  0  0  0  0  0
  151.0149  137.1717  156.6205 H   0  0  0  0  0  0  0  0  0  0  0  0
  151.4654  137.1411  154.0543 H   0  0  0  0  0  0  0  0  0  0  0  0
  151.1935  138.6249  153.1488 H   0  0  0  0  0  0  0  0  0  0  0  0
  153.4256  138.0961  155.1235 H   0  0  0  0  0  0  0  0  0  0  0  0
  153.5298  138.8134  153.5075 H   0  0  0  0  0  0  0  0  0  0  0  0
  152.0390  139.3984  156.8016 H   0  0  0  0  0  0  0  0  0  0  0  0
  150.1571  141.0740  156.9634 H   0  0  0  0  0  0  0  0  0  0  0  0
  150.6260  141.7253  155.3918 H   0  0  0  0  0  0  0  0  0  0  0  0
  151.7314  141.8362  156.7554 H   0  0  0  0  0  0  0  0  0  0  0  0
  1  2  1  0  0  0  0
  1 29  1  0  0  0  0
  1 30  1  0  0  0  0
  1 31  1  0  0  0  0
  2 28  1  0  0  0  0
  2  3  1  0  0  0  0
  2 32  1  0  0  0  0
  3  4  1  0  0  0  0
  3 33  1  0  0  0  0
  3 34  1  0  0  0  0
  4  5  1  0  0  0  0
  4 21  1  0  0  0  0
  5 10  1  0  0  0  0
  5  6  2  0  0  0  0
  6  7  1  0  0  0  0
  7  8  2  0  0  0  0
  7 35  1  0  0  0  0
  8  9  1  0  0  0  0
  9 13  1  0  0  0  0
  9 10  2  0  0  0  0
 10 11  1  0  0  0  0
 11 12  2  0  0  0  0
 12 13  1  0  0  0  0
 12 36  1  0  0  0  0
 13 14  1  0  0  0  0
 14 15  1  0  0  0  0
 14 37  1  0  0  0  0
 14 38  1  0  0  0  0
 15 20  1  0  0  0  0
 15 16  1  0  0  0  0
 15 17  1  0  0  0  0
 16 39  1  0  0  0  0
 17 18  1  0  0  0  0
 17 40  1  0  0  0  0
 17 41  1  0  0  0  0
 18 19  1  0  0  0  0
 18 42  1  0  0  0  0
 18 43  1  0  0  0  0
 19 20  1  0  0  0  0
 20 44  1  0  0  0  0
 20 45  1  0  0  0  0
 21 22  1  0  0  0  0
 21 46  1  0  0  0  0
 21 47  1  0  0  0  0
 22 26  1  0  0  0  0
 22 23  1  0  0  0  0
 22 28  1  0  0  0  0
 23 24  1  0  0  0  0
 23 48  1  0  0  0  0
 23 49  1  0  0  0  0
 24 25  1  0  0  0  0
 24 50  1  0  0  0  0
 24 51  1  0  0  0  0
 25 26  1  0  0  0  0
 26 27  1  0  0  0  0
 26 52  1  0  0  0  0
 27 53  1  0  0  0  0
 27 54  1  0  0  0  0
 27 55  1  0  0  0  0
M  END
> <s_m_source_file>
AV-unprocessed.smi

> <i_m_source_file_index>
281

> <i_lp_mmshare_version>
43012

> <i_f3d_flags>
0

> <s_epik_input>
W0NIM11bQ0BASF0xT1tDSDJdW0NIMl1bQ0BAXTEyW0NIMl1OKFtDSDJdW0NASF0oTzIpW0NIM10pYyhuW2NIXW4zKWMoYzM0KW5bY0hdbjRbQ0gyXVtDQEBdNShbT0hdKVtDSDJdW0NIMl1PW0NIMl01

> <s_epik_cmdline>
J2VwaWtfcHl0aG9uJywgJy1waCcsICc3LjAnLCAnLXRuJywgJzgnLCAnLW1hJywgJzIwMCcsICctbWV0YWxfYmluZGluZycsICctaW1hZScsICc8aW5maWxlLm1hZT4nLCAnLW9tYWUnLCAnPG91dGZpbGUubWFlPic=

> <r_lp_tautomer_probability>
1

> <r_epik_Ionization_Penalty>
0.00571331

> <r_epik_Ionization_Penalty_Charging>
0

> <r_epik_Ionization_Penalty_Neutral>
0.00571331

> <r_epik_State_Penalty>
0.00399586

> <r_epik_Charging_Adjusted_Penalty>
0.00399586

> <i_epik_Tot_Q>
0

> <i_epik_Tot_abs_Q>
0

> <r_epik_Metal_State_Penalty>
-0

> <b_epik_Metal_Only>
0

> <s_lp_Force_Field>
OPLS_2005

> <r_lp_Energy>
53.2983

> <b_lp_Chiralities_Consistent>
1

> <s_lp_Variant>
AV-unprocessed.smi:281-1

> <Gold.Version>
5.8.1

> <Gold.Id.Protein>
6NUR|6NUR_protein|mol2

> <Gold.PLP.Fitness>
38.0241

> <Gold.PLP.PLP>
-35.4379

> <Gold.PLP.part.hbond>
-2.0000

> <Gold.PLP.part.metal>
0.0000

> <Gold.PLP.part.buried>
-5.4120

> <Gold.PLP.part.nonpolar>
-28.2661

> <Gold.PLP.part.repulsive>
0.2938

> <Gold.PLP.ligand.clash>
0.0000

> <Gold.PLP.ligand.torsion>
1.0186

> <Gold.PLP.Chemscore.Hbond>
1.5016

> <Gold.PLP.Chemscore.CHOScore>
0.0000

> <Gold.PLP.Chemscore.Metal>
0.0000

> <Gold.Chemscore.Hbonds>
donor molecule, donor type, donor heavy atom, donor atom, acceptor molecule, acceptor atom, score
      P1  H  7989  7998       L1    25  0.48
      P1  H  7997  8009       L1    25  0.90

> <Gold.PLP.Chemscore.Internal.Correction>
0.1187

> <Gold.Rescore>
     Score         DG    S(hbond)    S(metal)    S(lipo)     H(rot)  DE(clash)    DE(int)     intcor
     10.65     -13.24       0.90        0.00      86.59       2.09       0.08       2.51       ----

> <Gold.Chemscore.Fitness>
10.6527

> <Gold.Chemscore.DG>
-13.2450

> <Gold.Chemscore.ZeroCoef>
-5.4800

> <Gold.Chemscore.Hbond>
0.8956

> <Gold.Chemscore.Metal>
0.0000

> <Gold.Chemscore.Lipo>
86.5910

> <Gold.Chemscore.Internal_Hbond>
0.0000

> <Gold.Chemscore.DEClash>
0.0802

> <Gold.Chemscore.DEInternal>
2.5121

> <Gold.Chemscore.Rot>
2.0927

> <Gold.Chemscore.Internal.Correction>
   9.000000E+99

> <Gold.Chemscore.Hbonds>
donor molecule, donor type, donor heavy atom, donor atom, acceptor molecule, acceptor atom, score
      P1  H  7989  7998       L1    25  0.03
      P1  H  7997  8009       L1    25  0.12

> <Gold.Chemscore.Hbond.Weighted>
-2.9912

> <Gold.Chemscore.Metal.Weighted>
-0.0000

> <Gold.Chemscore.Lipo.Weighted>
-10.1312

> <Gold.Chemscore.Internal_Hbond.Weighted>
0.0000

> <Gold.Chemscore.DEClash.Weighted>
0.0802

> <Gold.Chemscore.DEInternal.Weighted>
2.5121

> <Gold.Chemscore.Rot.Weighted>
5.3573

> <Gold.Chemscore.Internal.Correction.Weighted>
   9.000000E+99

> <Gold.Protein.RotatedTorsions>
[ 6907 6896 6895 6894 ] final  -75.83 input  -60.11 | X-H torsion
[ 7974 7965 7964 7962 ] final -171.40 input  175.53 | X-H torsion
[ 8008 7997 7996 7995 ] final -142.90 input   59.86 | X-H torsion
[ 10167 10162 10161 10158 ] final  -13.96 input  -65.29 | X-H torsion
[ 10718 10713 10712 10709 ] final    4.35 input   66.30 | X-H torsion
[ 10763 10752 10751 10750 ] final  113.35 input  -60.55 | X-H torsion
[ 11005 11000 10999 10996 ] final  -76.94 input  -57.11 | X-H torsion

> <Gold.Protein.ActiveResidues>
 VAL166  LYS551  ARG553  GLY616  TRP617  ASP618  TYR619  PRO620  LYS621  CYS622 
 ASP623  PHE694  ASN695  SER759  ASP760  ASP761  ALA762  ILE779  LEU786  VAL792 
 PHE793  MET794  SER795  GLU796  ALA797  LYS798  CYS799  TRP800  GLU811  SER814 

> <Gold.Protein.RotatedAtoms>
  150.7046  134.4663  159.5403 H   0  0  0  0  0  0  0  0  0  0  0  0  # atno 6907 bound_to 6896
  152.2328  134.8303  160.0480 H   0  0  0  0  0  0  0  0  0  0  0  0  # atno 6908 bound_to 6896
  151.9112  133.3527  159.3901 H   0  0  0  0  0  0  0  0  0  0  0  0  # atno 6909 bound_to 6896
  144.7157  140.1928  143.6346 H   0  0  0  0  0  0  0  0  0  0  0  0  # atno 7974 bound_to 7965
  155.5018  140.0576  157.2938 H   0  0  0  0  0  0  0  0  0  0  0  0  # atno 8008 bound_to 7997
  154.4584  140.1984  156.0263 H   0  0  0  0  0  0  0  0  0  0  0  0  # atno 8009 bound_to 7997
  156.0843  140.3242  155.7738 H   0  0  0  0  0  0  0  0  0  0  0  0  # atno 8010 bound_to 7997
  140.7192  143.5371  150.9452 H   0  0  0  0  0  0  0  0  0  0  0  0  # atno 10167 bound_to 10162
  156.8913  130.5688  149.5650 H   0  0  0  0  0  0  0  0  0  0  0  0  # atno 10718 bound_to 10713
  153.4912  135.3658  155.2492 H   0  0  0  0  0  0  0  0  0  0  0  0  # atno 10763 bound_to 10752
  154.8752  135.3977  154.3587 H   0  0  0  0  0  0  0  0  0  0  0  0  # atno 10764 bound_to 10752
  153.4207  135.7080  153.6362 H   0  0  0  0  0  0  0  0  0  0  0  0  # atno 10765 bound_to 10752
  141.1657  133.7003  156.7744 H   0  0  0  0  0  0  0  0  0  0  0  0  # atno 11005 bound_to 11000
  145.8752  139.2293  143.1637 LP  0  0  0  0  0  0  0  0  0  0  0  0  # atno 17320 bound_to 7965
  146.0047  140.8489  143.0001 LP  0  0  0  0  0  0  0  0  0  0  0  0  # atno 17321 bound_to 7965
  139.9093  143.6740  152.3118 LP  0  0  0  0  0  0  0  0  0  0  0  0  # atno 17342 bound_to 10162
  139.7117  144.7619  151.1101 LP  0  0  0  0  0  0  0  0  0  0  0  0  # atno 17343 bound_to 10162
  156.0627  130.5677  150.9226 LP  0  0  0  0  0  0  0  0  0  0  0  0  # atno 17370 bound_to 10713
  157.6082  131.0938  150.8842 LP  0  0  0  0  0  0  0  0  0  0  0  0  # atno 17371 bound_to 10713
  140.2440  134.8592  157.3602 LP  0  0  0  0  0  0  0  0  0  0  0  0  # atno 17394 bound_to 11000
  140.1768  134.4540  155.7797 LP  0  0  0  0  0  0  0  0  0  0  0  0  # atno 17395 bound_to 11000

$$$$
