AV-unprocessed.smi:101|AV-procd|sdf|926|dock8
  -GOLD-   2262017433D 1   1.00000     0.00000
 Structure written by MMmdl.
 44 46  0  0  0  0  0  0  0  0  1 V2000
  144.8897  140.1409  158.3450 C   0  0  0  0  0  0  0  0  0  0  0  0
  145.0419  141.1143  157.1878 C   0  0  0  0  0  0  0  0  0  0  0  0
  146.0481  141.0159  156.2817 C   0  0  0  0  0  0  0  0  0  0  0  0
  146.2123  141.8904  155.2157 N   0  0  0  0  0  0  0  0  0  0  0  0
  147.3424  141.7242  154.2256 C   0  0  1  0  0  0  0  0  0  0  0  0
  148.5528  141.6974  154.9236 O   0  0  0  0  0  0  0  0  0  0  0  0
  149.3343  140.5844  154.5027 C   0  0  1  0  0  0  0  0  0  0  0  0
  150.2553  140.1369  155.6431 C   0  0  0  0  0  0  0  0  0  0  0  0
  150.9755  141.2584  156.1267 O   0  0  0  0  0  0  0  0  0  0  0  0
  151.8369  141.1158  157.1522 C   0  0  0  0  0  0  0  0  0  0  0  0
  152.4592  140.0764  157.3810 O   0  0  0  0  0  0  0  0  0  0  0  0
  151.9597  142.3486  157.9829 C   0  0  0  0  0  0  0  0  0  0  0  0
  152.6055  142.2763  159.2391 C   0  0  0  0  0  0  0  0  0  0  0  0
  152.7364  143.4236  160.0456 C   0  0  0  0  0  0  0  0  0  0  0  0
  152.2226  144.6573  159.6057 C   0  0  0  0  0  0  0  0  0  0  0  0
  151.5777  144.7422  158.3581 C   0  0  0  0  0  0  0  0  0  0  0  0
  151.4461  143.5959  157.5501 C   0  0  0  0  0  0  0  0  0  0  0  0
  148.2809  139.5453  154.1242 C   0  0  2  0  0  0  0  0  0  0  0  0
  148.7832  138.5258  153.2810 O   0  0  0  0  0  0  0  0  0  0  0  0
  147.1953  140.3925  153.4704 C   0  0  2  0  0  0  0  0  0  0  0  0
  147.4004  140.5714  152.0805 O   0  0  0  0  0  0  0  0  0  0  0  0
  145.2766  142.9270  155.0213 C   0  0  0  0  0  0  0  0  0  0  0  0
  145.3353  143.7124  154.0758 O   0  0  0  0  0  0  0  0  0  0  0  0
  144.2468  143.0320  155.9543 N   0  0  0  0  0  0  0  0  0  0  0  0
  144.0552  142.1897  157.0522 C   0  0  0  0  0  0  0  0  0  0  0  0
  143.1062  142.3858  157.8096 O   0  0  0  0  0  0  0  0  0  0  0  0
  143.5784  143.7771  155.8227 H   0  0  0  0  0  0  0  0  0  0  0  0
  145.6769  139.3864  158.3457 H   0  0  0  0  0  0  0  0  0  0  0  0
  143.9312  139.6242  158.2848 H   0  0  0  0  0  0  0  0  0  0  0  0
  144.9342  140.6712  159.2970 H   0  0  0  0  0  0  0  0  0  0  0  0
  146.7530  140.2059  156.3996 H   0  0  0  0  0  0  0  0  0  0  0  0
  147.3328  142.6076  153.5838 H   0  0  0  0  0  0  0  0  0  0  0  0
  149.9109  140.8684  153.6204 H   0  0  0  0  0  0  0  0  0  0  0  0
  149.6767  139.6738  156.4437 H   0  0  0  0  0  0  0  0  0  0  0  0
  150.9651  139.3941  155.2766 H   0  0  0  0  0  0  0  0  0  0  0  0
  153.0078  141.3400  159.5982 H   0  0  0  0  0  0  0  0  0  0  0  0
  153.2320  143.3561  161.0029 H   0  0  0  0  0  0  0  0  0  0  0  0
  152.3224  145.5370  160.2242 H   0  0  0  0  0  0  0  0  0  0  0  0
  151.1816  145.6882  158.0193 H   0  0  0  0  0  0  0  0  0  0  0  0
  150.9445  143.6964  156.5986 H   0  0  0  0  0  0  0  0  0  0  0  0
  147.8777  139.0883  155.0293 H   0  0  0  0  0  0  0  0  0  0  0  0
  148.9259  138.8907  152.4210 H   0  0  0  0  0  0  0  0  0  0  0  0
  146.2038  139.9616  153.6177 H   0  0  0  0  0  0  0  0  0  0  0  0
  148.1581  140.0689  151.8221 H   0  0  0  0  0  0  0  0  0  0  0  0
  1  2  1  0  0  0  0
  1 28  1  0  0  0  0
  1 29  1  0  0  0  0
  1 30  1  0  0  0  0
  2 25  1  0  0  0  0
  2  3  2  0  0  0  0
  3  4  1  0  0  0  0
  3 31  1  0  0  0  0
  4  5  1  0  0  0  0
  4 22  1  0  0  0  0
  5 20  1  0  0  0  0
  5  6  1  0  0  0  0
  5 32  1  0  0  0  0
  6  7  1  0  0  0  0
  7  8  1  0  0  0  0
  7 18  1  0  0  0  0
  7 33  1  0  0  0  0
  8  9  1  0  0  0  0
  8 34  1  0  0  0  0
  8 35  1  0  0  0  0
  9 10  1  0  0  0  0
 10 11  2  0  0  0  0
 10 12  1  0  0  0  0
 12 17  1  0  0  0  0
 12 13  2  0  0  0  0
 13 14  1  0  0  0  0
 13 36  1  0  0  0  0
 14 15  2  0  0  0  0
 14 37  1  0  0  0  0
 15 16  1  0  0  0  0
 15 38  1  0  0  0  0
 16 17  2  0  0  0  0
 16 39  1  0  0  0  0
 17 40  1  0  0  0  0
 18 19  1  0  0  0  0
 18 20  1  0  0  0  0
 18 41  1  0  0  0  0
 19 42  1  0  0  0  0
 20 21  1  0  0  0  0
 20 43  1  0  0  0  0
 21 44  1  0  0  0  0
 22 23  2  0  0  0  0
 22 24  1  0  0  0  0
 24 27  1  0  0  0  0
 24 25  1  0  0  0  0
 25 26  2  0  0  0  0
M  END
> <s_m_source_file>
AV-unprocessed.smi

> <i_m_source_file_index>
101

> <i_lp_mmshare_version>
43012

> <i_f3d_flags>
0

> <s_epik_input>
Tz1jMVtuSF1jKD1PKW4oW2NIXWMxW0NIM10pW0NAQEhdMk9bQ0BIXShbQ0BASF0oW09IXSlbQ0BIXTJbT0hdKVtDSDJdT0MoPU8pYzNbY0hdW2NIXVtjSF1bY0hdW2NIXTM=

> <s_epik_cmdline>
J2VwaWtfcHl0aG9uJywgJy1waCcsICc3LjAnLCAnLXRuJywgJzgnLCAnLW1hJywgJzIwMCcsICctbWV0YWxfYmluZGluZycsICctaW1hZScsICc8aW5maWxlLm1hZT4nLCAnLW9tYWUnLCAnPG91dGZpbGUubWFlPic=

> <r_lp_tautomer_probability>
0.999537

> <r_epik_Ionization_Penalty>
0.00263537

> <r_epik_Ionization_Penalty_Charging>
0.00263428

> <r_epik_Ionization_Penalty_Neutral>
1.09111e-06

> <r_epik_State_Penalty>
0.00183335

> <r_epik_Charging_Adjusted_Penalty>
0.00446763

> <i_epik_Tot_Q>
0

> <i_epik_Tot_abs_Q>
0

> <r_epik_Metal_State_Penalty>
1.00528

> <b_epik_Metal_Only>
0

> <s_epik_Chemistry_Notes>
This compound has an ester and may undergo hydrolysis at high or low pH. This compound contains an acetal/aminal-like group ( X-CH(R)-Y where X, Y are N, S, or O) that may be acid/base labile, releasing an aldehyde.

> <s_lp_Force_Field>
OPLS_2005

> <r_lp_Energy>
34.5485

> <b_lp_Chiralities_Consistent>
1

> <s_lp_Variant>
AV-unprocessed.smi:101-14

> <Gold.Version>
5.8.1

> <Gold.Id.Protein>
6NUR|6NUR_protein|mol2

> <Gold.PLP.Fitness>
50.2750

> <Gold.PLP.PLP>
-42.3988

> <Gold.PLP.part.hbond>
-3.5826

> <Gold.PLP.part.metal>
0.0000

> <Gold.PLP.part.buried>
-6.5802

> <Gold.PLP.part.nonpolar>
-32.8301

> <Gold.PLP.part.repulsive>
0.4001

> <Gold.PLP.ligand.clash>
0.0000

> <Gold.PLP.ligand.torsion>
0.5724

> <Gold.PLP.Chemscore.Hbond>
2.9920

> <Gold.PLP.Chemscore.CHOScore>
0.0000

> <Gold.PLP.Chemscore.Metal>
0.0000

> <Gold.Chemscore.Hbonds>
donor molecule, donor type, donor heavy atom, donor atom, acceptor molecule, acceptor atom, score
      L1  H    19    42       P1  7957  1.00
      L1  H    21    44       P1  7957  0.96
      P1  H  7997  8009       L1    11  0.94

> <Gold.PLP.Chemscore.Internal.Correction>
0.0451

> <Gold.Rescore>
     Score         DG    S(hbond)    S(metal)    S(lipo)     H(rot)  DE(clash)    DE(int)     intcor
     17.03     -17.64       2.86        0.00      94.82       3.32       0.14       0.47       ----

> <Gold.Chemscore.Fitness>
17.0341

> <Gold.Chemscore.DG>
-17.6447

> <Gold.Chemscore.ZeroCoef>
-5.4800

> <Gold.Chemscore.Hbond>
2.8631

> <Gold.Chemscore.Metal>
0.0000

> <Gold.Chemscore.Lipo>
94.8214

> <Gold.Chemscore.Internal_Hbond>
0.0000

> <Gold.Chemscore.DEClash>
0.1429

> <Gold.Chemscore.DEInternal>
0.4676

> <Gold.Chemscore.Rot>
3.3172

> <Gold.Chemscore.Internal.Correction>
   9.000000E+99

> <Gold.Chemscore.Hbonds>
donor molecule, donor type, donor heavy atom, donor atom, acceptor molecule, acceptor atom, score
      L1  H    19    42       P1  7957  0.96
      L1  H    21    44       P1  7957  0.89
      P1  H  7997  8009       L1    11  0.80

> <Gold.Chemscore.Hbond.Weighted>
-9.5626

> <Gold.Chemscore.Metal.Weighted>
-0.0000

> <Gold.Chemscore.Lipo.Weighted>
-11.0941

> <Gold.Chemscore.Internal_Hbond.Weighted>
0.0000

> <Gold.Chemscore.DEClash.Weighted>
0.1429

> <Gold.Chemscore.DEInternal.Weighted>
0.4676

> <Gold.Chemscore.Rot.Weighted>
8.4920

> <Gold.Chemscore.Internal.Correction.Weighted>
   9.000000E+99

> <Gold.Protein.RotatedTorsions>
[ 6907 6896 6895 6894 ] final  -30.80 input  -60.11 | X-H torsion
[ 7974 7965 7964 7962 ] final  116.46 input  175.53 | X-H torsion
[ 8008 7997 7996 7995 ] final  172.46 input   59.86 | X-H torsion
[ 10167 10162 10161 10158 ] final  -41.27 input  -65.29 | X-H torsion
[ 10718 10713 10712 10709 ] final   41.84 input   66.30 | X-H torsion
[ 10763 10752 10751 10750 ] final  -14.48 input  -60.55 | X-H torsion
[ 11005 11000 10999 10996 ] final   94.49 input  -57.11 | X-H torsion

> <Gold.Protein.ActiveResidues>
 VAL166  LYS551  ARG553  GLY616  TRP617  ASP618  TYR619  PRO620  LYS621  CYS622 
 ASP623  PHE694  ASN695  SER759  ASP760  ASP761  ALA762  ILE779  LEU786  VAL792 
 PHE793  MET794  SER795  GLU796  ALA797  LYS798  CYS799  TRP800  GLU811  SER814 

> <Gold.Protein.RotatedAtoms>
  151.1006  134.9970  159.8446 H   0  0  0  0  0  0  0  0  0  0  0  0  # atno 6907 bound_to 6896
  152.5436  134.1954  159.8701 H   0  0  0  0  0  0  0  0  0  0  0  0  # atno 6908 bound_to 6896
  151.1997  133.4574  159.2629 H   0  0  0  0  0  0  0  0  0  0  0  0  # atno 6909 bound_to 6896
  145.1794  139.3058  143.4426 H   0  0  0  0  0  0  0  0  0  0  0  0  # atno 7974 bound_to 7965
  156.1172  140.1485  156.9256 H   0  0  0  0  0  0  0  0  0  0  0  0  # atno 8008 bound_to 7997
  154.4809  140.0880  156.7417 H   0  0  0  0  0  0  0  0  0  0  0  0  # atno 8009 bound_to 7997
  155.4493  140.3434  155.4301 H   0  0  0  0  0  0  0  0  0  0  0  0  # atno 8010 bound_to 7997
  140.7008  143.3104  151.3043 H   0  0  0  0  0  0  0  0  0  0  0  0  # atno 10167 bound_to 10162
  157.3982  130.7845  149.7326 H   0  0  0  0  0  0  0  0  0  0  0  0  # atno 10718 bound_to 10713
  153.5288  135.7015  153.5693 H   0  0  0  0  0  0  0  0  0  0  0  0  # atno 10763 bound_to 10752
  153.3710  135.3945  155.1788 H   0  0  0  0  0  0  0  0  0  0  0  0  # atno 10764 bound_to 10752
  154.8687  135.3812  154.4784 H   0  0  0  0  0  0  0  0  0  0  0  0  # atno 10765 bound_to 10752
  139.8798  134.8848  156.3872 H   0  0  0  0  0  0  0  0  0  0  0  0  # atno 11005 bound_to 11000
  146.3456  140.1968  142.8589 LP  0  0  0  0  0  0  0  0  0  0  0  0  # atno 17320 bound_to 7965
  145.0152  140.8747  143.5200 LP  0  0  0  0  0  0  0  0  0  0  0  0  # atno 17321 bound_to 7965
  139.6525  144.0336  152.2636 LP  0  0  0  0  0  0  0  0  0  0  0  0  # atno 17342 bound_to 10162
  139.9877  144.6383  150.7842 LP  0  0  0  0  0  0  0  0  0  0  0  0  # atno 17343 bound_to 10162
  155.9816  130.4018  150.3463 LP  0  0  0  0  0  0  0  0  0  0  0  0  # atno 17370 bound_to 10713
  157.1587  131.0339  151.2851 LP  0  0  0  0  0  0  0  0  0  0  0  0  # atno 17371 bound_to 10713
  140.9358  133.7548  156.0082 LP  0  0  0  0  0  0  0  0  0  0  0  0  # atno 17394 bound_to 11000
  140.8277  134.3214  157.5360 LP  0  0  0  0  0  0  0  0  0  0  0  0  # atno 17395 bound_to 11000

$$$$
