#       Name:                AV-unprocessed.smi:716
#       Creating user name   scv26
#       Creation time:       Fri Mar 27 00:48:07 2020


#       File generated by GOLD software.
#

@<TRIPOS>MOLECULE
AV-unprocessed.smi:716
    55    57     1
SMALL
NO_CHARGES


@<TRIPOS>ATOM
      1 ****        -5.7708   0.9590   2.2883 C.3            1 S1                 0.0000
      2 ****        -4.6614  -0.0947   2.3003 C.3            1 S1                 0.0000
      3 ****        -3.6584   0.2838   1.3722 O.3            1 S1                 0.0000
      4 ****        -2.5574  -0.6167   1.3456 C.3            1 S1                 0.0000
      5 ****        -1.5112  -0.2888   2.4186 C.3            1 S1                 0.0000
      6 ****        -0.8923   0.6598   1.3912 C.3            1 S1                 0.0000
      7 ****         0.5637   0.6660   1.4482 N.am           1 S1                 0.0000
      8 ****         1.3518   1.4882   0.7417 C.2            1 S1                 0.0000
      9 ****         0.9214   2.3676  -0.0037 O.2            1 S1                 0.0000
     10 ****         2.8613   1.2780   0.8903 C.3            1 S1                 0.0000
     11 ****         3.3569   0.2851  -0.0719 N.am           1 S1                 0.0000
     12 ****         3.7585   0.8233  -1.2837 N.2            1 S1                 0.0000
     13 ****         4.1731   0.0655  -2.2452 C.2            1 S1                 0.0000
     14 ****         4.5756   0.7294  -3.5285 C.3            1 S1                 0.0000
     15 ****         4.2302  -1.3705  -2.0492 C.2            1 S1                 0.0000
     16 ****         3.8412  -1.8930  -0.8666 C.2            1 S1                 0.0000
     17 ****         3.3594  -1.0492   0.2244 C.2            1 S1                 0.0000
     18 ****         2.9767  -1.4981   1.3048 O.2            1 S1                 0.0000
     19 ****        -1.5084  -0.2286   0.2747 C.3            1 S1                 0.0000
     20 ****        -0.6775  -1.3805  -0.3084 C.3            1 S1                 0.0000
     21 ****        -0.0798  -0.9014  -1.6341 C.3            1 S1                 0.0000
     22 ****        -0.9430   0.2801  -2.0804 C.3            1 S1                 0.0000
     23 ****        -2.0061   0.4637  -0.9932 C.3            1 S1                 0.0000
     24 ****        -6.5593   0.7024   2.9961 H              1 S1                 0.0000
     25 ****        -6.2212   1.0410   1.2989 H              1 S1                 0.0000
     26 ****        -5.3812   1.9396   2.5624 H              1 S1                 0.0000
     27 ****        -4.2436  -0.1802   3.3040 H              1 S1                 0.0000
     28 ****        -5.0706  -1.0692   2.0301 H              1 S1                 0.0000
     29 ****        -2.8556  -1.6657   1.3051 H              1 S1                 0.0000
     30 ****        -1.8934   0.2006   3.3145 H              1 S1                 0.0000
     31 ****        -0.8783  -1.1435   2.6648 H              1 S1                 0.0000
     32 ****        -1.3439   1.6537   1.4398 H              1 S1                 0.0000
     33 ****         1.0039  -0.0288   2.0344 H              1 S1                 0.0000
     34 ****         3.3656   2.2333   0.7336 H              1 S1                 0.0000
     35 ****         3.0987   0.9909   1.9166 H              1 S1                 0.0000
     36 ****         4.8938  -0.0040  -4.2697 H              1 S1                 0.0000
     37 ****         5.4032   1.4205  -3.3662 H              1 S1                 0.0000
     38 ****         3.7426   1.2912  -3.9521 H              1 S1                 0.0000
     39 ****         4.5827  -2.0083  -2.8463 H              1 S1                 0.0000
     40 ****         3.8839  -2.9625  -0.7215 H              1 S1                 0.0000
     41 ****         0.0969  -1.7393   0.3702 H              1 S1                 0.0000
     42 ****        -1.3259  -2.2348  -0.5068 H              1 S1                 0.0000
     43 ****         0.9486  -0.5714  -1.4925 H              1 S1                 0.0000
     44 ****        -0.0641  -1.7001  -2.3761 H              1 S1                 0.0000
     45 ****        -0.3282   1.1765  -2.1676 H              1 S1                 0.0000
     46 ****        -1.3999   0.1040  -3.0547 H              1 S1                 0.0000
     47 ****        -2.9384   0.0038  -1.3233 H              1 S1                 0.0000
     48 ****        -2.2206   1.5204  -0.8298 H              1 S1                 0.0000
     49 ****        -3.3213   1.1921   1.6201 LP             1 S1                 0.0000
     50 ****        -4.0651   0.3169   0.4593 LP             1 S1                 0.0000
     51 ****        -0.0648   2.4976  -0.1064 LP             1 S1                 0.0000
     52 ****         1.5578   2.9524  -0.5067 LP             1 S1                 0.0000
     53 ****         3.7271   1.8140  -1.4166 LP             1 S1                 0.0000
     54 ****         2.6440  -0.8772   2.0146 LP             1 S1                 0.0000
     55 ****         2.9985  -2.4836   1.4727 LP             1 S1                 0.0000
@<TRIPOS>BOND
    1    1    2 1     
    2    1   24 1     
    3    1   25 1     
    4    1   26 1     
    5    2    3 1     
    6    2   27 1     
    7    2   28 1     
    8    3    4 1     
    9    4   19 1     
   10    4    5 1     
   11    4   29 1     
   12    5    6 1     
   13    5   30 1     
   14    5   31 1     
   15    6    7 1     
   16    6   19 1     
   17    6   32 1     
   18    7    8 am    
   19    7   33 1     
   20    8    9 2     
   21    8   10 1     
   22   10   11 1     
   23   10   34 1     
   24   10   35 1     
   25   11   17 am    
   26   11   12 1     
   27   12   13 2     
   28   13   14 1     
   29   13   15 1     
   30   14   36 1     
   31   14   37 1     
   32   14   38 1     
   33   15   16 2     
   34   15   39 1     
   35   16   17 1     
   36   16   40 1     
   37   17   18 2     
   38   19   23 1     
   39   19   20 1     
   40   20   21 1     
   41   20   41 1     
   42   20   42 1     
   43   21   22 1     
   44   21   43 1     
   45   21   44 1     
   46   22   23 1     
   47   22   45 1     
   48   22   46 1     
   49   23   47 1     
   50   23   48 1     
   51    3   49 1     
   52    3   50 1     
   53    9   51 1     
   54    9   52 1     
   55   12   53 1     
   56   18   54 1     
   57   18   55 1     
@<TRIPOS>SUBSTRUCTURE
      1 S1             1
@<TRIPOS>SET
LONE_PAIRS      STATIC     ATOMS    <user>   **** ""
7 49 50 51 52 53 54 55
DONOR_HYDROGENS      STATIC     ATOMS    <user>   **** ""
1 33
ATOM$BLUE        STATIC     ATOMS    COLORGROUP SYSTEM
7 49 50 51 52 53 54 55
ATOM$RED        STATIC     ATOMS    COLORGROUP SYSTEM
1 33
