#       Name:                AV-unprocessed.smi:48
#       Creating user name   scv26
#       Creation time:       Thu Mar 26 16:33:01 2020


#       File generated by GOLD software.
#

@<TRIPOS>MOLECULE
AV-unprocessed.smi:48
    41    43     1
SMALL
NO_CHARGES


@<TRIPOS>ATOM
      1 ****        -3.5618   1.0107   1.0044 O.3            1 S1                 0.0000
      2 ****        -3.2235  -0.3441   0.7981 C.3            1 S1                 0.0000
      3 ****        -1.6990  -0.4972   0.6883 C.3            1 S1                 0.0000
      4 ****        -1.2786  -0.1789  -0.6383 O.3            1 S1                 0.0000
      5 ****        -0.1506  -0.9249  -0.9917 C.3            1 S1                 0.0000
      6 ****         0.9908   0.0060  -1.2760 N.pl3          1 S1                 0.0000
      7 ****         1.9206  -0.1301  -2.2434 C.2            1 S1                 0.0000
      8 ****         2.8609   0.8091  -2.3314 N.2            1 S1                 0.0000
      9 ****         2.4971   1.6602  -1.3012 C.ar           1 S1                 0.0000
     10 ****         3.0537   2.8685  -0.8154 C.ar           1 S1                 0.0000
     11 ****         4.4639   3.5515  -1.5385 Cl             1 S1                 0.0000
     12 ****         2.4546   3.4790   0.2343 N.ar           1 S1                 0.0000
     13 ****         1.3624   2.9272   0.7766 C.ar           1 S1                 0.0000
     14 ****         0.7296   1.8016   0.4284 N.ar           1 S1                 0.0000
     15 ****         1.3338   1.1853  -0.6299 C.ar           1 S1                 0.0000
     16 ****         0.1353  -1.9166   0.1536 C.3            1 S1                 0.0000
     17 ****         1.1970  -1.5168   1.0067 O.3            1 S1                 0.0000
     18 ****        -1.2143  -1.9379   0.8589 C.3            1 S1                 0.0000
     19 ****        -1.1308  -2.3438   2.2121 O.3            1 S1                 0.0000
     20 ****        -1.1869   0.1456   1.4058 H              1 S1                 0.0000
     21 ****        -0.3448  -1.4230  -1.9425 H              1 S1                 0.0000
     22 ****         0.3840  -2.8931  -0.2634 H              1 S1                 0.0000
     23 ****        -1.8842  -2.6152   0.3267 H              1 S1                 0.0000
     24 ****        -4.5012   1.0777   1.0821 H              1 S1                 0.0000
     25 ****        -3.5963  -0.9070   1.6542 H              1 S1                 0.0000
     26 ****        -3.7266  -0.7314  -0.0884 H              1 S1                 0.0000
     27 ****         1.9083  -0.9704  -2.9223 H              1 S1                 0.0000
     28 ****         0.9335   3.4637   1.6099 H              1 S1                 0.0000
     29 ****         1.9899  -1.4620   0.4958 H              1 S1                 0.0000
     30 ****        -0.7175  -3.1928   2.2458 H              1 S1                 0.0000
     31 ****        -3.2478   1.5584   0.2289 LP             1 S1                 0.0000
     32 ****        -3.1297   1.3420   1.8432 LP             1 S1                 0.0000
     33 ****        -1.0567   0.7949  -0.6875 LP             1 S1                 0.0000
     34 ****        -2.0209  -0.3843  -1.2760 LP             1 S1                 0.0000
     35 ****         3.6261   0.8806  -2.9712 LP             1 S1                 0.0000
     36 ****         2.8242   4.3330   0.6005 LP             1 S1                 0.0000
     37 ****        -0.0875   1.4532   0.8877 LP             1 S1                 0.0000
     38 ****         1.3131  -2.1891   1.7378 LP             1 S1                 0.0000
     39 ****         0.9906  -0.6232   1.4053 LP             1 S1                 0.0000
     40 ****        -2.0488  -2.3998   2.6047 LP             1 S1                 0.0000
     41 ****        -0.5868  -1.6832   2.7294 LP             1 S1                 0.0000
@<TRIPOS>BOND
    1    1    2 1     
    2    1   24 1     
    3    2    3 1     
    4    2   25 1     
    5    2   26 1     
    6    3   20 1     
    7    3   18 1     
    8    3    4 1     
    9    4    5 1     
   10    5   21 1     
   11    5    6 1     
   12    5   16 1     
   13    6   15 1     
   14    6    7 1     
   15    7    8 2     
   16    7   27 1     
   17    8    9 1     
   18    9   15 ar    
   19    9   10 ar    
   20   10   11 1     
   21   10   12 ar    
   22   12   13 ar    
   23   13   14 ar    
   24   13   28 1     
   25   14   15 ar    
   26   16   22 1     
   27   16   17 1     
   28   16   18 1     
   29   17   29 1     
   30   18   23 1     
   31   18   19 1     
   32   19   30 1     
   33    1   31 1     
   34    1   32 1     
   35    4   33 1     
   36    4   34 1     
   37    8   35 1     
   38   12   36 1     
   39   14   37 1     
   40   17   38 1     
   41   17   39 1     
   42   19   40 1     
   43   19   41 1     
@<TRIPOS>SUBSTRUCTURE
      1 S1             1
@<TRIPOS>SET
LONE_PAIRS      STATIC     ATOMS    <user>   **** ""
11 31 32 33 34 35 36 37 38 39 40 41
DONOR_HYDROGENS      STATIC     ATOMS    <user>   **** ""
3 24 29 30
ATOM$BLUE        STATIC     ATOMS    COLORGROUP SYSTEM
11 31 32 33 34 35 36 37 38 39 40 41
ATOM$RED        STATIC     ATOMS    COLORGROUP SYSTEM
3 24 29 30
