AV-unprocessed.smi:3209|AV-procd|sdf|12268|dock7
  -GOLD-   2272018103D 1   1.00000     0.00000
 Structure written by MMmdl.
 37 39  0  0  0  0  0  0  0  0  2 V2000
  147.1111  138.6484  152.8135 C   0  0  0  0  0  0  0  0  0  0  0  0
  147.4665  139.8967  153.5454 C   0  0  0  0  0  0  0  0  0  0  0  0
  148.4335  139.9627  154.4642 N   0  0  0  0  0  0  0  0  0  0  0  0
  148.5727  141.2431  155.0087 C   0  0  0  0  0  0  0  0  0  0  0  0
  149.6118  141.4982  156.0576 C   0  0  0  0  0  0  0  0  0  0  0  0
  148.9938  141.9529  157.3866 C   0  0  0  0  0  0  0  0  0  0  0  0
  149.6175  143.2048  157.8609 N   0  3  0  0  0  0  0  0  0  0  0  0
  151.0895  143.1470  157.9959 C   0  0  2  0  0  0  0  0  0  0  0  0
  151.5800  142.5107  159.3150 C   0  0  0  0  0  0  0  0  0  0  0  0
  152.5579  143.5710  159.8583 C   0  0  2  0  0  0  0  0  0  0  0  0
  151.7485  144.7487  160.4290 C   0  0  0  0  0  0  0  0  0  0  0  0
  151.1922  145.4191  159.1597 C   0  0  0  0  0  0  0  0  0  0  0  0
  151.7586  144.5384  158.0241 C   0  0  1  0  0  0  0  0  0  0  0  0
  153.1322  144.1789  158.5819 C   0  0  0  0  0  0  0  0  0  0  0  0
  147.6882  142.1529  154.4850 C   0  0  0  0  0  0  0  0  0  0  0  0
  146.6474  141.4324  153.2879 S   0  0  0  0  0  0  0  0  0  0  0  0
  147.9824  137.9994  152.7212 H   0  0  0  0  0  0  0  0  0  0  0  0
  146.7495  138.8893  151.8137 H   0  0  0  0  0  0  0  0  0  0  0  0
  146.3282  138.1124  153.3502 H   0  0  0  0  0  0  0  0  0  0  0  0
  150.2018  140.5950  156.2197 H   0  0  0  0  0  0  0  0  0  0  0  0
  150.3143  142.2553  155.7065 H   0  0  0  0  0  0  0  0  0  0  0  0
  147.9204  142.1019  157.2633 H   0  0  0  0  0  0  0  0  0  0  0  0
  149.1268  141.1789  158.1437 H   0  0  0  0  0  0  0  0  0  0  0  0
  149.3939  143.9315  157.1958 H   0  0  0  0  0  0  0  0  0  0  0  0
  151.4912  142.5875  157.1490 H   0  0  0  0  0  0  0  0  0  0  0  0
  150.7755  142.3044  160.0224 H   0  0  0  0  0  0  0  0  0  0  0  0
  152.0945  141.5700  159.1148 H   0  0  0  0  0  0  0  0  0  0  0  0
  153.2966  143.1716  160.5539 H   0  0  0  0  0  0  0  0  0  0  0  0
  150.9609  144.4224  161.1094 H   0  0  0  0  0  0  0  0  0  0  0  0
  152.3957  145.4374  160.9738 H   0  0  0  0  0  0  0  0  0  0  0  0
  150.1037  145.4734  159.1590 H   0  0  0  0  0  0  0  0  0  0  0  0
  151.5691  146.4393  159.0764 H   0  0  0  0  0  0  0  0  0  0  0  0
  151.7767  145.0345  157.0531 H   0  0  0  0  0  0  0  0  0  0  0  0
  153.7676  145.0475  158.7644 H   0  0  0  0  0  0  0  0  0  0  0  0
  153.6784  143.4601  157.9682 H   0  0  0  0  0  0  0  0  0  0  0  0
  147.5847  143.2000  154.7284 H   0  0  0  0  0  0  0  0  0  0  0  0
  149.2207  143.4543  158.7556 H   0  0  0  0  0  0  0  0  0  0  0  0
  1  2  1  0  0  0  0
  1 17  1  0  0  0  0
  1 18  1  0  0  0  0
  1 19  1  0  0  0  0
  2 16  1  0  0  0  0
  2  3  2  0  0  0  0
  3  4  1  0  0  0  0
  4  5  1  0  0  0  0
  4 15  2  0  0  0  0
  5  6  1  0  0  0  0
  5 20  1  0  0  0  0
  5 21  1  0  0  0  0
  6  7  1  0  0  0  0
  6 22  1  0  0  0  0
  6 23  1  0  0  0  0
  7  8  1  0  0  0  0
  7 24  1  0  0  0  0
  7 37  1  0  0  0  0
  8 13  1  0  0  0  0
  8  9  1  0  0  0  0
  8 25  1  0  0  0  0
  9 10  1  0  0  0  0
  9 26  1  0  0  0  0
  9 27  1  0  0  0  0
 10 14  1  0  0  0  0
 10 11  1  0  0  0  0
 10 28  1  0  0  0  0
 11 12  1  0  0  0  0
 11 29  1  0  0  0  0
 11 30  1  0  0  0  0
 12 13  1  0  0  0  0
 12 31  1  0  0  0  0
 12 32  1  0  0  0  0
 13 14  1  0  0  0  0
 13 33  1  0  0  0  0
 14 34  1  0  0  0  0
 14 35  1  0  0  0  0
 15 16  1  0  0  0  0
 15 36  1  0  0  0  0
M  CHG  1   7   1
M  END
> <s_m_source_file>
AV-unprocessed.smi

> <i_m_source_file_index>
3209

> <i_lp_mmshare_version>
43012

> <i_f3d_flags>
0

> <s_epik_input>
W0NIM11jMW5jKFtjSF1zMSlbQ0gyXVtDSDJdW05IXVtDQEhdKFtDSDJdW0NASF0yMylbQ0BIXShbQ0gyXTMpW0NIMl1bQ0gyXTI=

> <s_epik_cmdline>
J2VwaWtfcHl0aG9uJywgJy1waCcsICc3LjAnLCAnLXRuJywgJzgnLCAnLW1hJywgJzIwMCcsICctbWV0YWxfYmluZGluZycsICctaW1hZScsICc8aW5maWxlLm1hZT4nLCAnLW9tYWUnLCAnPG91dGZpbGUubWFlPic=

> <r_lp_tautomer_probability>
1

> <r_epik_Ionization_Penalty>
0.000342479

> <r_epik_Ionization_Penalty_Charging>
0.000317129

> <r_epik_Ionization_Penalty_Neutral>
2.535e-05

> <r_epik_State_Penalty>
-0

> <r_epik_Charging_Adjusted_Penalty>
0.000317129

> <i_epik_Tot_Q>
1

> <i_epik_Tot_abs_Q>
1

> <r_epik_Metal_State_Penalty>
-0

> <b_epik_Metal_Only>
0

> <s_lp_Force_Field>
OPLS_2005

> <r_lp_Energy>
49.3093

> <b_lp_Chiralities_Consistent>
1

> <s_lp_Variant>
AV-unprocessed.smi:3209-1

> <Gold.Version>
5.8.1

> <Gold.Id.Protein>
6NUR|6NUR_protein|mol2

> <Gold.PLP.Fitness>
45.3957

> <Gold.PLP.PLP>
-37.5247

> <Gold.PLP.part.hbond>
-1.0000

> <Gold.PLP.part.metal>
0.0000

> <Gold.PLP.part.buried>
-0.6477

> <Gold.PLP.part.nonpolar>
-36.0920

> <Gold.PLP.part.repulsive>
0.1569

> <Gold.PLP.ligand.clash>
0.0000

> <Gold.PLP.ligand.torsion>
0.5729

> <Gold.PLP.Chemscore.Hbond>
2.0000

> <Gold.PLP.Chemscore.CHOScore>
1.0000

> <Gold.PLP.Chemscore.Metal>
0.0000

> <Gold.Chemscore.Hbonds>
donor molecule, donor type, donor heavy atom, donor atom, acceptor molecule, acceptor atom, score
      L1  H     7    24       P1  8028  2.00
      L1  C    15    36       P1  8028  1.00

> <Gold.PLP.Chemscore.Internal.Correction>
0.0168

> <Gold.Rescore>
     Score         DG    S(hbond)    S(metal)    S(lipo)     H(rot)  DE(clash)    DE(int)     intcor
     18.45     -19.17       0.88        0.00     120.49       1.31       0.03       0.69       ----

> <Gold.Chemscore.Fitness>
18.4530

> <Gold.Chemscore.DG>
-19.1739

> <Gold.Chemscore.ZeroCoef>
-5.4800

> <Gold.Chemscore.Hbond>
0.8840

> <Gold.Chemscore.Metal>
0.0000

> <Gold.Chemscore.Lipo>
120.4894

> <Gold.Chemscore.Internal_Hbond>
0.0000

> <Gold.Chemscore.DEClash>
0.0264

> <Gold.Chemscore.DEInternal>
0.6946

> <Gold.Chemscore.Rot>
1.3108

> <Gold.Chemscore.Internal.Correction>
   9.000000E+99

> <Gold.Chemscore.Hbonds>
donor molecule, donor type, donor heavy atom, donor atom, acceptor molecule, acceptor atom, score
      L1  H     7    24       P1  8028  0.45

> <Gold.Chemscore.Hbond.Weighted>
-2.9524

> <Gold.Chemscore.Metal.Weighted>
-0.0000

> <Gold.Chemscore.Lipo.Weighted>
-14.0973

> <Gold.Chemscore.Internal_Hbond.Weighted>
0.0000

> <Gold.Chemscore.DEClash.Weighted>
0.0264

> <Gold.Chemscore.DEInternal.Weighted>
0.6946

> <Gold.Chemscore.Rot.Weighted>
3.3558

> <Gold.Chemscore.Internal.Correction.Weighted>
   9.000000E+99

> <Gold.Protein.RotatedTorsions>
[ 6907 6896 6895 6894 ] final -150.56 input  -60.11 | X-H torsion
[ 7974 7965 7964 7962 ] final   42.22 input  175.53 | X-H torsion
[ 8008 7997 7996 7995 ] final  116.39 input   59.86 | X-H torsion
[ 10167 10162 10161 10158 ] final  152.04 input  -65.29 | X-H torsion
[ 10718 10713 10712 10709 ] final  -74.00 input   66.30 | X-H torsion
[ 10763 10752 10751 10750 ] final  126.13 input  -60.55 | X-H torsion
[ 11005 11000 10999 10996 ] final    1.15 input  -57.11 | X-H torsion

> <Gold.Protein.ActiveResidues>
 VAL166  LYS551  ARG553  GLY616  TRP617  ASP618  TYR619  PRO620  LYS621  CYS622 
 ASP623  PHE694  ASN695  SER759  ASP760  ASP761  ALA762  ILE779  LEU786  VAL792 
 PHE793  MET794  SER795  GLU796  ALA797  LYS798  CYS799  TRP800  GLU811  SER814 

> <Gold.Protein.RotatedAtoms>
  151.2003  133.4615  159.2595 H   0  0  0  0  0  0  0  0  0  0  0  0  # atno 6907 bound_to 6896
  151.1076  135.0008  159.8488 H   0  0  0  0  0  0  0  0  0  0  0  0  # atno 6908 bound_to 6896
  152.5448  134.1925  159.8732 H   0  0  0  0  0  0  0  0  0  0  0  0  # atno 6909 bound_to 6896
  146.0758  139.5325  142.9568 H   0  0  0  0  0  0  0  0  0  0  0  0  # atno 7974 bound_to 7965
  156.2436  140.2918  156.0515 H   0  0  0  0  0  0  0  0  0  0  0  0  # atno 8008 bound_to 7997
  155.1876  140.0406  157.2911 H   0  0  0  0  0  0  0  0  0  0  0  0  # atno 8009 bound_to 7997
  154.6217  140.2477  155.7549 H   0  0  0  0  0  0  0  0  0  0  0  0  # atno 8010 bound_to 7997
  139.4836  144.5391  151.7595 H   0  0  0  0  0  0  0  0  0  0  0  0  # atno 10167 bound_to 10162
  156.0259  130.4407  150.2827 H   0  0  0  0  0  0  0  0  0  0  0  0  # atno 10718 bound_to 10713
  153.6885  135.3303  155.3196 H   0  0  0  0  0  0  0  0  0  0  0  0  # atno 10763 bound_to 10752
  154.8446  135.4426  154.1533 H   0  0  0  0  0  0  0  0  0  0  0  0  # atno 10764 bound_to 10752
  153.2568  135.6987  153.7698 H   0  0  0  0  0  0  0  0  0  0  0  0  # atno 10765 bound_to 10752
  140.6186  133.9682  155.8213 H   0  0  0  0  0  0  0  0  0  0  0  0  # atno 11005 bound_to 11000
  145.6308  141.0304  143.1864 LP  0  0  0  0  0  0  0  0  0  0  0  0  # atno 17320 bound_to 7965
  144.7261  139.7872  143.7364 LP  0  0  0  0  0  0  0  0  0  0  0  0  # atno 17321 bound_to 7965
  140.4928  144.1285  150.5954 LP  0  0  0  0  0  0  0  0  0  0  0  0  # atno 17342 bound_to 10162
  140.4152  143.2638  151.9784 LP  0  0  0  0  0  0  0  0  0  0  0  0  # atno 17343 bound_to 10162
  157.0930  131.0175  151.3114 LP  0  0  0  0  0  0  0  0  0  0  0  0  # atno 17370 bound_to 10713
  157.4839  130.7781  149.7441 LP  0  0  0  0  0  0  0  0  0  0  0  0  # atno 17371 bound_to 10713
  141.0758  134.0137  157.3460 LP  0  0  0  0  0  0  0  0  0  0  0  0  # atno 17394 bound_to 11000
  139.9162  135.0197  156.7891 LP  0  0  0  0  0  0  0  0  0  0  0  0  # atno 17395 bound_to 11000

$$$$
