#       Name:                AV-unprocessed.smi:54
#       Creating user name   scv26
#       Creation time:       Thu Mar 26 16:45:02 2020


#       File generated by GOLD software.
#

@<TRIPOS>MOLECULE
AV-unprocessed.smi:54
    58    60     1
SMALL
NO_CHARGES


@<TRIPOS>ATOM
      1 ****        -2.6124   5.8402   0.4731 C.3            1 S1                 0.0000
      2 ****        -1.6841   4.9326  -0.3509 C.3            1 S1                 0.0000
      3 ****        -1.3952   5.5389  -1.7343 C.3            1 S1                 0.0000
      4 ****        -2.2814   3.5246  -0.4875 C.2            1 S1                 0.0000
      5 ****        -3.3518   3.3835  -1.0828 O.2            1 S1                 0.0000
      6 ****        -1.5497   2.5313   0.0651 N.am           1 S1                 0.0000
      7 ****        -1.8076   1.1555   0.1013 C.2            1 S1                 0.0000
      8 ****        -0.7490   0.4422   0.4013 N.2            1 S1                 0.0000
      9 ****        -1.0154  -0.9134   0.4464 C.2            1 S1                 0.0000
     10 ****        -2.2117  -1.5379   0.2237 C.2            1 S1                 0.0000
     11 ****        -2.0935  -2.9168   0.3379 N.2            1 S1                 0.0000
     12 ****        -0.8029  -3.0605   0.6315 C.2            1 S1                 0.0000
     13 ****        -0.0930  -1.9150   0.7321 N.pl3          1 S1                 0.0000
     14 ****         1.3723  -1.7246   1.0160 C.3            1 S1                 0.0000
     15 ****         2.0565  -1.7726  -0.1941 O.3            1 S1                 0.0000
     16 ****         2.3603  -3.1252  -0.5065 C.3            1 S1                 0.0000
     17 ****         3.5332  -3.1804  -1.4972 C.3            1 S1                 0.0000
     18 ****         3.0669  -2.9845  -2.8151 O.3            1 S1                 0.0000
     19 ****         2.6915  -3.7348   0.8671 C.3            1 S1                 0.0000
     20 ****         2.2187  -5.0657   0.9270 O.3            1 S1                 0.0000
     21 ****         1.9523  -2.8538   1.8815 C.3            1 S1                 0.0000
     22 ****         2.8494  -2.3391   2.8442 O.3            1 S1                 0.0000
     23 ****        -3.3710  -0.6726  -0.0961 C.2            1 S1                 0.0000
     24 ****        -4.4676  -1.1908  -0.2978 O.2            1 S1                 0.0000
     25 ****        -3.1082   0.6676  -0.1374 N.pl3          1 S1                -1.0000
     26 ****         1.4330  -0.7389   1.4787 H              1 S1                 0.0000
     27 ****         1.4748  -3.6027  -0.9309 H              1 S1                 0.0000
     28 ****         3.7676  -3.7205   1.0481 H              1 S1                 0.0000
     29 ****         1.1599  -3.3775   2.4176 H              1 S1                 0.0000
     30 ****        -2.8254   5.4058   1.4507 H              1 S1                 0.0000
     31 ****        -3.5645   6.0064  -0.0322 H              1 S1                 0.0000
     32 ****        -2.1540   6.8149   0.6419 H              1 S1                 0.0000
     33 ****        -0.7353   4.8541   0.1826 H              1 S1                 0.0000
     34 ****        -0.7454   4.8903  -2.3231 H              1 S1                 0.0000
     35 ****        -0.8954   6.5032  -1.6397 H              1 S1                 0.0000
     36 ****        -2.3122   5.6971  -2.3033 H              1 S1                 0.0000
     37 ****        -0.6676   2.8255   0.4569 H              1 S1                 0.0000
     38 ****        -0.3657  -4.0370   0.7734 H              1 S1                 0.0000
     39 ****         4.2972  -2.4431  -1.2494 H              1 S1                 0.0000
     40 ****         4.0063  -4.1621  -1.4620 H              1 S1                 0.0000
     41 ****         3.8044  -3.0252  -3.4045 H              1 S1                 0.0000
     42 ****         1.2896  -5.0625   0.7547 H              1 S1                 0.0000
     43 ****         3.5264  -1.8572   2.3941 H              1 S1                 0.0000
     44 ****        -3.8182   4.1796  -1.4684 LP             1 S1                 0.0000
     45 ****        -3.7536   2.4730  -1.1801 LP             1 S1                 0.0000
     46 ****         0.1530   0.8361   0.5782 LP             1 S1                 0.0000
     47 ****        -2.7960  -3.6199   0.2280 LP             1 S1                 0.0000
     48 ****         2.9046  -1.2480  -0.1198 LP             1 S1                 0.0000
     49 ****         1.4857  -1.3826  -0.9167 LP             1 S1                 0.0000
     50 ****         2.6268  -2.0895  -2.8874 LP             1 S1                 0.0000
     51 ****         2.4084  -3.6996  -3.0494 LP             1 S1                 0.0000
     52 ****         2.3917  -5.4444   1.8362 LP             1 S1                 0.0000
     53 ****         2.6871  -5.6211   0.2399 LP             1 S1                 0.0000
     54 ****         3.2575  -3.0913   3.3616 LP             1 S1                 0.0000
     55 ****         2.3609  -1.7307   3.4696 LP             1 S1                 0.0000
     56 ****        -4.5684  -2.1843  -0.2451 LP             1 S1                 0.0000
     57 ****        -5.2587  -0.6187  -0.5147 LP             1 S1                 0.0000
     58 ****        -3.8475   1.3100  -0.3394 LP             1 S1                 0.0000
@<TRIPOS>BOND
    1    1    2 1     
    2    1   30 1     
    3    1   31 1     
    4    1   32 1     
    5    2    3 1     
    6    2    4 1     
    7    2   33 1     
    8    3   34 1     
    9    3   35 1     
   10    3   36 1     
   11    4    5 2     
   12    4    6 am    
   13    6   37 1     
   14    6    7 1     
   15    7   25 1     
   16    7    8 2     
   17    8    9 1     
   18    9   13 1     
   19    9   10 2     
   20   10   11 1     
   21   10   23 1     
   22   11   12 2     
   23   12   13 1     
   24   12   38 1     
   25   13   14 1     
   26   14   26 1     
   27   14   21 1     
   28   14   15 1     
   29   15   16 1     
   30   16   27 1     
   31   16   17 1     
   32   16   19 1     
   33   17   18 1     
   34   17   39 1     
   35   17   40 1     
   36   18   41 1     
   37   19   28 1     
   38   19   20 1     
   39   19   21 1     
   40   20   42 1     
   41   21   29 1     
   42   21   22 1     
   43   22   43 1     
   44   23   24 2     
   45   23   25 1     
   46    5   44 1     
   47    5   45 1     
   48    8   46 1     
   49   11   47 1     
   50   15   48 1     
   51   15   49 1     
   52   18   50 1     
   53   18   51 1     
   54   20   52 1     
   55   20   53 1     
   56   22   54 1     
   57   22   55 1     
   58   24   56 1     
   59   24   57 1     
   60   25   58 1     
@<TRIPOS>SUBSTRUCTURE
      1 S1             1
@<TRIPOS>SET
LONE_PAIRS      STATIC     ATOMS    <user>   **** ""
15 44 45 46 47 48 49 50 51 52 53 54 55 56 57 58
DONOR_HYDROGENS      STATIC     ATOMS    <user>   **** ""
4 37 41 42 43
ATOM$BLUE        STATIC     ATOMS    COLORGROUP SYSTEM
15 44 45 46 47 48 49 50 51 52 53 54 55 56 57 58
ATOM$RED        STATIC     ATOMS    COLORGROUP SYSTEM
4 37 41 42 43
