AV-unprocessed.smi:498|AV-procd|sdf|2729|dock7
  -GOLD-   2262023173D 1   1.00000     0.00000
 Structure written by MMmdl.
 43 45  0  0  0  0  0  0  0  0  2 V2000
  146.6004  142.6612  153.7858 C   0  0  0  0  0  0  0  0  0  0  0  0
  147.4961  141.4711  154.1349 C   0  0  0  0  0  0  0  0  0  0  0  0
  148.8198  141.9368  154.3359 O   0  0  0  0  0  0  0  0  0  0  0  0
  149.5813  141.0799  155.1681 C   0  0  0  0  0  0  0  0  0  0  0  0
  149.1155  141.2590  156.6197 C   0  0  0  0  0  0  0  0  0  0  0  0
  150.1348  140.8140  157.5783 N   0  0  0  0  0  0  0  0  0  0  0  0
  150.3561  139.5843  158.1308 C   0  0  0  0  0  0  0  0  0  0  0  0
  149.5837  138.3259  157.8850 C   0  0  0  0  0  0  0  0  0  0  0  0
  148.9835  137.8057  159.1086 N   0  0  0  0  0  0  0  0  0  0  0  0
  148.7885  136.5081  159.3938 C   0  0  0  0  0  0  0  0  0  0  0  0
  149.1881  135.5868  158.6829 O   0  0  0  0  0  0  0  0  0  0  0  0
  147.9979  136.2324  160.6076 C   0  0  0  0  0  0  0  0  0  0  0  0
  147.5173  135.0604  161.1302 C   0  0  0  0  0  0  0  0  0  0  0  0
  146.8313  135.4008  162.3288 C   0  0  0  0  0  0  0  0  0  0  0  0
  146.9361  136.7564  162.4497 C   0  0  0  0  0  0  0  0  0  0  0  0
  147.6399  137.2777  161.4086 O   0  0  0  0  0  0  0  0  0  0  0  0
  151.4234  139.7095  158.9699 N   0  3  0  0  0  0  0  0  0  0  0  0
  151.8838  141.0271  158.9590 C   0  0  0  0  0  0  0  0  0  0  0  0
  152.9316  141.6331  159.6454 C   0  0  0  0  0  0  0  0  0  0  0  0
  153.1310  143.0093  159.4090 C   0  0  0  0  0  0  0  0  0  0  0  0
  152.3061  143.7289  158.5202 C   0  0  0  0  0  0  0  0  0  0  0  0
  151.2471  143.1035  157.8293 C   0  0  0  0  0  0  0  0  0  0  0  0
  151.0584  141.7427  158.0681 C   0  0  0  0  0  0  0  0  0  0  0  0
  145.5726  142.3390  153.6181 H   0  0  0  0  0  0  0  0  0  0  0  0
  146.9469  143.1574  152.8787 H   0  0  0  0  0  0  0  0  0  0  0  0
  146.5945  143.3967  154.5904 H   0  0  0  0  0  0  0  0  0  0  0  0
  147.1316  140.9757  155.0359 H   0  0  0  0  0  0  0  0  0  0  0  0
  147.4693  140.7426  153.3234 H   0  0  0  0  0  0  0  0  0  0  0  0
  149.4692  140.0414  154.8536 H   0  0  0  0  0  0  0  0  0  0  0  0
  150.6389  141.3326  155.0805 H   0  0  0  0  0  0  0  0  0  0  0  0
  148.9139  142.3101  156.8253 H   0  0  0  0  0  0  0  0  0  0  0  0
  148.1818  140.7280  156.8078 H   0  0  0  0  0  0  0  0  0  0  0  0
  148.8388  138.5175  157.1112 H   0  0  0  0  0  0  0  0  0  0  0  0
  150.2551  137.5657  157.4848 H   0  0  0  0  0  0  0  0  0  0  0  0
  148.6179  138.4863  159.7584 H   0  0  0  0  0  0  0  0  0  0  0  0
  147.6469  134.0753  160.7066 H   0  0  0  0  0  0  0  0  0  0  0  0
  146.3252  134.7380  163.0149 H   0  0  0  0  0  0  0  0  0  0  0  0
  146.5877  137.4749  163.1771 H   0  0  0  0  0  0  0  0  0  0  0  0
  153.5646  141.0844  160.3277 H   0  0  0  0  0  0  0  0  0  0  0  0
  153.9319  143.5234  159.9207 H   0  0  0  0  0  0  0  0  0  0  0  0
  152.4884  144.7825  158.3647 H   0  0  0  0  0  0  0  0  0  0  0  0
  150.6193  143.6633  157.1517 H   0  0  0  0  0  0  0  0  0  0  0  0
  151.8057  138.9462  159.5132 H   0  0  0  0  0  0  0  0  0  0  0  0
  1  2  1  0  0  0  0
  1 24  1  0  0  0  0
  1 25  1  0  0  0  0
  1 26  1  0  0  0  0
  2  3  1  0  0  0  0
  2 27  1  0  0  0  0
  2 28  1  0  0  0  0
  3  4  1  0  0  0  0
  4  5  1  0  0  0  0
  4 29  1  0  0  0  0
  4 30  1  0  0  0  0
  5  6  1  0  0  0  0
  5 31  1  0  0  0  0
  5 32  1  0  0  0  0
  6 23  1  0  0  0  0
  6  7  1  0  0  0  0
  7  8  1  0  0  0  0
  7 17  2  0  0  0  0
  8  9  1  0  0  0  0
  8 33  1  0  0  0  0
  8 34  1  0  0  0  0
  9 10  1  0  0  0  0
  9 35  1  0  0  0  0
 10 11  2  0  0  0  0
 10 12  1  0  0  0  0
 12 16  1  0  0  0  0
 12 13  2  0  0  0  0
 13 14  1  0  0  0  0
 13 36  1  0  0  0  0
 14 15  2  0  0  0  0
 14 37  1  0  0  0  0
 15 16  1  0  0  0  0
 15 38  1  0  0  0  0
 17 18  1  0  0  0  0
 17 43  1  0  0  0  0
 18 23  2  0  0  0  0
 18 19  1  0  0  0  0
 19 20  2  0  0  0  0
 19 39  1  0  0  0  0
 20 21  1  0  0  0  0
 20 40  1  0  0  0  0
 21 22  2  0  0  0  0
 21 41  1  0  0  0  0
 22 23  1  0  0  0  0
 22 42  1  0  0  0  0
M  CHG  1  17   1
M  END
> <s_m_source_file>
AV-unprocessed.smi

> <i_m_source_file_index>
498

> <i_lp_mmshare_version>
43012

> <i_f3d_flags>
0

> <s_epik_input>
W0NIM11bQ0gyXU9bQ0gyXVtDSDJdbihjKGMxMilbY0hdW2NIXVtjSF1bY0hdMiljKG4xKVtDSDJdW05IXUMoPU8pYzNbY0hdW2NIXVtjSF1vMw==

> <s_epik_cmdline>
J2VwaWtfcHl0aG9uJywgJy1waCcsICc3LjAnLCAnLXRuJywgJzgnLCAnLW1hJywgJzIwMCcsICctbWV0YWxfYmluZGluZycsICctaW1hZScsICc8aW5maWxlLm1hZT4nLCAnLW9tYWUnLCAnPG91dGZpbGUubWFlPic=

> <r_epik_Ionization_Penalty>
1.29911

> <r_epik_Ionization_Penalty_Charging>
1.29908

> <r_epik_Ionization_Penalty_Neutral>
2.77772e-05

> <r_epik_State_Penalty>
1.37286

> <r_epik_Charging_Adjusted_Penalty>
2.67194

> <i_epik_Tot_Q>
1

> <i_epik_Tot_abs_Q>
1

> <r_epik_Metal_State_Penalty>
1.47523

> <b_epik_Metal_Only>
0

> <s_lp_Force_Field>
OPLS_2005

> <r_lp_Energy>
10.1123

> <b_lp_Chiralities_Consistent>
1

> <s_lp_Variant>
AV-unprocessed.smi:498-2

> <Gold.Version>
5.8.1

> <Gold.Id.Protein>
6NUR|6NUR_protein|mol2

> <Gold.PLP.Fitness>
56.8804

> <Gold.PLP.PLP>
-49.5995

> <Gold.PLP.part.hbond>
-4.0000

> <Gold.PLP.part.metal>
0.0000

> <Gold.PLP.part.buried>
-7.7742

> <Gold.PLP.part.nonpolar>
-39.4361

> <Gold.PLP.part.repulsive>
0.8464

> <Gold.PLP.ligand.clash>
0.0000

> <Gold.PLP.ligand.torsion>
0.8544

> <Gold.PLP.Chemscore.Hbond>
2.9640

> <Gold.PLP.Chemscore.CHOScore>
0.0000

> <Gold.PLP.Chemscore.Metal>
0.0000

> <Gold.Chemscore.Hbonds>
donor molecule, donor type, donor heavy atom, donor atom, acceptor molecule, acceptor atom, score
      P1  H  6896  6909       L1    11  0.98
      P1  H  6931  6943       L1    16  0.93
      P1  H  6934  6947       L1    16  0.80
      P1  H  8011  8017       L1     3  0.17

> <Gold.PLP.Chemscore.Internal.Correction>
0.0976

> <Gold.Rescore>
     Score         DG    S(hbond)    S(metal)    S(lipo)     H(rot)  DE(clash)    DE(int)     intcor
     21.31     -22.17       2.52        0.00     115.41       2.04       0.01       0.85       ----

> <Gold.Chemscore.Fitness>
21.3112

> <Gold.Chemscore.DG>
-22.1692

> <Gold.Chemscore.ZeroCoef>
-5.4800

> <Gold.Chemscore.Hbond>
2.5201

> <Gold.Chemscore.Metal>
0.0000

> <Gold.Chemscore.Lipo>
115.4069

> <Gold.Chemscore.Internal_Hbond>
0.0000

> <Gold.Chemscore.DEClash>
0.0082

> <Gold.Chemscore.DEInternal>
0.8498

> <Gold.Chemscore.Rot>
2.0432

> <Gold.Chemscore.Internal.Correction>
   9.000000E+99

> <Gold.Chemscore.Hbonds>
donor molecule, donor type, donor heavy atom, donor atom, acceptor molecule, acceptor atom, score
      P1  H  6896  6909       L1    11  0.85
      P1  H  6931  6943       L1    16  0.67
      P1  H  6934  6947       L1    16  0.72
      P1  H  8011  8017       L1     3  0.11

> <Gold.Chemscore.Hbond.Weighted>
-8.4173

> <Gold.Chemscore.Metal.Weighted>
-0.0000

> <Gold.Chemscore.Lipo.Weighted>
-13.5026

> <Gold.Chemscore.Internal_Hbond.Weighted>
0.0000

> <Gold.Chemscore.DEClash.Weighted>
0.0082

> <Gold.Chemscore.DEInternal.Weighted>
0.8498

> <Gold.Chemscore.Rot.Weighted>
5.2306

> <Gold.Chemscore.Internal.Correction.Weighted>
   9.000000E+99

> <Gold.Protein.RotatedTorsions>
[ 6907 6896 6895 6894 ] final   35.69 input  -60.11 | X-H torsion
[ 7974 7965 7964 7962 ] final  -90.90 input  175.53 | X-H torsion
[ 8008 7997 7996 7995 ] final  105.70 input   59.86 | X-H torsion
[ 10167 10162 10161 10158 ] final -158.98 input  -65.29 | X-H torsion
[ 10718 10713 10712 10709 ] final  -25.04 input   66.30 | X-H torsion
[ 10763 10752 10751 10750 ] final  -92.09 input  -60.55 | X-H torsion
[ 11005 11000 10999 10996 ] final  -87.21 input  -57.11 | X-H torsion

> <Gold.Protein.ActiveResidues>
 VAL166  LYS551  ARG553  GLY616  TRP617  ASP618  TYR619  PRO620  LYS621  CYS622 
 ASP623  PHE694  ASN695  SER759  ASP760  ASP761  ALA762  ILE779  LEU786  VAL792 
 PHE793  MET794  SER795  GLU796  ALA797  LYS798  CYS799  TRP800  GLU811  SER814 

> <Gold.Protein.RotatedAtoms>
  152.1195  134.9216  160.0563 H   0  0  0  0  0  0  0  0  0  0  0  0  # atno 6907 bound_to 6896
  152.0362  133.3953  159.4326 H   0  0  0  0  0  0  0  0  0  0  0  0  # atno 6908 bound_to 6896
  150.6848  134.3387  159.4902 H   0  0  0  0  0  0  0  0  0  0  0  0  # atno 6909 bound_to 6896
  145.4203  140.9550  143.2184 H   0  0  0  0  0  0  0  0  0  0  0  0  # atno 7974 bound_to 7965
  156.1681  140.3126  155.8925 H   0  0  0  0  0  0  0  0  0  0  0  0  # atno 8008 bound_to 7997
  155.3644  140.0478  157.3063 H   0  0  0  0  0  0  0  0  0  0  0  0  # atno 8009 bound_to 7997
  154.5213  140.2199  155.8981 H   0  0  0  0  0  0  0  0  0  0  0  0  # atno 8010 bound_to 7997
  139.6650  143.9845  152.2249 H   0  0  0  0  0  0  0  0  0  0  0  0  # atno 10167 bound_to 10162
  156.4696  130.4521  149.6877 H   0  0  0  0  0  0  0  0  0  0  0  0  # atno 10718 bound_to 10713
  154.6826  135.5244  153.8283 H   0  0  0  0  0  0  0  0  0  0  0  0  # atno 10763 bound_to 10752
  153.0575  135.6556  154.0551 H   0  0  0  0  0  0  0  0  0  0  0  0  # atno 10764 bound_to 10752
  154.0437  135.2975  155.3331 H   0  0  0  0  0  0  0  0  0  0  0  0  # atno 10765 bound_to 10752
  141.1620  133.7498  156.9273 H   0  0  0  0  0  0  0  0  0  0  0  0  # atno 11005 bound_to 11000
  144.8250  139.5726  143.6970 LP  0  0  0  0  0  0  0  0  0  0  0  0  # atno 17320 bound_to 7965
  146.2660  139.6520  142.9329 LP  0  0  0  0  0  0  0  0  0  0  0  0  # atno 17321 bound_to 7965
  139.9594  144.6568  150.8094 LP  0  0  0  0  0  0  0  0  0  0  0  0  # atno 17342 bound_to 10162
  140.7595  143.3131  151.2796 LP  0  0  0  0  0  0  0  0  0  0  0  0  # atno 17343 bound_to 10162
  156.3631  130.7492  151.2466 LP  0  0  0  0  0  0  0  0  0  0  0  0  # atno 17370 bound_to 10713
  157.7492  131.0344  150.4317 LP  0  0  0  0  0  0  0  0  0  0  0  0  # atno 17371 bound_to 10713
  140.1410  134.9293  157.2467 LP  0  0  0  0  0  0  0  0  0  0  0  0  # atno 17394 bound_to 11000
  140.2836  134.3321  155.7335 LP  0  0  0  0  0  0  0  0  0  0  0  0  # atno 17395 bound_to 11000

$$$$
