AV-unprocessed.smi:3287|AV-procd|sdf|12593|dock9
  -GOLD-   2272018513D 1   1.00000     0.00000
 Structure written by MMmdl.
 43 44  0  0  0  0  0  0  0  0  2 V2000
  150.9389  141.9608  156.7827 C   0  0  0  0  0  0  0  0  0  0  0  0
  150.3365  141.2302  155.5714 C   0  0  1  0  0  0  0  0  0  0  0  0
  150.7375  139.7425  155.5414 C   0  0  0  0  0  0  0  0  0  0  0  0
  150.2031  139.0382  154.2837 C   0  0  0  0  0  0  0  0  0  0  0  0
  148.6748  139.1958  154.1438 C   0  0  2  0  0  0  0  0  0  0  0  0
  148.1796  138.5879  152.8891 N   0  3  0  0  0  0  0  0  0  0  0  0
  146.7109  138.4479  152.7889 C   0  0  0  0  0  0  0  0  0  0  0  0
  146.3193  137.3258  151.8116 C   0  0  2  0  0  0  0  0  0  0  0  0
  146.2776  137.8544  150.5000 O   0  0  0  0  0  0  0  0  0  0  0  0
  144.9939  136.6942  152.2059 C   0  0  0  0  0  0  0  0  0  0  0  0
  144.4682  135.6139  151.4665 C   0  0  0  0  0  0  0  0  0  0  0  0
  143.2403  135.0538  151.8724 C   0  0  0  0  0  0  0  0  0  0  0  0
  142.5390  135.4976  152.9374 N   0  0  0  0  0  0  0  0  0  0  0  0
  143.0469  136.5303  153.6431 C   0  0  0  0  0  0  0  0  0  0  0  0
  144.2658  137.1607  153.3221 C   0  0  0  0  0  0  0  0  0  0  0  0
  148.2865  140.6874  154.1830 C   0  0  0  0  0  0  0  0  0  0  0  0
  148.8017  141.4075  155.4472 C   0  0  1  0  0  0  0  0  0  0  0  0
  148.0122  140.9899  156.7046 C   0  0  0  0  0  0  0  0  0  0  0  0
  150.6270  141.5091  157.7244 H   0  0  0  0  0  0  0  0  0  0  0  0
  150.6418  143.0097  156.7981 H   0  0  0  0  0  0  0  0  0  0  0  0
  152.0284  141.9295  156.7530 H   0  0  0  0  0  0  0  0  0  0  0  0
  150.7782  141.6940  154.6879 H   0  0  0  0  0  0  0  0  0  0  0  0
  151.8240  139.6524  155.5691 H   0  0  0  0  0  0  0  0  0  0  0  0
  150.3697  139.2344  156.4331 H   0  0  0  0  0  0  0  0  0  0  0  0
  150.6968  139.4526  153.4036 H   0  0  0  0  0  0  0  0  0  0  0  0
  150.4805  137.9851  154.3254 H   0  0  0  0  0  0  0  0  0  0  0  0
  148.1840  138.6906  154.9766 H   0  0  0  0  0  0  0  0  0  0  0  0
  148.4694  139.1818  152.1248 H   0  0  0  0  0  0  0  0  0  0  0  0
  146.3056  138.2223  153.7754 H   0  0  0  0  0  0  0  0  0  0  0  0
  146.2732  139.3957  152.4719 H   0  0  0  0  0  0  0  0  0  0  0  0
  147.0879  136.5516  151.8261 H   0  0  0  0  0  0  0  0  0  0  0  0
  145.4483  138.2926  150.3801 H   0  0  0  0  0  0  0  0  0  0  0  0
  144.9892  135.2187  150.6068 H   0  0  0  0  0  0  0  0  0  0  0  0
  142.8113  134.2255  151.3279 H   0  0  0  0  0  0  0  0  0  0  0  0
  142.4662  136.8633  154.4905 H   0  0  0  0  0  0  0  0  0  0  0  0
  144.6292  137.9818  153.9225 H   0  0  0  0  0  0  0  0  0  0  0  0
  148.6942  141.1871  153.3027 H   0  0  0  0  0  0  0  0  0  0  0  0
  147.2031  140.7938  154.1122 H   0  0  0  0  0  0  0  0  0  0  0  0
  148.6074  142.4716  155.3052 H   0  0  0  0  0  0  0  0  0  0  0  0
  148.1948  139.9521  156.9817 H   0  0  0  0  0  0  0  0  0  0  0  0
  146.9395  141.1020  156.5451 H   0  0  0  0  0  0  0  0  0  0  0  0
  148.2705  141.6108  157.5621 H   0  0  0  0  0  0  0  0  0  0  0  0
  148.6111  137.6826  152.7697 H   0  0  0  0  0  0  0  0  0  0  0  0
  1  2  1  0  0  0  0
  1 19  1  0  0  0  0
  1 20  1  0  0  0  0
  1 21  1  0  0  0  0
  2 17  1  0  0  0  0
  2  3  1  0  0  0  0
  2 22  1  0  0  0  0
  3  4  1  0  0  0  0
  3 23  1  0  0  0  0
  3 24  1  0  0  0  0
  4  5  1  0  0  0  0
  4 25  1  0  0  0  0
  4 26  1  0  0  0  0
  5  6  1  0  0  0  0
  5 16  1  0  0  0  0
  5 27  1  0  0  0  0
  6  7  1  0  0  0  0
  6 28  1  0  0  0  0
  6 43  1  0  0  0  0
  7  8  1  0  0  0  0
  7 29  1  0  0  0  0
  7 30  1  0  0  0  0
  8  9  1  0  0  0  0
  8 10  1  0  0  0  0
  8 31  1  0  0  0  0
  9 32  1  0  0  0  0
 10 15  1  0  0  0  0
 10 11  2  0  0  0  0
 11 12  1  0  0  0  0
 11 33  1  0  0  0  0
 12 13  2  0  0  0  0
 12 34  1  0  0  0  0
 13 14  1  0  0  0  0
 14 15  2  0  0  0  0
 14 35  1  0  0  0  0
 15 36  1  0  0  0  0
 16 17  1  0  0  0  0
 16 37  1  0  0  0  0
 16 38  1  0  0  0  0
 17 18  1  0  0  0  0
 17 39  1  0  0  0  0
 18 40  1  0  0  0  0
 18 41  1  0  0  0  0
 18 42  1  0  0  0  0
M  CHG  1   6   1
M  END
> <s_m_source_file>
AV-unprocessed.smi

> <i_m_source_file_index>
3287

> <i_lp_mmshare_version>
43012

> <i_f3d_flags>
0

> <s_epik_input>
W0NIM11bQ0BASF0xW0NIMl1bQ0gyXVtDQEhdKFtDSDJdW0NASF0xW0NIM10pW05IXVtDSDJdW0NASF0oW09IXSljMltjSF1bY0hdbltjSF1bY0hdMg==

> <s_epik_cmdline>
J2VwaWtfcHl0aG9uJywgJy1waCcsICc3LjAnLCAnLXRuJywgJzgnLCAnLW1hJywgJzIwMCcsICctbWV0YWxfYmluZGluZycsICctaW1hZScsICc8aW5maWxlLm1hZT4nLCAnLW9tYWUnLCAnPG91dGZpbGUubWFlPic=

> <r_lp_tautomer_probability>
1

> <r_epik_Ionization_Penalty>
0.00537262

> <r_epik_Ionization_Penalty_Charging>
0.00321624

> <r_epik_Ionization_Penalty_Neutral>
0.00215638

> <r_epik_State_Penalty>
-0

> <r_epik_Charging_Adjusted_Penalty>
0.00321624

> <i_epik_Tot_Q>
1

> <i_epik_Tot_abs_Q>
1

> <r_epik_Metal_State_Penalty>
-0

> <b_epik_Metal_Only>
0

> <s_lp_Force_Field>
OPLS_2005

> <r_lp_Energy>
18.3798

> <b_lp_Chiralities_Consistent>
1

> <s_lp_Variant>
AV-unprocessed.smi:3287-4

> <Gold.Version>
5.8.1

> <Gold.Id.Protein>
6NUR|6NUR_protein|mol2

> <Gold.PLP.Fitness>
49.3601

> <Gold.PLP.PLP>
-33.2560

> <Gold.PLP.part.hbond>
-4.0000

> <Gold.PLP.part.metal>
0.0000

> <Gold.PLP.part.buried>
-2.5671

> <Gold.PLP.part.nonpolar>
-28.8073

> <Gold.PLP.part.repulsive>
0.2408

> <Gold.PLP.ligand.clash>
0.0000

> <Gold.PLP.ligand.torsion>
0.5230

> <Gold.PLP.Chemscore.Hbond>
4.8960

> <Gold.PLP.Chemscore.CHOScore>
0.8142

> <Gold.PLP.Chemscore.Metal>
0.0000

> <Gold.Chemscore.Hbonds>
donor molecule, donor type, donor heavy atom, donor atom, acceptor molecule, acceptor atom, score
      L1  H     6    28       P1  7957  1.00
      L1  H     6    43       P1  7948  2.00
      L1  H     9    32       P1 10171  1.00
      P1  H  7954  7966       L1     9  0.90
      L1  C    12    34       P1 10186  0.81

> <Gold.PLP.Chemscore.Internal.Correction>
0.0196

> <Gold.Rescore>
     Score         DG    S(hbond)    S(metal)    S(lipo)     H(rot)  DE(clash)    DE(int)     intcor
     21.76     -23.64       3.79        0.00      88.83       1.90       1.45       0.43       ----

> <Gold.Chemscore.Fitness>
21.7558

> <Gold.Chemscore.DG>
-23.6418

> <Gold.Chemscore.ZeroCoef>
-5.4800

> <Gold.Chemscore.Hbond>
3.7851

> <Gold.Chemscore.Metal>
0.0000

> <Gold.Chemscore.Lipo>
88.8257

> <Gold.Chemscore.Internal_Hbond>
0.0000

> <Gold.Chemscore.DEClash>
1.4546

> <Gold.Chemscore.DEInternal>
0.4314

> <Gold.Chemscore.Rot>
1.9035

> <Gold.Chemscore.Internal.Correction>
   9.000000E+99

> <Gold.Chemscore.Hbonds>
donor molecule, donor type, donor heavy atom, donor atom, acceptor molecule, acceptor atom, score
      L1  H     6    28       P1  7957  0.98
      L1  H     6    43       P1  7948  0.97
      L1  H     9    32       P1 10171  0.99
      P1  H  7954  7966       L1     9  0.48

> <Gold.Chemscore.Hbond.Weighted>
-12.6421

> <Gold.Chemscore.Metal.Weighted>
-0.0000

> <Gold.Chemscore.Lipo.Weighted>
-10.3926

> <Gold.Chemscore.Internal_Hbond.Weighted>
0.0000

> <Gold.Chemscore.DEClash.Weighted>
1.4546

> <Gold.Chemscore.DEInternal.Weighted>
0.4314

> <Gold.Chemscore.Rot.Weighted>
4.8729

> <Gold.Chemscore.Internal.Correction.Weighted>
   9.000000E+99

> <Gold.Protein.RotatedTorsions>
[ 6907 6896 6895 6894 ] final   70.67 input  -60.11 | X-H torsion
[ 7974 7965 7964 7962 ] final -119.79 input  175.53 | X-H torsion
[ 8008 7997 7996 7995 ] final  103.45 input   59.86 | X-H torsion
[ 10167 10162 10161 10158 ] final -152.48 input  -65.29 | X-H torsion
[ 10718 10713 10712 10709 ] final -148.86 input   66.30 | X-H torsion
[ 10763 10752 10751 10750 ] final  -15.55 input  -60.55 | X-H torsion
[ 11005 11000 10999 10996 ] final  149.61 input  -57.11 | X-H torsion

> <Gold.Protein.ActiveResidues>
 VAL166  LYS551  ARG553  GLY616  TRP617  ASP618  TYR619  PRO620  LYS621  CYS622 
 ASP623  PHE694  ASN695  SER759  ASP760  ASP761  ALA762  ILE779  LEU786  VAL792 
 PHE793  MET794  SER795  GLU796  ALA797  LYS798  CYS799  TRP800  GLU811  SER814 

> <Gold.Protein.RotatedAtoms>
  152.4763  134.4834  159.9672 H   0  0  0  0  0  0  0  0  0  0  0  0  # atno 6907 bound_to 6896
  151.4849  133.3532  159.2852 H   0  0  0  0  0  0  0  0  0  0  0  0  # atno 6908 bound_to 6896
  150.8805  134.8221  159.7282 H   0  0  0  0  0  0  0  0  0  0  0  0  # atno 6909 bound_to 6896
  145.0586  140.8273  143.4166 H   0  0  0  0  0  0  0  0  0  0  0  0  # atno 7974 bound_to 7965
  156.1485  140.3164  155.8610 H   0  0  0  0  0  0  0  0  0  0  0  0  # atno 8008 bound_to 7997
  155.4017  140.0500  157.3053 H   0  0  0  0  0  0  0  0  0  0  0  0  # atno 8009 bound_to 7997
  154.5038  140.2139  155.9305 H   0  0  0  0  0  0  0  0  0  0  0  0  # atno 8010 bound_to 7997
  139.7178  143.9005  152.2492 H   0  0  0  0  0  0  0  0  0  0  0  0  # atno 10167 bound_to 10162
  156.4257  130.8051  151.2275 H   0  0  0  0  0  0  0  0  0  0  0  0  # atno 10718 bound_to 10713
  153.5451  135.7012  153.5618 H   0  0  0  0  0  0  0  0  0  0  0  0  # atno 10763 bound_to 10752
  153.3566  135.3981  155.1687 H   0  0  0  0  0  0  0  0  0  0  0  0  # atno 10764 bound_to 10752
  154.8668  135.3778  154.4958 H   0  0  0  0  0  0  0  0  0  0  0  0  # atno 10765 bound_to 10752
  140.1060  134.8954  157.1866 H   0  0  0  0  0  0  0  0  0  0  0  0  # atno 11005 bound_to 11000
  145.1437  139.2557  143.5477 LP  0  0  0  0  0  0  0  0  0  0  0  0  # atno 17320 bound_to 7965
  146.3523  140.1121  142.8603 LP  0  0  0  0  0  0  0  0  0  0  0  0  # atno 17321 bound_to 7965
  139.8893  144.6974  150.8789 LP  0  0  0  0  0  0  0  0  0  0  0  0  # atno 17342 bound_to 10162
  140.7747  143.3599  151.1848 LP  0  0  0  0  0  0  0  0  0  0  0  0  # atno 17343 bound_to 10162
  157.7508  131.0214  150.3749 LP  0  0  0  0  0  0  0  0  0  0  0  0  # atno 17370 bound_to 10713
  156.4075  130.3928  149.6915 LP  0  0  0  0  0  0  0  0  0  0  0  0  # atno 17371 bound_to 10713
  140.3156  134.2975  155.7257 LP  0  0  0  0  0  0  0  0  0  0  0  0  # atno 17394 bound_to 11000
  141.2118  133.7677  156.9838 LP  0  0  0  0  0  0  0  0  0  0  0  0  # atno 17395 bound_to 11000

$$$$
