AV-unprocessed.smi:1587|AV-procd|sdf|6387|dock4
  -GOLD-   22720 7 23D 1   1.00000     0.00000
 Structure written by MMmdl.
 36 37  0  0  0  0  0  0  0  0  1 V2000
  144.4975  136.1165  153.0084 O   0  0  0  0  0  0  0  0  0  0  0  0
  145.6246  136.1777  152.5164 C   0  0  0  0  0  0  0  0  0  0  0  0
  146.4421  137.2292  152.6732 N   0  0  0  0  0  0  0  0  0  0  0  0
  146.1248  138.4281  153.4396 C   0  0  0  0  0  0  0  0  0  0  0  0
  147.1249  139.5629  153.1483 C   0  0  0  0  0  0  0  0  0  0  0  0
  148.1159  139.7943  154.1974 N   0  0  0  0  0  0  0  0  0  0  0  0
  149.2374  138.8598  154.1279 C   0  0  0  0  0  0  0  0  0  0  0  0
  150.2865  139.1382  155.2189 C   0  0  0  0  0  0  0  0  0  0  0  0
  150.7380  140.4849  155.1191 O   0  0  0  0  0  0  0  0  0  0  0  0
  149.6772  141.4276  155.2326 C   0  0  0  0  0  0  0  0  0  0  0  0
  148.6316  141.1581  154.1368 C   0  0  0  0  0  0  0  0  0  0  0  0
  146.1989  135.2219  151.7646 N   0  0  0  0  0  0  0  0  0  0  0  0
  145.6529  133.9730  151.3643 C   0  0  0  0  0  0  0  0  0  0  0  0
  144.2412  133.9047  151.3782 C   0  0  0  0  0  0  0  0  0  0  0  0
  143.6015  132.7083  151.0000 C   0  0  0  0  0  0  0  0  0  0  0  0
  144.3907  131.6091  150.6173 C   0  0  0  0  0  0  0  0  0  0  0  0
  145.7895  131.7605  150.6321 C   0  0  0  0  0  0  0  0  0  0  0  0
  146.4048  132.9061  150.9943 N   0  0  0  0  0  0  0  0  0  0  0  0
  147.3502  137.1978  152.2339 H   0  0  0  0  0  0  0  0  0  0  0  0
  145.1053  138.7517  153.2227 H   0  0  0  0  0  0  0  0  0  0  0  0
  146.1478  138.1525  154.4933 H   0  0  0  0  0  0  0  0  0  0  0  0
  147.6302  139.3712  152.2004 H   0  0  0  0  0  0  0  0  0  0  0  0
  146.5552  140.4818  153.0016 H   0  0  0  0  0  0  0  0  0  0  0  0
  148.8853  137.8350  154.2403 H   0  0  0  0  0  0  0  0  0  0  0  0
  149.7119  138.9228  153.1474 H   0  0  0  0  0  0  0  0  0  0  0  0
  149.8677  138.9608  156.2106 H   0  0  0  0  0  0  0  0  0  0  0  0
  151.1383  138.4673  155.1060 H   0  0  0  0  0  0  0  0  0  0  0  0
  149.2249  141.3607  156.2234 H   0  0  0  0  0  0  0  0  0  0  0  0
  150.0823  142.4344  155.1323 H   0  0  0  0  0  0  0  0  0  0  0  0
  149.0800  141.3412  153.1590 H   0  0  0  0  0  0  0  0  0  0  0  0
  147.8116  141.8696  154.2411 H   0  0  0  0  0  0  0  0  0  0  0  0
  147.1354  135.4099  151.4390 H   0  0  0  0  0  0  0  0  0  0  0  0
  143.6495  134.7589  151.6744 H   0  0  0  0  0  0  0  0  0  0  0  0
  142.5240  132.6359  151.0036 H   0  0  0  0  0  0  0  0  0  0  0  0
  143.9371  130.6750  150.3205 H   0  0  0  0  0  0  0  0  0  0  0  0
  146.4316  130.9405  150.3463 H   0  0  0  0  0  0  0  0  0  0  0  0
  1  2  2  0  0  0  0
  2  3  1  0  0  0  0
  2 12  1  0  0  0  0
  3  4  1  0  0  0  0
  3 19  1  0  0  0  0
  4  5  1  0  0  0  0
  4 20  1  0  0  0  0
  4 21  1  0  0  0  0
  5  6  1  0  0  0  0
  5 22  1  0  0  0  0
  5 23  1  0  0  0  0
  6 11  1  0  0  0  0
  6  7  1  0  0  0  0
  7  8  1  0  0  0  0
  7 24  1  0  0  0  0
  7 25  1  0  0  0  0
  8  9  1  0  0  0  0
  8 26  1  0  0  0  0
  8 27  1  0  0  0  0
  9 10  1  0  0  0  0
 10 11  1  0  0  0  0
 10 28  1  0  0  0  0
 10 29  1  0  0  0  0
 11 30  1  0  0  0  0
 11 31  1  0  0  0  0
 12 13  1  0  0  0  0
 12 32  1  0  0  0  0
 13 18  1  0  0  0  0
 13 14  2  0  0  0  0
 14 15  1  0  0  0  0
 14 33  1  0  0  0  0
 15 16  2  0  0  0  0
 15 34  1  0  0  0  0
 16 17  1  0  0  0  0
 16 35  1  0  0  0  0
 17 18  2  0  0  0  0
 17 36  1  0  0  0  0
M  END
> <s_m_source_file>
AV-unprocessed.smi

> <i_m_source_file_index>
1587

> <i_lp_mmshare_version>
43012

> <i_f3d_flags>
0

> <s_epik_input>
bjFbY0hdW2NIXVtjSF1bY0hdYzFbTkhdQyg9TylbTkhdW0NIMl1bQ0gyXU4yW0NIMl1bQ0gyXU9bQ0gyXVtDSDJdMg==

> <s_epik_cmdline>
J2VwaWtfcHl0aG9uJywgJy1waCcsICc3LjAnLCAnLXRuJywgJzgnLCAnLW1hJywgJzIwMCcsICctbWV0YWxfYmluZGluZycsICctaW1hZScsICc8aW5maWxlLm1hZT4nLCAnLW9tYWUnLCAnPG91dGZpbGUubWFlPic=

> <r_epik_Ionization_Penalty>
0.266037

> <r_epik_Ionization_Penalty_Charging>
0

> <r_epik_Ionization_Penalty_Neutral>
0.266037

> <r_epik_State_Penalty>
0.257924

> <r_epik_Charging_Adjusted_Penalty>
0.257924

> <i_epik_Tot_Q>
0

> <i_epik_Tot_abs_Q>
0

> <r_epik_Metal_State_Penalty>
0.257923

> <b_epik_Metal_Only>
0

> <s_lp_Force_Field>
OPLS_2005

> <r_lp_Energy>
22.0776

> <b_lp_Chiralities_Consistent>
1

> <s_lp_Variant>
AV-unprocessed.smi:1587-1

> <Gold.Version>
5.8.1

> <Gold.Id.Protein>
6NUR|6NUR_protein|mol2

> <Gold.PLP.Fitness>
42.5858

> <Gold.PLP.PLP>
-32.2147

> <Gold.PLP.part.hbond>
-3.0000

> <Gold.PLP.part.metal>
0.0000

> <Gold.PLP.part.buried>
-4.8300

> <Gold.PLP.part.nonpolar>
-25.4279

> <Gold.PLP.part.repulsive>
0.5371

> <Gold.PLP.ligand.clash>
0.0000

> <Gold.PLP.ligand.torsion>
0.7311

> <Gold.PLP.Chemscore.Hbond>
2.9600

> <Gold.PLP.Chemscore.CHOScore>
0.9745

> <Gold.PLP.Chemscore.Metal>
0.0000

> <Gold.Chemscore.Hbonds>
donor molecule, donor type, donor heavy atom, donor atom, acceptor molecule, acceptor atom, score
      L1  H     3    19       P1  7948  0.99
      L1  H    12    32       P1  7948  0.98
      P1  H  7989  7998       L1     9  1.00
      L1  C    17    36       P1 10747  0.98

> <Gold.PLP.Chemscore.Internal.Correction>
0.0297

> <Gold.Rescore>
     Score         DG    S(hbond)    S(metal)    S(lipo)     H(rot)  DE(clash)    DE(int)     intcor
     16.67     -19.02       2.52        0.00      77.74       1.55       0.13       2.23       ----

> <Gold.Chemscore.Fitness>
16.6671

> <Gold.Chemscore.DG>
-19.0190

> <Gold.Chemscore.ZeroCoef>
-5.4800

> <Gold.Chemscore.Hbond>
2.5173

> <Gold.Chemscore.Metal>
0.0000

> <Gold.Chemscore.Lipo>
77.7369

> <Gold.Chemscore.Internal_Hbond>
0.0000

> <Gold.Chemscore.DEClash>
0.1259

> <Gold.Chemscore.DEInternal>
2.2259

> <Gold.Chemscore.Rot>
1.5484

> <Gold.Chemscore.Internal.Correction>
   9.000000E+99

> <Gold.Chemscore.Hbonds>
donor molecule, donor type, donor heavy atom, donor atom, acceptor molecule, acceptor atom, score
      L1  H     3    19       P1  7948  0.94
      L1  H    12    32       P1  7948  0.85
      P1  H  7989  7998       L1     9  0.46

> <Gold.Chemscore.Hbond.Weighted>
-8.4077

> <Gold.Chemscore.Metal.Weighted>
-0.0000

> <Gold.Chemscore.Lipo.Weighted>
-9.0952

> <Gold.Chemscore.Internal_Hbond.Weighted>
0.0000

> <Gold.Chemscore.DEClash.Weighted>
0.1259

> <Gold.Chemscore.DEInternal.Weighted>
2.2259

> <Gold.Chemscore.Rot.Weighted>
3.9639

> <Gold.Chemscore.Internal.Correction.Weighted>
   9.000000E+99

> <Gold.Protein.RotatedTorsions>
[ 6907 6896 6895 6894 ] final  147.31 input  -60.11 | X-H torsion
[ 7974 7965 7964 7962 ] final -167.31 input  175.53 | X-H torsion
[ 8008 7997 7996 7995 ] final   46.00 input   59.86 | X-H torsion
[ 10167 10162 10161 10158 ] final  161.87 input  -65.29 | X-H torsion
[ 10718 10713 10712 10709 ] final    2.33 input   66.30 | X-H torsion
[ 10763 10752 10751 10750 ] final -165.57 input  -60.55 | X-H torsion
[ 11005 11000 10999 10996 ] final  -52.31 input  -57.11 | X-H torsion

> <Gold.Protein.ActiveResidues>
 VAL166  LYS551  ARG553  GLY616  TRP617  ASP618  TYR619  PRO620  LYS621  CYS622 
 ASP623  PHE694  ASN695  SER759  ASP760  ASP761  ALA762  ILE779  LEU786  VAL792 
 PHE793  MET794  SER795  GLU796  ALA797  LYS798  CYS799  TRP800  GLU811  SER814 

> <Gold.Protein.RotatedAtoms>
  152.1564  133.4554  159.4838 H   0  0  0  0  0  0  0  0  0  0  0  0  # atno 6907 bound_to 6896
  150.6901  134.2125  159.4374 H   0  0  0  0  0  0  0  0  0  0  0  0  # atno 6908 bound_to 6896
  152.0025  134.9920  160.0616 H   0  0  0  0  0  0  0  0  0  0  0  0  # atno 6909 bound_to 6896
  144.7226  140.2537  143.6275 H   0  0  0  0  0  0  0  0  0  0  0  0  # atno 7974 bound_to 7965
  155.3452  140.3410  155.4239 H   0  0  0  0  0  0  0  0  0  0  0  0  # atno 8008 bound_to 7997
  156.1792  140.1658  156.8341 H   0  0  0  0  0  0  0  0  0  0  0  0  # atno 8009 bound_to 7997
  154.5315  140.0744  156.8336 H   0  0  0  0  0  0  0  0  0  0  0  0  # atno 8010 bound_to 7997
  139.4854  144.4494  151.8849 H   0  0  0  0  0  0  0  0  0  0  0  0  # atno 10167 bound_to 10162
  156.8614  130.5588  149.5662 H   0  0  0  0  0  0  0  0  0  0  0  0  # atno 10718 bound_to 10713
  154.6918  135.2972  154.9468 H   0  0  0  0  0  0  0  0  0  0  0  0  # atno 10763 bound_to 10752
  154.0428  135.6655  153.4796 H   0  0  0  0  0  0  0  0  0  0  0  0  # atno 10764 bound_to 10752
  153.0618  135.5111  154.8015 H   0  0  0  0  0  0  0  0  0  0  0  0  # atno 10765 bound_to 10752
  141.0917  133.6631  156.4005 H   0  0  0  0  0  0  0  0  0  0  0  0  # atno 11005 bound_to 11000
  145.8203  139.2041  143.1942 LP  0  0  0  0  0  0  0  0  0  0  0  0  # atno 17320 bound_to 7965
  146.0520  140.8060  142.9777 LP  0  0  0  0  0  0  0  0  0  0  0  0  # atno 17321 bound_to 7965
  140.3950  144.2567  150.5897 LP  0  0  0  0  0  0  0  0  0  0  0  0  # atno 17342 bound_to 10162
  140.5110  143.2290  151.8534 LP  0  0  0  0  0  0  0  0  0  0  0  0  # atno 17343 bound_to 10162
  156.0775  130.5793  150.9500 LP  0  0  0  0  0  0  0  0  0  0  0  0  # atno 17370 bound_to 10713
  157.6248  131.0926  150.8555 LP  0  0  0  0  0  0  0  0  0  0  0  0  # atno 17371 bound_to 10713
  140.5236  134.6281  157.5326 LP  0  0  0  0  0  0  0  0  0  0  0  0  # atno 17394 bound_to 11000
  139.9745  134.7239  155.9977 LP  0  0  0  0  0  0  0  0  0  0  0  0  # atno 17395 bound_to 11000

$$$$
