AV-unprocessed.smi:809|AV-procd|sdf|3806|dock3
  -GOLD-   22720 1243D 1   1.00000     0.00000
 Structure written by MMmdl.
 40 41  0  0  0  0  0  0  0  0  2 V2000
  150.1809  141.1750  156.2918 C   0  0  0  0  0  0  0  0  0  0  0  0
  149.0996  140.7341  155.3563 C   0  0  0  0  0  0  0  0  0  0  0  0
  148.2198  141.5369  154.6719 C   0  0  0  0  0  0  0  0  0  0  0  0
  147.1194  140.6100  153.6870 S   0  0  0  0  0  0  0  0  0  0  0  0
  147.9077  139.1459  154.2533 C   0  0  0  0  0  0  0  0  0  0  0  0
  147.4990  137.8566  153.8221 N   0  0  0  0  0  0  0  0  0  0  0  0
  146.3010  137.2691  153.9857 C   0  0  0  0  0  0  0  0  0  0  0  0
  145.3281  137.7812  154.5403 O   0  0  0  0  0  0  0  0  0  0  0  0
  146.2927  136.0310  153.4707 N   0  0  0  0  0  0  0  0  0  0  0  0
  145.1600  135.1067  153.4856 C   0  0  0  0  0  0  0  0  0  0  0  0
  143.9957  135.5570  152.5632 C   0  0  1  0  0  0  0  0  0  0  0  0
  143.4576  136.7308  153.1423 O   0  0  0  0  0  0  0  0  0  0  0  0
  144.3964  135.8728  151.1031 C   0  0  0  0  0  0  0  0  0  0  0  0
  144.7402  134.5984  150.3117 C   0  0  0  0  0  0  0  0  0  0  0  0
  143.6077  133.6404  150.3299 N   0  3  1  0  0  0  0  0  0  0  0  0
  143.8590  132.4566  149.4801 C   0  0  0  0  0  0  0  0  0  0  0  0
  143.2105  133.2693  151.7107 C   0  0  0  0  0  0  0  0  0  0  0  0
  142.8547  134.5163  152.5432 C   0  0  0  0  0  0  0  0  0  0  0  0
  148.9114  139.3713  155.1090 N   0  0  0  0  0  0  0  0  0  0  0  0
  150.3061  142.2579  156.2743 H   0  0  0  0  0  0  0  0  0  0  0  0
  151.1394  140.7289  156.0255 H   0  0  0  0  0  0  0  0  0  0  0  0
  149.9545  140.8855  157.3181 H   0  0  0  0  0  0  0  0  0  0  0  0
  148.1532  142.6146  154.6869 H   0  0  0  0  0  0  0  0  0  0  0  0
  148.2034  137.3168  153.3410 H   0  0  0  0  0  0  0  0  0  0  0  0
  147.1390  135.6939  153.0350 H   0  0  0  0  0  0  0  0  0  0  0  0
  145.4981  134.1068  153.2140 H   0  0  0  0  0  0  0  0  0  0  0  0
  144.8095  135.0202  154.5151 H   0  0  0  0  0  0  0  0  0  0  0  0
  142.5157  136.6573  153.1607 H   0  0  0  0  0  0  0  0  0  0  0  0
  143.5668  136.3732  150.6010 H   0  0  0  0  0  0  0  0  0  0  0  0
  145.2275  136.5769  151.0619 H   0  0  0  0  0  0  0  0  0  0  0  0
  144.9722  134.8667  149.2803 H   0  0  0  0  0  0  0  0  0  0  0  0
  145.6298  134.1185  150.7190 H   0  0  0  0  0  0  0  0  0  0  0  0
  144.6999  131.8738  149.8587 H   0  0  0  0  0  0  0  0  0  0  0  0
  144.0845  132.7574  148.4564 H   0  0  0  0  0  0  0  0  0  0  0  0
  142.9808  131.8108  149.4504 H   0  0  0  0  0  0  0  0  0  0  0  0
  142.3463  132.6051  151.6708 H   0  0  0  0  0  0  0  0  0  0  0  0
  144.0136  132.7038  152.1843 H   0  0  0  0  0  0  0  0  0  0  0  0
  142.5914  134.2206  153.5597 H   0  0  0  0  0  0  0  0  0  0  0  0
  141.9558  134.9660  152.1179 H   0  0  0  0  0  0  0  0  0  0  0  0
  142.8186  134.1217  149.9228 H   0  0  0  0  0  0  0  0  0  0  0  0
  1  2  1  0  0  0  0
  1 20  1  0  0  0  0
  1 21  1  0  0  0  0
  1 22  1  0  0  0  0
  2 19  1  0  0  0  0
  2  3  2  0  0  0  0
  3  4  1  0  0  0  0
  3 23  1  0  0  0  0
  4  5  1  0  0  0  0
  5  6  1  0  0  0  0
  5 19  2  0  0  0  0
  6  7  1  0  0  0  0
  6 24  1  0  0  0  0
  7  8  2  0  0  0  0
  7  9  1  0  0  0  0
  9 10  1  0  0  0  0
  9 25  1  0  0  0  0
 10 11  1  0  0  0  0
 10 26  1  0  0  0  0
 10 27  1  0  0  0  0
 11 18  1  0  0  0  0
 11 12  1  0  0  0  0
 11 13  1  0  0  0  0
 12 28  1  0  0  0  0
 13 14  1  0  0  0  0
 13 29  1  0  0  0  0
 13 30  1  0  0  0  0
 14 15  1  0  0  0  0
 14 31  1  0  0  0  0
 14 32  1  0  0  0  0
 15 16  1  0  0  0  0
 15 17  1  0  0  0  0
 15 40  1  0  0  0  0
 16 33  1  0  0  0  0
 16 34  1  0  0  0  0
 16 35  1  0  0  0  0
 17 18  1  0  0  0  0
 17 36  1  0  0  0  0
 17 37  1  0  0  0  0
 18 38  1  0  0  0  0
 18 39  1  0  0  0  0
M  CHG  1  15   1
M  END
> <s_m_source_file>
AV-unprocessed.smi

> <i_m_source_file_index>
809

> <i_lp_mmshare_version>
43012

> <i_f3d_flags>
0

> <s_epik_input>
W0NIM11jMVtjSF1zYyhuMSlbTkhdQyg9TylbTkhdW0NIMl1DMihbT0hdKVtDSDJdW0NIMl1OKFtDSDNdKVtDSDJdW0NIMl0y

> <s_epik_cmdline>
J2VwaWtfcHl0aG9uJywgJy1waCcsICc3LjAnLCAnLXRuJywgJzgnLCAnLW1hJywgJzIwMCcsICctbWV0YWxfYmluZGluZycsICctaW1hZScsICc8aW5maWxlLm1hZT4nLCAnLW9tYWUnLCAnPG91dGZpbGUubWFlPic=

> <r_lp_tautomer_probability>
0.999

> <r_epik_Ionization_Penalty>
0.00116503

> <r_epik_Ionization_Penalty_Charging>
0.000767707

> <r_epik_Ionization_Penalty_Neutral>
0.00039732

> <r_epik_State_Penalty>
0.000177984

> <r_epik_Charging_Adjusted_Penalty>
0.00094569

> <i_epik_Tot_Q>
1

> <i_epik_Tot_abs_Q>
1

> <r_epik_Metal_State_Penalty>
0.00775393

> <b_epik_Metal_Only>
0

> <s_lp_Force_Field>
OPLS_2005

> <r_lp_Energy>
16.2661

> <b_lp_Chiralities_Consistent>
1

> <s_lp_Variant>
AV-unprocessed.smi:809-2

> <Gold.Version>
5.8.1

> <Gold.Id.Protein>
6NUR|6NUR_protein|mol2

> <Gold.PLP.Fitness>
45.5617

> <Gold.PLP.PLP>
-31.8688

> <Gold.PLP.part.hbond>
-3.0000

> <Gold.PLP.part.metal>
0.0000

> <Gold.PLP.part.buried>
-0.4335

> <Gold.PLP.part.nonpolar>
-27.4363

> <Gold.PLP.part.repulsive>
0.2649

> <Gold.PLP.ligand.clash>
0.0000

> <Gold.PLP.ligand.torsion>
0.6450

> <Gold.PLP.Chemscore.Hbond>
3.9920

> <Gold.PLP.Chemscore.CHOScore>
1.0000

> <Gold.PLP.Chemscore.Metal>
0.0000

> <Gold.Chemscore.Hbonds>
donor molecule, donor type, donor heavy atom, donor atom, acceptor molecule, acceptor atom, score
      L1  H     6    24       P1  7948  1.00
      L1  H     9    25       P1  7948  0.50
      L1  H    15    40       P1 10186  2.00
      L1  C     3    23       P1  8028  1.00

> <Gold.PLP.Chemscore.Internal.Correction>
0.0068

> <Gold.Rescore>
     Score         DG    S(hbond)    S(metal)    S(lipo)     H(rot)  DE(clash)    DE(int)     intcor
     17.22     -19.03       2.94        0.00      72.26       1.85       0.15       1.66       ----

> <Gold.Chemscore.Fitness>
17.2204

> <Gold.Chemscore.DG>
-19.0293

> <Gold.Chemscore.ZeroCoef>
-5.4800

> <Gold.Chemscore.Hbond>
2.9410

> <Gold.Chemscore.Metal>
0.0000

> <Gold.Chemscore.Lipo>
72.2643

> <Gold.Chemscore.Internal_Hbond>
0.0000

> <Gold.Chemscore.DEClash>
0.1530

> <Gold.Chemscore.DEInternal>
1.6558

> <Gold.Chemscore.Rot>
1.8471

> <Gold.Chemscore.Internal.Correction>
   9.000000E+99

> <Gold.Chemscore.Hbonds>
donor molecule, donor type, donor heavy atom, donor atom, acceptor molecule, acceptor atom, score
      L1  H     6    24       P1  7948  0.96
      L1  H     9    25       P1  7948  0.49
      L1  H    15    40       P1 10186  0.98

> <Gold.Chemscore.Hbond.Weighted>
-9.8230

> <Gold.Chemscore.Metal.Weighted>
-0.0000

> <Gold.Chemscore.Lipo.Weighted>
-8.4549

> <Gold.Chemscore.Internal_Hbond.Weighted>
0.0000

> <Gold.Chemscore.DEClash.Weighted>
0.1530

> <Gold.Chemscore.DEInternal.Weighted>
1.6558

> <Gold.Chemscore.Rot.Weighted>
4.7286

> <Gold.Chemscore.Internal.Correction.Weighted>
   9.000000E+99

> <Gold.Protein.RotatedTorsions>
[ 6907 6896 6895 6894 ] final   -8.82 input  -60.11 | X-H torsion
[ 7974 7965 7964 7962 ] final  -29.64 input  175.53 | X-H torsion
[ 8008 7997 7996 7995 ] final   28.09 input   59.86 | X-H torsion
[ 10167 10162 10161 10158 ] final    1.55 input  -65.29 | X-H torsion
[ 10718 10713 10712 10709 ] final   67.10 input   66.30 | X-H torsion
[ 10763 10752 10751 10750 ] final -175.36 input  -60.55 | X-H torsion
[ 11005 11000 10999 10996 ] final  -85.43 input  -57.11 | X-H torsion

> <Gold.Protein.ActiveResidues>
 VAL166  LYS551  ARG553  GLY616  TRP617  ASP618  TYR619  PRO620  LYS621  CYS622 
 ASP623  PHE694  ASN695  SER759  ASP760  ASP761  ALA762  ILE779  LEU786  VAL792 
 PHE793  MET794  SER795  GLU796  ALA797  LYS798  CYS799  TRP800  GLU811  SER814 

> <Gold.Protein.RotatedAtoms>
  151.4276  135.1005  159.9632 H   0  0  0  0  0  0  0  0  0  0  0  0  # atno 6907 bound_to 6896
  152.4967  133.8648  159.7279 H   0  0  0  0  0  0  0  0  0  0  0  0  # atno 6908 bound_to 6896
  150.9178  133.6859  159.2867 H   0  0  0  0  0  0  0  0  0  0  0  0  # atno 6909 bound_to 6896
  146.1202  140.5438  142.8739 H   0  0  0  0  0  0  0  0  0  0  0  0  # atno 7974 bound_to 7965
  155.0532  140.3182  155.4685 H   0  0  0  0  0  0  0  0  0  0  0  0  # atno 8008 bound_to 7997
  156.2830  140.2142  156.5602 H   0  0  0  0  0  0  0  0  0  0  0  0  # atno 8009 bound_to 7997
  154.7193  140.0491  157.0612 H   0  0  0  0  0  0  0  0  0  0  0  0  # atno 8010 bound_to 7997
  140.6677  143.7134  150.7860 H   0  0  0  0  0  0  0  0  0  0  0  0  # atno 10167 bound_to 10162
  157.6210  130.9303  150.0198 H   0  0  0  0  0  0  0  0  0  0  0  0  # atno 10718 bound_to 10713
  154.5853  135.2840  155.0691 H   0  0  0  0  0  0  0  0  0  0  0  0  # atno 10763 bound_to 10752
  154.2012  135.6424  153.5091 H   0  0  0  0  0  0  0  0  0  0  0  0  # atno 10764 bound_to 10752
  153.0102  135.5469  154.6520 H   0  0  0  0  0  0  0  0  0  0  0  0  # atno 10765 bound_to 10752
  141.1641  133.7399  156.9014 H   0  0  0  0  0  0  0  0  0  0  0  0  # atno 11005 bound_to 11000
  144.7590  140.5376  143.6749 LP  0  0  0  0  0  0  0  0  0  0  0  0  # atno 17320 bound_to 7965
  145.5483  139.1476  143.3408 LP  0  0  0  0  0  0  0  0  0  0  0  0  # atno 17321 bound_to 7965
  140.0814  143.4965  152.2528 LP  0  0  0  0  0  0  0  0  0  0  0  0  # atno 17342 bound_to 10162
  139.5932  144.7558  151.3349 LP  0  0  0  0  0  0  0  0  0  0  0  0  # atno 17343 bound_to 10162
  156.1355  130.3643  149.9663 LP  0  0  0  0  0  0  0  0  0  0  0  0  # atno 17370 bound_to 10713
  156.7715  130.9188  151.3644 LP  0  0  0  0  0  0  0  0  0  0  0  0  # atno 17371 bound_to 10713
  140.1580  134.9185  157.2678 LP  0  0  0  0  0  0  0  0  0  0  0  0  # atno 17394 bound_to 11000
  140.2645  134.3533  155.7395 LP  0  0  0  0  0  0  0  0  0  0  0  0  # atno 17395 bound_to 11000

$$$$
