#       Name:                AV-unprocessed.smi:1576
#       Creating user name   scv26
#       Creation time:       Fri Mar 27 06:56:37 2020


#       File generated by GOLD software.
#

@<TRIPOS>MOLECULE
AV-unprocessed.smi:1576
    49    51     1
SMALL
NO_CHARGES


@<TRIPOS>ATOM
      1 ****        -2.3430   1.5196  -0.0300 O.2            1 S1                 0.0000
      2 ****        -2.7229   0.3505  -0.0850 C.2            1 S1                 0.0000
      3 ****        -1.9168  -0.7252  -0.0958 N.am           1 S1                 0.0000
      4 ****        -0.4960  -0.7604  -0.0792 C.ar           1 S1                 0.0000
      5 ****         0.1304  -1.9572   0.3314 C.ar           1 S1                 0.0000
      6 ****         1.5377  -2.0404   0.3495 C.ar           1 S1                 0.0000
      7 ****         2.3018  -0.9229  -0.0566 C.ar           1 S1                 0.0000
      8 ****         3.7024  -0.9110  -0.0742 N.3            1 S1                 0.0000
      9 ****         4.2869  -0.9572   1.2637 C.3            1 S1                 0.0000
     10 ****         5.8094  -0.7425   1.2033 C.3            1 S1                 0.0000
     11 ****         6.4677  -1.7417   0.2381 C.3            1 S1                 0.0000
     12 ****         5.7937  -1.6730  -1.1419 C.3            1 S1                 0.0000
     13 ****         4.2725  -1.8673  -1.0197 C.3            1 S1                 0.0000
     14 ****         1.6670   0.2004  -0.4556 N.pl3          1 S1                 1.0000
     15 ****         0.3224   0.3221  -0.4857 C.ar           1 S1                 0.0000
     16 ****        -4.0155  -0.0104  -0.1205 N.am           1 S1                 0.0000
     17 ****        -5.1783   0.8808  -0.0904 C.3            1 S1                 0.0000
     18 ****        -5.2480   1.7551   1.1945 C.3            1 S1                 0.0000
     19 ****        -5.1259   3.2414   0.8382 C.3            1 S1                 0.0000
     20 ****        -5.8740   3.3893  -0.8168 S.o2           1 S1                 0.0000
     21 ****        -7.3377   3.3539  -0.6765 O.2            1 S1                 0.0000
     22 ****        -5.2067   4.4494  -1.5875 O.2            1 S1                 0.0000
     23 ****        -5.3023   1.7448  -1.3680 C.3            1 S1                 0.0000
     24 ****        -2.3748  -1.6243  -0.0615 H              1 S1                 0.0000
     25 ****        -0.4606  -2.8082   0.6377 H              1 S1                 0.0000
     26 ****         2.0200  -2.9522   0.6706 H              1 S1                 0.0000
     27 ****         3.8300  -0.1916   1.8924 H              1 S1                 0.0000
     28 ****         4.0679  -1.9219   1.7237 H              1 S1                 0.0000
     29 ****         6.0219   0.2760   0.8755 H              1 S1                 0.0000
     30 ****         6.2405  -0.8433   2.1996 H              1 S1                 0.0000
     31 ****         7.5341  -1.5329   0.1483 H              1 S1                 0.0000
     32 ****         6.3793  -2.7521   0.6396 H              1 S1                 0.0000
     33 ****         6.0032  -0.7067  -1.6032 H              1 S1                 0.0000
     34 ****         6.2153  -2.4300  -1.8038 H              1 S1                 0.0000
     35 ****         4.0564  -2.8836  -0.6873 H              1 S1                 0.0000
     36 ****         3.8036  -1.7432  -1.9968 H              1 S1                 0.0000
     37 ****        -0.0371   1.2746  -0.8449 H              1 S1                 0.0000
     38 ****        -4.2199  -0.9983  -0.1625 H              1 S1                 0.0000
     39 ****        -6.0438   0.2178  -0.0647 H              1 S1                 0.0000
     40 ****        -6.2219   1.5993   1.6602 H              1 S1                 0.0000
     41 ****        -4.5102   1.4674   1.9444 H              1 S1                 0.0000
     42 ****        -5.6286   3.9007   1.5457 H              1 S1                 0.0000
     43 ****        -4.0794   3.5367   0.7624 H              1 S1                 0.0000
     44 ****        -4.3440   1.8862  -1.8677 H              1 S1                 0.0000
     45 ****        -6.0063   1.3336  -2.0920 H              1 S1                 0.0000
     46 ****         2.2317   0.9964  -0.7532 H              1 S1                 0.0000
     47 ****        -1.3655   1.7263   0.0111 LP             1 S1                 0.0000
     48 ****        -3.0119   2.2631  -0.0263 LP             1 S1                 0.0000
     49 ****         3.9715  -0.0182  -0.4354 LP             1 S1                 0.0000
@<TRIPOS>BOND
    1    1    2 2     
    2    2    3 am    
    3    2   16 am    
    4    3    4 1     
    5    3   24 1     
    6    4   15 ar    
    7    4    5 ar    
    8    5    6 ar    
    9    5   25 1     
   10    6    7 ar    
   11    6   26 1     
   12    7    8 1     
   13    7   14 ar    
   14    8   13 1     
   15    8    9 1     
   16    9   10 1     
   17    9   27 1     
   18    9   28 1     
   19   10   11 1     
   20   10   29 1     
   21   10   30 1     
   22   11   12 1     
   23   11   31 1     
   24   11   32 1     
   25   12   13 1     
   26   12   33 1     
   27   12   34 1     
   28   13   35 1     
   29   13   36 1     
   30   14   15 ar    
   31   14   46 1     
   32   15   37 1     
   33   16   17 1     
   34   16   38 1     
   35   17   23 1     
   36   17   18 1     
   37   17   39 1     
   38   18   19 1     
   39   18   40 1     
   40   18   41 1     
   41   19   20 1     
   42   19   42 1     
   43   19   43 1     
   44   20   21 2     
   45   20   22 2     
   46   20   23 1     
   47   23   44 1     
   48   23   45 1     
   49    1   47 1     
   50    1   48 1     
   51    8   49 1     
@<TRIPOS>SUBSTRUCTURE
      1 S1             1
@<TRIPOS>SET
LONE_PAIRS      STATIC     ATOMS    <user>   **** ""
5 47 48 49 21 22
DONOR_HYDROGENS      STATIC     ATOMS    <user>   **** ""
3 24 46 38
ATOM$BLUE        STATIC     ATOMS    COLORGROUP SYSTEM
5 47 48 49 21 22
ATOM$RED        STATIC     ATOMS    COLORGROUP SYSTEM
3 24 46 38
