#       Name:                AV-unprocessed.smi:312
#       Creating user name   scv26
#       Creation time:       Thu Mar 26 22:20:46 2020


#       File generated by GOLD software.
#

@<TRIPOS>MOLECULE
AV-unprocessed.smi:312
    38    39     1
SMALL
NO_CHARGES


@<TRIPOS>ATOM
      1 ****        -0.4190  -3.1685  -1.9019 C.3            1 S1                 0.0000
      2 ****         0.1002  -2.2629  -0.7771 C.3            1 S1                 0.0000
      3 ****         1.6370  -2.3413  -0.6570 C.3            1 S1                 0.0000
      4 ****         2.1502  -1.5968   0.4786 N.pl3          1 S1                 0.0000
      5 ****         2.8047  -0.3718   0.4519 C.2            1 S1                 0.0000
      6 ****         3.0957  -0.0532   1.7589 C.2            1 S1                 0.0000
      7 ****         2.6389  -1.0644   2.6008 N.2            1 S1                 0.0000
      8 ****         2.0919  -1.9440   1.7716 C.2            1 S1                 0.0000
      9 ****        -0.3311  -0.8897  -1.0355 N.am           1 S1                 0.0000
     10 ****        -0.8006  -0.0294  -0.1176 C.2            1 S1                 0.0000
     11 ****        -0.9469  -0.3205   1.0701 O.2            1 S1                 0.0000
     12 ****        -1.1434   1.3822  -0.6196 C.3            1 S1                 0.0000
     13 ****        -0.2539   2.4592   0.0450 C.3            1 S1                 0.0000
     14 ****        -1.1898   3.4036   0.8106 C.3            1 S1                 0.0000
     15 ****        -2.4876   2.6233   0.9990 C.3            1 S1                 0.0000
     16 ****        -2.5907   1.7765  -0.2685 C.3            1 S1                 0.0000
     17 ****        -0.1423  -4.2085  -1.7272 H              1 S1                 0.0000
     18 ****        -0.0119  -2.8744  -2.8700 H              1 S1                 0.0000
     19 ****        -1.5066  -3.1256  -1.9705 H              1 S1                 0.0000
     20 ****        -0.3419  -2.6228   0.1540 H              1 S1                 0.0000
     21 ****         1.9515  -3.3797  -0.5445 H              1 S1                 0.0000
     22 ****         2.1131  -1.9681  -1.5650 H              1 S1                 0.0000
     23 ****         2.9970   0.1603  -0.4682 H              1 S1                 0.0000
     24 ****         3.5953   0.8186   2.1546 H              1 S1                 0.0000
     25 ****         1.6325  -2.8600   2.1131 H              1 S1                 0.0000
     26 ****        -0.2465  -0.5603  -1.9862 H              1 S1                 0.0000
     27 ****        -1.0173   1.4123  -1.7033 H              1 S1                 0.0000
     28 ****         0.4703   2.0206   0.7343 H              1 S1                 0.0000
     29 ****         0.3224   3.0095  -0.6995 H              1 S1                 0.0000
     30 ****        -0.7641   3.7386   1.7569 H              1 S1                 0.0000
     31 ****        -1.3855   4.2900   0.2057 H              1 S1                 0.0000
     32 ****        -2.4083   1.9762   1.8737 H              1 S1                 0.0000
     33 ****        -3.3513   3.2731   1.1417 H              1 S1                 0.0000
     34 ****        -3.0087   2.3780  -1.0767 H              1 S1                 0.0000
     35 ****        -3.2548   0.9213  -0.1322 H              1 S1                 0.0000
     36 ****         2.7073  -1.1156   3.5972 LP             1 S1                 0.0000
     37 ****        -0.7115  -1.2373   1.3929 LP             1 S1                 0.0000
     38 ****        -1.3010   0.3598   1.7117 LP             1 S1                 0.0000
@<TRIPOS>BOND
    1    1    2 1     
    2    1   17 1     
    3    1   18 1     
    4    1   19 1     
    5    2    3 1     
    6    2    9 1     
    7    2   20 1     
    8    3    4 1     
    9    3   21 1     
   10    3   22 1     
   11    4    8 1     
   12    4    5 1     
   13    5    6 2     
   14    5   23 1     
   15    6    7 1     
   16    6   24 1     
   17    7    8 2     
   18    8   25 1     
   19    9   10 am    
   20    9   26 1     
   21   10   11 2     
   22   10   12 1     
   23   12   16 1     
   24   12   13 1     
   25   12   27 1     
   26   13   14 1     
   27   13   28 1     
   28   13   29 1     
   29   14   15 1     
   30   14   30 1     
   31   14   31 1     
   32   15   16 1     
   33   15   32 1     
   34   15   33 1     
   35   16   34 1     
   36   16   35 1     
   37    7   36 1     
   38   11   37 1     
   39   11   38 1     
@<TRIPOS>SUBSTRUCTURE
      1 S1             1
@<TRIPOS>SET
LONE_PAIRS      STATIC     ATOMS    <user>   **** ""
3 36 37 38
DONOR_HYDROGENS      STATIC     ATOMS    <user>   **** ""
1 26
ATOM$BLUE        STATIC     ATOMS    COLORGROUP SYSTEM
3 36 37 38
ATOM$RED        STATIC     ATOMS    COLORGROUP SYSTEM
1 26
