#       Name:                AV-unprocessed.smi:1208
#       Creating user name   scv26
#       Creation time:       Fri Mar 27 04:10:08 2020


#       File generated by GOLD software.
#

@<TRIPOS>MOLECULE
AV-unprocessed.smi:1208
    44    45     1
SMALL
NO_CHARGES


@<TRIPOS>ATOM
      1 ****        -2.0751  -1.5511  -2.0215 C.3            1 S1                 0.0000
      2 ****        -1.5612  -0.8389  -0.7606 C.3            1 S1                 0.0000
      3 ****        -0.1003  -0.8247  -0.7972 N.am           1 S1                 0.0000
      4 ****         0.6841   0.2580  -0.6770 C.2            1 S1                 0.0000
      5 ****         0.2437   1.3982  -0.5200 O.2            1 S1                 0.0000
      6 ****         2.1956  -0.0137  -0.7487 C.3            1 S1                 0.0000
      7 ****         3.0353   1.1876  -0.6296 N.am           1 S1                 0.0000
      8 ****         3.5605   1.6684  -1.9050 N.pl3          1 S1                -1.0000
      9 ****         4.3419   2.7807  -1.9224 C.2            1 S1                 0.0000
     10 ****         4.8092   3.2510  -2.9572 O.2            1 S1                 0.0000
     11 ****         4.6343   3.4316  -0.6560 C.2            1 S1                 0.0000
     12 ****         4.1535   2.9534   0.5085 C.2            1 S1                 0.0000
     13 ****         3.3116   1.7649   0.5746 C.2            1 S1                 0.0000
     14 ****         2.8788   1.3155   1.6361 O.2            1 S1                 0.0000
     15 ****        -2.0401  -1.5211   0.5370 C.3            1 S1                 0.0000
     16 ****        -3.5601  -1.5567   0.7142 C.3            1 S1                 0.0000
     17 ****        -3.6946  -1.6550   2.2157 C.3            1 S1                 0.0000
     18 ****        -2.5726  -0.7343   2.6819 C.3            1 S1                 0.0000
     19 ****        -1.5604  -0.8175   1.6826 O.3            1 S1                 0.0000
     20 ****        -3.1642  -1.5483  -2.0653 H              1 S1                 0.0000
     21 ****        -1.7431  -2.5893  -2.0547 H              1 S1                 0.0000
     22 ****        -1.7140  -1.0570  -2.9241 H              1 S1                 0.0000
     23 ****        -1.9477   0.1816  -0.7758 H              1 S1                 0.0000
     24 ****         0.3562  -1.7166  -0.9198 H              1 S1                 0.0000
     25 ****         2.4608  -0.7262   0.0342 H              1 S1                 0.0000
     26 ****         2.4052  -0.5253  -1.6902 H              1 S1                 0.0000
     27 ****         5.2526   4.3171  -0.6489 H              1 S1                 0.0000
     28 ****         4.3973   3.4684   1.4258 H              1 S1                 0.0000
     29 ****        -1.6526  -2.5398   0.5929 H              1 S1                 0.0000
     30 ****        -4.0121  -0.6285   0.3611 H              1 S1                 0.0000
     31 ****        -4.0313  -2.3883   0.1897 H              1 S1                 0.0000
     32 ****        -4.6760  -1.3526   2.5816 H              1 S1                 0.0000
     33 ****        -3.5046  -2.6781   2.5431 H              1 S1                 0.0000
     34 ****        -2.9232   0.2972   2.7321 H              1 S1                 0.0000
     35 ****        -2.1880  -1.0100   3.6639 H              1 S1                 0.0000
     36 ****        -0.7435   1.5513  -0.4767 LP             1 S1                 0.0000
     37 ****         0.8736   2.1703  -0.4360 LP             1 S1                 0.0000
     38 ****         3.3480   1.1855  -2.7545 LP             1 S1                 0.0000
     39 ****         4.6194   2.8129  -3.8359 LP             1 S1                 0.0000
     40 ****         5.3792   4.0718  -2.9206 LP             1 S1                 0.0000
     41 ****         2.3023   0.4984   1.6351 LP             1 S1                 0.0000
     42 ****         3.1039   1.7675   2.4992 LP             1 S1                 0.0000
     43 ****        -1.2901   0.1062   1.4112 LP             1 S1                 0.0000
     44 ****        -0.7685  -1.3002   2.0566 LP             1 S1                 0.0000
@<TRIPOS>BOND
    1    1    2 1     
    2    1   20 1     
    3    1   21 1     
    4    1   22 1     
    5    2    3 1     
    6    2   15 1     
    7    2   23 1     
    8    3    4 am    
    9    3   24 1     
   10    4    5 2     
   11    4    6 1     
   12    6   25 1     
   13    6   26 1     
   14    6    7 1     
   15    7    8 1     
   16    7   13 am    
   17    8    9 1     
   18    9   10 2     
   19    9   11 1     
   20   11   27 1     
   21   11   12 2     
   22   12   28 1     
   23   12   13 1     
   24   13   14 2     
   25   15   19 1     
   26   15   16 1     
   27   15   29 1     
   28   16   17 1     
   29   16   30 1     
   30   16   31 1     
   31   17   18 1     
   32   17   32 1     
   33   17   33 1     
   34   18   19 1     
   35   18   34 1     
   36   18   35 1     
   37    5   36 1     
   38    5   37 1     
   39    8   38 1     
   40   10   39 1     
   41   10   40 1     
   42   14   41 1     
   43   14   42 1     
   44   19   43 1     
   45   19   44 1     
@<TRIPOS>SUBSTRUCTURE
      1 S1             1
@<TRIPOS>SET
LONE_PAIRS      STATIC     ATOMS    <user>   **** ""
9 36 37 38 39 40 41 42 43 44
DONOR_HYDROGENS      STATIC     ATOMS    <user>   **** ""
1 24
ATOM$BLUE        STATIC     ATOMS    COLORGROUP SYSTEM
9 36 37 38 39 40 41 42 43 44
ATOM$RED        STATIC     ATOMS    COLORGROUP SYSTEM
1 24
