AV-unprocessed.smi:1725|AV-procd|sdf|6954|dock5
  -GOLD-   22720 8163D 1   1.00000     0.00000
 Structure written by MMmdl.
 36 37  0  0  0  0  0  0  0  0  1 V2000
  154.1273  141.1158  159.8311 C   0  0  0  0  0  0  0  0  0  0  0  0
  152.5963  141.0566  159.7232 C   0  0  1  0  0  0  0  0  0  0  0  0
  152.1323  142.3856  159.5049 O   0  0  0  0  0  0  0  0  0  0  0  0
  152.2505  143.2679  160.6168 C   0  0  0  0  0  0  0  0  0  0  0  0
  151.8138  144.6736  160.2471 C   0  0  0  0  0  0  0  0  0  0  0  0
  150.4900  144.9192  159.5527 C   0  0  0  0  0  0  0  0  0  0  0  0
  151.7773  145.1265  158.8016 C   0  0  0  0  0  0  0  0  0  0  0  0
  152.1483  140.1395  158.5732 C   0  0  0  0  0  0  0  0  0  0  0  0
  152.3791  138.9324  158.6378 O   0  0  0  0  0  0  0  0  0  0  0  0
  151.5157  140.7571  157.5556 N   0  0  0  0  0  0  0  0  0  0  0  0
  151.0162  140.2252  156.3544 C   0  0  0  0  0  0  0  0  0  0  0  0
  149.7612  140.4267  155.8733 C   0  0  0  0  0  0  0  0  0  0  0  0
  149.3099  139.8385  154.6233 C   0  0  0  0  0  0  0  0  0  0  0  0
  147.8854  140.0284  154.1253 C   0  0  0  0  0  0  0  0  0  0  0  0
  147.6795  141.3090  153.8214 F   0  0  0  0  0  0  0  0  0  0  0  0
  147.6505  139.2990  153.0338 F   0  0  0  0  0  0  0  0  0  0  0  0
  147.0025  139.6776  155.0607 F   0  0  0  0  0  0  0  0  0  0  0  0
  150.1917  139.0550  153.9755 C   0  0  0  0  0  0  0  0  0  0  0  0
  151.4835  138.8430  154.4621 N   0  0  0  0  0  0  0  0  0  0  0  0
  151.9587  139.3716  155.6120 C   0  0  0  0  0  0  0  0  0  0  0  0
  153.1087  139.1297  155.9776 O   0  0  0  0  0  0  0  0  0  0  0  0
  152.0893  138.2506  153.9128 H   0  0  0  0  0  0  0  0  0  0  0  0
  154.5530  140.1228  159.9799 H   0  0  0  0  0  0  0  0  0  0  0  0
  154.4303  141.7336  160.6767 H   0  0  0  0  0  0  0  0  0  0  0  0
  154.5778  141.5443  158.9349 H   0  0  0  0  0  0  0  0  0  0  0  0
  152.2019  140.6859  160.6715 H   0  0  0  0  0  0  0  0  0  0  0  0
  151.6402  142.9293  161.4545 H   0  0  0  0  0  0  0  0  0  0  0  0
  153.2864  143.3041  160.9561 H   0  0  0  0  0  0  0  0  0  0  0  0
  152.1152  145.4270  160.9722 H   0  0  0  0  0  0  0  0  0  0  0  0
  149.8848  144.0560  159.2823 H   0  0  0  0  0  0  0  0  0  0  0  0
  149.9296  145.8057  159.8419 H   0  0  0  0  0  0  0  0  0  0  0  0
  152.0747  146.1516  158.5903 H   0  0  0  0  0  0  0  0  0  0  0  0
  152.0301  144.4022  158.0297 H   0  0  0  0  0  0  0  0  0  0  0  0
  151.3476  141.7457  157.6752 H   0  0  0  0  0  0  0  0  0  0  0  0
  149.0466  141.0263  156.4121 H   0  0  0  0  0  0  0  0  0  0  0  0
  149.9810  138.5344  153.0531 H   0  0  0  0  0  0  0  0  0  0  0  0
  1  2  1  0  0  0  0
  1 23  1  0  0  0  0
  1 24  1  0  0  0  0
  1 25  1  0  0  0  0
  2  3  1  0  0  0  0
  2  8  1  0  0  0  0
  2 26  1  0  0  0  0
  3  4  1  0  0  0  0
  4  5  1  0  0  0  0
  4 27  1  0  0  0  0
  4 28  1  0  0  0  0
  5  7  1  0  0  0  0
  5  6  1  0  0  0  0
  5 29  1  0  0  0  0
  6  7  1  0  0  0  0
  6 30  1  0  0  0  0
  6 31  1  0  0  0  0
  7 32  1  0  0  0  0
  7 33  1  0  0  0  0
  8  9  2  0  0  0  0
  8 10  1  0  0  0  0
 10 11  1  0  0  0  0
 10 34  1  0  0  0  0
 11 20  1  0  0  0  0
 11 12  2  0  0  0  0
 12 13  1  0  0  0  0
 12 35  1  0  0  0  0
 13 14  1  0  0  0  0
 13 18  2  0  0  0  0
 14 15  1  0  0  0  0
 14 16  1  0  0  0  0
 14 17  1  0  0  0  0
 18 19  1  0  0  0  0
 18 36  1  0  0  0  0
 19 22  1  0  0  0  0
 19 20  1  0  0  0  0
 20 21  2  0  0  0  0
M  END
> <s_m_source_file>
AV-unprocessed.smi

> <i_m_source_file_index>
1725

> <i_lp_mmshare_version>
43012

> <i_f3d_flags>
0

> <s_epik_input>
W0NIMl0xW0NIMl1bQ0hdMVtDSDJdT1tDQEBIXShbQ0gzXSlDKD1PKVtOSF1jMltjSF1jKEMoRikoRilGKVtjSF1bbkhdYzI9Tw==

> <s_epik_cmdline>
J2VwaWtfcHl0aG9uJywgJy1waCcsICc3LjAnLCAnLXRuJywgJzgnLCAnLW1hJywgJzIwMCcsICctbWV0YWxfYmluZGluZycsICctaW1hZScsICc8aW5maWxlLm1hZT4nLCAnLW9tYWUnLCAnPG91dGZpbGUubWFlPic=

> <r_lp_tautomer_probability>
0.999

> <r_epik_Ionization_Penalty>
0.00763408

> <r_epik_Ionization_Penalty_Charging>
0.00763398

> <r_epik_Ionization_Penalty_Neutral>
9.25705e-08

> <r_epik_State_Penalty>
0.00571302

> <r_epik_Charging_Adjusted_Penalty>
0.013347

> <i_epik_Tot_Q>
0

> <i_epik_Tot_abs_Q>
0

> <r_epik_Metal_State_Penalty>
0.392814

> <b_epik_Metal_Only>
0

> <s_lp_Force_Field>
OPLS_2005

> <r_lp_Energy>
26.7151

> <b_lp_Chiralities_Consistent>
1

> <s_lp_Variant>
AV-unprocessed.smi:1725-2

> <Gold.Version>
5.8.1

> <Gold.Id.Protein>
6NUR|6NUR_protein|mol2

> <Gold.PLP.Fitness>
47.5297

> <Gold.PLP.PLP>
-43.0414

> <Gold.PLP.part.hbond>
-1.0000

> <Gold.PLP.part.metal>
0.0000

> <Gold.PLP.part.buried>
-5.1657

> <Gold.PLP.part.nonpolar>
-37.1473

> <Gold.PLP.part.repulsive>
0.2036

> <Gold.PLP.ligand.clash>
1.0459

> <Gold.PLP.ligand.torsion>
0.9326

> <Gold.PLP.Chemscore.Hbond>
1.0000

> <Gold.PLP.Chemscore.CHOScore>
1.2668

> <Gold.PLP.Chemscore.Metal>
0.0000

> <Gold.Chemscore.Hbonds>
donor molecule, donor type, donor heavy atom, donor atom, acceptor molecule, acceptor atom, score
      P1  H  7997  8010       L1    21  1.00
      L1  C    18    36       P1  7948  0.48
      L1  C    18    36       P1  7957  0.68

> <Gold.PLP.Chemscore.Internal.Correction>
0.5989

> <Gold.Rescore>
     Score         DG    S(hbond)    S(metal)    S(lipo)     H(rot)  DE(clash)    DE(int)     intcor
     13.96     -15.11       0.99        0.00      93.42       1.79       0.03       1.11       ----

> <Gold.Chemscore.Fitness>
13.9629

> <Gold.Chemscore.DG>
-15.1093

> <Gold.Chemscore.ZeroCoef>
-5.4800

> <Gold.Chemscore.Hbond>
0.9855

> <Gold.Chemscore.Metal>
0.0000

> <Gold.Chemscore.Lipo>
93.4175

> <Gold.Chemscore.Internal_Hbond>
0.0000

> <Gold.Chemscore.DEClash>
0.0348

> <Gold.Chemscore.DEInternal>
1.1116

> <Gold.Chemscore.Rot>
1.7938

> <Gold.Chemscore.Internal.Correction>
   9.000000E+99

> <Gold.Chemscore.Hbonds>
donor molecule, donor type, donor heavy atom, donor atom, acceptor molecule, acceptor atom, score
      P1  H  7997  8010       L1    21  0.99

> <Gold.Chemscore.Hbond.Weighted>
-3.2917

> <Gold.Chemscore.Metal.Weighted>
-0.0000

> <Gold.Chemscore.Lipo.Weighted>
-10.9298

> <Gold.Chemscore.Internal_Hbond.Weighted>
0.0000

> <Gold.Chemscore.DEClash.Weighted>
0.0348

> <Gold.Chemscore.DEInternal.Weighted>
1.1116

> <Gold.Chemscore.Rot.Weighted>
4.5922

> <Gold.Chemscore.Internal.Correction.Weighted>
   9.000000E+99

> <Gold.Protein.RotatedTorsions>
[ 6907 6896 6895 6894 ] final  124.04 input  -60.11 | X-H torsion
[ 7974 7965 7964 7962 ] final  175.96 input  175.53 | X-H torsion
[ 8008 7997 7996 7995 ] final   76.61 input   59.86 | X-H torsion
[ 10167 10162 10161 10158 ] final -124.56 input  -65.29 | X-H torsion
[ 10718 10713 10712 10709 ] final  143.49 input   66.30 | X-H torsion
[ 10763 10752 10751 10750 ] final   90.90 input  -60.55 | X-H torsion
[ 11005 11000 10999 10996 ] final   58.10 input  -57.11 | X-H torsion

> <Gold.Protein.ActiveResidues>
 VAL166  LYS551  ARG553  GLY616  TRP617  ASP618  TYR619  PRO620  LYS621  CYS622 
 ASP623  PHE694  ASN695  SER759  ASP760  ASP761  ALA762  ILE779  LEU786  VAL792 
 PHE793  MET794  SER795  GLU796  ALA797  LYS798  CYS799  TRP800  GLU811  SER814 

> <Gold.Protein.RotatedAtoms>
  152.4111  133.6965  159.6398 H   0  0  0  0  0  0  0  0  0  0  0  0  # atno 6907 bound_to 6896
  150.7991  133.8622  159.3244 H   0  0  0  0  0  0  0  0  0  0  0  0  # atno 6908 bound_to 6896
  151.6364  135.1019  160.0184 H   0  0  0  0  0  0  0  0  0  0  0  0  # atno 6909 bound_to 6896
  144.7192  140.0024  143.6440 H   0  0  0  0  0  0  0  0  0  0  0  0  # atno 7974 bound_to 7965
  155.8298  140.3466  155.5565 H   0  0  0  0  0  0  0  0  0  0  0  0  # atno 8008 bound_to 7997
  155.8254  140.0919  157.1844 H   0  0  0  0  0  0  0  0  0  0  0  0  # atno 8009 bound_to 7997
  154.4004  140.1422  156.3537 H   0  0  0  0  0  0  0  0  0  0  0  0  # atno 8010 bound_to 7997
  139.9914  143.5636  152.2340 H   0  0  0  0  0  0  0  0  0  0  0  0  # atno 10167 bound_to 10162
  157.3684  131.0975  151.0851 H   0  0  0  0  0  0  0  0  0  0  0  0  # atno 10718 bound_to 10713
  153.2025  135.4417  155.0284 H   0  0  0  0  0  0  0  0  0  0  0  0  # atno 10763 bound_to 10752
  154.8155  135.3313  154.7190 H   0  0  0  0  0  0  0  0  0  0  0  0  # atno 10764 bound_to 10752
  153.7634  135.6990  153.4976 H   0  0  0  0  0  0  0  0  0  0  0  0  # atno 10765 bound_to 10752
  140.0402  134.5884  155.9391 H   0  0  0  0  0  0  0  0  0  0  0  0  # atno 11005 bound_to 11000
  146.0324  139.3347  143.0747 LP  0  0  0  0  0  0  0  0  0  0  0  0  # atno 17320 bound_to 7965
  145.8436  140.9567  143.0786 LP  0  0  0  0  0  0  0  0  0  0  0  0  # atno 17321 bound_to 7965
  139.6337  144.7647  151.2482 LP  0  0  0  0  0  0  0  0  0  0  0  0  # atno 17342 bound_to 10162
  140.7453  143.6435  150.8313 LP  0  0  0  0  0  0  0  0  0  0  0  0  # atno 17343 bound_to 10162
  157.1965  130.6375  149.5723 LP  0  0  0  0  0  0  0  0  0  0  0  0  # atno 17370 bound_to 10713
  155.9750  130.4705  150.6432 LP  0  0  0  0  0  0  0  0  0  0  0  0  # atno 17371 bound_to 10713
  141.1879  133.6561  156.5302 LP  0  0  0  0  0  0  0  0  0  0  0  0  # atno 17394 bound_to 11000
  140.4081  134.7297  157.4819 LP  0  0  0  0  0  0  0  0  0  0  0  0  # atno 17395 bound_to 11000

$$$$
