#       Name:                AV-unprocessed.smi:1389
#       Creating user name   scv26
#       Creation time:       Fri Mar 27 05:27:18 2020


#       File generated by GOLD software.
#

@<TRIPOS>MOLECULE
AV-unprocessed.smi:1389
    58    60     1
SMALL
NO_CHARGES


@<TRIPOS>ATOM
      1 ****        -2.4643   0.3034   1.6125 C.3            1 S1                 0.0000
      2 ****        -1.5435  -0.7201   2.3249 C.3            1 S1                 0.0000
      3 ****        -0.1320  -0.0876   2.5004 C.3            1 S1                 0.0000
      4 ****         0.4579   0.3723   1.2460 N.am           1 S1                 0.0000
      5 ****         1.0022  -0.4245   0.3160 C.2            1 S1                 0.0000
      6 ****         1.0736  -1.6485   0.4247 O.2            1 S1                 0.0000
      7 ****         1.4288   0.2838  -0.7426 N.am           1 S1                 0.0000
      8 ****         2.0335  -0.1996  -1.9381 C.ar           1 S1                 0.0000
      9 ****         2.8388  -1.3676  -1.9554 C.ar           1 S1                 0.0000
     10 ****         3.4175  -1.8015  -3.1636 C.ar           1 S1                 0.0000
     11 ****         3.1911  -1.0569  -4.3345 C.ar           1 S1                 0.0000
     12 ****         2.4352   0.0593  -4.2813 N.pl3          1 S1                 1.0000
     13 ****         1.8519   0.5241  -3.1487 C.ar           1 S1                 0.0000
     14 ****         1.1020   1.7185  -3.2084 N.3            1 S1                 0.0000
     15 ****         1.7329   2.8537  -2.5388 C.3            1 S1                 0.0000
     16 ****         1.4797   4.0795  -3.4207 C.3            1 S1                 0.0000
     17 ****         1.2778   3.4789  -4.8063 C.3            1 S1                 0.0000
     18 ****         0.5620   2.1681  -4.4901 C.3            1 S1                 0.0000
     19 ****        -2.1208  -1.2241   3.5926 N.3            1 S1                 0.0000
     20 ****        -1.2673  -2.2215   4.2492 C.3            1 S1                 0.0000
     21 ****        -1.8797  -2.7701   5.5497 C.3            1 S1                 0.0000
     22 ****        -3.1609  -3.3233   5.2823 O.3            1 S1                 0.0000
     23 ****        -4.0462  -2.3676   4.7157 C.3            1 S1                 0.0000
     24 ****        -3.4489  -1.8207   3.4078 C.3            1 S1                 0.0000
     25 ****        -2.0138   0.7121   0.7089 H              1 S1                 0.0000
     26 ****        -2.7017   1.1421   2.2679 H              1 S1                 0.0000
     27 ****        -3.4014  -0.1428   1.2830 H              1 S1                 0.0000
     28 ****        -1.4334  -1.5704   1.6498 H              1 S1                 0.0000
     29 ****        -0.1894   0.7633   3.1800 H              1 S1                 0.0000
     30 ****         0.5787  -0.7847   2.9421 H              1 S1                 0.0000
     31 ****         0.4367   1.3669   1.0737 H              1 S1                 0.0000
     32 ****         1.2117   1.2695  -0.7324 H              1 S1                 0.0000
     33 ****         3.0327  -1.9339  -1.0572 H              1 S1                 0.0000
     34 ****         4.0303  -2.6908  -3.1897 H              1 S1                 0.0000
     35 ****         3.5957  -1.3124  -5.3031 H              1 S1                 0.0000
     36 ****         1.3222   2.9967  -1.5392 H              1 S1                 0.0000
     37 ****         2.8060   2.6840  -2.4374 H              1 S1                 0.0000
     38 ****         0.5653   4.5820  -3.1020 H              1 S1                 0.0000
     39 ****         2.2932   4.8043  -3.3836 H              1 S1                 0.0000
     40 ****         0.7079   4.1247  -5.4749 H              1 S1                 0.0000
     41 ****         2.2444   3.2757  -5.2693 H              1 S1                 0.0000
     42 ****         0.6556   1.4475  -5.3024 H              1 S1                 0.0000
     43 ****        -0.5044   2.3514  -4.3540 H              1 S1                 0.0000
     44 ****        -1.0704  -3.0482   3.5648 H              1 S1                 0.0000
     45 ****        -0.3035  -1.7921   4.5145 H              1 S1                 0.0000
     46 ****        -1.2393  -3.5451   5.9712 H              1 S1                 0.0000
     47 ****        -1.9637  -1.9820   6.2997 H              1 S1                 0.0000
     48 ****        -5.0074  -2.8440   4.5227 H              1 S1                 0.0000
     49 ****        -4.2270  -1.5594   5.4261 H              1 S1                 0.0000
     50 ****        -4.1510  -1.0845   3.0212 H              1 S1                 0.0000
     51 ****        -3.3941  -2.6244   2.6719 H              1 S1                 0.0000
     52 ****         2.2981   0.5863  -5.1440 H              1 S1                 0.0000
     53 ****         0.7137  -2.0998   1.2412 LP             1 S1                 0.0000
     54 ****         1.4916  -2.1916  -0.3036 LP             1 S1                 0.0000
     55 ****         0.3022   1.3974  -2.7014 LP             1 S1                 0.0000
     56 ****        -2.1928  -0.4133   4.1735 LP             1 S1                 0.0000
     57 ****        -3.5530  -3.6583   6.1390 LP             1 S1                 0.0000
     58 ****        -3.0564  -4.0852   4.6431 LP             1 S1                 0.0000
@<TRIPOS>BOND
    1    1    2 1     
    2    1   25 1     
    3    1   26 1     
    4    1   27 1     
    5    2    3 1     
    6    2   19 1     
    7    2   28 1     
    8    3    4 1     
    9    3   29 1     
   10    3   30 1     
   11    4    5 am    
   12    4   31 1     
   13    5    6 2     
   14    5    7 am    
   15    7    8 1     
   16    7   32 1     
   17    8   13 ar    
   18    8    9 ar    
   19    9   10 ar    
   20    9   33 1     
   21   10   11 ar    
   22   10   34 1     
   23   11   12 ar    
   24   11   35 1     
   25   12   13 ar    
   26   12   52 1     
   27   13   14 1     
   28   14   18 1     
   29   14   15 1     
   30   15   16 1     
   31   15   36 1     
   32   15   37 1     
   33   16   17 1     
   34   16   38 1     
   35   16   39 1     
   36   17   18 1     
   37   17   40 1     
   38   17   41 1     
   39   18   42 1     
   40   18   43 1     
   41   19   24 1     
   42   19   20 1     
   43   20   21 1     
   44   20   44 1     
   45   20   45 1     
   46   21   22 1     
   47   21   46 1     
   48   21   47 1     
   49   22   23 1     
   50   23   24 1     
   51   23   48 1     
   52   23   49 1     
   53   24   50 1     
   54   24   51 1     
   55    6   53 1     
   56    6   54 1     
   57   14   55 1     
   58   19   56 1     
   59   22   57 1     
   60   22   58 1     
@<TRIPOS>SUBSTRUCTURE
      1 S1             1
@<TRIPOS>SET
LONE_PAIRS      STATIC     ATOMS    <user>   **** ""
6 53 54 55 56 57 58
DONOR_HYDROGENS      STATIC     ATOMS    <user>   **** ""
3 31 32 52
ATOM$BLUE        STATIC     ATOMS    COLORGROUP SYSTEM
6 53 54 55 56 57 58
ATOM$RED        STATIC     ATOMS    COLORGROUP SYSTEM
3 31 32 52
