AV-unprocessed.smi:460|AV-procd|sdf|2627|dock10
  -GOLD-   2262023 33D 1   1.00000     0.00000
 Structure written by MMmdl.
 46 48  0  0  0  0  0  0  0  0  1 V2000
  147.4917  140.8804  153.4679 C   0  0  0  0  0  0  0  0  0  0  0  0
  148.6256  141.5198  154.2849 C   0  0  0  0  0  0  0  0  0  0  0  0
  149.5975  140.5193  154.9469 C   0  0  1  0  0  0  0  0  0  0  0  0
  150.4144  139.9516  153.9410 O   0  0  0  0  0  0  0  0  0  0  0  0
  150.4002  141.1173  156.0734 C   0  0  0  0  0  0  0  0  0  0  0  0
  150.2825  142.3977  156.4357 N   0  0  0  0  0  0  0  0  0  0  0  0
  151.1725  142.5048  157.4852 C   0  0  0  0  0  0  0  0  0  0  0  0
  151.5190  143.6166  158.2860 C   0  0  0  0  0  0  0  0  0  0  0  0
  152.4767  143.4858  159.3131 C   0  0  0  0  0  0  0  0  0  0  0  0
  153.0976  142.2435  159.5555 C   0  0  0  0  0  0  0  0  0  0  0  0
  152.7628  141.1228  158.7719 C   0  0  0  0  0  0  0  0  0  0  0  0
  151.8094  141.2595  157.7450 C   0  0  0  0  0  0  0  0  0  0  0  0
  151.2763  140.3812  156.8053 N   0  0  0  0  0  0  0  0  0  0  0  0
  151.6243  138.9736  156.6579 C   0  0  0  0  0  0  0  0  0  0  0  0
  151.7539  138.2693  158.0166 C   0  0  0  0  0  0  0  0  0  0  0  0
  152.9855  137.5624  158.0417 O   0  0  0  0  0  0  0  0  0  0  0  0
  153.5073  137.1685  159.2540 C   0  0  0  0  0  0  0  0  0  0  0  0
  153.0655  137.6736  160.5021 C   0  0  0  0  0  0  0  0  0  0  0  0
  153.6519  137.2241  161.6993 C   0  0  0  0  0  0  0  0  0  0  0  0
  154.6817  136.2682  161.6618 C   0  0  0  0  0  0  0  0  0  0  0  0
  155.1260  135.7603  160.4273 C   0  0  0  0  0  0  0  0  0  0  0  0
  154.5426  136.2068  159.2147 C   0  0  0  0  0  0  0  0  0  0  0  0
  154.9231  135.7535  157.9681 O   0  0  0  0  0  0  0  0  0  0  0  0
  155.9387  134.7651  157.8906 C   0  0  0  0  0  0  0  0  0  0  0  0
  146.8245  141.6459  153.0715 H   0  0  0  0  0  0  0  0  0  0  0  0
  146.8928  140.2053  154.0797 H   0  0  0  0  0  0  0  0  0  0  0  0
  147.8779  140.3138  152.6204 H   0  0  0  0  0  0  0  0  0  0  0  0
  149.1875  142.1818  153.6260 H   0  0  0  0  0  0  0  0  0  0  0  0
  148.1939  142.1634  155.0524 H   0  0  0  0  0  0  0  0  0  0  0  0
  149.0177  139.6861  155.3433 H   0  0  0  0  0  0  0  0  0  0  0  0
  149.9061  139.8827  153.1474 H   0  0  0  0  0  0  0  0  0  0  0  0
  151.0498  144.5726  158.1069 H   0  0  0  0  0  0  0  0  0  0  0  0
  152.7371  144.3428  159.9168 H   0  0  0  0  0  0  0  0  0  0  0  0
  153.8329  142.1513  160.3413 H   0  0  0  0  0  0  0  0  0  0  0  0
  153.2415  140.1717  158.9513 H   0  0  0  0  0  0  0  0  0  0  0  0
  150.8499  138.4889  156.0626 H   0  0  0  0  0  0  0  0  0  0  0  0
  152.5465  138.8776  156.0865 H   0  0  0  0  0  0  0  0  0  0  0  0
  151.7247  139.0083  158.8183 H   0  0  0  0  0  0  0  0  0  0  0  0
  150.9185  137.5818  158.1575 H   0  0  0  0  0  0  0  0  0  0  0  0
  152.2793  138.4104  160.5662 H   0  0  0  0  0  0  0  0  0  0  0  0
  153.3116  137.6144  162.6470 H   0  0  0  0  0  0  0  0  0  0  0  0
  155.1327  135.9240  162.5811 H   0  0  0  0  0  0  0  0  0  0  0  0
  155.9190  135.0283  160.4372 H   0  0  0  0  0  0  0  0  0  0  0  0
  156.1018  134.5010  156.8458 H   0  0  0  0  0  0  0  0  0  0  0  0
  155.6511  133.8555  158.4195 H   0  0  0  0  0  0  0  0  0  0  0  0
  156.8847  135.1336  158.2895 H   0  0  0  0  0  0  0  0  0  0  0  0
  1  2  1  0  0  0  0
  1 25  1  0  0  0  0
  1 26  1  0  0  0  0
  1 27  1  0  0  0  0
  2  3  1  0  0  0  0
  2 28  1  0  0  0  0
  2 29  1  0  0  0  0
  3  4  1  0  0  0  0
  3  5  1  0  0  0  0
  3 30  1  0  0  0  0
  4 31  1  0  0  0  0
  5 13  1  0  0  0  0
  5  6  2  0  0  0  0
  6  7  1  0  0  0  0
  7 12  2  0  0  0  0
  7  8  1  0  0  0  0
  8  9  2  0  0  0  0
  8 32  1  0  0  0  0
  9 10  1  0  0  0  0
  9 33  1  0  0  0  0
 10 11  2  0  0  0  0
 10 34  1  0  0  0  0
 11 12  1  0  0  0  0
 11 35  1  0  0  0  0
 12 13  1  0  0  0  0
 13 14  1  0  0  0  0
 14 15  1  0  0  0  0
 14 36  1  0  0  0  0
 14 37  1  0  0  0  0
 15 16  1  0  0  0  0
 15 38  1  0  0  0  0
 15 39  1  0  0  0  0
 16 17  1  0  0  0  0
 17 22  1  0  0  0  0
 17 18  2  0  0  0  0
 18 19  1  0  0  0  0
 18 40  1  0  0  0  0
 19 20  2  0  0  0  0
 19 41  1  0  0  0  0
 20 21  1  0  0  0  0
 20 42  1  0  0  0  0
 21 22  2  0  0  0  0
 21 43  1  0  0  0  0
 22 23  1  0  0  0  0
 23 24  1  0  0  0  0
 24 44  1  0  0  0  0
 24 45  1  0  0  0  0
 24 46  1  0  0  0  0
M  END
> <s_m_source_file>
AV-unprocessed.smi

> <i_m_source_file_index>
460

> <i_lp_mmshare_version>
43012

> <i_f3d_flags>
0

> <s_epik_input>
W2NIXTFbY0hdW2NIXVtjSF1jKGMxMiluKGMobjIpW0NAQEhdKFtPSF0pW0NIMl1bQ0gzXSlbQ0gyXVtDSDJdT2MzW2NIXVtjSF1bY0hdW2NIXWMzT1tDSDNd

> <s_epik_cmdline>
J2VwaWtfcHl0aG9uJywgJy1waCcsICc3LjAnLCAnLXRuJywgJzgnLCAnLW1hJywgJzIwMCcsICctbWV0YWxfYmluZGluZycsICctaW1hZScsICc8aW5maWxlLm1hZT4nLCAnLW9tYWUnLCAnPG91dGZpbGUubWFlPic=

> <r_lp_tautomer_probability>
1

> <r_epik_Ionization_Penalty>
0.0507825

> <r_epik_Ionization_Penalty_Charging>
0

> <r_epik_Ionization_Penalty_Neutral>
0.0507825

> <r_epik_State_Penalty>
0.0434615

> <r_epik_Charging_Adjusted_Penalty>
0.0434615

> <i_epik_Tot_Q>
0

> <i_epik_Tot_abs_Q>
0

> <r_epik_Metal_State_Penalty>
4.50935e-05

> <b_epik_Metal_Only>
0

> <s_lp_Force_Field>
OPLS_2005

> <r_lp_Energy>
20.6013

> <b_lp_Chiralities_Consistent>
1

> <s_lp_Variant>
AV-unprocessed.smi:460-2

> <Gold.Version>
5.8.1

> <Gold.Id.Protein>
6NUR|6NUR_protein|mol2

> <Gold.PLP.Fitness>
46.0098

> <Gold.PLP.PLP>
-41.8470

> <Gold.PLP.part.hbond>
-2.0000

> <Gold.PLP.part.metal>
0.0000

> <Gold.PLP.part.buried>
-4.4936

> <Gold.PLP.part.nonpolar>
-36.6991

> <Gold.PLP.part.repulsive>
1.8714

> <Gold.PLP.ligand.clash>
0.0000

> <Gold.PLP.ligand.torsion>
1.0018

> <Gold.PLP.Chemscore.Hbond>
2.0000

> <Gold.PLP.Chemscore.CHOScore>
0.0000

> <Gold.PLP.Chemscore.Metal>
0.0000

> <Gold.Chemscore.Hbonds>
donor molecule, donor type, donor heavy atom, donor atom, acceptor molecule, acceptor atom, score
      L1  H     4    31       P1  7957  1.00
      P1  H  7989  7998       L1     4  1.00

> <Gold.PLP.Chemscore.Internal.Correction>
0.1664

> <Gold.Rescore>
     Score         DG    S(hbond)    S(metal)    S(lipo)     H(rot)  DE(clash)    DE(int)     intcor
     17.07     -18.39       1.40        0.00     122.03       2.36       0.21       1.11       ----

> <Gold.Chemscore.Fitness>
17.0690

> <Gold.Chemscore.DG>
-18.3938

> <Gold.Chemscore.ZeroCoef>
-5.4800

> <Gold.Chemscore.Hbond>
1.3995

> <Gold.Chemscore.Metal>
0.0000

> <Gold.Chemscore.Lipo>
122.0333

> <Gold.Chemscore.Internal_Hbond>
0.0000

> <Gold.Chemscore.DEClash>
0.2144

> <Gold.Chemscore.DEInternal>
1.1105

> <Gold.Chemscore.Rot>
2.3587

> <Gold.Chemscore.Internal.Correction>
   9.000000E+99

> <Gold.Chemscore.Hbonds>
donor molecule, donor type, donor heavy atom, donor atom, acceptor molecule, acceptor atom, score
      L1  H     4    31       P1  7957  0.93
      P1  H  7989  7998       L1     4  0.25

> <Gold.Chemscore.Hbond.Weighted>
-4.6743

> <Gold.Chemscore.Metal.Weighted>
-0.0000

> <Gold.Chemscore.Lipo.Weighted>
-14.2779

> <Gold.Chemscore.Internal_Hbond.Weighted>
0.0000

> <Gold.Chemscore.DEClash.Weighted>
0.2144

> <Gold.Chemscore.DEInternal.Weighted>
1.1105

> <Gold.Chemscore.Rot.Weighted>
6.0384

> <Gold.Chemscore.Internal.Correction.Weighted>
   9.000000E+99

> <Gold.Protein.RotatedTorsions>
[ 6907 6896 6895 6894 ] final -156.63 input  -60.11 | X-H torsion
[ 7974 7965 7964 7962 ] final  -34.80 input  175.53 | X-H torsion
[ 8008 7997 7996 7995 ] final -109.52 input   59.86 | X-H torsion
[ 10167 10162 10161 10158 ] final -169.76 input  -65.29 | X-H torsion
[ 10718 10713 10712 10709 ] final   95.84 input   66.30 | X-H torsion
[ 10763 10752 10751 10750 ] final  115.70 input  -60.55 | X-H torsion
[ 11005 11000 10999 10996 ] final  161.46 input  -57.11 | X-H torsion

> <Gold.Protein.ActiveResidues>
 VAL166  LYS551  ARG553  GLY616  TRP617  ASP618  TYR619  PRO620  LYS621  CYS622 
 ASP623  PHE694  ASN695  SER759  ASP760  ASP761  ALA762  ILE779  LEU786  VAL792 
 PHE793  MET794  SER795  GLU796  ALA797  LYS798  CYS799  TRP800  GLU811  SER814 

> <Gold.Protein.RotatedAtoms>
  151.2905  133.4167  159.2632 H   0  0  0  0  0  0  0  0  0  0  0  0  # atno 6907 bound_to 6896
  151.0281  134.9520  159.8106 H   0  0  0  0  0  0  0  0  0  0  0  0  # atno 6908 bound_to 6896
  152.5339  134.2867  159.9080 H   0  0  0  0  0  0  0  0  0  0  0  0  # atno 6909 bound_to 6896
  146.0799  140.6082  142.8913 H   0  0  0  0  0  0  0  0  0  0  0  0  # atno 7974 bound_to 7965
  154.9606  140.0399  157.2188 H   0  0  0  0  0  0  0  0  0  0  0  0  # atno 8008 bound_to 7997
  154.7893  140.2832  155.5982 H   0  0  0  0  0  0  0  0  0  0  0  0  # atno 8009 bound_to 7997
  156.2947  140.2576  156.2736 H   0  0  0  0  0  0  0  0  0  0  0  0  # atno 8010 bound_to 7997
  139.5903  144.1228  152.1626 H   0  0  0  0  0  0  0  0  0  0  0  0  # atno 10167 bound_to 10162
  157.6934  131.0559  150.4401 H   0  0  0  0  0  0  0  0  0  0  0  0  # atno 10718 bound_to 10713
  153.5261  135.3588  155.2654 H   0  0  0  0  0  0  0  0  0  0  0  0  # atno 10763 bound_to 10752
  154.8731  135.4057  154.3204 H   0  0  0  0  0  0  0  0  0  0  0  0  # atno 10764 bound_to 10752
  153.3884  135.7071  153.6580 H   0  0  0  0  0  0  0  0  0  0  0  0  # atno 10765 bound_to 10752
  140.2161  134.8231  157.3171 H   0  0  0  0  0  0  0  0  0  0  0  0  # atno 11005 bound_to 11000
  144.7286  140.4603  143.6954 LP  0  0  0  0  0  0  0  0  0  0  0  0  # atno 17320 bound_to 7965
  145.6236  139.1527  143.3008 LP  0  0  0  0  0  0  0  0  0  0  0  0  # atno 17321 bound_to 7965
  140.0801  144.5708  150.7129 LP  0  0  0  0  0  0  0  0  0  0  0  0  # atno 17342 bound_to 10162
  140.7167  143.2551  151.4411 LP  0  0  0  0  0  0  0  0  0  0  0  0  # atno 17343 bound_to 10162
  156.4760  130.4063  149.6489 LP  0  0  0  0  0  0  0  0  0  0  0  0  # atno 17370 bound_to 10713
  156.3552  130.7453  151.2418 LP  0  0  0  0  0  0  0  0  0  0  0  0  # atno 17371 bound_to 10713
  140.1899  134.4384  155.7721 LP  0  0  0  0  0  0  0  0  0  0  0  0  # atno 17394 bound_to 11000
  141.2225  133.7022  156.8010 LP  0  0  0  0  0  0  0  0  0  0  0  0  # atno 17395 bound_to 11000

$$$$
