AV-unprocessed.smi:3234|AV-procd|sdf|12348|dock8
  -GOLD-   2272018213D 1   1.00000     0.00000
 Structure written by MMmdl.
 37 39  0  0  0  0  0  0  0  0  2 V2000
  144.7443  136.4131  152.4748 O   0  0  0  0  0  0  0  0  0  0  0  0
  145.9180  136.0446  152.4842 C   0  0  0  0  0  0  0  0  0  0  0  0
  146.4135  134.9729  151.8402 N   0  0  0  0  0  0  0  0  0  0  0  0
  145.7513  134.0191  151.0167 C   0  0  0  0  0  0  0  0  0  0  0  0
  146.5436  133.0002  150.4475 C   0  0  0  0  0  0  0  0  0  0  0  0
  145.9268  132.0333  149.6287 C   0  0  0  0  0  0  0  0  0  0  0  0
  144.6054  132.0263  149.3568 N   0  0  0  0  0  0  0  0  0  0  0  0
  143.8466  132.9990  149.9040 C   0  0  0  0  0  0  0  0  0  0  0  0
  144.3627  134.0126  150.7365 C   0  0  0  0  0  0  0  0  0  0  0  0
  146.8811  136.6912  153.1562 N   0  0  0  0  0  0  0  0  0  0  0  0
  146.6697  137.8922  153.9573 C   0  0  2  0  0  0  0  0  0  0  0  0
  145.3273  137.9488  154.6802 C   0  0  0  0  0  0  0  0  0  0  0  0
  145.1705  139.4456  154.9709 C   0  0  0  0  0  0  0  0  0  0  0  0
  145.9163  140.1672  153.9095 N   0  3  1  0  0  0  0  0  0  0  0  0
  146.8013  141.2326  154.4287 C   0  0  0  0  0  0  0  0  0  0  0  0
  146.0698  142.3013  155.2051 C   0  0  0  0  0  0  0  0  0  0  0  0
  146.5538  142.5826  153.7990 C   0  0  0  0  0  0  0  0  0  0  0  0
  146.6241  139.1537  153.0963 C   0  0  0  0  0  0  0  0  0  0  0  0
  147.4064  134.8239  151.9429 H   0  0  0  0  0  0  0  0  0  0  0  0
  147.6073  132.9554  150.6307 H   0  0  0  0  0  0  0  0  0  0  0  0
  146.5118  131.2437  149.1806 H   0  0  0  0  0  0  0  0  0  0  0  0
  142.7921  132.9689  149.6728 H   0  0  0  0  0  0  0  0  0  0  0  0
  143.6814  134.7469  151.1348 H   0  0  0  0  0  0  0  0  0  0  0  0
  147.8214  136.3256  153.1133 H   0  0  0  0  0  0  0  0  0  0  0  0
  147.4776  137.9920  154.6855 H   0  0  0  0  0  0  0  0  0  0  0  0
  144.5260  137.6103  154.0215 H   0  0  0  0  0  0  0  0  0  0  0  0
  145.3027  137.3391  155.5841 H   0  0  0  0  0  0  0  0  0  0  0  0
  144.1243  139.7515  154.9920 H   0  0  0  0  0  0  0  0  0  0  0  0
  145.5977  139.6699  155.9499 H   0  0  0  0  0  0  0  0  0  0  0  0
  147.8077  140.9314  154.7151 H   0  0  0  0  0  0  0  0  0  0  0  0
  144.9978  142.1857  155.3551 H   0  0  0  0  0  0  0  0  0  0  0  0
  146.6036  142.7845  156.0210 H   0  0  0  0  0  0  0  0  0  0  0  0
  147.4070  143.2490  153.6896 H   0  0  0  0  0  0  0  0  0  0  0  0
  145.8033  142.6557  153.0140 H   0  0  0  0  0  0  0  0  0  0  0  0
  147.6168  139.4797  152.7811 H   0  0  0  0  0  0  0  0  0  0  0  0
  146.0345  138.9783  152.1951 H   0  0  0  0  0  0  0  0  0  0  0  0
  145.2405  140.6111  153.3043 H   0  0  0  0  0  0  0  0  0  0  0  0
  1  2  2  0  0  0  0
  2  3  1  0  0  0  0
  2 10  1  0  0  0  0
  3  4  1  0  0  0  0
  3 19  1  0  0  0  0
  4  9  1  0  0  0  0
  4  5  2  0  0  0  0
  5  6  1  0  0  0  0
  5 20  1  0  0  0  0
  6  7  2  0  0  0  0
  6 21  1  0  0  0  0
  7  8  1  0  0  0  0
  8  9  2  0  0  0  0
  8 22  1  0  0  0  0
  9 23  1  0  0  0  0
 10 11  1  0  0  0  0
 10 24  1  0  0  0  0
 11 18  1  0  0  0  0
 11 12  1  0  0  0  0
 11 25  1  0  0  0  0
 12 13  1  0  0  0  0
 12 26  1  0  0  0  0
 12 27  1  0  0  0  0
 13 14  1  0  0  0  0
 13 28  1  0  0  0  0
 13 29  1  0  0  0  0
 14 15  1  0  0  0  0
 14 18  1  0  0  0  0
 14 37  1  0  0  0  0
 15 17  1  0  0  0  0
 15 16  1  0  0  0  0
 15 30  1  0  0  0  0
 16 17  1  0  0  0  0
 16 31  1  0  0  0  0
 16 32  1  0  0  0  0
 17 33  1  0  0  0  0
 17 34  1  0  0  0  0
 18 35  1  0  0  0  0
 18 36  1  0  0  0  0
M  CHG  1  14   1
M  END
> <s_m_source_file>
AV-unprocessed.smi

> <i_m_source_file_index>
3234

> <i_lp_mmshare_version>
43012

> <i_f3d_flags>
0

> <s_epik_input>
W2NIXTFbY0hdbltjSF1bY0hdYzFbTkhdQyg9TylbTkhdW0NAQEhdMltDSDJdW0NIMl1OKFtDSDJdMilbQ0hdM1tDSDJdW0NIMl0z

> <s_epik_cmdline>
J2VwaWtfcHl0aG9uJywgJy1waCcsICc3LjAnLCAnLXRuJywgJzgnLCAnLW1hJywgJzIwMCcsICctbWV0YWxfYmluZGluZycsICctaW1hZScsICc8aW5maWxlLm1hZT4nLCAnLW9tYWUnLCAnPG91dGZpbGUubWFlPic=

> <r_epik_Ionization_Penalty>
0.0934328

> <r_epik_Ionization_Penalty_Charging>
0.000606352

> <r_epik_Ionization_Penalty_Neutral>
0.0928265

> <r_epik_State_Penalty>
0.0830811

> <r_epik_Charging_Adjusted_Penalty>
0.0836875

> <i_epik_Tot_Q>
1

> <i_epik_Tot_abs_Q>
1

> <r_epik_Metal_State_Penalty>
0.0724491

> <b_epik_Metal_Only>
0

> <s_lp_Force_Field>
OPLS_2005

> <r_lp_Energy>
42.4864

> <b_lp_Chiralities_Consistent>
1

> <s_lp_Variant>
AV-unprocessed.smi:3234-1

> <Gold.Version>
5.8.1

> <Gold.Id.Protein>
6NUR|6NUR_protein|mol2

> <Gold.PLP.Fitness>
42.8645

> <Gold.PLP.PLP>
-29.0290

> <Gold.PLP.part.hbond>
-3.5594

> <Gold.PLP.part.metal>
0.0000

> <Gold.PLP.part.buried>
-3.7609

> <Gold.PLP.part.nonpolar>
-22.8643

> <Gold.PLP.part.repulsive>
0.3584

> <Gold.PLP.ligand.clash>
0.0010

> <Gold.PLP.ligand.torsion>
1.0475

> <Gold.PLP.Chemscore.Hbond>
3.4918

> <Gold.PLP.Chemscore.CHOScore>
1.3973

> <Gold.PLP.Chemscore.Metal>
0.0000

> <Gold.Chemscore.Hbonds>
donor molecule, donor type, donor heavy atom, donor atom, acceptor molecule, acceptor atom, score
      L1  H     3    19       P1  7948  0.57
      L1  H    10    24       P1  7948  0.66
      L1  H    14    37       P1 10175  1.92
      P1  H 10785 10796       L1     7  0.02
      L1  C     6    21       P1 10747  0.43
      L1  C     8    22       P1 10186  1.00

> <Gold.PLP.Chemscore.Internal.Correction>
1.2641

> <Gold.Rescore>
     Score         DG    S(hbond)    S(metal)    S(lipo)     H(rot)  DE(clash)    DE(int)     intcor
     15.42     -19.14       2.58        0.00      69.52       1.21       0.03       3.68       ----

> <Gold.Chemscore.Fitness>
15.4218

> <Gold.Chemscore.DG>
-19.1369

> <Gold.Chemscore.ZeroCoef>
-5.4800

> <Gold.Chemscore.Hbond>
2.5817

> <Gold.Chemscore.Metal>
0.0000

> <Gold.Chemscore.Lipo>
69.5188

> <Gold.Chemscore.Internal_Hbond>
0.0000

> <Gold.Chemscore.DEClash>
0.0318

> <Gold.Chemscore.DEInternal>
3.6832

> <Gold.Chemscore.Rot>
1.2108

> <Gold.Chemscore.Internal.Correction>
   9.000000E+99

> <Gold.Chemscore.Hbonds>
donor molecule, donor type, donor heavy atom, donor atom, acceptor molecule, acceptor atom, score
      L1  H     3    19       P1  7948  0.43
      L1  H    10    24       P1  7948  0.66
      L1  H    14    37       P1 10175  0.85
      P1  H 10785 10796       L1     7  0.03

> <Gold.Chemscore.Hbond.Weighted>
-8.6227

> <Gold.Chemscore.Metal.Weighted>
-0.0000

> <Gold.Chemscore.Lipo.Weighted>
-8.1337

> <Gold.Chemscore.Internal_Hbond.Weighted>
0.0000

> <Gold.Chemscore.DEClash.Weighted>
0.0318

> <Gold.Chemscore.DEInternal.Weighted>
3.6832

> <Gold.Chemscore.Rot.Weighted>
3.0996

> <Gold.Chemscore.Internal.Correction.Weighted>
   9.000000E+99

> <Gold.Protein.RotatedTorsions>
[ 6907 6896 6895 6894 ] final -175.57 input  -60.11 | X-H torsion
[ 7974 7965 7964 7962 ] final   38.47 input  175.53 | X-H torsion
[ 8008 7997 7996 7995 ] final  -67.57 input   59.86 | X-H torsion
[ 10167 10162 10161 10158 ] final -161.75 input  -65.29 | X-H torsion
[ 10718 10713 10712 10709 ] final  113.76 input   66.30 | X-H torsion
[ 10763 10752 10751 10750 ] final -134.96 input  -60.55 | X-H torsion
[ 11005 11000 10999 10996 ] final    8.90 input  -57.11 | X-H torsion

> <Gold.Protein.ActiveResidues>
 VAL166  LYS551  ARG553  GLY616  TRP617  ASP618  TYR619  PRO620  LYS621  CYS622 
 ASP623  PHE694  ASN695  SER759  ASP760  ASP761  ALA762  ILE779  LEU786  VAL792 
 PHE793  MET794  SER795  GLU796  ALA797  LYS798  CYS799  TRP800  GLU811  SER814 

> <Gold.Protein.RotatedAtoms>
  151.5907  133.3367  159.3026 H   0  0  0  0  0  0  0  0  0  0  0  0  # atno 6907 bound_to 6896
  150.8262  134.7497  159.6826 H   0  0  0  0  0  0  0  0  0  0  0  0  # atno 6908 bound_to 6896
  152.4351  134.5709  159.9972 H   0  0  0  0  0  0  0  0  0  0  0  0  # atno 6909 bound_to 6896
  146.1059  139.5768  142.9383 H   0  0  0  0  0  0  0  0  0  0  0  0  # atno 7974 bound_to 7965
  154.4809  140.0890  156.7374 H   0  0  0  0  0  0  0  0  0  0  0  0  # atno 8008 bound_to 7997
  155.4474  140.3456  155.4278 H   0  0  0  0  0  0  0  0  0  0  0  0  # atno 8009 bound_to 7997
  156.1189  140.1468  156.9221 H   0  0  0  0  0  0  0  0  0  0  0  0  # atno 8010 bound_to 7997
  139.6442  144.0202  152.2115 H   0  0  0  0  0  0  0  0  0  0  0  0  # atno 10167 bound_to 10162
  157.6320  131.0988  150.7088 H   0  0  0  0  0  0  0  0  0  0  0  0  # atno 10718 bound_to 10713
  154.8711  135.3718  154.4821 H   0  0  0  0  0  0  0  0  0  0  0  0  # atno 10763 bound_to 10752
  153.5473  135.7025  153.5613 H   0  0  0  0  0  0  0  0  0  0  0  0  # atno 10764 bound_to 10752
  153.3747  135.4012  155.1778 H   0  0  0  0  0  0  0  0  0  0  0  0  # atno 10765 bound_to 10752
  140.5318  134.0459  155.7876 H   0  0  0  0  0  0  0  0  0  0  0  0  # atno 11005 bound_to 11000
  145.5761  141.0388  143.2148 LP  0  0  0  0  0  0  0  0  0  0  0  0  # atno 17320 bound_to 7965
  144.7471  139.7292  143.7288 LP  0  0  0  0  0  0  0  0  0  0  0  0  # atno 17321 bound_to 7965
  139.9900  144.6368  150.7823 LP  0  0  0  0  0  0  0  0  0  0  0  0  # atno 17342 bound_to 10162
  140.7506  143.2959  151.3207 LP  0  0  0  0  0  0  0  0  0  0  0  0  # atno 17343 bound_to 10162
  156.7425  130.4743  149.5474 LP  0  0  0  0  0  0  0  0  0  0  0  0  # atno 17370 bound_to 10713
  156.1530  130.6323  151.0620 LP  0  0  0  0  0  0  0  0  0  0  0  0  # atno 17371 bound_to 10713
  141.1277  133.9355  157.2601 LP  0  0  0  0  0  0  0  0  0  0  0  0  # atno 17394 bound_to 11000
  139.9550  135.0167  156.9103 LP  0  0  0  0  0  0  0  0  0  0  0  0  # atno 17395 bound_to 11000

$$$$
