AV-unprocessed.smi:199|AV-procd|sdf|1571|dock3
  -GOLD-   2262019453D 1   1.00000     0.00000
 Structure written by MMmdl.
 51 55  0  0  0  0  0  0  0  0  1 V2000
  147.2737  139.9985  152.7420 C   0  0  0  0  0  0  0  0  0  0  0  0
  147.2518  141.4190  153.3276 C   0  0  1  0  0  0  0  0  0  0  0  0
  145.9043  141.7158  153.6856 O   0  0  0  0  0  0  0  0  0  0  0  0
  145.9072  142.5962  154.7955 C   0  0  0  0  0  0  0  0  0  0  0  0
  147.0386  142.0430  155.6478 C   0  0  0  0  0  0  0  0  0  0  0  0
  148.0936  141.6615  154.6128 C   0  0  2  0  0  0  0  0  0  0  0  0
  148.9056  142.8014  154.3842 O   0  0  0  0  0  0  0  0  0  0  0  0
  149.0197  140.5011  155.0647 C   0  0  0  0  0  0  0  0  0  0  0  0
  149.7891  140.8112  156.2606 N   0  0  0  0  0  0  0  0  0  0  0  0
  149.5560  141.8349  157.1493 C   0  0  0  0  0  0  0  0  0  0  0  0
  150.3875  141.8987  158.1522 N   0  0  0  0  0  0  0  0  0  0  0  0
  151.2649  140.8402  157.9444 C   0  0  0  0  0  0  0  0  0  0  0  0
  152.3959  140.3236  158.6440 C   0  0  0  0  0  0  0  0  0  0  0  0
  152.8798  140.8360  159.8100 N   0  0  0  0  0  0  0  0  0  0  0  0
  154.2227  141.3950  159.8800 C   0  0  1  0  0  0  0  0  0  0  0  0
  154.1049  142.7385  159.1345 C   0  0  0  0  0  0  0  0  0  0  0  0
  152.6799  143.1666  159.5166 C   0  0  0  0  0  0  0  0  0  0  0  0
  152.2423  141.9936  160.4252 C   0  0  2  0  0  0  0  0  0  0  0  0
  152.9545  142.0410  161.7943 C   0  0  2  0  0  0  0  0  0  0  0  0
  152.8054  143.3462  162.5982 C   0  0  0  0  0  0  0  0  0  0  0  0
  153.3506  143.1814  163.8897 O   0  0  0  0  0  0  0  0  0  0  0  0
  154.3934  141.6766  161.3841 C   0  0  0  0  0  0  0  0  0  0  0  0
  153.0371  139.2622  158.0859 N   0  0  0  0  0  0  0  0  0  0  0  0
  152.5963  138.7216  156.9474 C   0  0  0  0  0  0  0  0  0  0  0  0
  151.5501  139.0829  156.2047 N   0  0  0  0  0  0  0  0  0  0  0  0
  150.9091  140.1580  156.7447 C   0  0  0  0  0  0  0  0  0  0  0  0
  148.2797  139.7073  152.4393 H   0  0  0  0  0  0  0  0  0  0  0  0
  146.6377  139.9380  151.8587 H   0  0  0  0  0  0  0  0  0  0  0  0
  146.9046  139.2644  153.4585 H   0  0  0  0  0  0  0  0  0  0  0  0
  147.5457  142.1185  152.5425 H   0  0  0  0  0  0  0  0  0  0  0  0
  146.1229  143.6127  154.4623 H   0  0  0  0  0  0  0  0  0  0  0  0
  144.9480  142.5955  155.3133 H   0  0  0  0  0  0  0  0  0  0  0  0
  147.3933  142.7459  156.4030 H   0  0  0  0  0  0  0  0  0  0  0  0
  146.6800  141.1524  156.1649 H   0  0  0  0  0  0  0  0  0  0  0  0
  149.7615  142.5093  154.1107 H   0  0  0  0  0  0  0  0  0  0  0  0
  148.4361  139.6044  155.2734 H   0  0  0  0  0  0  0  0  0  0  0  0
  149.7177  140.2360  154.2695 H   0  0  0  0  0  0  0  0  0  0  0  0
  148.7407  142.5341  157.0331 H   0  0  0  0  0  0  0  0  0  0  0  0
  155.0212  140.7614  159.4995 H   0  0  0  0  0  0  0  0  0  0  0  0
  154.8626  143.4598  159.4419 H   0  0  0  0  0  0  0  0  0  0  0  0
  154.1890  142.5976  158.0562 H   0  0  0  0  0  0  0  0  0  0  0  0
  152.6380  144.1410  160.0010 H   0  0  0  0  0  0  0  0  0  0  0  0
  152.0522  143.2224  158.6265 H   0  0  0  0  0  0  0  0  0  0  0  0
  151.1598  141.9133  160.5312 H   0  0  0  0  0  0  0  0  0  0  0  0
  152.5484  141.2251  162.3956 H   0  0  0  0  0  0  0  0  0  0  0  0
  153.3100  144.1811  162.1128 H   0  0  0  0  0  0  0  0  0  0  0  0
  151.7527  143.6113  162.6980 H   0  0  0  0  0  0  0  0  0  0  0  0
  152.6593  142.9130  164.4756 H   0  0  0  0  0  0  0  0  0  0  0  0
  154.7268  140.7842  161.9152 H   0  0  0  0  0  0  0  0  0  0  0  0
  155.1156  142.4707  161.5771 H   0  0  0  0  0  0  0  0  0  0  0  0
  153.1629  137.8789  156.5797 H   0  0  0  0  0  0  0  0  0  0  0  0
  1  2  1  0  0  0  0
  1 27  1  0  0  0  0
  1 28  1  0  0  0  0
  1 29  1  0  0  0  0
  2  6  1  0  0  0  0
  2  3  1  0  0  0  0
  2 30  1  0  0  0  0
  3  4  1  0  0  0  0
  4  5  1  0  0  0  0
  4 31  1  0  0  0  0
  4 32  1  0  0  0  0
  5  6  1  0  0  0  0
  5 33  1  0  0  0  0
  5 34  1  0  0  0  0
  6  7  1  0  0  0  0
  6  8  1  0  0  0  0
  7 35  1  0  0  0  0
  8  9  1  0  0  0  0
  8 36  1  0  0  0  0
  8 37  1  0  0  0  0
  9 26  1  0  0  0  0
  9 10  1  0  0  0  0
 10 11  2  0  0  0  0
 10 38  1  0  0  0  0
 11 12  1  0  0  0  0
 12 26  2  0  0  0  0
 12 13  1  0  0  0  0
 13 14  1  0  0  0  0
 13 23  2  0  0  0  0
 14 18  1  0  0  0  0
 14 15  1  0  0  0  0
 15 22  1  0  0  0  0
 15 16  1  0  0  0  0
 15 39  1  0  0  0  0
 16 17  1  0  0  0  0
 16 40  1  0  0  0  0
 16 41  1  0  0  0  0
 17 18  1  0  0  0  0
 17 42  1  0  0  0  0
 17 43  1  0  0  0  0
 18 19  1  0  0  0  0
 18 44  1  0  0  0  0
 19 20  1  0  0  0  0
 19 22  1  0  0  0  0
 19 45  1  0  0  0  0
 20 21  1  0  0  0  0
 20 46  1  0  0  0  0
 20 47  1  0  0  0  0
 21 48  1  0  0  0  0
 22 49  1  0  0  0  0
 22 50  1  0  0  0  0
 23 24  1  0  0  0  0
 24 25  2  0  0  0  0
 24 51  1  0  0  0  0
 25 26  1  0  0  0  0
M  END
> <s_m_source_file>
AV-unprocessed.smi

> <i_m_source_file_index>
199

> <i_lp_mmshare_version>
43012

> <i_f3d_flags>
0

> <s_epik_input>
W0NIMl0xW0NIMl1PW0NAQEhdKFtDSDNdKVtDQEBdMShbT0hdKVtDSDJdbihbY0hdbjIpYyhjMjMpbltjSF1uYzNOKFtDQEBIXTQ1KVtDQEhdKFtDSDJdW0NIMl00KVtDQEhdKFtDSDJdNSlbQ0gyXVtPSF0=

> <s_epik_cmdline>
J2VwaWtfcHl0aG9uJywgJy1waCcsICc3LjAnLCAnLXRuJywgJzgnLCAnLW1hJywgJzIwMCcsICctbWV0YWxfYmluZGluZycsICctaW1hZScsICc8aW5maWxlLm1hZT4nLCAnLW9tYWUnLCAnPG91dGZpbGUubWFlPic=

> <r_lp_tautomer_probability>
1

> <r_epik_Ionization_Penalty>
0.00583903

> <r_epik_Ionization_Penalty_Charging>
0

> <r_epik_Ionization_Penalty_Neutral>
0.00583903

> <r_epik_State_Penalty>
-0

> <r_epik_Charging_Adjusted_Penalty>
0

> <i_epik_Tot_Q>
0

> <i_epik_Tot_abs_Q>
0

> <r_epik_Metal_State_Penalty>
-0

> <b_epik_Metal_Only>
0

> <s_lp_Force_Field>
OPLS_2005

> <r_lp_Energy>
83.1527

> <b_lp_Chiralities_Consistent>
1

> <s_lp_Variant>
AV-unprocessed.smi:199-12

> <Gold.Version>
5.8.1

> <Gold.Id.Protein>
6NUR|6NUR_protein|mol2

> <Gold.PLP.Fitness>
42.8118

> <Gold.PLP.PLP>
-37.9903

> <Gold.PLP.part.hbond>
-3.4177

> <Gold.PLP.part.metal>
0.0000

> <Gold.PLP.part.buried>
-0.2977

> <Gold.PLP.part.nonpolar>
-35.1327

> <Gold.PLP.part.repulsive>
2.5617

> <Gold.PLP.ligand.clash>
2.0252

> <Gold.PLP.ligand.torsion>
0.2596

> <Gold.PLP.Chemscore.Hbond>
1.6021

> <Gold.PLP.Chemscore.CHOScore>
0.8474

> <Gold.PLP.Chemscore.Metal>
0.0000

> <Gold.Chemscore.Hbonds>
donor molecule, donor type, donor heavy atom, donor atom, acceptor molecule, acceptor atom, score
      P1  H  7997  8009       L1    23  0.48
      P1  H  8022  8030       L1     7  0.76
      L1  C    10    38       P1  8028  0.79

> <Gold.PLP.Chemscore.Internal.Correction>
0.0174

> <Gold.Rescore>
     Score         DG    S(hbond)    S(metal)    S(lipo)     H(rot)  DE(clash)    DE(int)     intcor
      5.71     -14.31       0.72        0.00     122.07       3.07       4.58       4.02       ----

> <Gold.Chemscore.Fitness>
5.7141

> <Gold.Chemscore.DG>
-14.3115

> <Gold.Chemscore.ZeroCoef>
-5.4800

> <Gold.Chemscore.Hbond>
0.7234

> <Gold.Chemscore.Metal>
0.0000

> <Gold.Chemscore.Lipo>
122.0682

> <Gold.Chemscore.Internal_Hbond>
0.0000

> <Gold.Chemscore.DEClash>
4.5777

> <Gold.Chemscore.DEInternal>
4.0196

> <Gold.Chemscore.Rot>
3.0729

> <Gold.Chemscore.Internal.Correction>
   9.000000E+99

> <Gold.Chemscore.Hbonds>
donor molecule, donor type, donor heavy atom, donor atom, acceptor molecule, acceptor atom, score
      P1  H  7997  8009       L1    23  0.01
      P1  H  8022  8030       L1     7  0.49

> <Gold.Chemscore.Hbond.Weighted>
-2.4162

> <Gold.Chemscore.Metal.Weighted>
-0.0000

> <Gold.Chemscore.Lipo.Weighted>
-14.2820

> <Gold.Chemscore.Internal_Hbond.Weighted>
0.0000

> <Gold.Chemscore.DEClash.Weighted>
4.5777

> <Gold.Chemscore.DEInternal.Weighted>
4.0196

> <Gold.Chemscore.Rot.Weighted>
7.8667

> <Gold.Chemscore.Internal.Correction.Weighted>
   9.000000E+99

> <Gold.Protein.RotatedTorsions>
[ 6907 6896 6895 6894 ] final  -53.24 input  -60.11 | X-H torsion
[ 7974 7965 7964 7962 ] final   82.74 input  175.53 | X-H torsion
[ 8008 7997 7996 7995 ] final  149.39 input   59.86 | X-H torsion
[ 10167 10162 10161 10158 ] final   69.57 input  -65.29 | X-H torsion
[ 10718 10713 10712 10709 ] final  -97.61 input   66.30 | X-H torsion
[ 10763 10752 10751 10750 ] final   52.90 input  -60.55 | X-H torsion
[ 11005 11000 10999 10996 ] final   78.52 input  -57.11 | X-H torsion

> <Gold.Protein.ActiveResidues>
 VAL166  LYS551  ARG553  GLY616  TRP617  ASP618  TYR619  PRO620  LYS621  CYS622 
 ASP623  PHE694  ASN695  SER759  ASP760  ASP761  ALA762  ILE779  LEU786  VAL792 
 PHE793  MET794  SER795  GLU796  ALA797  LYS798  CYS799  TRP800  GLU811  SER814 

> <Gold.Protein.RotatedAtoms>
  150.8444  134.7748  159.6958 H   0  0  0  0  0  0  0  0  0  0  0  0  # atno 6907 bound_to 6896
  152.4524  134.5361  159.9835 H   0  0  0  0  0  0  0  0  0  0  0  0  # atno 6908 bound_to 6896
  151.5494  133.3382  159.2986 H   0  0  0  0  0  0  0  0  0  0  0  0  # atno 6909 bound_to 6896
  145.6211  139.2386  143.2138 H   0  0  0  0  0  0  0  0  0  0  0  0  # atno 7974 bound_to 7965
  156.2756  140.2103  156.5851 H   0  0  0  0  0  0  0  0  0  0  0  0  # atno 8008 bound_to 7997
  154.7027  140.0519  157.0497 H   0  0  0  0  0  0  0  0  0  0  0  0  # atno 8009 bound_to 7997
  155.0712  140.3177  155.4633 H   0  0  0  0  0  0  0  0  0  0  0  0  # atno 8010 bound_to 7997
  140.0664  144.5190  150.7258 H   0  0  0  0  0  0  0  0  0  0  0  0  # atno 10167 bound_to 10162
  156.0087  130.5202  150.6399 H   0  0  0  0  0  0  0  0  0  0  0  0  # atno 10718 bound_to 10713
  152.9791  135.5797  154.4654 H   0  0  0  0  0  0  0  0  0  0  0  0  # atno 10763 bound_to 10752
  154.4225  135.2772  155.1968 H   0  0  0  0  0  0  0  0  0  0  0  0  # atno 10764 bound_to 10752
  154.3711  135.6167  153.5794 H   0  0  0  0  0  0  0  0  0  0  0  0  # atno 10765 bound_to 10752
  139.9209  134.7770  156.1660 H   0  0  0  0  0  0  0  0  0  0  0  0  # atno 11005 bound_to 11000
  146.1430  140.7031  142.9358 LP  0  0  0  0  0  0  0  0  0  0  0  0  # atno 17320 bound_to 7965
  144.7230  140.4436  143.6993 LP  0  0  0  0  0  0  0  0  0  0  0  0  # atno 17321 bound_to 7965
  140.7147  143.2534  151.4472 LP  0  0  0  0  0  0  0  0  0  0  0  0  # atno 17342 bound_to 10162
  139.5862  144.1599  152.2032 LP  0  0  0  0  0  0  0  0  0  0  0  0  # atno 17343 bound_to 10162
  157.4181  131.0833  151.1157 LP  0  0  0  0  0  0  0  0  0  0  0  0  # atno 17370 bound_to 10713
  157.1767  130.6291  149.5658 LP  0  0  0  0  0  0  0  0  0  0  0  0  # atno 17371 bound_to 10713
  141.0729  133.6788  156.2177 LP  0  0  0  0  0  0  0  0  0  0  0  0  # atno 17394 bound_to 11000
  140.6477  134.5100  157.5575 LP  0  0  0  0  0  0  0  0  0  0  0  0  # atno 17395 bound_to 11000

$$$$
