AV-unprocessed.smi:2091|AV-procd|sdf|8539|dock3
  -GOLD-   2272011263D 1   1.00000     0.00000
 Structure written by MMmdl.
 36 37  0  0  0  0  0  0  0  0  1 V2000
  146.1097  137.7400  154.9464 O   0  0  0  0  0  0  0  0  0  0  0  0
  146.4396  138.0190  153.7930 C   0  0  0  0  0  0  0  0  0  0  0  0
  145.6455  137.4737  152.5979 C   0  0  0  0  0  0  0  0  0  0  0  0
  144.3669  136.8665  152.9944 N   0  0  0  0  0  0  0  0  0  0  0  0
  143.1662  137.4619  152.6348 C   0  0  0  0  0  0  0  0  0  0  0  0
  141.9547  136.9497  152.9563 C   0  0  0  0  0  0  0  0  0  0  0  0
  141.8555  135.7098  153.7188 C   0  0  0  0  0  0  0  0  0  0  0  0
  140.8059  135.1688  154.0592 O   0  0  0  0  0  0  0  0  0  0  0  0
  143.0850  135.1401  154.0594 N   0  0  0  0  0  0  0  0  0  0  0  0
  144.3369  135.6616  153.7300 C   0  0  0  0  0  0  0  0  0  0  0  0
  145.3617  135.0761  154.0775 O   0  0  0  0  0  0  0  0  0  0  0  0
  147.5010  138.7865  153.4978 N   0  0  0  0  0  0  0  0  0  0  0  0
  148.3802  139.4326  154.4748 C   0  0  1  0  0  0  0  0  0  0  0  0
  149.8140  138.9079  154.2330 C   0  0  0  0  0  0  0  0  0  0  0  0
  150.7401  139.0469  155.4541 C   0  0  0  0  0  0  0  0  0  0  0  0
  151.0413  140.4917  155.8810 C   0  0  0  0  0  0  0  0  0  0  0  0
  149.7959  141.2782  156.3244 C   0  0  0  0  0  0  0  0  0  0  0  0
  149.0046  141.7353  155.1896 N   0  0  0  0  0  0  0  0  0  0  0  0
  148.3636  140.9691  154.2939 C   0  0  0  0  0  0  0  0  0  0  0  0
  147.7775  141.4845  153.3421 O   0  0  0  0  0  0  0  0  0  0  0  0
  143.0668  134.2783  154.5849 H   0  0  0  0  0  0  0  0  0  0  0  0
  145.4715  138.2692  151.8702 H   0  0  0  0  0  0  0  0  0  0  0  0
  146.2702  136.7433  152.0821 H   0  0  0  0  0  0  0  0  0  0  0  0
  143.1911  138.3800  152.0650 H   0  0  0  0  0  0  0  0  0  0  0  0
  141.0539  137.4595  152.6465 H   0  0  0  0  0  0  0  0  0  0  0  0
  147.6971  138.9658  152.5239 H   0  0  0  0  0  0  0  0  0  0  0  0
  148.0483  139.1693  155.4808 H   0  0  0  0  0  0  0  0  0  0  0  0
  149.7668  137.8451  153.9894 H   0  0  0  0  0  0  0  0  0  0  0  0
  150.2641  139.3858  153.3608 H   0  0  0  0  0  0  0  0  0  0  0  0
  150.3112  138.5028  156.2964 H   0  0  0  0  0  0  0  0  0  0  0  0
  151.6843  138.5491  155.2311 H   0  0  0  0  0  0  0  0  0  0  0  0
  151.7428  140.4582  156.7151 H   0  0  0  0  0  0  0  0  0  0  0  0
  151.5569  141.0230  155.0794 H   0  0  0  0  0  0  0  0  0  0  0  0
  149.1814  140.6936  157.0104 H   0  0  0  0  0  0  0  0  0  0  0  0
  150.1093  142.1656  156.8746 H   0  0  0  0  0  0  0  0  0  0  0  0
  148.9652  142.7343  155.0483 H   0  0  0  0  0  0  0  0  0  0  0  0
  1  2  2  0  0  0  0
  2  3  1  0  0  0  0
  2 12  1  0  0  0  0
  3  4  1  0  0  0  0
  3 22  1  0  0  0  0
  3 23  1  0  0  0  0
  4 10  1  0  0  0  0
  4  5  1  0  0  0  0
  5  6  2  0  0  0  0
  5 24  1  0  0  0  0
  6  7  1  0  0  0  0
  6 25  1  0  0  0  0
  7  8  2  0  0  0  0
  7  9  1  0  0  0  0
  9 21  1  0  0  0  0
  9 10  1  0  0  0  0
 10 11  2  0  0  0  0
 12 13  1  0  0  0  0
 12 26  1  0  0  0  0
 13 19  1  0  0  0  0
 13 14  1  0  0  0  0
 13 27  1  0  0  0  0
 14 15  1  0  0  0  0
 14 28  1  0  0  0  0
 14 29  1  0  0  0  0
 15 16  1  0  0  0  0
 15 30  1  0  0  0  0
 15 31  1  0  0  0  0
 16 17  1  0  0  0  0
 16 32  1  0  0  0  0
 16 33  1  0  0  0  0
 17 18  1  0  0  0  0
 17 34  1  0  0  0  0
 17 35  1  0  0  0  0
 18 19  1  0  0  0  0
 18 36  1  0  0  0  0
 19 20  2  0  0  0  0
M  END
> <s_m_source_file>
AV-unprocessed.smi

> <i_m_source_file_index>
2091

> <i_lp_mmshare_version>
43012

> <i_f3d_flags>
0

> <s_epik_input>
Tz1jMVtuSF1jKD1PKVtjSF1bY0hdbjFbQ0gyXUMoPU8pW05IXVtDQEBIXTJbQ0gyXVtDSDJdW0NIMl1bQ0gyXVtOSF1DMj1P

> <s_epik_cmdline>
J2VwaWtfcHl0aG9uJywgJy1waCcsICc3LjAnLCAnLXRuJywgJzgnLCAnLW1hJywgJzIwMCcsICctbWV0YWxfYmluZGluZycsICctaW1hZScsICc8aW5maWxlLm1hZT4nLCAnLW9tYWUnLCAnPG91dGZpbGUubWFlPic=

> <r_lp_tautomer_probability>
0.999537

> <r_epik_Ionization_Penalty>
0.00356328

> <r_epik_Ionization_Penalty_Charging>
0.00356323

> <r_epik_Ionization_Penalty_Neutral>
5.33217e-08

> <r_epik_State_Penalty>
0.00253125

> <r_epik_Charging_Adjusted_Penalty>
0.00609448

> <i_epik_Tot_Q>
0

> <i_epik_Tot_abs_Q>
0

> <r_epik_Metal_State_Penalty>
0.368636

> <b_epik_Metal_Only>
0

> <s_lp_Force_Field>
OPLS_2005

> <r_lp_Energy>
10.1396

> <b_lp_Chiralities_Consistent>
1

> <s_lp_Variant>
AV-unprocessed.smi:2091-2

> <Gold.Version>
5.8.1

> <Gold.Id.Protein>
6NUR|6NUR_protein|mol2

> <Gold.PLP.Fitness>
39.1939

> <Gold.PLP.PLP>
-26.8085

> <Gold.PLP.part.hbond>
-3.0473

> <Gold.PLP.part.metal>
0.0000

> <Gold.PLP.part.buried>
-3.9466

> <Gold.PLP.part.nonpolar>
-20.3466

> <Gold.PLP.part.repulsive>
0.6424

> <Gold.PLP.ligand.clash>
0.0000

> <Gold.PLP.ligand.torsion>
0.1844

> <Gold.PLP.Chemscore.Hbond>
2.3298

> <Gold.PLP.Chemscore.CHOScore>
1.9210

> <Gold.PLP.Chemscore.Metal>
0.0000

> <Gold.Chemscore.Hbonds>
donor molecule, donor type, donor heavy atom, donor atom, acceptor molecule, acceptor atom, score
      L1  H    18    36       P1  8028  0.91
      P1  H  8011  8017       L1    20  0.01
      P1  H 11000 11005       L1     8  0.90
      L1  C     5    24       P1 10171  0.93
      L1  C     5    24       P1 10175  1.00

> <Gold.PLP.Chemscore.Internal.Correction>
0.0018

> <Gold.Rescore>
     Score         DG    S(hbond)    S(metal)    S(lipo)     H(rot)  DE(clash)    DE(int)     intcor
     14.47     -14.91       2.81        0.00      41.65       1.88       0.08       0.36       ----

> <Gold.Chemscore.Fitness>
14.4738

> <Gold.Chemscore.DG>
-14.9069

> <Gold.Chemscore.ZeroCoef>
-5.4800

> <Gold.Chemscore.Hbond>
2.8078

> <Gold.Chemscore.Metal>
0.0000

> <Gold.Chemscore.Lipo>
41.6506

> <Gold.Chemscore.Internal_Hbond>
0.0000

> <Gold.Chemscore.DEClash>
0.0775

> <Gold.Chemscore.DEInternal>
0.3556

> <Gold.Chemscore.Rot>
1.8844

> <Gold.Chemscore.Internal.Correction>
   9.000000E+99

> <Gold.Chemscore.Hbonds>
donor molecule, donor type, donor heavy atom, donor atom, acceptor molecule, acceptor atom, score
      L1  H    18    36       P1  8028  0.86
      P1  H  8011  8017       L1    20  0.01
      P1  H 11000 11005       L1     8  0.83

> <Gold.Chemscore.Hbond.Weighted>
-9.3780

> <Gold.Chemscore.Metal.Weighted>
-0.0000

> <Gold.Chemscore.Lipo.Weighted>
-4.8731

> <Gold.Chemscore.Internal_Hbond.Weighted>
0.0000

> <Gold.Chemscore.DEClash.Weighted>
0.0775

> <Gold.Chemscore.DEInternal.Weighted>
0.3556

> <Gold.Chemscore.Rot.Weighted>
4.8242

> <Gold.Chemscore.Internal.Correction.Weighted>
   9.000000E+99

> <Gold.Protein.RotatedTorsions>
[ 6907 6896 6895 6894 ] final  -29.41 input  -60.11 | X-H torsion
[ 7974 7965 7964 7962 ] final  -51.94 input  175.53 | X-H torsion
[ 8008 7997 7996 7995 ] final  -63.40 input   59.86 | X-H torsion
[ 10167 10162 10161 10158 ] final   -6.96 input  -65.29 | X-H torsion
[ 10718 10713 10712 10709 ] final   90.17 input   66.30 | X-H torsion
[ 10763 10752 10751 10750 ] final -157.33 input  -60.55 | X-H torsion
[ 11005 11000 10999 10996 ] final    9.94 input  -57.11 | X-H torsion

> <Gold.Protein.ActiveResidues>
 VAL166  LYS551  ARG553  GLY616  TRP617  ASP618  TYR619  PRO620  LYS621  CYS622 
 ASP623  PHE694  ASN695  SER759  ASP760  ASP761  ALA762  ILE779  LEU786  VAL792 
 PHE793  MET794  SER795  GLU796  ALA797  LYS798  CYS799  TRP800  GLU811  SER814 

> <Gold.Protein.RotatedAtoms>
  151.1195  135.0071  159.8531 H   0  0  0  0  0  0  0  0  0  0  0  0  # atno 6907 bound_to 6896
  152.5447  134.1739  159.8618 H   0  0  0  0  0  0  0  0  0  0  0  0  # atno 6908 bound_to 6896
  151.1796  133.4688  159.2627 H   0  0  0  0  0  0  0  0  0  0  0  0  # atno 6909 bound_to 6896
  145.9134  140.7895  142.9683 H   0  0  0  0  0  0  0  0  0  0  0  0  # atno 7974 bound_to 7965
  154.4552  140.0975  156.6736 H   0  0  0  0  0  0  0  0  0  0  0  0  # atno 8008 bound_to 7997
  155.5160  140.3477  155.4379 H   0  0  0  0  0  0  0  0  0  0  0  0  # atno 8009 bound_to 7997
  156.0763  140.1362  156.9756 H   0  0  0  0  0  0  0  0  0  0  0  0  # atno 8010 bound_to 7997
  140.7014  143.6135  150.8681 H   0  0  0  0  0  0  0  0  0  0  0  0  # atno 10167 bound_to 10162
  157.6958  131.0361  150.3537 H   0  0  0  0  0  0  0  0  0  0  0  0  # atno 10718 bound_to 10713
  154.7644  135.3127  154.8315 H   0  0  0  0  0  0  0  0  0  0  0  0  # atno 10763 bound_to 10752
  153.9067  135.6810  153.4757 H   0  0  0  0  0  0  0  0  0  0  0  0  # atno 10764 bound_to 10752
  153.1248  135.4806  154.9187 H   0  0  0  0  0  0  0  0  0  0  0  0  # atno 10765 bound_to 10752
  140.5200  134.0568  155.7842 H   0  0  0  0  0  0  0  0  0  0  0  0  # atno 11005 bound_to 11000
  144.6745  140.1862  143.7401 LP  0  0  0  0  0  0  0  0  0  0  0  0  # atno 17320 bound_to 7965
  145.8642  139.2238  143.1699 LP  0  0  0  0  0  0  0  0  0  0  0  0  # atno 17321 bound_to 7965
  139.9857  143.5902  152.2928 LP  0  0  0  0  0  0  0  0  0  0  0  0  # atno 17342 bound_to 10162
  139.6539  144.7661  151.2094 LP  0  0  0  0  0  0  0  0  0  0  0  0  # atno 17343 bound_to 10162
  156.3982  130.3911  149.6979 LP  0  0  0  0  0  0  0  0  0  0  0  0  # atno 17370 bound_to 10713
  156.4305  130.7813  151.2832 LP  0  0  0  0  0  0  0  0  0  0  0  0  # atno 17371 bound_to 10713
  141.1339  133.9255  157.2476 LP  0  0  0  0  0  0  0  0  0  0  0  0  # atno 17394 bound_to 11000
  139.9611  135.0154  156.9263 LP  0  0  0  0  0  0  0  0  0  0  0  0  # atno 17395 bound_to 11000

$$$$
