AV-unprocessed.smi:1671|AV-procd|sdf|6700|dock2
  -GOLD-   22720 7433D 1   1.00000     0.00000
 Structure written by MMmdl.
 44 45  0  0  0  0  0  0  0  0  1 V2000
  148.4251  132.6510  154.2917 C   0  0  0  0  0  0  0  0  0  0  0  0
  149.9580  133.5016  154.7565 S   0  0  0  0  0  0  0  0  0  0  0  0
  149.3264  135.1566  155.1650 C   0  0  1  0  0  0  0  0  0  0  0  0
  148.6622  135.1443  156.5507 C   0  0  0  0  0  0  0  0  0  0  0  0
  150.4246  136.2242  155.0878 C   0  0  0  0  0  0  0  0  0  0  0  0
  151.3869  136.1852  155.8554 O   0  0  0  0  0  0  0  0  0  0  0  0
  150.2718  137.1728  154.1504 N   0  0  0  0  0  0  0  0  0  0  0  0
  151.2031  138.2710  153.9142 C   0  0  0  0  0  0  0  0  0  0  0  0
  151.2964  139.2745  155.0551 C   0  0  0  0  0  0  0  0  0  0  0  0
  150.3834  140.3410  155.1943 C   0  0  0  0  0  0  0  0  0  0  0  0
  150.5343  141.2338  156.2722 C   0  0  0  0  0  0  0  0  0  0  0  0
  151.5972  141.0410  157.1866 C   0  0  0  0  0  0  0  0  0  0  0  0
  151.7656  141.9212  158.2778 N   0  0  0  0  0  0  0  0  0  0  0  0
  151.9143  143.3470  157.9924 C   0  0  0  0  0  0  0  0  0  0  0  0
  151.7883  144.1678  159.2859 C   0  0  0  0  0  0  0  0  0  0  0  0
  152.7269  143.6951  160.2464 O   0  0  0  0  0  0  0  0  0  0  0  0
  152.4961  142.3335  160.5973 C   0  0  2  0  0  0  0  0  0  0  0  0
  153.4899  141.9452  161.6969 C   0  0  0  0  0  0  0  0  0  0  0  0
  152.6475  141.4509  159.3431 C   0  0  0  0  0  0  0  0  0  0  0  0
  152.4810  140.0232  157.0397 N   0  0  0  0  0  0  0  0  0  0  0  0
  152.3311  139.1696  156.0055 C   0  0  0  0  0  0  0  0  0  0  0  0
  148.6311  131.6027  154.0768 H   0  0  0  0  0  0  0  0  0  0  0  0
  147.9866  133.1024  153.4020 H   0  0  0  0  0  0  0  0  0  0  0  0
  147.6994  132.7004  155.1034 H   0  0  0  0  0  0  0  0  0  0  0  0
  148.5534  135.3970  154.4331 H   0  0  0  0  0  0  0  0  0  0  0  0
  148.2833  136.1313  156.8190 H   0  0  0  0  0  0  0  0  0  0  0  0
  149.3604  134.8318  157.3281 H   0  0  0  0  0  0  0  0  0  0  0  0
  147.8182  134.4543  156.5706 H   0  0  0  0  0  0  0  0  0  0  0  0
  149.4548  137.1302  153.5587 H   0  0  0  0  0  0  0  0  0  0  0  0
  152.1937  137.8694  153.6934 H   0  0  0  0  0  0  0  0  0  0  0  0
  150.8802  138.8024  153.0187 H   0  0  0  0  0  0  0  0  0  0  0  0
  149.5788  140.4824  154.4879 H   0  0  0  0  0  0  0  0  0  0  0  0
  149.8459  142.0593  156.3744 H   0  0  0  0  0  0  0  0  0  0  0  0
  152.8874  143.5238  157.5320 H   0  0  0  0  0  0  0  0  0  0  0  0
  151.1525  143.6731  157.2831 H   0  0  0  0  0  0  0  0  0  0  0  0
  151.9870  145.2201  159.0833 H   0  0  0  0  0  0  0  0  0  0  0  0
  150.7760  144.1070  159.6887 H   0  0  0  0  0  0  0  0  0  0  0  0
  151.4842  142.2338  160.9947 H   0  0  0  0  0  0  0  0  0  0  0  0
  153.3457  140.9104  162.0082 H   0  0  0  0  0  0  0  0  0  0  0  0
  153.3643  142.5773  162.5763 H   0  0  0  0  0  0  0  0  0  0  0  0
  154.5195  142.0520  161.3540 H   0  0  0  0  0  0  0  0  0  0  0  0
  152.4383  140.4165  159.6112 H   0  0  0  0  0  0  0  0  0  0  0  0
  153.6770  141.4818  158.9832 H   0  0  0  0  0  0  0  0  0  0  0  0
  153.0611  138.3765  155.9372 H   0  0  0  0  0  0  0  0  0  0  0  0
  1  2  1  0  0  0  0
  1 22  1  0  0  0  0
  1 23  1  0  0  0  0
  1 24  1  0  0  0  0
  2  3  1  0  0  0  0
  3  4  1  0  0  0  0
  3  5  1  0  0  0  0
  3 25  1  0  0  0  0
  4 26  1  0  0  0  0
  4 27  1  0  0  0  0
  4 28  1  0  0  0  0
  5  6  2  0  0  0  0
  5  7  1  0  0  0  0
  7  8  1  0  0  0  0
  7 29  1  0  0  0  0
  8  9  1  0  0  0  0
  8 30  1  0  0  0  0
  8 31  1  0  0  0  0
  9 21  1  0  0  0  0
  9 10  2  0  0  0  0
 10 11  1  0  0  0  0
 10 32  1  0  0  0  0
 11 12  2  0  0  0  0
 11 33  1  0  0  0  0
 12 13  1  0  0  0  0
 12 20  1  0  0  0  0
 13 19  1  0  0  0  0
 13 14  1  0  0  0  0
 14 15  1  0  0  0  0
 14 34  1  0  0  0  0
 14 35  1  0  0  0  0
 15 16  1  0  0  0  0
 15 36  1  0  0  0  0
 15 37  1  0  0  0  0
 16 17  1  0  0  0  0
 17 18  1  0  0  0  0
 17 19  1  0  0  0  0
 17 38  1  0  0  0  0
 18 39  1  0  0  0  0
 18 40  1  0  0  0  0
 18 41  1  0  0  0  0
 19 42  1  0  0  0  0
 19 43  1  0  0  0  0
 20 21  2  0  0  0  0
 21 44  1  0  0  0  0
M  END
> <s_m_source_file>
AV-unprocessed.smi

> <i_m_source_file_index>
1671

> <i_lp_mmshare_version>
43012

> <i_f3d_flags>
0

> <s_epik_input>
W0NIM11TW0NASF0oW0NIM10pQyg9TylbTkhdW0NIMl1jMVtjSF1bY0hdYyhuW2NIXTEpTjJbQ0gyXVtDSDJdT1tDQEBIXShbQ0gzXSlbQ0gyXTI=

> <s_epik_cmdline>
J2VwaWtfcHl0aG9uJywgJy1waCcsICc3LjAnLCAnLXRuJywgJzgnLCAnLW1hJywgJzIwMCcsICctbWV0YWxfYmluZGluZycsICctaW1hZScsICc8aW5maWxlLm1hZT4nLCAnLW9tYWUnLCAnPG91dGZpbGUubWFlPic=

> <r_lp_tautomer_probability>
1

> <r_epik_Ionization_Penalty>
0.00480033

> <r_epik_Ionization_Penalty_Charging>
0

> <r_epik_Ionization_Penalty_Neutral>
0.00480033

> <r_epik_State_Penalty>
0.00347981

> <r_epik_Charging_Adjusted_Penalty>
0.00347981

> <i_epik_Tot_Q>
0

> <i_epik_Tot_abs_Q>
0

> <r_epik_Metal_State_Penalty>
-0

> <b_epik_Metal_Only>
0

> <s_lp_Force_Field>
OPLS_2005

> <r_lp_Energy>
15.0592

> <b_lp_Chiralities_Consistent>
1

> <s_lp_Variant>
AV-unprocessed.smi:1671-4

> <Gold.Version>
5.8.1

> <Gold.Id.Protein>
6NUR|6NUR_protein|mol2

> <Gold.PLP.Fitness>
49.2705

> <Gold.PLP.PLP>
-43.4741

> <Gold.PLP.part.hbond>
-3.9524

> <Gold.PLP.part.metal>
0.0000

> <Gold.PLP.part.buried>
-3.3357

> <Gold.PLP.part.nonpolar>
-34.6973

> <Gold.PLP.part.repulsive>
0.1251

> <Gold.PLP.ligand.clash>
0.0000

> <Gold.PLP.ligand.torsion>
0.7600

> <Gold.PLP.Chemscore.Hbond>
2.3040

> <Gold.PLP.Chemscore.CHOScore>
0.0000

> <Gold.PLP.Chemscore.Metal>
0.0000

> <Gold.Chemscore.Hbonds>
donor molecule, donor type, donor heavy atom, donor atom, acceptor molecule, acceptor atom, score
      L1  H     7    29       P1  7948  0.70
      P1  H  7997  8010       L1    20  0.60
      P1  H 10752 10764       L1     6  0.93

> <Gold.PLP.Chemscore.Internal.Correction>
0.4043

> <Gold.Rescore>
     Score         DG    S(hbond)    S(metal)    S(lipo)     H(rot)  DE(clash)    DE(int)     intcor
     18.78     -19.52       1.62        0.00     109.26       1.63       0.05       0.69       ----

> <Gold.Chemscore.Fitness>
18.7825

> <Gold.Chemscore.DG>
-19.5180

> <Gold.Chemscore.ZeroCoef>
-5.4800

> <Gold.Chemscore.Hbond>
1.6228

> <Gold.Chemscore.Metal>
0.0000

> <Gold.Chemscore.Lipo>
109.2618

> <Gold.Chemscore.Internal_Hbond>
0.0000

> <Gold.Chemscore.DEClash>
0.0482

> <Gold.Chemscore.DEInternal>
0.6873

> <Gold.Chemscore.Rot>
1.6272

> <Gold.Chemscore.Internal.Correction>
   9.000000E+99

> <Gold.Chemscore.Hbonds>
donor molecule, donor type, donor heavy atom, donor atom, acceptor molecule, acceptor atom, score
      L1  H     7    29       P1  7948  0.64
      P1  H  7997  8010       L1    20  0.05
      P1  H 10752 10764       L1     6  0.82

> <Gold.Chemscore.Hbond.Weighted>
-5.4201

> <Gold.Chemscore.Metal.Weighted>
-0.0000

> <Gold.Chemscore.Lipo.Weighted>
-12.7836

> <Gold.Chemscore.Internal_Hbond.Weighted>
0.0000

> <Gold.Chemscore.DEClash.Weighted>
0.0482

> <Gold.Chemscore.DEInternal.Weighted>
0.6873

> <Gold.Chemscore.Rot.Weighted>
4.1657

> <Gold.Chemscore.Internal.Correction.Weighted>
   9.000000E+99

> <Gold.Protein.RotatedTorsions>
[ 6907 6896 6895 6894 ] final  152.45 input  -60.11 | X-H torsion
[ 7974 7965 7964 7962 ] final  118.42 input  175.53 | X-H torsion
[ 8008 7997 7996 7995 ] final   44.87 input   59.86 | X-H torsion
[ 10167 10162 10161 10158 ] final   27.18 input  -65.29 | X-H torsion
[ 10718 10713 10712 10709 ] final   14.99 input   66.30 | X-H torsion
[ 10763 10752 10751 10750 ] final  -28.14 input  -60.55 | X-H torsion
[ 11005 11000 10999 10996 ] final -170.64 input  -57.11 | X-H torsion

> <Gold.Protein.ActiveResidues>
 VAL166  LYS551  ARG553  GLY616  TRP617  ASP618  TYR619  PRO620  LYS621  CYS622 
 ASP623  PHE694  ASN695  SER759  ASP760  ASP761  ALA762  ILE779  LEU786  VAL792 
 PHE793  MET794  SER795  GLU796  ALA797  LYS798  CYS799  TRP800  GLU811  SER814 

> <Gold.Protein.RotatedAtoms>
  152.0865  133.4179  159.4524 H   0  0  0  0  0  0  0  0  0  0  0  0  # atno 6907 bound_to 6896
  150.6862  134.2921  159.4680 H   0  0  0  0  0  0  0  0  0  0  0  0  # atno 6908 bound_to 6896
  152.0768  134.9497  160.0624 H   0  0  0  0  0  0  0  0  0  0  0  0  # atno 6909 bound_to 6896
  145.1555  139.3185  143.4544 H   0  0  0  0  0  0  0  0  0  0  0  0  # atno 7974 bound_to 7965
  155.3264  140.3400  155.4240 H   0  0  0  0  0  0  0  0  0  0  0  0  # atno 8008 bound_to 7997
  156.1883  140.1688  156.8179 H   0  0  0  0  0  0  0  0  0  0  0  0  # atno 8009 bound_to 7997
  154.5412  140.0724  156.8496 H   0  0  0  0  0  0  0  0  0  0  0  0  # atno 8010 bound_to 7997
  140.4960  144.0391  150.6314 H   0  0  0  0  0  0  0  0  0  0  0  0  # atno 10167 bound_to 10162
  157.0470  130.6254  149.5761 H   0  0  0  0  0  0  0  0  0  0  0  0  # atno 10718 bound_to 10713
  153.7435  135.6931  153.4961 H   0  0  0  0  0  0  0  0  0  0  0  0  # atno 10763 bound_to 10752
  153.2053  135.4422  155.0314 H   0  0  0  0  0  0  0  0  0  0  0  0  # atno 10764 bound_to 10752
  154.8212  135.3423  154.6959 H   0  0  0  0  0  0  0  0  0  0  0  0  # atno 10765 bound_to 10752
  140.5172  134.5745  157.5037 H   0  0  0  0  0  0  0  0  0  0  0  0  # atno 11005 bound_to 11000
  146.3489  140.1645  142.8590 LP  0  0  0  0  0  0  0  0  0  0  0  0  # atno 17320 bound_to 7965
  145.0386  140.8928  143.5066 LP  0  0  0  0  0  0  0  0  0  0  0  0  # atno 17321 bound_to 7965
  140.3674  143.2874  152.0316 LP  0  0  0  0  0  0  0  0  0  0  0  0  # atno 17342 bound_to 10162
  139.4861  144.6256  151.7170 LP  0  0  0  0  0  0  0  0  0  0  0  0  # atno 17343 bound_to 10162
  156.0019  130.5100  150.7695 LP  0  0  0  0  0  0  0  0  0  0  0  0  # atno 17370 bound_to 10713
  157.5060  131.0922  151.0257 LP  0  0  0  0  0  0  0  0  0  0  0  0  # atno 17371 bound_to 10713
  139.9626  134.7427  156.0205 LP  0  0  0  0  0  0  0  0  0  0  0  0  # atno 17394 bound_to 11000
  141.1354  133.6576  156.3579 LP  0  0  0  0  0  0  0  0  0  0  0  0  # atno 17395 bound_to 11000

$$$$
