AV-unprocessed.smi:253|AV-procd|sdf|1944|dock7
  -GOLD-   2262021 73D 1   1.00000     0.00000
 Structure written by MMmdl.
 52 54  0  0  0  0  0  0  0  0  1 V2000
  145.8570  129.0876  151.9469 C   0  0  0  0  0  0  0  0  0  0  0  0
  145.4938  130.4168  151.2731 C   0  0  0  0  0  0  0  0  0  0  0  0
  145.7593  131.5499  152.1504 N   0  0  0  0  0  0  0  0  0  0  0  0
  145.4650  132.8322  151.8756 C   0  0  0  0  0  0  0  0  0  0  0  0
  144.9288  133.1823  150.8248 O   0  0  0  0  0  0  0  0  0  0  0  0
  145.8219  133.8994  152.9217 C   0  0  0  0  0  0  0  0  0  0  0  0
  144.9504  135.0829  152.8930 N   0  0  0  0  0  0  0  0  0  0  0  0
  143.5488  134.9013  152.5125 C   0  0  0  0  0  0  0  0  0  0  0  0
  142.5788  134.9557  153.7046 C   0  0  0  0  0  0  0  0  0  0  0  0
  145.2924  136.0650  153.7653 C   0  0  0  0  0  0  0  0  0  0  0  0
  145.0149  135.8504  155.0770 N   0  0  0  0  0  0  0  0  0  0  0  0
  145.3239  136.7730  155.9920 C   0  0  0  0  0  0  0  0  0  0  0  0
  145.8975  137.9640  155.8143 N   0  0  0  0  0  0  0  0  0  0  0  0
  146.1635  138.1937  154.4966 C   0  0  0  0  0  0  0  0  0  0  0  0
  145.8960  137.3079  153.4137 C   0  0  0  0  0  0  0  0  0  0  0  0
  146.2938  137.8977  152.2189 N   0  0  0  0  0  0  0  0  0  0  0  0
  146.7762  139.0563  152.5755 C   0  0  0  0  0  0  0  0  0  0  0  0
  146.7314  139.3189  153.9253 N   0  0  0  0  0  0  0  0  0  0  0  0
  147.1910  140.5268  154.5940 C   0  0  0  0  0  0  0  0  0  0  0  0
  148.7247  140.5836  154.8027 C   0  0  0  0  0  0  0  0  0  0  0  0
  149.3024  141.0769  153.6060 O   0  0  0  0  0  0  0  0  0  0  0  0
  149.1348  141.5169  155.9632 C   0  0  0  0  0  0  0  0  0  0  0  0
  150.6340  141.4069  156.2930 C   0  0  0  0  0  0  0  0  0  0  0  0
  150.9778  140.0539  156.5659 O   0  0  0  0  0  0  0  0  0  0  0  0
  150.7752  139.1987  155.4477 C   0  0  0  0  0  0  0  0  0  0  0  0
  149.2838  139.1716  155.0687 C   0  0  0  0  0  0  0  0  0  0  0  0
  145.6190  128.2462  151.2962 H   0  0  0  0  0  0  0  0  0  0  0  0
  145.3056  128.9543  152.8780 H   0  0  0  0  0  0  0  0  0  0  0  0
  146.9216  129.0374  152.1768 H   0  0  0  0  0  0  0  0  0  0  0  0
  146.0367  130.5284  150.3334 H   0  0  0  0  0  0  0  0  0  0  0  0
  144.4333  130.4243  151.0211 H   0  0  0  0  0  0  0  0  0  0  0  0
  146.1948  131.3478  153.0391 H   0  0  0  0  0  0  0  0  0  0  0  0
  145.7734  133.4373  153.9087 H   0  0  0  0  0  0  0  0  0  0  0  0
  146.8672  134.1818  152.7815 H   0  0  0  0  0  0  0  0  0  0  0  0
  143.2781  135.6983  151.8190 H   0  0  0  0  0  0  0  0  0  0  0  0
  143.4269  133.9715  151.9576 H   0  0  0  0  0  0  0  0  0  0  0  0
  141.5465  134.8893  153.3612 H   0  0  0  0  0  0  0  0  0  0  0  0
  142.6852  135.8928  154.2516 H   0  0  0  0  0  0  0  0  0  0  0  0
  142.7397  134.1381  154.4068 H   0  0  0  0  0  0  0  0  0  0  0  0
  145.0754  136.5209  157.0124 H   0  0  0  0  0  0  0  0  0  0  0  0
  147.1736  139.7600  151.8585 H   0  0  0  0  0  0  0  0  0  0  0  0
  146.8621  141.3844  154.0054 H   0  0  0  0  0  0  0  0  0  0  0  0
  146.6747  140.6035  155.5520 H   0  0  0  0  0  0  0  0  0  0  0  0
  148.8958  140.6387  152.8740 H   0  0  0  0  0  0  0  0  0  0  0  0
  148.8857  142.5544  155.7369 H   0  0  0  0  0  0  0  0  0  0  0  0
  148.5646  141.2527  156.8547 H   0  0  0  0  0  0  0  0  0  0  0  0
  151.2461  141.7917  155.4760 H   0  0  0  0  0  0  0  0  0  0  0  0
  150.8662  142.0109  157.1702 H   0  0  0  0  0  0  0  0  0  0  0  0
  151.3897  139.5266  154.6080 H   0  0  0  0  0  0  0  0  0  0  0  0
  151.1105  138.1950  155.7097 H   0  0  0  0  0  0  0  0  0  0  0  0
  148.7298  138.7139  155.8894 H   0  0  0  0  0  0  0  0  0  0  0  0
  149.1297  138.5283  154.2013 H   0  0  0  0  0  0  0  0  0  0  0  0
  1  2  1  0  0  0  0
  1 27  1  0  0  0  0
  1 28  1  0  0  0  0
  1 29  1  0  0  0  0
  2  3  1  0  0  0  0
  2 30  1  0  0  0  0
  2 31  1  0  0  0  0
  3  4  1  0  0  0  0
  3 32  1  0  0  0  0
  4  5  2  0  0  0  0
  4  6  1  0  0  0  0
  6  7  1  0  0  0  0
  6 33  1  0  0  0  0
  6 34  1  0  0  0  0
  7  8  1  0  0  0  0
  7 10  1  0  0  0  0
  8  9  1  0  0  0  0
  8 35  1  0  0  0  0
  8 36  1  0  0  0  0
  9 37  1  0  0  0  0
  9 38  1  0  0  0  0
  9 39  1  0  0  0  0
 10 15  1  0  0  0  0
 10 11  2  0  0  0  0
 11 12  1  0  0  0  0
 12 13  2  0  0  0  0
 12 40  1  0  0  0  0
 13 14  1  0  0  0  0
 14 18  1  0  0  0  0
 14 15  2  0  0  0  0
 15 16  1  0  0  0  0
 16 17  2  0  0  0  0
 17 18  1  0  0  0  0
 17 41  1  0  0  0  0
 18 19  1  0  0  0  0
 19 20  1  0  0  0  0
 19 42  1  0  0  0  0
 19 43  1  0  0  0  0
 20 26  1  0  0  0  0
 20 21  1  0  0  0  0
 20 22  1  0  0  0  0
 21 44  1  0  0  0  0
 22 23  1  0  0  0  0
 22 45  1  0  0  0  0
 22 46  1  0  0  0  0
 23 24  1  0  0  0  0
 23 47  1  0  0  0  0
 23 48  1  0  0  0  0
 24 25  1  0  0  0  0
 25 26  1  0  0  0  0
 25 49  1  0  0  0  0
 25 50  1  0  0  0  0
 26 51  1  0  0  0  0
 26 52  1  0  0  0  0
M  END
> <s_m_source_file>
AV-unprocessed.smi

> <i_m_source_file_index>
253

> <i_lp_mmshare_version>
43012

> <i_f3d_flags>
0

> <s_epik_input>
W0NIM11bQ0gyXVtOSF1DKD1PKVtDSDJdTihbQ0gyXVtDSDNdKWMobltjSF1uMSljKGMxMiluW2NIXW4yW0NIMl1DMyhbT0hdKVtDSDJdW0NIMl1PW0NIMl1bQ0gyXTM=

> <s_epik_cmdline>
J2VwaWtfcHl0aG9uJywgJy1waCcsICc3LjAnLCAnLXRuJywgJzgnLCAnLW1hJywgJzIwMCcsICctbWV0YWxfYmluZGluZycsICctaW1hZScsICc8aW5maWxlLm1hZT4nLCAnLW9tYWUnLCAnPG91dGZpbGUubWFlPic=

> <r_lp_tautomer_probability>
1

> <r_epik_Ionization_Penalty>
0.000710585

> <r_epik_Ionization_Penalty_Charging>
0

> <r_epik_Ionization_Penalty_Neutral>
0.000710585

> <r_epik_State_Penalty>
0.000343566

> <r_epik_Charging_Adjusted_Penalty>
0.000343566

> <i_epik_Tot_Q>
0

> <i_epik_Tot_abs_Q>
0

> <r_epik_Metal_State_Penalty>
-0

> <b_epik_Metal_Only>
0

> <s_lp_Force_Field>
OPLS_2005

> <r_lp_Energy>
18.5015

> <b_lp_Chiralities_Consistent>
1

> <s_lp_Variant>
AV-unprocessed.smi:253-1

> <Gold.Version>
5.8.1

> <Gold.Id.Protein>
6NUR|6NUR_protein|mol2

> <Gold.PLP.Fitness>
40.1383

> <Gold.PLP.PLP>
-37.6847

> <Gold.PLP.part.hbond>
-2.1211

> <Gold.PLP.part.metal>
0.0000

> <Gold.PLP.part.buried>
-7.1608

> <Gold.PLP.part.nonpolar>
-29.0606

> <Gold.PLP.part.repulsive>
0.7223

> <Gold.PLP.ligand.clash>
0.0000

> <Gold.PLP.ligand.torsion>
2.8353

> <Gold.PLP.Chemscore.Hbond>
1.4833

> <Gold.PLP.Chemscore.CHOScore>
0.9007

> <Gold.PLP.Chemscore.Metal>
0.0000

> <Gold.Chemscore.Hbonds>
donor molecule, donor type, donor heavy atom, donor atom, acceptor molecule, acceptor atom, score
      L1  H    21    44       P1  7957  0.64
      P1  H  7989  7998       L1    21  0.08
      P1  H  8011  8017       L1    21  0.25
      L1  C    17    41       P1  7957  0.96

> <Gold.PLP.Chemscore.Internal.Correction>
0.9724

> <Gold.Rescore>
     Score         DG    S(hbond)    S(metal)    S(lipo)     H(rot)  DE(clash)    DE(int)     intcor
      4.11     -10.03       1.18        0.00      71.23       3.01       0.35       5.57       ----

> <Gold.Chemscore.Fitness>
4.1106

> <Gold.Chemscore.DG>
-10.0298

> <Gold.Chemscore.ZeroCoef>
-5.4800

> <Gold.Chemscore.Hbond>
1.1759

> <Gold.Chemscore.Metal>
0.0000

> <Gold.Chemscore.Lipo>
71.2341

> <Gold.Chemscore.Internal_Hbond>
0.0000

> <Gold.Chemscore.DEClash>
0.3475

> <Gold.Chemscore.DEInternal>
5.5717

> <Gold.Chemscore.Rot>
3.0125

> <Gold.Chemscore.Internal.Correction>
   9.000000E+99

> <Gold.Chemscore.Hbonds>
donor molecule, donor type, donor heavy atom, donor atom, acceptor molecule, acceptor atom, score
      L1  H    21    44       P1  7957  0.63
      P1  H  7989  7998       L1    21  0.06

> <Gold.Chemscore.Hbond.Weighted>
-3.9274

> <Gold.Chemscore.Metal.Weighted>
-0.0000

> <Gold.Chemscore.Lipo.Weighted>
-8.3344

> <Gold.Chemscore.Internal_Hbond.Weighted>
0.0000

> <Gold.Chemscore.DEClash.Weighted>
0.3475

> <Gold.Chemscore.DEInternal.Weighted>
5.5717

> <Gold.Chemscore.Rot.Weighted>
7.7120

> <Gold.Chemscore.Internal.Correction.Weighted>
   9.000000E+99

> <Gold.Protein.RotatedTorsions>
[ 6907 6896 6895 6894 ] final -122.89 input  -60.11 | X-H torsion
[ 7974 7965 7964 7962 ] final   69.50 input  175.53 | X-H torsion
[ 8008 7997 7996 7995 ] final -130.70 input   59.86 | X-H torsion
[ 10167 10162 10161 10158 ] final  -61.31 input  -65.29 | X-H torsion
[ 10718 10713 10712 10709 ] final    8.80 input   66.30 | X-H torsion
[ 10763 10752 10751 10750 ] final   46.63 input  -60.55 | X-H torsion
[ 11005 11000 10999 10996 ] final  -75.55 input  -57.11 | X-H torsion

> <Gold.Protein.ActiveResidues>
 VAL166  LYS551  ARG553  GLY616  TRP617  ASP618  TYR619  PRO620  LYS621  CYS622 
 ASP623  PHE694  ASN695  SER759  ASP760  ASP761  ALA762  ILE779  LEU786  VAL792 
 PHE793  MET794  SER795  GLU796  ALA797  LYS798  CYS799  TRP800  GLU811  SER814 

> <Gold.Protein.RotatedAtoms>
  150.8619  133.7631  159.2989 H   0  0  0  0  0  0  0  0  0  0  0  0  # atno 6907 bound_to 6896
  151.5271  135.1066  159.9903 H   0  0  0  0  0  0  0  0  0  0  0  0  # atno 6908 bound_to 6896
  152.4632  133.7823  159.6913 H   0  0  0  0  0  0  0  0  0  0  0  0  # atno 6909 bound_to 6896
  145.7897  139.2928  143.1218 H   0  0  0  0  0  0  0  0  0  0  0  0  # atno 7974 bound_to 7965
  155.3001  140.0452  157.3029 H   0  0  0  0  0  0  0  0  0  0  0  0  # atno 8008 bound_to 7997
  154.5491  140.2312  155.8481 H   0  0  0  0  0  0  0  0  0  0  0  0  # atno 8009 bound_to 7997
  156.1951  140.3040  155.9417 H   0  0  0  0  0  0  0  0  0  0  0  0  # atno 8010 bound_to 7997
  140.6014  143.2362  151.5919 H   0  0  0  0  0  0  0  0  0  0  0  0  # atno 10167 bound_to 10162
  156.9569  130.5918  149.5660 H   0  0  0  0  0  0  0  0  0  0  0  0  # atno 10718 bound_to 10713
  152.9808  135.6002  154.3631 H   0  0  0  0  0  0  0  0  0  0  0  0  # atno 10763 bound_to 10752
  154.3310  135.2768  155.2473 H   0  0  0  0  0  0  0  0  0  0  0  0  # atno 10764 bound_to 10752
  154.4597  135.5969  153.6303 H   0  0  0  0  0  0  0  0  0  0  0  0  # atno 10765 bound_to 10752
  141.1646  133.6950  156.7534 H   0  0  0  0  0  0  0  0  0  0  0  0  # atno 11005 bound_to 11000
  145.9990  140.8537  143.0028 LP  0  0  0  0  0  0  0  0  0  0  0  0  # atno 17320 bound_to 7965
  144.6783  140.2324  143.7353 LP  0  0  0  0  0  0  0  0  0  0  0  0  # atno 17321 bound_to 7965
  139.5294  144.2962  152.1112 LP  0  0  0  0  0  0  0  0  0  0  0  0  # atno 17342 bound_to 10162
  140.2143  144.4531  150.6371 LP  0  0  0  0  0  0  0  0  0  0  0  0  # atno 17343 bound_to 10162
  156.0338  130.5428  150.8603 LP  0  0  0  0  0  0  0  0  0  0  0  0  # atno 17370 bound_to 10713
  157.5684  131.0946  150.9455 LP  0  0  0  0  0  0  0  0  0  0  0  0  # atno 17371 bound_to 10713
  140.2587  134.8483  157.3738 LP  0  0  0  0  0  0  0  0  0  0  0  0  # atno 17394 bound_to 11000
  140.1632  134.4703  155.7881 LP  0  0  0  0  0  0  0  0  0  0  0  0  # atno 17395 bound_to 11000

$$$$
