AV-unprocessed.smi:2232|AV-procd|sdf|9039|dock5
  -GOLD-   2272012243D 1   1.00000     0.00000
 Structure written by MMmdl.
 43 44  0  0  0  0  0  0  0  0  2 V2000
  151.3602  145.0923  159.6497 C   0  0  0  0  0  0  0  0  0  0  0  0
  151.8208  143.6857  159.3299 C   0  0  0  0  0  0  0  0  0  0  0  0
  152.9663  143.1441  159.9437 C   0  0  0  0  0  0  0  0  0  0  0  0
  153.3451  141.8308  159.6027 C   0  0  0  0  0  0  0  0  0  0  0  0
  154.5641  141.1842  160.2262 C   0  0  0  0  0  0  0  0  0  0  0  0
  152.6631  141.0739  158.7169 N   0  0  0  0  0  0  0  0  0  0  0  0
  151.5592  141.5859  158.1183 C   0  0  0  0  0  0  0  0  0  0  0  0
  150.7770  140.8744  157.1701 N   0  0  0  0  0  0  0  0  0  0  0  0
  151.2023  140.0584  156.1897 C   0  0  0  0  0  0  0  0  0  0  0  0
  152.3770  139.7656  155.9634 O   0  0  0  0  0  0  0  0  0  0  0  0
  150.1767  139.5892  155.4640 N   0  0  0  0  0  0  0  0  0  0  0  0
  150.3108  138.6857  154.3270 C   0  0  0  0  0  0  0  0  0  0  0  0
  150.8209  137.2987  154.7645 C   0  0  0  0  0  0  0  0  0  0  0  0
  149.7872  136.2432  154.6252 N   0  3  0  0  0  0  0  0  0  0  0  0
  150.3510  134.8803  154.7762 C   0  0  0  0  0  0  0  0  0  0  0  0
  149.2564  133.8177  154.5809 C   0  0  0  0  0  0  0  0  0  0  0  0
  148.2032  134.0424  155.5093 O   0  0  0  0  0  0  0  0  0  0  0  0
  147.5910  135.3118  155.3207 C   0  0  0  0  0  0  0  0  0  0  0  0
  148.6293  136.4260  155.5362 C   0  0  0  0  0  0  0  0  0  0  0  0
  151.1098  142.8943  158.4053 C   0  0  0  0  0  0  0  0  0  0  0  0
  151.8505  145.4739  160.5459 H   0  0  0  0  0  0  0  0  0  0  0  0
  150.2830  145.1117  159.8179 H   0  0  0  0  0  0  0  0  0  0  0  0
  151.5917  145.7615  158.8207 H   0  0  0  0  0  0  0  0  0  0  0  0
  153.5393  143.7194  160.6562 H   0  0  0  0  0  0  0  0  0  0  0  0
  155.0758  141.8716  160.9004 H   0  0  0  0  0  0  0  0  0  0  0  0
  155.2692  140.8783  159.4528 H   0  0  0  0  0  0  0  0  0  0  0  0
  154.2739  140.3010  160.7959 H   0  0  0  0  0  0  0  0  0  0  0  0
  149.7800  141.0144  157.2396 H   0  0  0  0  0  0  0  0  0  0  0  0
  149.2414  139.8741  155.7170 H   0  0  0  0  0  0  0  0  0  0  0  0
  149.3510  138.6166  153.8145 H   0  0  0  0  0  0  0  0  0  0  0  0
  151.0093  139.1322  153.6188 H   0  0  0  0  0  0  0  0  0  0  0  0
  151.6788  137.0427  154.1409 H   0  0  0  0  0  0  0  0  0  0  0  0
  151.1841  137.3169  155.7933 H   0  0  0  0  0  0  0  0  0  0  0  0
  151.1461  134.7240  154.0462 H   0  0  0  0  0  0  0  0  0  0  0  0
  150.7987  134.7769  155.7660 H   0  0  0  0  0  0  0  0  0  0  0  0
  148.8703  133.8378  153.5606 H   0  0  0  0  0  0  0  0  0  0  0  0
  149.6666  132.8214  154.7466 H   0  0  0  0  0  0  0  0  0  0  0  0
  147.1533  135.3740  154.3231 H   0  0  0  0  0  0  0  0  0  0  0  0
  146.7733  135.4182  156.0339 H   0  0  0  0  0  0  0  0  0  0  0  0
  148.9728  136.4167  156.5719 H   0  0  0  0  0  0  0  0  0  0  0  0
  148.1564  137.3925  155.3665 H   0  0  0  0  0  0  0  0  0  0  0  0
  150.2290  143.2910  157.9212 H   0  0  0  0  0  0  0  0  0  0  0  0
  149.4357  136.3020  153.6803 H   0  0  0  0  0  0  0  0  0  0  0  0
  1  2  1  0  0  0  0
  1 21  1  0  0  0  0
  1 22  1  0  0  0  0
  1 23  1  0  0  0  0
  2 20  1  0  0  0  0
  2  3  2  0  0  0  0
  3  4  1  0  0  0  0
  3 24  1  0  0  0  0
  4  5  1  0  0  0  0
  4  6  2  0  0  0  0
  5 25  1  0  0  0  0
  5 26  1  0  0  0  0
  5 27  1  0  0  0  0
  6  7  1  0  0  0  0
  7  8  1  0  0  0  0
  7 20  2  0  0  0  0
  8  9  1  0  0  0  0
  8 28  1  0  0  0  0
  9 10  2  0  0  0  0
  9 11  1  0  0  0  0
 11 12  1  0  0  0  0
 11 29  1  0  0  0  0
 12 13  1  0  0  0  0
 12 30  1  0  0  0  0
 12 31  1  0  0  0  0
 13 14  1  0  0  0  0
 13 32  1  0  0  0  0
 13 33  1  0  0  0  0
 14 19  1  0  0  0  0
 14 15  1  0  0  0  0
 14 43  1  0  0  0  0
 15 16  1  0  0  0  0
 15 34  1  0  0  0  0
 15 35  1  0  0  0  0
 16 17  1  0  0  0  0
 16 36  1  0  0  0  0
 16 37  1  0  0  0  0
 17 18  1  0  0  0  0
 18 19  1  0  0  0  0
 18 38  1  0  0  0  0
 18 39  1  0  0  0  0
 19 40  1  0  0  0  0
 19 41  1  0  0  0  0
 20 42  1  0  0  0  0
M  CHG  1  14   1
M  END
> <s_m_source_file>
AV-unprocessed.smi

> <i_m_source_file_index>
2232

> <i_lp_mmshare_version>
43012

> <i_f3d_flags>
0

> <s_epik_input>
W0NIM11jMVtjSF1jKFtDSDNdKW5jKFtjSF0xKVtOSF1DKD1PKVtOSF1bQ0gyXVtDSDJdTjJbQ0gyXVtDSDJdT1tDSDJdW0NIMl0y

> <s_epik_cmdline>
J2VwaWtfcHl0aG9uJywgJy1waCcsICc3LjAnLCAnLXRuJywgJzgnLCAnLW1hJywgJzIwMCcsICctbWV0YWxfYmluZGluZycsICctaW1hZScsICc8aW5maWxlLm1hZT4nLCAnLW9tYWUnLCAnPG91dGZpbGUubWFlPic=

> <r_epik_Ionization_Penalty>
0.602717

> <r_epik_Ionization_Penalty_Charging>
0.602531

> <r_epik_Ionization_Penalty_Neutral>
0.000186219

> <r_epik_State_Penalty>
0.617039

> <r_epik_Charging_Adjusted_Penalty>
1.21957

> <i_epik_Tot_Q>
1

> <i_epik_Tot_abs_Q>
1

> <r_epik_Metal_State_Penalty>
0.617067

> <b_epik_Metal_Only>
0

> <s_lp_Force_Field>
OPLS_2005

> <r_lp_Energy>
15.6528

> <b_lp_Chiralities_Consistent>
1

> <s_lp_Variant>
AV-unprocessed.smi:2232-2

> <Gold.Version>
5.8.1

> <Gold.Id.Protein>
6NUR|6NUR_protein|mol2

> <Gold.PLP.Fitness>
48.5944

> <Gold.PLP.PLP>
-41.0220

> <Gold.PLP.part.hbond>
-2.1966

> <Gold.PLP.part.metal>
0.0000

> <Gold.PLP.part.buried>
-5.2646

> <Gold.PLP.part.nonpolar>
-33.8138

> <Gold.PLP.part.repulsive>
0.2938

> <Gold.PLP.ligand.clash>
0.0000

> <Gold.PLP.ligand.torsion>
0.7247

> <Gold.PLP.Chemscore.Hbond>
3.0000

> <Gold.PLP.Chemscore.CHOScore>
0.0000

> <Gold.PLP.Chemscore.Metal>
0.0000

> <Gold.Chemscore.Hbonds>
donor molecule, donor type, donor heavy atom, donor atom, acceptor molecule, acceptor atom, score
      L1  H    14    43       P1  7948  2.00
      P1  H  7997  8010       L1    10  0.75

> <Gold.PLP.Chemscore.Internal.Correction>
0.0217

> <Gold.Rescore>
     Score         DG    S(hbond)    S(metal)    S(lipo)     H(rot)  DE(clash)    DE(int)     intcor
     17.02     -18.86       1.98        0.00      90.37       1.49       0.13       1.71       ----

> <Gold.Chemscore.Fitness>
17.0231

> <Gold.Chemscore.DG>
-18.8598

> <Gold.Chemscore.ZeroCoef>
-5.4800

> <Gold.Chemscore.Hbond>
1.9847

> <Gold.Chemscore.Metal>
0.0000

> <Gold.Chemscore.Lipo>
90.3669

> <Gold.Chemscore.Internal_Hbond>
0.0000

> <Gold.Chemscore.DEClash>
0.1252

> <Gold.Chemscore.DEInternal>
1.7115

> <Gold.Chemscore.Rot>
1.4930

> <Gold.Chemscore.Internal.Correction>
   9.000000E+99

> <Gold.Chemscore.Hbonds>
donor molecule, donor type, donor heavy atom, donor atom, acceptor molecule, acceptor atom, score
      L1  H    14    43       P1  7948  0.74
      P1  H  7997  8010       L1    10  0.72

> <Gold.Chemscore.Hbond.Weighted>
-6.6288

> <Gold.Chemscore.Metal.Weighted>
-0.0000

> <Gold.Chemscore.Lipo.Weighted>
-10.5729

> <Gold.Chemscore.Internal_Hbond.Weighted>
0.0000

> <Gold.Chemscore.DEClash.Weighted>
0.1252

> <Gold.Chemscore.DEInternal.Weighted>
1.7115

> <Gold.Chemscore.Rot.Weighted>
3.8220

> <Gold.Chemscore.Internal.Correction.Weighted>
   9.000000E+99

> <Gold.Protein.RotatedTorsions>
[ 6907 6896 6895 6894 ] final  108.27 input  -60.11 | X-H torsion
[ 7974 7965 7964 7962 ] final -126.09 input  175.53 | X-H torsion
[ 8008 7997 7996 7995 ] final   60.76 input   59.86 | X-H torsion
[ 10167 10162 10161 10158 ] final   79.20 input  -65.29 | X-H torsion
[ 10718 10713 10712 10709 ] final  100.06 input   66.30 | X-H torsion
[ 10763 10752 10751 10750 ] final   67.71 input  -60.55 | X-H torsion
[ 11005 11000 10999 10996 ] final  -48.89 input  -57.11 | X-H torsion

> <Gold.Protein.ActiveResidues>
 VAL166  LYS551  ARG553  GLY616  TRP617  ASP618  TYR619  PRO620  LYS621  CYS622 
 ASP623  PHE694  ASN695  SER759  ASP760  ASP761  ALA762  ILE779  LEU786  VAL792 
 PHE793  MET794  SER795  GLU796  ALA797  LYS798  CYS799  TRP800  GLU811  SER814 

> <Gold.Protein.RotatedAtoms>
  152.5119  133.9113  159.7489 H   0  0  0  0  0  0  0  0  0  0  0  0  # atno 6907 bound_to 6896
  150.9506  133.6545  159.2779 H   0  0  0  0  0  0  0  0  0  0  0  0  # atno 6908 bound_to 6896
  151.3825  135.0947  159.9553 H   0  0  0  0  0  0  0  0  0  0  0  0  # atno 6909 bound_to 6896
  144.9908  140.7730  143.4555 H   0  0  0  0  0  0  0  0  0  0  0  0  # atno 7974 bound_to 7965
  155.5875  140.3492  155.4557 H   0  0  0  0  0  0  0  0  0  0  0  0  # atno 8008 bound_to 7997
  156.0326  140.1278  157.0267 H   0  0  0  0  0  0  0  0  0  0  0  0  # atno 8009 bound_to 7997
  154.4358  140.1040  156.6107 H   0  0  0  0  0  0  0  0  0  0  0  0  # atno 8010 bound_to 7997
  139.9628  144.5949  150.8056 H   0  0  0  0  0  0  0  0  0  0  0  0  # atno 10167 bound_to 10162
  157.6862  131.0687  150.5043 H   0  0  0  0  0  0  0  0  0  0  0  0  # atno 10718 bound_to 10713
  153.0199  135.5274  154.7022 H   0  0  0  0  0  0  0  0  0  0  0  0  # atno 10763 bound_to 10752
  154.6127  135.2880  155.0416 H   0  0  0  0  0  0  0  0  0  0  0  0  # atno 10764 bound_to 10752
  154.1431  135.6575  153.4999 H   0  0  0  0  0  0  0  0  0  0  0  0  # atno 10765 bound_to 10752
  141.0727  133.6674  156.3506 H   0  0  0  0  0  0  0  0  0  0  0  0  # atno 11005 bound_to 11000
  145.2288  139.2125  143.5054 LP  0  0  0  0  0  0  0  0  0  0  0  0  # atno 17320 bound_to 7965
  146.3431  140.2160  142.8590 LP  0  0  0  0  0  0  0  0  0  0  0  0  # atno 17321 bound_to 7965
  140.7547  143.3033  151.3026 LP  0  0  0  0  0  0  0  0  0  0  0  0  # atno 17342 bound_to 10162
  139.6540  144.0309  152.2647 LP  0  0  0  0  0  0  0  0  0  0  0  0  # atno 17343 bound_to 10162
  156.5363  130.4197  149.6176 LP  0  0  0  0  0  0  0  0  0  0  0  0  # atno 17370 bound_to 10713
  156.3024  130.7184  151.2059 LP  0  0  0  0  0  0  0  0  0  0  0  0  # atno 17371 bound_to 10713
  140.5639  134.5907  157.5441 LP  0  0  0  0  0  0  0  0  0  0  0  0  # atno 17394 bound_to 11000
  139.9540  134.7567  156.0384 LP  0  0  0  0  0  0  0  0  0  0  0  0  # atno 17395 bound_to 11000

$$$$
