AV-unprocessed.smi:3341|AV-procd|sdf|12885|dock10
  -GOLD-   2272019293D 1   1.00000     0.00000
 Structure written by MMmdl.
 46 47  0  0  0  0  0  0  0  0  2 V2000
  151.8956  145.4988  159.7611 C   0  0  0  0  0  0  0  0  0  0  0  0
  152.4987  144.8767  158.4961 C   0  0  0  0  0  0  0  0  0  0  0  0
  152.1176  143.4859  158.3467 N   0  0  0  0  0  0  0  0  0  0  0  0
  151.0685  142.9618  157.6177 C   0  0  0  0  0  0  0  0  0  0  0  0
  151.1347  141.6088  157.7959 C   0  0  0  0  0  0  0  0  0  0  0  0
  150.2956  140.5904  157.2770 N   0  0  0  0  0  0  0  0  0  0  0  0
  150.4312  139.9372  156.1116 C   0  0  0  0  0  0  0  0  0  0  0  0
  151.3394  140.1154  155.2997 O   0  0  0  0  0  0  0  0  0  0  0  0
  149.4464  139.0454  155.9341 N   0  0  0  0  0  0  0  0  0  0  0  0
  149.3034  138.1787  154.7701 C   0  0  0  0  0  0  0  0  0  0  0  0
  148.2289  137.0979  154.9984 C   0  0  0  0  0  0  0  0  0  0  0  0
  148.6984  135.7422  154.6162 N   0  3  1  0  0  0  0  0  0  0  0  0
  149.9497  135.3624  155.3218 C   0  0  0  0  0  0  0  0  0  0  0  0
  150.4992  134.0265  154.7977 C   0  0  0  0  0  0  0  0  0  0  0  0
  149.4464  132.9151  154.9091 C   0  0  0  0  0  0  0  0  0  0  0  0
  148.1263  133.3270  154.2320 C   0  0  2  0  0  0  0  0  0  0  0  0
  148.2075  133.2954  152.6955 C   0  0  0  0  0  0  0  0  0  0  0  0
  147.6500  134.6953  154.7624 C   0  0  0  0  0  0  0  0  0  0  0  0
  152.2488  141.3842  158.6457 C   0  0  0  0  0  0  0  0  0  0  0  0
  152.8390  142.5236  158.9733 N   0  0  0  0  0  0  0  0  0  0  0  0
  152.1984  146.5410  159.8626 H   0  0  0  0  0  0  0  0  0  0  0  0
  152.2237  144.9680  160.6553 H   0  0  0  0  0  0  0  0  0  0  0  0
  150.8059  145.4703  159.7346 H   0  0  0  0  0  0  0  0  0  0  0  0
  152.1763  145.4269  157.6110 H   0  0  0  0  0  0  0  0  0  0  0  0
  153.5871  144.9385  158.5285 H   0  0  0  0  0  0  0  0  0  0  0  0
  150.3910  143.5882  157.0565 H   0  0  0  0  0  0  0  0  0  0  0  0
  149.5084  140.3347  157.8549 H   0  0  0  0  0  0  0  0  0  0  0  0
  148.7409  138.9665  156.6523 H   0  0  0  0  0  0  0  0  0  0  0  0
  149.0438  138.8159  153.9259 H   0  0  0  0  0  0  0  0  0  0  0  0
  150.2630  137.7185  154.5278 H   0  0  0  0  0  0  0  0  0  0  0  0
  147.9667  137.0958  156.0574 H   0  0  0  0  0  0  0  0  0  0  0  0
  147.3130  137.3389  154.4567 H   0  0  0  0  0  0  0  0  0  0  0  0
  150.7054  136.1359  155.1793 H   0  0  0  0  0  0  0  0  0  0  0  0
  149.7589  135.2984  156.3943 H   0  0  0  0  0  0  0  0  0  0  0  0
  150.8146  134.1397  153.7599 H   0  0  0  0  0  0  0  0  0  0  0  0
  151.3920  133.7476  155.3582 H   0  0  0  0  0  0  0  0  0  0  0  0
  149.8261  131.9878  154.4787 H   0  0  0  0  0  0  0  0  0  0  0  0
  149.2590  132.7073  155.9636 H   0  0  0  0  0  0  0  0  0  0  0  0
  147.3745  132.5883  154.5135 H   0  0  0  0  0  0  0  0  0  0  0  0
  148.9213  134.0228  152.3091 H   0  0  0  0  0  0  0  0  0  0  0  0
  147.2381  133.5182  152.2485 H   0  0  0  0  0  0  0  0  0  0  0  0
  148.5118  132.3107  152.3396 H   0  0  0  0  0  0  0  0  0  0  0  0
  147.3823  134.6073  155.8167 H   0  0  0  0  0  0  0  0  0  0  0  0
  146.7400  134.9844  154.2379 H   0  0  0  0  0  0  0  0  0  0  0  0
  152.6409  140.4533  159.0279 H   0  0  0  0  0  0  0  0  0  0  0  0
  148.9346  135.7886  153.6353 H   0  0  0  0  0  0  0  0  0  0  0  0
  1  2  1  0  0  0  0
  1 21  1  0  0  0  0
  1 22  1  0  0  0  0
  1 23  1  0  0  0  0
  2  3  1  0  0  0  0
  2 24  1  0  0  0  0
  2 25  1  0  0  0  0
  3 20  1  0  0  0  0
  3  4  1  0  0  0  0
  4  5  2  0  0  0  0
  4 26  1  0  0  0  0
  5  6  1  0  0  0  0
  5 19  1  0  0  0  0
  6  7  1  0  0  0  0
  6 27  1  0  0  0  0
  7  8  2  0  0  0  0
  7  9  1  0  0  0  0
  9 10  1  0  0  0  0
  9 28  1  0  0  0  0
 10 11  1  0  0  0  0
 10 29  1  0  0  0  0
 10 30  1  0  0  0  0
 11 12  1  0  0  0  0
 11 31  1  0  0  0  0
 11 32  1  0  0  0  0
 12 18  1  0  0  0  0
 12 13  1  0  0  0  0
 12 46  1  0  0  0  0
 13 14  1  0  0  0  0
 13 33  1  0  0  0  0
 13 34  1  0  0  0  0
 14 15  1  0  0  0  0
 14 35  1  0  0  0  0
 14 36  1  0  0  0  0
 15 16  1  0  0  0  0
 15 37  1  0  0  0  0
 15 38  1  0  0  0  0
 16 17  1  0  0  0  0
 16 18  1  0  0  0  0
 16 39  1  0  0  0  0
 17 40  1  0  0  0  0
 17 41  1  0  0  0  0
 17 42  1  0  0  0  0
 18 43  1  0  0  0  0
 18 44  1  0  0  0  0
 19 20  2  0  0  0  0
 19 45  1  0  0  0  0
M  CHG  1  12   1
M  END
> <s_m_source_file>
AV-unprocessed.smi

> <i_m_source_file_index>
3341

> <i_lp_mmshare_version>
43012

> <i_f3d_flags>
0

> <s_epik_input>
W0NIM11bQ0gyXW4xW2NIXWMoW2NIXW4xKVtOSF1DKD1PKVtOSF1bQ0gyXVtDSDJdTjJbQ0gyXVtDSDJdW0NIMl1bQ0BASF0oW0NIM10pW0NIMl0y

> <s_epik_cmdline>
J2VwaWtfcHl0aG9uJywgJy1waCcsICc3LjAnLCAnLXRuJywgJzgnLCAnLW1hJywgJzIwMCcsICctbWV0YWxfYmluZGluZycsICctaW1hZScsICc8aW5maWxlLm1hZT4nLCAnLW9tYWUnLCAnPG91dGZpbGUubWFlPic=

> <r_lp_tautomer_probability>
1

> <r_epik_Ionization_Penalty>
0.00203389

> <r_epik_Ionization_Penalty_Charging>
0.00188267

> <r_epik_Ionization_Penalty_Neutral>
0.000151224

> <r_epik_State_Penalty>
0.0012808

> <r_epik_Charging_Adjusted_Penalty>
0.00316346

> <i_epik_Tot_Q>
1

> <i_epik_Tot_abs_Q>
1

> <r_epik_Metal_State_Penalty>
-0

> <b_epik_Metal_Only>
0

> <s_lp_Force_Field>
OPLS_2005

> <r_lp_Energy>
23.1635

> <b_lp_Chiralities_Consistent>
1

> <s_lp_Variant>
AV-unprocessed.smi:3341-3

> <Gold.Version>
5.8.1

> <Gold.Id.Protein>
6NUR|6NUR_protein|mol2

> <Gold.PLP.Fitness>
45.1259

> <Gold.PLP.PLP>
-36.0938

> <Gold.PLP.part.hbond>
-2.0000

> <Gold.PLP.part.metal>
0.0000

> <Gold.PLP.part.buried>
-4.9302

> <Gold.PLP.part.nonpolar>
-29.5128

> <Gold.PLP.part.repulsive>
0.0671

> <Gold.PLP.ligand.clash>
0.0000

> <Gold.PLP.ligand.torsion>
1.4987

> <Gold.PLP.Chemscore.Hbond>
3.0000

> <Gold.PLP.Chemscore.CHOScore>
1.0000

> <Gold.PLP.Chemscore.Metal>
0.0000

> <Gold.Chemscore.Hbonds>
donor molecule, donor type, donor heavy atom, donor atom, acceptor molecule, acceptor atom, score
      L1  H    12    46       P1  7948  2.00
      P1  H  7989  7998       L1     8  1.00
      L1  C     4    26       P1  8028  1.00

> <Gold.PLP.Chemscore.Internal.Correction>
0.0294

> <Gold.Rescore>
     Score         DG    S(hbond)    S(metal)    S(lipo)     H(rot)  DE(clash)    DE(int)     intcor
     16.64     -18.20       1.99        0.00      86.76       1.59       0.07       1.50       ----

> <Gold.Chemscore.Fitness>
16.6359

> <Gold.Chemscore.DG>
-18.2010

> <Gold.Chemscore.ZeroCoef>
-5.4800

> <Gold.Chemscore.Hbond>
1.9890

> <Gold.Chemscore.Metal>
0.0000

> <Gold.Chemscore.Lipo>
86.7564

> <Gold.Chemscore.Internal_Hbond>
0.0000

> <Gold.Chemscore.DEClash>
0.0670

> <Gold.Chemscore.DEInternal>
1.4981

> <Gold.Chemscore.Rot>
1.5909

> <Gold.Chemscore.Internal.Correction>
   9.000000E+99

> <Gold.Chemscore.Hbonds>
donor molecule, donor type, donor heavy atom, donor atom, acceptor molecule, acceptor atom, score
      L1  H    12    46       P1  7948  0.94
      P1  H  7989  7998       L1     8  0.95

> <Gold.Chemscore.Hbond.Weighted>
-6.6433

> <Gold.Chemscore.Metal.Weighted>
-0.0000

> <Gold.Chemscore.Lipo.Weighted>
-10.1505

> <Gold.Chemscore.Internal_Hbond.Weighted>
0.0000

> <Gold.Chemscore.DEClash.Weighted>
0.0670

> <Gold.Chemscore.DEInternal.Weighted>
1.4981

> <Gold.Chemscore.Rot.Weighted>
4.0728

> <Gold.Chemscore.Internal.Correction.Weighted>
   9.000000E+99

> <Gold.Protein.RotatedTorsions>
[ 6907 6896 6895 6894 ] final  -86.59 input  -60.11 | X-H torsion
[ 7974 7965 7964 7962 ] final   17.53 input  175.53 | X-H torsion
[ 8008 7997 7996 7995 ] final  173.72 input   59.86 | X-H torsion
[ 10167 10162 10161 10158 ] final  166.93 input  -65.29 | X-H torsion
[ 10718 10713 10712 10709 ] final  -80.06 input   66.30 | X-H torsion
[ 10763 10752 10751 10750 ] final  -83.05 input  -60.55 | X-H torsion
[ 11005 11000 10999 10996 ] final   80.93 input  -57.11 | X-H torsion

> <Gold.Protein.ActiveResidues>
 VAL166  LYS551  ARG553  GLY616  TRP617  ASP618  TYR619  PRO620  LYS621  CYS622 
 ASP623  PHE694  ASN695  SER759  ASP760  ASP761  ALA762  ILE779  LEU786  VAL792 
 PHE793  MET794  SER795  GLU796  ALA797  LYS798  CYS799  TRP800  GLU811  SER814 

> <Gold.Protein.RotatedAtoms>
  150.6867  134.3027  159.4712 H   0  0  0  0  0  0  0  0  0  0  0  0  # atno 6907 bound_to 6896
  152.0921  134.9397  160.0581 H   0  0  0  0  0  0  0  0  0  0  0  0  # atno 6908 bound_to 6896
  152.0709  133.4071  159.4496 H   0  0  0  0  0  0  0  0  0  0  0  0  # atno 6909 bound_to 6896
  146.2215  139.8589  142.8608 H   0  0  0  0  0  0  0  0  0  0  0  0  # atno 7974 bound_to 7965
  156.1047  140.1453  156.9421 H   0  0  0  0  0  0  0  0  0  0  0  0  # atno 8008 bound_to 7997
  154.4725  140.0905  156.7226 H   0  0  0  0  0  0  0  0  0  0  0  0  # atno 8009 bound_to 7997
  155.4700  140.3441  155.4326 H   0  0  0  0  0  0  0  0  0  0  0  0  # atno 8010 bound_to 7997
  139.4935  144.3975  151.9448 H   0  0  0  0  0  0  0  0  0  0  0  0  # atno 10167 bound_to 10162
  156.0078  130.4563  150.3743 H   0  0  0  0  0  0  0  0  0  0  0  0  # atno 10718 bound_to 10713
  154.5831  135.5570  153.7205 H   0  0  0  0  0  0  0  0  0  0  0  0  # atno 10763 bound_to 10752
  153.0089  135.6325  154.1954 H   0  0  0  0  0  0  0  0  0  0  0  0  # atno 10764 bound_to 10752
  154.1895  135.2883  155.3006 H   0  0  0  0  0  0  0  0  0  0  0  0  # atno 10765 bound_to 10752
  139.9116  134.7958  156.1974 H   0  0  0  0  0  0  0  0  0  0  0  0  # atno 11005 bound_to 11000
  145.2725  141.0113  143.3764 LP  0  0  0  0  0  0  0  0  0  0  0  0  # atno 17320 bound_to 7965
  144.9212  139.4409  143.6540 LP  0  0  0  0  0  0  0  0  0  0  0  0  # atno 17321 bound_to 7965
  140.3413  144.3199  150.5966 LP  0  0  0  0  0  0  0  0  0  0  0  0  # atno 17342 bound_to 10162
  140.5563  143.2198  151.7842 LP  0  0  0  0  0  0  0  0  0  0  0  0  # atno 17343 bound_to 10162
  157.1826  131.0396  151.2741 LP  0  0  0  0  0  0  0  0  0  0  0  0  # atno 17370 bound_to 10713
  157.4133  130.7397  149.6855 LP  0  0  0  0  0  0  0  0  0  0  0  0  # atno 17371 bound_to 10713
  141.0546  133.6872  156.1836 LP  0  0  0  0  0  0  0  0  0  0  0  0  # atno 17394 bound_to 11000
  140.6757  134.4820  157.5588 LP  0  0  0  0  0  0  0  0  0  0  0  0  # atno 17395 bound_to 11000

$$$$
