AV-unprocessed.smi:565|AV-procd|sdf|2952|dock6
  -GOLD-   2262023453D 1   1.00000     0.00000
 Structure written by MMmdl.
 50 51  0  0  0  0  0  0  0  0  2 V2000
  149.2609  136.3217  159.4909 C   0  0  0  0  0  0  0  0  0  0  0  0
  148.1230  136.0340  160.4285 C   0  0  0  0  0  0  0  0  0  0  0  0
  147.5221  137.0398  161.0412 N   0  0  0  0  0  0  0  0  0  0  0  0
  146.5725  136.4615  161.8033 N   0  0  0  0  0  0  0  0  0  0  0  0
  145.7102  137.2948  162.6189 C   0  0  0  0  0  0  0  0  0  0  0  0
  146.5787  135.0859  161.6782 C   0  0  0  0  0  0  0  0  0  0  0  0
  145.6273  134.2128  162.4315 C   0  0  0  0  0  0  0  0  0  0  0  0
  147.5707  134.7689  160.7887 C   0  0  0  0  0  0  0  0  0  0  0  0
  147.9975  133.4069  160.3028 C   0  0  0  0  0  0  0  0  0  0  0  0
  148.0734  133.4176  158.7769 C   0  0  0  0  0  0  0  0  0  0  0  0
  149.1653  133.3488  158.2126 O   0  0  0  0  0  0  0  0  0  0  0  0
  146.9086  133.5297  158.1202 N   0  0  0  0  0  0  0  0  0  0  0  0
  146.7744  133.6324  156.6731 C   0  0  0  0  0  0  0  0  0  0  0  0
  145.2947  133.5683  156.2474 C   0  0  0  0  0  0  0  0  0  0  0  0
  145.1308  133.3875  154.7833 N   0  3  2  0  0  0  0  0  0  0  0  0
  146.0716  132.3767  154.2347 C   0  0  0  0  0  0  0  0  0  0  0  0
  145.7734  132.0873  152.7550 C   0  0  0  0  0  0  0  0  0  0  0  0
  145.8036  133.3775  151.9236 C   0  0  0  0  0  0  0  0  0  0  0  0
  144.8786  134.4517  152.5247 C   0  0  1  0  0  0  0  0  0  0  0  0
  143.3871  134.1585  152.2833 C   0  0  0  0  0  0  0  0  0  0  0  0
  145.1954  134.6635  154.0196 C   0  0  0  0  0  0  0  0  0  0  0  0
  149.2401  135.6544  158.6295 H   0  0  0  0  0  0  0  0  0  0  0  0
  150.2191  136.1873  159.9927 H   0  0  0  0  0  0  0  0  0  0  0  0
  149.2234  137.3447  159.1142 H   0  0  0  0  0  0  0  0  0  0  0  0
  144.6669  137.0814  162.3856 H   0  0  0  0  0  0  0  0  0  0  0  0
  145.9038  138.3516  162.4301 H   0  0  0  0  0  0  0  0  0  0  0  0
  145.8900  137.0855  163.6734 H   0  0  0  0  0  0  0  0  0  0  0  0
  145.9326  133.1672  162.3904 H   0  0  0  0  0  0  0  0  0  0  0  0
  144.6228  134.2870  162.0144 H   0  0  0  0  0  0  0  0  0  0  0  0
  145.5807  134.5006  163.4820 H   0  0  0  0  0  0  0  0  0  0  0  0
  148.9724  133.1247  160.7011 H   0  0  0  0  0  0  0  0  0  0  0  0
  147.3055  132.6310  160.6323 H   0  0  0  0  0  0  0  0  0  0  0  0
  146.0594  133.5759  158.6652 H   0  0  0  0  0  0  0  0  0  0  0  0
  147.2374  134.5544  156.3171 H   0  0  0  0  0  0  0  0  0  0  0  0
  147.3426  132.8112  156.2385 H   0  0  0  0  0  0  0  0  0  0  0  0
  144.7710  132.7731  156.7809 H   0  0  0  0  0  0  0  0  0  0  0  0
  144.8143  134.5023  156.5426 H   0  0  0  0  0  0  0  0  0  0  0  0
  147.0970  132.7310  154.3523 H   0  0  0  0  0  0  0  0  0  0  0  0
  145.9902  131.4479  154.8006 H   0  0  0  0  0  0  0  0  0  0  0  0
  146.5015  131.3770  152.3623 H   0  0  0  0  0  0  0  0  0  0  0  0
  144.7991  131.6063  152.6630 H   0  0  0  0  0  0  0  0  0  0  0  0
  146.8252  133.7586  151.8964 H   0  0  0  0  0  0  0  0  0  0  0  0
  145.5288  133.1687  150.8890 H   0  0  0  0  0  0  0  0  0  0  0  0
  145.0932  135.3890  152.0094 H   0  0  0  0  0  0  0  0  0  0  0  0
  143.0644  133.2451  152.7831 H   0  0  0  0  0  0  0  0  0  0  0  0
  143.1771  134.0459  151.2193 H   0  0  0  0  0  0  0  0  0  0  0  0
  142.7638  134.9727  152.6542 H   0  0  0  0  0  0  0  0  0  0  0  0
  144.5009  135.3955  154.4300 H   0  0  0  0  0  0  0  0  0  0  0  0
  146.1933  135.0918  154.1278 H   0  0  0  0  0  0  0  0  0  0  0  0
  144.2043  133.0091  154.6467 H   0  0  0  0  0  0  0  0  0  0  0  0
  1  2  1  0  0  0  0
  1 22  1  0  0  0  0
  1 23  1  0  0  0  0
  1 24  1  0  0  0  0
  2  8  1  0  0  0  0
  2  3  2  0  0  0  0
  3  4  1  0  0  0  0
  4  5  1  0  0  0  0
  4  6  1  0  0  0  0
  5 25  1  0  0  0  0
  5 26  1  0  0  0  0
  5 27  1  0  0  0  0
  6  7  1  0  0  0  0
  6  8  2  0  0  0  0
  7 28  1  0  0  0  0
  7 29  1  0  0  0  0
  7 30  1  0  0  0  0
  8  9  1  0  0  0  0
  9 10  1  0  0  0  0
  9 31  1  0  0  0  0
  9 32  1  0  0  0  0
 10 11  2  0  0  0  0
 10 12  1  0  0  0  0
 12 13  1  0  0  0  0
 12 33  1  0  0  0  0
 13 14  1  0  0  0  0
 13 34  1  0  0  0  0
 13 35  1  0  0  0  0
 14 15  1  0  0  0  0
 14 36  1  0  0  0  0
 14 37  1  0  0  0  0
 15 21  1  0  0  0  0
 15 16  1  0  0  0  0
 15 50  1  0  0  0  0
 16 17  1  0  0  0  0
 16 38  1  0  0  0  0
 16 39  1  0  0  0  0
 17 18  1  0  0  0  0
 17 40  1  0  0  0  0
 17 41  1  0  0  0  0
 18 19  1  0  0  0  0
 18 42  1  0  0  0  0
 18 43  1  0  0  0  0
 19 20  1  0  0  0  0
 19 21  1  0  0  0  0
 19 44  1  0  0  0  0
 20 45  1  0  0  0  0
 20 46  1  0  0  0  0
 20 47  1  0  0  0  0
 21 48  1  0  0  0  0
 21 49  1  0  0  0  0
M  CHG  1  15   1
M  END
> <s_m_source_file>
AV-unprocessed.smi

> <i_m_source_file_index>
565

> <i_lp_mmshare_version>
43012

> <i_f3d_flags>
0

> <s_epik_input>
W0NIM11jMW5uKFtDSDNdKWMoW0NIM10pYzFbQ0gyXUMoPU8pW05IXVtDSDJdW0NIMl1OMltDSDJdW0NIMl1bQ0gyXVtDQEBIXShbQ0gzXSlbQ0gyXTI=

> <s_epik_cmdline>
J2VwaWtfcHl0aG9uJywgJy1waCcsICc3LjAnLCAnLXRuJywgJzgnLCAnLW1hJywgJzIwMCcsICctbWV0YWxfYmluZGluZycsICctaW1hZScsICc8aW5maWxlLm1hZT4nLCAnLW9tYWUnLCAnPG91dGZpbGUubWFlPic=

> <r_lp_tautomer_probability>
1

> <r_epik_Ionization_Penalty>
0.00411138

> <r_epik_Ionization_Penalty_Charging>
0.0019503

> <r_epik_Ionization_Penalty_Neutral>
0.00216107

> <r_epik_State_Penalty>
-0

> <r_epik_Charging_Adjusted_Penalty>
0.0019503

> <i_epik_Tot_Q>
1

> <i_epik_Tot_abs_Q>
1

> <r_epik_Metal_State_Penalty>
-0

> <b_epik_Metal_Only>
0

> <s_lp_Force_Field>
OPLS_2005

> <r_lp_Energy>
12.6128

> <b_lp_Chiralities_Consistent>
1

> <s_lp_Variant>
AV-unprocessed.smi:565-2

> <Gold.Version>
5.8.1

> <Gold.Id.Protein>
6NUR|6NUR_protein|mol2

> <Gold.PLP.Fitness>
42.4183

> <Gold.PLP.PLP>
-28.7214

> <Gold.PLP.part.hbond>
-4.0000

> <Gold.PLP.part.metal>
0.0000

> <Gold.PLP.part.buried>
-4.5395

> <Gold.PLP.part.nonpolar>
-20.6617

> <Gold.PLP.part.repulsive>
0.0006

> <Gold.PLP.ligand.clash>
0.0000

> <Gold.PLP.ligand.torsion>
0.4308

> <Gold.PLP.Chemscore.Hbond>
4.8326

> <Gold.PLP.Chemscore.CHOScore>
0.0000

> <Gold.PLP.Chemscore.Metal>
0.0000

> <Gold.Chemscore.Hbonds>
donor molecule, donor type, donor heavy atom, donor atom, acceptor molecule, acceptor atom, score
      L1  H    15    50       P1 10957  2.00
      P1  H  6896  6909       L1    11  1.00
      P1  H  6931  6943       L1     3  0.72
      P1  H  6934  6947       L1     3  0.99

> <Gold.PLP.Chemscore.Internal.Correction>
0.0609

> <Gold.Rescore>
     Score         DG    S(hbond)    S(metal)    S(lipo)     H(rot)  DE(clash)    DE(int)     intcor
     19.25     -19.63       3.09        0.00      68.18       1.61       0.01       0.37       ----

> <Gold.Chemscore.Fitness>
19.2548

> <Gold.Chemscore.DG>
-19.6333

> <Gold.Chemscore.ZeroCoef>
-5.4800

> <Gold.Chemscore.Hbond>
3.0863

> <Gold.Chemscore.Metal>
0.0000

> <Gold.Chemscore.Lipo>
68.1827

> <Gold.Chemscore.Internal_Hbond>
0.0000

> <Gold.Chemscore.DEClash>
0.0063

> <Gold.Chemscore.DEInternal>
0.3723

> <Gold.Chemscore.Rot>
1.6142

> <Gold.Chemscore.Internal.Correction>
   9.000000E+99

> <Gold.Chemscore.Hbonds>
donor molecule, donor type, donor heavy atom, donor atom, acceptor molecule, acceptor atom, score
      L1  H    15    50       P1 10957  0.97
      P1  H  6896  6909       L1    11  0.93
      P1  H  6931  6943       L1     3  0.45
      P1  H  6934  6947       L1     3  0.67

> <Gold.Chemscore.Hbond.Weighted>
-10.3084

> <Gold.Chemscore.Metal.Weighted>
-0.0000

> <Gold.Chemscore.Lipo.Weighted>
-7.9774

> <Gold.Chemscore.Internal_Hbond.Weighted>
0.0000

> <Gold.Chemscore.DEClash.Weighted>
0.0063

> <Gold.Chemscore.DEInternal.Weighted>
0.3723

> <Gold.Chemscore.Rot.Weighted>
4.1324

> <Gold.Chemscore.Internal.Correction.Weighted>
   9.000000E+99

> <Gold.Protein.RotatedTorsions>
[ 6907 6896 6895 6894 ] final    3.54 input  -60.11 | X-H torsion
[ 7974 7965 7964 7962 ] final -140.86 input  175.53 | X-H torsion
[ 8008 7997 7996 7995 ] final  -18.80 input   59.86 | X-H torsion
[ 10167 10162 10161 10158 ] final  -80.73 input  -65.29 | X-H torsion
[ 10718 10713 10712 10709 ] final  -17.77 input   66.30 | X-H torsion
[ 10763 10752 10751 10750 ] final   25.69 input  -60.55 | X-H torsion
[ 11005 11000 10999 10996 ] final   51.18 input  -57.11 | X-H torsion

> <Gold.Protein.ActiveResidues>
 VAL166  LYS551  ARG553  GLY616  TRP617  ASP618  TYR619  PRO620  LYS621  CYS622 
 ASP623  PHE694  ASN695  SER759  ASP760  ASP761  ALA762  ILE779  LEU786  VAL792 
 PHE793  MET794  SER795  GLU796  ALA797  LYS798  CYS799  TRP800  GLU811  SER814 

> <Gold.Protein.RotatedAtoms>
  151.6267  135.1027  160.0112 H   0  0  0  0  0  0  0  0  0  0  0  0  # atno 6907 bound_to 6896
  152.4129  133.6987  159.6422 H   0  0  0  0  0  0  0  0  0  0  0  0  # atno 6908 bound_to 6896
  150.8018  133.8510  159.3246 H   0  0  0  0  0  0  0  0  0  0  0  0  # atno 6909 bound_to 6896
  144.8564  140.6149  143.5356 H   0  0  0  0  0  0  0  0  0  0  0  0  # atno 7974 bound_to 7965
  154.4881  140.2106  155.9610 H   0  0  0  0  0  0  0  0  0  0  0  0  # atno 8008 bound_to 7997
  156.1265  140.3204  155.8254 H   0  0  0  0  0  0  0  0  0  0  0  0  # atno 8009 bound_to 7997
  155.4374  140.0507  157.3004 H   0  0  0  0  0  0  0  0  0  0  0  0  # atno 8010 bound_to 7997
  140.4476  143.2493  151.8535 H   0  0  0  0  0  0  0  0  0  0  0  0  # atno 10167 bound_to 10162
  156.5688  130.4744  149.6372 H   0  0  0  0  0  0  0  0  0  0  0  0  # atno 10718 bound_to 10713
  153.0674  135.6577  154.0323 H   0  0  0  0  0  0  0  0  0  0  0  0  # atno 10763 bound_to 10752
  153.9976  135.2940  155.3407 H   0  0  0  0  0  0  0  0  0  0  0  0  # atno 10764 bound_to 10752
  154.7037  135.5234  153.8633 H   0  0  0  0  0  0  0  0  0  0  0  0  # atno 10765 bound_to 10752
  140.0955  134.5152  155.8811 H   0  0  0  0  0  0  0  0  0  0  0  0  # atno 11005 bound_to 11000
  145.4397  139.1537  143.3977 LP  0  0  0  0  0  0  0  0  0  0  0  0  # atno 17320 bound_to 7965
  146.2826  140.4518  142.8770 LP  0  0  0  0  0  0  0  0  0  0  0  0  # atno 17321 bound_to 7965
  139.4794  144.5157  151.8871 LP  0  0  0  0  0  0  0  0  0  0  0  0  # atno 17342 bound_to 10162
  140.4245  144.2199  150.5887 LP  0  0  0  0  0  0  0  0  0  0  0  0  # atno 17343 bound_to 10162
  156.2733  130.7029  151.1833 LP  0  0  0  0  0  0  0  0  0  0  0  0  # atno 17370 bound_to 10713
  157.7352  131.0574  150.5479 LP  0  0  0  0  0  0  0  0  0  0  0  0  # atno 17371 bound_to 10713
  141.2090  133.6680  156.6413 LP  0  0  0  0  0  0  0  0  0  0  0  0  # atno 17394 bound_to 11000
  140.3293  134.7942  157.4313 LP  0  0  0  0  0  0  0  0  0  0  0  0  # atno 17395 bound_to 11000

$$$$
