AV-unprocessed.smi:851|AV-procd|sdf|3950|dock8
  -GOLD-   22720 1423D 1   1.00000     0.00000
 Structure written by MMmdl.
 34 35  0  0  0  0  0  0  0  0  1 V2000
  146.4770  132.7441  152.0528 C   0  0  0  0  0  0  0  0  0  0  0  0
  147.5678  133.3718  152.7171 O   0  0  0  0  0  0  0  0  0  0  0  0
  148.4451  132.5833  153.4375 C   0  0  0  0  0  0  0  0  0  0  0  0
  148.2502  131.2407  153.4469 N   0  0  0  0  0  0  0  0  0  0  0  0
  149.1047  130.4730  154.1541 C   0  0  0  0  0  0  0  0  0  0  0  0
  150.1845  130.9972  154.8883 C   0  0  0  0  0  0  0  0  0  0  0  0
  150.3889  132.3894  154.8796 C   0  0  0  0  0  0  0  0  0  0  0  0
  149.5087  133.2066  154.1301 C   0  0  0  0  0  0  0  0  0  0  0  0
  149.6058  134.6229  154.0623 N   0  0  0  0  0  0  0  0  0  0  0  0
  150.4122  135.4545  154.7493 C   0  0  0  0  0  0  0  0  0  0  0  0
  151.2132  135.1024  155.6122 O   0  0  0  0  0  0  0  0  0  0  0  0
  150.2933  136.7472  154.3955 N   0  0  0  0  0  0  0  0  0  0  0  0
  151.0139  137.9018  154.9359 C   0  0  1  0  0  0  0  0  0  0  0  0
  150.2595  139.2115  154.6404 C   0  0  0  0  0  0  0  0  0  0  0  0
  150.8550  140.3291  155.5062 C   0  0  0  0  0  0  0  0  0  0  0  0
  151.4561  139.5210  157.0384 S   0  0  0  0  0  0  0  0  0  0  0  0
  152.8979  139.7768  157.1766 O   0  0  0  0  0  0  0  0  0  0  0  0
  150.5274  139.8014  158.1436 O   0  0  0  0  0  0  0  0  0  0  0  0
  151.1977  137.8031  156.4595 C   0  0  0  0  0  0  0  0  0  0  0  0
  145.8889  133.5007  151.5335 H   0  0  0  0  0  0  0  0  0  0  0  0
  145.8166  132.2396  152.7596 H   0  0  0  0  0  0  0  0  0  0  0  0
  146.8224  132.0255  151.3081 H   0  0  0  0  0  0  0  0  0  0  0  0
  148.9186  129.4092  154.1392 H   0  0  0  0  0  0  0  0  0  0  0  0
  150.8387  130.3465  155.4492 H   0  0  0  0  0  0  0  0  0  0  0  0
  151.2032  132.7990  155.4566 H   0  0  0  0  0  0  0  0  0  0  0  0
  149.0515  135.0531  153.3363 H   0  0  0  0  0  0  0  0  0  0  0  0
  149.6404  136.9482  153.6517 H   0  0  0  0  0  0  0  0  0  0  0  0
  151.9963  137.9797  154.4663 H   0  0  0  0  0  0  0  0  0  0  0  0
  150.2904  139.4677  153.5810 H   0  0  0  0  0  0  0  0  0  0  0  0
  149.2087  139.0882  154.9070 H   0  0  0  0  0  0  0  0  0  0  0  0
  151.7111  140.7875  155.0105 H   0  0  0  0  0  0  0  0  0  0  0  0
  150.1336  141.1097  155.7481 H   0  0  0  0  0  0  0  0  0  0  0  0
  150.2964  137.4222  156.9413 H   0  0  0  0  0  0  0  0  0  0  0  0
  152.0407  137.1781  156.7553 H   0  0  0  0  0  0  0  0  0  0  0  0
  1  2  1  0  0  0  0
  1 20  1  0  0  0  0
  1 21  1  0  0  0  0
  1 22  1  0  0  0  0
  2  3  1  0  0  0  0
  3  8  1  0  0  0  0
  3  4  2  0  0  0  0
  4  5  1  0  0  0  0
  5  6  2  0  0  0  0
  5 23  1  0  0  0  0
  6  7  1  0  0  0  0
  6 24  1  0  0  0  0
  7  8  2  0  0  0  0
  7 25  1  0  0  0  0
  8  9  1  0  0  0  0
  9 10  1  0  0  0  0
  9 26  1  0  0  0  0
 10 11  2  0  0  0  0
 10 12  1  0  0  0  0
 12 13  1  0  0  0  0
 12 27  1  0  0  0  0
 13 19  1  0  0  0  0
 13 14  1  0  0  0  0
 13 28  1  0  0  0  0
 14 15  1  0  0  0  0
 14 29  1  0  0  0  0
 14 30  1  0  0  0  0
 15 16  1  0  0  0  0
 15 31  1  0  0  0  0
 15 32  1  0  0  0  0
 16 17  2  0  0  0  0
 16 18  2  0  0  0  0
 16 19  1  0  0  0  0
 19 33  1  0  0  0  0
 19 34  1  0  0  0  0
M  END
> <s_m_source_file>
AV-unprocessed.smi

> <i_m_source_file_index>
851

> <i_lp_mmshare_version>
43012

> <i_f3d_flags>
0

> <s_epik_input>
W0NIM11PYzFuW2NIXVtjSF1bY0hdYzFbTkhdQyg9TylbTkhdW0NAQEhdKFtDSDJdMilbQ0gyXVtDSDJdUzIoPU8pPU8=

> <s_epik_cmdline>
J2VwaWtfcHl0aG9uJywgJy1waCcsICc3LjAnLCAnLXRuJywgJzgnLCAnLW1hJywgJzIwMCcsICctbWV0YWxfYmluZGluZycsICctaW1hZScsICc8aW5maWxlLm1hZT4nLCAnLW9tYWUnLCAnPG91dGZpbGUubWFlPic=

> <r_lp_tautomer_probability>
1

> <r_epik_Ionization_Penalty>
7.64927e-05

> <r_epik_Ionization_Penalty_Charging>
0

> <r_epik_Ionization_Penalty_Neutral>
7.64927e-05

> <r_epik_State_Penalty>
-0

> <r_epik_Charging_Adjusted_Penalty>
0

> <i_epik_Tot_Q>
0

> <i_epik_Tot_abs_Q>
0

> <r_epik_Metal_State_Penalty>
-0

> <b_epik_Metal_Only>
0

> <s_lp_Force_Field>
OPLS_2005

> <r_lp_Energy>
17.9576

> <b_lp_Chiralities_Consistent>
1

> <s_lp_Variant>
AV-unprocessed.smi:851-2

> <Gold.Version>
5.8.1

> <Gold.Id.Protein>
6NUR|6NUR_protein|mol2

> <Gold.PLP.Fitness>
41.0825

> <Gold.PLP.PLP>
-30.5062

> <Gold.PLP.part.hbond>
-5.0160

> <Gold.PLP.part.metal>
0.0000

> <Gold.PLP.part.buried>
-2.0826

> <Gold.PLP.part.nonpolar>
-23.6326

> <Gold.PLP.part.repulsive>
0.4515

> <Gold.PLP.ligand.clash>
0.0000

> <Gold.PLP.ligand.torsion>
0.3035

> <Gold.PLP.Chemscore.Hbond>
3.7273

> <Gold.PLP.Chemscore.CHOScore>
0.0000

> <Gold.PLP.Chemscore.Metal>
0.0000

> <Gold.Chemscore.Hbonds>
donor molecule, donor type, donor heavy atom, donor atom, acceptor molecule, acceptor atom, score
      L1  H     9    26       P1  7948  0.96
      L1  H    12    27       P1  7948  0.83
      P1  H  7997  8008       L1    17  1.00
      P1  H 10752 10764       L1    11  0.96

> <Gold.PLP.Chemscore.Internal.Correction>
0.0013

> <Gold.Rescore>
     Score         DG    S(hbond)    S(metal)    S(lipo)     H(rot)  DE(clash)    DE(int)     intcor
     14.01     -17.03       2.68        0.00      50.98       1.31       0.07       2.95       ----

> <Gold.Chemscore.Fitness>
14.0120

> <Gold.Chemscore.DG>
-17.0270

> <Gold.Chemscore.ZeroCoef>
-5.4800

> <Gold.Chemscore.Hbond>
2.6761

> <Gold.Chemscore.Metal>
0.0000

> <Gold.Chemscore.Lipo>
50.9807

> <Gold.Chemscore.Internal_Hbond>
0.0000

> <Gold.Chemscore.DEClash>
0.0699

> <Gold.Chemscore.DEInternal>
2.9451

> <Gold.Chemscore.Rot>
1.3109

> <Gold.Chemscore.Internal.Correction>
   9.000000E+99

> <Gold.Chemscore.Hbonds>
donor molecule, donor type, donor heavy atom, donor atom, acceptor molecule, acceptor atom, score
      L1  H     9    26       P1  7948  0.24
      L1  H    12    27       P1  7948  0.57
      P1  H  7997  8008       L1    17  0.99
      P1  H 10752 10764       L1    11  0.54

> <Gold.Chemscore.Hbond.Weighted>
-8.9381

> <Gold.Chemscore.Metal.Weighted>
-0.0000

> <Gold.Chemscore.Lipo.Weighted>
-5.9647

> <Gold.Chemscore.Internal_Hbond.Weighted>
0.0000

> <Gold.Chemscore.DEClash.Weighted>
0.0699

> <Gold.Chemscore.DEInternal.Weighted>
2.9451

> <Gold.Chemscore.Rot.Weighted>
3.3559

> <Gold.Chemscore.Internal.Correction.Weighted>
   9.000000E+99

> <Gold.Protein.RotatedTorsions>
[ 6907 6896 6895 6894 ] final  168.51 input  -60.11 | X-H torsion
[ 7974 7965 7964 7962 ] final   63.49 input  175.53 | X-H torsion
[ 8008 7997 7996 7995 ] final  -72.47 input   59.86 | X-H torsion
[ 10167 10162 10161 10158 ] final   90.92 input  -65.29 | X-H torsion
[ 10718 10713 10712 10709 ] final  171.35 input   66.30 | X-H torsion
[ 10763 10752 10751 10750 ] final  -40.18 input  -60.55 | X-H torsion
[ 11005 11000 10999 10996 ] final    8.67 input  -57.11 | X-H torsion

> <Gold.Protein.ActiveResidues>
 VAL166  LYS551  ARG553  GLY616  TRP617  ASP618  TYR619  PRO620  LYS621  CYS622 
 ASP623  PHE694  ASN695  SER759  ASP760  ASP761  ALA762  ILE779  LEU786  VAL792 
 PHE793  MET794  SER795  GLU796  ALA797  LYS798  CYS799  TRP800  GLU811  SER814 

> <Gold.Protein.RotatedAtoms>
  151.8465  133.3432  159.3659 H   0  0  0  0  0  0  0  0  0  0  0  0  # atno 6907 bound_to 6896
  150.7219  134.5341  159.5724 H   0  0  0  0  0  0  0  0  0  0  0  0  # atno 6908 bound_to 6896
  152.2825  134.7813  160.0445 H   0  0  0  0  0  0  0  0  0  0  0  0  # atno 6909 bound_to 6896
  145.8612  139.3316  143.0818 H   0  0  0  0  0  0  0  0  0  0  0  0  # atno 7974 bound_to 7965
  154.5169  140.0796  156.8098 H   0  0  0  0  0  0  0  0  0  0  0  0  # atno 8008 bound_to 7997
  155.3661  140.3420  155.4224 H   0  0  0  0  0  0  0  0  0  0  0  0  # atno 8009 bound_to 7997
  156.1637  140.1597  156.8555 H   0  0  0  0  0  0  0  0  0  0  0  0  # atno 8010 bound_to 7997
  139.8425  144.6634  150.9266 H   0  0  0  0  0  0  0  0  0  0  0  0  # atno 10167 bound_to 10162
  156.9948  131.0158  151.2847 H   0  0  0  0  0  0  0  0  0  0  0  0  # atno 10718 bound_to 10713
  153.9417  135.6760  153.4744 H   0  0  0  0  0  0  0  0  0  0  0  0  # atno 10763 bound_to 10752
  153.0928  135.4866  154.8719 H   0  0  0  0  0  0  0  0  0  0  0  0  # atno 10764 bound_to 10752
  154.7373  135.3152  154.8747 H   0  0  0  0  0  0  0  0  0  0  0  0  # atno 10765 bound_to 10752
  140.5344  134.0435  155.7883 H   0  0  0  0  0  0  0  0  0  0  0  0  # atno 11005 bound_to 11000
  145.9246  140.9091  143.0387 LP  0  0  0  0  0  0  0  0  0  0  0  0  # atno 17320 bound_to 7965
  144.6726  140.1335  143.7442 LP  0  0  0  0  0  0  0  0  0  0  0  0  # atno 17321 bound_to 7965
  140.7796  143.3899  151.1328 LP  0  0  0  0  0  0  0  0  0  0  0  0  # atno 17342 bound_to 10162
  139.7544  143.8729  152.3085 LP  0  0  0  0  0  0  0  0  0  0  0  0  # atno 17343 bound_to 10162
  157.5433  130.8134  149.8055 LP  0  0  0  0  0  0  0  0  0  0  0  0  # atno 17370 bound_to 10713
  156.0193  130.3801  150.2011 LP  0  0  0  0  0  0  0  0  0  0  0  0  # atno 17371 bound_to 10713
  141.1263  133.9377  157.2628 LP  0  0  0  0  0  0  0  0  0  0  0  0  # atno 17394 bound_to 11000
  139.9537  135.0170  156.9068 LP  0  0  0  0  0  0  0  0  0  0  0  0  # atno 17395 bound_to 11000

$$$$
