AV-unprocessed.smi:1643|AV-procd|sdf|6577|dock3
  -GOLD-   22720 7263D 1   1.00000     0.00000
 Structure written by MMmdl.
 53 55  0  0  0  0  0  0  0  0  1 V2000
  145.9131  143.6717  158.5476 C   0  0  0  0  0  0  0  0  0  0  0  0
  145.3801  142.2393  158.4651 C   0  0  0  0  0  0  0  0  0  0  0  0
  145.6052  141.4787  159.4068 O   0  0  0  0  0  0  0  0  0  0  0  0
  144.6895  141.8557  157.3645 N   0  0  0  0  0  0  0  0  0  0  0  0
  144.2116  140.4807  157.1830 C   0  0  0  0  0  0  0  0  0  0  0  0
  145.2761  139.6377  156.4629 C   0  0  0  0  0  0  0  0  0  0  0  0
  145.7378  140.2091  155.1056 C   0  0  0  0  0  0  0  0  0  0  0  0
  146.4967  141.4636  155.2128 N   0  0  0  0  0  0  0  0  0  0  0  0
  147.5340  141.5783  154.1851 C   0  0  0  0  0  0  0  0  0  0  0  0
  148.9145  141.0335  154.6030 C   0  0  1  0  0  0  0  0  0  0  0  0
  149.7636  141.0611  153.4738 O   0  0  0  0  0  0  0  0  0  0  0  0
  149.5535  141.8658  155.7325 C   0  0  0  0  0  0  0  0  0  0  0  0
  150.6604  141.1724  156.3629 N   0  0  0  0  0  0  0  0  0  0  0  0
  151.2736  140.0492  155.9431 C   0  0  0  0  0  0  0  0  0  0  0  0
  152.2742  139.5883  156.6891 N   0  0  0  0  0  0  0  0  0  0  0  0
  152.3174  140.5248  157.7086 C   0  0  0  0  0  0  0  0  0  0  0  0
  153.1623  140.6181  158.8363 C   0  0  0  0  0  0  0  0  0  0  0  0
  153.0230  141.6783  159.7607 C   0  0  0  0  0  0  0  0  0  0  0  0
  153.9531  141.7402  160.9595 C   0  0  0  0  0  0  0  0  0  0  0  0
  152.0247  142.6667  159.5641 C   0  0  0  0  0  0  0  0  0  0  0  0
  151.8542  143.8151  160.5429 C   0  0  0  0  0  0  0  0  0  0  0  0
  151.1724  142.5877  158.4436 C   0  0  0  0  0  0  0  0  0  0  0  0
  151.3217  141.5286  157.5316 C   0  0  0  0  0  0  0  0  0  0  0  0
  145.6245  142.6467  155.1743 C   0  0  0  0  0  0  0  0  0  0  0  0
  144.4610  142.7059  156.1903 C   0  0  0  0  0  0  0  0  0  0  0  0
  146.5656  143.8949  157.7034 H   0  0  0  0  0  0  0  0  0  0  0  0
  146.4937  143.8112  159.4603 H   0  0  0  0  0  0  0  0  0  0  0  0
  145.0932  144.3901  158.5622 H   0  0  0  0  0  0  0  0  0  0  0  0
  143.9617  140.0215  158.1407 H   0  0  0  0  0  0  0  0  0  0  0  0
  143.2812  140.4635  156.6141 H   0  0  0  0  0  0  0  0  0  0  0  0
  146.1433  139.5130  157.1127 H   0  0  0  0  0  0  0  0  0  0  0  0
  144.8768  138.6354  156.3063 H   0  0  0  0  0  0  0  0  0  0  0  0
  146.3480  139.4378  154.6392 H   0  0  0  0  0  0  0  0  0  0  0  0
  144.8873  140.3371  154.4346 H   0  0  0  0  0  0  0  0  0  0  0  0
  147.1965  141.0773  153.2762 H   0  0  0  0  0  0  0  0  0  0  0  0
  147.6653  142.6270  153.9142 H   0  0  0  0  0  0  0  0  0  0  0  0
  148.8380  139.9927  154.9152 H   0  0  0  0  0  0  0  0  0  0  0  0
  149.5117  140.3589  152.8935 H   0  0  0  0  0  0  0  0  0  0  0  0
  149.9023  142.8288  155.3562 H   0  0  0  0  0  0  0  0  0  0  0  0
  148.8170  142.0837  156.5069 H   0  0  0  0  0  0  0  0  0  0  0  0
  150.9660  139.5397  155.0415 H   0  0  0  0  0  0  0  0  0  0  0  0
  153.9219  139.8649  158.9862 H   0  0  0  0  0  0  0  0  0  0  0  0
  154.5019  142.6821  160.9703 H   0  0  0  0  0  0  0  0  0  0  0  0
  154.6820  140.9294  160.9401 H   0  0  0  0  0  0  0  0  0  0  0  0
  153.3851  141.6585  161.8865 H   0  0  0  0  0  0  0  0  0  0  0  0
  151.0382  144.4741  160.2440 H   0  0  0  0  0  0  0  0  0  0  0  0
  152.7645  144.4128  160.5933 H   0  0  0  0  0  0  0  0  0  0  0  0
  151.6308  143.4370  161.5407 H   0  0  0  0  0  0  0  0  0  0  0  0
  150.4075  143.3322  158.2801 H   0  0  0  0  0  0  0  0  0  0  0  0
  146.2445  143.5283  155.3404 H   0  0  0  0  0  0  0  0  0  0  0  0
  145.2138  142.7686  154.1710 H   0  0  0  0  0  0  0  0  0  0  0  0
  143.5472  142.3940  155.6837 H   0  0  0  0  0  0  0  0  0  0  0  0
  144.2625  143.7393  156.4747 H   0  0  0  0  0  0  0  0  0  0  0  0
  1  2  1  0  0  0  0
  1 26  1  0  0  0  0
  1 27  1  0  0  0  0
  1 28  1  0  0  0  0
  2  3  2  0  0  0  0
  2  4  1  0  0  0  0
  4 25  1  0  0  0  0
  4  5  1  0  0  0  0
  5  6  1  0  0  0  0
  5 29  1  0  0  0  0
  5 30  1  0  0  0  0
  6  7  1  0  0  0  0
  6 31  1  0  0  0  0
  6 32  1  0  0  0  0
  7  8  1  0  0  0  0
  7 33  1  0  0  0  0
  7 34  1  0  0  0  0
  8  9  1  0  0  0  0
  8 24  1  0  0  0  0
  9 10  1  0  0  0  0
  9 35  1  0  0  0  0
  9 36  1  0  0  0  0
 10 11  1  0  0  0  0
 10 12  1  0  0  0  0
 10 37  1  0  0  0  0
 11 38  1  0  0  0  0
 12 13  1  0  0  0  0
 12 39  1  0  0  0  0
 12 40  1  0  0  0  0
 13 23  1  0  0  0  0
 13 14  1  0  0  0  0
 14 15  2  0  0  0  0
 14 41  1  0  0  0  0
 15 16  1  0  0  0  0
 16 23  2  0  0  0  0
 16 17  1  0  0  0  0
 17 18  2  0  0  0  0
 17 42  1  0  0  0  0
 18 19  1  0  0  0  0
 18 20  1  0  0  0  0
 19 43  1  0  0  0  0
 19 44  1  0  0  0  0
 19 45  1  0  0  0  0
 20 21  1  0  0  0  0
 20 22  2  0  0  0  0
 21 46  1  0  0  0  0
 21 47  1  0  0  0  0
 21 48  1  0  0  0  0
 22 23  1  0  0  0  0
 22 49  1  0  0  0  0
 24 25  1  0  0  0  0
 24 50  1  0  0  0  0
 24 51  1  0  0  0  0
 25 52  1  0  0  0  0
 25 53  1  0  0  0  0
M  END
> <s_m_source_file>
AV-unprocessed.smi

> <i_m_source_file_index>
1643

> <i_lp_mmshare_version>
43012

> <i_f3d_flags>
0

> <s_epik_input>
W0NIM11DKD1PKU4xW0NIMl1bQ0gyXVtDSDJdTihbQ0gyXVtDSDJdMSlbQ0gyXVtDQEhdKFtPSF0pW0NIMl1uKFtjSF1uMiljKGMyMylbY0hdYyhbQ0gzXSljKFtjSF0zKVtDSDNd

> <s_epik_cmdline>
J2VwaWtfcHl0aG9uJywgJy1waCcsICc3LjAnLCAnLXRuJywgJzgnLCAnLW1hJywgJzIwMCcsICctbWV0YWxfYmluZGluZycsICctaW1hZScsICc8aW5maWxlLm1hZT4nLCAnLW9tYWUnLCAnPG91dGZpbGUubWFlPic=

> <r_epik_Ionization_Penalty>
1.17666

> <r_epik_Ionization_Penalty_Charging>
0

> <r_epik_Ionization_Penalty_Neutral>
1.17666

> <r_epik_State_Penalty>
1.20405

> <r_epik_Charging_Adjusted_Penalty>
1.20405

> <i_epik_Tot_Q>
0

> <i_epik_Tot_abs_Q>
0

> <r_epik_Metal_State_Penalty>
1.13307

> <b_epik_Metal_Only>
0

> <s_lp_Force_Field>
OPLS_2005

> <r_lp_Energy>
45.5249

> <b_lp_Chiralities_Consistent>
1

> <s_lp_Variant>
AV-unprocessed.smi:1643-6

> <Gold.Version>
5.8.1

> <Gold.Id.Protein>
6NUR|6NUR_protein|mol2

> <Gold.PLP.Fitness>
48.8305

> <Gold.PLP.PLP>
-40.7828

> <Gold.PLP.part.hbond>
-4.0148

> <Gold.PLP.part.metal>
0.0000

> <Gold.PLP.part.buried>
-1.4458

> <Gold.PLP.part.nonpolar>
-35.2281

> <Gold.PLP.part.repulsive>
0.0990

> <Gold.PLP.ligand.clash>
0.0000

> <Gold.PLP.ligand.torsion>
0.7069

> <Gold.PLP.Chemscore.Hbond>
3.1355

> <Gold.PLP.Chemscore.CHOScore>
0.0000

> <Gold.PLP.Chemscore.Metal>
0.0000

> <Gold.Chemscore.Hbonds>
donor molecule, donor type, donor heavy atom, donor atom, acceptor molecule, acceptor atom, score
      L1  H    11    38       P1  7957  0.72
      P1  H  6934  6946       L1     3  0.96
      P1  H  7989  7998       L1    11  0.22
      P1  H  7997  8010       L1    15  0.14
      P1  H  8011  8017       L1    11  1.00

> <Gold.PLP.Chemscore.Internal.Correction>
0.0550

> <Gold.Rescore>
     Score         DG    S(hbond)    S(metal)    S(lipo)     H(rot)  DE(clash)    DE(int)     intcor
     18.87     -19.70       2.30        0.00     101.23       2.07       0.09       0.74       ----

> <Gold.Chemscore.Fitness>
18.8681

> <Gold.Chemscore.DG>
-19.7036

> <Gold.Chemscore.ZeroCoef>
-5.4800

> <Gold.Chemscore.Hbond>
2.2953

> <Gold.Chemscore.Metal>
0.0000

> <Gold.Chemscore.Lipo>
101.2301

> <Gold.Chemscore.Internal_Hbond>
0.0000

> <Gold.Chemscore.DEClash>
0.0915

> <Gold.Chemscore.DEInternal>
0.7440

> <Gold.Chemscore.Rot>
2.0650

> <Gold.Chemscore.Internal.Correction>
   9.000000E+99

> <Gold.Chemscore.Hbonds>
donor molecule, donor type, donor heavy atom, donor atom, acceptor molecule, acceptor atom, score
      L1  H    11    38       P1  7957  0.72
      P1  H  6934  6946       L1     3  0.92
      P1  H  7989  7998       L1    11  0.07
      P1  H  8011  8017       L1    11  0.24

> <Gold.Chemscore.Hbond.Weighted>
-7.6662

> <Gold.Chemscore.Metal.Weighted>
-0.0000

> <Gold.Chemscore.Lipo.Weighted>
-11.8439

> <Gold.Chemscore.Internal_Hbond.Weighted>
0.0000

> <Gold.Chemscore.DEClash.Weighted>
0.0915

> <Gold.Chemscore.DEInternal.Weighted>
0.7440

> <Gold.Chemscore.Rot.Weighted>
5.2865

> <Gold.Chemscore.Internal.Correction.Weighted>
   9.000000E+99

> <Gold.Protein.RotatedTorsions>
[ 6907 6896 6895 6894 ] final  172.27 input  -60.11 | X-H torsion
[ 7974 7965 7964 7962 ] final  -20.13 input  175.53 | X-H torsion
[ 8008 7997 7996 7995 ] final   74.31 input   59.86 | X-H torsion
[ 10167 10162 10161 10158 ] final -117.89 input  -65.29 | X-H torsion
[ 10718 10713 10712 10709 ] final -131.27 input   66.30 | X-H torsion
[ 10763 10752 10751 10750 ] final    9.73 input  -60.55 | X-H torsion
[ 11005 11000 10999 10996 ] final  -27.55 input  -57.11 | X-H torsion

> <Gold.Protein.ActiveResidues>
 VAL166  LYS551  ARG553  GLY616  TRP617  ASP618  TYR619  PRO620  LYS621  CYS622 
 ASP623  PHE694  ASN695  SER759  ASP760  ASP761  ALA762  ILE779  LEU786  VAL792 
 PHE793  MET794  SER795  GLU796  ALA797  LYS798  CYS799  TRP800  GLU811  SER814 

> <Gold.Protein.RotatedAtoms>
  151.7870  133.3355  159.3487 H   0  0  0  0  0  0  0  0  0  0  0  0  # atno 6907 bound_to 6896
  150.7405  134.5878  159.5981 H   0  0  0  0  0  0  0  0  0  0  0  0  # atno 6908 bound_to 6896
  152.3236  134.7350  160.0359 H   0  0  0  0  0  0  0  0  0  0  0  0  # atno 6909 bound_to 6896
  146.1804  140.4159  142.8496 H   0  0  0  0  0  0  0  0  0  0  0  0  # atno 7974 bound_to 7965
  155.7964  140.3477  155.5378 H   0  0  0  0  0  0  0  0  0  0  0  0  # atno 8008 bound_to 7997
  155.8582  140.0967  157.1651 H   0  0  0  0  0  0  0  0  0  0  0  0  # atno 8009 bound_to 7997
  154.4010  140.1363  156.3915 H   0  0  0  0  0  0  0  0  0  0  0  0  # atno 8010 bound_to 7997
  140.0635  143.4945  152.2019 H   0  0  0  0  0  0  0  0  0  0  0  0  # atno 10167 bound_to 10162
  156.2228  130.6989  151.0774 H   0  0  0  0  0  0  0  0  0  0  0  0  # atno 10718 bound_to 10713
  153.2108  135.6869  153.8116 H   0  0  0  0  0  0  0  0  0  0  0  0  # atno 10763 bound_to 10752
  153.7349  135.3247  155.3294 H   0  0  0  0  0  0  0  0  0  0  0  0  # atno 10764 bound_to 10752
  154.8221  135.4644  154.0915 H   0  0  0  0  0  0  0  0  0  0  0  0  # atno 10765 bound_to 10752
  140.9129  133.7449  156.0695 H   0  0  0  0  0  0  0  0  0  0  0  0  # atno 11005 bound_to 11000
  144.8306  140.6701  143.6293 LP  0  0  0  0  0  0  0  0  0  0  0  0  # atno 17320 bound_to 7965
  145.4091  139.1583  143.4135 LP  0  0  0  0  0  0  0  0  0  0  0  0  # atno 17321 bound_to 7965
  139.5879  144.7538  151.3473 LP  0  0  0  0  0  0  0  0  0  0  0  0  # atno 17342 bound_to 10162
  140.7160  143.7264  150.7657 LP  0  0  0  0  0  0  0  0  0  0  0  0  # atno 17343 bound_to 10162
  157.7096  131.0740  150.6549 LP  0  0  0  0  0  0  0  0  0  0  0  0  # atno 17370 bound_to 10713
  156.6612  130.4513  149.5687 LP  0  0  0  0  0  0  0  0  0  0  0  0  # atno 17371 bound_to 10713
  140.8087  134.3424  157.5418 LP  0  0  0  0  0  0  0  0  0  0  0  0  # atno 17394 bound_to 11000
  139.8760  134.9241  156.3341 LP  0  0  0  0  0  0  0  0  0  0  0  0  # atno 17395 bound_to 11000

$$$$
