AV-unprocessed.smi:2010|AV-procd|sdf|8150|dock5
  -GOLD-   2272010393D 1   1.00000     0.00000
 Structure written by MMmdl.
 41 42  0  0  0  0  0  0  0  0  1 V2000
  151.8806  144.4450  159.5698 C   0  0  0  0  0  0  0  0  0  0  0  0
  151.5068  143.0851  158.9637 C   0  0  0  0  0  0  0  0  0  0  0  0
  152.5717  142.0190  159.2553 C   0  0  0  0  0  0  0  0  0  0  0  0
  152.1901  140.6571  158.6518 C   0  0  0  0  0  0  0  0  0  0  0  0
  151.9069  140.7630  157.2065 N   0  0  0  0  0  0  0  0  0  0  0  0
  151.8988  139.3024  156.2734 S   0  0  0  0  0  0  0  0  0  0  0  0
  152.8008  139.4634  155.1225 O   0  0  0  0  0  0  0  0  0  0  0  0
  152.0184  138.1470  157.1757 O   0  0  0  0  0  0  0  0  0  0  0  0
  150.2776  139.3699  155.6970 N   0  0  0  0  0  0  0  0  0  0  0  0
  149.8397  138.4396  154.6545 C   0  0  1  0  0  0  0  0  0  0  0  0
  150.3597  137.0299  154.9746 C   0  0  0  0  0  0  0  0  0  0  0  0
  148.3089  138.5309  154.4820 C   0  0  0  0  0  0  0  0  0  0  0  0
  147.8275  139.8862  154.2682 N   0  0  0  0  0  0  0  0  0  0  0  0
  147.1357  140.3861  153.1847 C   0  0  0  0  0  0  0  0  0  0  0  0
  146.9001  141.7089  153.4269 C   0  0  0  0  0  0  0  0  0  0  0  0
  147.4884  141.9280  154.7038 C   0  0  0  0  0  0  0  0  0  0  0  0
  148.0410  140.8354  155.2057 N   0  0  0  0  0  0  0  0  0  0  0  0
  150.9312  141.8107  156.8445 C   0  0  0  0  0  0  0  0  0  0  0  0
  151.3143  143.1733  157.4438 C   0  0  0  0  0  0  0  0  0  0  0  0
  152.8183  144.8188  159.1570 H   0  0  0  0  0  0  0  0  0  0  0  0
  151.9972  144.3733  160.6514 H   0  0  0  0  0  0  0  0  0  0  0  0
  151.1088  145.1887  159.3701 H   0  0  0  0  0  0  0  0  0  0  0  0
  150.5656  142.7651  159.4130 H   0  0  0  0  0  0  0  0  0  0  0  0
  153.5340  142.3375  158.8516 H   0  0  0  0  0  0  0  0  0  0  0  0
  152.7102  141.9134  160.3317 H   0  0  0  0  0  0  0  0  0  0  0  0
  153.0030  139.9501  158.8166 H   0  0  0  0  0  0  0  0  0  0  0  0
  151.3118  140.2531  159.1565 H   0  0  0  0  0  0  0  0  0  0  0  0
  149.5975  139.4810  156.4483 H   0  0  0  0  0  0  0  0  0  0  0  0
  150.2902  138.7517  153.7114 H   0  0  0  0  0  0  0  0  0  0  0  0
  150.0421  136.3160  154.2143 H   0  0  0  0  0  0  0  0  0  0  0  0
  149.9969  136.6732  155.9389 H   0  0  0  0  0  0  0  0  0  0  0  0
  151.4494  137.0146  155.0060 H   0  0  0  0  0  0  0  0  0  0  0  0
  147.9876  137.9158  153.6402 H   0  0  0  0  0  0  0  0  0  0  0  0
  147.8135  138.1213  155.3636 H   0  0  0  0  0  0  0  0  0  0  0  0
  146.8756  139.7653  152.3400 H   0  0  0  0  0  0  0  0  0  0  0  0
  146.3850  142.4124  152.7899 H   0  0  0  0  0  0  0  0  0  0  0  0
  147.5296  142.8421  155.2777 H   0  0  0  0  0  0  0  0  0  0  0  0
  150.8700  141.8985  155.7598 H   0  0  0  0  0  0  0  0  0  0  0  0
  149.9425  141.5096  157.1931 H   0  0  0  0  0  0  0  0  0  0  0  0
  150.5416  143.9050  157.2059 H   0  0  0  0  0  0  0  0  0  0  0  0
  152.2318  143.5313  156.9742 H   0  0  0  0  0  0  0  0  0  0  0  0
  1  2  1  0  0  0  0
  1 20  1  0  0  0  0
  1 21  1  0  0  0  0
  1 22  1  0  0  0  0
  2 19  1  0  0  0  0
  2  3  1  0  0  0  0
  2 23  1  0  0  0  0
  3  4  1  0  0  0  0
  3 24  1  0  0  0  0
  3 25  1  0  0  0  0
  4  5  1  0  0  0  0
  4 26  1  0  0  0  0
  4 27  1  0  0  0  0
  5  6  1  0  0  0  0
  5 18  1  0  0  0  0
  6  7  2  0  0  0  0
  6  8  2  0  0  0  0
  6  9  1  0  0  0  0
  9 10  1  0  0  0  0
  9 28  1  0  0  0  0
 10 11  1  0  0  0  0
 10 12  1  0  0  0  0
 10 29  1  0  0  0  0
 11 30  1  0  0  0  0
 11 31  1  0  0  0  0
 11 32  1  0  0  0  0
 12 13  1  0  0  0  0
 12 33  1  0  0  0  0
 12 34  1  0  0  0  0
 13 17  1  0  0  0  0
 13 14  1  0  0  0  0
 14 15  2  0  0  0  0
 14 35  1  0  0  0  0
 15 16  1  0  0  0  0
 15 36  1  0  0  0  0
 16 17  2  0  0  0  0
 16 37  1  0  0  0  0
 18 19  1  0  0  0  0
 18 38  1  0  0  0  0
 18 39  1  0  0  0  0
 19 40  1  0  0  0  0
 19 41  1  0  0  0  0
M  END
> <s_m_source_file>
AV-unprocessed.smi

> <i_m_source_file_index>
2010

> <i_lp_mmshare_version>
43012

> <i_f3d_flags>
0

> <s_epik_input>
W0NIM11bQ0hdMVtDSDJdW0NIMl1OKFtDSDJdW0NIMl0xKVMoPU8pKD1PKVtOSF1bQ0BIXShbQ0gzXSlbQ0gyXW4yW2NIXVtjSF1bY0hdbjI=

> <s_epik_cmdline>
J2VwaWtfcHl0aG9uJywgJy1waCcsICc3LjAnLCAnLXRuJywgJzgnLCAnLW1hJywgJzIwMCcsICctbWV0YWxfYmluZGluZycsICctaW1hZScsICc8aW5maWxlLm1hZT4nLCAnLW9tYWUnLCAnPG91dGZpbGUubWFlPic=

> <r_lp_tautomer_probability>
1

> <r_epik_Ionization_Penalty>
0.0313937

> <r_epik_Ionization_Penalty_Charging>
0

> <r_epik_Ionization_Penalty_Neutral>
0.0313937

> <r_epik_State_Penalty>
0.0259441

> <r_epik_Charging_Adjusted_Penalty>
0.0259441

> <i_epik_Tot_Q>
0

> <i_epik_Tot_abs_Q>
0

> <r_epik_Metal_State_Penalty>
0.365037

> <b_epik_Metal_Only>
0

> <s_lp_Force_Field>
OPLS_2005

> <r_lp_Energy>
7.16397

> <b_lp_Chiralities_Consistent>
1

> <s_lp_Variant>
AV-unprocessed.smi:2010-2

> <Gold.Version>
5.8.1

> <Gold.Id.Protein>
6NUR|6NUR_protein|mol2

> <Gold.PLP.Fitness>
43.2607

> <Gold.PLP.PLP>
-36.9392

> <Gold.PLP.part.hbond>
-2.0000

> <Gold.PLP.part.metal>
0.0000

> <Gold.PLP.part.buried>
-5.0529

> <Gold.PLP.part.nonpolar>
-30.5636

> <Gold.PLP.part.repulsive>
0.1052

> <Gold.PLP.ligand.clash>
0.0000

> <Gold.PLP.ligand.torsion>
1.4066

> <Gold.PLP.Chemscore.Hbond>
1.3393

> <Gold.PLP.Chemscore.CHOScore>
1.0000

> <Gold.PLP.Chemscore.Metal>
0.0000

> <Gold.Chemscore.Hbonds>
donor molecule, donor type, donor heavy atom, donor atom, acceptor molecule, acceptor atom, score
      P1  H  7989  7998       L1     7  0.02
      P1  H  7997  8009       L1     7  0.89
      L1  C    16    37       P1  8028  1.00

> <Gold.PLP.Chemscore.Internal.Correction>
2.1168

> <Gold.Rescore>
     Score         DG    S(hbond)    S(metal)    S(lipo)     H(rot)  DE(clash)    DE(int)     intcor
     10.69     -15.04       0.80        0.00      93.66       1.59       0.09       4.26       ----

> <Gold.Chemscore.Fitness>
10.6938

> <Gold.Chemscore.DG>
-15.0420

> <Gold.Chemscore.ZeroCoef>
-5.4800

> <Gold.Chemscore.Hbond>
0.8006

> <Gold.Chemscore.Metal>
0.0000

> <Gold.Chemscore.Lipo>
93.6640

> <Gold.Chemscore.Internal_Hbond>
0.0000

> <Gold.Chemscore.DEClash>
0.0926

> <Gold.Chemscore.DEInternal>
4.2556

> <Gold.Chemscore.Rot>
1.5901

> <Gold.Chemscore.Internal.Correction>
   9.000000E+99

> <Gold.Chemscore.Hbonds>
donor molecule, donor type, donor heavy atom, donor atom, acceptor molecule, acceptor atom, score
      P1  H  7989  7998       L1     7  0.03
      P1  H  7997  8009       L1     7  0.67

> <Gold.Chemscore.Hbond.Weighted>
-2.6740

> <Gold.Chemscore.Metal.Weighted>
-0.0000

> <Gold.Chemscore.Lipo.Weighted>
-10.9587

> <Gold.Chemscore.Internal_Hbond.Weighted>
0.0000

> <Gold.Chemscore.DEClash.Weighted>
0.0926

> <Gold.Chemscore.DEInternal.Weighted>
4.2556

> <Gold.Chemscore.Rot.Weighted>
4.0707

> <Gold.Chemscore.Internal.Correction.Weighted>
   9.000000E+99

> <Gold.Protein.RotatedTorsions>
[ 6907 6896 6895 6894 ] final  144.50 input  -60.11 | X-H torsion
[ 7974 7965 7964 7962 ] final  -73.09 input  175.53 | X-H torsion
[ 8008 7997 7996 7995 ] final -117.11 input   59.86 | X-H torsion
[ 10167 10162 10161 10158 ] final -153.45 input  -65.29 | X-H torsion
[ 10718 10713 10712 10709 ] final  -98.97 input   66.30 | X-H torsion
[ 10763 10752 10751 10750 ] final   98.14 input  -60.55 | X-H torsion
[ 11005 11000 10999 10996 ] final  153.87 input  -57.11 | X-H torsion

> <Gold.Protein.ActiveResidues>
 VAL166  LYS551  ARG553  GLY616  TRP617  ASP618  TYR619  PRO620  LYS621  CYS622 
 ASP623  PHE694  ASN695  SER759  ASP760  ASP761  ALA762  ILE779  LEU786  VAL792 
 PHE793  MET794  SER795  GLU796  ALA797  LYS798  CYS799  TRP800  GLU811  SER814 

> <Gold.Protein.RotatedAtoms>
  152.1929  133.4785  159.5017 H   0  0  0  0  0  0  0  0  0  0  0  0  # atno 6907 bound_to 6896
  150.6954  134.1690  159.4214 H   0  0  0  0  0  0  0  0  0  0  0  0  # atno 6908 bound_to 6896
  151.9605  135.0125  160.0598 H   0  0  0  0  0  0  0  0  0  0  0  0  # atno 6909 bound_to 6896
  145.6566  140.9266  143.0956 H   0  0  0  0  0  0  0  0  0  0  0  0  # atno 7974 bound_to 7965
  155.0785  140.0394  157.2631 H   0  0  0  0  0  0  0  0  0  0  0  0  # atno 8008 bound_to 7997
  154.6925  140.2656  155.6773 H   0  0  0  0  0  0  0  0  0  0  0  0  # atno 8009 bound_to 7997
  156.2733  140.2756  156.1508 H   0  0  0  0  0  0  0  0  0  0  0  0  # atno 8010 bound_to 7997
  139.7096  143.9130  152.2463 H   0  0  0  0  0  0  0  0  0  0  0  0  # atno 10167 bound_to 10162
  156.0121  130.5261  150.6601 H   0  0  0  0  0  0  0  0  0  0  0  0  # atno 10718 bound_to 10713
  153.2854  135.4159  155.1117 H   0  0  0  0  0  0  0  0  0  0  0  0  # atno 10763 bound_to 10752
  154.8503  135.3505  154.6055 H   0  0  0  0  0  0  0  0  0  0  0  0  # atno 10764 bound_to 10752
  153.6476  135.7054  153.5278 H   0  0  0  0  0  0  0  0  0  0  0  0  # atno 10765 bound_to 10752
  140.1437  134.8721  157.2365 H   0  0  0  0  0  0  0  0  0  0  0  0  # atno 11005 bound_to 11000
  144.7103  139.8395  143.7416 LP  0  0  0  0  0  0  0  0  0  0  0  0  # atno 17320 bound_to 7965
  146.1159  139.4170  143.0258 LP  0  0  0  0  0  0  0  0  0  0  0  0  # atno 17321 bound_to 7965
  139.8995  144.6920  150.8680 LP  0  0  0  0  0  0  0  0  0  0  0  0  # atno 17342 bound_to 10162
  140.7730  143.3524  151.1987 LP  0  0  0  0  0  0  0  0  0  0  0  0  # atno 17343 bound_to 10162
  157.4345  131.0853  151.1005 LP  0  0  0  0  0  0  0  0  0  0  0  0  # atno 17370 bound_to 10713
  157.1568  130.6208  149.5598 LP  0  0  0  0  0  0  0  0  0  0  0  0  # atno 17371 bound_to 10713
  140.2690  134.3483  155.7380 LP  0  0  0  0  0  0  0  0  0  0  0  0  # atno 17394 bound_to 11000
  141.2189  133.7412  156.9194 LP  0  0  0  0  0  0  0  0  0  0  0  0  # atno 17395 bound_to 11000

$$$$
