AV-unprocessed.smi:3318|AV-procd|sdf|12763|dock9
  -GOLD-   2272019103D 1   1.00000     0.00000
 Structure written by MMmdl.
 45 46  0  0  0  0  0  0  0  0  3 V2000
  142.0305  139.6384  156.7068 C   0  0  0  0  0  0  0  0  0  0  0  0
  143.0033  140.3953  155.7961 C   0  0  0  0  0  0  0  0  0  0  0  0
  144.2901  139.5968  155.5234 C   0  0  0  0  0  0  0  0  0  0  0  0
  145.3114  140.3867  154.7879 N   0  3  2  0  0  0  0  0  0  0  0  0
  146.6358  139.7139  154.7149 C   0  0  0  0  0  0  0  0  0  0  0  0
  147.6219  140.5137  153.8443 C   0  0  0  0  0  0  0  0  0  0  0  0
  147.7872  141.9677  154.3316 C   0  0  2  0  0  0  0  0  0  0  0  0
  148.5410  142.0640  155.6048 N   0  3  0  0  0  0  0  0  0  0  0  0
  149.8819  141.4416  155.5961 C   0  0  0  0  0  0  0  0  0  0  0  0
  150.2935  141.0067  157.0095 C   0  0  0  0  0  0  0  0  0  0  0  0
  150.7820  142.1725  157.8480 C   0  0  0  0  0  0  0  0  0  0  0  0
  152.0880  142.1812  158.3822 C   0  0  0  0  0  0  0  0  0  0  0  0
  152.4907  143.2915  159.1497 C   0  0  0  0  0  0  0  0  0  0  0  0
  151.5775  144.3447  159.3499 C   0  0  0  0  0  0  0  0  0  0  0  0
  150.2965  144.2408  158.7720 C   0  0  0  0  0  0  0  0  0  0  0  0
  149.9007  143.1806  158.0341 N   0  0  0  0  0  0  0  0  0  0  0  0
  146.3984  142.6171  154.4672 C   0  0  0  0  0  0  0  0  0  0  0  0
  145.4348  141.7692  155.3186 C   0  0  0  0  0  0  0  0  0  0  0  0
  141.1266  140.2229  156.8812 H   0  0  0  0  0  0  0  0  0  0  0  0
  142.4803  139.4270  157.6774 H   0  0  0  0  0  0  0  0  0  0  0  0
  141.7311  138.6892  156.2615 H   0  0  0  0  0  0  0  0  0  0  0  0
  142.4899  140.6290  154.8639 H   0  0  0  0  0  0  0  0  0  0  0  0
  143.2551  141.3501  156.2591 H   0  0  0  0  0  0  0  0  0  0  0  0
  144.7037  139.2923  156.4860 H   0  0  0  0  0  0  0  0  0  0  0  0
  144.0682  138.6773  154.9794 H   0  0  0  0  0  0  0  0  0  0  0  0
  147.0378  139.5849  155.7210 H   0  0  0  0  0  0  0  0  0  0  0  0
  146.5307  138.7163  154.2905 H   0  0  0  0  0  0  0  0  0  0  0  0
  148.5819  140.0006  153.7967 H   0  0  0  0  0  0  0  0  0  0  0  0
  147.2477  140.5276  152.8195 H   0  0  0  0  0  0  0  0  0  0  0  0
  148.3452  142.5311  153.5820 H   0  0  0  0  0  0  0  0  0  0  0  0
  148.6752  143.0451  155.8058 H   0  0  0  0  0  0  0  0  0  0  0  0
  149.8876  140.5762  154.9335 H   0  0  0  0  0  0  0  0  0  0  0  0
  150.6062  142.1560  155.2021 H   0  0  0  0  0  0  0  0  0  0  0  0
  149.4504  140.5366  157.5184 H   0  0  0  0  0  0  0  0  0  0  0  0
  151.0788  140.2515  156.9543 H   0  0  0  0  0  0  0  0  0  0  0  0
  152.7675  141.3590  158.2114 H   0  0  0  0  0  0  0  0  0  0  0  0
  153.4820  143.3344  159.5767 H   0  0  0  0  0  0  0  0  0  0  0  0
  151.8516  145.2118  159.9325 H   0  0  0  0  0  0  0  0  0  0  0  0
  149.5712  145.0299  158.9049 H   0  0  0  0  0  0  0  0  0  0  0  0
  146.4878  143.6196  154.8876 H   0  0  0  0  0  0  0  0  0  0  0  0
  145.9680  142.7461  153.4730 H   0  0  0  0  0  0  0  0  0  0  0  0
  144.4550  142.2486  155.3257 H   0  0  0  0  0  0  0  0  0  0  0  0
  145.7743  141.7331  156.3548 H   0  0  0  0  0  0  0  0  0  0  0  0
  144.9710  140.4768  153.8408 H   0  0  0  0  0  0  0  0  0  0  0  0
  147.9925  141.6581  156.3493 H   0  0  0  0  0  0  0  0  0  0  0  0
  1  2  1  0  0  0  0
  1 19  1  0  0  0  0
  1 20  1  0  0  0  0
  1 21  1  0  0  0  0
  2  3  1  0  0  0  0
  2 22  1  0  0  0  0
  2 23  1  0  0  0  0
  3  4  1  0  0  0  0
  3 24  1  0  0  0  0
  3 25  1  0  0  0  0
  4 18  1  0  0  0  0
  4  5  1  0  0  0  0
  4 44  1  0  0  0  0
  5  6  1  0  0  0  0
  5 26  1  0  0  0  0
  5 27  1  0  0  0  0
  6  7  1  0  0  0  0
  6 28  1  0  0  0  0
  6 29  1  0  0  0  0
  7  8  1  0  0  0  0
  7 17  1  0  0  0  0
  7 30  1  0  0  0  0
  8  9  1  0  0  0  0
  8 31  1  0  0  0  0
  8 45  1  0  0  0  0
  9 10  1  0  0  0  0
  9 32  1  0  0  0  0
  9 33  1  0  0  0  0
 10 11  1  0  0  0  0
 10 34  1  0  0  0  0
 10 35  1  0  0  0  0
 11 16  1  0  0  0  0
 11 12  2  0  0  0  0
 12 13  1  0  0  0  0
 12 36  1  0  0  0  0
 13 14  2  0  0  0  0
 13 37  1  0  0  0  0
 14 15  1  0  0  0  0
 14 38  1  0  0  0  0
 15 16  2  0  0  0  0
 15 39  1  0  0  0  0
 17 18  1  0  0  0  0
 17 40  1  0  0  0  0
 17 41  1  0  0  0  0
 18 42  1  0  0  0  0
 18 43  1  0  0  0  0
M  CHG  1   4   1
M  CHG  1   8   1
M  END
> <s_m_source_file>
AV-unprocessed.smi

> <i_m_source_file_index>
3318

> <i_lp_mmshare_version>
43012

> <i_f3d_flags>
0

> <s_epik_input>
W0NIM11bQ0gyXVtDSDJdTjFbQ0gyXVtDSDJdW0NIXShbQ0gyXVtDSDJdMSlbTkhdW0NIMl1bQ0gyXWMyW2NIXVtjSF1bY0hdW2NIXW4y

> <s_epik_cmdline>
J2VwaWtfcHl0aG9uJywgJy1waCcsICc3LjAnLCAnLXRuJywgJzgnLCAnLW1hJywgJzIwMCcsICctbWV0YWxfYmluZGluZycsICctaW1hZScsICc8aW5maWxlLm1hZT4nLCAnLW9tYWUnLCAnPG91dGZpbGUubWFlPic=

> <r_epik_Ionization_Penalty>
0.0638186

> <r_epik_Ionization_Penalty_Charging>
0.0628538

> <r_epik_Ionization_Penalty_Neutral>
0.000964829

> <r_epik_State_Penalty>
0.0518488

> <r_epik_Charging_Adjusted_Penalty>
0.114703

> <i_epik_Tot_Q>
2

> <i_epik_Tot_abs_Q>
2

> <r_epik_Metal_State_Penalty>
0.0535981

> <b_epik_Metal_Only>
0

> <s_lp_Force_Field>
OPLS_2005

> <r_lp_Energy>
29.7366

> <b_lp_Chiralities_Consistent>
1

> <s_lp_Variant>
AV-unprocessed.smi:3318-2

> <Gold.Version>
5.8.1

> <Gold.Id.Protein>
6NUR|6NUR_protein|mol2

> <Gold.PLP.Fitness>
45.9579

> <Gold.PLP.PLP>
-31.5694

> <Gold.PLP.part.hbond>
-2.0000

> <Gold.PLP.part.metal>
0.0000

> <Gold.PLP.part.buried>
-4.8513

> <Gold.PLP.part.nonpolar>
-26.6907

> <Gold.PLP.part.repulsive>
1.4210

> <Gold.PLP.ligand.clash>
0.0000

> <Gold.PLP.ligand.torsion>
0.3443

> <Gold.PLP.Chemscore.Hbond>
4.0000

> <Gold.PLP.Chemscore.CHOScore>
0.9980

> <Gold.PLP.Chemscore.Metal>
0.0000

> <Gold.Chemscore.Hbonds>
donor molecule, donor type, donor heavy atom, donor atom, acceptor molecule, acceptor atom, score
      L1  H     4    44       P1 10175  2.00
      L1  H     8    31       P1  8028  2.00
      L1  C    15    39       P1  8029  0.99

> <Gold.PLP.Chemscore.Internal.Correction>
0.0832

> <Gold.Rescore>
     Score         DG    S(hbond)    S(metal)    S(lipo)     H(rot)  DE(clash)    DE(int)     intcor
     18.34     -18.83       1.99        0.00      91.37       1.55       0.10       0.39       ----

> <Gold.Chemscore.Fitness>
18.3415

> <Gold.Chemscore.DG>
-18.8331

> <Gold.Chemscore.ZeroCoef>
-5.4800

> <Gold.Chemscore.Hbond>
1.9877

> <Gold.Chemscore.Metal>
0.0000

> <Gold.Chemscore.Lipo>
91.3721

> <Gold.Chemscore.Internal_Hbond>
0.0000

> <Gold.Chemscore.DEClash>
0.0967

> <Gold.Chemscore.DEInternal>
0.3948

> <Gold.Chemscore.Rot>
1.5532

> <Gold.Chemscore.Internal.Correction>
   9.000000E+99

> <Gold.Chemscore.Hbonds>
donor molecule, donor type, donor heavy atom, donor atom, acceptor molecule, acceptor atom, score
      L1  H     4    44       P1 10175  0.98
      L1  H     8    31       P1  8028  1.00

> <Gold.Chemscore.Hbond.Weighted>
-6.6388

> <Gold.Chemscore.Metal.Weighted>
-0.0000

> <Gold.Chemscore.Lipo.Weighted>
-10.6905

> <Gold.Chemscore.Internal_Hbond.Weighted>
0.0000

> <Gold.Chemscore.DEClash.Weighted>
0.0967

> <Gold.Chemscore.DEInternal.Weighted>
0.3948

> <Gold.Chemscore.Rot.Weighted>
3.9762

> <Gold.Chemscore.Internal.Correction.Weighted>
   9.000000E+99

> <Gold.Protein.RotatedTorsions>
[ 6907 6896 6895 6894 ] final  128.03 input  -60.11 | X-H torsion
[ 7974 7965 7964 7962 ] final -130.97 input  175.53 | X-H torsion
[ 8008 7997 7996 7995 ] final  115.74 input   59.86 | X-H torsion
[ 10167 10162 10161 10158 ] final  -91.25 input  -65.29 | X-H torsion
[ 10718 10713 10712 10709 ] final   14.95 input   66.30 | X-H torsion
[ 10763 10752 10751 10750 ] final   31.70 input  -60.55 | X-H torsion
[ 11005 11000 10999 10996 ] final -152.46 input  -57.11 | X-H torsion

> <Gold.Protein.ActiveResidues>
 VAL166  LYS551  ARG553  GLY616  TRP617  ASP618  TYR619  PRO620  LYS621  CYS622 
 ASP623  PHE694  ASN695  SER759  ASP760  ASP761  ALA762  ILE779  LEU786  VAL792 
 PHE793  MET794  SER795  GLU796  ALA797  LYS798  CYS799  TRP800  GLU811  SER814 

> <Gold.Protein.RotatedAtoms>
  152.3757  133.6478  159.6121 H   0  0  0  0  0  0  0  0  0  0  0  0  # atno 6907 bound_to 6896
  150.7702  133.9197  159.3403 H   0  0  0  0  0  0  0  0  0  0  0  0  # atno 6908 bound_to 6896
  151.7011  135.0931  160.0302 H   0  0  0  0  0  0  0  0  0  0  0  0  # atno 6909 bound_to 6896
  144.9424  140.7253  143.4838 H   0  0  0  0  0  0  0  0  0  0  0  0  # atno 7974 bound_to 7965
  156.2399  140.2932  156.0415 H   0  0  0  0  0  0  0  0  0  0  0  0  # atno 8008 bound_to 7997
  155.1982  140.0409  157.2930 H   0  0  0  0  0  0  0  0  0  0  0  0  # atno 8009 bound_to 7997
  154.6148  140.2461  155.7630 H   0  0  0  0  0  0  0  0  0  0  0  0  # atno 8010 bound_to 7997
  140.3468  143.2912  151.9772 H   0  0  0  0  0  0  0  0  0  0  0  0  # atno 10167 bound_to 10162
  157.0465  130.6252  149.5760 H   0  0  0  0  0  0  0  0  0  0  0  0  # atno 10718 bound_to 10713
  153.0301  135.6432  154.1240 H   0  0  0  0  0  0  0  0  0  0  0  0  # atno 10763 bound_to 10752
  154.0963  135.2862  155.3262 H   0  0  0  0  0  0  0  0  0  0  0  0  # atno 10764 bound_to 10752
  154.6429  135.5453  153.7874 H   0  0  0  0  0  0  0  0  0  0  0  0  # atno 10765 bound_to 10752
  140.7186  134.3752  157.5187 H   0  0  0  0  0  0  0  0  0  0  0  0  # atno 11005 bound_to 11000
  145.2971  139.1863  143.4709 LP  0  0  0  0  0  0  0  0  0  0  0  0  # atno 17320 bound_to 7965
  146.3290  140.2956  142.8618 LP  0  0  0  0  0  0  0  0  0  0  0  0  # atno 17321 bound_to 7965
  139.4832  144.6110  151.7433 LP  0  0  0  0  0  0  0  0  0  0  0  0  # atno 17342 bound_to 10162
  140.5257  144.0809  150.6037 LP  0  0  0  0  0  0  0  0  0  0  0  0  # atno 17343 bound_to 10162
  156.0021  130.5102  150.7701 LP  0  0  0  0  0  0  0  0  0  0  0  0  # atno 17370 bound_to 10713
  157.5064  131.0922  151.0252 LP  0  0  0  0  0  0  0  0  0  0  0  0  # atno 17371 bound_to 10713
  139.8853  134.8939  156.2648 LP  0  0  0  0  0  0  0  0  0  0  0  0  # atno 17394 bound_to 11000
  141.0023  133.7144  156.0979 LP  0  0  0  0  0  0  0  0  0  0  0  0  # atno 17395 bound_to 11000

$$$$
