AV-unprocessed.smi:2859|AV-procd|sdf|11005|dock7
  -GOLD-   2272015463D 1   1.00000     0.00000
 Structure written by MMmdl.
 51 52  0  0  0  0  0  0  0  0  1 V2000
  152.8680  144.3424  158.5598 C   0  0  0  0  0  0  0  0  0  0  0  0
  151.8952  143.5645  159.4698 C   0  0  0  0  0  0  0  0  0  0  0  0
  152.0351  144.0525  160.9266 C   0  0  0  0  0  0  0  0  0  0  0  0
  150.4589  143.8922  159.0044 C   0  0  0  0  0  0  0  0  0  0  0  0
  152.2078  142.0602  159.3964 C   0  0  0  0  0  0  0  0  0  0  0  0
  151.3524  141.1118  158.7859 C   0  0  0  0  0  0  0  0  0  0  0  0
  151.7588  139.7548  158.8187 C   0  0  0  0  0  0  0  0  0  0  0  0
  150.9915  138.7118  158.2528 N   0  0  0  0  0  0  0  0  0  0  0  0
  150.5442  137.6269  159.1203 C   0  0  0  0  0  0  0  0  0  0  0  0
  149.4684  136.7859  158.4163 C   0  0  0  0  0  0  0  0  0  0  0  0
  149.9676  136.3217  157.1681 O   0  0  0  0  0  0  0  0  0  0  0  0
  150.2726  137.3946  156.2767 C   0  0  2  0  0  0  0  0  0  0  0  0
  150.7062  136.8101  154.9235 C   0  0  0  0  0  0  0  0  0  0  0  0
  150.8611  137.6631  153.9068 N   0  0  0  0  0  0  0  0  0  0  0  0
  150.9166  135.6054  154.7942 O   0  0  0  0  0  0  0  0  0  0  0  0
  151.3683  138.2858  156.9047 C   0  0  0  0  0  0  0  0  0  0  0  0
  152.9273  139.4104  159.4073 N   0  0  0  0  0  0  0  0  0  0  0  0
  153.6966  140.3755  159.9209 C   0  0  0  0  0  0  0  0  0  0  0  0
  154.9405  139.9407  160.7132 C   0  0  0  0  0  0  0  0  0  0  0  0
  155.0206  138.3995  160.8123 C   0  0  0  0  0  0  0  0  0  0  0  0
  154.8878  140.4634  162.1685 C   0  0  0  0  0  0  0  0  0  0  0  0
  156.2037  140.4835  160.0205 C   0  0  0  0  0  0  0  0  0  0  0  0
  153.3693  141.6704  159.9693 N   0  0  0  0  0  0  0  0  0  0  0  0
  152.6603  145.4128  158.5789 H   0  0  0  0  0  0  0  0  0  0  0  0
  152.7896  144.0104  157.5238 H   0  0  0  0  0  0  0  0  0  0  0  0
  153.9054  144.2113  158.8693 H   0  0  0  0  0  0  0  0  0  0  0  0
  153.0480  143.9121  161.3057 H   0  0  0  0  0  0  0  0  0  0  0  0
  151.3590  143.5126  161.5906 H   0  0  0  0  0  0  0  0  0  0  0  0
  151.8043  145.1147  161.0145 H   0  0  0  0  0  0  0  0  0  0  0  0
  150.2591  144.9628  159.0636 H   0  0  0  0  0  0  0  0  0  0  0  0
  149.7111  143.3948  159.6236 H   0  0  0  0  0  0  0  0  0  0  0  0
  150.2929  143.5939  157.9685 H   0  0  0  0  0  0  0  0  0  0  0  0
  150.4207  141.4080  158.3323 H   0  0  0  0  0  0  0  0  0  0  0  0
  151.3974  137.0013  159.3855 H   0  0  0  0  0  0  0  0  0  0  0  0
  150.1263  138.0274  160.0444 H   0  0  0  0  0  0  0  0  0  0  0  0
  149.2002  135.9279  159.0325 H   0  0  0  0  0  0  0  0  0  0  0  0
  148.5568  137.3661  158.2643 H   0  0  0  0  0  0  0  0  0  0  0  0
  149.3705  137.9846  156.1047 H   0  0  0  0  0  0  0  0  0  0  0  0
  151.1548  137.3172  153.0046 H   0  0  0  0  0  0  0  0  0  0  0  0
  150.6939  138.6487  154.0470 H   0  0  0  0  0  0  0  0  0  0  0  0
  151.5355  139.1450  156.2548 H   0  0  0  0  0  0  0  0  0  0  0  0
  152.3127  137.7427  156.9643 H   0  0  0  0  0  0  0  0  0  0  0  0
  155.8737  138.0841  161.4142 H   0  0  0  0  0  0  0  0  0  0  0  0
  155.1366  137.9320  159.8339 H   0  0  0  0  0  0  0  0  0  0  0  0
  154.1232  137.9840  161.2722 H   0  0  0  0  0  0  0  0  0  0  0  0
  153.9875  140.1224  162.6813 H   0  0  0  0  0  0  0  0  0  0  0  0
  154.9010  141.5532  162.2119 H   0  0  0  0  0  0  0  0  0  0  0  0
  155.7450  140.1162  162.7464 H   0  0  0  0  0  0  0  0  0  0  0  0
  157.1078  140.1922  160.5558 H   0  0  0  0  0  0  0  0  0  0  0  0
  156.1883  141.5727  159.9675 H   0  0  0  0  0  0  0  0  0  0  0  0
  156.2890  140.1064  159.0006 H   0  0  0  0  0  0  0  0  0  0  0  0
  1  2  1  0  0  0  0
  1 24  1  0  0  0  0
  1 25  1  0  0  0  0
  1 26  1  0  0  0  0
  2  3  1  0  0  0  0
  2  4  1  0  0  0  0
  2  5  1  0  0  0  0
  3 27  1  0  0  0  0
  3 28  1  0  0  0  0
  3 29  1  0  0  0  0
  4 30  1  0  0  0  0
  4 31  1  0  0  0  0
  4 32  1  0  0  0  0
  5 23  1  0  0  0  0
  5  6  2  0  0  0  0
  6  7  1  0  0  0  0
  6 33  1  0  0  0  0
  7  8  1  0  0  0  0
  7 17  2  0  0  0  0
  8 16  1  0  0  0  0
  8  9  1  0  0  0  0
  9 10  1  0  0  0  0
  9 34  1  0  0  0  0
  9 35  1  0  0  0  0
 10 11  1  0  0  0  0
 10 36  1  0  0  0  0
 10 37  1  0  0  0  0
 11 12  1  0  0  0  0
 12 13  1  0  0  0  0
 12 16  1  0  0  0  0
 12 38  1  0  0  0  0
 13 14  1  0  0  0  0
 13 15  2  0  0  0  0
 14 39  1  0  0  0  0
 14 40  1  0  0  0  0
 16 41  1  0  0  0  0
 16 42  1  0  0  0  0
 17 18  1  0  0  0  0
 18 19  1  0  0  0  0
 18 23  2  0  0  0  0
 19 20  1  0  0  0  0
 19 21  1  0  0  0  0
 19 22  1  0  0  0  0
 20 43  1  0  0  0  0
 20 44  1  0  0  0  0
 20 45  1  0  0  0  0
 21 46  1  0  0  0  0
 21 47  1  0  0  0  0
 21 48  1  0  0  0  0
 22 49  1  0  0  0  0
 22 50  1  0  0  0  0
 22 51  1  0  0  0  0
M  END
> <s_m_source_file>
AV-unprocessed.smi

> <i_m_source_file_index>
2859

> <i_lp_mmshare_version>
43012

> <i_f3d_flags>
0

> <s_epik_input>
W0NIM11DKFtDSDNdKShbQ0gzXSljMVtjSF1jKG5jKG4xKUMoW0NIM10pKFtDSDNdKVtDSDNdKU4yW0NIMl1bQ0gyXU9bQ0BIXShbQ0gyXTIpQyg9TylbTkgyXQ==

> <s_epik_cmdline>
J2VwaWtfcHl0aG9uJywgJy1waCcsICc3LjAnLCAnLXRuJywgJzgnLCAnLW1hJywgJzIwMCcsICctbWV0YWxfYmluZGluZycsICctaW1hZScsICc8aW5maWxlLm1hZT4nLCAnLW9tYWUnLCAnPG91dGZpbGUubWFlPic=

> <r_lp_tautomer_probability>
1

> <r_epik_Ionization_Penalty>
0.0011326

> <r_epik_Ionization_Penalty_Charging>
0

> <r_epik_Ionization_Penalty_Neutral>
0.0011326

> <r_epik_State_Penalty>
0.000721507

> <r_epik_Charging_Adjusted_Penalty>
0.000721507

> <i_epik_Tot_Q>
0

> <i_epik_Tot_abs_Q>
0

> <r_epik_Metal_State_Penalty>
-0

> <b_epik_Metal_Only>
0

> <s_lp_Force_Field>
OPLS_2005

> <r_lp_Energy>
9.68103

> <b_lp_Chiralities_Consistent>
1

> <s_lp_Variant>
AV-unprocessed.smi:2859-2

> <Gold.Version>
5.8.1

> <Gold.Id.Protein>
6NUR|6NUR_protein|mol2

> <Gold.PLP.Fitness>
43.3597

> <Gold.PLP.PLP>
-38.5270

> <Gold.PLP.part.hbond>
-2.7058

> <Gold.PLP.part.metal>
0.0000

> <Gold.PLP.part.buried>
-5.7139

> <Gold.PLP.part.nonpolar>
-31.2668

> <Gold.PLP.part.repulsive>
0.2638

> <Gold.PLP.ligand.clash>
0.0000

> <Gold.PLP.ligand.torsion>
0.8821

> <Gold.PLP.Chemscore.Hbond>
2.0000

> <Gold.PLP.Chemscore.CHOScore>
0.0000

> <Gold.PLP.Chemscore.Metal>
0.0000

> <Gold.Chemscore.Hbonds>
donor molecule, donor type, donor heavy atom, donor atom, acceptor molecule, acceptor atom, score
      L1  H    14    39       P1  7949  1.00
      P1  H 10752 10765       L1    15  0.96

> <Gold.PLP.Chemscore.Internal.Correction>
0.5969

> <Gold.Rescore>
     Score         DG    S(hbond)    S(metal)    S(lipo)     H(rot)  DE(clash)    DE(int)     intcor
     16.32     -17.34       1.33        0.00     103.53       1.83       0.22       0.81       ----

> <Gold.Chemscore.Fitness>
16.3171

> <Gold.Chemscore.DG>
-17.3411

> <Gold.Chemscore.ZeroCoef>
-5.4800

> <Gold.Chemscore.Hbond>
1.3290

> <Gold.Chemscore.Metal>
0.0000

> <Gold.Chemscore.Lipo>
103.5301

> <Gold.Chemscore.Internal_Hbond>
0.0000

> <Gold.Chemscore.DEClash>
0.2162

> <Gold.Chemscore.DEInternal>
0.8078

> <Gold.Chemscore.Rot>
1.8323

> <Gold.Chemscore.Internal.Correction>
   9.000000E+99

> <Gold.Chemscore.Hbonds>
donor molecule, donor type, donor heavy atom, donor atom, acceptor molecule, acceptor atom, score
      L1  H    14    39       P1  7949  0.46
      P1  H 10752 10765       L1    15  0.26

> <Gold.Chemscore.Hbond.Weighted>
-4.4388

> <Gold.Chemscore.Metal.Weighted>
-0.0000

> <Gold.Chemscore.Lipo.Weighted>
-12.1130

> <Gold.Chemscore.Internal_Hbond.Weighted>
0.0000

> <Gold.Chemscore.DEClash.Weighted>
0.2162

> <Gold.Chemscore.DEInternal.Weighted>
0.8078

> <Gold.Chemscore.Rot.Weighted>
4.6907

> <Gold.Chemscore.Internal.Correction.Weighted>
   9.000000E+99

> <Gold.Protein.RotatedTorsions>
[ 6907 6896 6895 6894 ] final  152.84 input  -60.11 | X-H torsion
[ 7974 7965 7964 7962 ] final  145.93 input  175.53 | X-H torsion
[ 8008 7997 7996 7995 ] final   38.92 input   59.86 | X-H torsion
[ 10167 10162 10161 10158 ] final -172.89 input  -65.29 | X-H torsion
[ 10718 10713 10712 10709 ] final  130.16 input   66.30 | X-H torsion
[ 10763 10752 10751 10750 ] final  166.67 input  -60.55 | X-H torsion
[ 11005 11000 10999 10996 ] final  -76.89 input  -57.11 | X-H torsion

> <Gold.Protein.ActiveResidues>
 VAL166  LYS551  ARG553  GLY616  TRP617  ASP618  TYR619  PRO620  LYS621  CYS622 
 ASP623  PHE694  ASN695  SER759  ASP760  ASP761  ALA762  ILE779  LEU786  VAL792 
 PHE793  MET794  SER795  GLU796  ALA797  LYS798  CYS799  TRP800  GLU811  SER814 

> <Gold.Protein.RotatedAtoms>
  152.0811  133.4153  159.4501 H   0  0  0  0  0  0  0  0  0  0  0  0  # atno 6907 bound_to 6896
  150.6862  134.2981  159.4704 H   0  0  0  0  0  0  0  0  0  0  0  0  # atno 6908 bound_to 6896
  152.0823  134.9462  160.0624 H   0  0  0  0  0  0  0  0  0  0  0  0  # atno 6909 bound_to 6896
  144.8712  139.5843  143.5886 H   0  0  0  0  0  0  0  0  0  0  0  0  # atno 7974 bound_to 7965
  155.2281  140.3336  155.4307 H   0  0  0  0  0  0  0  0  0  0  0  0  # atno 8008 bound_to 7997
  156.2306  140.1849  156.7299 H   0  0  0  0  0  0  0  0  0  0  0  0  # atno 8009 bound_to 7997
  154.5971  140.0629  156.9304 H   0  0  0  0  0  0  0  0  0  0  0  0  # atno 8010 bound_to 7997
  139.5719  144.1621  152.1396 H   0  0  0  0  0  0  0  0  0  0  0  0  # atno 10167 bound_to 10162
  157.5087  131.1096  150.9323 H   0  0  0  0  0  0  0  0  0  0  0  0  # atno 10718 bound_to 10713
  154.3425  135.2754  155.2415 H   0  0  0  0  0  0  0  0  0  0  0  0  # atno 10763 bound_to 10752
  154.4679  135.5890  153.6304 H   0  0  0  0  0  0  0  0  0  0  0  0  # atno 10764 bound_to 10752
  152.9856  135.6081  154.3628 H   0  0  0  0  0  0  0  0  0  0  0  0  # atno 10765 bound_to 10752
  141.1657  133.7001  156.7737 H   0  0  0  0  0  0  0  0  0  0  0  0  # atno 11005 bound_to 11000
  146.2931  139.7198  142.9146 LP  0  0  0  0  0  0  0  0  0  0  0  0  # atno 17320 bound_to 7965
  145.4127  141.0398  143.3008 LP  0  0  0  0  0  0  0  0  0  0  0  0  # atno 17321 bound_to 7965
  140.1156  144.5418  150.6896 LP  0  0  0  0  0  0  0  0  0  0  0  0  # atno 17342 bound_to 10162
  140.7003  143.2430  151.4883 LP  0  0  0  0  0  0  0  0  0  0  0  0  # atno 17343 bound_to 10162
  156.9970  130.5585  149.5308 LP  0  0  0  0  0  0  0  0  0  0  0  0  # atno 17370 bound_to 10713
  156.0275  130.5368  150.8446 LP  0  0  0  0  0  0  0  0  0  0  0  0  # atno 17371 bound_to 10713
  140.2445  134.8588  157.3606 LP  0  0  0  0  0  0  0  0  0  0  0  0  # atno 17394 bound_to 11000
  140.1763  134.4545  155.7800 LP  0  0  0  0  0  0  0  0  0  0  0  0  # atno 17395 bound_to 11000

$$$$
