AV-unprocessed.smi:33|AV-procd|sdf|214|dock2
  -GOLD-   2262015523D 1   1.00000     0.00000
 Structure written by MMmdl.
 67 72  0  0  0  0  0  0  0  0  1 V2000
  150.3525  139.7704  159.2059 O   0  0  0  0  0  0  0  0  0  0  0  0
  151.2610  140.3455  158.6032 C   0  0  0  0  0  0  0  0  0  0  0  0
  152.0790  139.7354  157.7289 O   0  0  0  0  0  0  0  0  0  0  0  0
  152.1859  138.3220  157.7026 C   0  0  0  0  0  0  0  0  0  0  0  0
  151.1475  137.8049  156.7036 C   0  0  1  0  0  0  0  0  0  0  0  0
  149.8864  138.4265  156.9267 O   0  0  0  0  0  0  0  0  0  0  0  0
  149.1096  138.3311  155.7715 C   0  0  2  0  0  0  0  0  0  0  0  0
  147.9890  137.3519  155.9859 N   0  0  0  0  0  0  0  0  0  0  0  0
  147.9165  136.4011  156.9804 C   0  0  0  0  0  0  0  0  0  0  0  0
  146.8487  135.6511  156.9686 N   0  0  0  0  0  0  0  0  0  0  0  0
  146.1291  136.1154  155.8770 C   0  0  0  0  0  0  0  0  0  0  0  0
  144.8874  135.7515  155.2925 C   0  0  0  0  0  0  0  0  0  0  0  0
  144.1191  134.7518  155.7785 N   0  0  0  0  0  0  0  0  0  0  0  0
  144.7039  133.4039  155.7702 C   0  0  0  0  0  0  0  0  0  0  0  0
  144.3052  132.5618  156.5772 O   0  0  0  0  0  0  0  0  0  0  0  0
  145.8090  133.0595  154.8132 C   0  0  0  0  0  0  0  0  0  0  0  0
  147.0045  132.4796  155.2914 C   0  0  0  0  0  0  0  0  0  0  0  0
  148.0364  132.1406  154.3949 C   0  0  0  0  0  0  0  0  0  0  0  0
  147.8714  132.3605  153.0140 C   0  0  0  0  0  0  0  0  0  0  0  0
  146.6707  132.9121  152.5282 C   0  0  0  0  0  0  0  0  0  0  0  0
  145.6394  133.2535  153.4238 C   0  0  0  0  0  0  0  0  0  0  0  0
  142.7840  135.1138  156.2757 C   0  0  0  0  0  0  0  0  0  0  0  0
  142.5612  136.2735  156.6288 O   0  0  0  0  0  0  0  0  0  0  0  0
  141.7078  134.0736  156.4059 C   0  0  0  0  0  0  0  0  0  0  0  0
  140.6141  134.2952  157.2714 C   0  0  0  0  0  0  0  0  0  0  0  0
  139.5957  133.3297  157.3908 C   0  0  0  0  0  0  0  0  0  0  0  0
  139.6543  132.1458  156.6312 C   0  0  0  0  0  0  0  0  0  0  0  0
  140.7265  131.9319  155.7443 C   0  0  0  0  0  0  0  0  0  0  0  0
  141.7462  132.8961  155.6252 C   0  0  0  0  0  0  0  0  0  0  0  0
  144.4634  136.4376  154.2015 N   0  0  0  0  0  0  0  0  0  0  0  0
  145.2216  137.4188  153.7060 C   0  0  0  0  0  0  0  0  0  0  0  0
  146.4028  137.8608  154.1428 N   0  0  0  0  0  0  0  0  0  0  0  0
  146.8299  137.1812  155.2476 C   0  0  0  0  0  0  0  0  0  0  0  0
  150.0511  137.9291  154.6123 C   0  0  2  0  0  0  0  0  0  0  0  0
  149.8897  136.5955  154.1595 O   0  0  0  0  0  0  0  0  0  0  0  0
  151.4255  138.1166  155.2362 C   0  0  1  0  0  0  0  0  0  0  0  0
  151.8169  139.3843  155.0904 F   0  0  0  0  0  0  0  0  0  0  0  0
  151.5729  141.7953  158.7636 C   0  0  0  0  0  0  0  0  0  0  0  0
  151.8058  142.3178  160.0569 C   0  0  0  0  0  0  0  0  0  0  0  0
  152.1045  143.6828  160.2354 C   0  0  0  0  0  0  0  0  0  0  0  0
  152.1753  144.5415  159.1227 C   0  0  0  0  0  0  0  0  0  0  0  0
  151.9478  144.0335  157.8304 C   0  0  0  0  0  0  0  0  0  0  0  0
  151.6486  142.6692  157.6504 C   0  0  0  0  0  0  0  0  0  0  0  0
  153.1907  138.0120  157.4126 H   0  0  0  0  0  0  0  0  0  0  0  0
  151.9850  137.9260  158.6988 H   0  0  0  0  0  0  0  0  0  0  0  0
  151.0520  136.7236  156.8075 H   0  0  0  0  0  0  0  0  0  0  0  0
  148.6044  139.2825  155.6012 H   0  0  0  0  0  0  0  0  0  0  0  0
  148.6902  136.2818  157.7248 H   0  0  0  0  0  0  0  0  0  0  0  0
  147.1414  132.3062  156.3492 H   0  0  0  0  0  0  0  0  0  0  0  0
  148.9546  131.7103  154.7667 H   0  0  0  0  0  0  0  0  0  0  0  0
  148.6629  132.1000  152.3270 H   0  0  0  0  0  0  0  0  0  0  0  0
  146.5395  133.0725  151.4683 H   0  0  0  0  0  0  0  0  0  0  0  0
  144.7197  133.6715  153.0398 H   0  0  0  0  0  0  0  0  0  0  0  0
  140.5591  135.1999  157.8596 H   0  0  0  0  0  0  0  0  0  0  0  0
  138.7691  133.4985  158.0650 H   0  0  0  0  0  0  0  0  0  0  0  0
  138.8736  131.4053  156.7241 H   0  0  0  0  0  0  0  0  0  0  0  0
  140.7670  131.0278  155.1548 H   0  0  0  0  0  0  0  0  0  0  0  0
  142.5626  132.7226  154.9388 H   0  0  0  0  0  0  0  0  0  0  0  0
  144.8263  137.9217  152.8357 H   0  0  0  0  0  0  0  0  0  0  0  0
  149.8953  138.5989  153.7657 H   0  0  0  0  0  0  0  0  0  0  0  0
  149.5346  136.6164  153.2841 H   0  0  0  0  0  0  0  0  0  0  0  0
  152.1993  137.4848  154.7977 H   0  0  0  0  0  0  0  0  0  0  0  0
  151.7574  141.6776  160.9260 H   0  0  0  0  0  0  0  0  0  0  0  0
  152.2797  144.0711  161.2278 H   0  0  0  0  0  0  0  0  0  0  0  0
  152.4055  145.5876  159.2602 H   0  0  0  0  0  0  0  0  0  0  0  0
  152.0045  144.6897  156.9743 H   0  0  0  0  0  0  0  0  0  0  0  0
  151.4840  142.3110  156.6450 H   0  0  0  0  0  0  0  0  0  0  0  0
  1  2  2  0  0  0  0
  2  3  1  0  0  0  0
  2 38  1  0  0  0  0
  3  4  1  0  0  0  0
  4  5  1  0  0  0  0
  4 44  1  0  0  0  0
  4 45  1  0  0  0  0
  5 36  1  0  0  0  0
  5  6  1  0  0  0  0
  5 46  1  0  0  0  0
  6  7  1  0  0  0  0
  7  8  1  0  0  0  0
  7 34  1  0  0  0  0
  7 47  1  0  0  0  0
  8 33  1  0  0  0  0
  8  9  1  0  0  0  0
  9 10  2  0  0  0  0
  9 48  1  0  0  0  0
 10 11  1  0  0  0  0
 11 33  2  0  0  0  0
 11 12  1  0  0  0  0
 12 13  1  0  0  0  0
 12 30  2  0  0  0  0
 13 14  1  0  0  0  0
 13 22  1  0  0  0  0
 14 15  2  0  0  0  0
 14 16  1  0  0  0  0
 16 21  1  0  0  0  0
 16 17  2  0  0  0  0
 17 18  1  0  0  0  0
 17 49  1  0  0  0  0
 18 19  2  0  0  0  0
 18 50  1  0  0  0  0
 19 20  1  0  0  0  0
 19 51  1  0  0  0  0
 20 21  2  0  0  0  0
 20 52  1  0  0  0  0
 21 53  1  0  0  0  0
 22 23  2  0  0  0  0
 22 24  1  0  0  0  0
 24 29  1  0  0  0  0
 24 25  2  0  0  0  0
 25 26  1  0  0  0  0
 25 54  1  0  0  0  0
 26 27  2  0  0  0  0
 26 55  1  0  0  0  0
 27 28  1  0  0  0  0
 27 56  1  0  0  0  0
 28 29  2  0  0  0  0
 28 57  1  0  0  0  0
 29 58  1  0  0  0  0
 30 31  1  0  0  0  0
 31 32  2  0  0  0  0
 31 59  1  0  0  0  0
 32 33  1  0  0  0  0
 34 35  1  0  0  0  0
 34 36  1  0  0  0  0
 34 60  1  0  0  0  0
 35 61  1  0  0  0  0
 36 37  1  0  0  0  0
 36 62  1  0  0  0  0
 38 43  1  0  0  0  0
 38 39  2  0  0  0  0
 39 40  1  0  0  0  0
 39 63  1  0  0  0  0
 40 41  2  0  0  0  0
 40 64  1  0  0  0  0
 41 42  1  0  0  0  0
 41 65  1  0  0  0  0
 42 43  2  0  0  0  0
 42 66  1  0  0  0  0
 43 67  1  0  0  0  0
M  END
> <s_m_source_file>
AV-unprocessed.smi

> <i_m_source_file_index>
33

> <i_lp_mmshare_version>
43012

> <i_f3d_flags>
0

> <s_epik_input>
W2NIXTFbY0hdW2NIXVtjSF1bY0hdYzFDKD1PKU9bQ0gyXVtDQEBIXTJPW0NASF0oW0NAQEhdKFtPSF0pW0NAQEhdMkYpbihbY0hdbjMpYyhjMzQpbltjSF1uYzROKEMoPU8pYzVbY0hdW2NIXVtjSF1bY0hdW2NIXTUpQyg9TyljNltjSF1bY0hdW2NIXVtjSF1bY0hdNg==

> <s_epik_cmdline>
J2VwaWtfcHl0aG9uJywgJy1waCcsICc3LjAnLCAnLXRuJywgJzgnLCAnLW1hJywgJzIwMCcsICctbWV0YWxfYmluZGluZycsICctaW1hZScsICc8aW5maWxlLm1hZT4nLCAnLW9tYWUnLCAnPG91dGZpbGUubWFlPic=

> <r_lp_tautomer_probability>
1

> <r_epik_Ionization_Penalty>
0.00067664

> <r_epik_Ionization_Penalty_Charging>
0

> <r_epik_Ionization_Penalty_Neutral>
0.00067664

> <r_epik_State_Penalty>
0.000428095

> <r_epik_Charging_Adjusted_Penalty>
0.000428095

> <i_epik_Tot_Q>
0

> <i_epik_Tot_abs_Q>
0

> <r_epik_Metal_State_Penalty>
-0

> <b_epik_Metal_Only>
0

> <s_epik_Chemistry_Notes>
This compound has an ester and may undergo hydrolysis at high or low pH. This compound contains an acetal/aminal-like group ( X-CH(R)-Y where X, Y are N, S, or O) that may be acid/base labile, releasing an aldehyde.

> <s_lp_Force_Field>
OPLS_2005

> <r_lp_Energy>
71.2242

> <b_lp_Chiralities_Consistent>
1

> <s_lp_Variant>
AV-unprocessed.smi:33-16

> <Gold.Version>
5.8.1

> <Gold.Id.Protein>
6NUR|6NUR_protein|mol2

> <Gold.PLP.Fitness>
48.6748

> <Gold.PLP.PLP>
-50.8230

> <Gold.PLP.part.hbond>
-2.9632

> <Gold.PLP.part.metal>
0.0000

> <Gold.PLP.part.buried>
-2.4674

> <Gold.PLP.part.nonpolar>
-45.2310

> <Gold.PLP.part.repulsive>
0.1080

> <Gold.PLP.ligand.clash>
0.0000

> <Gold.PLP.ligand.torsion>
4.6957

> <Gold.PLP.Chemscore.Hbond>
1.0000

> <Gold.PLP.Chemscore.CHOScore>
0.0000

> <Gold.PLP.Chemscore.Metal>
0.0000

> <Gold.Chemscore.Hbonds>
donor molecule, donor type, donor heavy atom, donor atom, acceptor molecule, acceptor atom, score
      L1  H    35    61       P1  7948  1.00
      L1  C    31    59       P1 10175  0.32

> <Gold.PLP.Chemscore.Internal.Correction>
4.2431

> <Gold.Rescore>
     Score         DG    S(hbond)    S(metal)    S(lipo)     H(rot)  DE(clash)    DE(int)     intcor
      4.95     -17.77       0.92        0.00     134.00       2.52       0.74      12.08       ----

> <Gold.Chemscore.Fitness>
4.9503

> <Gold.Chemscore.DG>
-17.7713

> <Gold.Chemscore.ZeroCoef>
-5.4800

> <Gold.Chemscore.Hbond>
0.9210

> <Gold.Chemscore.Metal>
0.0000

> <Gold.Chemscore.Lipo>
134.0023

> <Gold.Chemscore.Internal_Hbond>
0.0000

> <Gold.Chemscore.DEClash>
0.7427

> <Gold.Chemscore.DEInternal>
12.0783

> <Gold.Chemscore.Rot>
2.5247

> <Gold.Chemscore.Internal.Correction>
   9.000000E+99

> <Gold.Chemscore.Hbonds>
donor molecule, donor type, donor heavy atom, donor atom, acceptor molecule, acceptor atom, score
      L1  H    35    61       P1  7948  0.62

> <Gold.Chemscore.Hbond.Weighted>
-3.0763

> <Gold.Chemscore.Metal.Weighted>
-0.0000

> <Gold.Chemscore.Lipo.Weighted>
-15.6783

> <Gold.Chemscore.Internal_Hbond.Weighted>
0.0000

> <Gold.Chemscore.DEClash.Weighted>
0.7427

> <Gold.Chemscore.DEInternal.Weighted>
12.0783

> <Gold.Chemscore.Rot.Weighted>
6.4633

> <Gold.Chemscore.Internal.Correction.Weighted>
   9.000000E+99

> <Gold.Protein.RotatedTorsions>
[ 6907 6896 6895 6894 ] final  -20.61 input  -60.11 | X-H torsion
[ 7974 7965 7964 7962 ] final  117.98 input  175.53 | X-H torsion
[ 8008 7997 7996 7995 ] final   10.85 input   59.86 | X-H torsion
[ 10167 10162 10161 10158 ] final -142.00 input  -65.29 | X-H torsion
[ 10718 10713 10712 10709 ] final   51.65 input   66.30 | X-H torsion
[ 10763 10752 10751 10750 ] final   52.26 input  -60.55 | X-H torsion
[ 11005 11000 10999 10996 ] final   17.69 input  -57.11 | X-H torsion

> <Gold.Protein.ActiveResidues>
 VAL166  LYS551  ARG553  GLY616  TRP617  ASP618  TYR619  PRO620  LYS621  CYS622 
 ASP623  PHE694  ASN695  SER759  ASP760  ASP761  ALA762  ILE779  LEU786  VAL792 
 PHE793  MET794  SER795  GLU796  ALA797  LYS798  CYS799  TRP800  GLU811  SER814 

> <Gold.Protein.RotatedAtoms>
  151.2456  135.0604  159.9041 H   0  0  0  0  0  0  0  0  0  0  0  0  # atno 6907 bound_to 6896
  152.5387  134.0388  159.8068 H   0  0  0  0  0  0  0  0  0  0  0  0  # atno 6908 bound_to 6896
  151.0588  133.5512  159.2667 H   0  0  0  0  0  0  0  0  0  0  0  0  # atno 6909 bound_to 6896
  145.1608  139.3156  143.4518 H   0  0  0  0  0  0  0  0  0  0  0  0  # atno 7974 bound_to 7965
  154.7989  140.2848  155.5936 H   0  0  0  0  0  0  0  0  0  0  0  0  # atno 8008 bound_to 7997
  156.2974  140.2590  156.2782 H   0  0  0  0  0  0  0  0  0  0  0  0  # atno 8009 bound_to 7997
  154.9581  140.0378  157.2166 H   0  0  0  0  0  0  0  0  0  0  0  0  # atno 8010 bound_to 7997
  139.8130  143.7676  152.2664 H   0  0  0  0  0  0  0  0  0  0  0  0  # atno 10167 bound_to 10162
  157.5001  130.8432  149.8306 H   0  0  0  0  0  0  0  0  0  0  0  0  # atno 10718 bound_to 10713
  152.9788  135.5818  154.4549 H   0  0  0  0  0  0  0  0  0  0  0  0  # atno 10763 bound_to 10752
  154.4133  135.2770  155.2025 H   0  0  0  0  0  0  0  0  0  0  0  0  # atno 10764 bound_to 10752
  154.3805  135.6148  153.5842 H   0  0  0  0  0  0  0  0  0  0  0  0  # atno 10765 bound_to 10752
  140.4331  134.1399  155.7682 H   0  0  0  0  0  0  0  0  0  0  0  0  # atno 11005 bound_to 11000
  146.3482  140.1718  142.8589 LP  0  0  0  0  0  0  0  0  0  0  0  0  # atno 17320 bound_to 7965
  145.0333  140.8888  143.5096 LP  0  0  0  0  0  0  0  0  0  0  0  0  # atno 17321 bound_to 7965
  139.7831  144.7437  151.0060 LP  0  0  0  0  0  0  0  0  0  0  0  0  # atno 17342 bound_to 10162
  140.7817  143.4521  151.0398 LP  0  0  0  0  0  0  0  0  0  0  0  0  # atno 17343 bound_to 10162
  156.0224  130.3791  150.1923 LP  0  0  0  0  0  0  0  0  0  0  0  0  # atno 17370 bound_to 10713
  157.0113  130.9951  151.3365 LP  0  0  0  0  0  0  0  0  0  0  0  0  # atno 17371 bound_to 10713
  141.1737  133.8557  157.1490 LP  0  0  0  0  0  0  0  0  0  0  0  0  # atno 17394 bound_to 11000
  140.0120  134.9984  157.0415 LP  0  0  0  0  0  0  0  0  0  0  0  0  # atno 17395 bound_to 11000

$$$$
