AV-unprocessed.smi:2268|AV-procd|sdf|9150|dock7
  -GOLD-   2272012353D 1   1.00000     0.00000
 Structure written by MMmdl.
 37 38  0  0  0  0  0  0  0  0  1 V2000
  148.0528  142.2769  154.2937 C   0  0  0  0  0  0  0  0  0  0  0  0
  148.1542  140.7772  154.0751 C   0  0  0  0  0  0  0  0  0  0  0  0
  147.1400  140.1351  153.3315 C   0  0  0  0  0  0  0  0  0  0  0  0
  147.1811  138.7460  153.1141 C   0  0  0  0  0  0  0  0  0  0  0  0
  146.2022  138.1421  152.3996 F   0  0  0  0  0  0  0  0  0  0  0  0
  148.2379  137.9857  153.6435 C   0  0  0  0  0  0  0  0  0  0  0  0
  149.2536  138.6169  154.3846 C   0  0  0  0  0  0  0  0  0  0  0  0
  149.2307  140.0144  154.6027 C   0  0  0  0  0  0  0  0  0  0  0  0
  150.3531  140.6581  155.4172 C   0  0  2  0  0  0  0  0  0  0  0  0
  151.6247  140.1997  154.9984 O   0  0  0  0  0  0  0  0  0  0  0  0
  150.1883  140.3475  156.9220 C   0  0  0  0  0  0  0  0  0  0  0  0
  150.7945  141.3799  157.7813 N   0  0  0  0  0  0  0  0  0  0  0  0
  150.2743  142.6786  157.6537 C   0  0  0  0  0  0  0  0  0  0  0  0
  150.7252  143.6641  158.3589 N   0  0  0  0  0  0  0  0  0  0  0  0
  151.7548  143.4489  159.2792 C   0  0  0  0  0  0  0  0  0  0  0  0
  152.2058  144.6725  160.0572 C   0  0  0  0  0  0  0  0  0  0  0  0
  152.3018  142.2148  159.4522 C   0  0  0  0  0  0  0  0  0  0  0  0
  153.4235  141.9201  160.4404 C   0  0  0  0  0  0  0  0  0  0  0  0
  151.7998  141.0838  158.6552 C   0  0  0  0  0  0  0  0  0  0  0  0
  152.2479  139.9412  158.7632 O   0  0  0  0  0  0  0  0  0  0  0  0
  147.1245  142.6774  153.8852 H   0  0  0  0  0  0  0  0  0  0  0  0
  148.8799  142.7934  153.8065 H   0  0  0  0  0  0  0  0  0  0  0  0
  148.0709  142.5097  155.3580 H   0  0  0  0  0  0  0  0  0  0  0  0
  146.3192  140.7072  152.9243 H   0  0  0  0  0  0  0  0  0  0  0  0
  148.2698  136.9183  153.4826 H   0  0  0  0  0  0  0  0  0  0  0  0
  150.0550  138.0161  154.7894 H   0  0  0  0  0  0  0  0  0  0  0  0
  150.3533  141.7350  155.2571 H   0  0  0  0  0  0  0  0  0  0  0  0
  151.7318  139.3075  155.2912 H   0  0  0  0  0  0  0  0  0  0  0  0
  149.1242  140.2893  157.1598 H   0  0  0  0  0  0  0  0  0  0  0  0
  150.5689  139.3491  157.1475 H   0  0  0  0  0  0  0  0  0  0  0  0
  149.4677  142.7928  156.9274 H   0  0  0  0  0  0  0  0  0  0  0  0
  153.2593  144.8794  159.8678 H   0  0  0  0  0  0  0  0  0  0  0  0
  152.0670  144.5170  161.1273 H   0  0  0  0  0  0  0  0  0  0  0  0
  151.6348  145.5570  159.7724 H   0  0  0  0  0  0  0  0  0  0  0  0
  153.0980  141.1750  161.1669 H   0  0  0  0  0  0  0  0  0  0  0  0
  153.7491  142.7984  160.9951 H   0  0  0  0  0  0  0  0  0  0  0  0
  154.2928  141.5231  159.9150 H   0  0  0  0  0  0  0  0  0  0  0  0
  1  2  1  0  0  0  0
  1 21  1  0  0  0  0
  1 22  1  0  0  0  0
  1 23  1  0  0  0  0
  2  8  1  0  0  0  0
  2  3  2  0  0  0  0
  3  4  1  0  0  0  0
  3 24  1  0  0  0  0
  4  5  1  0  0  0  0
  4  6  2  0  0  0  0
  6  7  1  0  0  0  0
  6 25  1  0  0  0  0
  7  8  2  0  0  0  0
  7 26  1  0  0  0  0
  8  9  1  0  0  0  0
  9 10  1  0  0  0  0
  9 11  1  0  0  0  0
  9 27  1  0  0  0  0
 10 28  1  0  0  0  0
 11 12  1  0  0  0  0
 11 29  1  0  0  0  0
 11 30  1  0  0  0  0
 12 19  1  0  0  0  0
 12 13  1  0  0  0  0
 13 14  2  0  0  0  0
 13 31  1  0  0  0  0
 14 15  1  0  0  0  0
 15 16  1  0  0  0  0
 15 17  2  0  0  0  0
 16 32  1  0  0  0  0
 16 33  1  0  0  0  0
 16 34  1  0  0  0  0
 17 18  1  0  0  0  0
 17 19  1  0  0  0  0
 18 35  1  0  0  0  0
 18 36  1  0  0  0  0
 18 37  1  0  0  0  0
 19 20  2  0  0  0  0
M  END
> <s_m_source_file>
AV-unprocessed.smi

> <i_m_source_file_index>
2268

> <i_lp_mmshare_version>
43012

> <i_f3d_flags>
0

> <s_epik_input>
W0NIM11jMVtjSF1jKEYpW2NIXVtjSF1jMVtDQEhdKFtPSF0pW0NIMl1uMltjSF1uYyhbQ0gzXSljKFtDSDNdKWMyPU8=

> <s_epik_cmdline>
J2VwaWtfcHl0aG9uJywgJy1waCcsICc3LjAnLCAnLXRuJywgJzgnLCAnLW1hJywgJzIwMCcsICctbWV0YWxfYmluZGluZycsICctaW1hZScsICc8aW5maWxlLm1hZT4nLCAnLW9tYWUnLCAnPG91dGZpbGUubWFlPic=

> <r_lp_tautomer_probability>
1

> <r_epik_Ionization_Penalty>
5.07449e-05

> <r_epik_Ionization_Penalty_Charging>
7.56727e-08

> <r_epik_Ionization_Penalty_Neutral>
5.06692e-05

> <r_epik_State_Penalty>
-0

> <r_epik_Charging_Adjusted_Penalty>
7.56727e-08

> <i_epik_Tot_Q>
0

> <i_epik_Tot_abs_Q>
0

> <r_epik_Metal_State_Penalty>
-0

> <b_epik_Metal_Only>
0

> <s_lp_Force_Field>
OPLS_2005

> <r_lp_Energy>
19.9067

> <b_lp_Chiralities_Consistent>
1

> <s_lp_Variant>
AV-unprocessed.smi:2268-1

> <Gold.Version>
5.8.1

> <Gold.Id.Protein>
6NUR|6NUR_protein|mol2

> <Gold.PLP.Fitness>
41.5467

> <Gold.PLP.PLP>
-36.9569

> <Gold.PLP.part.hbond>
-1.0000

> <Gold.PLP.part.metal>
0.0000

> <Gold.PLP.part.buried>
2.4758

> <Gold.PLP.part.nonpolar>
-39.0294

> <Gold.PLP.part.repulsive>
0.1482

> <Gold.PLP.ligand.clash>
0.0000

> <Gold.PLP.ligand.torsion>
0.6341

> <Gold.PLP.Chemscore.Hbond>
0.9920

> <Gold.PLP.Chemscore.CHOScore>
0.9582

> <Gold.PLP.Chemscore.Metal>
0.0000

> <Gold.Chemscore.Hbonds>
donor molecule, donor type, donor heavy atom, donor atom, acceptor molecule, acceptor atom, score
      P1  H  7989  7998       L1    10  0.93
      L1  C    13    31       P1  8028  0.96

> <Gold.PLP.Chemscore.Internal.Correction>
0.0074

> <Gold.Rescore>
     Score         DG    S(hbond)    S(metal)    S(lipo)     H(rot)  DE(clash)    DE(int)     intcor
     13.57     -14.14       1.01        0.00      88.50       1.98       0.10       0.47       ----

> <Gold.Chemscore.Fitness>
13.5655

> <Gold.Chemscore.DG>
-14.1379

> <Gold.Chemscore.ZeroCoef>
-5.4800

> <Gold.Chemscore.Hbond>
1.0115

> <Gold.Chemscore.Metal>
0.0000

> <Gold.Chemscore.Lipo>
88.4979

> <Gold.Chemscore.Internal_Hbond>
0.0000

> <Gold.Chemscore.DEClash>
0.1020

> <Gold.Chemscore.DEInternal>
0.4705

> <Gold.Chemscore.Rot>
1.9823

> <Gold.Chemscore.Internal.Correction>
   9.000000E+99

> <Gold.Chemscore.Hbonds>
donor molecule, donor type, donor heavy atom, donor atom, acceptor molecule, acceptor atom, score
      P1  H  7989  7998       L1    10  0.20

> <Gold.Chemscore.Hbond.Weighted>
-3.3785

> <Gold.Chemscore.Metal.Weighted>
-0.0000

> <Gold.Chemscore.Lipo.Weighted>
-10.3543

> <Gold.Chemscore.Internal_Hbond.Weighted>
0.0000

> <Gold.Chemscore.DEClash.Weighted>
0.1020

> <Gold.Chemscore.DEInternal.Weighted>
0.4705

> <Gold.Chemscore.Rot.Weighted>
5.0748

> <Gold.Chemscore.Internal.Correction.Weighted>
   9.000000E+99

> <Gold.Protein.RotatedTorsions>
[ 6907 6896 6895 6894 ] final  -76.81 input  -60.11 | X-H torsion
[ 7974 7965 7964 7962 ] final  133.40 input  175.53 | X-H torsion
[ 8008 7997 7996 7995 ] final   26.14 input   59.86 | X-H torsion
[ 10167 10162 10161 10158 ] final  124.67 input  -65.29 | X-H torsion
[ 10718 10713 10712 10709 ] final   29.13 input   66.30 | X-H torsion
[ 10763 10752 10751 10750 ] final   15.40 input  -60.55 | X-H torsion
[ 11005 11000 10999 10996 ] final  -82.68 input  -57.11 | X-H torsion

> <Gold.Protein.ActiveResidues>
 VAL166  LYS551  ARG553  GLY616  TRP617  ASP618  TYR619  PRO620  LYS621  CYS622 
 ASP623  PHE694  ASN695  SER759  ASP760  ASP761  ALA762  ILE779  LEU786  VAL792 
 PHE793  MET794  SER795  GLU796  ALA797  LYS798  CYS799  TRP800  GLU811  SER814 

> <Gold.Protein.RotatedAtoms>
  150.7016  134.4516  159.5338 H   0  0  0  0  0  0  0  0  0  0  0  0  # atno 6907 bound_to 6896
  152.2207  134.8412  160.0495 H   0  0  0  0  0  0  0  0  0  0  0  0  # atno 6908 bound_to 6896
  151.9264  133.3564  159.3952 H   0  0  0  0  0  0  0  0  0  0  0  0  # atno 6909 bound_to 6896
  144.9870  139.4446  143.5358 H   0  0  0  0  0  0  0  0  0  0  0  0  # atno 7974 bound_to 7965
  155.0226  140.3149  155.4788 H   0  0  0  0  0  0  0  0  0  0  0  0  # atno 8008 bound_to 7997
  156.2889  140.2194  156.5287 H   0  0  0  0  0  0  0  0  0  0  0  0  # atno 8009 bound_to 7997
  154.7439  140.0471  157.0823 H   0  0  0  0  0  0  0  0  0  0  0  0  # atno 8010 bound_to 7997
  139.5729  144.6948  151.3731 H   0  0  0  0  0  0  0  0  0  0  0  0  # atno 10167 bound_to 10162
  157.2426  130.7076  149.6366 H   0  0  0  0  0  0  0  0  0  0  0  0  # atno 10718 bound_to 10713
  153.1529  135.6782  153.8855 H   0  0  0  0  0  0  0  0  0  0  0  0  # atno 10763 bound_to 10752
  153.8276  135.3122  155.3417 H   0  0  0  0  0  0  0  0  0  0  0  0  # atno 10764 bound_to 10752
  154.7876  135.4853  154.0067 H   0  0  0  0  0  0  0  0  0  0  0  0  # atno 10765 bound_to 10752
  141.1662  133.7256  156.8607 H   0  0  0  0  0  0  0  0  0  0  0  0  # atno 11005 bound_to 11000
  146.3422  139.9177  142.8771 LP  0  0  0  0  0  0  0  0  0  0  0  0  # atno 17320 bound_to 7965
  145.2340  140.9984  143.3974 LP  0  0  0  0  0  0  0  0  0  0  0  0  # atno 17321 bound_to 7965
  140.7012  143.7626  150.7407 LP  0  0  0  0  0  0  0  0  0  0  0  0  # atno 17342 bound_to 10162
  140.1137  143.4676  152.2355 LP  0  0  0  0  0  0  0  0  0  0  0  0  # atno 17343 bound_to 10162
  155.9669  130.4453  150.5496 LP  0  0  0  0  0  0  0  0  0  0  0  0  # atno 17370 bound_to 10713
  157.3363  131.0708  151.1823 LP  0  0  0  0  0  0  0  0  0  0  0  0  # atno 17371 bound_to 10713
  140.1850  134.9006  157.2994 LP  0  0  0  0  0  0  0  0  0  0  0  0  # atno 17394 bound_to 11000
  140.2352  134.3861  155.7504 LP  0  0  0  0  0  0  0  0  0  0  0  0  # atno 17395 bound_to 11000

$$$$
