AV-unprocessed.smi:312|AV-procd|sdf|2306|dock4
  -GOLD-   2262022203D 1   1.00000     0.00000
 Structure written by MMmdl.
 36 37  0  0  0  0  0  0  0  0  2 V2000
  149.1637  141.6600  155.0154 C   0  0  0  0  0  0  0  0  0  0  0  0
  150.1143  141.3325  156.1746 C   0  0  1  0  0  0  0  0  0  0  0  0
  151.2736  140.4249  155.7080 C   0  0  0  0  0  0  0  0  0  0  0  0
  150.8313  139.0852  155.3064 N   0  0  0  0  0  0  0  0  0  0  0  0
  151.1659  137.8892  155.8883 C   0  0  0  0  0  0  0  0  0  0  0  0
  150.5047  136.9148  155.1862 C   0  0  0  0  0  0  0  0  0  0  0  0
  149.8015  137.5558  154.2016 N   0  3  0  0  0  0  0  0  0  0  0  0
  150.0051  138.8752  154.2734 C   0  0  0  0  0  0  0  0  0  0  0  0
  150.6185  142.5836  156.7400 N   0  0  0  0  0  0  0  0  0  0  0  0
  151.4487  142.6914  157.7899 C   0  0  0  0  0  0  0  0  0  0  0  0
  151.8918  141.7186  158.4020 O   0  0  0  0  0  0  0  0  0  0  0  0
  151.8494  144.1171  158.2004 C   0  0  0  0  0  0  0  0  0  0  0  0
  152.8118  144.1189  159.4116 C   0  0  0  0  0  0  0  0  0  0  0  0
  152.1091  144.8841  160.5409 C   0  0  0  0  0  0  0  0  0  0  0  0
  150.6275  144.8737  160.1758 C   0  0  0  0  0  0  0  0  0  0  0  0
  150.6286  144.9426  158.6496 C   0  0  0  0  0  0  0  0  0  0  0  0
  148.7376  140.7514  154.5895 H   0  0  0  0  0  0  0  0  0  0  0  0
  149.6792  142.1920  154.2151 H   0  0  0  0  0  0  0  0  0  0  0  0
  148.3349  142.2845  155.3511 H   0  0  0  0  0  0  0  0  0  0  0  0
  149.5290  140.8000  156.9267 H   0  0  0  0  0  0  0  0  0  0  0  0
  151.7832  140.8685  154.8515 H   0  0  0  0  0  0  0  0  0  0  0  0
  152.0196  140.3138  156.4962 H   0  0  0  0  0  0  0  0  0  0  0  0
  151.8253  137.8229  156.7418 H   0  0  0  0  0  0  0  0  0  0  0  0
  150.4816  135.8420  155.3104 H   0  0  0  0  0  0  0  0  0  0  0  0
  149.5770  139.6238  153.6307 H   0  0  0  0  0  0  0  0  0  0  0  0
  150.3052  143.4374  156.3010 H   0  0  0  0  0  0  0  0  0  0  0  0
  152.3224  144.6110  157.3499 H   0  0  0  0  0  0  0  0  0  0  0  0
  153.0491  143.1070  159.7451 H   0  0  0  0  0  0  0  0  0  0  0  0
  153.7613  144.5922  159.1598 H   0  0  0  0  0  0  0  0  0  0  0  0
  152.2990  144.4503  161.5231 H   0  0  0  0  0  0  0  0  0  0  0  0
  152.4688  145.9138  160.5603 H   0  0  0  0  0  0  0  0  0  0  0  0
  150.1699  143.9405  160.5066 H   0  0  0  0  0  0  0  0  0  0  0  0
  150.0764  145.6963  160.6324 H   0  0  0  0  0  0  0  0  0  0  0  0
  150.7547  145.9784  158.3309 H   0  0  0  0  0  0  0  0  0  0  0  0
  149.6856  144.5921  158.2265 H   0  0  0  0  0  0  0  0  0  0  0  0
  149.2105  137.0998  153.5178 H   0  0  0  0  0  0  0  0  0  0  0  0
  1  2  1  0  0  0  0
  1 17  1  0  0  0  0
  1 18  1  0  0  0  0
  1 19  1  0  0  0  0
  2  3  1  0  0  0  0
  2  9  1  0  0  0  0
  2 20  1  0  0  0  0
  3  4  1  0  0  0  0
  3 21  1  0  0  0  0
  3 22  1  0  0  0  0
  4  8  1  0  0  0  0
  4  5  1  0  0  0  0
  5  6  2  0  0  0  0
  5 23  1  0  0  0  0
  6  7  1  0  0  0  0
  6 24  1  0  0  0  0
  7  8  2  0  0  0  0
  7 36  1  0  0  0  0
  8 25  1  0  0  0  0
  9 10  1  0  0  0  0
  9 26  1  0  0  0  0
 10 11  2  0  0  0  0
 10 12  1  0  0  0  0
 12 16  1  0  0  0  0
 12 13  1  0  0  0  0
 12 27  1  0  0  0  0
 13 14  1  0  0  0  0
 13 28  1  0  0  0  0
 13 29  1  0  0  0  0
 14 15  1  0  0  0  0
 14 30  1  0  0  0  0
 14 31  1  0  0  0  0
 15 16  1  0  0  0  0
 15 32  1  0  0  0  0
 15 33  1  0  0  0  0
 16 34  1  0  0  0  0
 16 35  1  0  0  0  0
M  CHG  1   7   1
M  END
> <s_m_source_file>
AV-unprocessed.smi

> <i_m_source_file_index>
312

> <i_lp_mmshare_version>
43012

> <i_f3d_flags>
0

> <s_epik_input>
W2NIXTFuW2NIXVtjSF1uMVtDSDJdW0NAQEhdKFtDSDNdKVtOSF1DKD1PKVtDSF0yW0NIMl1bQ0gyXVtDSDJdW0NIMl0y

> <s_epik_cmdline>
J2VwaWtfcHl0aG9uJywgJy1waCcsICc3LjAnLCAnLXRuJywgJzgnLCAnLW1hJywgJzIwMCcsICctbWV0YWxfYmluZGluZycsICctaW1hZScsICc8aW5maWxlLm1hZT4nLCAnLW9tYWUnLCAnPG91dGZpbGUubWFlPic=

> <r_lp_tautomer_probability>
1

> <r_epik_Ionization_Penalty>
0.244425

> <r_epik_Ionization_Penalty_Charging>
0

> <r_epik_Ionization_Penalty_Neutral>
0.244425

> <r_epik_State_Penalty>
0.23553

> <r_epik_Charging_Adjusted_Penalty>
0.23553

> <i_epik_Tot_Q>
1

> <i_epik_Tot_abs_Q>
1

> <r_epik_Metal_State_Penalty>
0.528799

> <b_epik_Metal_Only>
0

> <s_lp_Force_Field>
OPLS_2005

> <r_lp_Energy>
22.578

> <b_lp_Chiralities_Consistent>
1

> <s_lp_Variant>
AV-unprocessed.smi:312-2

> <Gold.Version>
5.8.1

> <Gold.Id.Protein>
6NUR|6NUR_protein|mol2

> <Gold.PLP.Fitness>
49.6381

> <Gold.PLP.PLP>
-37.7332

> <Gold.PLP.part.hbond>
-2.4700

> <Gold.PLP.part.metal>
0.0000

> <Gold.PLP.part.buried>
-2.2092

> <Gold.PLP.part.nonpolar>
-33.3467

> <Gold.PLP.part.repulsive>
0.1052

> <Gold.PLP.ligand.clash>
0.0000

> <Gold.PLP.ligand.torsion>
0.0448

> <Gold.PLP.Chemscore.Hbond>
2.9913

> <Gold.PLP.Chemscore.CHOScore>
1.0000

> <Gold.PLP.Chemscore.Metal>
0.0000

> <Gold.Chemscore.Hbonds>
donor molecule, donor type, donor heavy atom, donor atom, acceptor molecule, acceptor atom, score
      L1  H     7    36       P1  7948  2.00
      L1  H     9    26       P1  8028  1.00
      L1  C     8    25       P1  7957  1.00

> <Gold.PLP.Chemscore.Internal.Correction>
0.0208

> <Gold.Rescore>
     Score         DG    S(hbond)    S(metal)    S(lipo)     H(rot)  DE(clash)    DE(int)     intcor
     17.12     -17.84       1.90        0.00      91.26       1.82       0.51       0.21       ----

> <Gold.Chemscore.Fitness>
17.1236

> <Gold.Chemscore.DG>
-17.8448

> <Gold.Chemscore.ZeroCoef>
-5.4800

> <Gold.Chemscore.Hbond>
1.9030

> <Gold.Chemscore.Metal>
0.0000

> <Gold.Chemscore.Lipo>
91.2571

> <Gold.Chemscore.Internal_Hbond>
0.0000

> <Gold.Chemscore.DEClash>
0.5134

> <Gold.Chemscore.DEInternal>
0.2078

> <Gold.Chemscore.Rot>
1.8235

> <Gold.Chemscore.Internal.Correction>
   9.000000E+99

> <Gold.Chemscore.Hbonds>
donor molecule, donor type, donor heavy atom, donor atom, acceptor molecule, acceptor atom, score
      L1  H     7    36       P1  7948  0.94
      L1  H     9    26       P1  8028  0.93

> <Gold.Chemscore.Hbond.Weighted>
-6.3560

> <Gold.Chemscore.Metal.Weighted>
-0.0000

> <Gold.Chemscore.Lipo.Weighted>
-10.6771

> <Gold.Chemscore.Internal_Hbond.Weighted>
0.0000

> <Gold.Chemscore.DEClash.Weighted>
0.5134

> <Gold.Chemscore.DEInternal.Weighted>
0.2078

> <Gold.Chemscore.Rot.Weighted>
4.6683

> <Gold.Chemscore.Internal.Correction.Weighted>
   9.000000E+99

> <Gold.Protein.RotatedTorsions>
[ 6907 6896 6895 6894 ] final -112.57 input  -60.11 | X-H torsion
[ 7974 7965 7964 7962 ] final -143.13 input  175.53 | X-H torsion
[ 8008 7997 7996 7995 ] final   57.09 input   59.86 | X-H torsion
[ 10167 10162 10161 10158 ] final -171.83 input  -65.29 | X-H torsion
[ 10718 10713 10712 10709 ] final    5.19 input   66.30 | X-H torsion
[ 10763 10752 10751 10750 ] final  -16.78 input  -60.55 | X-H torsion
[ 11005 11000 10999 10996 ] final  -97.00 input  -57.11 | X-H torsion

> <Gold.Protein.ActiveResidues>
 VAL166  LYS551  ARG553  GLY616  TRP617  ASP618  TYR619  PRO620  LYS621  CYS622 
 ASP623  PHE694  ASN695  SER759  ASP760  ASP761  ALA762  ILE779  LEU786  VAL792 
 PHE793  MET794  SER795  GLU796  ALA797  LYS798  CYS799  TRP800  GLU811  SER814 

> <Gold.Protein.RotatedAtoms>
  150.7768  133.9070  159.3357 H   0  0  0  0  0  0  0  0  0  0  0  0  # atno 6907 bound_to 6896
  151.6942  135.0939  160.0248 H   0  0  0  0  0  0  0  0  0  0  0  0  # atno 6908 bound_to 6896
  152.3806  133.6503  159.6194 H   0  0  0  0  0  0  0  0  0  0  0  0  # atno 6909 bound_to 6896
  144.8392  140.5873  143.5463 H   0  0  0  0  0  0  0  0  0  0  0  0  # atno 7974 bound_to 7965
  155.5281  140.3481  155.4420 H   0  0  0  0  0  0  0  0  0  0  0  0  # atno 8008 bound_to 7997
  156.0738  140.1369  156.9823 H   0  0  0  0  0  0  0  0  0  0  0  0  # atno 8009 bound_to 7997
  154.4542  140.0960  156.6683 H   0  0  0  0  0  0  0  0  0  0  0  0  # atno 8010 bound_to 7997
  139.5779  144.1490  152.1476 H   0  0  0  0  0  0  0  0  0  0  0  0  # atno 10167 bound_to 10162
  156.9038  130.5731  149.5647 H   0  0  0  0  0  0  0  0  0  0  0  0  # atno 10718 bound_to 10713
  153.5638  135.7009  153.5535 H   0  0  0  0  0  0  0  0  0  0  0  0  # atno 10763 bound_to 10752
  153.3405  135.4022  155.1568 H   0  0  0  0  0  0  0  0  0  0  0  0  # atno 10764 bound_to 10752
  154.8644  135.3741  154.5157 H   0  0  0  0  0  0  0  0  0  0  0  0  # atno 10765 bound_to 10752
  141.1393  133.8139  157.0647 H   0  0  0  0  0  0  0  0  0  0  0  0  # atno 11005 bound_to 11000
  145.4730  139.1502  143.3804 LP  0  0  0  0  0  0  0  0  0  0  0  0  # atno 17320 bound_to 7965
  146.2687  140.4864  142.8823 LP  0  0  0  0  0  0  0  0  0  0  0  0  # atno 17321 bound_to 7965
  140.1036  144.5518  150.6972 LP  0  0  0  0  0  0  0  0  0  0  0  0  # atno 17342 bound_to 10162
  140.7060  143.2469  151.4724 LP  0  0  0  0  0  0  0  0  0  0  0  0  # atno 17343 bound_to 10162
  156.0569  130.5629  150.9110 LP  0  0  0  0  0  0  0  0  0  0  0  0  # atno 17370 bound_to 10713
  157.6010  131.0941  150.8961 LP  0  0  0  0  0  0  0  0  0  0  0  0  # atno 17371 bound_to 10713
  140.0549  134.9786  157.1202 LP  0  0  0  0  0  0  0  0  0  0  0  0  # atno 17394 bound_to 11000
  140.3934  134.2159  155.7165 LP  0  0  0  0  0  0  0  0  0  0  0  0  # atno 17395 bound_to 11000

$$$$
