AV-unprocessed.smi:1287|AV-procd|sdf|5379|dock10
  -GOLD-   22720 4523D 1   1.00000     0.00000
 Structure written by MMmdl.
 44 45  0  0  0  0  0  0  0  0  1 V2000
  148.5646  132.6353  152.3962 C   0  0  0  0  0  0  0  0  0  0  0  0
  148.9041  133.0782  153.8151 C   0  0  0  0  0  0  0  0  0  0  0  0
  149.0255  132.2433  154.7113 O   0  0  0  0  0  0  0  0  0  0  0  0
  149.0569  134.3985  154.0049 N   0  0  0  0  0  0  0  0  0  0  0  0
  149.4060  135.0333  155.2748 C   0  0  2  0  0  0  0  0  0  0  0  0
  148.1733  135.8001  155.7820 C   0  0  0  0  0  0  0  0  0  0  0  0
  150.5527  136.0363  155.0716 C   0  0  0  0  0  0  0  0  0  0  0  0
  151.5921  135.9409  155.7266 O   0  0  0  0  0  0  0  0  0  0  0  0
  150.3457  136.9966  154.1579 N   0  0  0  0  0  0  0  0  0  0  0  0
  151.2811  138.0753  153.8563 C   0  0  0  0  0  0  0  0  0  0  0  0
  151.4787  139.0679  154.9943 C   0  0  0  0  0  0  0  0  0  0  0  0
  150.5543  140.1004  155.2603 C   0  0  0  0  0  0  0  0  0  0  0  0
  150.8032  140.9827  156.3286 C   0  0  0  0  0  0  0  0  0  0  0  0
  151.9730  140.8139  157.1072 C   0  0  0  0  0  0  0  0  0  0  0  0
  152.2398  141.6829  158.1881 N   0  0  0  0  0  0  0  0  0  0  0  0
  152.8507  141.1147  159.3888 C   0  0  0  0  0  0  0  0  0  0  0  0
  153.3248  142.2335  160.3315 C   0  0  0  0  0  0  0  0  0  0  0  0
  152.2378  143.1035  160.6279 O   0  0  0  0  0  0  0  0  0  0  0  0
  151.7307  143.7334  159.4562 C   0  0  0  0  0  0  0  0  0  0  0  0
  151.2022  142.6697  158.4782 C   0  0  0  0  0  0  0  0  0  0  0  0
  152.8664  139.8296  156.8377 N   0  0  0  0  0  0  0  0  0  0  0  0
  152.6222  138.9856  155.8133 C   0  0  0  0  0  0  0  0  0  0  0  0
  149.2905  133.0351  151.6871 H   0  0  0  0  0  0  0  0  0  0  0  0
  147.5728  132.9901  152.1144 H   0  0  0  0  0  0  0  0  0  0  0  0
  148.5746  131.5476  152.3168 H   0  0  0  0  0  0  0  0  0  0  0  0
  148.9464  135.0082  153.2077 H   0  0  0  0  0  0  0  0  0  0  0  0
  149.6895  134.2729  156.0056 H   0  0  0  0  0  0  0  0  0  0  0  0
  148.3799  136.2994  156.7295 H   0  0  0  0  0  0  0  0  0  0  0  0
  147.3363  135.1218  155.9499 H   0  0  0  0  0  0  0  0  0  0  0  0
  147.8441  136.5590  155.0704 H   0  0  0  0  0  0  0  0  0  0  0  0
  149.4666  136.9998  153.6611 H   0  0  0  0  0  0  0  0  0  0  0  0
  152.2438  137.6544  153.5613 H   0  0  0  0  0  0  0  0  0  0  0  0
  150.9047  138.6200  152.9904 H   0  0  0  0  0  0  0  0  0  0  0  0
  149.6663  140.2245  154.6583 H   0  0  0  0  0  0  0  0  0  0  0  0
  150.1042  141.7812  156.5269 H   0  0  0  0  0  0  0  0  0  0  0  0
  152.1236  140.4806  159.8982 H   0  0  0  0  0  0  0  0  0  0  0  0
  153.7011  140.4868  159.1195 H   0  0  0  0  0  0  0  0  0  0  0  0
  153.7014  141.8062  161.2609 H   0  0  0  0  0  0  0  0  0  0  0  0
  154.1455  142.7973  159.8849 H   0  0  0  0  0  0  0  0  0  0  0  0
  150.9273  144.4137  159.7390 H   0  0  0  0  0  0  0  0  0  0  0  0
  152.5098  144.3378  158.9889 H   0  0  0  0  0  0  0  0  0  0  0  0
  150.8508  143.1659  157.5748 H   0  0  0  0  0  0  0  0  0  0  0  0
  150.3426  142.1582  158.9131 H   0  0  0  0  0  0  0  0  0  0  0  0
  153.3639  138.2185  155.6453 H   0  0  0  0  0  0  0  0  0  0  0  0
  1  2  1  0  0  0  0
  1 23  1  0  0  0  0
  1 24  1  0  0  0  0
  1 25  1  0  0  0  0
  2  3  2  0  0  0  0
  2  4  1  0  0  0  0
  4  5  1  0  0  0  0
  4 26  1  0  0  0  0
  5  6  1  0  0  0  0
  5  7  1  0  0  0  0
  5 27  1  0  0  0  0
  6 28  1  0  0  0  0
  6 29  1  0  0  0  0
  6 30  1  0  0  0  0
  7  8  2  0  0  0  0
  7  9  1  0  0  0  0
  9 10  1  0  0  0  0
  9 31  1  0  0  0  0
 10 11  1  0  0  0  0
 10 32  1  0  0  0  0
 10 33  1  0  0  0  0
 11 22  1  0  0  0  0
 11 12  2  0  0  0  0
 12 13  1  0  0  0  0
 12 34  1  0  0  0  0
 13 14  2  0  0  0  0
 13 35  1  0  0  0  0
 14 15  1  0  0  0  0
 14 21  1  0  0  0  0
 15 20  1  0  0  0  0
 15 16  1  0  0  0  0
 16 17  1  0  0  0  0
 16 36  1  0  0  0  0
 16 37  1  0  0  0  0
 17 18  1  0  0  0  0
 17 38  1  0  0  0  0
 17 39  1  0  0  0  0
 18 19  1  0  0  0  0
 19 20  1  0  0  0  0
 19 40  1  0  0  0  0
 19 41  1  0  0  0  0
 20 42  1  0  0  0  0
 20 43  1  0  0  0  0
 21 22  2  0  0  0  0
 22 44  1  0  0  0  0
M  END
> <s_m_source_file>
AV-unprocessed.smi

> <i_m_source_file_index>
1287

> <i_lp_mmshare_version>
43012

> <i_f3d_flags>
0

> <s_epik_input>
W0NIM11DKD1PKVtOSF1bQ0BIXShbQ0gzXSlDKD1PKVtOSF1bQ0gyXWMxW2NIXVtjSF1jKG5bY0hdMSlOMltDSDJdW0NIMl1PW0NIMl1bQ0gyXTI=

> <s_epik_cmdline>
J2VwaWtfcHl0aG9uJywgJy1waCcsICc3LjAnLCAnLXRuJywgJzgnLCAnLW1hJywgJzIwMCcsICctbWV0YWxfYmluZGluZycsICctaW1hZScsICc8aW5maWxlLm1hZT4nLCAnLW9tYWUnLCAnPG91dGZpbGUubWFlPic=

> <r_lp_tautomer_probability>
1

> <r_epik_Ionization_Penalty>
0.00481935

> <r_epik_Ionization_Penalty_Charging>
0

> <r_epik_Ionization_Penalty_Neutral>
0.00481935

> <r_epik_State_Penalty>
0.00349439

> <r_epik_Charging_Adjusted_Penalty>
0.00349439

> <i_epik_Tot_Q>
0

> <i_epik_Tot_abs_Q>
0

> <r_epik_Metal_State_Penalty>
-0

> <b_epik_Metal_Only>
0

> <s_lp_Force_Field>
OPLS_2005

> <r_lp_Energy>
14.7746

> <b_lp_Chiralities_Consistent>
1

> <s_lp_Variant>
AV-unprocessed.smi:1287-1

> <Gold.Version>
5.8.1

> <Gold.Id.Protein>
6NUR|6NUR_protein|mol2

> <Gold.PLP.Fitness>
48.1573

> <Gold.PLP.PLP>
-39.0075

> <Gold.PLP.part.hbond>
-4.8058

> <Gold.PLP.part.metal>
0.0000

> <Gold.PLP.part.buried>
-1.2497

> <Gold.PLP.part.nonpolar>
-31.6106

> <Gold.PLP.part.repulsive>
0.1692

> <Gold.PLP.ligand.clash>
0.0000

> <Gold.PLP.ligand.torsion>
0.7532

> <Gold.PLP.Chemscore.Hbond>
3.4222

> <Gold.PLP.Chemscore.CHOScore>
0.0000

> <Gold.PLP.Chemscore.Metal>
0.0000

> <Gold.Chemscore.Hbonds>
donor molecule, donor type, donor heavy atom, donor atom, acceptor molecule, acceptor atom, score
      L1  H     4    26       P1  7948  1.00
      L1  H     9    31       P1  7948  0.59
      P1  H  7997  8009       L1    21  0.90
      P1  H 10752 10765       L1     8  1.00

> <Gold.PLP.Chemscore.Internal.Correction>
0.3895

> <Gold.Rescore>
     Score         DG    S(hbond)    S(metal)    S(lipo)     H(rot)  DE(clash)    DE(int)     intcor
     19.08     -20.15       2.95        0.00      88.44       2.16       0.39       0.68       ----

> <Gold.Chemscore.Fitness>
19.0762

> <Gold.Chemscore.DG>
-20.1451

> <Gold.Chemscore.ZeroCoef>
-5.4800

> <Gold.Chemscore.Hbond>
2.9495

> <Gold.Chemscore.Metal>
0.0000

> <Gold.Chemscore.Lipo>
88.4385

> <Gold.Chemscore.Internal_Hbond>
0.0000

> <Gold.Chemscore.DEClash>
0.3879

> <Gold.Chemscore.DEInternal>
0.6811

> <Gold.Chemscore.Rot>
2.1616

> <Gold.Chemscore.Internal.Correction>
   9.000000E+99

> <Gold.Chemscore.Hbonds>
donor molecule, donor type, donor heavy atom, donor atom, acceptor molecule, acceptor atom, score
      L1  H     4    26       P1  7948  0.26
      L1  H     9    31       P1  7948  0.53
      P1  H  7997  8009       L1    21  0.17
      P1  H 10752 10765       L1     8  0.82

> <Gold.Chemscore.Hbond.Weighted>
-9.8515

> <Gold.Chemscore.Metal.Weighted>
-0.0000

> <Gold.Chemscore.Lipo.Weighted>
-10.3473

> <Gold.Chemscore.Internal_Hbond.Weighted>
0.0000

> <Gold.Chemscore.DEClash.Weighted>
0.3879

> <Gold.Chemscore.DEInternal.Weighted>
0.6811

> <Gold.Chemscore.Rot.Weighted>
5.5336

> <Gold.Chemscore.Internal.Correction.Weighted>
   9.000000E+99

> <Gold.Protein.RotatedTorsions>
[ 6907 6896 6895 6894 ] final -174.63 input  -60.11 | X-H torsion
[ 7974 7965 7964 7962 ] final  -35.57 input  175.53 | X-H torsion
[ 8008 7997 7996 7995 ] final -174.61 input   59.86 | X-H torsion
[ 10167 10162 10161 10158 ] final  148.85 input  -65.29 | X-H torsion
[ 10718 10713 10712 10709 ] final  -41.19 input   66.30 | X-H torsion
[ 10763 10752 10751 10750 ] final -172.89 input  -60.55 | X-H torsion
[ 11005 11000 10999 10996 ] final   72.35 input  -57.11 | X-H torsion

> <Gold.Protein.ActiveResidues>
 VAL166  LYS551  ARG553  GLY616  TRP617  ASP618  TYR619  PRO620  LYS621  CYS622 
 ASP623  PHE694  ASN695  SER759  ASP760  ASP761  ALA762  ILE779  LEU786  VAL792 
 PHE793  MET794  SER795  GLU796  ALA797  LYS798  CYS799  TRP800  GLU811  SER814 

> <Gold.Protein.RotatedAtoms>
  151.5755  133.3384  159.2997 H   0  0  0  0  0  0  0  0  0  0  0  0  # atno 6907 bound_to 6896
  150.8343  134.7613  159.6891 H   0  0  0  0  0  0  0  0  0  0  0  0  # atno 6908 bound_to 6896
  152.4422  134.5575  159.9936 H   0  0  0  0  0  0  0  0  0  0  0  0  # atno 6909 bound_to 6896
  146.0735  140.6174  142.8941 H   0  0  0  0  0  0  0  0  0  0  0  0  # atno 7974 bound_to 7965
  155.9722  140.1165  157.0802 H   0  0  0  0  0  0  0  0  0  0  0  0  # atno 8008 bound_to 7997
  154.4159  140.1161  156.5389 H   0  0  0  0  0  0  0  0  0  0  0  0  # atno 8009 bound_to 7997
  155.6581  140.3473  155.4775 H   0  0  0  0  0  0  0  0  0  0  0  0  # atno 8010 bound_to 7997
  139.4869  144.5648  151.7165 H   0  0  0  0  0  0  0  0  0  0  0  0  # atno 10167 bound_to 10162
  156.2730  130.4209  149.8417 H   0  0  0  0  0  0  0  0  0  0  0  0  # atno 10718 bound_to 10713
  154.6141  135.2868  155.0399 H   0  0  0  0  0  0  0  0  0  0  0  0  # atno 10763 bound_to 10752
  154.1618  135.6487  153.4991 H   0  0  0  0  0  0  0  0  0  0  0  0  # atno 10764 bound_to 10752
  153.0207  135.5380  154.6906 H   0  0  0  0  0  0  0  0  0  0  0  0  # atno 10765 bound_to 10752
  139.9496  134.7251  156.0896 H   0  0  0  0  0  0  0  0  0  0  0  0  # atno 11005 bound_to 11000
  144.7247  140.4486  143.6982 LP  0  0  0  0  0  0  0  0  0  0  0  0  # atno 17320 bound_to 7965
  145.6348  139.1541  143.2949 LP  0  0  0  0  0  0  0  0  0  0  0  0  # atno 17321 bound_to 7965
  140.5224  144.0858  150.6027 LP  0  0  0  0  0  0  0  0  0  0  0  0  # atno 17342 bound_to 10162
  140.3821  143.2797  152.0158 LP  0  0  0  0  0  0  0  0  0  0  0  0  # atno 17343 bound_to 10162
  156.5892  130.8499  151.3403 LP  0  0  0  0  0  0  0  0  0  0  0  0  # atno 17370 bound_to 10713
  157.7290  130.9665  150.1768 LP  0  0  0  0  0  0  0  0  0  0  0  0  # atno 17371 bound_to 10713
  141.1155  133.6629  156.3083 LP  0  0  0  0  0  0  0  0  0  0  0  0  # atno 17394 bound_to 11000
  140.5752  134.5801  157.5467 LP  0  0  0  0  0  0  0  0  0  0  0  0  # atno 17395 bound_to 11000

$$$$
