AV-unprocessed.smi:1124|AV-procd|sdf|4833|dock1
  -GOLD-   22720 3393D 1   1.00000     0.00000
 Structure written by MMmdl.
 52 53  0  0  0  0  0  0  0  0  2 V2000
  144.5330  141.4948  155.7703 C   0  0  0  0  0  0  0  0  0  0  0  0
  145.1663  140.3953  155.0084 N   0  3  0  0  0  0  0  0  0  0  0  0
  144.6369  139.0715  155.4038 C   0  0  0  0  0  0  0  0  0  0  0  0
  146.6527  140.4550  155.0229 C   0  0  0  0  0  0  0  0  0  0  0  0
  147.2369  141.3590  153.9024 C   0  0  0  0  0  0  0  0  0  0  0  0
  146.7662  140.8549  152.5213 C   0  0  0  0  0  0  0  0  0  0  0  0
  146.7808  142.8229  154.0904 C   0  0  0  0  0  0  0  0  0  0  0  0
  148.7888  141.2910  153.9155 C   0  0  0  0  0  0  0  0  0  0  0  0
  149.3916  141.7827  155.1532 N   0  0  0  0  0  0  0  0  0  0  0  0
  149.9627  141.0230  156.1020 C   0  0  0  0  0  0  0  0  0  0  0  0
  150.0445  139.7964  156.0317 O   0  0  0  0  0  0  0  0  0  0  0  0
  150.5285  141.7828  157.2733 C   0  0  0  0  0  0  0  0  0  0  0  0
  150.4657  143.1960  157.2768 C   0  0  0  0  0  0  0  0  0  0  0  0
  150.9464  143.9112  158.3875 C   0  0  0  0  0  0  0  0  0  0  0  0
  151.4703  143.1840  159.4694 C   0  0  0  0  0  0  0  0  0  0  0  0
  151.5363  141.8379  159.4883 N   0  0  0  0  0  0  0  0  0  0  0  0
  151.0792  141.1371  158.4207 C   0  0  0  0  0  0  0  0  0  0  0  0
  151.2150  139.7355  158.4843 N   0  0  0  0  0  0  0  0  0  0  0  0
  149.9972  138.9481  158.6487 C   0  0  0  0  0  0  0  0  0  0  0  0
  150.3111  137.4553  158.4511 C   0  0  0  0  0  0  0  0  0  0  0  0
  151.3416  137.0607  159.3530 O   0  0  0  0  0  0  0  0  0  0  0  0
  152.5503  137.7839  159.1361 C   0  0  0  0  0  0  0  0  0  0  0  0
  152.3002  139.2867  159.3482 C   0  0  0  0  0  0  0  0  0  0  0  0
  144.7595  141.4152  156.8343 H   0  0  0  0  0  0  0  0  0  0  0  0
  143.4495  141.4720  155.6491 H   0  0  0  0  0  0  0  0  0  0  0  0
  144.8854  142.4644  155.4174 H   0  0  0  0  0  0  0  0  0  0  0  0
  144.8872  138.8434  156.4406 H   0  0  0  0  0  0  0  0  0  0  0  0
  145.0510  138.2867  154.7697 H   0  0  0  0  0  0  0  0  0  0  0  0
  143.5517  139.0433  155.2993 H   0  0  0  0  0  0  0  0  0  0  0  0
  146.9870  140.8014  156.0016 H   0  0  0  0  0  0  0  0  0  0  0  0
  147.0663  139.4500  154.9213 H   0  0  0  0  0  0  0  0  0  0  0  0
  147.2076  141.4407  151.7142 H   0  0  0  0  0  0  0  0  0  0  0  0
  145.6838  140.9227  152.4080 H   0  0  0  0  0  0  0  0  0  0  0  0
  147.0487  139.8136  152.3613 H   0  0  0  0  0  0  0  0  0  0  0  0
  147.2479  143.4791  153.3552 H   0  0  0  0  0  0  0  0  0  0  0  0
  147.0373  143.2031  155.0799 H   0  0  0  0  0  0  0  0  0  0  0  0
  145.7020  142.9270  153.9729 H   0  0  0  0  0  0  0  0  0  0  0  0
  149.1265  140.2745  153.7051 H   0  0  0  0  0  0  0  0  0  0  0  0
  149.1898  141.9031  153.1069 H   0  0  0  0  0  0  0  0  0  0  0  0
  149.3878  142.7831  155.2922 H   0  0  0  0  0  0  0  0  0  0  0  0
  150.0434  143.7365  156.4419 H   0  0  0  0  0  0  0  0  0  0  0  0
  150.9078  144.9902  158.4128 H   0  0  0  0  0  0  0  0  0  0  0  0
  151.8466  143.6956  160.3430 H   0  0  0  0  0  0  0  0  0  0  0  0
  149.5850  139.1080  159.6460 H   0  0  0  0  0  0  0  0  0  0  0  0
  149.2452  139.2719  157.9282 H   0  0  0  0  0  0  0  0  0  0  0  0
  149.4214  136.8551  158.6419 H   0  0  0  0  0  0  0  0  0  0  0  0
  150.6173  137.2548  157.4228 H   0  0  0  0  0  0  0  0  0  0  0  0
  153.3085  137.4268  159.8329 H   0  0  0  0  0  0  0  0  0  0  0  0
  152.9261  137.5917  158.1296 H   0  0  0  0  0  0  0  0  0  0  0  0
  153.2135  139.8467  159.1466 H   0  0  0  0  0  0  0  0  0  0  0  0
  152.0318  139.4786  160.3878 H   0  0  0  0  0  0  0  0  0  0  0  0
  144.8944  140.5269  154.0447 H   0  0  0  0  0  0  0  0  0  0  0  0
  1  2  1  0  0  0  0
  1 24  1  0  0  0  0
  1 25  1  0  0  0  0
  1 26  1  0  0  0  0
  2  3  1  0  0  0  0
  2  4  1  0  0  0  0
  2 52  1  0  0  0  0
  3 27  1  0  0  0  0
  3 28  1  0  0  0  0
  3 29  1  0  0  0  0
  4  5  1  0  0  0  0
  4 30  1  0  0  0  0
  4 31  1  0  0  0  0
  5  6  1  0  0  0  0
  5  7  1  0  0  0  0
  5  8  1  0  0  0  0
  6 32  1  0  0  0  0
  6 33  1  0  0  0  0
  6 34  1  0  0  0  0
  7 35  1  0  0  0  0
  7 36  1  0  0  0  0
  7 37  1  0  0  0  0
  8  9  1  0  0  0  0
  8 38  1  0  0  0  0
  8 39  1  0  0  0  0
  9 10  1  0  0  0  0
  9 40  1  0  0  0  0
 10 11  2  0  0  0  0
 10 12  1  0  0  0  0
 12 17  1  0  0  0  0
 12 13  2  0  0  0  0
 13 14  1  0  0  0  0
 13 41  1  0  0  0  0
 14 15  2  0  0  0  0
 14 42  1  0  0  0  0
 15 16  1  0  0  0  0
 15 43  1  0  0  0  0
 16 17  2  0  0  0  0
 17 18  1  0  0  0  0
 18 23  1  0  0  0  0
 18 19  1  0  0  0  0
 19 20  1  0  0  0  0
 19 44  1  0  0  0  0
 19 45  1  0  0  0  0
 20 21  1  0  0  0  0
 20 46  1  0  0  0  0
 20 47  1  0  0  0  0
 21 22  1  0  0  0  0
 22 23  1  0  0  0  0
 22 48  1  0  0  0  0
 22 49  1  0  0  0  0
 23 50  1  0  0  0  0
 23 51  1  0  0  0  0
M  CHG  1   2   1
M  END
> <s_m_source_file>
AV-unprocessed.smi

> <i_m_source_file_index>
1124

> <i_lp_mmshare_version>
43012

> <i_f3d_flags>
0

> <s_epik_input>
W0NIM11OKFtDSDNdKVtDSDJdQyhbQ0gzXSkoW0NIM10pW0NIMl1bTkhdQyg9TyljMVtjSF1bY0hdW2NIXW5jMU4yW0NIMl1bQ0gyXU9bQ0gyXVtDSDJdMg==

> <s_epik_cmdline>
J2VwaWtfcHl0aG9uJywgJy1waCcsICc3LjAnLCAnLXRuJywgJzgnLCAnLW1hJywgJzIwMCcsICctbWV0YWxfYmluZGluZycsICctaW1hZScsICc8aW5maWxlLm1hZT4nLCAnLW9tYWUnLCAnPG91dGZpbGUubWFlPic=

> <r_lp_tautomer_probability>
1

> <r_epik_Ionization_Penalty>
0.000493047

> <r_epik_Ionization_Penalty_Charging>
0.000482013

> <r_epik_Ionization_Penalty_Neutral>
1.10333e-05

> <r_epik_State_Penalty>
0.000299147

> <r_epik_Charging_Adjusted_Penalty>
0.000781161

> <i_epik_Tot_Q>
1

> <i_epik_Tot_abs_Q>
1

> <r_epik_Metal_State_Penalty>
-0

> <b_epik_Metal_Only>
0

> <s_lp_Force_Field>
OPLS_2005

> <r_lp_Energy>
38.5131

> <b_lp_Chiralities_Consistent>
1

> <s_lp_Variant>
AV-unprocessed.smi:1124-1

> <Gold.Version>
5.8.1

> <Gold.Id.Protein>
6NUR|6NUR_protein|mol2

> <Gold.PLP.Fitness>
41.1097

> <Gold.PLP.PLP>
-29.9762

> <Gold.PLP.part.hbond>
-3.0000

> <Gold.PLP.part.metal>
0.0000

> <Gold.PLP.part.buried>
2.0014

> <Gold.PLP.part.nonpolar>
-28.7835

> <Gold.PLP.part.repulsive>
0.1960

> <Gold.PLP.ligand.clash>
0.0000

> <Gold.PLP.ligand.torsion>
0.9591

> <Gold.PLP.Chemscore.Hbond>
4.0000

> <Gold.PLP.Chemscore.CHOScore>
0.0000

> <Gold.PLP.Chemscore.Metal>
0.0000

> <Gold.Chemscore.Hbonds>
donor molecule, donor type, donor heavy atom, donor atom, acceptor molecule, acceptor atom, score
      L1  H     2    52       P1 10175  2.00
      L1  H     9    40       P1  8028  1.00
      P1  H  6896  6909       L1    21  1.00

> <Gold.PLP.Chemscore.Internal.Correction>
1.0517

> <Gold.Rescore>
     Score         DG    S(hbond)    S(metal)    S(lipo)     H(rot)  DE(clash)    DE(int)     intcor
     14.63     -19.42       2.67        0.00      80.81       1.73       0.86       3.93       ----

> <Gold.Chemscore.Fitness>
14.6336

> <Gold.Chemscore.DG>
-19.4189

> <Gold.Chemscore.ZeroCoef>
-5.4800

> <Gold.Chemscore.Hbond>
2.6721

> <Gold.Chemscore.Metal>
0.0000

> <Gold.Chemscore.Lipo>
80.8098

> <Gold.Chemscore.Internal_Hbond>
0.0000

> <Gold.Chemscore.DEClash>
0.8582

> <Gold.Chemscore.DEInternal>
3.9271

> <Gold.Chemscore.Rot>
1.7347

> <Gold.Chemscore.Internal.Correction>
   9.000000E+99

> <Gold.Chemscore.Hbonds>
donor molecule, donor type, donor heavy atom, donor atom, acceptor molecule, acceptor atom, score
      L1  H     2    52       P1 10175  0.96
      L1  H     9    40       P1  8028  0.93
      P1  H  6896  6909       L1    21  0.92

> <Gold.Chemscore.Hbond.Weighted>
-8.9250

> <Gold.Chemscore.Metal.Weighted>
-0.0000

> <Gold.Chemscore.Lipo.Weighted>
-9.4547

> <Gold.Chemscore.Internal_Hbond.Weighted>
0.0000

> <Gold.Chemscore.DEClash.Weighted>
0.8582

> <Gold.Chemscore.DEInternal.Weighted>
3.9271

> <Gold.Chemscore.Rot.Weighted>
4.4408

> <Gold.Chemscore.Internal.Correction.Weighted>
   9.000000E+99

> <Gold.Protein.RotatedTorsions>
[ 6907 6896 6895 6894 ] final  112.92 input  -60.11 | X-H torsion
[ 7974 7965 7964 7962 ] final   49.62 input  175.53 | X-H torsion
[ 8008 7997 7996 7995 ] final  -96.05 input   59.86 | X-H torsion
[ 10167 10162 10161 10158 ] final   57.03 input  -65.29 | X-H torsion
[ 10718 10713 10712 10709 ] final  166.75 input   66.30 | X-H torsion
[ 10763 10752 10751 10750 ] final -164.92 input  -60.55 | X-H torsion
[ 11005 11000 10999 10996 ] final   -1.63 input  -57.11 | X-H torsion

> <Gold.Protein.ActiveResidues>
 VAL166  LYS551  ARG553  GLY616  TRP617  ASP618  TYR619  PRO620  LYS621  CYS622 
 ASP623  PHE694  ASN695  SER759  ASP760  ASP761  ALA762  ILE779  LEU786  VAL792 
 PHE793  MET794  SER795  GLU796  ALA797  LYS798  CYS799  TRP800  GLU811  SER814 

> <Gold.Protein.RotatedAtoms>
  152.4890  133.8448  159.7171 H   0  0  0  0  0  0  0  0  0  0  0  0  # atno 6907 bound_to 6896
  150.9002  133.7119  159.2888 H   0  0  0  0  0  0  0  0  0  0  0  0  # atno 6908 bound_to 6896
  151.4563  135.1038  159.9764 H   0  0  0  0  0  0  0  0  0  0  0  0  # atno 6909 bound_to 6896
  146.0091  139.4523  142.9967 H   0  0  0  0  0  0  0  0  0  0  0  0  # atno 7974 bound_to 7965
  154.7693  140.0474  157.1038 H   0  0  0  0  0  0  0  0  0  0  0  0  # atno 8008 bound_to 7997
  154.9840  140.3105  155.4915 H   0  0  0  0  0  0  0  0  0  0  0  0  # atno 8009 bound_to 7997
  156.2918  140.2231  156.4940 H   0  0  0  0  0  0  0  0  0  0  0  0  # atno 8010 bound_to 7997
  140.2024  144.3974  150.6523 H   0  0  0  0  0  0  0  0  0  0  0  0  # atno 10167 bound_to 10162
  157.0614  131.0341  151.2645 H   0  0  0  0  0  0  0  0  0  0  0  0  # atno 10718 bound_to 10713
  154.6982  135.2983  154.9380 H   0  0  0  0  0  0  0  0  0  0  0  0  # atno 10763 bound_to 10752
  154.0320  135.6669  153.4785 H   0  0  0  0  0  0  0  0  0  0  0  0  # atno 10764 bound_to 10752
  153.0662  135.5087  154.8112 H   0  0  0  0  0  0  0  0  0  0  0  0  # atno 10765 bound_to 10752
  140.6495  133.9417  155.8372 H   0  0  0  0  0  0  0  0  0  0  0  0  # atno 11005 bound_to 11000
  145.7370  141.0022  143.1321 LP  0  0  0  0  0  0  0  0  0  0  0  0  # atno 17320 bound_to 7965
  144.6946  139.9053  143.7460 LP  0  0  0  0  0  0  0  0  0  0  0  0  # atno 17321 bound_to 7965
  140.6381  143.2198  151.6350 LP  0  0  0  0  0  0  0  0  0  0  0  0  # atno 17342 bound_to 10162
  139.5212  144.3200  152.0919 LP  0  0  0  0  0  0  0  0  0  0  0  0  # atno 17343 bound_to 10162
  157.4951  130.7846  149.7547 LP  0  0  0  0  0  0  0  0  0  0  0  0  # atno 17370 bound_to 10713
  155.9977  130.3898  150.2729 LP  0  0  0  0  0  0  0  0  0  0  0  0  # atno 17371 bound_to 10713
  141.0547  134.0433  157.3737 LP  0  0  0  0  0  0  0  0  0  0  0  0  # atno 17394 bound_to 11000
  139.9051  135.0177  156.7448 LP  0  0  0  0  0  0  0  0  0  0  0  0  # atno 17395 bound_to 11000

$$$$
