#       Name:                AV-unprocessed.smi:2388
#       Creating user name   scv26
#       Creation time:       Fri Mar 27 13:10:06 2020


#       File generated by GOLD software.
#

@<TRIPOS>MOLECULE
AV-unprocessed.smi:2388
    48    49     1
SMALL
NO_CHARGES


@<TRIPOS>ATOM
      1 ****        -4.4089   5.5937   0.4026 C.3            1 S1                 0.0000
      2 ****        -4.6554   4.1464   0.7731 C.ar           1 S1                 0.0000
      3 ****        -5.9588   3.6735   1.0218 C.ar           1 S1                 0.0000
      4 ****        -6.1191   2.3166   1.3548 C.ar           1 S1                 0.0000
      5 ****        -4.9779   1.4945   1.4254 C.ar           1 S1                 0.0000
      6 ****        -3.7046   2.0489   1.1645 C.ar           1 S1                 0.0000
      7 ****        -2.6196   1.1380   1.2646 N.am           1 S1                 0.0000
      8 ****        -1.3059   1.3914   1.1283 C.2            1 S1                 0.0000
      9 ****        -0.8146   2.4958   0.8936 O.2            1 S1                 0.0000
     10 ****        -0.5806   0.2754   1.2878 N.am           1 S1                 0.0000
     11 ****         0.8740   0.1971   1.2159 C.3            1 S1                 0.0000
     12 ****         1.3069  -1.1250   0.5562 C.3            1 S1                 0.0000
     13 ****         2.8326  -1.3082   0.4705 C.2            1 S1                 0.0000
     14 ****         3.5648  -0.4739   1.0056 O.2            1 S1                 0.0000
     15 ****         3.3286  -2.3794  -0.1963 N.am           1 S1                 0.0000
     16 ****         2.5305  -3.3862  -0.9098 C.3            1 S1                 0.0000
     17 ****         2.7192  -3.1823  -2.4242 C.3            1 S1                 0.0000
     18 ****         4.2107  -3.2482  -2.8059 C.3            1 S1                 0.0000
     19 ****         5.0701  -2.3338  -1.9120 C.3            1 S1                 0.0000
     20 ****         4.7667  -2.5758  -0.4217 C.3            1 S1                 0.0000
     21 ****        -3.5607   3.3586   0.8421 N.ar           1 S1                 0.0000
     22 ****        -5.3201   6.1857   0.4924 H              1 S1                 0.0000
     23 ****        -4.0556   5.6645  -0.6265 H              1 S1                 0.0000
     24 ****        -3.6537   6.0314   1.0562 H              1 S1                 0.0000
     25 ****        -6.8142   4.3297   0.9587 H              1 S1                 0.0000
     26 ****        -7.1006   1.9118   1.5529 H              1 S1                 0.0000
     27 ****        -5.0843   0.4499   1.6800 H              1 S1                 0.0000
     28 ****        -2.8728   0.1833   1.4711 H              1 S1                 0.0000
     29 ****        -1.0714  -0.5853   1.4810 H              1 S1                 0.0000
     30 ****         1.2827   1.0392   0.6539 H              1 S1                 0.0000
     31 ****         1.2681   0.2680   2.2306 H              1 S1                 0.0000
     32 ****         0.8883  -1.9632   1.1148 H              1 S1                 0.0000
     33 ****         0.8902  -1.1637  -0.4514 H              1 S1                 0.0000
     34 ****         2.8734  -4.3817  -0.6245 H              1 S1                 0.0000
     35 ****         1.4713  -3.3665  -0.6586 H              1 S1                 0.0000
     36 ****         2.1595  -3.9363  -2.9781 H              1 S1                 0.0000
     37 ****         2.3091  -2.2142  -2.7152 H              1 S1                 0.0000
     38 ****         4.5593  -4.2764  -2.7011 H              1 S1                 0.0000
     39 ****         4.3442  -2.9833  -3.8551 H              1 S1                 0.0000
     40 ****         6.1284  -2.5023  -2.1127 H              1 S1                 0.0000
     41 ****         4.8704  -1.2899  -2.1580 H              1 S1                 0.0000
     42 ****         5.3865  -1.9231   0.1942 H              1 S1                 0.0000
     43 ****         5.0419  -3.5941  -0.1432 H              1 S1                 0.0000
     44 ****        -1.4070   3.2946   0.7890 LP             1 S1                 0.0000
     45 ****         0.1769   2.5939   0.8077 LP             1 S1                 0.0000
     46 ****         3.1655   0.3070   1.4860 LP             1 S1                 0.0000
     47 ****         4.5584  -0.5777   0.9595 LP             1 S1                 0.0000
     48 ****        -2.6535   3.7368   0.6575 LP             1 S1                 0.0000
@<TRIPOS>BOND
    1    1    2 1     
    2    1   22 1     
    3    1   23 1     
    4    1   24 1     
    5    2   21 ar    
    6    2    3 ar    
    7    3    4 ar    
    8    3   25 1     
    9    4    5 ar    
   10    4   26 1     
   11    5    6 ar    
   12    5   27 1     
   13    6    7 1     
   14    6   21 ar    
   15    7    8 am    
   16    7   28 1     
   17    8    9 2     
   18    8   10 am    
   19   10   11 1     
   20   10   29 1     
   21   11   12 1     
   22   11   30 1     
   23   11   31 1     
   24   12   13 1     
   25   12   32 1     
   26   12   33 1     
   27   13   14 2     
   28   13   15 am    
   29   15   20 1     
   30   15   16 1     
   31   16   17 1     
   32   16   34 1     
   33   16   35 1     
   34   17   18 1     
   35   17   36 1     
   36   17   37 1     
   37   18   19 1     
   38   18   38 1     
   39   18   39 1     
   40   19   20 1     
   41   19   40 1     
   42   19   41 1     
   43   20   42 1     
   44   20   43 1     
   45    9   44 1     
   46    9   45 1     
   47   14   46 1     
   48   14   47 1     
   49   21   48 1     
@<TRIPOS>SUBSTRUCTURE
      1 S1             1
@<TRIPOS>SET
LONE_PAIRS      STATIC     ATOMS    <user>   **** ""
5 44 45 46 47 48
DONOR_HYDROGENS      STATIC     ATOMS    <user>   **** ""
2 28 29
ATOM$BLUE        STATIC     ATOMS    COLORGROUP SYSTEM
5 44 45 46 47 48
ATOM$RED        STATIC     ATOMS    COLORGROUP SYSTEM
2 28 29
