AV-unprocessed.smi:3212|AV-procd|sdf|12280|dock8
  -GOLD-   2272018113D 1   1.00000     0.00000
 Structure written by MMmdl.
 39 39  0  0  0  0  0  0  0  0  1 V2000
  146.6432  142.0154  156.8301 C   0  0  0  0  0  0  0  0  0  0  0  0
  147.6665  142.6045  157.8151 C   0  0  2  0  0  0  0  0  0  0  0  0
  148.7375  141.6212  158.0628 N   0  0  0  0  0  0  0  0  0  0  0  0
  149.9097  141.7894  157.2109 C   0  0  0  0  0  0  0  0  0  0  0  0
  151.1812  141.5592  158.0397 C   0  0  0  0  0  0  0  0  0  0  0  0
  151.7103  142.8061  158.5571 N   0  0  0  0  0  0  0  0  0  0  0  0
  151.4936  144.0867  158.0934 C   0  0  0  0  0  0  0  0  0  0  0  0
  152.1927  144.9354  158.9031 C   0  0  0  0  0  0  0  0  0  0  0  0
  152.8134  144.0684  159.8455 C   0  0  0  0  0  0  0  0  0  0  0  0
  152.5222  142.7947  159.6362 N   0  0  0  0  0  0  0  0  0  0  0  0
  146.9757  143.0904  159.1015 C   0  0  0  0  0  0  0  0  0  0  0  0
  146.5135  142.2750  159.8997 O   0  0  0  0  0  0  0  0  0  0  0  0
  146.9454  144.4225  159.2903 N   0  0  0  0  0  0  0  0  0  0  0  0
  146.4086  145.1709  160.4325 C   0  0  0  0  0  0  0  0  0  0  0  0
  147.5445  145.2883  161.4639 C   0  0  0  0  0  0  0  0  0  0  0  0
  145.2290  144.4086  161.0729 C   0  0  0  0  0  0  0  0  0  0  0  0
  145.9738  146.5873  160.0012 C   0  0  0  0  0  0  0  0  0  0  0  0
  145.8444  142.7267  156.6155 H   0  0  0  0  0  0  0  0  0  0  0  0
  146.1841  141.1059  157.2207 H   0  0  0  0  0  0  0  0  0  0  0  0
  147.1163  141.7627  155.8808 H   0  0  0  0  0  0  0  0  0  0  0  0
  148.1149  143.4711  157.3255 H   0  0  0  0  0  0  0  0  0  0  0  0
  148.3926  140.6764  157.9710 H   0  0  0  0  0  0  0  0  0  0  0  0
  149.8692  141.0727  156.3892 H   0  0  0  0  0  0  0  0  0  0  0  0
  149.9360  142.7892  156.7760 H   0  0  0  0  0  0  0  0  0  0  0  0
  150.9785  140.8906  158.8781 H   0  0  0  0  0  0  0  0  0  0  0  0
  151.9529  141.0832  157.4333 H   0  0  0  0  0  0  0  0  0  0  0  0
  150.8657  144.2851  157.2373 H   0  0  0  0  0  0  0  0  0  0  0  0
  152.2514  146.0114  158.8332 H   0  0  0  0  0  0  0  0  0  0  0  0
  153.4618  144.3253  160.6704 H   0  0  0  0  0  0  0  0  0  0  0  0
  147.3617  144.9853  158.5629 H   0  0  0  0  0  0  0  0  0  0  0  0
  147.2209  145.8350  162.3502 H   0  0  0  0  0  0  0  0  0  0  0  0
  148.4052  145.8158  161.0506 H   0  0  0  0  0  0  0  0  0  0  0  0
  147.8873  144.3063  161.7924 H   0  0  0  0  0  0  0  0  0  0  0  0
  145.5142  143.3911  161.3431 H   0  0  0  0  0  0  0  0  0  0  0  0
  144.3707  144.3433  160.4044 H   0  0  0  0  0  0  0  0  0  0  0  0
  144.8875  144.9055  161.9817 H   0  0  0  0  0  0  0  0  0  0  0  0
  145.6701  147.1830  160.8625 H   0  0  0  0  0  0  0  0  0  0  0  0
  145.1278  146.5663  159.3144 H   0  0  0  0  0  0  0  0  0  0  0  0
  146.7871  147.1188  159.5061 H   0  0  0  0  0  0  0  0  0  0  0  0
  1  2  1  0  0  0  0
  1 18  1  0  0  0  0
  1 19  1  0  0  0  0
  1 20  1  0  0  0  0
  2  3  1  0  0  0  0
  2 11  1  0  0  0  0
  2 21  1  0  0  0  0
  3  4  1  0  0  0  0
  3 22  1  0  0  0  0
  4  5  1  0  0  0  0
  4 23  1  0  0  0  0
  4 24  1  0  0  0  0
  5  6  1  0  0  0  0
  5 25  1  0  0  0  0
  5 26  1  0  0  0  0
  6 10  1  0  0  0  0
  6  7  1  0  0  0  0
  7  8  2  0  0  0  0
  7 27  1  0  0  0  0
  8  9  1  0  0  0  0
  8 28  1  0  0  0  0
  9 10  2  0  0  0  0
  9 29  1  0  0  0  0
 11 12  2  0  0  0  0
 11 13  1  0  0  0  0
 13 14  1  0  0  0  0
 13 30  1  0  0  0  0
 14 15  1  0  0  0  0
 14 16  1  0  0  0  0
 14 17  1  0  0  0  0
 15 31  1  0  0  0  0
 15 32  1  0  0  0  0
 15 33  1  0  0  0  0
 16 34  1  0  0  0  0
 16 35  1  0  0  0  0
 16 36  1  0  0  0  0
 17 37  1  0  0  0  0
 17 38  1  0  0  0  0
 17 39  1  0  0  0  0
M  END
> <s_m_source_file>
AV-unprocessed.smi

> <i_m_source_file_index>
3212

> <i_lp_mmshare_version>
43012

> <i_f3d_flags>
0

> <s_epik_input>
W0NIM11DKFtDSDNdKShbQ0gzXSlbTkhdQyg9TylbQ0BIXShbQ0gzXSlbTkhdW0NIMl1bQ0gyXW4xW2NIXVtjSF1bY0hdbjE=

> <s_epik_cmdline>
J2VwaWtfcHl0aG9uJywgJy1waCcsICc3LjAnLCAnLXRuJywgJzgnLCAnLW1hJywgJzIwMCcsICctbWV0YWxfYmluZGluZycsICctaW1hZScsICc8aW5maWxlLm1hZT4nLCAnLW9tYWUnLCAnPG91dGZpbGUubWFlPic=

> <r_lp_tautomer_probability>
1

> <r_epik_Ionization_Penalty>
0.745735

> <r_epik_Ionization_Penalty_Charging>
0

> <r_epik_Ionization_Penalty_Neutral>
0.745735

> <r_epik_State_Penalty>
0.771152

> <r_epik_Charging_Adjusted_Penalty>
0.771152

> <i_epik_Tot_Q>
0

> <i_epik_Tot_abs_Q>
0

> <r_epik_Metal_State_Penalty>
0.770403

> <b_epik_Metal_Only>
0

> <s_lp_Force_Field>
OPLS_2005

> <r_lp_Energy>
5.75151

> <b_lp_Chiralities_Consistent>
1

> <s_lp_Variant>
AV-unprocessed.smi:3212-3

> <Gold.Version>
5.8.1

> <Gold.Id.Protein>
6NUR|6NUR_protein|mol2

> <Gold.PLP.Fitness>
42.4201

> <Gold.PLP.PLP>
-36.5753

> <Gold.PLP.part.hbond>
-3.0000

> <Gold.PLP.part.metal>
0.0000

> <Gold.PLP.part.buried>
-4.6716

> <Gold.PLP.part.nonpolar>
-28.6832

> <Gold.PLP.part.repulsive>
0.0977

> <Gold.PLP.ligand.clash>
0.0000

> <Gold.PLP.ligand.torsion>
2.0088

> <Gold.PLP.Chemscore.Hbond>
2.2694

> <Gold.PLP.Chemscore.CHOScore>
1.0000

> <Gold.PLP.Chemscore.Metal>
0.0000

> <Gold.Chemscore.Hbonds>
donor molecule, donor type, donor heavy atom, donor atom, acceptor molecule, acceptor atom, score
      L1  H    13    30       P1  8029  1.00
      P1  H  6934  6946       L1    12  1.00
      L1  C     7    27       P1  8028  0.98

> <Gold.PLP.Chemscore.Internal.Correction>
0.0542

> <Gold.Rescore>
     Score         DG    S(hbond)    S(metal)    S(lipo)     H(rot)  DE(clash)    DE(int)     intcor
     13.75     -17.40       2.39        0.00      77.12       1.99       0.14       3.50       ----

> <Gold.Chemscore.Fitness>
13.7538

> <Gold.Chemscore.DG>
-17.3957

> <Gold.Chemscore.ZeroCoef>
-5.4800

> <Gold.Chemscore.Hbond>
2.3897

> <Gold.Chemscore.Metal>
0.0000

> <Gold.Chemscore.Lipo>
77.1237

> <Gold.Chemscore.Internal_Hbond>
0.0000

> <Gold.Chemscore.DEClash>
0.1429

> <Gold.Chemscore.DEInternal>
3.4989

> <Gold.Chemscore.Rot>
1.9880

> <Gold.Chemscore.Internal.Correction>
   9.000000E+99

> <Gold.Chemscore.Hbonds>
donor molecule, donor type, donor heavy atom, donor atom, acceptor molecule, acceptor atom, score
      L1  H    13    30       P1  8029  1.00
      P1  H  6934  6946       L1    12  0.99

> <Gold.Chemscore.Hbond.Weighted>
-7.9815

> <Gold.Chemscore.Metal.Weighted>
-0.0000

> <Gold.Chemscore.Lipo.Weighted>
-9.0235

> <Gold.Chemscore.Internal_Hbond.Weighted>
0.0000

> <Gold.Chemscore.DEClash.Weighted>
0.1429

> <Gold.Chemscore.DEInternal.Weighted>
3.4989

> <Gold.Chemscore.Rot.Weighted>
5.0893

> <Gold.Chemscore.Internal.Correction.Weighted>
   9.000000E+99

> <Gold.Protein.RotatedTorsions>
[ 6907 6896 6895 6894 ] final  -51.25 input  -60.11 | X-H torsion
[ 7974 7965 7964 7962 ] final  123.94 input  175.53 | X-H torsion
[ 8008 7997 7996 7995 ] final  134.21 input   59.86 | X-H torsion
[ 10167 10162 10161 10158 ] final -166.52 input  -65.29 | X-H torsion
[ 10718 10713 10712 10709 ] final  -75.28 input   66.30 | X-H torsion
[ 10763 10752 10751 10750 ] final  -15.48 input  -60.55 | X-H torsion
[ 11005 11000 10999 10996 ] final  142.37 input  -57.11 | X-H torsion

> <Gold.Protein.ActiveResidues>
 VAL166  LYS551  ARG553  GLY616  TRP617  ASP618  TYR619  PRO620  LYS621  CYS622 
 ASP623  PHE694  ASN695  SER759  ASP760  ASP761  ALA762  ILE779  LEU786  VAL792 
 PHE793  MET794  SER795  GLU796  ALA797  LYS798  CYS799  TRP800  GLU811  SER814 

> <Gold.Protein.RotatedAtoms>
  150.8629  134.7985  159.7096 H   0  0  0  0  0  0  0  0  0  0  0  0  # atno 6907 bound_to 6896
  152.4660  134.5071  159.9752 H   0  0  0  0  0  0  0  0  0  0  0  0  # atno 6908 bound_to 6896
  151.5172  133.3435  159.2930 H   0  0  0  0  0  0  0  0  0  0  0  0  # atno 6909 bound_to 6896
  145.0901  139.3593  143.4865 H   0  0  0  0  0  0  0  0  0  0  0  0  # atno 7974 bound_to 7965
  156.2997  140.2502  156.3379 H   0  0  0  0  0  0  0  0  0  0  0  0  # atno 8008 bound_to 7997
  154.9083  140.0404  157.1951 H   0  0  0  0  0  0  0  0  0  0  0  0  # atno 8009 bound_to 7997
  154.8431  140.2894  155.5650 H   0  0  0  0  0  0  0  0  0  0  0  0  # atno 8010 bound_to 7997
  139.6109  144.0816  152.1841 H   0  0  0  0  0  0  0  0  0  0  0  0  # atno 10167 bound_to 10162
  156.0213  130.4437  150.3019 H   0  0  0  0  0  0  0  0  0  0  0  0  # atno 10718 bound_to 10713
  153.5441  135.7013  153.5623 H   0  0  0  0  0  0  0  0  0  0  0  0  # atno 10763 bound_to 10752
  153.3576  135.3978  155.1693 H   0  0  0  0  0  0  0  0  0  0  0  0  # atno 10764 bound_to 10752
  154.8670  135.3780  154.4947 H   0  0  0  0  0  0  0  0  0  0  0  0  # atno 10765 bound_to 10752
  140.0471  134.9275  157.0950 H   0  0  0  0  0  0  0  0  0  0  0  0  # atno 11005 bound_to 11000
  146.3531  140.0731  142.8622 LP  0  0  0  0  0  0  0  0  0  0  0  0  # atno 17320 bound_to 7965
  145.1076  140.9385  143.4675 LP  0  0  0  0  0  0  0  0  0  0  0  0  # atno 17321 bound_to 7965
  140.0435  144.5989  150.7392 LP  0  0  0  0  0  0  0  0  0  0  0  0  # atno 17342 bound_to 10162
  140.7318  143.2699  151.3923 LP  0  0  0  0  0  0  0  0  0  0  0  0  # atno 17343 bound_to 10162
  157.1122  131.0224  151.3043 LP  0  0  0  0  0  0  0  0  0  0  0  0  # atno 17370 bound_to 10713
  157.4695  130.7700  149.7310 LP  0  0  0  0  0  0  0  0  0  0  0  0  # atno 17371 bound_to 10713
  140.3975  134.2118  155.7164 LP  0  0  0  0  0  0  0  0  0  0  0  0  # atno 17394 bound_to 11000
  141.1912  133.8199  157.0887 LP  0  0  0  0  0  0  0  0  0  0  0  0  # atno 17395 bound_to 11000

$$$$
