AV-unprocessed.smi:3185|AV-procd|sdf|12171|dock4
  -GOLD-   2272018 03D 1   1.00000     0.00000
 Structure written by MMmdl.
 37 38  0  0  0  0  0  0  0  0  1 V2000
  151.8094  146.2189  159.9334 N   0  0  0  0  0  0  0  0  0  0  0  0
  151.9690  145.2732  159.2866 C   0  0  0  0  0  0  0  0  0  0  0  0
  152.1716  144.0711  158.4644 C   0  0  0  0  0  0  0  0  0  0  0  0
  150.9089  143.2098  158.3564 C   0  0  0  0  0  0  0  0  0  0  0  0
  151.1375  141.9582  157.5017 C   0  0  0  0  0  0  0  0  0  0  0  0
  149.9545  141.1131  157.5553 N   0  0  0  0  0  0  0  0  0  0  0  0
  148.9810  141.4456  156.5190 C   0  0  2  0  0  0  0  0  0  0  0  0
  147.6860  140.6578  156.8008 C   0  0  0  0  0  0  0  0  0  0  0  0
  146.6071  140.9710  155.7535 C   0  0  0  0  0  0  0  0  0  0  0  0
  147.1017  140.6760  154.3300 C   0  0  0  0  0  0  0  0  0  0  0  0
  148.4128  141.4239  154.0225 C   0  0  0  0  0  0  0  0  0  0  0  0
  149.5238  141.2078  155.0784 C   0  0  2  0  0  0  0  0  0  0  0  0
  150.2321  139.9365  154.9076 N   0  0  0  0  0  0  0  0  0  0  0  0
  149.6857  138.6683  154.9158 C   0  0  0  0  0  0  0  0  0  0  0  0
  150.6977  137.7774  154.7025 C   0  0  0  0  0  0  0  0  0  0  0  0
  151.8478  138.6021  154.5705 C   0  0  0  0  0  0  0  0  0  0  0  0
  151.5659  139.8884  154.6899 N   0  0  0  0  0  0  0  0  0  0  0  0
  152.4985  144.3942  157.4756 H   0  0  0  0  0  0  0  0  0  0  0  0
  152.9876  143.4983  158.9057 H   0  0  0  0  0  0  0  0  0  0  0  0
  150.5846  142.9189  159.3565 H   0  0  0  0  0  0  0  0  0  0  0  0
  150.1013  143.8058  157.9283 H   0  0  0  0  0  0  0  0  0  0  0  0
  151.3405  142.2421  156.4684 H   0  0  0  0  0  0  0  0  0  0  0  0
  152.0084  141.4181  157.8721 H   0  0  0  0  0  0  0  0  0  0  0  0
  150.2125  140.1389  157.4802 H   0  0  0  0  0  0  0  0  0  0  0  0
  148.7337  142.5036  156.6192 H   0  0  0  0  0  0  0  0  0  0  0  0
  147.8793  139.5852  156.8216 H   0  0  0  0  0  0  0  0  0  0  0  0
  147.3075  140.9136  157.7912 H   0  0  0  0  0  0  0  0  0  0  0  0
  145.7080  140.3905  155.9616 H   0  0  0  0  0  0  0  0  0  0  0  0
  146.3210  142.0209  155.8293 H   0  0  0  0  0  0  0  0  0  0  0  0
  147.2335  139.6025  154.2011 H   0  0  0  0  0  0  0  0  0  0  0  0
  146.3374  140.9686  153.6097 H   0  0  0  0  0  0  0  0  0  0  0  0
  148.7758  141.1483  153.0317 H   0  0  0  0  0  0  0  0  0  0  0  0
  148.1898  142.4903  153.9712 H   0  0  0  0  0  0  0  0  0  0  0  0
  150.2655  141.9826  154.8814 H   0  0  0  0  0  0  0  0  0  0  0  0
  148.6289  138.5059  155.0682 H   0  0  0  0  0  0  0  0  0  0  0  0
  150.6264  136.7014  154.6473 H   0  0  0  0  0  0  0  0  0  0  0  0
  152.8711  138.3075  154.3907 H   0  0  0  0  0  0  0  0  0  0  0  0
  1  2  3  0  0  0  0
  2  3  1  0  0  0  0
  3  4  1  0  0  0  0
  3 18  1  0  0  0  0
  3 19  1  0  0  0  0
  4  5  1  0  0  0  0
  4 20  1  0  0  0  0
  4 21  1  0  0  0  0
  5  6  1  0  0  0  0
  5 22  1  0  0  0  0
  5 23  1  0  0  0  0
  6  7  1  0  0  0  0
  6 24  1  0  0  0  0
  7 12  1  0  0  0  0
  7  8  1  0  0  0  0
  7 25  1  0  0  0  0
  8  9  1  0  0  0  0
  8 26  1  0  0  0  0
  8 27  1  0  0  0  0
  9 10  1  0  0  0  0
  9 28  1  0  0  0  0
  9 29  1  0  0  0  0
 10 11  1  0  0  0  0
 10 30  1  0  0  0  0
 10 31  1  0  0  0  0
 11 12  1  0  0  0  0
 11 32  1  0  0  0  0
 11 33  1  0  0  0  0
 12 13  1  0  0  0  0
 12 34  1  0  0  0  0
 13 17  1  0  0  0  0
 13 14  1  0  0  0  0
 14 15  2  0  0  0  0
 14 35  1  0  0  0  0
 15 16  1  0  0  0  0
 15 36  1  0  0  0  0
 16 17  2  0  0  0  0
 16 37  1  0  0  0  0
M  END
> <s_m_source_file>
AV-unprocessed.smi

> <i_m_source_file_index>
3185

> <i_lp_mmshare_version>
43012

> <i_f3d_flags>
0

> <s_epik_input>
TiNDW0NIMl1bQ0gyXVtDSDJdW05IXVtDQEBIXTFbQ0gyXVtDSDJdW0NIMl1bQ0gyXVtDQEhdMW4yW2NIXVtjSF1bY0hdbjI=

> <s_epik_cmdline>
J2VwaWtfcHl0aG9uJywgJy1waCcsICc3LjAnLCAnLXRuJywgJzgnLCAnLW1hJywgJzIwMCcsICctbWV0YWxfYmluZGluZycsICctaW1hZScsICc8aW5maWxlLm1hZT4nLCAnLW9tYWUnLCAnPG91dGZpbGUubWFlPic=

> <r_lp_tautomer_probability>
1

> <r_epik_Ionization_Penalty>
2.21326

> <r_epik_Ionization_Penalty_Charging>
0

> <r_epik_Ionization_Penalty_Neutral>
2.21326

> <r_epik_State_Penalty>
2.35651

> <r_epik_Charging_Adjusted_Penalty>
2.35651

> <i_epik_Tot_Q>
0

> <i_epik_Tot_abs_Q>
0

> <r_epik_Metal_State_Penalty>
2.3555

> <b_epik_Metal_Only>
0

> <s_lp_Force_Field>
OPLS_2005

> <r_lp_Energy>
17.6064

> <b_lp_Chiralities_Consistent>
1

> <s_lp_Variant>
AV-unprocessed.smi:3185-7

> <Gold.Version>
5.8.1

> <Gold.Id.Protein>
6NUR|6NUR_protein|mol2

> <Gold.PLP.Fitness>
39.3437

> <Gold.PLP.PLP>
-36.8201

> <Gold.PLP.part.hbond>
-2.3783

> <Gold.PLP.part.metal>
0.0000

> <Gold.PLP.part.buried>
-4.4539

> <Gold.PLP.part.nonpolar>
-30.8170

> <Gold.PLP.part.repulsive>
0.2836

> <Gold.PLP.ligand.clash>
0.0000

> <Gold.PLP.ligand.torsion>
0.2924

> <Gold.PLP.Chemscore.Hbond>
1.0000

> <Gold.PLP.Chemscore.CHOScore>
0.0000

> <Gold.PLP.Chemscore.Metal>
0.0000

> <Gold.Chemscore.Hbonds>
donor molecule, donor type, donor heavy atom, donor atom, acceptor molecule, acceptor atom, score
      P1  H  7989  7998       L1    17  0.95

> <Gold.PLP.Chemscore.Internal.Correction>
0.1083

> <Gold.Rescore>
     Score         DG    S(hbond)    S(metal)    S(lipo)     H(rot)  DE(clash)    DE(int)     intcor
     12.04     -12.32       0.89        0.00      72.75       1.81       0.00       0.27       ----

> <Gold.Chemscore.Fitness>
12.0434

> <Gold.Chemscore.DG>
-12.3165

> <Gold.Chemscore.ZeroCoef>
-5.4800

> <Gold.Chemscore.Hbond>
0.8865

> <Gold.Chemscore.Metal>
0.0000

> <Gold.Chemscore.Lipo>
72.7513

> <Gold.Chemscore.Internal_Hbond>
0.0000

> <Gold.Chemscore.DEClash>
0.0000

> <Gold.Chemscore.DEInternal>
0.2731

> <Gold.Chemscore.Rot>
1.8110

> <Gold.Chemscore.Internal.Correction>
   9.000000E+99

> <Gold.Chemscore.Hbonds>
donor molecule, donor type, donor heavy atom, donor atom, acceptor molecule, acceptor atom, score
      P1  H  7989  7998       L1    17  0.20

> <Gold.Chemscore.Hbond.Weighted>
-2.9608

> <Gold.Chemscore.Metal.Weighted>
-0.0000

> <Gold.Chemscore.Lipo.Weighted>
-8.5119

> <Gold.Chemscore.Internal_Hbond.Weighted>
0.0000

> <Gold.Chemscore.DEClash.Weighted>
0.0000

> <Gold.Chemscore.DEInternal.Weighted>
0.2731

> <Gold.Chemscore.Rot.Weighted>
4.6362

> <Gold.Chemscore.Internal.Correction.Weighted>
   9.000000E+99

> <Gold.Protein.RotatedTorsions>
[ 6907 6896 6895 6894 ] final   41.74 input  -60.11 | X-H torsion
[ 7974 7965 7964 7962 ] final   -7.02 input  175.53 | X-H torsion
[ 8008 7997 7996 7995 ] final  156.81 input   59.86 | X-H torsion
[ 10167 10162 10161 10158 ] final  132.79 input  -65.29 | X-H torsion
[ 10718 10713 10712 10709 ] final -169.06 input   66.30 | X-H torsion
[ 10763 10752 10751 10750 ] final -142.11 input  -60.55 | X-H torsion
[ 11005 11000 10999 10996 ] final   19.60 input  -57.11 | X-H torsion

> <Gold.Protein.ActiveResidues>
 VAL166  LYS551  ARG553  GLY616  TRP617  ASP618  TYR619  PRO620  LYS621  CYS622 
 ASP623  PHE694  ASN695  SER759  ASP760  ASP761  ALA762  ILE779  LEU786  VAL792 
 PHE793  MET794  SER795  GLU796  ALA797  LYS798  CYS799  TRP800  GLU811  SER814 

> <Gold.Protein.RotatedAtoms>
  152.1991  134.8604  160.0509 H   0  0  0  0  0  0  0  0  0  0  0  0  # atno 6907 bound_to 6896
  151.9464  133.3648  159.3992 H   0  0  0  0  0  0  0  0  0  0  0  0  # atno 6908 bound_to 6896
  150.6951  134.4310  159.5292 H   0  0  0  0  0  0  0  0  0  0  0  0  # atno 6909 bound_to 6896
  146.2317  140.2258  142.8338 H   0  0  0  0  0  0  0  0  0  0  0  0  # atno 7974 bound_to 7965
  156.2401  140.1902  156.7012 H   0  0  0  0  0  0  0  0  0  0  0  0  # atno 8008 bound_to 7997
  154.6180  140.0612  156.9606 H   0  0  0  0  0  0  0  0  0  0  0  0  # atno 8009 bound_to 7997
  155.1907  140.3284  155.4361 H   0  0  0  0  0  0  0  0  0  0  0  0  # atno 8010 bound_to 7997
  139.5324  144.6646  151.4903 H   0  0  0  0  0  0  0  0  0  0  0  0  # atno 10167 bound_to 10162
  156.7060  130.9215  151.3084 H   0  0  0  0  0  0  0  0  0  0  0  0  # atno 10718 bound_to 10713
  154.8521  135.3505  154.5976 H   0  0  0  0  0  0  0  0  0  0  0  0  # atno 10763 bound_to 10752
  153.6585  135.6991  153.5190 H   0  0  0  0  0  0  0  0  0  0  0  0  # atno 10764 bound_to 10752
  153.2836  135.4256  155.1060 H   0  0  0  0  0  0  0  0  0  0  0  0  # atno 10765 bound_to 10752
  140.4119  134.1609  155.7668 H   0  0  0  0  0  0  0  0  0  0  0  0  # atno 11005 bound_to 11000
  144.9596  140.8262  143.5521 LP  0  0  0  0  0  0  0  0  0  0  0  0  # atno 17320 bound_to 7965
  145.2227  139.2151  143.5084 LP  0  0  0  0  0  0  0  0  0  0  0  0  # atno 17321 bound_to 7965
  140.6511  143.8695  150.6786 LP  0  0  0  0  0  0  0  0  0  0  0  0  # atno 17342 bound_to 10162
  140.2060  143.3921  152.1755 LP  0  0  0  0  0  0  0  0  0  0  0  0  # atno 17343 bound_to 10162
  157.6954  130.9277  150.0631 LP  0  0  0  0  0  0  0  0  0  0  0  0  # atno 17370 bound_to 10713
  156.1695  130.3646  149.9185 LP  0  0  0  0  0  0  0  0  0  0  0  0  # atno 17371 bound_to 10713
  141.1818  133.8398  157.1232 LP  0  0  0  0  0  0  0  0  0  0  0  0  # atno 17394 bound_to 11000
  140.0261  134.9923  157.0689 LP  0  0  0  0  0  0  0  0  0  0  0  0  # atno 17395 bound_to 11000

$$$$
