AV-unprocessed.smi:2032|AV-procd|sdf|8256|dock10
  -GOLD-   2272010533D 1   1.00000     0.00000
 Structure written by MMmdl.
 42 43  0  0  0  0  0  0  0  0  3 V2000
  146.3862  136.8053  153.7615 C   0  0  0  0  0  0  0  0  0  0  0  0
  146.7794  137.7098  154.9431 C   0  0  1  0  0  0  0  0  0  0  0  0
  148.1217  137.3266  155.5925 C   0  0  0  0  0  0  0  0  0  0  0  0
  149.2740  137.6875  154.7239 N   0  3  2  0  0  0  0  0  0  0  0  0
  150.5779  137.1995  155.2779 C   0  0  2  0  0  0  0  0  0  0  0  0
  150.7875  135.6726  155.1336 C   0  0  0  0  0  0  0  0  0  0  0  0
  150.7062  137.6212  156.7653 C   0  0  0  0  0  0  0  0  0  0  0  0
  150.2155  136.6040  157.6896 N   0  0  0  0  0  0  0  0  0  0  0  0
  149.6809  136.8394  158.8959 C   0  0  0  0  0  0  0  0  0  0  0  0
  149.5525  137.9993  159.2948 O   0  0  0  0  0  0  0  0  0  0  0  0
  149.3375  135.7168  159.5656 N   0  5  0  0  0  0  0  0  0  0  0  0
  148.6873  135.8054  160.7373 C   0  0  0  0  0  0  0  0  0  0  0  0
  148.4131  136.9714  161.3336 N   0  0  0  0  0  0  0  0  0  0  0  0
  147.7225  136.8297  162.5387 C   0  0  0  0  0  0  0  0  0  0  0  0
  147.4583  135.5258  162.8641 C   0  0  0  0  0  0  0  0  0  0  0  0
  148.0715  134.4304  161.6585 S   0  0  0  0  0  0  0  0  0  0  0  0
  149.2035  139.1354  154.3908 C   0  0  0  0  0  0  0  0  0  0  0  0
  147.8520  139.4845  153.7396 C   0  0  2  0  0  0  0  0  0  0  0  0
  147.7142  140.9882  153.4759 C   0  0  0  0  0  0  0  0  0  0  0  0
  146.7841  139.0928  154.5957 O   0  0  0  0  0  0  0  0  0  0  0  0
  146.2645  135.7730  154.0910 H   0  0  0  0  0  0  0  0  0  0  0  0
  147.1361  136.8043  152.9709 H   0  0  0  0  0  0  0  0  0  0  0  0
  145.4395  137.1247  153.3255 H   0  0  0  0  0  0  0  0  0  0  0  0
  146.0019  137.5934  155.6986 H   0  0  0  0  0  0  0  0  0  0  0  0
  148.2226  137.8474  156.5464 H   0  0  0  0  0  0  0  0  0  0  0  0
  148.1141  136.2630  155.8250 H   0  0  0  0  0  0  0  0  0  0  0  0
  151.3744  137.6756  154.7038 H   0  0  0  0  0  0  0  0  0  0  0  0
  151.7380  135.3557  155.5627 H   0  0  0  0  0  0  0  0  0  0  0  0
  150.8185  135.3610  154.0895 H   0  0  0  0  0  0  0  0  0  0  0  0
  150.0000  135.1113  155.6374 H   0  0  0  0  0  0  0  0  0  0  0  0
  151.7338  137.8599  157.0367 H   0  0  0  0  0  0  0  0  0  0  0  0
  150.1323  138.5319  156.9397 H   0  0  0  0  0  0  0  0  0  0  0  0
  150.2976  135.6405  157.3988 H   0  0  0  0  0  0  0  0  0  0  0  0
  147.4580  137.7130  163.1007 H   0  0  0  0  0  0  0  0  0  0  0  0
  146.9426  135.1444  163.7322 H   0  0  0  0  0  0  0  0  0  0  0  0
  149.3583  139.7264  155.2952 H   0  0  0  0  0  0  0  0  0  0  0  0
  149.9843  139.4095  153.6819 H   0  0  0  0  0  0  0  0  0  0  0  0
  147.7639  138.9676  152.7838 H   0  0  0  0  0  0  0  0  0  0  0  0
  148.5013  141.3453  152.8111 H   0  0  0  0  0  0  0  0  0  0  0  0
  147.7744  141.5593  154.4027 H   0  0  0  0  0  0  0  0  0  0  0  0
  146.7563  141.2150  153.0070 H   0  0  0  0  0  0  0  0  0  0  0  0
  149.1471  137.1997  153.8488 H   0  0  0  0  0  0  0  0  0  0  0  0
  1  2  1  0  0  0  0
  1 21  1  0  0  0  0
  1 22  1  0  0  0  0
  1 23  1  0  0  0  0
  2 20  1  0  0  0  0
  2  3  1  0  0  0  0
  2 24  1  0  0  0  0
  3  4  1  0  0  0  0
  3 25  1  0  0  0  0
  3 26  1  0  0  0  0
  4  5  1  0  0  0  0
  4 17  1  0  0  0  0
  4 42  1  0  0  0  0
  5  6  1  0  0  0  0
  5  7  1  0  0  0  0
  5 27  1  0  0  0  0
  6 28  1  0  0  0  0
  6 29  1  0  0  0  0
  6 30  1  0  0  0  0
  7  8  1  0  0  0  0
  7 31  1  0  0  0  0
  7 32  1  0  0  0  0
  8  9  1  0  0  0  0
  8 33  1  0  0  0  0
  9 10  2  0  0  0  0
  9 11  1  0  0  0  0
 11 12  1  0  0  0  0
 12 16  1  0  0  0  0
 12 13  2  0  0  0  0
 13 14  1  0  0  0  0
 14 15  2  0  0  0  0
 14 34  1  0  0  0  0
 15 16  1  0  0  0  0
 15 35  1  0  0  0  0
 17 18  1  0  0  0  0
 17 36  1  0  0  0  0
 17 37  1  0  0  0  0
 18 19  1  0  0  0  0
 18 20  1  0  0  0  0
 18 38  1  0  0  0  0
 19 39  1  0  0  0  0
 19 40  1  0  0  0  0
 19 41  1  0  0  0  0
M  CHG  1   4   1
M  CHG  1  11  -1
M  END
> <s_m_source_file>
AV-unprocessed.smi

> <i_m_source_file_index>
2032

> <i_lp_mmshare_version>
43012

> <i_f3d_flags>
0

> <s_epik_input>
W0NIM11bQ0BASF0xW0NIMl1OKFtDSDJdW0NASF0oTzEpW0NIM10pW0NASF0oW0NIM10pW0NIMl1bTkhdQyg9TylbTkhdYzJuW2NIXVtjSF1zMg==

> <s_epik_cmdline>
J2VwaWtfcHl0aG9uJywgJy1waCcsICc3LjAnLCAnLXRuJywgJzgnLCAnLW1hJywgJzIwMCcsICctbWV0YWxfYmluZGluZycsICctaW1hZScsICc8aW5maWxlLm1hZT4nLCAnLW9tYWUnLCAnPG91dGZpbGUubWFlPic=

> <r_lp_tautomer_probability>
0.999

> <r_epik_Ionization_Penalty>
6.71699

> <r_epik_Ionization_Penalty_Charging>
5.88592

> <r_epik_Ionization_Penalty_Neutral>
0.831074

> <r_epik_State_Penalty>
6.08365

> <r_epik_Charging_Adjusted_Penalty>
11.9696

> <i_epik_Tot_Q>
0

> <i_epik_Tot_abs_Q>
2

> <r_epik_Metal_State_Penalty>
2.0947

> <b_epik_Metal_Only>
1

> <s_lp_Force_Field>
OPLS_2005

> <r_lp_Energy>
13.0478

> <b_lp_Chiralities_Consistent>
1

> <s_lp_Variant>
AV-unprocessed.smi:2032-26

> <Gold.Version>
5.8.1

> <Gold.Id.Protein>
6NUR|6NUR_protein|mol2

> <Gold.PLP.Fitness>
43.5686

> <Gold.PLP.PLP>
-29.9950

> <Gold.PLP.part.hbond>
-5.4248

> <Gold.PLP.part.metal>
0.0000

> <Gold.PLP.part.buried>
-3.9280

> <Gold.PLP.part.nonpolar>
-22.0208

> <Gold.PLP.part.repulsive>
0.1776

> <Gold.PLP.ligand.clash>
0.0000

> <Gold.PLP.ligand.torsion>
0.8021

> <Gold.PLP.Chemscore.Hbond>
5.0258

> <Gold.PLP.Chemscore.CHOScore>
0.0000

> <Gold.PLP.Chemscore.Metal>
0.0000

> <Gold.Chemscore.Hbonds>
donor molecule, donor type, donor heavy atom, donor atom, acceptor molecule, acceptor atom, score
      L1  H     4    42       P1  7948  1.14
      P1  H  6896  6907       L1    11  2.00
      P1  H  6931  6943       L1    13  0.40
      P1  H  6934  6947       L1    13  0.01

> <Gold.PLP.Chemscore.Internal.Correction>
0.1005

> <Gold.Rescore>
     Score         DG    S(hbond)    S(metal)    S(lipo)     H(rot)  DE(clash)    DE(int)     intcor
     10.36     -12.78       1.00        0.00      68.38       1.58       0.15       2.27       ----

> <Gold.Chemscore.Fitness>
10.3573

> <Gold.Chemscore.DG>
-12.7821

> <Gold.Chemscore.ZeroCoef>
-5.4800

> <Gold.Chemscore.Hbond>
1.0013

> <Gold.Chemscore.Metal>
0.0000

> <Gold.Chemscore.Lipo>
68.3770

> <Gold.Chemscore.Internal_Hbond>
0.0000

> <Gold.Chemscore.DEClash>
0.1503

> <Gold.Chemscore.DEInternal>
2.2745

> <Gold.Chemscore.Rot>
1.5791

> <Gold.Chemscore.Internal.Correction>
   9.000000E+99

> <Gold.Chemscore.Hbonds>
donor molecule, donor type, donor heavy atom, donor atom, acceptor molecule, acceptor atom, score
      L1  H     4    42       P1  7948  0.58
      P1  H  6896  6907       L1    11  0.61
      P1  H  6931  6943       L1    13  0.01

> <Gold.Chemscore.Hbond.Weighted>
-3.3444

> <Gold.Chemscore.Metal.Weighted>
-0.0000

> <Gold.Chemscore.Lipo.Weighted>
-8.0001

> <Gold.Chemscore.Internal_Hbond.Weighted>
0.0000

> <Gold.Chemscore.DEClash.Weighted>
0.1503

> <Gold.Chemscore.DEInternal.Weighted>
2.2745

> <Gold.Chemscore.Rot.Weighted>
4.0425

> <Gold.Chemscore.Internal.Correction.Weighted>
   9.000000E+99

> <Gold.Protein.RotatedTorsions>
[ 6907 6896 6895 6894 ] final  -66.93 input  -60.11 | X-H torsion
[ 7974 7965 7964 7962 ] final   -8.04 input  175.53 | X-H torsion
[ 8008 7997 7996 7995 ] final  -61.01 input   59.86 | X-H torsion
[ 10167 10162 10161 10158 ] final    4.00 input  -65.29 | X-H torsion
[ 10718 10713 10712 10709 ] final  -43.33 input   66.30 | X-H torsion
[ 10763 10752 10751 10750 ] final  -13.20 input  -60.55 | X-H torsion
[ 11005 11000 10999 10996 ] final   60.43 input  -57.11 | X-H torsion

> <Gold.Protein.ActiveResidues>
 VAL166  LYS551  ARG553  GLY616  TRP617  ASP618  TYR619  PRO620  LYS621  CYS622 
 ASP623  PHE694  ASN695  SER759  ASP760  ASP761  ALA762  ILE779  LEU786  VAL792 
 PHE793  MET794  SER795  GLU796  ALA797  LYS798  CYS799  TRP800  GLU811  SER814 

> <Gold.Protein.RotatedAtoms>
  150.7437  134.5952  159.6007 H   0  0  0  0  0  0  0  0  0  0  0  0  # atno 6907 bound_to 6896
  152.3329  134.7233  160.0294 H   0  0  0  0  0  0  0  0  0  0  0  0  # atno 6908 bound_to 6896
  151.7711  133.3305  159.3481 H   0  0  0  0  0  0  0  0  0  0  0  0  # atno 6909 bound_to 6896
  146.2291  140.2409  142.8343 H   0  0  0  0  0  0  0  0  0  0  0  0  # atno 7974 bound_to 7965
  154.4426  140.1027  156.6363 H   0  0  0  0  0  0  0  0  0  0  0  0  # atno 8008 bound_to 7997
  155.5550  140.3486  155.4459 H   0  0  0  0  0  0  0  0  0  0  0  0  # atno 8009 bound_to 7997
  156.0501  140.1302  157.0049 H   0  0  0  0  0  0  0  0  0  0  0  0  # atno 8010 bound_to 7997
  140.6557  143.7432  150.7650 H   0  0  0  0  0  0  0  0  0  0  0  0  # atno 10167 bound_to 10162
  156.2502  130.4187  149.8659 H   0  0  0  0  0  0  0  0  0  0  0  0  # atno 10718 bound_to 10713
  153.5097  135.7016  153.5787 H   0  0  0  0  0  0  0  0  0  0  0  0  # atno 10763 bound_to 10752
  153.3883  135.3902  155.1905 H   0  0  0  0  0  0  0  0  0  0  0  0  # atno 10764 bound_to 10752
  154.8704  135.3852  154.4576 H   0  0  0  0  0  0  0  0  0  0  0  0  # atno 10765 bound_to 10752
  140.0232  134.6121  155.9610 H   0  0  0  0  0  0  0  0  0  0  0  0  # atno 11005 bound_to 11000
  144.9485  140.8154  143.5586 LP  0  0  0  0  0  0  0  0  0  0  0  0  # atno 17320 bound_to 7965
  145.2367  139.2090  143.5014 LP  0  0  0  0  0  0  0  0  0  0  0  0  # atno 17321 bound_to 7965
  140.1092  143.4715  152.2380 LP  0  0  0  0  0  0  0  0  0  0  0  0  # atno 17342 bound_to 10162
  139.5780  144.7497  151.3715 LP  0  0  0  0  0  0  0  0  0  0  0  0  # atno 17343 bound_to 10162
  156.6210  130.8626  151.3475 LP  0  0  0  0  0  0  0  0  0  0  0  0  # atno 17370 bound_to 10713
  157.7211  130.9560  150.1443 LP  0  0  0  0  0  0  0  0  0  0  0  0  # atno 17371 bound_to 10713
  141.1787  133.6543  156.4931 LP  0  0  0  0  0  0  0  0  0  0  0  0  # atno 17394 bound_to 11000
  140.4351  134.7066  157.4962 LP  0  0  0  0  0  0  0  0  0  0  0  0  # atno 17395 bound_to 11000

$$$$
