AV-unprocessed.smi:2193|AV-procd|sdf|8899|dock8
  -GOLD-   2272012113D 1   1.00000     0.00000
 Structure written by MMmdl.
 40 42  0  0  0  0  0  0  0  0  1 V2000
  152.0519  136.9579  153.8159 O   0  0  0  0  0  0  0  0  0  0  0  0
  151.1048  137.2146  154.8333 C   0  0  0  0  0  0  0  0  0  0  0  0
  150.1441  138.3243  154.5094 C   0  0  0  0  0  0  0  0  0  0  0  0
  149.0298  138.1397  153.7969 N   0  0  0  0  0  0  0  0  0  0  0  0
  148.4722  139.4025  153.7661 C   0  0  0  0  0  0  0  0  0  0  0  0
  147.2800  139.8655  153.1644 C   0  0  0  0  0  0  0  0  0  0  0  0
  146.9072  141.2216  153.2693 C   0  0  0  0  0  0  0  0  0  0  0  0
  147.7199  142.1321  153.9753 C   0  0  0  0  0  0  0  0  0  0  0  0
  148.9117  141.6914  154.5823 C   0  0  0  0  0  0  0  0  0  0  0  0
  149.2791  140.3365  154.4751 C   0  0  0  0  0  0  0  0  0  0  0  0
  150.3593  139.5925  154.9417 N   0  0  0  0  0  0  0  0  0  0  0  0
  151.4754  140.0928  155.7341 C   0  0  0  0  0  0  0  0  0  0  0  0
  151.2296  139.9819  157.2532 C   0  0  1  0  0  0  0  0  0  0  0  0
  151.8591  138.8238  157.7648 O   0  0  0  0  0  0  0  0  0  0  0  0
  151.7578  141.2002  158.0243 C   0  0  0  0  0  0  0  0  0  0  0  0
  152.8281  140.7885  158.8642 O   0  0  0  0  0  0  0  0  0  0  0  0
  152.9863  141.4223  160.0779 C   0  0  0  0  0  0  0  0  0  0  0  0
  153.8648  140.8214  161.0033 C   0  0  0  0  0  0  0  0  0  0  0  0
  154.0892  141.4023  162.2664 C   0  0  0  0  0  0  0  0  0  0  0  0
  153.4336  142.5966  162.6177 C   0  0  0  0  0  0  0  0  0  0  0  0
  153.6494  143.1580  163.8307 F   0  0  0  0  0  0  0  0  0  0  0  0
  152.5533  143.2064  161.7051 C   0  0  0  0  0  0  0  0  0  0  0  0
  152.3283  142.6249  160.4419 C   0  0  0  0  0  0  0  0  0  0  0  0
  151.6124  136.5308  153.0969 H   0  0  0  0  0  0  0  0  0  0  0  0
  150.5418  136.2998  155.0195 H   0  0  0  0  0  0  0  0  0  0  0  0
  151.6447  137.4589  155.7476 H   0  0  0  0  0  0  0  0  0  0  0  0
  146.6514  139.1758  152.6210 H   0  0  0  0  0  0  0  0  0  0  0  0
  145.9938  141.5646  152.8055 H   0  0  0  0  0  0  0  0  0  0  0  0
  147.4277  143.1692  154.0502 H   0  0  0  0  0  0  0  0  0  0  0  0
  149.5360  142.3872  155.1224 H   0  0  0  0  0  0  0  0  0  0  0  0
  152.3728  139.5392  155.4555 H   0  0  0  0  0  0  0  0  0  0  0  0
  151.6671  141.1288  155.4541 H   0  0  0  0  0  0  0  0  0  0  0  0
  150.1618  139.8806  157.4478 H   0  0  0  0  0  0  0  0  0  0  0  0
  152.7751  138.8523  157.5346 H   0  0  0  0  0  0  0  0  0  0  0  0
  152.1197  141.9493  157.3177 H   0  0  0  0  0  0  0  0  0  0  0  0
  150.9557  141.6491  158.6130 H   0  0  0  0  0  0  0  0  0  0  0  0
  154.3729  139.9045  160.7423 H   0  0  0  0  0  0  0  0  0  0  0  0
  154.7650  140.9318  162.9651 H   0  0  0  0  0  0  0  0  0  0  0  0
  152.0493  144.1232  161.9733 H   0  0  0  0  0  0  0  0  0  0  0  0
  151.6470  143.1233  159.7695 H   0  0  0  0  0  0  0  0  0  0  0  0
  1  2  1  0  0  0  0
  1 24  1  0  0  0  0
  2  3  1  0  0  0  0
  2 25  1  0  0  0  0
  2 26  1  0  0  0  0
  3 11  1  0  0  0  0
  3  4  2  0  0  0  0
  4  5  1  0  0  0  0
  5 10  2  0  0  0  0
  5  6  1  0  0  0  0
  6  7  2  0  0  0  0
  6 27  1  0  0  0  0
  7  8  1  0  0  0  0
  7 28  1  0  0  0  0
  8  9  2  0  0  0  0
  8 29  1  0  0  0  0
  9 10  1  0  0  0  0
  9 30  1  0  0  0  0
 10 11  1  0  0  0  0
 11 12  1  0  0  0  0
 12 13  1  0  0  0  0
 12 31  1  0  0  0  0
 12 32  1  0  0  0  0
 13 14  1  0  0  0  0
 13 15  1  0  0  0  0
 13 33  1  0  0  0  0
 14 34  1  0  0  0  0
 15 16  1  0  0  0  0
 15 35  1  0  0  0  0
 15 36  1  0  0  0  0
 16 17  1  0  0  0  0
 17 23  1  0  0  0  0
 17 18  2  0  0  0  0
 18 19  1  0  0  0  0
 18 37  1  0  0  0  0
 19 20  2  0  0  0  0
 19 38  1  0  0  0  0
 20 21  1  0  0  0  0
 20 22  1  0  0  0  0
 22 23  2  0  0  0  0
 22 39  1  0  0  0  0
 23 40  1  0  0  0  0
M  END
> <s_m_source_file>
AV-unprocessed.smi

> <i_m_source_file_index>
2193

> <i_lp_mmshare_version>
43012

> <i_f3d_flags>
0

> <s_epik_input>
W2NIXTFbY0hdW2NIXVtjSF1jKGMxMiluKGMobjIpW0NIMl1bT0hdKVtDSDJdW0NASF0oW09IXSlbQ0gyXU9jM1tjSF1bY0hdYyhGKVtjSF1bY0hdMw==

> <s_epik_cmdline>
J2VwaWtfcHl0aG9uJywgJy1waCcsICc3LjAnLCAnLXRuJywgJzgnLCAnLW1hJywgJzIwMCcsICctbWV0YWxfYmluZGluZycsICctaW1hZScsICc8aW5maWxlLm1hZT4nLCAnLW9tYWUnLCAnPG91dGZpbGUubWFlPic=

> <r_lp_tautomer_probability>
1

> <r_epik_Ionization_Penalty>
0.0549747

> <r_epik_Ionization_Penalty_Charging>
0

> <r_epik_Ionization_Penalty_Neutral>
0.0549747

> <r_epik_State_Penalty>
0.0472568

> <r_epik_Charging_Adjusted_Penalty>
0.0472568

> <i_epik_Tot_Q>
0

> <i_epik_Tot_abs_Q>
0

> <r_epik_Metal_State_Penalty>
4.91905e-05

> <b_epik_Metal_Only>
0

> <s_lp_Force_Field>
OPLS_2005

> <r_lp_Energy>
14.6926

> <b_lp_Chiralities_Consistent>
1

> <s_lp_Variant>
AV-unprocessed.smi:2193-2

> <Gold.Version>
5.8.1

> <Gold.Id.Protein>
6NUR|6NUR_protein|mol2

> <Gold.PLP.Fitness>
51.9524

> <Gold.PLP.PLP>
-52.4719

> <Gold.PLP.part.hbond>
-2.0000

> <Gold.PLP.part.metal>
0.0000

> <Gold.PLP.part.buried>
-2.5225

> <Gold.PLP.part.nonpolar>
-50.0025

> <Gold.PLP.part.repulsive>
1.9839

> <Gold.PLP.ligand.clash>
1.9398

> <Gold.PLP.ligand.torsion>
2.3524

> <Gold.PLP.Chemscore.Hbond>
2.0000

> <Gold.PLP.Chemscore.CHOScore>
0.0000

> <Gold.PLP.Chemscore.Metal>
0.0000

> <Gold.Chemscore.Hbonds>
donor molecule, donor type, donor heavy atom, donor atom, acceptor molecule, acceptor atom, score
      L1  H     1    24       P1  7949  1.00
      P1  H 10752 10764       L1     1  0.79

> <Gold.PLP.Chemscore.Internal.Correction>
0.1251

> <Gold.Rescore>
     Score         DG    S(hbond)    S(metal)    S(lipo)     H(rot)  DE(clash)    DE(int)     intcor
     12.22     -15.80       0.97        0.00     130.89       3.22       1.41       2.17       ----

> <Gold.Chemscore.Fitness>
12.2199

> <Gold.Chemscore.DG>
-15.8036

> <Gold.Chemscore.ZeroCoef>
-5.4800

> <Gold.Chemscore.Hbond>
0.9736

> <Gold.Chemscore.Metal>
0.0000

> <Gold.Chemscore.Lipo>
130.8878

> <Gold.Chemscore.Internal_Hbond>
0.0000

> <Gold.Chemscore.DEClash>
1.4116

> <Gold.Chemscore.DEInternal>
2.1721

> <Gold.Chemscore.Rot>
3.2196

> <Gold.Chemscore.Internal.Correction>
   9.000000E+99

> <Gold.Chemscore.Hbonds>
donor molecule, donor type, donor heavy atom, donor atom, acceptor molecule, acceptor atom, score
      L1  H     1    24       P1  7949  0.97
      P1  H 10752 10764       L1     1  0.08

> <Gold.Chemscore.Hbond.Weighted>
-3.2519

> <Gold.Chemscore.Metal.Weighted>
-0.0000

> <Gold.Chemscore.Lipo.Weighted>
-15.3139

> <Gold.Chemscore.Internal_Hbond.Weighted>
0.0000

> <Gold.Chemscore.DEClash.Weighted>
1.4116

> <Gold.Chemscore.DEInternal.Weighted>
2.1721

> <Gold.Chemscore.Rot.Weighted>
8.2422

> <Gold.Chemscore.Internal.Correction.Weighted>
   9.000000E+99

> <Gold.Protein.RotatedTorsions>
[ 6907 6896 6895 6894 ] final   89.74 input  -60.11 | X-H torsion
[ 7974 7965 7964 7962 ] final  -50.16 input  175.53 | X-H torsion
[ 8008 7997 7996 7995 ] final  149.17 input   59.86 | X-H torsion
[ 10167 10162 10161 10158 ] final -116.06 input  -65.29 | X-H torsion
[ 10718 10713 10712 10709 ] final   40.13 input   66.30 | X-H torsion
[ 10763 10752 10751 10750 ] final  -74.54 input  -60.55 | X-H torsion
[ 11005 11000 10999 10996 ] final   74.32 input  -57.11 | X-H torsion

> <Gold.Protein.ActiveResidues>
 VAL166  LYS551  ARG553  GLY616  TRP617  ASP618  TYR619  PRO620  LYS621  CYS622 
 ASP623  PHE694  ASN695  SER759  ASP760  ASP761  ALA762  ILE779  LEU786  VAL792 
 PHE793  MET794  SER795  GLU796  ALA797  LYS798  CYS799  TRP800  GLU811  SER814 

> <Gold.Protein.RotatedAtoms>
  152.5439  134.1919  159.8677 H   0  0  0  0  0  0  0  0  0  0  0  0  # atno 6907 bound_to 6896
  151.1914  133.4658  159.2602 H   0  0  0  0  0  0  0  0  0  0  0  0  # atno 6908 bound_to 6896
  151.1080  135.0022  159.8535 H   0  0  0  0  0  0  0  0  0  0  0  0  # atno 6909 bound_to 6896
  145.9329  140.7733  142.9591 H   0  0  0  0  0  0  0  0  0  0  0  0  # atno 7974 bound_to 7965
  156.2765  140.2109  156.5815 H   0  0  0  0  0  0  0  0  0  0  0  0  # atno 8008 bound_to 7997
  154.7055  140.0517  157.0523 H   0  0  0  0  0  0  0  0  0  0  0  0  # atno 8009 bound_to 7997
  155.0676  140.3173  155.4643 H   0  0  0  0  0  0  0  0  0  0  0  0  # atno 8010 bound_to 7997
  140.0834  143.4767  152.1913 H   0  0  0  0  0  0  0  0  0  0  0  0  # atno 10167 bound_to 10162
  157.3786  130.7741  149.7175 H   0  0  0  0  0  0  0  0  0  0  0  0  # atno 10718 bound_to 10713
  154.4745  135.5861  153.6345 H   0  0  0  0  0  0  0  0  0  0  0  0  # atno 10763 bound_to 10752
  152.9839  135.6075  154.3325 H   0  0  0  0  0  0  0  0  0  0  0  0  # atno 10764 bound_to 10752
  154.3210  135.2843  155.2499 H   0  0  0  0  0  0  0  0  0  0  0  0  # atno 10765 bound_to 10752
  139.9397  134.7423  156.1133 H   0  0  0  0  0  0  0  0  0  0  0  0  # atno 11005 bound_to 11000
  144.6767  140.2155  143.7372 LP  0  0  0  0  0  0  0  0  0  0  0  0  # atno 17320 bound_to 7965
  145.8403  139.2126  143.1831 LP  0  0  0  0  0  0  0  0  0  0  0  0  # atno 17321 bound_to 7965
  139.5766  144.7490  151.3748 LP  0  0  0  0  0  0  0  0  0  0  0  0  # atno 17342 bound_to 10162
  140.7066  143.7498  150.7493 LP  0  0  0  0  0  0  0  0  0  0  0  0  # atno 17343 bound_to 10162
  155.9771  130.4067  150.3736 LP  0  0  0  0  0  0  0  0  0  0  0  0  # atno 17370 bound_to 10713
  157.1837  131.0398  151.2735 LP  0  0  0  0  0  0  0  0  0  0  0  0  # atno 17371 bound_to 10713
  141.1026  133.6672  156.2789 LP  0  0  0  0  0  0  0  0  0  0  0  0  # atno 17394 bound_to 11000
  140.5984  134.5579  157.5513 LP  0  0  0  0  0  0  0  0  0  0  0  0  # atno 17395 bound_to 11000

$$$$
