AV-unprocessed.smi:623|AV-procd|sdf|3091|dock5
  -GOLD-   22720 0 13D 1   1.00000     0.00000
 Structure written by MMmdl.
 45 47  0  0  0  0  0  0  0  0  1 V2000
  147.7742  133.3556  161.9962 C   0  0  0  0  0  0  0  0  0  0  0  0
  146.6705  134.4068  161.6909 C   0  0  0  0  0  0  0  0  0  0  0  0
  145.3226  133.6800  161.9594 C   0  0  0  0  0  0  0  0  0  0  0  0
  146.8320  135.7363  162.4551 C   0  0  2  0  0  0  0  0  0  0  0  0
  145.7094  136.6276  161.8789 C   0  0  0  0  0  0  0  0  0  0  0  0
  145.6523  136.1827  160.4040 C   0  0  0  0  0  0  0  0  0  0  0  0
  146.7904  135.1277  160.3201 C   0  0  2  0  0  0  0  0  0  0  0  0
  146.6831  134.2239  159.0795 C   0  0  0  0  0  0  0  0  0  0  0  0
  148.1591  135.8713  160.4407 C   0  0  1  0  0  0  0  0  0  0  0  0
  148.3005  137.0292  159.5575 N   0  0  0  0  0  0  0  0  0  0  0  0
  149.2869  137.2124  158.6672 C   0  0  0  0  0  0  0  0  0  0  0  0
  150.1979  136.4016  158.4925 O   0  0  0  0  0  0  0  0  0  0  0  0
  149.2107  138.4980  157.8322 C   0  0  0  0  0  0  0  0  0  0  0  0
  150.3119  138.6165  156.8658 N   0  0  0  0  0  0  0  0  0  0  0  0
  150.0420  138.7705  155.5133 C   0  0  0  0  0  0  0  0  0  0  0  0
  151.0058  138.8643  154.5667 C   0  0  0  0  0  0  0  0  0  0  0  0
  152.4153  138.8060  154.9396 C   0  0  0  0  0  0  0  0  0  0  0  0
  153.3599  138.8829  154.1570 O   0  0  0  0  0  0  0  0  0  0  0  0
  152.6458  138.6490  156.3090 N   0  0  0  0  0  0  0  0  0  0  0  0
  151.6573  138.5492  157.2891 C   0  0  0  0  0  0  0  0  0  0  0  0
  151.9704  138.4061  158.4706 O   0  0  0  0  0  0  0  0  0  0  0  0
  148.1688  136.3006  161.9256 C   0  0  0  0  0  0  0  0  0  0  0  0
  153.6070  138.6008  156.6140 H   0  0  0  0  0  0  0  0  0  0  0  0
  147.6981  133.0102  163.0276 H   0  0  0  0  0  0  0  0  0  0  0  0
  148.7960  133.7038  161.8659 H   0  0  0  0  0  0  0  0  0  0  0  0
  147.6613  132.4796  161.3570 H   0  0  0  0  0  0  0  0  0  0  0  0
  144.4315  134.2855  161.8099 H   0  0  0  0  0  0  0  0  0  0  0  0
  145.2794  133.3231  162.9888 H   0  0  0  0  0  0  0  0  0  0  0  0
  145.2175  132.8070  161.3148 H   0  0  0  0  0  0  0  0  0  0  0  0
  146.8008  135.6500  163.5416 H   0  0  0  0  0  0  0  0  0  0  0  0
  144.7583  136.4534  162.3825 H   0  0  0  0  0  0  0  0  0  0  0  0
  145.9337  137.6902  161.9781 H   0  0  0  0  0  0  0  0  0  0  0  0
  144.6829  135.7424  160.1694 H   0  0  0  0  0  0  0  0  0  0  0  0
  145.7714  137.0181  159.7149 H   0  0  0  0  0  0  0  0  0  0  0  0
  146.7374  134.8092  158.1616 H   0  0  0  0  0  0  0  0  0  0  0  0
  145.7384  133.6806  159.0623 H   0  0  0  0  0  0  0  0  0  0  0  0
  147.4893  133.4910  159.0510 H   0  0  0  0  0  0  0  0  0  0  0  0
  148.9881  135.1855  160.2596 H   0  0  0  0  0  0  0  0  0  0  0  0
  147.5899  137.7429  159.6284 H   0  0  0  0  0  0  0  0  0  0  0  0
  148.2516  138.5074  157.3124 H   0  0  0  0  0  0  0  0  0  0  0  0
  149.1891  139.3679  158.4918 H   0  0  0  0  0  0  0  0  0  0  0  0
  149.0110  138.8125  155.1913 H   0  0  0  0  0  0  0  0  0  0  0  0
  150.7326  138.9812  153.5280 H   0  0  0  0  0  0  0  0  0  0  0  0
  148.2351  137.3817  162.0587 H   0  0  0  0  0  0  0  0  0  0  0  0
  149.0203  135.8701  162.4529 H   0  0  0  0  0  0  0  0  0  0  0  0
  1  2  1  0  0  0  0
  1 24  1  0  0  0  0
  1 25  1  0  0  0  0
  1 26  1  0  0  0  0
  2  7  1  0  0  0  0
  2  3  1  0  0  0  0
  2  4  1  0  0  0  0
  3 27  1  0  0  0  0
  3 28  1  0  0  0  0
  3 29  1  0  0  0  0
  4 22  1  0  0  0  0
  4  5  1  0  0  0  0
  4 30  1  0  0  0  0
  5  6  1  0  0  0  0
  5 31  1  0  0  0  0
  5 32  1  0  0  0  0
  6  7  1  0  0  0  0
  6 33  1  0  0  0  0
  6 34  1  0  0  0  0
  7  8  1  0  0  0  0
  7  9  1  0  0  0  0
  8 35  1  0  0  0  0
  8 36  1  0  0  0  0
  8 37  1  0  0  0  0
  9 10  1  0  0  0  0
  9 22  1  0  0  0  0
  9 38  1  0  0  0  0
 10 11  1  0  0  0  0
 10 39  1  0  0  0  0
 11 12  2  0  0  0  0
 11 13  1  0  0  0  0
 13 14  1  0  0  0  0
 13 40  1  0  0  0  0
 13 41  1  0  0  0  0
 14 20  1  0  0  0  0
 14 15  1  0  0  0  0
 15 16  2  0  0  0  0
 15 42  1  0  0  0  0
 16 17  1  0  0  0  0
 16 43  1  0  0  0  0
 17 18  2  0  0  0  0
 17 19  1  0  0  0  0
 19 23  1  0  0  0  0
 19 20  1  0  0  0  0
 20 21  2  0  0  0  0
 22 44  1  0  0  0  0
 22 45  1  0  0  0  0
M  END
> <s_m_source_file>
AV-unprocessed.smi

> <i_m_source_file_index>
623

> <i_lp_mmshare_version>
43012

> <i_f3d_flags>
0

> <s_epik_input>
W0NIM11bQ0BdMTJDKFtDSDNdKShbQ0gzXSlbQ0BIXShbQ0gyXVtDSDJdMSlbQ0gyXVtDQEBIXTJbTkhdQyg9TylbQ0gyXW4zW2NIXVtjSF1jKD1PKVtuSF1jMz1P

> <s_epik_cmdline>
J2VwaWtfcHl0aG9uJywgJy1waCcsICc3LjAnLCAnLXRuJywgJzgnLCAnLW1hJywgJzIwMCcsICctbWV0YWxfYmluZGluZycsICctaW1hZScsICc8aW5maWxlLm1hZT4nLCAnLW9tYWUnLCAnPG91dGZpbGUubWFlPic=

> <r_lp_tautomer_probability>
0.999537

> <r_epik_Ionization_Penalty>
0.00303563

> <r_epik_Ionization_Penalty_Charging>
0.00303561

> <r_epik_Ionization_Penalty_Neutral>
2.03238e-08

> <r_epik_State_Penalty>
0.00213308

> <r_epik_Charging_Adjusted_Penalty>
0.00516869

> <i_epik_Tot_Q>
0

> <i_epik_Tot_abs_Q>
0

> <r_epik_Metal_State_Penalty>
0.361714

> <b_epik_Metal_Only>
0

> <s_lp_Force_Field>
OPLS_2005

> <r_lp_Energy>
55.109

> <b_lp_Chiralities_Consistent>
1

> <s_lp_Variant>
AV-unprocessed.smi:623-1

> <Gold.Version>
5.8.1

> <Gold.Id.Protein>
6NUR|6NUR_protein|mol2

> <Gold.PLP.Fitness>
40.9886

> <Gold.PLP.PLP>
-35.0271

> <Gold.PLP.part.hbond>
-2.0568

> <Gold.PLP.part.metal>
0.0000

> <Gold.PLP.part.buried>
-5.6358

> <Gold.PLP.part.nonpolar>
-27.8727

> <Gold.PLP.part.repulsive>
0.5547

> <Gold.PLP.ligand.clash>
0.0000

> <Gold.PLP.ligand.torsion>
0.0262

> <Gold.PLP.Chemscore.Hbond>
2.0000

> <Gold.PLP.Chemscore.CHOScore>
0.0000

> <Gold.PLP.Chemscore.Metal>
0.0000

> <Gold.Chemscore.Hbonds>
donor molecule, donor type, donor heavy atom, donor atom, acceptor molecule, acceptor atom, score
      P1  H  6896  6908       L1    12  0.92
      P1  H  7997  8009       L1    18  0.06

> <Gold.PLP.Chemscore.Internal.Correction>
0.0139

> <Gold.Rescore>
     Score         DG    S(hbond)    S(metal)    S(lipo)     H(rot)  DE(clash)    DE(int)     intcor
     17.10     -17.38       1.98        0.00      81.55       1.66       0.09       0.19       ----

> <Gold.Chemscore.Fitness>
17.0959

> <Gold.Chemscore.DG>
-17.3766

> <Gold.Chemscore.ZeroCoef>
-5.4800

> <Gold.Chemscore.Hbond>
1.9810

> <Gold.Chemscore.Metal>
0.0000

> <Gold.Chemscore.Lipo>
81.5518

> <Gold.Chemscore.Internal_Hbond>
0.0000

> <Gold.Chemscore.DEClash>
0.0912

> <Gold.Chemscore.DEInternal>
0.1895

> <Gold.Chemscore.Rot>
1.6647

> <Gold.Chemscore.Internal.Correction>
   9.000000E+99

> <Gold.Chemscore.Hbonds>
donor molecule, donor type, donor heavy atom, donor atom, acceptor molecule, acceptor atom, score
      P1  H  6896  6908       L1    12  0.84
      P1  H  7997  8009       L1    18  0.01

> <Gold.Chemscore.Hbond.Weighted>
-6.6167

> <Gold.Chemscore.Metal.Weighted>
-0.0000

> <Gold.Chemscore.Lipo.Weighted>
-9.5416

> <Gold.Chemscore.Internal_Hbond.Weighted>
0.0000

> <Gold.Chemscore.DEClash.Weighted>
0.0912

> <Gold.Chemscore.DEInternal.Weighted>
0.1895

> <Gold.Chemscore.Rot.Weighted>
4.2617

> <Gold.Chemscore.Internal.Correction.Weighted>
   9.000000E+99

> <Gold.Protein.RotatedTorsions>
[ 6907 6896 6895 6894 ] final -175.84 input  -60.11 | X-H torsion
[ 7974 7965 7964 7962 ] final -157.15 input  175.53 | X-H torsion
[ 8008 7997 7996 7995 ] final -109.05 input   59.86 | X-H torsion
[ 10167 10162 10161 10158 ] final  -60.39 input  -65.29 | X-H torsion
[ 10718 10713 10712 10709 ] final   29.05 input   66.30 | X-H torsion
[ 10763 10752 10751 10750 ] final  109.17 input  -60.55 | X-H torsion
[ 11005 11000 10999 10996 ] final  -80.62 input  -57.11 | X-H torsion

> <Gold.Protein.ActiveResidues>
 VAL166  LYS551  ARG553  GLY616  TRP617  ASP618  TYR619  PRO620  LYS621  CYS622 
 ASP623  PHE694  ASN695  SER759  ASP760  ASP761  ALA762  ILE779  LEU786  VAL792 
 PHE793  MET794  SER795  GLU796  ALA797  LYS798  CYS799  TRP800  GLU811  SER814 

> <Gold.Protein.RotatedAtoms>
  151.5950  133.3362  159.3035 H   0  0  0  0  0  0  0  0  0  0  0  0  # atno 6907 bound_to 6896
  150.8239  134.7464  159.6807 H   0  0  0  0  0  0  0  0  0  0  0  0  # atno 6908 bound_to 6896
  152.4330  134.5747  159.9982 H   0  0  0  0  0  0  0  0  0  0  0  0  # atno 6909 bound_to 6896
  144.7561  140.4009  143.6011 H   0  0  0  0  0  0  0  0  0  0  0  0  # atno 7974 bound_to 7965
  154.9534  140.0400  157.2155 H   0  0  0  0  0  0  0  0  0  0  0  0  # atno 8008 bound_to 7997
  154.7957  140.2843  155.5937 H   0  0  0  0  0  0  0  0  0  0  0  0  # atno 8009 bound_to 7997
  156.2955  140.2565  156.2814 H   0  0  0  0  0  0  0  0  0  0  0  0  # atno 8010 bound_to 7997
  140.6074  143.2377  151.5789 H   0  0  0  0  0  0  0  0  0  0  0  0  # atno 10167 bound_to 10162
  157.2415  130.7071  149.6360 H   0  0  0  0  0  0  0  0  0  0  0  0  # atno 10718 bound_to 10713
  153.4310  135.3788  155.2170 H   0  0  0  0  0  0  0  0  0  0  0  0  # atno 10763 bound_to 10752
  154.8750  135.3840  154.4268 H   0  0  0  0  0  0  0  0  0  0  0  0  # atno 10764 bound_to 10752
  153.4800  135.7088  153.6006 H   0  0  0  0  0  0  0  0  0  0  0  0  # atno 10765 bound_to 10752
  141.1667  133.7159  156.8301 H   0  0  0  0  0  0  0  0  0  0  0  0  # atno 11005 bound_to 11000
  145.6775  139.1611  143.2719 LP  0  0  0  0  0  0  0  0  0  0  0  0  # atno 17320 bound_to 7965
  146.1572  140.6840  142.9294 LP  0  0  0  0  0  0  0  0  0  0  0  0  # atno 17321 bound_to 7965
  139.5335  144.2847  152.1201 LP  0  0  0  0  0  0  0  0  0  0  0  0  # atno 17342 bound_to 10162
  140.2039  144.4630  150.6418 LP  0  0  0  0  0  0  0  0  0  0  0  0  # atno 17343 bound_to 10162
  155.9670  130.4457  150.5510 LP  0  0  0  0  0  0  0  0  0  0  0  0  # atno 17370 bound_to 10713
  157.3374  131.0710  151.1814 LP  0  0  0  0  0  0  0  0  0  0  0  0  # atno 17371 bound_to 10713
  140.2057  134.8864  157.3219 LP  0  0  0  0  0  0  0  0  0  0  0  0  # atno 17394 bound_to 11000
  140.2139  134.4105  155.7599 LP  0  0  0  0  0  0  0  0  0  0  0  0  # atno 17395 bound_to 11000

$$$$
