AV-unprocessed.smi:2657|AV-procd|sdf|10307|dock9
  -GOLD-   2272014323D 1   1.00000     0.00000
 Structure written by MMmdl.
 46 48  0  0  0  0  0  0  0  0  1 V2000
  146.7740  138.8413  154.6692 O   0  0  0  0  0  0  0  0  0  0  0  0
  147.5751  138.9405  153.7405 C   0  0  0  0  0  0  0  0  0  0  0  0
  147.3251  138.4917  152.5024 N   0  0  0  0  0  0  0  0  0  0  0  0
  146.0761  137.8700  152.0786 C   0  0  0  0  0  0  0  0  0  0  0  0
  145.6012  136.8028  153.0864 C   0  0  0  0  0  0  0  0  0  0  0  0
  145.5300  135.4649  152.4877 N   0  0  0  0  0  0  0  0  0  0  0  0
  144.8650  135.1823  151.3583 C   0  0  0  0  0  0  0  0  0  0  0  0
  144.2425  135.9810  150.6589 O   0  0  0  0  0  0  0  0  0  0  0  0
  144.9606  133.7003  151.0233 C   0  0  0  0  0  0  0  0  0  0  0  0
  145.8195  133.1427  152.1623 C   0  0  0  0  0  0  0  0  0  0  0  0
  146.1010  134.3725  153.0145 C   0  0  0  0  0  0  0  0  0  0  0  0
  146.7663  134.3260  154.0487 O   0  0  0  0  0  0  0  0  0  0  0  0
  148.7909  139.5096  153.8105 N   0  0  0  0  0  0  0  0  0  0  0  0
  149.4264  140.1551  154.9075 C   0  0  0  0  0  0  0  0  0  0  0  0
  148.7714  140.9586  155.8706 C   0  0  0  0  0  0  0  0  0  0  0  0
  149.5293  141.5358  156.9073 C   0  0  0  0  0  0  0  0  0  0  0  0
  150.9225  141.2965  156.9664 C   0  0  0  0  0  0  0  0  0  0  0  0
  151.7001  141.8658  157.9985 N   0  0  0  0  0  0  0  0  0  0  0  0
  151.5765  141.3027  159.3420 C   0  0  0  0  0  0  0  0  0  0  0  0
  152.6937  141.8379  160.2536 C   0  0  0  0  0  0  0  0  0  0  0  0
  152.6743  143.2613  160.2504 O   0  0  0  0  0  0  0  0  0  0  0  0
  152.9085  143.7901  158.9495 C   0  0  0  0  0  0  0  0  0  0  0  0
  151.8012  143.3233  157.9888 C   0  0  0  0  0  0  0  0  0  0  0  0
  151.5465  140.5274  156.0414 N   0  0  0  0  0  0  0  0  0  0  0  0
  150.8169  139.9758  155.0496 C   0  0  0  0  0  0  0  0  0  0  0  0
  148.0376  138.6115  151.7973 H   0  0  0  0  0  0  0  0  0  0  0  0
  145.3350  138.6687  152.0413 H   0  0  0  0  0  0  0  0  0  0  0  0
  146.1412  137.4792  151.0615 H   0  0  0  0  0  0  0  0  0  0  0  0
  146.2215  136.8097  153.9847 H   0  0  0  0  0  0  0  0  0  0  0  0
  144.6012  137.0686  153.4333 H   0  0  0  0  0  0  0  0  0  0  0  0
  143.9676  133.2499  151.0060 H   0  0  0  0  0  0  0  0  0  0  0  0
  145.4306  133.5568  150.0500 H   0  0  0  0  0  0  0  0  0  0  0  0
  145.2866  132.3893  152.7430 H   0  0  0  0  0  0  0  0  0  0  0  0
  146.7512  132.7111  151.7952 H   0  0  0  0  0  0  0  0  0  0  0  0
  149.3177  139.5189  152.9493 H   0  0  0  0  0  0  0  0  0  0  0  0
  147.7109  141.1487  155.8476 H   0  0  0  0  0  0  0  0  0  0  0  0
  149.0353  142.1639  157.6333 H   0  0  0  0  0  0  0  0  0  0  0  0
  150.6009  141.5636  159.7548 H   0  0  0  0  0  0  0  0  0  0  0  0
  151.6344  140.2141  159.3027 H   0  0  0  0  0  0  0  0  0  0  0  0
  152.5478  141.4827  161.2738 H   0  0  0  0  0  0  0  0  0  0  0  0
  153.6696  141.4753  159.9267 H   0  0  0  0  0  0  0  0  0  0  0  0
  152.9208  144.8785  159.0061 H   0  0  0  0  0  0  0  0  0  0  0  0
  153.8909  143.4789  158.5906 H   0  0  0  0  0  0  0  0  0  0  0  0
  152.0129  143.7086  156.9925 H   0  0  0  0  0  0  0  0  0  0  0  0
  150.8421  143.7437  158.2938 H   0  0  0  0  0  0  0  0  0  0  0  0
  151.3664  139.3713  154.3430 H   0  0  0  0  0  0  0  0  0  0  0  0
  1  2  2  0  0  0  0
  2  3  1  0  0  0  0
  2 13  1  0  0  0  0
  3  4  1  0  0  0  0
  3 26  1  0  0  0  0
  4  5  1  0  0  0  0
  4 27  1  0  0  0  0
  4 28  1  0  0  0  0
  5  6  1  0  0  0  0
  5 29  1  0  0  0  0
  5 30  1  0  0  0  0
  6 11  1  0  0  0  0
  6  7  1  0  0  0  0
  7  8  2  0  0  0  0
  7  9  1  0  0  0  0
  9 10  1  0  0  0  0
  9 31  1  0  0  0  0
  9 32  1  0  0  0  0
 10 11  1  0  0  0  0
 10 33  1  0  0  0  0
 10 34  1  0  0  0  0
 11 12  2  0  0  0  0
 13 14  1  0  0  0  0
 13 35  1  0  0  0  0
 14 25  1  0  0  0  0
 14 15  2  0  0  0  0
 15 16  1  0  0  0  0
 15 36  1  0  0  0  0
 16 17  2  0  0  0  0
 16 37  1  0  0  0  0
 17 18  1  0  0  0  0
 17 24  1  0  0  0  0
 18 23  1  0  0  0  0
 18 19  1  0  0  0  0
 19 20  1  0  0  0  0
 19 38  1  0  0  0  0
 19 39  1  0  0  0  0
 20 21  1  0  0  0  0
 20 40  1  0  0  0  0
 20 41  1  0  0  0  0
 21 22  1  0  0  0  0
 22 23  1  0  0  0  0
 22 42  1  0  0  0  0
 22 43  1  0  0  0  0
 23 44  1  0  0  0  0
 23 45  1  0  0  0  0
 24 25  2  0  0  0  0
 25 46  1  0  0  0  0
M  END
> <s_m_source_file>
AV-unprocessed.smi

> <i_m_source_file_index>
2657

> <i_lp_mmshare_version>
43012

> <i_f3d_flags>
0

> <s_epik_input>
Tz1DMVtDSDJdW0NIMl1DKD1PKU4xW0NIMl1bQ0gyXVtOSF1DKD1PKVtOSF1jMltjSF1bY0hdYyhuW2NIXTIpTjNbQ0gyXVtDSDJdT1tDSDJdW0NIMl0z

> <s_epik_cmdline>
J2VwaWtfcHl0aG9uJywgJy1waCcsICc3LjAnLCAnLXRuJywgJzgnLCAnLW1hJywgJzIwMCcsICctbWV0YWxfYmluZGluZycsICctaW1hZScsICc8aW5maWxlLm1hZT4nLCAnLW9tYWUnLCAnPG91dGZpbGUubWFlPic=

> <r_lp_tautomer_probability>
1

> <r_epik_Ionization_Penalty>
0.00195667

> <r_epik_Ionization_Penalty_Charging>
0

> <r_epik_Ionization_Penalty_Neutral>
0.00195667

> <r_epik_State_Penalty>
0.0013118

> <r_epik_Charging_Adjusted_Penalty>
0.0013118

> <i_epik_Tot_Q>
0

> <i_epik_Tot_abs_Q>
0

> <r_epik_Metal_State_Penalty>
-0

> <b_epik_Metal_Only>
0

> <s_lp_Force_Field>
OPLS_2005

> <r_lp_Energy>
27.686

> <b_lp_Chiralities_Consistent>
1

> <s_lp_Variant>
AV-unprocessed.smi:2657-1

> <Gold.Version>
5.8.1

> <Gold.Id.Protein>
6NUR|6NUR_protein|mol2

> <Gold.PLP.Fitness>
45.4661

> <Gold.PLP.PLP>
-41.7392

> <Gold.PLP.part.hbond>
-4.0000

> <Gold.PLP.part.metal>
0.0000

> <Gold.PLP.part.buried>
0.9626

> <Gold.PLP.part.nonpolar>
-38.1318

> <Gold.PLP.part.repulsive>
1.6232

> <Gold.PLP.ligand.clash>
0.0000

> <Gold.PLP.ligand.torsion>
0.9628

> <Gold.PLP.Chemscore.Hbond>
1.7670

> <Gold.PLP.Chemscore.CHOScore>
0.0000

> <Gold.PLP.Chemscore.Metal>
0.0000

> <Gold.Chemscore.Hbonds>
donor molecule, donor type, donor heavy atom, donor atom, acceptor molecule, acceptor atom, score
      L1  H     3    26       P1  7957  0.54
      L1  H    13    35       P1  7957  1.00

> <Gold.PLP.Chemscore.Internal.Correction>
0.3515

> <Gold.Rescore>
     Score         DG    S(hbond)    S(metal)    S(lipo)     H(rot)  DE(clash)    DE(int)     intcor
      9.99     -16.95       1.79        0.00      90.11       1.97       2.95       4.01       ----

> <Gold.Chemscore.Fitness>
9.9893

> <Gold.Chemscore.DG>
-16.9545

> <Gold.Chemscore.ZeroCoef>
-5.4800

> <Gold.Chemscore.Hbond>
1.7920

> <Gold.Chemscore.Metal>
0.0000

> <Gold.Chemscore.Lipo>
90.1119

> <Gold.Chemscore.Internal_Hbond>
0.0000

> <Gold.Chemscore.DEClash>
2.9516

> <Gold.Chemscore.DEInternal>
4.0135

> <Gold.Chemscore.Rot>
1.9742

> <Gold.Chemscore.Internal.Correction>
   9.000000E+99

> <Gold.Chemscore.Hbonds>
donor molecule, donor type, donor heavy atom, donor atom, acceptor molecule, acceptor atom, score
      L1  H     3    26       P1  7957  0.39
      L1  H    13    35       P1  7957  0.97

> <Gold.Chemscore.Hbond.Weighted>
-5.9854

> <Gold.Chemscore.Metal.Weighted>
-0.0000

> <Gold.Chemscore.Lipo.Weighted>
-10.5431

> <Gold.Chemscore.Internal_Hbond.Weighted>
0.0000

> <Gold.Chemscore.DEClash.Weighted>
2.9516

> <Gold.Chemscore.DEInternal.Weighted>
4.0135

> <Gold.Chemscore.Rot.Weighted>
5.0540

> <Gold.Chemscore.Internal.Correction.Weighted>
   9.000000E+99

> <Gold.Protein.RotatedTorsions>
[ 6907 6896 6895 6894 ] final -169.46 input  -60.11 | X-H torsion
[ 7974 7965 7964 7962 ] final -156.34 input  175.53 | X-H torsion
[ 8008 7997 7996 7995 ] final  -22.24 input   59.86 | X-H torsion
[ 10167 10162 10161 10158 ] final -150.48 input  -65.29 | X-H torsion
[ 10718 10713 10712 10709 ] final  115.89 input   66.30 | X-H torsion
[ 10763 10752 10751 10750 ] final   48.70 input  -60.55 | X-H torsion
[ 11005 11000 10999 10996 ] final   11.57 input  -57.11 | X-H torsion

> <Gold.Protein.ActiveResidues>
 VAL166  LYS551  ARG553  GLY616  TRP617  ASP618  TYR619  PRO620  LYS621  CYS622 
 ASP623  PHE694  ASN695  SER759  ASP760  ASP761  ALA762  ILE779  LEU786  VAL792 
 PHE793  MET794  SER795  GLU796  ALA797  LYS798  CYS799  TRP800  GLU811  SER814 

> <Gold.Protein.RotatedAtoms>
  151.4919  133.3523  159.2854 H   0  0  0  0  0  0  0  0  0  0  0  0  # atno 6907 bound_to 6896
  150.8829  134.8224  159.7249 H   0  0  0  0  0  0  0  0  0  0  0  0  # atno 6908 bound_to 6896
  152.4774  134.4819  159.9720 H   0  0  0  0  0  0  0  0  0  0  0  0  # atno 6909 bound_to 6896
  144.7598  140.4123  143.5985 H   0  0  0  0  0  0  0  0  0  0  0  0  # atno 7974 bound_to 7965
  154.4656  140.2013  156.0128 H   0  0  0  0  0  0  0  0  0  0  0  0  # atno 8008 bound_to 7997
  156.0920  140.3256  155.7799 H   0  0  0  0  0  0  0  0  0  0  0  0  # atno 8009 bound_to 7997
  155.4940  140.0548  157.2940 H   0  0  0  0  0  0  0  0  0  0  0  0  # atno 8010 bound_to 7997
  139.7351  143.8748  152.2546 H   0  0  0  0  0  0  0  0  0  0  0  0  # atno 10167 bound_to 10162
  157.6194  131.1018  150.7395 H   0  0  0  0  0  0  0  0  0  0  0  0  # atno 10718 bound_to 10713
  152.9790  135.5935  154.3969 H   0  0  0  0  0  0  0  0  0  0  0  0  # atno 10763 bound_to 10752
  154.3618  135.2767  155.2317 H   0  0  0  0  0  0  0  0  0  0  0  0  # atno 10764 bound_to 10752
  154.4311  135.6036  153.6124 H   0  0  0  0  0  0  0  0  0  0  0  0  # atno 10765 bound_to 10752
  140.5017  134.0739  155.7795 H   0  0  0  0  0  0  0  0  0  0  0  0  # atno 11005 bound_to 11000
  145.6658  139.1590  143.2782 LP  0  0  0  0  0  0  0  0  0  0  0  0  # atno 17320 bound_to 7965
  146.1648  140.6735  142.9261 LP  0  0  0  0  0  0  0  0  0  0  0  0  # atno 17321 bound_to 7965
  139.8683  144.7082  150.9018 LP  0  0  0  0  0  0  0  0  0  0  0  0  # atno 17342 bound_to 10162
  140.7777  143.3760  151.1563 LP  0  0  0  0  0  0  0  0  0  0  0  0  # atno 17343 bound_to 10162
  156.7755  130.4842  149.5410 LP  0  0  0  0  0  0  0  0  0  0  0  0  # atno 17370 bound_to 10713
  156.1332  130.6192  151.0363 LP  0  0  0  0  0  0  0  0  0  0  0  0  # atno 17371 bound_to 10713
  141.1432  133.9102  157.2278 LP  0  0  0  0  0  0  0  0  0  0  0  0  # atno 17394 bound_to 11000
  139.9709  135.0128  156.9510 LP  0  0  0  0  0  0  0  0  0  0  0  0  # atno 17395 bound_to 11000

$$$$
