AV-unprocessed.smi:229|AV-procd|sdf|1749|dock10
  -GOLD-   2262020273D 1   1.00000     0.00000
 Structure written by MMmdl.
 58 62  0  0  0  0  0  0  0  0  1 V2000
  144.9982  134.6243  155.7736 C   0  0  0  0  0  0  0  0  0  0  0  0
  145.9698  135.7723  155.4688 C   0  0  0  0  0  0  0  0  0  0  0  0
  147.4466  135.4123  155.7010 C   0  0  2  0  0  0  0  0  0  0  0  0
  148.4048  136.5739  155.3815 C   0  0  0  0  0  0  0  0  0  0  0  0
  149.7873  136.1296  155.5084 N   0  0  0  0  0  0  0  0  0  0  0  0
  150.7054  137.1272  155.5741 C   0  0  0  0  0  0  0  0  0  0  0  0
  151.6898  137.2095  154.6388 N   0  0  0  0  0  0  0  0  0  0  0  0
  152.5875  138.1986  154.6871 C   0  0  0  0  0  0  0  0  0  0  0  0
  152.6864  139.1938  155.5702 N   0  0  0  0  0  0  0  0  0  0  0  0
  151.7094  139.1106  156.5176 C   0  0  0  0  0  0  0  0  0  0  0  0
  150.6905  138.1191  156.5954 C   0  0  0  0  0  0  0  0  0  0  0  0
  149.8866  138.3549  157.7052 N   0  0  0  0  0  0  0  0  0  0  0  0
  150.3920  139.4314  158.2429 C   0  0  0  0  0  0  0  0  0  0  0  0
  151.4868  139.9523  157.5920 N   0  0  0  0  0  0  0  0  0  0  0  0
  152.2381  141.1383  157.9633 C   0  0  0  0  0  0  0  0  0  0  0  0
  151.7732  141.7286  159.3094 C   0  0  1  0  0  0  0  0  0  0  0  0
  152.7807  141.5222  160.2819 O   0  0  0  0  0  0  0  0  0  0  0  0
  151.4792  143.2367  159.2150 C   0  0  2  0  0  0  0  0  0  0  0  0
  152.5461  144.0455  158.4792 C   0  0  0  0  0  0  0  0  0  0  0  0
  152.2920  145.4551  158.9765 C   0  0  0  0  0  0  0  0  0  0  0  0
  151.6548  145.2424  160.3530 C   0  0  0  0  0  0  0  0  0  0  0  0
  151.5022  143.8347  160.5027 O   0  0  0  0  0  0  0  0  0  0  0  0
  150.0870  134.9708  154.6733 C   0  0  0  0  0  0  0  0  0  0  0  0
  149.0955  133.8184  154.9561 C   0  0  1  0  0  0  0  0  0  0  0  0
  149.2603  132.6924  153.9405 C   0  0  0  0  0  0  0  0  0  0  0  0
  150.1974  131.7225  154.6436 C   0  0  0  0  0  0  0  0  0  0  0  0
  149.7190  131.7518  155.9752 O   0  0  0  0  0  0  0  0  0  0  0  0
  149.3709  133.0941  156.2951 C   0  0  0  0  0  0  0  0  0  0  0  0
  147.7543  134.3057  154.8511 O   0  0  0  0  0  0  0  0  0  0  0  0
  143.9746  134.9119  155.5329 H   0  0  0  0  0  0  0  0  0  0  0  0
  145.0205  134.3476  156.8275 H   0  0  0  0  0  0  0  0  0  0  0  0
  145.2402  133.7377  155.1873 H   0  0  0  0  0  0  0  0  0  0  0  0
  145.8397  136.0640  154.4261 H   0  0  0  0  0  0  0  0  0  0  0  0
  145.7035  136.6470  156.0634 H   0  0  0  0  0  0  0  0  0  0  0  0
  147.5699  135.1190  156.7440 H   0  0  0  0  0  0  0  0  0  0  0  0
  148.2403  136.9287  154.3631 H   0  0  0  0  0  0  0  0  0  0  0  0
  148.1999  137.4132  156.0440 H   0  0  0  0  0  0  0  0  0  0  0  0
  153.3316  138.1924  153.9043 H   0  0  0  0  0  0  0  0  0  0  0  0
  149.9746  139.8811  159.1320 H   0  0  0  0  0  0  0  0  0  0  0  0
  153.2976  140.8816  158.0031 H   0  0  0  0  0  0  0  0  0  0  0  0
  152.1255  141.8745  157.1665 H   0  0  0  0  0  0  0  0  0  0  0  0
  150.8751  141.2049  159.6405 H   0  0  0  0  0  0  0  0  0  0  0  0
  153.6203  141.5276  159.8480 H   0  0  0  0  0  0  0  0  0  0  0  0
  150.5011  143.4115  158.7626 H   0  0  0  0  0  0  0  0  0  0  0  0
  153.5427  143.7211  158.7827 H   0  0  0  0  0  0  0  0  0  0  0  0
  152.4753  143.9596  157.3946 H   0  0  0  0  0  0  0  0  0  0  0  0
  153.2071  146.0459  159.0235 H   0  0  0  0  0  0  0  0  0  0  0  0
  151.5921  145.9692  158.3166 H   0  0  0  0  0  0  0  0  0  0  0  0
  152.2762  145.6360  161.1579 H   0  0  0  0  0  0  0  0  0  0  0  0
  150.6803  145.7289  160.4081 H   0  0  0  0  0  0  0  0  0  0  0  0
  150.0164  135.2715  153.6268 H   0  0  0  0  0  0  0  0  0  0  0  0
  151.1110  134.6347  154.8423 H   0  0  0  0  0  0  0  0  0  0  0  0
  148.3031  132.1976  153.7688 H   0  0  0  0  0  0  0  0  0  0  0  0
  149.6380  133.0244  152.9728 H   0  0  0  0  0  0  0  0  0  0  0  0
  150.1595  130.7172  154.2236 H   0  0  0  0  0  0  0  0  0  0  0  0
  151.2293  132.0757  154.6112 H   0  0  0  0  0  0  0  0  0  0  0  0
  150.1929  133.5599  156.8400 H   0  0  0  0  0  0  0  0  0  0  0  0
  148.5043  133.0785  156.9556 H   0  0  0  0  0  0  0  0  0  0  0  0
  1  2  1  0  0  0  0
  1 30  1  0  0  0  0
  1 31  1  0  0  0  0
  1 32  1  0  0  0  0
  2  3  1  0  0  0  0
  2 33  1  0  0  0  0
  2 34  1  0  0  0  0
  3 29  1  0  0  0  0
  3  4  1  0  0  0  0
  3 35  1  0  0  0  0
  4  5  1  0  0  0  0
  4 36  1  0  0  0  0
  4 37  1  0  0  0  0
  5  6  1  0  0  0  0
  5 23  1  0  0  0  0
  6 11  1  0  0  0  0
  6  7  2  0  0  0  0
  7  8  1  0  0  0  0
  8  9  2  0  0  0  0
  8 38  1  0  0  0  0
  9 10  1  0  0  0  0
 10 14  1  0  0  0  0
 10 11  2  0  0  0  0
 11 12  1  0  0  0  0
 12 13  2  0  0  0  0
 13 14  1  0  0  0  0
 13 39  1  0  0  0  0
 14 15  1  0  0  0  0
 15 16  1  0  0  0  0
 15 40  1  0  0  0  0
 15 41  1  0  0  0  0
 16 17  1  0  0  0  0
 16 18  1  0  0  0  0
 16 42  1  0  0  0  0
 17 43  1  0  0  0  0
 18 22  1  0  0  0  0
 18 19  1  0  0  0  0
 18 44  1  0  0  0  0
 19 20  1  0  0  0  0
 19 45  1  0  0  0  0
 19 46  1  0  0  0  0
 20 21  1  0  0  0  0
 20 47  1  0  0  0  0
 20 48  1  0  0  0  0
 21 22  1  0  0  0  0
 21 49  1  0  0  0  0
 21 50  1  0  0  0  0
 23 24  1  0  0  0  0
 23 51  1  0  0  0  0
 23 52  1  0  0  0  0
 24 28  1  0  0  0  0
 24 25  1  0  0  0  0
 24 29  1  0  0  0  0
 25 26  1  0  0  0  0
 25 53  1  0  0  0  0
 25 54  1  0  0  0  0
 26 27  1  0  0  0  0
 26 55  1  0  0  0  0
 26 56  1  0  0  0  0
 27 28  1  0  0  0  0
 28 57  1  0  0  0  0
 28 58  1  0  0  0  0
M  END
> <s_m_source_file>
AV-unprocessed.smi

> <i_m_source_file_index>
229

> <i_lp_mmshare_version>
43012

> <i_f3d_flags>
0

> <s_epik_input>
W0NIMl0xT1tDSDJdW0NIMl1bQ0BdMTJbQ0gyXU4oW0NIMl1bQ0BIXShPMilbQ0gyXVtDSDNdKWMobltjSF1uMyljKGMzNCluW2NIXW40W0NIMl1bQ0BIXShbT0hdKVtDQEBIXTVbQ0gyXVtDSDJdW0NIMl1PNQ==

> <s_epik_cmdline>
J2VwaWtfcHl0aG9uJywgJy1waCcsICc3LjAnLCAnLXRuJywgJzgnLCAnLW1hJywgJzIwMCcsICctbWV0YWxfYmluZGluZycsICctaW1hZScsICc8aW5maWxlLm1hZT4nLCAnLW9tYWUnLCAnPG91dGZpbGUubWFlPic=

> <r_lp_tautomer_probability>
1

> <r_epik_Ionization_Penalty>
0.00318402

> <r_epik_Ionization_Penalty_Charging>
0

> <r_epik_Ionization_Penalty_Neutral>
0.00318402

> <r_epik_State_Penalty>
0.00215642

> <r_epik_Charging_Adjusted_Penalty>
0.00215642

> <i_epik_Tot_Q>
0

> <i_epik_Tot_abs_Q>
0

> <r_epik_Metal_State_Penalty>
-0

> <b_epik_Metal_Only>
0

> <s_lp_Force_Field>
OPLS_2005

> <r_lp_Energy>
54.6587

> <b_lp_Chiralities_Consistent>
1

> <s_lp_Variant>
AV-unprocessed.smi:229-3

> <Gold.Version>
5.8.1

> <Gold.Id.Protein>
6NUR|6NUR_protein|mol2

> <Gold.PLP.Fitness>
45.3747

> <Gold.PLP.PLP>
-41.5207

> <Gold.PLP.part.hbond>
-2.0000

> <Gold.PLP.part.metal>
0.0000

> <Gold.PLP.part.buried>
-8.2582

> <Gold.PLP.part.nonpolar>
-31.9413

> <Gold.PLP.part.repulsive>
0.3979

> <Gold.PLP.ligand.clash>
0.0000

> <Gold.PLP.ligand.torsion>
1.2573

> <Gold.PLP.Chemscore.Hbond>
2.0000

> <Gold.PLP.Chemscore.CHOScore>
0.0000

> <Gold.PLP.Chemscore.Metal>
0.0000

> <Gold.Chemscore.Hbonds>
donor molecule, donor type, donor heavy atom, donor atom, acceptor molecule, acceptor atom, score
      P1  H  7997  8008       L1     9  1.00
      P1  H 10752 10765       L1     7  0.95

> <Gold.PLP.Chemscore.Internal.Correction>
0.3686

> <Gold.Rescore>
     Score         DG    S(hbond)    S(metal)    S(lipo)     H(rot)  DE(clash)    DE(int)     intcor
     14.59     -16.11       1.54        0.00     100.75       2.46       0.14       1.38       ----

> <Gold.Chemscore.Fitness>
14.5878

> <Gold.Chemscore.DG>
-16.1067

> <Gold.Chemscore.ZeroCoef>
-5.4800

> <Gold.Chemscore.Hbond>
1.5373

> <Gold.Chemscore.Metal>
0.0000

> <Gold.Chemscore.Lipo>
100.7461

> <Gold.Chemscore.Internal_Hbond>
0.0000

> <Gold.Chemscore.DEClash>
0.1410

> <Gold.Chemscore.DEInternal>
1.3778

> <Gold.Chemscore.Rot>
2.4591

> <Gold.Chemscore.Internal.Correction>
   9.000000E+99

> <Gold.Chemscore.Hbonds>
donor molecule, donor type, donor heavy atom, donor atom, acceptor molecule, acceptor atom, score
      P1  H  7997  8008       L1     9  0.91
      P1  H 10752 10765       L1     7  0.20

> <Gold.Chemscore.Hbond.Weighted>
-5.1347

> <Gold.Chemscore.Metal.Weighted>
-0.0000

> <Gold.Chemscore.Lipo.Weighted>
-11.7873

> <Gold.Chemscore.Internal_Hbond.Weighted>
0.0000

> <Gold.Chemscore.DEClash.Weighted>
0.1410

> <Gold.Chemscore.DEInternal.Weighted>
1.3778

> <Gold.Chemscore.Rot.Weighted>
6.2953

> <Gold.Chemscore.Internal.Correction.Weighted>
   9.000000E+99

> <Gold.Protein.RotatedTorsions>
[ 6907 6896 6895 6894 ] final -104.89 input  -60.11 | X-H torsion
[ 7974 7965 7964 7962 ] final  146.39 input  175.53 | X-H torsion
[ 8008 7997 7996 7995 ] final  -26.27 input   59.86 | X-H torsion
[ 10167 10162 10161 10158 ] final   17.03 input  -65.29 | X-H torsion
[ 10718 10713 10712 10709 ] final   75.28 input   66.30 | X-H torsion
[ 10763 10752 10751 10750 ] final  162.88 input  -60.55 | X-H torsion
[ 11005 11000 10999 10996 ] final  -69.47 input  -57.11 | X-H torsion

> <Gold.Protein.ActiveResidues>
 VAL166  LYS551  ARG553  GLY616  TRP617  ASP618  TYR619  PRO620  LYS621  CYS622 
 ASP623  PHE694  ASN695  SER759  ASP760  ASP761  ALA762  ILE779  LEU786  VAL792 
 PHE793  MET794  SER795  GLU796  ALA797  LYS798  CYS799  TRP800  GLU811  SER814 

> <Gold.Protein.RotatedAtoms>
  150.7309  134.0209  159.3700 H   0  0  0  0  0  0  0  0  0  0  0  0  # atno 6907 bound_to 6896
  151.8173  135.0660  160.0430 H   0  0  0  0  0  0  0  0  0  0  0  0  # atno 6908 bound_to 6896
  152.3029  133.5637  159.5666 H   0  0  0  0  0  0  0  0  0  0  0  0  # atno 6909 bound_to 6896
  144.8675  139.5900  143.5902 H   0  0  0  0  0  0  0  0  0  0  0  0  # atno 7974 bound_to 7965
  154.4433  140.1904  156.0749 H   0  0  0  0  0  0  0  0  0  0  0  0  # atno 8008 bound_to 7997
  156.0483  140.3311  155.7294 H   0  0  0  0  0  0  0  0  0  0  0  0  # atno 8009 bound_to 7997
  155.5596  140.0602  157.2822 H   0  0  0  0  0  0  0  0  0  0  0  0  # atno 8010 bound_to 7997
  140.5755  143.9080  150.6747 H   0  0  0  0  0  0  0  0  0  0  0  0  # atno 10167 bound_to 10162
  157.6627  130.9719  150.1331 H   0  0  0  0  0  0  0  0  0  0  0  0  # atno 10718 bound_to 10713
  154.2852  135.2762  155.2679 H   0  0  0  0  0  0  0  0  0  0  0  0  # atno 10763 bound_to 10752
  154.5183  135.5763  153.6663 H   0  0  0  0  0  0  0  0  0  0  0  0  # atno 10764 bound_to 10752
  152.9923  135.6198  154.3013 H   0  0  0  0  0  0  0  0  0  0  0  0  # atno 10765 bound_to 10752
  141.1554  133.6765  156.6605 H   0  0  0  0  0  0  0  0  0  0  0  0  # atno 11005 bound_to 11000
  146.2906  139.7128  142.9164 LP  0  0  0  0  0  0  0  0  0  0  0  0  # atno 17320 bound_to 7965
  145.4194  141.0405  143.2972 LP  0  0  0  0  0  0  0  0  0  0  0  0  # atno 17321 bound_to 7965
  140.2566  143.3554  152.1359 LP  0  0  0  0  0  0  0  0  0  0  0  0  # atno 17342 bound_to 10162
  139.5140  144.6942  151.5677 LP  0  0  0  0  0  0  0  0  0  0  0  0  # atno 17343 bound_to 10162
  156.2173  130.3671  149.8598 LP  0  0  0  0  0  0  0  0  0  0  0  0  # atno 17370 bound_to 10713
  156.6461  130.8724  151.3523 LP  0  0  0  0  0  0  0  0  0  0  0  0  # atno 17371 bound_to 10713
  140.3251  134.7975  157.4283 LP  0  0  0  0  0  0  0  0  0  0  0  0  # atno 17394 bound_to 11000
  140.1064  134.5404  155.8306 LP  0  0  0  0  0  0  0  0  0  0  0  0  # atno 17395 bound_to 11000

$$$$
