AV-unprocessed.smi:837|AV-procd|sdf|3900|dock10
  -GOLD-   22720 1363D 1   1.00000     0.00000
 Structure written by MMmdl.
 48 50  0  0  0  0  0  0  0  0  2 V2000
  145.5627  134.7558  159.0449 C   0  0  0  0  0  0  0  0  0  0  0  0
  146.5215  134.9132  160.2454 C   0  0  2  0  0  0  0  0  0  0  0  0
  145.7310  135.0949  161.5593 C   0  0  0  0  0  0  0  0  0  0  0  0
  146.6588  135.1357  162.7827 C   0  0  0  0  0  0  0  0  0  0  0  0
  147.7157  136.2389  162.6413 C   0  0  0  0  0  0  0  0  0  0  0  0
  148.5202  136.0786  161.3393 C   0  0  0  0  0  0  0  0  0  0  0  0
  147.6152  136.0190  160.0810 C   0  0  2  0  0  0  0  0  0  0  0  0
  147.0286  137.3248  159.8229 N   0  5  0  0  0  0  0  0  0  0  0  0
  147.4729  137.7781  158.6281 C   0  0  0  0  0  0  0  0  0  0  0  0
  147.1746  138.8434  158.0891 O   0  0  0  0  0  0  0  0  0  0  0  0
  148.3160  136.8959  158.0584 N   0  0  0  0  0  0  0  0  0  0  0  0
  148.9524  137.0732  156.7464 C   0  0  0  0  0  0  0  0  0  0  0  0
  149.9170  138.2659  156.7106 C   0  0  0  0  0  0  0  0  0  0  0  0
  151.1266  138.0932  156.5551 O   0  0  0  0  0  0  0  0  0  0  0  0
  149.3652  139.4761  156.8848 N   0  0  0  0  0  0  0  0  0  0  0  0
  150.0998  140.7370  156.9015 C   0  0  0  0  0  0  0  0  0  0  0  0
  151.1497  140.7911  158.0269 C   0  0  0  0  0  0  0  0  0  0  0  0
  151.5335  142.2068  158.4213 C   0  0  0  0  0  0  0  0  0  0  0  0
  152.4137  142.4484  159.4965 C   0  0  0  0  0  0  0  0  0  0  0  0
  152.7318  143.7801  159.8259 C   0  0  0  0  0  0  0  0  0  0  0  0
  152.1541  144.8158  159.0647 C   0  0  0  0  0  0  0  0  0  0  0  0
  151.3098  144.5961  158.0338 N   0  0  0  0  0  0  0  0  0  0  0  0
  151.0115  143.3164  157.7231 C   0  0  0  0  0  0  0  0  0  0  0  0
  148.4659  135.8168  158.8345 C   0  0  0  0  0  0  0  0  0  0  0  0
  149.1525  134.8190  158.6090 O   0  0  0  0  0  0  0  0  0  0  0  0
  144.9819  135.6622  158.8725 H   0  0  0  0  0  0  0  0  0  0  0  0
  144.8562  133.9438  159.2171 H   0  0  0  0  0  0  0  0  0  0  0  0
  146.0972  134.5227  158.1241 H   0  0  0  0  0  0  0  0  0  0  0  0
  147.0465  133.9605  160.3354 H   0  0  0  0  0  0  0  0  0  0  0  0
  145.1428  136.0126  161.5150 H   0  0  0  0  0  0  0  0  0  0  0  0
  145.0157  134.2807  161.6787 H   0  0  0  0  0  0  0  0  0  0  0  0
  146.0723  135.2979  163.6872 H   0  0  0  0  0  0  0  0  0  0  0  0
  147.1510  134.1697  162.9012 H   0  0  0  0  0  0  0  0  0  0  0  0
  147.2303  137.2154  162.6574 H   0  0  0  0  0  0  0  0  0  0  0  0
  148.3901  136.2181  163.4975 H   0  0  0  0  0  0  0  0  0  0  0  0
  149.2446  136.8909  161.2561 H   0  0  0  0  0  0  0  0  0  0  0  0
  149.1076  135.1615  161.4088 H   0  0  0  0  0  0  0  0  0  0  0  0
  149.4805  136.1588  156.4701 H   0  0  0  0  0  0  0  0  0  0  0  0
  148.1969  137.2222  155.9735 H   0  0  0  0  0  0  0  0  0  0  0  0
  148.3650  139.5270  157.0127 H   0  0  0  0  0  0  0  0  0  0  0  0
  150.5716  140.9133  155.9337 H   0  0  0  0  0  0  0  0  0  0  0  0
  149.3747  141.5394  157.0388 H   0  0  0  0  0  0  0  0  0  0  0  0
  150.7764  140.2641  158.9062 H   0  0  0  0  0  0  0  0  0  0  0  0
  152.0484  140.2579  157.7153 H   0  0  0  0  0  0  0  0  0  0  0  0
  152.8350  141.6299  160.0619 H   0  0  0  0  0  0  0  0  0  0  0  0
  153.4013  144.0029  160.6435 H   0  0  0  0  0  0  0  0  0  0  0  0
  152.3750  145.8483  159.2910 H   0  0  0  0  0  0  0  0  0  0  0  0
  150.3322  143.1734  156.8957 H   0  0  0  0  0  0  0  0  0  0  0  0
  1  2  1  0  0  0  0
  1 26  1  0  0  0  0
  1 27  1  0  0  0  0
  1 28  1  0  0  0  0
  2  7  1  0  0  0  0
  2  3  1  0  0  0  0
  2 29  1  0  0  0  0
  3  4  1  0  0  0  0
  3 30  1  0  0  0  0
  3 31  1  0  0  0  0
  4  5  1  0  0  0  0
  4 32  1  0  0  0  0
  4 33  1  0  0  0  0
  5  6  1  0  0  0  0
  5 34  1  0  0  0  0
  5 35  1  0  0  0  0
  6  7  1  0  0  0  0
  6 36  1  0  0  0  0
  6 37  1  0  0  0  0
  7 24  1  0  0  0  0
  7  8  1  0  0  0  0
  8  9  1  0  0  0  0
  9 10  2  0  0  0  0
  9 11  1  0  0  0  0
 11 12  1  0  0  0  0
 11 24  1  0  0  0  0
 12 13  1  0  0  0  0
 12 38  1  0  0  0  0
 12 39  1  0  0  0  0
 13 14  2  0  0  0  0
 13 15  1  0  0  0  0
 15 16  1  0  0  0  0
 15 40  1  0  0  0  0
 16 17  1  0  0  0  0
 16 41  1  0  0  0  0
 16 42  1  0  0  0  0
 17 18  1  0  0  0  0
 17 43  1  0  0  0  0
 17 44  1  0  0  0  0
 18 23  1  0  0  0  0
 18 19  2  0  0  0  0
 19 20  1  0  0  0  0
 19 45  1  0  0  0  0
 20 21  2  0  0  0  0
 20 46  1  0  0  0  0
 21 22  1  0  0  0  0
 21 47  1  0  0  0  0
 22 23  2  0  0  0  0
 23 48  1  0  0  0  0
 24 25  2  0  0  0  0
M  CHG  1   8  -1
M  END
> <s_m_source_file>
AV-unprocessed.smi

> <i_m_source_file_index>
837

> <i_lp_mmshare_version>
43012

> <i_f3d_flags>
0

> <s_epik_input>
W0NIMl0xW0NIMl1bQ0gyXVtDSDJdW0NAQEhdKFtDSDNdKVtDQEBdMTJbTkhdQyg9TylOKEMyPU8pW0NIMl1DKD1PKVtOSF1bQ0gyXVtDSDJdYzNbY0hdW2NIXVtjSF1uW2NIXTM=

> <s_epik_cmdline>
J2VwaWtfcHl0aG9uJywgJy1waCcsICc3LjAnLCAnLXRuJywgJzgnLCAnLW1hJywgJzIwMCcsICctbWV0YWxfYmluZGluZycsICctaW1hZScsICc8aW5maWxlLm1hZT4nLCAnLW9tYWUnLCAnPG91dGZpbGUubWFlPic=

> <r_lp_tautomer_probability>
1

> <r_epik_Ionization_Penalty>
6.03002

> <r_epik_Ionization_Penalty_Charging>
6.01728

> <r_epik_Ionization_Penalty_Neutral>
0.0127382

> <r_epik_State_Penalty>
6.02713

> <r_epik_Charging_Adjusted_Penalty>
12.0444

> <i_epik_Tot_Q>
-1

> <i_epik_Tot_abs_Q>
1

> <r_epik_Metal_State_Penalty>
1.99078

> <b_epik_Metal_Only>
1

> <s_lp_Force_Field>
OPLS_2005

> <r_lp_Energy>
20.4671

> <b_lp_Chiralities_Consistent>
1

> <s_lp_Variant>
AV-unprocessed.smi:837-9

> <Gold.Version>
5.8.1

> <Gold.Id.Protein>
6NUR|6NUR_protein|mol2

> <Gold.PLP.Fitness>
48.9205

> <Gold.PLP.PLP>
-37.2473

> <Gold.PLP.part.hbond>
-2.5660

> <Gold.PLP.part.metal>
0.0000

> <Gold.PLP.part.buried>
-4.6960

> <Gold.PLP.part.nonpolar>
-30.4663

> <Gold.PLP.part.repulsive>
0.1667

> <Gold.PLP.ligand.clash>
0.0000

> <Gold.PLP.ligand.torsion>
0.1742

> <Gold.PLP.Chemscore.Hbond>
3.0000

> <Gold.PLP.Chemscore.CHOScore>
1.0000

> <Gold.PLP.Chemscore.Metal>
0.0000

> <Gold.Chemscore.Hbonds>
donor molecule, donor type, donor heavy atom, donor atom, acceptor molecule, acceptor atom, score
      P1  H  6896  6907       L1    25  1.00
      P1  H  6934  6947       L1     8  1.90
      L1  C    23    48       P1  8028  1.00

> <Gold.PLP.Chemscore.Internal.Correction>
0.0215

> <Gold.Rescore>
     Score         DG    S(hbond)    S(metal)    S(lipo)     H(rot)  DE(clash)    DE(int)     intcor
     18.79     -19.37       1.66        0.00     111.08       1.81       0.38       0.20       ----

> <Gold.Chemscore.Fitness>
18.7904

> <Gold.Chemscore.DG>
-19.3744

> <Gold.Chemscore.ZeroCoef>
-5.4800

> <Gold.Chemscore.Hbond>
1.6553

> <Gold.Chemscore.Metal>
0.0000

> <Gold.Chemscore.Lipo>
111.0816

> <Gold.Chemscore.Internal_Hbond>
0.0000

> <Gold.Chemscore.DEClash>
0.3840

> <Gold.Chemscore.DEInternal>
0.1999

> <Gold.Chemscore.Rot>
1.8090

> <Gold.Chemscore.Internal.Correction>
   9.000000E+99

> <Gold.Chemscore.Hbonds>
donor molecule, donor type, donor heavy atom, donor atom, acceptor molecule, acceptor atom, score
      P1  H  6896  6907       L1    25  1.00
      P1  H  6934  6947       L1     8  0.20

> <Gold.Chemscore.Hbond.Weighted>
-5.5288

> <Gold.Chemscore.Metal.Weighted>
-0.0000

> <Gold.Chemscore.Lipo.Weighted>
-12.9965

> <Gold.Chemscore.Internal_Hbond.Weighted>
0.0000

> <Gold.Chemscore.DEClash.Weighted>
0.3840

> <Gold.Chemscore.DEInternal.Weighted>
0.1999

> <Gold.Chemscore.Rot.Weighted>
4.6310

> <Gold.Chemscore.Internal.Correction.Weighted>
   9.000000E+99

> <Gold.Protein.RotatedTorsions>
[ 6907 6896 6895 6894 ] final  -83.69 input  -60.11 | X-H torsion
[ 7974 7965 7964 7962 ] final   -3.57 input  175.53 | X-H torsion
[ 8008 7997 7996 7995 ] final  169.17 input   59.86 | X-H torsion
[ 10167 10162 10161 10158 ] final -151.98 input  -65.29 | X-H torsion
[ 10718 10713 10712 10709 ] final   84.57 input   66.30 | X-H torsion
[ 10763 10752 10751 10750 ] final -143.97 input  -60.55 | X-H torsion
[ 11005 11000 10999 10996 ] final -108.26 input  -57.11 | X-H torsion

> <Gold.Protein.ActiveResidues>
 VAL166  LYS551  ARG553  GLY616  TRP617  ASP618  TYR619  PRO620  LYS621  CYS622 
 ASP623  PHE694  ASN695  SER759  ASP760  ASP761  ALA762  ILE779  LEU786  VAL792 
 PHE793  MET794  SER795  GLU796  ALA797  LYS798  CYS799  TRP800  GLU811  SER814 

> <Gold.Protein.RotatedAtoms>
  150.6883  134.3473  159.4893 H   0  0  0  0  0  0  0  0  0  0  0  0  # atno 6907 bound_to 6896
  152.1319  134.9126  160.0567 H   0  0  0  0  0  0  0  0  0  0  0  0  # atno 6908 bound_to 6896
  152.0293  133.3896  159.4327 H   0  0  0  0  0  0  0  0  0  0  0  0  # atno 6909 bound_to 6896
  146.2387  140.1740  142.8332 H   0  0  0  0  0  0  0  0  0  0  0  0  # atno 7974 bound_to 7965
  156.1481  140.1571  156.8813 H   0  0  0  0  0  0  0  0  0  0  0  0  # atno 8008 bound_to 7997
  154.5047  140.0816  156.7906 H   0  0  0  0  0  0  0  0  0  0  0  0  # atno 8009 bound_to 7997
  155.3948  140.3411  155.4255 H   0  0  0  0  0  0  0  0  0  0  0  0  # atno 8010 bound_to 7997
  139.7221  143.8941  152.2507 H   0  0  0  0  0  0  0  0  0  0  0  0  # atno 10167 bound_to 10162
  157.6900  131.0139  150.2692 H   0  0  0  0  0  0  0  0  0  0  0  0  # atno 10718 bound_to 10713
  154.8448  135.3453  154.6271 H   0  0  0  0  0  0  0  0  0  0  0  0  # atno 10763 bound_to 10752
  153.6881  135.6976  153.5103 H   0  0  0  0  0  0  0  0  0  0  0  0  # atno 10764 bound_to 10752
  153.2616  135.4321  155.0855 H   0  0  0  0  0  0  0  0  0  0  0  0  # atno 10765 bound_to 10752
  141.0911  133.9053  157.2073 H   0  0  0  0  0  0  0  0  0  0  0  0  # atno 11005 bound_to 11000
  144.9988  140.8613  143.5294 LP  0  0  0  0  0  0  0  0  0  0  0  0  # atno 17320 bound_to 7965
  145.1757  139.2379  143.5319 LP  0  0  0  0  0  0  0  0  0  0  0  0  # atno 17321 bound_to 7965
  139.8840  144.7002  150.8846 LP  0  0  0  0  0  0  0  0  0  0  0  0  # atno 17342 bound_to 10162
  140.7755  143.3639  151.1776 LP  0  0  0  0  0  0  0  0  0  0  0  0  # atno 17343 bound_to 10162
  156.3258  130.3793  149.7534 LP  0  0  0  0  0  0  0  0  0  0  0  0  # atno 17370 bound_to 10713
  156.5090  130.8163  151.3161 LP  0  0  0  0  0  0  0  0  0  0  0  0  # atno 17371 bound_to 10713
  139.9737  135.0120  156.9578 LP  0  0  0  0  0  0  0  0  0  0  0  0  # atno 17394 bound_to 11000
  140.5249  134.0870  155.7301 LP  0  0  0  0  0  0  0  0  0  0  0  0  # atno 17395 bound_to 11000

$$$$
