AV-unprocessed.smi:933|AV-procd|sdf|4201|dock9
  -GOLD-   22720 2103D 1   1.00000     0.00000
 Structure written by MMmdl.
 42 43  0  0  0  0  0  0  0  0  1 V2000
  144.5096  145.0262  156.8552 C   0  0  0  0  0  0  0  0  0  0  0  0
  144.2669  143.5666  156.4566 C   0  0  0  0  0  0  0  0  0  0  0  0
  145.2541  143.0753  155.4513 C   0  0  0  0  0  0  0  0  0  0  0  0
  146.0609  142.0316  155.6605 N   0  0  0  0  0  0  0  0  0  0  0  0
  146.8722  141.7474  154.5574 C   0  0  0  0  0  0  0  0  0  0  0  0
  147.8433  140.6076  154.6174 C   0  0  0  0  0  0  0  0  0  0  0  0
  149.3005  141.0843  154.5532 C   0  0  0  0  0  0  0  0  0  0  0  0
  149.5407  142.1405  155.5331 N   0  0  0  0  0  0  0  0  0  0  0  0
  150.0097  141.9958  156.7842 C   0  0  0  0  0  0  0  0  0  0  0  0
  150.2942  140.8935  157.2488 O   0  0  0  0  0  0  0  0  0  0  0  0
  150.1332  143.1446  157.4699 N   0  0  0  0  0  0  0  0  0  0  0  0
  150.6304  143.2589  158.8381 C   0  0  2  0  0  0  0  0  0  0  0  0
  150.0979  144.5304  159.5324 C   0  0  0  0  0  0  0  0  0  0  0  0
  151.3127  145.4279  159.7742 C   0  0  0  0  0  0  0  0  0  0  0  0
  152.4818  144.4557  159.8899 C   0  0  0  0  0  0  0  0  0  0  0  0
  152.1693  143.3753  158.8510 C   0  0  1  0  0  0  0  0  0  0  0  0
  152.8895  142.0449  159.1103 C   0  0  0  0  0  0  0  0  0  0  0  0
  146.6561  142.5903  153.4957 C   0  0  0  0  0  0  0  0  0  0  0  0
  145.4231  143.7709  153.8436 S   0  0  0  0  0  0  0  0  0  0  0  0
  143.7744  145.3553  157.5898 H   0  0  0  0  0  0  0  0  0  0  0  0
  144.4365  145.6871  155.9908 H   0  0  0  0  0  0  0  0  0  0  0  0
  145.4997  145.1546  157.2932 H   0  0  0  0  0  0  0  0  0  0  0  0
  144.3191  142.9273  157.3384 H   0  0  0  0  0  0  0  0  0  0  0  0
  143.2618  143.4538  156.0484 H   0  0  0  0  0  0  0  0  0  0  0  0
  147.6877  140.0367  155.5338 H   0  0  0  0  0  0  0  0  0  0  0  0
  147.6503  139.9146  153.7973 H   0  0  0  0  0  0  0  0  0  0  0  0
  149.9734  140.2474  154.7477 H   0  0  0  0  0  0  0  0  0  0  0  0
  149.5244  141.4580  153.5528 H   0  0  0  0  0  0  0  0  0  0  0  0
  149.3206  143.0801  155.2358 H   0  0  0  0  0  0  0  0  0  0  0  0
  149.8717  144.0029  157.0072 H   0  0  0  0  0  0  0  0  0  0  0  0
  150.3201  142.3846  159.4142 H   0  0  0  0  0  0  0  0  0  0  0  0
  149.3255  145.0468  158.9608 H   0  0  0  0  0  0  0  0  0  0  0  0
  149.6543  144.2557  160.4903 H   0  0  0  0  0  0  0  0  0  0  0  0
  151.4636  146.0816  158.9140 H   0  0  0  0  0  0  0  0  0  0  0  0
  151.2001  146.0581  160.6567 H   0  0  0  0  0  0  0  0  0  0  0  0
  153.4449  144.9372  159.7176 H   0  0  0  0  0  0  0  0  0  0  0  0
  152.4990  144.0238  160.8917 H   0  0  0  0  0  0  0  0  0  0  0  0
  152.5025  143.7596  157.8848 H   0  0  0  0  0  0  0  0  0  0  0  0
  152.6095  141.6219  160.0756 H   0  0  0  0  0  0  0  0  0  0  0  0
  153.9714  142.1791  159.1061 H   0  0  0  0  0  0  0  0  0  0  0  0
  152.6424  141.3122  158.3412 H   0  0  0  0  0  0  0  0  0  0  0  0
  147.1418  142.5848  152.5312 H   0  0  0  0  0  0  0  0  0  0  0  0
  1  2  1  0  0  0  0
  1 20  1  0  0  0  0
  1 21  1  0  0  0  0
  1 22  1  0  0  0  0
  2  3  1  0  0  0  0
  2 23  1  0  0  0  0
  2 24  1  0  0  0  0
  3 19  1  0  0  0  0
  3  4  2  0  0  0  0
  4  5  1  0  0  0  0
  5  6  1  0  0  0  0
  5 18  2  0  0  0  0
  6  7  1  0  0  0  0
  6 25  1  0  0  0  0
  6 26  1  0  0  0  0
  7  8  1  0  0  0  0
  7 27  1  0  0  0  0
  7 28  1  0  0  0  0
  8  9  1  0  0  0  0
  8 29  1  0  0  0  0
  9 10  2  0  0  0  0
  9 11  1  0  0  0  0
 11 12  1  0  0  0  0
 11 30  1  0  0  0  0
 12 16  1  0  0  0  0
 12 13  1  0  0  0  0
 12 31  1  0  0  0  0
 13 14  1  0  0  0  0
 13 32  1  0  0  0  0
 13 33  1  0  0  0  0
 14 15  1  0  0  0  0
 14 34  1  0  0  0  0
 14 35  1  0  0  0  0
 15 16  1  0  0  0  0
 15 36  1  0  0  0  0
 15 37  1  0  0  0  0
 16 17  1  0  0  0  0
 16 38  1  0  0  0  0
 17 39  1  0  0  0  0
 17 40  1  0  0  0  0
 17 41  1  0  0  0  0
 18 19  1  0  0  0  0
 18 42  1  0  0  0  0
M  END
> <s_m_source_file>
AV-unprocessed.smi

> <i_m_source_file_index>
933

> <i_lp_mmshare_version>
43012

> <i_f3d_flags>
0

> <s_epik_input>
W0NIM11bQ0gyXWMxbmMoW2NIXXMxKVtDSDJdW0NIMl1bTkhdQyg9TylbTkhdW0NAQEhdMltDSDJdW0NIMl1bQ0gyXVtDQEhdMltDSDNd

> <s_epik_cmdline>
J2VwaWtfcHl0aG9uJywgJy1waCcsICc3LjAnLCAnLXRuJywgJzgnLCAnLW1hJywgJzIwMCcsICctbWV0YWxfYmluZGluZycsICctaW1hZScsICc8aW5maWxlLm1hZT4nLCAnLW9tYWUnLCAnPG91dGZpbGUubWFlPic=

> <r_epik_Ionization_Penalty>
0.00203408

> <r_epik_Ionization_Penalty_Charging>
0

> <r_epik_Ionization_Penalty_Neutral>
0.00203408

> <r_epik_State_Penalty>
0.0013452

> <r_epik_Charging_Adjusted_Penalty>
0.0013452

> <i_epik_Tot_Q>
0

> <i_epik_Tot_abs_Q>
0

> <r_epik_Metal_State_Penalty>
-0

> <b_epik_Metal_Only>
0

> <s_lp_Force_Field>
OPLS_2005

> <r_lp_Energy>
18.2024

> <b_lp_Chiralities_Consistent>
1

> <s_lp_Variant>
AV-unprocessed.smi:933-1

> <Gold.Version>
5.8.1

> <Gold.Id.Protein>
6NUR|6NUR_protein|mol2

> <Gold.PLP.Fitness>
44.0613

> <Gold.PLP.PLP>
-39.4552

> <Gold.PLP.part.hbond>
-2.0000

> <Gold.PLP.part.metal>
0.0000

> <Gold.PLP.part.buried>
-7.0914

> <Gold.PLP.part.nonpolar>
-30.7391

> <Gold.PLP.part.repulsive>
0.3371

> <Gold.PLP.ligand.clash>
0.0000

> <Gold.PLP.ligand.torsion>
0.5945

> <Gold.PLP.Chemscore.Hbond>
1.9280

> <Gold.PLP.Chemscore.CHOScore>
0.0000

> <Gold.PLP.Chemscore.Metal>
0.0000

> <Gold.Chemscore.Hbonds>
donor molecule, donor type, donor heavy atom, donor atom, acceptor molecule, acceptor atom, score
      L1  H     8    29       P1  8028  0.99
      L1  H    11    30       P1  8028  0.93

> <Gold.PLP.Chemscore.Internal.Correction>
0.0112

> <Gold.Rescore>
     Score         DG    S(hbond)    S(metal)    S(lipo)     H(rot)  DE(clash)    DE(int)     intcor
     18.57     -19.27       1.80        0.00     100.22       1.55       0.05       0.65       ----

> <Gold.Chemscore.Fitness>
18.5682

> <Gold.Chemscore.DG>
-19.2658

> <Gold.Chemscore.ZeroCoef>
-5.4800

> <Gold.Chemscore.Hbond>
1.8034

> <Gold.Chemscore.Metal>
0.0000

> <Gold.Chemscore.Lipo>
100.2206

> <Gold.Chemscore.Internal_Hbond>
0.0000

> <Gold.Chemscore.DEClash>
0.0478

> <Gold.Chemscore.DEInternal>
0.6497

> <Gold.Chemscore.Rot>
1.5482

> <Gold.Chemscore.Internal.Correction>
   9.000000E+99

> <Gold.Chemscore.Hbonds>
donor molecule, donor type, donor heavy atom, donor atom, acceptor molecule, acceptor atom, score
      L1  H     8    29       P1  8028  0.94
      L1  H    11    30       P1  8028  0.79

> <Gold.Chemscore.Hbond.Weighted>
-6.0235

> <Gold.Chemscore.Metal.Weighted>
-0.0000

> <Gold.Chemscore.Lipo.Weighted>
-11.7258

> <Gold.Chemscore.Internal_Hbond.Weighted>
0.0000

> <Gold.Chemscore.DEClash.Weighted>
0.0478

> <Gold.Chemscore.DEInternal.Weighted>
0.6497

> <Gold.Chemscore.Rot.Weighted>
3.9635

> <Gold.Chemscore.Internal.Correction.Weighted>
   9.000000E+99

> <Gold.Protein.RotatedTorsions>
[ 6907 6896 6895 6894 ] final -147.93 input  -60.11 | X-H torsion
[ 7974 7965 7964 7962 ] final  165.24 input  175.53 | X-H torsion
[ 8008 7997 7996 7995 ] final   12.91 input   59.86 | X-H torsion
[ 10167 10162 10161 10158 ] final -165.03 input  -65.29 | X-H torsion
[ 10718 10713 10712 10709 ] final   49.40 input   66.30 | X-H torsion
[ 10763 10752 10751 10750 ] final -126.75 input  -60.55 | X-H torsion
[ 11005 11000 10999 10996 ] final  127.81 input  -57.11 | X-H torsion

> <Gold.Protein.ActiveResidues>
 VAL166  LYS551  ARG553  GLY616  TRP617  ASP618  TYR619  PRO620  LYS621  CYS622 
 ASP623  PHE694  ASN695  SER759  ASP760  ASP761  ALA762  ILE779  LEU786  VAL792 
 PHE793  MET794  SER795  GLU796  ALA797  LYS798  CYS799  TRP800  GLU811  SER814 

> <Gold.Protein.RotatedAtoms>
  151.1626  133.4835  159.2593 H   0  0  0  0  0  0  0  0  0  0  0  0  # atno 6907 bound_to 6896
  151.1438  135.0193  159.8648 H   0  0  0  0  0  0  0  0  0  0  0  0  # atno 6908 bound_to 6896
  152.5463  134.1517  159.8574 H   0  0  0  0  0  0  0  0  0  0  0  0  # atno 6909 bound_to 6896
  144.7511  139.8442  143.6366 H   0  0  0  0  0  0  0  0  0  0  0  0  # atno 7974 bound_to 7965
  154.8271  140.2893  155.5747 H   0  0  0  0  0  0  0  0  0  0  0  0  # atno 8008 bound_to 7997
  156.3002  140.2539  156.3120 H   0  0  0  0  0  0  0  0  0  0  0  0  # atno 8009 bound_to 7997
  154.9273  140.0384  157.2019 H   0  0  0  0  0  0  0  0  0  0  0  0  # atno 8010 bound_to 7997
  139.6210  144.0625  152.1932 H   0  0  0  0  0  0  0  0  0  0  0  0  # atno 10167 bound_to 10162
  157.4783  130.8299  149.8065 H   0  0  0  0  0  0  0  0  0  0  0  0  # atno 10718 bound_to 10713
  154.8748  135.3985  154.3481 H   0  0  0  0  0  0  0  0  0  0  0  0  # atno 10763 bound_to 10752
  153.4271  135.7024  153.6261 H   0  0  0  0  0  0  0  0  0  0  0  0  # atno 10764 bound_to 10752
  153.4898  135.3750  155.2456 H   0  0  0  0  0  0  0  0  0  0  0  0  # atno 10765 bound_to 10752
  139.9527  134.9619  156.8909 H   0  0  0  0  0  0  0  0  0  0  0  0  # atno 11005 bound_to 11000
  146.1461  139.4531  143.0078 LP  0  0  0  0  0  0  0  0  0  0  0  0  # atno 17320 bound_to 7965
  145.6942  141.0155  143.1539 LP  0  0  0  0  0  0  0  0  0  0  0  0  # atno 17321 bound_to 7965
  140.0267  144.6112  150.7521 LP  0  0  0  0  0  0  0  0  0  0  0  0  # atno 17342 bound_to 10162
  140.7381  143.2775  151.3699 LP  0  0  0  0  0  0  0  0  0  0  0  0  # atno 17343 bound_to 10162
  156.0108  130.3834  150.2271 LP  0  0  0  0  0  0  0  0  0  0  0  0  # atno 17370 bound_to 10713
  157.0456  131.0048  151.3270 LP  0  0  0  0  0  0  0  0  0  0  0  0  # atno 17371 bound_to 10713
  140.5681  134.0469  155.7421 LP  0  0  0  0  0  0  0  0  0  0  0  0  # atno 17394 bound_to 11000
  141.1193  133.9488  157.2761 LP  0  0  0  0  0  0  0  0  0  0  0  0  # atno 17395 bound_to 11000

$$$$
