AV-unprocessed.smi:497|AV-procd|sdf|2727|dock8
  -GOLD-   2262023173D 1   1.00000     0.00000
 Structure written by MMmdl.
 39 41  0  0  0  0  0  0  0  0  3 V2000
  152.1794  139.3714  155.5411 C   0  0  0  0  0  0  0  0  0  0  0  0
  151.2386  140.0817  154.7559 O   0  0  0  0  0  0  0  0  0  0  0  0
  149.9039  139.8672  155.1844 C   0  0  0  0  0  0  0  0  0  0  0  0
  149.5658  140.7859  156.3705 C   0  0  0  0  0  0  0  0  0  0  0  0
  150.4507  140.5639  157.5349 N   0  0  0  0  0  0  0  0  0  0  0  0
  150.7314  139.4345  158.2652 C   0  0  0  0  0  0  0  0  0  0  0  0
  150.2055  138.0394  158.0824 C   0  0  0  0  0  0  0  0  0  0  0  0
  149.3910  137.6322  159.2222 N   0  5  0  0  0  0  0  0  0  0  0  0
  148.9528  136.3600  159.4368 C   0  0  0  0  0  0  0  0  0  0  0  0
  149.0979  135.3477  158.7435 O   0  0  0  0  0  0  0  0  0  0  0  0
  148.1764  136.2388  160.6932 C   0  0  0  0  0  0  0  0  0  0  0  0
  147.7132  135.1224  161.3372 C   0  0  0  0  0  0  0  0  0  0  0  0
  147.0121  135.5729  162.4900 C   0  0  0  0  0  0  0  0  0  0  0  0
  147.0954  136.9351  162.4714 C   0  0  0  0  0  0  0  0  0  0  0  0
  147.7990  137.3573  161.3867 O   0  0  0  0  0  0  0  0  0  0  0  0
  151.6063  139.8004  159.2440 N   0  3  0  0  0  0  0  0  0  0  0  0
  151.8945  141.1606  159.1467 C   0  0  0  0  0  0  0  0  0  0  0  0
  152.7228  141.9717  159.9163 C   0  0  0  0  0  0  0  0  0  0  0  0
  152.7936  143.3318  159.5510 C   0  0  0  0  0  0  0  0  0  0  0  0
  152.0578  143.8369  158.4598 C   0  0  0  0  0  0  0  0  0  0  0  0
  151.2219  143.0037  157.6877 C   0  0  0  0  0  0  0  0  0  0  0  0
  151.1577  141.6584  158.0532 C   0  0  0  0  0  0  0  0  0  0  0  0
  153.1858  139.5673  155.1720 H   0  0  0  0  0  0  0  0  0  0  0  0
  152.0054  138.2959  155.4878 H   0  0  0  0  0  0  0  0  0  0  0  0
  152.1362  139.6823  156.5855 H   0  0  0  0  0  0  0  0  0  0  0  0
  149.2197  140.0589  154.3582 H   0  0  0  0  0  0  0  0  0  0  0  0
  149.7714  138.8243  155.4752 H   0  0  0  0  0  0  0  0  0  0  0  0
  149.6539  141.8292  156.0673 H   0  0  0  0  0  0  0  0  0  0  0  0
  148.5290  140.6555  156.6793 H   0  0  0  0  0  0  0  0  0  0  0  0
  149.6627  138.0142  157.1366 H   0  0  0  0  0  0  0  0  0  0  0  0
  151.0550  137.3691  157.9462 H   0  0  0  0  0  0  0  0  0  0  0  0
  147.8589  134.1024  161.0136 H   0  0  0  0  0  0  0  0  0  0  0  0
  146.5097  134.9760  163.2364 H   0  0  0  0  0  0  0  0  0  0  0  0
  146.7296  137.7193  163.1174 H   0  0  0  0  0  0  0  0  0  0  0  0
  153.2846  141.5854  160.7539 H   0  0  0  0  0  0  0  0  0  0  0  0
  153.4227  144.0008  160.1199 H   0  0  0  0  0  0  0  0  0  0  0  0
  152.1339  144.8852  158.2103 H   0  0  0  0  0  0  0  0  0  0  0  0
  150.6570  143.4041  156.8592 H   0  0  0  0  0  0  0  0  0  0  0  0
  151.9698  139.1549  159.9328 H   0  0  0  0  0  0  0  0  0  0  0  0
  1  2  1  0  0  0  0
  1 23  1  0  0  0  0
  1 24  1  0  0  0  0
  1 25  1  0  0  0  0
  2  3  1  0  0  0  0
  3  4  1  0  0  0  0
  3 26  1  0  0  0  0
  3 27  1  0  0  0  0
  4  5  1  0  0  0  0
  4 28  1  0  0  0  0
  4 29  1  0  0  0  0
  5 22  1  0  0  0  0
  5  6  1  0  0  0  0
  6  7  1  0  0  0  0
  6 16  2  0  0  0  0
  7  8  1  0  0  0  0
  7 30  1  0  0  0  0
  7 31  1  0  0  0  0
  8  9  1  0  0  0  0
  9 10  2  0  0  0  0
  9 11  1  0  0  0  0
 11 15  1  0  0  0  0
 11 12  2  0  0  0  0
 12 13  1  0  0  0  0
 12 32  1  0  0  0  0
 13 14  2  0  0  0  0
 13 33  1  0  0  0  0
 14 15  1  0  0  0  0
 14 34  1  0  0  0  0
 16 17  1  0  0  0  0
 16 39  1  0  0  0  0
 17 22  2  0  0  0  0
 17 18  1  0  0  0  0
 18 19  2  0  0  0  0
 18 35  1  0  0  0  0
 19 20  1  0  0  0  0
 19 36  1  0  0  0  0
 20 21  2  0  0  0  0
 20 37  1  0  0  0  0
 21 22  1  0  0  0  0
 21 38  1  0  0  0  0
M  CHG  1   8  -1
M  CHG  1  16   1
M  END
> <s_m_source_file>
AV-unprocessed.smi

> <i_m_source_file_index>
497

> <i_lp_mmshare_version>
43012

> <i_f3d_flags>
0

> <s_epik_input>
W2NIXTFbY0hdW2NIXVtjSF1jKGMxMiluKFtDSDJdW0NIMl1PW0NIM10pYyhuMilbQ0gyXVtOSF1DKD1PKWMzW2NIXVtjSF1bY0hdbzM=

> <s_epik_cmdline>
J2VwaWtfcHl0aG9uJywgJy1waCcsICc3LjAnLCAnLXRuJywgJzgnLCAnLW1hJywgJzIwMCcsICctbWV0YWxfYmluZGluZycsICctaW1hZScsICc8aW5maWxlLm1hZT4nLCAnLW9tYWUnLCAnPG91dGZpbGUubWFlPic=

> <r_epik_Ionization_Penalty>
6.0511

> <r_epik_Ionization_Penalty_Charging>
6.0511

> <r_epik_Ionization_Penalty_Neutral>
2.61117e-12

> <r_epik_State_Penalty>
7.24158

> <r_epik_Charging_Adjusted_Penalty>
13.2927

> <i_epik_Tot_Q>
0

> <i_epik_Tot_abs_Q>
2

> <r_epik_Metal_State_Penalty>
3.25464

> <b_epik_Metal_Only>
1

> <s_lp_Force_Field>
OPLS_2005

> <r_lp_Energy>
9.23096

> <b_lp_Chiralities_Consistent>
1

> <s_lp_Variant>
AV-unprocessed.smi:497-4

> <Gold.Version>
5.8.1

> <Gold.Id.Protein>
6NUR|6NUR_protein|mol2

> <Gold.PLP.Fitness>
57.7683

> <Gold.PLP.PLP>
-47.0947

> <Gold.PLP.part.hbond>
-4.4654

> <Gold.PLP.part.metal>
0.0000

> <Gold.PLP.part.buried>
-5.2919

> <Gold.PLP.part.nonpolar>
-38.2409

> <Gold.PLP.part.repulsive>
0.2504

> <Gold.PLP.ligand.clash>
0.0000

> <Gold.PLP.ligand.torsion>
0.2497

> <Gold.PLP.Chemscore.Hbond>
3.6800

> <Gold.PLP.Chemscore.CHOScore>
0.0000

> <Gold.PLP.Chemscore.Metal>
0.0000

> <Gold.Chemscore.Hbonds>
donor molecule, donor type, donor heavy atom, donor atom, acceptor molecule, acceptor atom, score
      P1  H  6896  6908       L1    10  1.00
      P1  H  6931  6943       L1    15  0.93
      P1  H  6934  6947       L1    15  0.72
      P1  H  7989  7998       L1     2  1.00

> <Gold.PLP.Chemscore.Internal.Correction>
0.1331

> <Gold.Rescore>
     Score         DG    S(hbond)    S(metal)    S(lipo)     H(rot)  DE(clash)    DE(int)     intcor
     23.60     -24.02       3.07        0.00     112.09       1.89       0.06       0.36       ----

> <Gold.Chemscore.Fitness>
23.6012

> <Gold.Chemscore.DG>
-24.0182

> <Gold.Chemscore.ZeroCoef>
-5.4800

> <Gold.Chemscore.Hbond>
3.0719

> <Gold.Chemscore.Metal>
0.0000

> <Gold.Chemscore.Lipo>
112.0893

> <Gold.Chemscore.Internal_Hbond>
0.0000

> <Gold.Chemscore.DEClash>
0.0595

> <Gold.Chemscore.DEInternal>
0.3576

> <Gold.Chemscore.Rot>
1.8892

> <Gold.Chemscore.Internal.Correction>
   9.000000E+99

> <Gold.Chemscore.Hbonds>
donor molecule, donor type, donor heavy atom, donor atom, acceptor molecule, acceptor atom, score
      P1  H  6896  6908       L1    10  0.69
      P1  H  6931  6943       L1    15  0.52
      P1  H  6934  6947       L1    15  0.47
      P1  H  7989  7998       L1     2  0.92

> <Gold.Chemscore.Hbond.Weighted>
-10.2600

> <Gold.Chemscore.Metal.Weighted>
-0.0000

> <Gold.Chemscore.Lipo.Weighted>
-13.1144

> <Gold.Chemscore.Internal_Hbond.Weighted>
0.0000

> <Gold.Chemscore.DEClash.Weighted>
0.0595

> <Gold.Chemscore.DEInternal.Weighted>
0.3576

> <Gold.Chemscore.Rot.Weighted>
4.8363

> <Gold.Chemscore.Internal.Correction.Weighted>
   9.000000E+99

> <Gold.Protein.RotatedTorsions>
[ 6907 6896 6895 6894 ] final  147.74 input  -60.11 | X-H torsion
[ 7974 7965 7964 7962 ] final   34.31 input  175.53 | X-H torsion
[ 8008 7997 7996 7995 ] final   13.79 input   59.86 | X-H torsion
[ 10167 10162 10161 10158 ] final   57.82 input  -65.29 | X-H torsion
[ 10718 10713 10712 10709 ] final -156.18 input   66.30 | X-H torsion
[ 10763 10752 10751 10750 ] final   68.56 input  -60.55 | X-H torsion
[ 11005 11000 10999 10996 ] final  154.94 input  -57.11 | X-H torsion

> <Gold.Protein.ActiveResidues>
 VAL166  LYS551  ARG553  GLY616  TRP617  ASP618  TYR619  PRO620  LYS621  CYS622 
 ASP623  PHE694  ASN695  SER759  ASP760  ASP761  ALA762  ILE779  LEU786  VAL792 
 PHE793  MET794  SER795  GLU796  ALA797  LYS798  CYS799  TRP800  GLU811  SER814 

> <Gold.Protein.RotatedAtoms>
  152.1507  133.4520  159.4812 H   0  0  0  0  0  0  0  0  0  0  0  0  # atno 6907 bound_to 6896
  150.6895  134.2192  159.4399 H   0  0  0  0  0  0  0  0  0  0  0  0  # atno 6908 bound_to 6896
  152.0088  134.9887  160.0618 H   0  0  0  0  0  0  0  0  0  0  0  0  # atno 6909 bound_to 6896
  146.1361  139.6285  142.9194 H   0  0  0  0  0  0  0  0  0  0  0  0  # atno 7974 bound_to 7965
  154.8394  140.2912  155.5670 H   0  0  0  0  0  0  0  0  0  0  0  0  # atno 8008 bound_to 7997
  156.3011  140.2517  156.3264 H   0  0  0  0  0  0  0  0  0  0  0  0  # atno 8009 bound_to 7997
  154.9143  140.0387  157.1952 H   0  0  0  0  0  0  0  0  0  0  0  0  # atno 8010 bound_to 7997
  140.1939  144.4057  150.6559 H   0  0  0  0  0  0  0  0  0  0  0  0  # atno 10167 bound_to 10162
  156.5230  130.8486  151.2689 H   0  0  0  0  0  0  0  0  0  0  0  0  # atno 10718 bound_to 10713
  153.0242  135.5243  154.7153 H   0  0  0  0  0  0  0  0  0  0  0  0  # atno 10763 bound_to 10752
  154.6224  135.2890  155.0313 H   0  0  0  0  0  0  0  0  0  0  0  0  # atno 10764 bound_to 10752
  154.1295  135.6595  153.4971 H   0  0  0  0  0  0  0  0  0  0  0  0  # atno 10765 bound_to 10752
  140.1535  134.8658  157.2485 H   0  0  0  0  0  0  0  0  0  0  0  0  # atno 11005 bound_to 11000
  145.5152  141.0434  143.2466 LP  0  0  0  0  0  0  0  0  0  0  0  0  # atno 17320 bound_to 7965
  144.7742  139.6667  143.7182 LP  0  0  0  0  0  0  0  0  0  0  0  0  # atno 17321 bound_to 7965
  140.6437  143.2209  151.6234 LP  0  0  0  0  0  0  0  0  0  0  0  0  # atno 17342 bound_to 10162
  139.5244  144.3103  152.0998 LP  0  0  0  0  0  0  0  0  0  0  0  0  # atno 17343 bound_to 10162
  157.7434  130.9911  150.2588 LP  0  0  0  0  0  0  0  0  0  0  0  0  # atno 17370 bound_to 10713
  156.3131  130.3775  149.7643 LP  0  0  0  0  0  0  0  0  0  0  0  0  # atno 17371 bound_to 10713
  140.2576  134.3609  155.7418 LP  0  0  0  0  0  0  0  0  0  0  0  0  # atno 17394 bound_to 11000
  141.2202  133.7351  156.9030 LP  0  0  0  0  0  0  0  0  0  0  0  0  # atno 17395 bound_to 11000

$$$$
