AV-unprocessed.smi:787|AV-procd|sdf|3725|dock3
  -GOLD-   22720 1153D 1   1.00000     0.00000
 Structure written by MMmdl.
 47 49  0  0  0  0  0  0  0  0  2 V2000
  146.9641  138.6949  157.6971 C   0  0  0  0  0  0  0  0  0  0  0  0
  148.3756  138.4201  157.4787 N   0  0  0  0  0  0  0  0  0  0  0  0
  149.2394  139.4435  157.0635 C   0  0  0  0  0  0  0  0  0  0  0  0
  148.8834  140.7370  157.2403 N   0  0  0  0  0  0  0  0  0  0  0  0
  149.7285  141.6845  156.8143 C   0  0  0  0  0  0  0  0  0  0  0  0
  150.9195  141.5452  156.2120 N   0  0  0  0  0  0  0  0  0  0  0  0
  151.2827  140.2681  156.0348 C   0  0  0  0  0  0  0  0  0  0  0  0
  152.4529  139.8347  155.4364 N   0  0  0  0  0  0  0  0  0  0  0  0
  152.3220  138.5138  155.5133 C   0  0  0  0  0  0  0  0  0  0  0  0
  151.2149  138.0288  156.1112 N   0  0  0  0  0  0  0  0  0  0  0  0
  150.8999  136.6241  156.3344 C   0  0  0  0  0  0  0  0  0  0  0  0
  150.3815  135.8962  155.0714 C   0  0  2  0  0  0  0  0  0  0  0  0
  150.1510  136.8413  154.0444 O   0  0  0  0  0  0  0  0  0  0  0  0
  149.0702  135.1183  155.3075 C   0  0  0  0  0  0  0  0  0  0  0  0
  148.6081  134.4161  154.0814 N   0  3  1  0  0  0  0  0  0  0  0  0
  149.4294  133.2269  153.7600 C   0  0  0  0  0  0  0  0  0  0  0  0
  147.1557  134.1083  154.0867 C   0  0  0  0  0  0  0  0  0  0  0  0
  146.7391  133.3376  152.8445 C   0  0  0  0  0  0  0  0  0  0  0  0
  146.2648  132.0120  152.9489 C   0  0  0  0  0  0  0  0  0  0  0  0
  145.8584  131.3123  151.7962 C   0  0  0  0  0  0  0  0  0  0  0  0
  145.9313  131.9320  150.5337 C   0  0  0  0  0  0  0  0  0  0  0  0
  146.4115  133.2514  150.4242 C   0  0  0  0  0  0  0  0  0  0  0  0
  146.8151  133.9527  151.5769 C   0  0  0  0  0  0  0  0  0  0  0  0
  150.4791  139.1639  156.4524 C   0  0  0  0  0  0  0  0  0  0  0  0
  146.4446  137.7776  157.9744 H   0  0  0  0  0  0  0  0  0  0  0  0
  146.5021  139.0879  156.7910 H   0  0  0  0  0  0  0  0  0  0  0  0
  146.8304  139.4196  158.5012 H   0  0  0  0  0  0  0  0  0  0  0  0
  148.6840  137.4600  157.4383 H   0  0  0  0  0  0  0  0  0  0  0  0
  149.4045  142.7021  156.9741 H   0  0  0  0  0  0  0  0  0  0  0  0
  153.0892  137.8573  155.1295 H   0  0  0  0  0  0  0  0  0  0  0  0
  151.7818  136.1221  156.7320 H   0  0  0  0  0  0  0  0  0  0  0  0
  150.1466  136.5681  157.1213 H   0  0  0  0  0  0  0  0  0  0  0  0
  151.1599  135.2153  154.7274 H   0  0  0  0  0  0  0  0  0  0  0  0
  149.6237  136.4386  153.3709 H   0  0  0  0  0  0  0  0  0  0  0  0
  149.1897  134.3997  156.1197 H   0  0  0  0  0  0  0  0  0  0  0  0
  148.3085  135.8185  155.6452 H   0  0  0  0  0  0  0  0  0  0  0  0
  149.3133  132.4549  154.5219 H   0  0  0  0  0  0  0  0  0  0  0  0
  150.4864  133.4849  153.6936 H   0  0  0  0  0  0  0  0  0  0  0  0
  149.1356  132.8039  152.7986 H   0  0  0  0  0  0  0  0  0  0  0  0
  146.9101  133.4935  154.9539 H   0  0  0  0  0  0  0  0  0  0  0  0
  146.5772  135.0285  154.1828 H   0  0  0  0  0  0  0  0  0  0  0  0
  146.2011  131.5297  153.9134 H   0  0  0  0  0  0  0  0  0  0  0  0
  145.4898  130.3003  151.8800 H   0  0  0  0  0  0  0  0  0  0  0  0
  145.6200  131.3950  149.6496 H   0  0  0  0  0  0  0  0  0  0  0  0
  146.4680  133.7263  149.4558 H   0  0  0  0  0  0  0  0  0  0  0  0
  147.1773  134.9664  151.4853 H   0  0  0  0  0  0  0  0  0  0  0  0
  148.7395  135.0697  153.3221 H   0  0  0  0  0  0  0  0  0  0  0  0
  1  2  1  0  0  0  0
  1 25  1  0  0  0  0
  1 26  1  0  0  0  0
  1 27  1  0  0  0  0
  2  3  1  0  0  0  0
  2 28  1  0  0  0  0
  3 24  1  0  0  0  0
  3  4  2  0  0  0  0
  4  5  1  0  0  0  0
  5  6  2  0  0  0  0
  5 29  1  0  0  0  0
  6  7  1  0  0  0  0
  7 24  2  0  0  0  0
  7  8  1  0  0  0  0
  8  9  2  0  0  0  0
  9 10  1  0  0  0  0
  9 30  1  0  0  0  0
 10 11  1  0  0  0  0
 10 24  1  0  0  0  0
 11 12  1  0  0  0  0
 11 31  1  0  0  0  0
 11 32  1  0  0  0  0
 12 13  1  0  0  0  0
 12 14  1  0  0  0  0
 12 33  1  0  0  0  0
 13 34  1  0  0  0  0
 14 15  1  0  0  0  0
 14 35  1  0  0  0  0
 14 36  1  0  0  0  0
 15 16  1  0  0  0  0
 15 17  1  0  0  0  0
 15 47  1  0  0  0  0
 16 37  1  0  0  0  0
 16 38  1  0  0  0  0
 16 39  1  0  0  0  0
 17 18  1  0  0  0  0
 17 40  1  0  0  0  0
 17 41  1  0  0  0  0
 18 23  1  0  0  0  0
 18 19  2  0  0  0  0
 19 20  1  0  0  0  0
 19 42  1  0  0  0  0
 20 21  2  0  0  0  0
 20 43  1  0  0  0  0
 21 22  1  0  0  0  0
 21 44  1  0  0  0  0
 22 23  2  0  0  0  0
 22 45  1  0  0  0  0
 23 46  1  0  0  0  0
M  CHG  1  15   1
M  END
> <s_m_source_file>
AV-unprocessed.smi

> <i_m_source_file_index>
787

> <i_lp_mmshare_version>
43012

> <i_f3d_flags>
0

> <s_epik_input>
bjFbY0hdbmMoW05IXVtDSDNdKWMoYzEyKW4oW2NIXW4yKVtDSDJdW0NASF0oW09IXSlbQ0gyXU4oW0NIM10pW0NIMl1jM1tjSF1bY0hdW2NIXVtjSF1bY0hdMw==

> <s_epik_cmdline>
J2VwaWtfcHl0aG9uJywgJy1waCcsICc3LjAnLCAnLXRuJywgJzgnLCAnLW1hJywgJzIwMCcsICctbWV0YWxfYmluZGluZycsICctaW1hZScsICc8aW5maWxlLm1hZT4nLCAnLW9tYWUnLCAnPG91dGZpbGUubWFlPic=

> <r_lp_tautomer_probability>
0.999987

> <r_epik_Ionization_Penalty>
0.0526284

> <r_epik_Ionization_Penalty_Charging>
0.0475377

> <r_epik_Ionization_Penalty_Neutral>
0.00509065

> <r_epik_State_Penalty>
0.0404888

> <r_epik_Charging_Adjusted_Penalty>
0.0880265

> <i_epik_Tot_Q>
1

> <i_epik_Tot_abs_Q>
1

> <r_epik_Metal_State_Penalty>
0.040507

> <b_epik_Metal_Only>
0

> <s_lp_Force_Field>
OPLS_2005

> <r_lp_Energy>
14.0859

> <b_lp_Chiralities_Consistent>
1

> <s_lp_Variant>
AV-unprocessed.smi:787-1

> <Gold.Version>
5.8.1

> <Gold.Id.Protein>
6NUR|6NUR_protein|mol2

> <Gold.PLP.Fitness>
46.8322

> <Gold.PLP.PLP>
-33.7879

> <Gold.PLP.part.hbond>
-4.8436

> <Gold.PLP.part.metal>
0.0000

> <Gold.PLP.part.buried>
-3.2831

> <Gold.PLP.part.nonpolar>
-25.5043

> <Gold.PLP.part.repulsive>
0.1662

> <Gold.PLP.ligand.clash>
0.0000

> <Gold.PLP.ligand.torsion>
1.2572

> <Gold.PLP.Chemscore.Hbond>
4.0754

> <Gold.PLP.Chemscore.CHOScore>
1.0000

> <Gold.PLP.Chemscore.Metal>
0.0000

> <Gold.Chemscore.Hbonds>
donor molecule, donor type, donor heavy atom, donor atom, acceptor molecule, acceptor atom, score
      L1  H    13    34       P1  7948  1.00
      L1  H    15    47       P1  7948  2.00
      P1  H  7989  7998       L1     8  0.06
      P1  H  7997  8008       L1     8  0.94
      L1  C     5    29       P1  8028  1.00

> <Gold.PLP.Chemscore.Internal.Correction>
0.3326

> <Gold.Rescore>
     Score         DG    S(hbond)    S(metal)    S(lipo)     H(rot)  DE(clash)    DE(int)     intcor
     12.75     -14.03       2.63        0.00      67.74       3.19       0.07       1.21       ----

> <Gold.Chemscore.Fitness>
12.7514

> <Gold.Chemscore.DG>
-14.0287

> <Gold.Chemscore.ZeroCoef>
-5.4800

> <Gold.Chemscore.Hbond>
2.6336

> <Gold.Chemscore.Metal>
0.0000

> <Gold.Chemscore.Lipo>
67.7431

> <Gold.Chemscore.Internal_Hbond>
0.0000

> <Gold.Chemscore.DEClash>
0.0710

> <Gold.Chemscore.DEInternal>
1.2062

> <Gold.Chemscore.Rot>
3.1928

> <Gold.Chemscore.Internal.Correction>
   9.000000E+99

> <Gold.Chemscore.Hbonds>
donor molecule, donor type, donor heavy atom, donor atom, acceptor molecule, acceptor atom, score
      L1  H    13    34       P1  7948  0.44
      L1  H    15    47       P1  7948  0.60
      P1  H  7997  8008       L1     8  0.40

> <Gold.Chemscore.Hbond.Weighted>
-8.7963

> <Gold.Chemscore.Metal.Weighted>
-0.0000

> <Gold.Chemscore.Lipo.Weighted>
-7.9259

> <Gold.Chemscore.Internal_Hbond.Weighted>
0.0000

> <Gold.Chemscore.DEClash.Weighted>
0.0710

> <Gold.Chemscore.DEInternal.Weighted>
1.2062

> <Gold.Chemscore.Rot.Weighted>
8.1736

> <Gold.Chemscore.Internal.Correction.Weighted>
   9.000000E+99

> <Gold.Protein.RotatedTorsions>
[ 6907 6896 6895 6894 ] final   -0.01 input  -60.11 | X-H torsion
[ 7974 7965 7964 7962 ] final   16.31 input  175.53 | X-H torsion
[ 8008 7997 7996 7995 ] final  -24.07 input   59.86 | X-H torsion
[ 10167 10162 10161 10158 ] final   94.92 input  -65.29 | X-H torsion
[ 10718 10713 10712 10709 ] final   59.38 input   66.30 | X-H torsion
[ 10763 10752 10751 10750 ] final   50.32 input  -60.55 | X-H torsion
[ 11005 11000 10999 10996 ] final -174.84 input  -57.11 | X-H torsion

> <Gold.Protein.ActiveResidues>
 VAL166  LYS551  ARG553  GLY616  TRP617  ASP618  TYR619  PRO620  LYS621  CYS622 
 ASP623  PHE694  ASN695  SER759  ASP760  ASP761  ALA762  ILE779  LEU786  VAL792 
 PHE793  MET794  SER795  GLU796  ALA797  LYS798  CYS799  TRP800  GLU811  SER814 

> <Gold.Protein.RotatedAtoms>
  151.5692  135.1063  159.9990 H   0  0  0  0  0  0  0  0  0  0  0  0  # atno 6907 bound_to 6896
  152.4409  133.7442  159.6669 H   0  0  0  0  0  0  0  0  0  0  0  0  # atno 6908 bound_to 6896
  150.8314  133.8015  159.3120 H   0  0  0  0  0  0  0  0  0  0  0  0  # atno 6909 bound_to 6896
  146.2253  139.8766  142.8578 H   0  0  0  0  0  0  0  0  0  0  0  0  # atno 7974 bound_to 7965
  154.4549  140.1963  156.0408 H   0  0  0  0  0  0  0  0  0  0  0  0  # atno 8008 bound_to 7997
  156.0726  140.3282  155.7567 H   0  0  0  0  0  0  0  0  0  0  0  0  # atno 8009 bound_to 7997
  155.5239  140.0572  157.2892 H   0  0  0  0  0  0  0  0  0  0  0  0  # atno 8010 bound_to 7997
  139.8037  144.6803  150.9731 H   0  0  0  0  0  0  0  0  0  0  0  0  # atno 10167 bound_to 10162
  157.5671  130.8879  149.9206 H   0  0  0  0  0  0  0  0  0  0  0  0  # atno 10718 bound_to 10713
  152.9785  135.5882  154.4234 H   0  0  0  0  0  0  0  0  0  0  0  0  # atno 10763 bound_to 10752
  154.3855  135.2767  155.2188 H   0  0  0  0  0  0  0  0  0  0  0  0  # atno 10764 bound_to 10752
  154.4082  135.6087  153.5992 H   0  0  0  0  0  0  0  0  0  0  0  0  # atno 10765 bound_to 10752
  140.4700  134.6174  157.4878 H   0  0  0  0  0  0  0  0  0  0  0  0  # atno 11005 bound_to 11000
  145.2555  141.0059  143.3857 LP  0  0  0  0  0  0  0  0  0  0  0  0  # atno 17320 bound_to 7965
  144.9340  139.4265  143.6481 LP  0  0  0  0  0  0  0  0  0  0  0  0  # atno 17321 bound_to 7965
  140.7819  143.4255  151.0775 LP  0  0  0  0  0  0  0  0  0  0  0  0  # atno 17342 bound_to 10162
  139.7925  143.8198  152.3153 LP  0  0  0  0  0  0  0  0  0  0  0  0  # atno 17343 bound_to 10162
  156.0719  130.3684  150.0758 LP  0  0  0  0  0  0  0  0  0  0  0  0  # atno 17370 bound_to 10713
  156.8916  130.9590  151.3588 LP  0  0  0  0  0  0  0  0  0  0  0  0  # atno 17371 bound_to 10713
  139.9891  134.7014  155.9721 LP  0  0  0  0  0  0  0  0  0  0  0  0  # atno 17394 bound_to 11000
  141.1581  133.6541  156.4228 LP  0  0  0  0  0  0  0  0  0  0  0  0  # atno 17395 bound_to 11000

$$$$
