AV-unprocessed.smi:2427|AV-procd|sdf|9579|dock3
  -GOLD-   2272013213D 1   1.00000     0.00000
 Structure written by MMmdl.
 35 36  0  0  0  0  0  0  0  0  3 V2000
  145.8846  138.1613  154.7784 O   0  0  0  0  0  0  0  0  0  0  0  0
  146.7977  138.0308  153.9616 C   0  0  0  0  0  0  0  0  0  0  0  0
  147.4341  139.2516  153.2810 C   0  0  0  0  0  0  0  0  0  0  0  0
  148.6578  139.7262  153.9490 N   0  0  0  0  0  0  0  0  0  0  0  0
  149.7981  138.9047  153.8498 C   0  0  0  0  0  0  0  0  0  0  0  0
  150.9705  139.2345  154.4261 C   0  0  0  0  0  0  0  0  0  0  0  0
  152.1298  138.3762  154.3183 N   0  3  0  0  0  0  0  0  0  0  0  0
  151.9826  137.2411  153.8765 O   0  0  0  0  0  0  0  0  0  0  0  0
  153.2241  138.8060  154.6712 O   0  5  0  0  0  0  0  0  0  0  0  0
  151.0313  140.4808  155.1650 C   0  0  0  0  0  0  0  0  0  0  0  0
  149.9427  141.2685  155.2678 C   0  0  0  0  0  0  0  0  0  0  0  0
  148.6669  140.9057  154.6424 C   0  0  0  0  0  0  0  0  0  0  0  0
  147.6677  141.6189  154.7364 O   0  0  0  0  0  0  0  0  0  0  0  0
  147.3080  136.8392  153.6171 N   0  0  0  0  0  0  0  0  0  0  0  0
  146.8669  135.5523  154.1424 C   0  0  0  0  0  0  0  0  0  0  0  0
  145.9975  134.7903  153.1279 C   0  0  1  0  0  0  0  0  0  0  0  0
  145.2686  135.6951  152.1353 C   0  0  0  0  0  0  0  0  0  0  0  0
  145.0903  134.8159  150.9056 C   0  0  0  0  0  0  0  0  0  0  0  0
  145.9806  133.6008  151.1799 C   0  0  0  0  0  0  0  0  0  0  0  0
  146.7978  133.9872  152.2750 O   0  0  0  0  0  0  0  0  0  0  0  0
  147.6465  138.9920  152.2428 H   0  0  0  0  0  0  0  0  0  0  0  0
  146.6953  140.0534  153.2268 H   0  0  0  0  0  0  0  0  0  0  0  0
  149.6475  137.9959  153.2849 H   0  0  0  0  0  0  0  0  0  0  0  0
  151.9493  140.7905  155.6426 H   0  0  0  0  0  0  0  0  0  0  0  0
  150.0099  142.1916  155.8249 H   0  0  0  0  0  0  0  0  0  0  0  0
  148.0619  136.8212  152.9456 H   0  0  0  0  0  0  0  0  0  0  0  0
  147.7346  134.9523  154.4219 H   0  0  0  0  0  0  0  0  0  0  0  0
  146.3053  135.7307  155.0599 H   0  0  0  0  0  0  0  0  0  0  0  0
  145.2734  134.1531  153.6393 H   0  0  0  0  0  0  0  0  0  0  0  0
  144.3235  136.0694  152.5299 H   0  0  0  0  0  0  0  0  0  0  0  0
  145.8886  136.5554  151.8794 H   0  0  0  0  0  0  0  0  0  0  0  0
  144.0514  134.5138  150.7695 H   0  0  0  0  0  0  0  0  0  0  0  0
  145.4060  135.3462  150.0064 H   0  0  0  0  0  0  0  0  0  0  0  0
  145.3759  132.7404  151.4708 H   0  0  0  0  0  0  0  0  0  0  0  0
  146.5831  133.3172  150.3167 H   0  0  0  0  0  0  0  0  0  0  0  0
  1  2  2  0  0  0  0
  2  3  1  0  0  0  0
  2 14  1  0  0  0  0
  3  4  1  0  0  0  0
  3 21  1  0  0  0  0
  3 22  1  0  0  0  0
  4 12  1  0  0  0  0
  4  5  1  0  0  0  0
  5  6  2  0  0  0  0
  5 23  1  0  0  0  0
  6  7  1  0  0  0  0
  6 10  1  0  0  0  0
  7  8  2  0  0  0  0
  7  9  1  0  0  0  0
 10 11  2  0  0  0  0
 10 24  1  0  0  0  0
 11 12  1  0  0  0  0
 11 25  1  0  0  0  0
 12 13  2  0  0  0  0
 14 15  1  0  0  0  0
 14 26  1  0  0  0  0
 15 16  1  0  0  0  0
 15 27  1  0  0  0  0
 15 28  1  0  0  0  0
 16 20  1  0  0  0  0
 16 17  1  0  0  0  0
 16 29  1  0  0  0  0
 17 18  1  0  0  0  0
 17 30  1  0  0  0  0
 17 31  1  0  0  0  0
 18 19  1  0  0  0  0
 18 32  1  0  0  0  0
 18 33  1  0  0  0  0
 19 20  1  0  0  0  0
 19 34  1  0  0  0  0
 19 35  1  0  0  0  0
M  CHG  1   7   1
M  CHG  1   9  -1
M  END
> <s_m_source_file>
AV-unprocessed.smi

> <i_m_source_file_index>
2427

> <i_lp_mmshare_version>
43012

> <i_f3d_flags>
0

> <s_epik_input>
TzFbQ0gyXVtDSDJdW0NIMl1bQ0BIXTFbQ0gyXVtOSF1DKD1PKVtDSDJdbjJbY0hdYyhbTitdKD1PKVtPLV0pW2NIXVtjSF1jMj1P

> <s_epik_cmdline>
J2VwaWtfcHl0aG9uJywgJy1waCcsICc3LjAnLCAnLXRuJywgJzgnLCAnLW1hJywgJzIwMCcsICctbWV0YWxfYmluZGluZycsICctaW1hZScsICc8aW5maWxlLm1hZT4nLCAnLW9tYWUnLCAnPG91dGZpbGUubWFlPic=

> <r_lp_tautomer_probability>
1

> <r_epik_Ionization_Penalty>
2.69366e-08

> <r_epik_Ionization_Penalty_Charging>
7.76344e-11

> <r_epik_Ionization_Penalty_Neutral>
2.6859e-08

> <r_epik_State_Penalty>
-0

> <r_epik_Charging_Adjusted_Penalty>
7.76344e-11

> <i_epik_Tot_Q>
0

> <i_epik_Tot_abs_Q>
2

> <r_epik_Metal_State_Penalty>
-0

> <b_epik_Metal_Only>
0

> <s_lp_Force_Field>
OPLS_2005

> <r_lp_Energy>
28.9532

> <b_lp_Chiralities_Consistent>
1

> <s_lp_Variant>
AV-unprocessed.smi:2427-2

> <Gold.Version>
5.8.1

> <Gold.Id.Protein>
6NUR|6NUR_protein|mol2

> <Gold.PLP.Fitness>
42.3631

> <Gold.PLP.PLP>
-32.3870

> <Gold.PLP.part.hbond>
-3.0000

> <Gold.PLP.part.metal>
0.0000

> <Gold.PLP.part.buried>
-1.5647

> <Gold.PLP.part.nonpolar>
-27.9269

> <Gold.PLP.part.repulsive>
0.9592

> <Gold.PLP.ligand.clash>
0.0000

> <Gold.PLP.ligand.torsion>
1.0071

> <Gold.PLP.Chemscore.Hbond>
2.9760

> <Gold.PLP.Chemscore.CHOScore>
1.0000

> <Gold.PLP.Chemscore.Metal>
0.0000

> <Gold.Chemscore.Hbonds>
donor molecule, donor type, donor heavy atom, donor atom, acceptor molecule, acceptor atom, score
      L1  H    14    26       P1  7948  0.98
      P1  H  7997  8009       L1     9  0.57
      P1  H 10752 10764       L1     8  0.91
      L1  C     5    23       P1  7948  1.00

> <Gold.PLP.Chemscore.Internal.Correction>
0.0622

> <Gold.Rescore>
     Score         DG    S(hbond)    S(metal)    S(lipo)     H(rot)  DE(clash)    DE(int)     intcor
     15.62     -16.64       2.87        0.00      55.07       1.90       0.05       0.98       ----

> <Gold.Chemscore.Fitness>
15.6156

> <Gold.Chemscore.DG>
-16.6446

> <Gold.Chemscore.ZeroCoef>
-5.4800

> <Gold.Chemscore.Hbond>
2.8732

> <Gold.Chemscore.Metal>
0.0000

> <Gold.Chemscore.Lipo>
55.0723

> <Gold.Chemscore.Internal_Hbond>
0.0000

> <Gold.Chemscore.DEClash>
0.0453

> <Gold.Chemscore.DEInternal>
0.9838

> <Gold.Chemscore.Rot>
1.9044

> <Gold.Chemscore.Internal.Correction>
   9.000000E+99

> <Gold.Chemscore.Hbonds>
donor molecule, donor type, donor heavy atom, donor atom, acceptor molecule, acceptor atom, score
      L1  H    14    26       P1  7948  0.91
      P1  H  7997  8009       L1     9  0.56
      P1  H 10752 10764       L1     8  0.89

> <Gold.Chemscore.Hbond.Weighted>
-9.5965

> <Gold.Chemscore.Metal.Weighted>
-0.0000

> <Gold.Chemscore.Lipo.Weighted>
-6.4435

> <Gold.Chemscore.Internal_Hbond.Weighted>
0.0000

> <Gold.Chemscore.DEClash.Weighted>
0.0453

> <Gold.Chemscore.DEInternal.Weighted>
0.9838

> <Gold.Chemscore.Rot.Weighted>
4.8753

> <Gold.Chemscore.Internal.Correction.Weighted>
   9.000000E+99

> <Gold.Protein.RotatedTorsions>
[ 6907 6896 6895 6894 ] final  156.59 input  -60.11 | X-H torsion
[ 7974 7965 7964 7962 ] final -171.07 input  175.53 | X-H torsion
[ 8008 7997 7996 7995 ] final -132.32 input   59.86 | X-H torsion
[ 10167 10162 10161 10158 ] final   60.62 input  -65.29 | X-H torsion
[ 10718 10713 10712 10709 ] final   98.32 input   66.30 | X-H torsion
[ 10763 10752 10751 10750 ] final  -75.01 input  -60.55 | X-H torsion
[ 11005 11000 10999 10996 ] final -137.40 input  -57.11 | X-H torsion

> <Gold.Protein.ActiveResidues>
 VAL166  LYS551  ARG553  GLY616  TRP617  ASP618  TYR619  PRO620  LYS621  CYS622 
 ASP623  PHE694  ASN695  SER759  ASP760  ASP761  ALA762  ILE779  LEU786  VAL792 
 PHE793  MET794  SER795  GLU796  ALA797  LYS798  CYS799  TRP800  GLU811  SER814 

> <Gold.Protein.RotatedAtoms>
  152.0274  133.3923  159.4282 H   0  0  0  0  0  0  0  0  0  0  0  0  # atno 6907 bound_to 6896
  150.6885  134.3558  159.4938 H   0  0  0  0  0  0  0  0  0  0  0  0  # atno 6908 bound_to 6896
  152.1340  134.9113  160.0608 H   0  0  0  0  0  0  0  0  0  0  0  0  # atno 6909 bound_to 6896
  144.7162  140.1978  143.6341 H   0  0  0  0  0  0  0  0  0  0  0  0  # atno 7974 bound_to 7965
  155.3270  140.0465  157.3041 H   0  0  0  0  0  0  0  0  0  0  0  0  # atno 8008 bound_to 7997
  154.5349  140.2269  155.8706 H   0  0  0  0  0  0  0  0  0  0  0  0  # atno 8009 bound_to 7997
  156.1825  140.3070  155.9181 H   0  0  0  0  0  0  0  0  0  0  0  0  # atno 8010 bound_to 7997
  140.1636  144.4346  150.6696 H   0  0  0  0  0  0  0  0  0  0  0  0  # atno 10167 bound_to 10162
  157.6897  131.0636  150.4777 H   0  0  0  0  0  0  0  0  0  0  0  0  # atno 10718 bound_to 10713
  154.4808  135.5845  153.6388 H   0  0  0  0  0  0  0  0  0  0  0  0  # atno 10763 bound_to 10752
  152.9847  135.6089  154.3249 H   0  0  0  0  0  0  0  0  0  0  0  0  # atno 10764 bound_to 10752
  154.3140  135.2844  155.2531 H   0  0  0  0  0  0  0  0  0  0  0  0  # atno 10765 bound_to 10752
  140.8714  134.2046  157.4648 H   0  0  0  0  0  0  0  0  0  0  0  0  # atno 11005 bound_to 11000
  145.8708  139.2271  143.1662 LP  0  0  0  0  0  0  0  0  0  0  0  0  # atno 17320 bound_to 7965
  146.0086  140.8456  142.9982 LP  0  0  0  0  0  0  0  0  0  0  0  0  # atno 17321 bound_to 7965
  140.6627  143.2257  151.5817 LP  0  0  0  0  0  0  0  0  0  0  0  0  # atno 17342 bound_to 10162
  139.5370  144.2754  152.1271 LP  0  0  0  0  0  0  0  0  0  0  0  0  # atno 17343 bound_to 10162
  156.5111  130.4139  149.6300 LP  0  0  0  0  0  0  0  0  0  0  0  0  # atno 17370 bound_to 10713
  156.3239  130.7295  151.2213 LP  0  0  0  0  0  0  0  0  0  0  0  0  # atno 17371 bound_to 10713
  139.8712  134.9776  156.4965 LP  0  0  0  0  0  0  0  0  0  0  0  0  # atno 17394 bound_to 11000
  140.8568  133.8090  155.9224 LP  0  0  0  0  0  0  0  0  0  0  0  0  # atno 17395 bound_to 11000

$$$$
