AV-unprocessed.smi:1304|AV-procd|sdf|5431|dock5
  -GOLD-   22720 4593D 1   1.00000     0.00000
 Structure written by MMmdl.
 48 49  0  0  0  0  0  0  0  0  2 V2000
  151.1551  139.0467  154.8871 C   0  0  0  0  0  0  0  0  0  0  0  0
  151.7362  139.6026  156.1997 C   0  0  0  0  0  0  0  0  0  0  0  0
  150.8541  140.6621  156.9288 C   0  0  1  0  0  0  0  0  0  0  0  0
  150.4039  141.7017  155.8680 C   0  0  0  0  0  0  0  0  0  0  0  0
  149.5914  139.9649  157.5163 C   0  0  0  0  0  0  0  0  0  0  0  0
  149.8851  138.6660  158.1151 N   0  0  0  0  0  0  0  0  0  0  0  0
  148.9909  137.9144  158.7720 C   0  0  0  0  0  0  0  0  0  0  0  0
  147.8171  138.2534  158.9280 O   0  0  0  0  0  0  0  0  0  0  0  0
  149.5123  136.5774  159.3191 C   0  0  0  0  0  0  0  0  0  0  0  0
  148.5234  135.8472  160.1300 N   0  0  0  0  0  0  0  0  0  0  0  0
  147.9663  136.5318  161.2285 C   0  0  0  0  0  0  0  0  0  0  0  0
  147.0621  135.9587  162.0382 C   0  0  0  0  0  0  0  0  0  0  0  0
  146.6607  134.6001  161.7595 C   0  0  0  0  0  0  0  0  0  0  0  0
  147.1897  133.9348  160.7134 C   0  0  0  0  0  0  0  0  0  0  0  0
  148.1798  134.5571  159.8265 C   0  0  0  0  0  0  0  0  0  0  0  0
  148.6713  133.9559  158.8707 O   0  0  0  0  0  0  0  0  0  0  0  0
  151.6495  141.3351  158.0206 N   0  3  0  0  0  0  0  0  0  0  0  0
  151.0448  142.5628  158.6118 C   0  0  0  0  0  0  0  0  0  0  0  0
  152.0370  143.2475  159.5676 C   0  0  0  0  0  0  0  0  0  0  0  0
  152.4383  142.3378  160.5822 O   0  0  0  0  0  0  0  0  0  0  0  0
  153.0976  141.2029  160.0390 C   0  0  0  0  0  0  0  0  0  0  0  0
  152.1325  140.4447  159.1140 C   0  0  0  0  0  0  0  0  0  0  0  0
  151.8336  138.3129  154.4519 H   0  0  0  0  0  0  0  0  0  0  0  0
  151.0070  139.8298  154.1435 H   0  0  0  0  0  0  0  0  0  0  0  0
  150.1997  138.5470  155.0457 H   0  0  0  0  0  0  0  0  0  0  0  0
  151.9147  138.7556  156.8632 H   0  0  0  0  0  0  0  0  0  0  0  0
  152.7305  140.0029  156.0032 H   0  0  0  0  0  0  0  0  0  0  0  0
  150.0322  141.2209  154.9625 H   0  0  0  0  0  0  0  0  0  0  0  0
  151.2219  142.3577  155.5696 H   0  0  0  0  0  0  0  0  0  0  0  0
  149.5921  142.3317  156.2325 H   0  0  0  0  0  0  0  0  0  0  0  0
  149.1311  140.5776  158.2918 H   0  0  0  0  0  0  0  0  0  0  0  0
  148.8395  139.8260  156.7387 H   0  0  0  0  0  0  0  0  0  0  0  0
  150.8295  138.3195  158.0284 H   0  0  0  0  0  0  0  0  0  0  0  0
  149.8356  135.9657  158.4756 H   0  0  0  0  0  0  0  0  0  0  0  0
  150.4173  136.7601  159.9016 H   0  0  0  0  0  0  0  0  0  0  0  0
  148.3248  137.5407  161.3721 H   0  0  0  0  0  0  0  0  0  0  0  0
  146.6495  136.4977  162.8784 H   0  0  0  0  0  0  0  0  0  0  0  0
  145.9345  134.1141  162.3945 H   0  0  0  0  0  0  0  0  0  0  0  0
  146.8790  132.9180  160.5223 H   0  0  0  0  0  0  0  0  0  0  0  0
  150.7765  143.2887  157.8466 H   0  0  0  0  0  0  0  0  0  0  0  0
  150.1322  142.3110  159.1525 H   0  0  0  0  0  0  0  0  0  0  0  0
  152.9100  143.6141  159.0249 H   0  0  0  0  0  0  0  0  0  0  0  0
  151.5689  144.1131  160.0367 H   0  0  0  0  0  0  0  0  0  0  0  0
  153.9975  141.5072  159.5018 H   0  0  0  0  0  0  0  0  0  0  0  0
  153.4176  140.5576  160.8572 H   0  0  0  0  0  0  0  0  0  0  0  0
  151.2920  140.0788  159.7039 H   0  0  0  0  0  0  0  0  0  0  0  0
  152.6538  139.5738  158.7218 H   0  0  0  0  0  0  0  0  0  0  0  0
  152.4858  141.6585  157.5556 H   0  0  0  0  0  0  0  0  0  0  0  0
  1  2  1  0  0  0  0
  1 23  1  0  0  0  0
  1 24  1  0  0  0  0
  1 25  1  0  0  0  0
  2  3  1  0  0  0  0
  2 26  1  0  0  0  0
  2 27  1  0  0  0  0
  3  4  1  0  0  0  0
  3  5  1  0  0  0  0
  3 17  1  0  0  0  0
  4 28  1  0  0  0  0
  4 29  1  0  0  0  0
  4 30  1  0  0  0  0
  5  6  1  0  0  0  0
  5 31  1  0  0  0  0
  5 32  1  0  0  0  0
  6  7  1  0  0  0  0
  6 33  1  0  0  0  0
  7  8  2  0  0  0  0
  7  9  1  0  0  0  0
  9 10  1  0  0  0  0
  9 34  1  0  0  0  0
  9 35  1  0  0  0  0
 10 15  1  0  0  0  0
 10 11  1  0  0  0  0
 11 12  2  0  0  0  0
 11 36  1  0  0  0  0
 12 13  1  0  0  0  0
 12 37  1  0  0  0  0
 13 14  2  0  0  0  0
 13 38  1  0  0  0  0
 14 15  1  0  0  0  0
 14 39  1  0  0  0  0
 15 16  2  0  0  0  0
 17 22  1  0  0  0  0
 17 18  1  0  0  0  0
 17 48  1  0  0  0  0
 18 19  1  0  0  0  0
 18 40  1  0  0  0  0
 18 41  1  0  0  0  0
 19 20  1  0  0  0  0
 19 42  1  0  0  0  0
 19 43  1  0  0  0  0
 20 21  1  0  0  0  0
 21 22  1  0  0  0  0
 21 44  1  0  0  0  0
 21 45  1  0  0  0  0
 22 46  1  0  0  0  0
 22 47  1  0  0  0  0
M  CHG  1  17   1
M  END
> <s_m_source_file>
AV-unprocessed.smi

> <i_m_source_file_index>
1304

> <i_lp_mmshare_version>
43012

> <i_f3d_flags>
0

> <s_epik_input>
W0NIMl0xW0NIMl1PW0NIMl1bQ0gyXU4xW0NAQF0oW0NIM10pKFtDSDJdW0NIM10pW0NIMl1bTkhdQyg9TylbQ0gyXW4yW2NIXVtjSF1bY0hdW2NIXWMyPU8=

> <s_epik_cmdline>
J2VwaWtfcHl0aG9uJywgJy1waCcsICc3LjAnLCAnLXRuJywgJzgnLCAnLW1hJywgJzIwMCcsICctbWV0YWxfYmluZGluZycsICctaW1hZScsICc8aW5maWxlLm1hZT4nLCAnLW9tYWUnLCAnPG91dGZpbGUubWFlPic=

> <r_lp_tautomer_probability>
1

> <r_epik_Ionization_Penalty>
0.519658

> <r_epik_Ionization_Penalty_Charging>
0.519658

> <r_epik_Ionization_Penalty_Neutral>
8.70177e-08

> <r_epik_State_Penalty>
0.527569

> <r_epik_Charging_Adjusted_Penalty>
1.04723

> <i_epik_Tot_Q>
1

> <i_epik_Tot_abs_Q>
1

> <r_epik_Metal_State_Penalty>
0.527613

> <b_epik_Metal_Only>
0

> <s_lp_Force_Field>
OPLS_2005

> <r_lp_Energy>
38.623

> <b_lp_Chiralities_Consistent>
1

> <s_lp_Variant>
AV-unprocessed.smi:1304-3

> <Gold.Version>
5.8.1

> <Gold.Id.Protein>
6NUR|6NUR_protein|mol2

> <Gold.PLP.Fitness>
41.1005

> <Gold.PLP.PLP>
-38.6085

> <Gold.PLP.part.hbond>
-2.0000

> <Gold.PLP.part.metal>
0.0000

> <Gold.PLP.part.buried>
-3.8860

> <Gold.PLP.part.nonpolar>
-34.1363

> <Gold.PLP.part.repulsive>
0.2194

> <Gold.PLP.ligand.clash>
0.0000

> <Gold.PLP.ligand.torsion>
0.5633

> <Gold.PLP.Chemscore.Hbond>
1.1498

> <Gold.PLP.Chemscore.CHOScore>
0.0000

> <Gold.PLP.Chemscore.Metal>
0.0000

> <Gold.Chemscore.Hbonds>
donor molecule, donor type, donor heavy atom, donor atom, acceptor molecule, acceptor atom, score
      P1  H  6896  6907       L1    16  0.89
      P1  H  6934  6947       L1     8  0.14

> <Gold.PLP.Chemscore.Internal.Correction>
0.1693

> <Gold.Rescore>
     Score         DG    S(hbond)    S(metal)    S(lipo)     H(rot)  DE(clash)    DE(int)     intcor
     12.21     -15.01       0.88        0.00     100.79       2.03       0.18       2.61       ----

> <Gold.Chemscore.Fitness>
12.2124

> <Gold.Chemscore.DG>
-15.0051

> <Gold.Chemscore.ZeroCoef>
-5.4800

> <Gold.Chemscore.Hbond>
0.8771

> <Gold.Chemscore.Metal>
0.0000

> <Gold.Chemscore.Lipo>
100.7862

> <Gold.Chemscore.Internal_Hbond>
0.0000

> <Gold.Chemscore.DEClash>
0.1780

> <Gold.Chemscore.DEInternal>
2.6147

> <Gold.Chemscore.Rot>
2.0298

> <Gold.Chemscore.Internal.Correction>
   9.000000E+99

> <Gold.Chemscore.Hbonds>
donor molecule, donor type, donor heavy atom, donor atom, acceptor molecule, acceptor atom, score
      P1  H  6896  6907       L1    16  0.33
      P1  H  6934  6947       L1     8  0.14

> <Gold.Chemscore.Hbond.Weighted>
-2.9294

> <Gold.Chemscore.Metal.Weighted>
-0.0000

> <Gold.Chemscore.Lipo.Weighted>
-11.7920

> <Gold.Chemscore.Internal_Hbond.Weighted>
0.0000

> <Gold.Chemscore.DEClash.Weighted>
0.1780

> <Gold.Chemscore.DEInternal.Weighted>
2.6147

> <Gold.Chemscore.Rot.Weighted>
5.1962

> <Gold.Chemscore.Internal.Correction.Weighted>
   9.000000E+99

> <Gold.Protein.RotatedTorsions>
[ 6907 6896 6895 6894 ] final -110.51 input  -60.11 | X-H torsion
[ 7974 7965 7964 7962 ] final -124.07 input  175.53 | X-H torsion
[ 8008 7997 7996 7995 ] final  169.41 input   59.86 | X-H torsion
[ 10167 10162 10161 10158 ] final  163.82 input  -65.29 | X-H torsion
[ 10718 10713 10712 10709 ] final  -32.04 input   66.30 | X-H torsion
[ 10763 10752 10751 10750 ] final   58.74 input  -60.55 | X-H torsion
[ 11005 11000 10999 10996 ] final  -76.18 input  -57.11 | X-H torsion

> <Gold.Protein.ActiveResidues>
 VAL166  LYS551  ARG553  GLY616  TRP617  ASP618  TYR619  PRO620  LYS621  CYS622 
 ASP623  PHE694  ASN695  SER759  ASP760  ASP761  ALA762  ILE779  LEU786  VAL792 
 PHE793  MET794  SER795  GLU796  ALA797  LYS798  CYS799  TRP800  GLU811  SER814 

> <Gold.Protein.RotatedAtoms>
  150.7630  133.9371  159.3444 H   0  0  0  0  0  0  0  0  0  0  0  0  # atno 6907 bound_to 6896
  151.7275  135.0879  160.0304 H   0  0  0  0  0  0  0  0  0  0  0  0  # atno 6908 bound_to 6896
  152.3611  133.6260  159.6051 H   0  0  0  0  0  0  0  0  0  0  0  0  # atno 6909 bound_to 6896
  145.0120  140.7914  143.4433 H   0  0  0  0  0  0  0  0  0  0  0  0  # atno 7974 bound_to 7965
  156.1460  140.1565  156.8846 H   0  0  0  0  0  0  0  0  0  0  0  0  # atno 8008 bound_to 7997
  154.5028  140.0821  156.7871 H   0  0  0  0  0  0  0  0  0  0  0  0  # atno 8009 bound_to 7997
  155.3988  140.3413  155.4258 H   0  0  0  0  0  0  0  0  0  0  0  0  # atno 8010 bound_to 7997
  139.4879  144.4298  151.9085 H   0  0  0  0  0  0  0  0  0  0  0  0  # atno 10167 bound_to 10162
  156.3798  130.4354  149.7478 H   0  0  0  0  0  0  0  0  0  0  0  0  # atno 10718 bound_to 10713
  152.9878  135.5596  154.5601 H   0  0  0  0  0  0  0  0  0  0  0  0  # atno 10763 bound_to 10752
  154.5021  135.2798  155.1414 H   0  0  0  0  0  0  0  0  0  0  0  0  # atno 10764 bound_to 10752
  154.2840  135.6339  153.5411 H   0  0  0  0  0  0  0  0  0  0  0  0  # atno 10765 bound_to 10752
  141.1652  133.6974  156.7630 H   0  0  0  0  0  0  0  0  0  0  0  0  # atno 11005 bound_to 11000
  145.2011  139.2252  143.5192 LP  0  0  0  0  0  0  0  0  0  0  0  0  # atno 17320 bound_to 7965
  146.3471  140.1828  142.8589 LP  0  0  0  0  0  0  0  0  0  0  0  0  # atno 17321 bound_to 7965
  140.3745  144.2814  150.5916 LP  0  0  0  0  0  0  0  0  0  0  0  0  # atno 17342 bound_to 10162
  140.5289  143.2248  151.8270 LP  0  0  0  0  0  0  0  0  0  0  0  0  # atno 17343 bound_to 10162
  156.4573  130.7935  151.2956 LP  0  0  0  0  0  0  0  0  0  0  0  0  # atno 17370 bound_to 10713
  157.7491  131.0077  150.3199 LP  0  0  0  0  0  0  0  0  0  0  0  0  # atno 17371 bound_to 10713
  140.2520  134.8533  157.3676 LP  0  0  0  0  0  0  0  0  0  0  0  0  # atno 17394 bound_to 11000
  140.1693  134.4628  155.7842 LP  0  0  0  0  0  0  0  0  0  0  0  0  # atno 17395 bound_to 11000

$$$$
