AV-unprocessed.smi:1643|AV-procd|sdf|6581|dock10
  -GOLD-   22720 7273D 1   1.00000     0.00000
 Structure written by MMmdl.
 55 57  0  0  0  0  0  0  0  0  3 V2000
  142.7663  141.9997  157.9815 C   0  0  0  0  0  0  0  0  0  0  0  0
  143.2683  143.1160  157.0607 C   0  0  0  0  0  0  0  0  0  0  0  0
  142.9440  144.2737  157.3255 O   0  0  0  0  0  0  0  0  0  0  0  0
  144.0501  142.7956  156.0003 N   0  0  0  0  0  0  0  0  0  0  0  0
  144.3679  141.3928  155.6913 C   0  0  0  0  0  0  0  0  0  0  0  0
  145.7666  141.0079  156.2056 C   0  0  0  0  0  0  0  0  0  0  0  0
  146.8123  142.1409  156.1295 C   0  0  0  0  0  0  0  0  0  0  0  0
  146.9806  142.7296  154.7728 N   0  3  1  0  0  0  0  0  0  0  0  0
  147.7156  141.8255  153.8470 C   0  0  0  0  0  0  0  0  0  0  0  0
  148.9401  141.1559  154.5023 C   0  0  1  0  0  0  0  0  0  0  0  0
  149.7754  140.6297  153.4891 O   0  0  0  0  0  0  0  0  0  0  0  0
  149.7478  142.1501  155.3599 C   0  0  0  0  0  0  0  0  0  0  0  0
  150.7412  141.4872  156.2147 N   0  0  0  0  0  0  0  0  0  0  0  0
  151.3963  140.3061  156.0455 C   0  0  0  0  0  0  0  0  0  0  0  0
  152.2091  140.1298  157.1239 N   0  3  0  0  0  0  0  0  0  0  0  0
  152.0740  141.2152  157.9923 C   0  0  0  0  0  0  0  0  0  0  0  0
  152.6846  141.4896  159.2100 C   0  0  0  0  0  0  0  0  0  0  0  0
  152.3258  142.6952  159.8544 C   0  0  0  0  0  0  0  0  0  0  0  0
  152.9733  143.0243  161.1886 C   0  0  0  0  0  0  0  0  0  0  0  0
  151.3824  143.5818  159.2728 C   0  0  0  0  0  0  0  0  0  0  0  0
  151.0036  144.8748  159.9751 C   0  0  0  0  0  0  0  0  0  0  0  0
  150.7737  143.2853  158.0321 C   0  0  0  0  0  0  0  0  0  0  0  0
  151.1365  142.0917  157.4130 C   0  0  0  0  0  0  0  0  0  0  0  0
  145.7627  143.3431  154.1561 C   0  0  0  0  0  0  0  0  0  0  0  0
  144.6582  143.8272  155.1332 C   0  0  0  0  0  0  0  0  0  0  0  0
  143.5883  141.3689  158.3212 H   0  0  0  0  0  0  0  0  0  0  0  0
  142.0300  141.3785  157.4710 H   0  0  0  0  0  0  0  0  0  0  0  0
  142.2885  142.4212  158.8669 H   0  0  0  0  0  0  0  0  0  0  0  0
  143.6316  140.7035  156.1074 H   0  0  0  0  0  0  0  0  0  0  0  0
  144.2919  141.2199  154.6192 H   0  0  0  0  0  0  0  0  0  0  0  0
  145.6811  140.7027  157.2491 H   0  0  0  0  0  0  0  0  0  0  0  0
  146.1205  140.1273  155.6689 H   0  0  0  0  0  0  0  0  0  0  0  0
  146.5617  142.9356  156.8329 H   0  0  0  0  0  0  0  0  0  0  0  0
  147.7746  141.7652  156.4792 H   0  0  0  0  0  0  0  0  0  0  0  0
  147.0458  141.0458  153.4809 H   0  0  0  0  0  0  0  0  0  0  0  0
  148.0252  142.3949  152.9692 H   0  0  0  0  0  0  0  0  0  0  0  0
  148.6212  140.3318  155.1395 H   0  0  0  0  0  0  0  0  0  0  0  0
  149.3075  139.9460  153.0337 H   0  0  0  0  0  0  0  0  0  0  0  0
  150.2815  142.8577  154.7235 H   0  0  0  0  0  0  0  0  0  0  0  0
  149.0896  142.7424  155.9972 H   0  0  0  0  0  0  0  0  0  0  0  0
  151.2880  139.6283  155.2110 H   0  0  0  0  0  0  0  0  0  0  0  0
  153.4021  140.8104  159.6471 H   0  0  0  0  0  0  0  0  0  0  0  0
  152.2177  143.1105  161.9697 H   0  0  0  0  0  0  0  0  0  0  0  0
  153.5201  143.9658  161.1279 H   0  0  0  0  0  0  0  0  0  0  0  0
  153.6780  142.2492  161.4917 H   0  0  0  0  0  0  0  0  0  0  0  0
  150.2591  145.4346  159.4081 H   0  0  0  0  0  0  0  0  0  0  0  0
  151.8781  145.5141  160.0987 H   0  0  0  0  0  0  0  0  0  0  0  0
  150.5840  144.6670  160.9597 H   0  0  0  0  0  0  0  0  0  0  0  0
  150.0569  143.9600  157.5884 H   0  0  0  0  0  0  0  0  0  0  0  0
  146.0972  144.2059  153.5795 H   0  0  0  0  0  0  0  0  0  0  0  0
  145.3317  142.6680  153.4165 H   0  0  0  0  0  0  0  0  0  0  0  0
  143.8622  144.2918  154.5498 H   0  0  0  0  0  0  0  0  0  0  0  0
  145.0884  144.6179  155.7495 H   0  0  0  0  0  0  0  0  0  0  0  0
  147.6091  143.5052  154.9290 H   0  0  0  0  0  0  0  0  0  0  0  0
  152.8103  139.3262  157.2556 H   0  0  0  0  0  0  0  0  0  0  0  0
  1  2  1  0  0  0  0
  1 26  1  0  0  0  0
  1 27  1  0  0  0  0
  1 28  1  0  0  0  0
  2  3  2  0  0  0  0
  2  4  1  0  0  0  0
  4 25  1  0  0  0  0
  4  5  1  0  0  0  0
  5  6  1  0  0  0  0
  5 29  1  0  0  0  0
  5 30  1  0  0  0  0
  6  7  1  0  0  0  0
  6 31  1  0  0  0  0
  6 32  1  0  0  0  0
  7  8  1  0  0  0  0
  7 33  1  0  0  0  0
  7 34  1  0  0  0  0
  8  9  1  0  0  0  0
  8 24  1  0  0  0  0
  8 54  1  0  0  0  0
  9 10  1  0  0  0  0
  9 35  1  0  0  0  0
  9 36  1  0  0  0  0
 10 11  1  0  0  0  0
 10 12  1  0  0  0  0
 10 37  1  0  0  0  0
 11 38  1  0  0  0  0
 12 13  1  0  0  0  0
 12 39  1  0  0  0  0
 12 40  1  0  0  0  0
 13 23  1  0  0  0  0
 13 14  1  0  0  0  0
 14 15  2  0  0  0  0
 14 41  1  0  0  0  0
 15 16  1  0  0  0  0
 15 55  1  0  0  0  0
 16 23  2  0  0  0  0
 16 17  1  0  0  0  0
 17 18  2  0  0  0  0
 17 42  1  0  0  0  0
 18 19  1  0  0  0  0
 18 20  1  0  0  0  0
 19 43  1  0  0  0  0
 19 44  1  0  0  0  0
 19 45  1  0  0  0  0
 20 21  1  0  0  0  0
 20 22  2  0  0  0  0
 21 46  1  0  0  0  0
 21 47  1  0  0  0  0
 21 48  1  0  0  0  0
 22 23  1  0  0  0  0
 22 49  1  0  0  0  0
 24 25  1  0  0  0  0
 24 50  1  0  0  0  0
 24 51  1  0  0  0  0
 25 52  1  0  0  0  0
 25 53  1  0  0  0  0
M  CHG  1   8   1
M  CHG  1  15   1
M  END
> <s_m_source_file>
AV-unprocessed.smi

> <i_m_source_file_index>
1643

> <i_lp_mmshare_version>
43012

> <i_f3d_flags>
0

> <s_epik_input>
W0NIM11DKD1PKU4xW0NIMl1bQ0gyXVtDSDJdTihbQ0gyXVtDSDJdMSlbQ0gyXVtDQEhdKFtPSF0pW0NIMl1uKFtjSF1uMiljKGMyMylbY0hdYyhbQ0gzXSljKFtjSF0zKVtDSDNd

> <s_epik_cmdline>
J2VwaWtfcHl0aG9uJywgJy1waCcsICc3LjAnLCAnLXRuJywgJzgnLCAnLW1hJywgJzIwMCcsICctbWV0YWxfYmluZGluZycsICctaW1hZScsICc8aW5maWxlLm1hZT4nLCAnLW9tYWUnLCAnPG91dGZpbGUubWFlPic=

> <r_epik_Ionization_Penalty>
1.2865

> <r_epik_Ionization_Penalty_Charging>
1.2865

> <r_epik_Ionization_Penalty_Neutral>
2.89706e-06

> <r_epik_State_Penalty>
1.3566

> <r_epik_Charging_Adjusted_Penalty>
2.6431

> <i_epik_Tot_Q>
2

> <i_epik_Tot_abs_Q>
2

> <r_epik_Metal_State_Penalty>
5.37339

> <b_epik_Metal_Only>
0

> <s_lp_Force_Field>
OPLS_2005

> <r_lp_Energy>
56.7844

> <b_lp_Chiralities_Consistent>
1

> <s_lp_Variant>
AV-unprocessed.smi:1643-10

> <Gold.Version>
5.8.1

> <Gold.Id.Protein>
6NUR|6NUR_protein|mol2

> <Gold.PLP.Fitness>
55.0170

> <Gold.PLP.PLP>
-46.6993

> <Gold.PLP.part.hbond>
-3.3573

> <Gold.PLP.part.metal>
0.0000

> <Gold.PLP.part.buried>
-2.7409

> <Gold.PLP.part.nonpolar>
-39.5566

> <Gold.PLP.part.repulsive>
0.2469

> <Gold.PLP.ligand.clash>
0.0000

> <Gold.PLP.ligand.torsion>
0.6473

> <Gold.PLP.Chemscore.Hbond>
3.1746

> <Gold.PLP.Chemscore.CHOScore>
0.0000

> <Gold.PLP.Chemscore.Metal>
0.0000

> <Gold.Chemscore.Hbonds>
donor molecule, donor type, donor heavy atom, donor atom, acceptor molecule, acceptor atom, score
      L1  H     8    54       P1  8028  1.90
      L1  H    11    38       P1  7957  0.22
      P1  H  7989  7998       L1    11  0.42
      P1  H  8011  8017       L1    11  0.59

> <Gold.PLP.Chemscore.Internal.Correction>
0.0884

> <Gold.Rescore>
     Score         DG    S(hbond)    S(metal)    S(lipo)     H(rot)  DE(clash)    DE(int)     intcor
     18.91     -19.75       1.69        0.00     121.33       2.17       0.19       0.66       ----

> <Gold.Chemscore.Fitness>
18.9107

> <Gold.Chemscore.DG>
-19.7515

> <Gold.Chemscore.ZeroCoef>
-5.4800

> <Gold.Chemscore.Hbond>
1.6892

> <Gold.Chemscore.Metal>
0.0000

> <Gold.Chemscore.Lipo>
121.3350

> <Gold.Chemscore.Internal_Hbond>
0.0000

> <Gold.Chemscore.DEClash>
0.1851

> <Gold.Chemscore.DEInternal>
0.6556

> <Gold.Chemscore.Rot>
2.1744

> <Gold.Chemscore.Internal.Correction>
   9.000000E+99

> <Gold.Chemscore.Hbonds>
donor molecule, donor type, donor heavy atom, donor atom, acceptor molecule, acceptor atom, score
      L1  H     8    54       P1  8028  0.22
      L1  H    11    38       P1  7957  0.22
      P1  H  7989  7998       L1    11  0.42
      P1  H  8011  8017       L1    11  0.05

> <Gold.Chemscore.Hbond.Weighted>
-5.6419

> <Gold.Chemscore.Metal.Weighted>
-0.0000

> <Gold.Chemscore.Lipo.Weighted>
-14.1962

> <Gold.Chemscore.Internal_Hbond.Weighted>
0.0000

> <Gold.Chemscore.DEClash.Weighted>
0.1851

> <Gold.Chemscore.DEInternal.Weighted>
0.6556

> <Gold.Chemscore.Rot.Weighted>
5.5666

> <Gold.Chemscore.Internal.Correction.Weighted>
   9.000000E+99

> <Gold.Protein.RotatedTorsions>
[ 6907 6896 6895 6894 ] final  -53.06 input  -60.11 | X-H torsion
[ 7974 7965 7964 7962 ] final  112.25 input  175.53 | X-H torsion
[ 8008 7997 7996 7995 ] final   67.88 input   59.86 | X-H torsion
[ 10167 10162 10161 10158 ] final   15.64 input  -65.29 | X-H torsion
[ 10718 10713 10712 10709 ] final  117.15 input   66.30 | X-H torsion
[ 10763 10752 10751 10750 ] final   45.64 input  -60.55 | X-H torsion
[ 11005 11000 10999 10996 ] final   47.88 input  -57.11 | X-H torsion

> <Gold.Protein.ActiveResidues>
 VAL166  LYS551  ARG553  GLY616  TRP617  ASP618  TYR619  PRO620  LYS621  CYS622 
 ASP623  PHE694  ASN695  SER759  ASP760  ASP761  ALA762  ILE779  LEU786  VAL792 
 PHE793  MET794  SER795  GLU796  ALA797  LYS798  CYS799  TRP800  GLU811  SER814 

> <Gold.Protein.RotatedAtoms>
  150.8461  134.7770  159.6970 H   0  0  0  0  0  0  0  0  0  0  0  0  # atno 6907 bound_to 6896
  152.4537  134.5334  159.9827 H   0  0  0  0  0  0  0  0  0  0  0  0  # atno 6908 bound_to 6896
  151.5465  133.3386  159.2981 H   0  0  0  0  0  0  0  0  0  0  0  0  # atno 6909 bound_to 6896
  145.2320  139.2815  143.4163 H   0  0  0  0  0  0  0  0  0  0  0  0  # atno 7974 bound_to 7965
  155.6998  140.3495  155.4928 H   0  0  0  0  0  0  0  0  0  0  0  0  # atno 8008 bound_to 7997
  155.9451  140.1108  157.1046 H   0  0  0  0  0  0  0  0  0  0  0  0  # atno 8009 bound_to 7997
  154.4110  140.1205  156.4964 H   0  0  0  0  0  0  0  0  0  0  0  0  # atno 8010 bound_to 7997
  140.5853  143.8902  150.6825 H   0  0  0  0  0  0  0  0  0  0  0  0  # atno 10167 bound_to 10162
  157.6115  131.1034  150.7574 H   0  0  0  0  0  0  0  0  0  0  0  0  # atno 10718 bound_to 10713
  152.9821  135.6033  154.3469 H   0  0  0  0  0  0  0  0  0  0  0  0  # atno 10763 bound_to 10752
  154.3162  135.2770  155.2544 H   0  0  0  0  0  0  0  0  0  0  0  0  # atno 10764 bound_to 10752
  154.4731  135.5936  153.6392 H   0  0  0  0  0  0  0  0  0  0  0  0  # atno 10765 bound_to 10752
  140.1240  134.4792  155.8574 H   0  0  0  0  0  0  0  0  0  0  0  0  # atno 11005 bound_to 11000
  146.3350  140.2657  142.8604 LP  0  0  0  0  0  0  0  0  0  0  0  0  # atno 17320 bound_to 7965
  144.9668  140.8329  143.5480 LP  0  0  0  0  0  0  0  0  0  0  0  0  # atno 17321 bound_to 7965
  140.2411  143.3663  152.1485 LP  0  0  0  0  0  0  0  0  0  0  0  0  # atno 17342 bound_to 10162
  139.5194  144.7018  151.5470 LP  0  0  0  0  0  0  0  0  0  0  0  0  # atno 17343 bound_to 10162
  156.7951  130.4902  149.5378 LP  0  0  0  0  0  0  0  0  0  0  0  0  # atno 17370 bound_to 10713
  156.1219  130.6116  151.0207 LP  0  0  0  0  0  0  0  0  0  0  0  0  # atno 17371 bound_to 10713
  141.2157  133.6771  156.6943 LP  0  0  0  0  0  0  0  0  0  0  0  0  # atno 17394 bound_to 11000
  140.2928  134.8227  157.4031 LP  0  0  0  0  0  0  0  0  0  0  0  0  # atno 17395 bound_to 11000

$$$$
