AV-unprocessed.smi:1107|AV-procd|sdf|4781|dock6
  -GOLD-   22720 3323D 1   1.00000     0.00000
 Structure written by MMmdl.
 49 50  0  0  0  0  0  0  0  0  2 V2000
  147.9408  141.5263  153.6081 C   0  0  0  0  0  0  0  0  0  0  0  0
  147.2118  140.2072  153.4646 C   0  0  0  0  0  0  0  0  0  0  0  0
  146.6840  139.5637  154.4535 N   0  0  0  0  0  0  0  0  0  0  0  0
  146.0289  138.3510  154.1970 C   0  0  0  0  0  0  0  0  0  0  0  0
  145.4306  137.6618  155.4114 C   0  0  0  0  0  0  0  0  0  0  0  0
  145.9370  137.8421  152.9331 C   0  0  0  0  0  0  0  0  0  0  0  0
  145.2330  136.5270  152.6064 C   0  0  0  0  0  0  0  0  0  0  0  0
  145.8034  135.2863  153.2966 C   0  0  0  0  0  0  0  0  0  0  0  0
  145.0772  134.5697  153.9846 O   0  0  0  0  0  0  0  0  0  0  0  0
  147.1089  135.0418  153.1007 N   0  0  0  0  0  0  0  0  0  0  0  0
  147.8750  133.9396  153.6833 C   0  0  2  0  0  0  0  0  0  0  0  0
  149.0082  134.5173  154.5418 C   0  0  0  0  0  0  0  0  0  0  0  0
  148.4245  132.9964  152.5886 C   0  0  0  0  0  0  0  0  0  0  0  0
  147.3673  132.1824  151.9349 N   0  3  0  0  0  0  0  0  0  0  0  0
  146.5427  131.4204  152.9074 C   0  0  0  0  0  0  0  0  0  0  0  0
  145.5753  130.4691  152.1828 C   0  0  0  0  0  0  0  0  0  0  0  0
  144.6882  131.2344  151.1917 C   0  0  0  0  0  0  0  0  0  0  0  0
  145.5606  132.0459  150.2248 C   0  0  0  0  0  0  0  0  0  0  0  0
  146.5226  132.9656  150.9945 C   0  0  0  0  0  0  0  0  0  0  0  0
  146.5512  138.5804  151.8132 C   0  0  0  0  0  0  0  0  0  0  0  0
  146.5402  138.2018  150.6428 O   0  0  0  0  0  0  0  0  0  0  0  0
  147.1578  139.7396  152.1526 N   0  0  0  0  0  0  0  0  0  0  0  0
  147.5923  140.2829  151.4208 H   0  0  0  0  0  0  0  0  0  0  0  0
  147.2821  142.2719  154.0540 H   0  0  0  0  0  0  0  0  0  0  0  0
  148.2814  141.9060  152.6438 H   0  0  0  0  0  0  0  0  0  0  0  0
  148.8103  141.4062  154.2545 H   0  0  0  0  0  0  0  0  0  0  0  0
  145.7969  136.6393  155.4982 H   0  0  0  0  0  0  0  0  0  0  0  0
  144.3432  137.6370  155.3377 H   0  0  0  0  0  0  0  0  0  0  0  0
  145.6906  138.1858  156.3315 H   0  0  0  0  0  0  0  0  0  0  0  0
  144.1809  136.5968  152.8810 H   0  0  0  0  0  0  0  0  0  0  0  0
  145.2242  136.3791  151.5251 H   0  0  0  0  0  0  0  0  0  0  0  0
  147.6235  135.6932  152.5251 H   0  0  0  0  0  0  0  0  0  0  0  0
  147.2311  133.3720  154.3565 H   0  0  0  0  0  0  0  0  0  0  0  0
  149.5792  133.7230  155.0233 H   0  0  0  0  0  0  0  0  0  0  0  0
  148.6155  135.1621  155.3289 H   0  0  0  0  0  0  0  0  0  0  0  0
  149.7014  135.1086  153.9423 H   0  0  0  0  0  0  0  0  0  0  0  0
  148.9200  133.6114  151.8356 H   0  0  0  0  0  0  0  0  0  0  0  0
  149.1946  132.3390  152.9946 H   0  0  0  0  0  0  0  0  0  0  0  0
  147.1898  130.8364  153.5630 H   0  0  0  0  0  0  0  0  0  0  0  0
  145.9894  132.1151  153.5415 H   0  0  0  0  0  0  0  0  0  0  0  0
  146.1444  129.7060  151.6498 H   0  0  0  0  0  0  0  0  0  0  0  0
  144.9552  129.9423  152.9087 H   0  0  0  0  0  0  0  0  0  0  0  0
  144.0551  130.5409  150.6375 H   0  0  0  0  0  0  0  0  0  0  0  0
  144.0194  131.9030  151.7353 H   0  0  0  0  0  0  0  0  0  0  0  0
  146.1323  131.3687  149.5883 H   0  0  0  0  0  0  0  0  0  0  0  0
  144.9301  132.6371  149.5601 H   0  0  0  0  0  0  0  0  0  0  0  0
  145.9598  133.7186  151.5484 H   0  0  0  0  0  0  0  0  0  0  0  0
  147.1477  133.5022  150.2814 H   0  0  0  0  0  0  0  0  0  0  0  0
  147.8529  131.4911  151.3805 H   0  0  0  0  0  0  0  0  0  0  0  0
  1  2  1  0  0  0  0
  1 24  1  0  0  0  0
  1 25  1  0  0  0  0
  1 26  1  0  0  0  0
  2 22  1  0  0  0  0
  2  3  2  0  0  0  0
  3  4  1  0  0  0  0
  4  5  1  0  0  0  0
  4  6  2  0  0  0  0
  5 27  1  0  0  0  0
  5 28  1  0  0  0  0
  5 29  1  0  0  0  0
  6  7  1  0  0  0  0
  6 20  1  0  0  0  0
  7  8  1  0  0  0  0
  7 30  1  0  0  0  0
  7 31  1  0  0  0  0
  8  9  2  0  0  0  0
  8 10  1  0  0  0  0
 10 11  1  0  0  0  0
 10 32  1  0  0  0  0
 11 12  1  0  0  0  0
 11 13  1  0  0  0  0
 11 33  1  0  0  0  0
 12 34  1  0  0  0  0
 12 35  1  0  0  0  0
 12 36  1  0  0  0  0
 13 14  1  0  0  0  0
 13 37  1  0  0  0  0
 13 38  1  0  0  0  0
 14 19  1  0  0  0  0
 14 15  1  0  0  0  0
 14 49  1  0  0  0  0
 15 16  1  0  0  0  0
 15 39  1  0  0  0  0
 15 40  1  0  0  0  0
 16 17  1  0  0  0  0
 16 41  1  0  0  0  0
 16 42  1  0  0  0  0
 17 18  1  0  0  0  0
 17 43  1  0  0  0  0
 17 44  1  0  0  0  0
 18 19  1  0  0  0  0
 18 45  1  0  0  0  0
 18 46  1  0  0  0  0
 19 47  1  0  0  0  0
 19 48  1  0  0  0  0
 20 21  2  0  0  0  0
 20 22  1  0  0  0  0
 22 23  1  0  0  0  0
M  CHG  1  14   1
M  END
> <s_m_source_file>
AV-unprocessed.smi

> <i_m_source_file_index>
1107

> <i_lp_mmshare_version>
43012

> <i_f3d_flags>
0

> <s_epik_input>
W0NIM11jMW5jKFtDSDNdKWMoYyg9TylbbkhdMSlbQ0gyXUMoPU8pW05IXVtDQEhdKFtDSDNdKVtDSDJdTjJbQ0gyXVtDSDJdW0NIMl1bQ0gyXVtDSDJdMg==

> <s_epik_cmdline>
J2VwaWtfcHl0aG9uJywgJy1waCcsICc3LjAnLCAnLXRuJywgJzgnLCAnLW1hJywgJzIwMCcsICctbWV0YWxfYmluZGluZycsICctaW1hZScsICc8aW5maWxlLm1hZT4nLCAnLW9tYWUnLCAnPG91dGZpbGUubWFlPic=

> <r_lp_tautomer_probability>
0.839158

> <r_epik_Ionization_Penalty>
0.00280224

> <r_epik_Ionization_Penalty_Charging>
0.00277925

> <r_epik_Ionization_Penalty_Neutral>
2.29856e-05

> <r_epik_State_Penalty>
0.09125

> <r_epik_Charging_Adjusted_Penalty>
0.0940293

> <i_epik_Tot_Q>
1

> <i_epik_Tot_abs_Q>
1

> <r_epik_Metal_State_Penalty>
0.283823

> <b_epik_Metal_Only>
0

> <s_lp_Force_Field>
OPLS_2005

> <r_lp_Energy>
24.1286

> <b_lp_Chiralities_Consistent>
1

> <s_lp_Variant>
AV-unprocessed.smi:1107-1

> <Gold.Version>
5.8.1

> <Gold.Id.Protein>
6NUR|6NUR_protein|mol2

> <Gold.PLP.Fitness>
48.3905

> <Gold.PLP.PLP>
-37.8674

> <Gold.PLP.part.hbond>
-4.0000

> <Gold.PLP.part.metal>
0.0000

> <Gold.PLP.part.buried>
-6.7826

> <Gold.PLP.part.nonpolar>
-29.6109

> <Gold.PLP.part.repulsive>
0.9373

> <Gold.PLP.ligand.clash>
0.0000

> <Gold.PLP.ligand.torsion>
0.1513

> <Gold.PLP.Chemscore.Hbond>
3.5920

> <Gold.PLP.Chemscore.CHOScore>
0.0000

> <Gold.PLP.Chemscore.Metal>
0.0000

> <Gold.Chemscore.Hbonds>
donor molecule, donor type, donor heavy atom, donor atom, acceptor molecule, acceptor atom, score
      L1  H    10    32       P1  7948  1.00
      L1  H    14    49       P1 10747  1.00
      L1  H    22    23       P1  7957  0.37
      P1  H  7954  7966       L1    21  0.96

> <Gold.PLP.Chemscore.Internal.Correction>
0.0496

> <Gold.Rescore>
     Score         DG    S(hbond)    S(metal)    S(lipo)     H(rot)  DE(clash)    DE(int)     intcor
     20.96     -21.40       3.67        0.00      74.75       1.98       0.13       0.30       ----

> <Gold.Chemscore.Fitness>
20.9647

> <Gold.Chemscore.DG>
-21.3990

> <Gold.Chemscore.ZeroCoef>
-5.4800

> <Gold.Chemscore.Hbond>
3.6682

> <Gold.Chemscore.Metal>
0.0000

> <Gold.Chemscore.Lipo>
74.7471

> <Gold.Chemscore.Internal_Hbond>
0.0000

> <Gold.Chemscore.DEClash>
0.1311

> <Gold.Chemscore.DEInternal>
0.3031

> <Gold.Chemscore.Rot>
1.9837

> <Gold.Chemscore.Internal.Correction>
   9.000000E+99

> <Gold.Chemscore.Hbonds>
donor molecule, donor type, donor heavy atom, donor atom, acceptor molecule, acceptor atom, score
      L1  H    10    32       P1  7948  0.93
      L1  H    14    49       P1 10747  0.99
      L1  H    22    23       P1  7957  0.35
      P1  H  7954  7966       L1    21  0.87

> <Gold.Chemscore.Hbond.Weighted>
-12.2519

> <Gold.Chemscore.Metal.Weighted>
-0.0000

> <Gold.Chemscore.Lipo.Weighted>
-8.7454

> <Gold.Chemscore.Internal_Hbond.Weighted>
0.0000

> <Gold.Chemscore.DEClash.Weighted>
0.1311

> <Gold.Chemscore.DEInternal.Weighted>
0.3031

> <Gold.Chemscore.Rot.Weighted>
5.0783

> <Gold.Chemscore.Internal.Correction.Weighted>
   9.000000E+99

> <Gold.Protein.RotatedTorsions>
[ 6907 6896 6895 6894 ] final   27.48 input  -60.11 | X-H torsion
[ 7974 7965 7964 7962 ] final  -71.51 input  175.53 | X-H torsion
[ 8008 7997 7996 7995 ] final   -6.69 input   59.86 | X-H torsion
[ 10167 10162 10161 10158 ] final  -65.59 input  -65.29 | X-H torsion
[ 10718 10713 10712 10709 ] final   59.99 input   66.30 | X-H torsion
[ 10763 10752 10751 10750 ] final   99.44 input  -60.55 | X-H torsion
[ 11005 11000 10999 10996 ] final   61.43 input  -57.11 | X-H torsion

> <Gold.Protein.ActiveResidues>
 VAL166  LYS551  ARG553  GLY616  TRP617  ASP618  TYR619  PRO620  LYS621  CYS622 
 ASP623  PHE694  ASN695  SER759  ASP760  ASP761  ALA762  ILE779  LEU786  VAL792 
 PHE793  MET794  SER795  GLU796  ALA797  LYS798  CYS799  TRP800  GLU811  SER814 

> <Gold.Protein.RotatedAtoms>
  152.0029  134.9918  160.0565 H   0  0  0  0  0  0  0  0  0  0  0  0  # atno 6907 bound_to 6896
  152.1502  133.4512  159.4818 H   0  0  0  0  0  0  0  0  0  0  0  0  # atno 6908 bound_to 6896
  150.6874  134.2117  159.4405 H   0  0  0  0  0  0  0  0  0  0  0  0  # atno 6909 bound_to 6896
  145.6772  140.9201  143.0851 H   0  0  0  0  0  0  0  0  0  0  0  0  # atno 7974 bound_to 7965
  154.5912  140.2426  155.7918 H   0  0  0  0  0  0  0  0  0  0  0  0  # atno 8008 bound_to 7997
  156.2248  140.2986  155.9995 H   0  0  0  0  0  0  0  0  0  0  0  0  # atno 8009 bound_to 7997
  155.2371  140.0405  157.2960 H   0  0  0  0  0  0  0  0  0  0  0  0  # atno 8010 bound_to 7997
  140.5719  143.2318  151.6522 H   0  0  0  0  0  0  0  0  0  0  0  0  # atno 10167 bound_to 10162
  157.5718  130.8913  149.9280 H   0  0  0  0  0  0  0  0  0  0  0  0  # atno 10718 bound_to 10713
  153.3015  135.4113  155.1256 H   0  0  0  0  0  0  0  0  0  0  0  0  # atno 10763 bound_to 10752
  154.8550  135.3542  154.5845 H   0  0  0  0  0  0  0  0  0  0  0  0  # atno 10764 bound_to 10752
  153.6271  135.7062  153.5347 H   0  0  0  0  0  0  0  0  0  0  0  0  # atno 10765 bound_to 10752
  140.0161  134.6222  155.9707 H   0  0  0  0  0  0  0  0  0  0  0  0  # atno 11005 bound_to 11000
  144.7038  139.8649  143.7436 LP  0  0  0  0  0  0  0  0  0  0  0  0  # atno 17320 bound_to 7965
  146.0995  139.3990  143.0355 LP  0  0  0  0  0  0  0  0  0  0  0  0  # atno 17321 bound_to 7965
  139.5122  144.3485  152.0675 LP  0  0  0  0  0  0  0  0  0  0  0  0  # atno 17342 bound_to 10162
  140.2623  144.4054  150.6181 LP  0  0  0  0  0  0  0  0  0  0  0  0  # atno 17343 bound_to 10162
  156.0763  130.3678  150.0670 LP  0  0  0  0  0  0  0  0  0  0  0  0  # atno 17370 bound_to 10713
  156.8822  130.9560  151.3598 LP  0  0  0  0  0  0  0  0  0  0  0  0  # atno 17371 bound_to 10713
  141.1744  133.6539  156.4772 LP  0  0  0  0  0  0  0  0  0  0  0  0  # atno 17394 bound_to 11000
  140.4468  134.6965  157.5019 LP  0  0  0  0  0  0  0  0  0  0  0  0  # atno 17395 bound_to 11000

$$$$
