AV-unprocessed.smi:1088|AV-procd|sdf|4728|dock3
  -GOLD-   22720 3253D 1   1.00000     0.00000
 Structure written by MMmdl.
 48 49  0  0  0  0  0  0  0  0  2 V2000
  152.1785  138.9572  154.9838 C   0  0  0  0  0  0  0  0  0  0  0  0
  150.9849  139.5380  154.4886 O   0  0  0  0  0  0  0  0  0  0  0  0
  149.8559  138.6991  154.6679 C   0  0  0  0  0  0  0  0  0  0  0  0
  148.6577  139.3181  153.9342 C   0  0  0  0  0  0  0  0  0  0  0  0
  147.6848  138.2921  153.4861 N   0  3  2  0  0  0  0  0  0  0  0  0
  146.7910  138.7173  152.3884 C   0  0  0  0  0  0  0  0  0  0  0  0
  145.5839  137.7948  152.4864 C   0  0  0  0  0  0  0  0  0  0  0  0
  145.4142  137.6196  153.9904 C   0  0  0  0  0  0  0  0  0  0  0  0
  146.8402  137.7312  154.5713 C   0  0  1  0  0  0  0  0  0  0  0  0
  147.4356  136.3973  155.0670 C   0  0  0  0  0  0  0  0  0  0  0  0
  148.0925  136.5446  156.3621 N   0  0  0  0  0  0  0  0  0  0  0  0
  148.5823  135.5412  157.1058 C   0  0  0  0  0  0  0  0  0  0  0  0
  148.5811  134.3646  156.7424 O   0  0  0  0  0  0  0  0  0  0  0  0
  149.1600  135.9300  158.4720 C   0  0  0  0  0  0  0  0  0  0  0  0
  148.3967  135.3493  159.5843 N   0  0  0  0  0  0  0  0  0  0  0  0
  148.0473  134.0115  159.5535 C   0  0  0  0  0  0  0  0  0  0  0  0
  147.3431  133.4032  160.5326 C   0  0  0  0  0  0  0  0  0  0  0  0
  146.8963  134.1456  161.7050 C   0  0  0  0  0  0  0  0  0  0  0  0
  146.2721  133.6280  162.6321 O   0  0  0  0  0  0  0  0  0  0  0  0
  147.2501  135.5156  161.7032 N   0  0  0  0  0  0  0  0  0  0  0  0
  146.8526  136.3160  162.8431 C   0  0  0  0  0  0  0  0  0  0  0  0
  148.0059  136.1417  160.6862 C   0  0  0  0  0  0  0  0  0  0  0  0
  148.3244  137.3325  160.7441 O   0  0  0  0  0  0  0  0  0  0  0  0
  153.0129  139.6394  154.8214 H   0  0  0  0  0  0  0  0  0  0  0  0
  152.4048  138.0215  154.4708 H   0  0  0  0  0  0  0  0  0  0  0  0
  152.1076  138.7616  156.0545 H   0  0  0  0  0  0  0  0  0  0  0  0
  150.0661  137.7131  154.2509 H   0  0  0  0  0  0  0  0  0  0  0  0
  149.6396  138.5601  155.7281 H   0  0  0  0  0  0  0  0  0  0  0  0
  148.1586  140.0179  154.6059 H   0  0  0  0  0  0  0  0  0  0  0  0
  148.9981  139.8992  153.0761 H   0  0  0  0  0  0  0  0  0  0  0  0
  146.4752  139.7504  152.5431 H   0  0  0  0  0  0  0  0  0  0  0  0
  147.2818  138.6539  151.4168 H   0  0  0  0  0  0  0  0  0  0  0  0
  144.6958  138.2020  152.0020 H   0  0  0  0  0  0  0  0  0  0  0  0
  145.8111  136.8329  152.0245 H   0  0  0  0  0  0  0  0  0  0  0  0
  144.8008  138.4332  154.3805 H   0  0  0  0  0  0  0  0  0  0  0  0
  144.9009  136.6902  154.2332 H   0  0  0  0  0  0  0  0  0  0  0  0
  146.8070  138.4324  155.4074 H   0  0  0  0  0  0  0  0  0  0  0  0
  146.6633  135.6268  155.0966 H   0  0  0  0  0  0  0  0  0  0  0  0
  148.1863  136.0447  154.3588 H   0  0  0  0  0  0  0  0  0  0  0  0
  148.1475  137.4792  156.7407 H   0  0  0  0  0  0  0  0  0  0  0  0
  150.1979  135.5971  158.5101 H   0  0  0  0  0  0  0  0  0  0  0  0
  149.1927  137.0164  158.5749 H   0  0  0  0  0  0  0  0  0  0  0  0
  148.3519  133.4178  158.7037 H   0  0  0  0  0  0  0  0  0  0  0  0
  147.1072  132.3525  160.4479 H   0  0  0  0  0  0  0  0  0  0  0  0
  146.7063  137.3513  162.5322 H   0  0  0  0  0  0  0  0  0  0  0  0
  147.6490  136.2301  163.5835 H   0  0  0  0  0  0  0  0  0  0  0  0
  145.9028  135.9469  163.2331 H   0  0  0  0  0  0  0  0  0  0  0  0
  148.2185  137.5125  153.1282 H   0  0  0  0  0  0  0  0  0  0  0  0
  1  2  1  0  0  0  0
  1 24  1  0  0  0  0
  1 25  1  0  0  0  0
  1 26  1  0  0  0  0
  2  3  1  0  0  0  0
  3  4  1  0  0  0  0
  3 27  1  0  0  0  0
  3 28  1  0  0  0  0
  4  5  1  0  0  0  0
  4 29  1  0  0  0  0
  4 30  1  0  0  0  0
  5  9  1  0  0  0  0
  5  6  1  0  0  0  0
  5 48  1  0  0  0  0
  6  7  1  0  0  0  0
  6 31  1  0  0  0  0
  6 32  1  0  0  0  0
  7  8  1  0  0  0  0
  7 33  1  0  0  0  0
  7 34  1  0  0  0  0
  8  9  1  0  0  0  0
  8 35  1  0  0  0  0
  8 36  1  0  0  0  0
  9 10  1  0  0  0  0
  9 37  1  0  0  0  0
 10 11  1  0  0  0  0
 10 38  1  0  0  0  0
 10 39  1  0  0  0  0
 11 12  1  0  0  0  0
 11 40  1  0  0  0  0
 12 13  2  0  0  0  0
 12 14  1  0  0  0  0
 14 15  1  0  0  0  0
 14 41  1  0  0  0  0
 14 42  1  0  0  0  0
 15 22  1  0  0  0  0
 15 16  1  0  0  0  0
 16 17  2  0  0  0  0
 16 43  1  0  0  0  0
 17 18  1  0  0  0  0
 17 44  1  0  0  0  0
 18 19  2  0  0  0  0
 18 20  1  0  0  0  0
 20 21  1  0  0  0  0
 20 22  1  0  0  0  0
 21 45  1  0  0  0  0
 21 46  1  0  0  0  0
 21 47  1  0  0  0  0
 22 23  2  0  0  0  0
M  CHG  1   5   1
M  END
> <s_m_source_file>
AV-unprocessed.smi

> <i_m_source_file_index>
1088

> <i_lp_mmshare_version>
43012

> <i_f3d_flags>
0

> <s_epik_input>
W0NIM11PW0NIMl1bQ0gyXU4xW0NIMl1bQ0gyXVtDSDJdW0NASF0xW0NIMl1bTkhdQyg9TylbQ0gyXW4yW2NIXVtjSF1jKD1PKW4oW0NIM10pYzI9Tw==

> <s_epik_cmdline>
J2VwaWtfcHl0aG9uJywgJy1waCcsICc3LjAnLCAnLXRuJywgJzgnLCAnLW1hJywgJzIwMCcsICctbWV0YWxfYmluZGluZycsICctaW1hZScsICc8aW5maWxlLm1hZT4nLCAnLW9tYWUnLCAnPG91dGZpbGUubWFlPic=

> <r_lp_tautomer_probability>
1

> <r_epik_Ionization_Penalty>
0.0127388

> <r_epik_Ionization_Penalty_Charging>
0.0127387

> <r_epik_Ionization_Penalty_Neutral>
8.26414e-08

> <r_epik_State_Penalty>
0.00987716

> <r_epik_Charging_Adjusted_Penalty>
0.0226159

> <i_epik_Tot_Q>
1

> <i_epik_Tot_abs_Q>
1

> <r_epik_Metal_State_Penalty>
0.00987836

> <b_epik_Metal_Only>
0

> <s_lp_Force_Field>
OPLS_2005

> <r_lp_Energy>
37.5103

> <b_lp_Chiralities_Consistent>
1

> <s_lp_Variant>
AV-unprocessed.smi:1088-1

> <Gold.Version>
5.8.1

> <Gold.Id.Protein>
6NUR|6NUR_protein|mol2

> <Gold.PLP.Fitness>
43.5992

> <Gold.PLP.PLP>
-32.6865

> <Gold.PLP.part.hbond>
-4.0893

> <Gold.PLP.part.metal>
0.0000

> <Gold.PLP.part.buried>
-2.2532

> <Gold.PLP.part.nonpolar>
-27.8105

> <Gold.PLP.part.repulsive>
0.1605

> <Gold.PLP.ligand.clash>
0.0000

> <Gold.PLP.ligand.torsion>
1.1767

> <Gold.PLP.Chemscore.Hbond>
4.3710

> <Gold.PLP.Chemscore.CHOScore>
0.0000

> <Gold.PLP.Chemscore.Metal>
0.0000

> <Gold.Chemscore.Hbonds>
donor molecule, donor type, donor heavy atom, donor atom, acceptor molecule, acceptor atom, score
      L1  H     5    48       P1  7948  2.00
      P1  H  6931  6943       L1    23  0.78
      P1  H  6934  6947       L1    23  0.56
      P1  H  7989  7998       L1     2  1.00

> <Gold.PLP.Chemscore.Internal.Correction>
0.1531

> <Gold.Rescore>
     Score         DG    S(hbond)    S(metal)    S(lipo)     H(rot)  DE(clash)    DE(int)     intcor
     14.80     -17.62       3.46        0.00      61.14       2.57       0.41       2.41       ----

> <Gold.Chemscore.Fitness>
14.8005

> <Gold.Chemscore.DG>
-17.6209

> <Gold.Chemscore.ZeroCoef>
-5.4800

> <Gold.Chemscore.Hbond>
3.4625

> <Gold.Chemscore.Metal>
0.0000

> <Gold.Chemscore.Lipo>
61.1385

> <Gold.Chemscore.Internal_Hbond>
0.0000

> <Gold.Chemscore.DEClash>
0.4137

> <Gold.Chemscore.DEInternal>
2.4066

> <Gold.Chemscore.Rot>
2.5692

> <Gold.Chemscore.Internal.Correction>
   9.000000E+99

> <Gold.Chemscore.Hbonds>
donor molecule, donor type, donor heavy atom, donor atom, acceptor molecule, acceptor atom, score
      L1  H     5    48       P1  7948  0.99
      P1  H  6931  6943       L1    23  0.77
      P1  H  6934  6947       L1    23  0.52
      P1  H  7989  7998       L1     2  0.30

> <Gold.Chemscore.Hbond.Weighted>
-11.5648

> <Gold.Chemscore.Metal.Weighted>
-0.0000

> <Gold.Chemscore.Lipo.Weighted>
-7.1532

> <Gold.Chemscore.Internal_Hbond.Weighted>
0.0000

> <Gold.Chemscore.DEClash.Weighted>
0.4137

> <Gold.Chemscore.DEInternal.Weighted>
2.4066

> <Gold.Chemscore.Rot.Weighted>
6.5772

> <Gold.Chemscore.Internal.Correction.Weighted>
   9.000000E+99

> <Gold.Protein.RotatedTorsions>
[ 6907 6896 6895 6894 ] final  155.29 input  -60.11 | X-H torsion
[ 7974 7965 7964 7962 ] final -136.43 input  175.53 | X-H torsion
[ 8008 7997 7996 7995 ] final -115.93 input   59.86 | X-H torsion
[ 10167 10162 10161 10158 ] final  -83.72 input  -65.29 | X-H torsion
[ 10718 10713 10712 10709 ] final   81.86 input   66.30 | X-H torsion
[ 10763 10752 10751 10750 ] final   25.23 input  -60.55 | X-H torsion
[ 11005 11000 10999 10996 ] final -138.75 input  -57.11 | X-H torsion

> <Gold.Protein.ActiveResidues>
 VAL166  LYS551  ARG553  GLY616  TRP617  ASP618  TYR619  PRO620  LYS621  CYS622 
 ASP623  PHE694  ASN695  SER759  ASP760  ASP761  ALA762  ILE779  LEU786  VAL792 
 PHE793  MET794  SER795  GLU796  ALA797  LYS798  CYS799  TRP800  GLU811  SER814 

> <Gold.Protein.RotatedAtoms>
  152.0463  133.3999  159.4357 H   0  0  0  0  0  0  0  0  0  0  0  0  # atno 6907 bound_to 6896
  150.6872  134.3358  159.4856 H   0  0  0  0  0  0  0  0  0  0  0  0  # atno 6908 bound_to 6896
  152.1163  134.9238  160.0615 H   0  0  0  0  0  0  0  0  0  0  0  0  # atno 6909 bound_to 6896
  144.8927  140.6665  143.5135 H   0  0  0  0  0  0  0  0  0  0  0  0  # atno 7974 bound_to 7965
  155.0598  140.0393  157.2573 H   0  0  0  0  0  0  0  0  0  0  0  0  # atno 8008 bound_to 7997
  154.7068  140.2684  155.6642 H   0  0  0  0  0  0  0  0  0  0  0  0  # atno 8009 bound_to 7997
  156.2777  140.2729  156.1697 H   0  0  0  0  0  0  0  0  0  0  0  0  # atno 8010 bound_to 7997
  140.4200  143.2588  151.8903 H   0  0  0  0  0  0  0  0  0  0  0  0  # atno 10167 bound_to 10162
  157.6843  131.0023  150.2290 H   0  0  0  0  0  0  0  0  0  0  0  0  # atno 10718 bound_to 10713
  153.0706  135.6587  154.0255 H   0  0  0  0  0  0  0  0  0  0  0  0  # atno 10763 bound_to 10752
  153.9901  135.2947  155.3414 H   0  0  0  0  0  0  0  0  0  0  0  0  # atno 10764 bound_to 10752
  154.7080  135.5217  153.8693 H   0  0  0  0  0  0  0  0  0  0  0  0  # atno 10765 bound_to 10752
  140.8586  134.2197  157.4720 H   0  0  0  0  0  0  0  0  0  0  0  0  # atno 11005 bound_to 11000
  145.3754  139.1649  143.4309 LP  0  0  0  0  0  0  0  0  0  0  0  0  # atno 17320 bound_to 7965
  146.3063  140.3829  142.8686 LP  0  0  0  0  0  0  0  0  0  0  0  0  # atno 17321 bound_to 7965
  139.4782  144.5447  151.8476 LP  0  0  0  0  0  0  0  0  0  0  0  0  # atno 17342 bound_to 10162
  140.4544  144.1810  150.5900 LP  0  0  0  0  0  0  0  0  0  0  0  0  # atno 17343 bound_to 10162
  156.2926  130.3747  149.7827 LP  0  0  0  0  0  0  0  0  0  0  0  0  # atno 17370 bound_to 10713
  156.5481  130.8330  151.3291 LP  0  0  0  0  0  0  0  0  0  0  0  0  # atno 17371 bound_to 10713
  139.8706  134.9718  156.4751 LP  0  0  0  0  0  0  0  0  0  0  0  0  # atno 17394 bound_to 11000
  140.8709  133.7989  155.9363 LP  0  0  0  0  0  0  0  0  0  0  0  0  # atno 17395 bound_to 11000

$$$$
