AV-unprocessed.smi:2971|AV-procd|sdf|11332|dock10
  -GOLD-   2272016243D 1   1.00000     0.00000
 Structure written by MMmdl.
 36 38  0  0  0  0  0  0  0  0  1 V2000
  149.7385  140.8028  153.6141 O   0  0  0  0  0  0  0  0  0  0  0  0
  148.9617  141.1138  154.7546 C   0  0  2  0  0  0  0  0  0  0  0  0
  147.5363  141.4573  154.2939 C   0  0  0  0  0  0  0  0  0  0  0  0
  147.0468  142.5377  155.0776 O   0  0  0  0  0  0  0  0  0  0  0  0
  146.5170  143.6321  154.4265 C   0  0  0  0  0  0  0  0  0  0  0  0
  146.6933  143.8969  153.0441 C   0  0  0  0  0  0  0  0  0  0  0  0
  146.1164  145.0400  152.4571 C   0  0  0  0  0  0  0  0  0  0  0  0
  145.3598  145.9314  153.2395 C   0  0  0  0  0  0  0  0  0  0  0  0
  145.1803  145.6780  154.6118 C   0  0  0  0  0  0  0  0  0  0  0  0
  145.7554  144.5344  155.1998 C   0  0  0  0  0  0  0  0  0  0  0  0
  145.5732  144.3015  156.5217 F   0  0  0  0  0  0  0  0  0  0  0  0
  149.6207  142.2883  155.5040 C   0  0  0  0  0  0  0  0  0  0  0  0
  150.3537  141.8585  156.6820 N   0  0  0  0  0  0  0  0  0  0  0  0
  150.2398  140.6771  157.3184 C   0  0  0  0  0  0  0  0  0  0  0  0
  151.0050  140.4846  158.3890 N   0  0  0  0  0  0  0  0  0  0  0  0
  151.6980  141.6813  158.4552 C   0  0  0  0  0  0  0  0  0  0  0  0
  152.6768  142.1244  159.3735 C   0  0  0  0  0  0  0  0  0  0  0  0
  153.2536  143.4047  159.2407 C   0  0  0  0  0  0  0  0  0  0  0  0
  152.8632  144.2594  158.1892 C   0  0  0  0  0  0  0  0  0  0  0  0
  151.8898  143.8400  157.2622 C   0  0  0  0  0  0  0  0  0  0  0  0
  151.3147  142.5630  157.3997 C   0  0  0  0  0  0  0  0  0  0  0  0
  149.2706  140.1623  153.1000 H   0  0  0  0  0  0  0  0  0  0  0  0
  148.9341  140.2442  155.4128 H   0  0  0  0  0  0  0  0  0  0  0  0
  147.5625  141.7757  153.2504 H   0  0  0  0  0  0  0  0  0  0  0  0
  146.8867  140.5824  154.3596 H   0  0  0  0  0  0  0  0  0  0  0  0
  147.2672  143.2385  152.4104 H   0  0  0  0  0  0  0  0  0  0  0  0
  146.2557  145.2326  151.4034 H   0  0  0  0  0  0  0  0  0  0  0  0
  144.9181  146.8078  152.7883 H   0  0  0  0  0  0  0  0  0  0  0  0
  144.6007  146.3610  155.2150 H   0  0  0  0  0  0  0  0  0  0  0  0
  150.3006  142.8306  154.8452 H   0  0  0  0  0  0  0  0  0  0  0  0
  148.8621  143.0043  155.8227 H   0  0  0  0  0  0  0  0  0  0  0  0
  149.5547  139.9153  156.9761 H   0  0  0  0  0  0  0  0  0  0  0  0
  152.9845  141.4776  160.1818 H   0  0  0  0  0  0  0  0  0  0  0  0
  154.0003  143.7326  159.9488 H   0  0  0  0  0  0  0  0  0  0  0  0
  153.3125  145.2372  158.0942 H   0  0  0  0  0  0  0  0  0  0  0  0
  151.5905  144.4900  156.4534 H   0  0  0  0  0  0  0  0  0  0  0  0
  1  2  1  0  0  0  0
  1 22  1  0  0  0  0
  2  3  1  0  0  0  0
  2 12  1  0  0  0  0
  2 23  1  0  0  0  0
  3  4  1  0  0  0  0
  3 24  1  0  0  0  0
  3 25  1  0  0  0  0
  4  5  1  0  0  0  0
  5 10  1  0  0  0  0
  5  6  2  0  0  0  0
  6  7  1  0  0  0  0
  6 26  1  0  0  0  0
  7  8  2  0  0  0  0
  7 27  1  0  0  0  0
  8  9  1  0  0  0  0
  8 28  1  0  0  0  0
  9 10  2  0  0  0  0
  9 29  1  0  0  0  0
 10 11  1  0  0  0  0
 12 13  1  0  0  0  0
 12 30  1  0  0  0  0
 12 31  1  0  0  0  0
 13 21  1  0  0  0  0
 13 14  1  0  0  0  0
 14 15  2  0  0  0  0
 14 32  1  0  0  0  0
 15 16  1  0  0  0  0
 16 21  2  0  0  0  0
 16 17  1  0  0  0  0
 17 18  2  0  0  0  0
 17 33  1  0  0  0  0
 18 19  1  0  0  0  0
 18 34  1  0  0  0  0
 19 20  2  0  0  0  0
 19 35  1  0  0  0  0
 20 21  1  0  0  0  0
 20 36  1  0  0  0  0
M  END
> <s_m_source_file>
AV-unprocessed.smi

> <i_m_source_file_index>
2971

> <i_lp_mmshare_version>
43012

> <i_f3d_flags>
0

> <s_epik_input>
W2NIXTFbY0hdW2NIXVtjSF1jKGMxMiluKFtjSF1uMilbQ0gyXVtDQEhdKFtPSF0pW0NIMl1PYzNbY0hdW2NIXVtjSF1bY0hdYzNG

> <s_epik_cmdline>
J2VwaWtfcHl0aG9uJywgJy1waCcsICc3LjAnLCAnLXRuJywgJzgnLCAnLW1hJywgJzIwMCcsICctbWV0YWxfYmluZGluZycsICctaW1hZScsICc8aW5maWxlLm1hZT4nLCAnLW9tYWUnLCAnPG91dGZpbGUubWFlPic=

> <r_lp_tautomer_probability>
1

> <r_epik_Ionization_Penalty>
0.0600913

> <r_epik_Ionization_Penalty_Charging>
0

> <r_epik_Ionization_Penalty_Neutral>
0.0600913

> <r_epik_State_Penalty>
0.0520726

> <r_epik_Charging_Adjusted_Penalty>
0.0520726

> <i_epik_Tot_Q>
0

> <i_epik_Tot_abs_Q>
0

> <r_epik_Metal_State_Penalty>
5.44269e-05

> <b_epik_Metal_Only>
0

> <s_lp_Force_Field>
OPLS_2005

> <r_lp_Energy>
16.3694

> <b_lp_Chiralities_Consistent>
1

> <s_lp_Variant>
AV-unprocessed.smi:2971-1

> <Gold.Version>
5.8.1

> <Gold.Id.Protein>
6NUR|6NUR_protein|mol2

> <Gold.PLP.Fitness>
49.6209

> <Gold.PLP.PLP>
-47.7307

> <Gold.PLP.part.hbond>
-2.7113

> <Gold.PLP.part.metal>
0.0000

> <Gold.PLP.part.buried>
-2.0873

> <Gold.PLP.part.nonpolar>
-42.8892

> <Gold.PLP.part.repulsive>
0.1228

> <Gold.PLP.ligand.clash>
0.0000

> <Gold.PLP.ligand.torsion>
1.9143

> <Gold.PLP.Chemscore.Hbond>
1.8960

> <Gold.PLP.Chemscore.CHOScore>
0.0000

> <Gold.PLP.Chemscore.Metal>
0.0000

> <Gold.Chemscore.Hbonds>
donor molecule, donor type, donor heavy atom, donor atom, acceptor molecule, acceptor atom, score
      L1  H     1    22       P1  7957  0.38
      P1  H  7989  7998       L1     1  0.40
      P1  H  8011  8017       L1     1  0.94

> <Gold.PLP.Chemscore.Internal.Correction>
0.0309

> <Gold.Rescore>
     Score         DG    S(hbond)    S(metal)    S(lipo)     H(rot)  DE(clash)    DE(int)     intcor
     15.34     -19.16       1.42        0.00     128.34       2.37       2.01       1.81       ----

> <Gold.Chemscore.Fitness>
15.3371

> <Gold.Chemscore.DG>
-19.1586

> <Gold.Chemscore.ZeroCoef>
-5.4800

> <Gold.Chemscore.Hbond>
1.4190

> <Gold.Chemscore.Metal>
0.0000

> <Gold.Chemscore.Lipo>
128.3358

> <Gold.Chemscore.Internal_Hbond>
0.0000

> <Gold.Chemscore.DEClash>
2.0118

> <Gold.Chemscore.DEInternal>
1.8097

> <Gold.Chemscore.Rot>
2.3735

> <Gold.Chemscore.Internal.Correction>
   9.000000E+99

> <Gold.Chemscore.Hbonds>
donor molecule, donor type, donor heavy atom, donor atom, acceptor molecule, acceptor atom, score
      L1  H     1    22       P1  7957  0.37
      P1  H  7989  7998       L1     1  0.39
      P1  H  8011  8017       L1     1  0.24

> <Gold.Chemscore.Hbond.Weighted>
-4.7395

> <Gold.Chemscore.Metal.Weighted>
-0.0000

> <Gold.Chemscore.Lipo.Weighted>
-15.0153

> <Gold.Chemscore.Internal_Hbond.Weighted>
0.0000

> <Gold.Chemscore.DEClash.Weighted>
2.0118

> <Gold.Chemscore.DEInternal.Weighted>
1.8097

> <Gold.Chemscore.Rot.Weighted>
6.0762

> <Gold.Chemscore.Internal.Correction.Weighted>
   9.000000E+99

> <Gold.Protein.RotatedTorsions>
[ 6907 6896 6895 6894 ] final -121.27 input  -60.11 | X-H torsion
[ 7974 7965 7964 7962 ] final   38.05 input  175.53 | X-H torsion
[ 8008 7997 7996 7995 ] final  -47.27 input   59.86 | X-H torsion
[ 10167 10162 10161 10158 ] final   -2.10 input  -65.29 | X-H torsion
[ 10718 10713 10712 10709 ] final  115.17 input   66.30 | X-H torsion
[ 10763 10752 10751 10750 ] final  169.06 input  -60.55 | X-H torsion
[ 11005 11000 10999 10996 ] final  117.64 input  -57.11 | X-H torsion

> <Gold.Protein.ActiveResidues>
 VAL166  LYS551  ARG553  GLY616  TRP617  ASP618  TYR619  PRO620  LYS621  CYS622 
 ASP623  PHE694  ASN695  SER759  ASP760  ASP761  ALA762  ILE779  LEU786  VAL792 
 PHE793  MET794  SER795  GLU796  ALA797  LYS798  CYS799  TRP800  GLU811  SER814 

> <Gold.Protein.RotatedAtoms>
  150.8468  133.7849  159.3039 H   0  0  0  0  0  0  0  0  0  0  0  0  # atno 6907 bound_to 6896
  151.5533  135.1065  159.9964 H   0  0  0  0  0  0  0  0  0  0  0  0  # atno 6908 bound_to 6896
  152.4520  133.7605  159.6800 H   0  0  0  0  0  0  0  0  0  0  0  0  # atno 6909 bound_to 6896
  146.1091  139.5819  142.9364 H   0  0  0  0  0  0  0  0  0  0  0  0  # atno 7974 bound_to 7965
  154.4015  140.1350  156.4148 H   0  0  0  0  0  0  0  0  0  0  0  0  # atno 8008 bound_to 7997
  155.7699  140.3484  155.5221 H   0  0  0  0  0  0  0  0  0  0  0  0  # atno 8009 bound_to 7997
  155.8777  140.0982  157.1497 H   0  0  0  0  0  0  0  0  0  0  0  0  # atno 8010 bound_to 7997
  140.6837  143.6697  150.8195 H   0  0  0  0  0  0  0  0  0  0  0  0  # atno 10167 bound_to 10162
  157.6238  131.1009  150.7291 H   0  0  0  0  0  0  0  0  0  0  0  0  # atno 10718 bound_to 10713
  154.3777  135.2753  155.2230 H   0  0  0  0  0  0  0  0  0  0  0  0  # atno 10763 bound_to 10752
  154.4350  135.5968  153.6096 H   0  0  0  0  0  0  0  0  0  0  0  0  # atno 10764 bound_to 10752
  152.9835  135.6005  154.4016 H   0  0  0  0  0  0  0  0  0  0  0  0  # atno 10765 bound_to 10752
  139.9081  134.9612  156.7382 H   0  0  0  0  0  0  0  0  0  0  0  0  # atno 11005 bound_to 11000
  145.5700  141.0395  143.2179 LP  0  0  0  0  0  0  0  0  0  0  0  0  # atno 17320 bound_to 7965
  144.7496  139.7229  143.7278 LP  0  0  0  0  0  0  0  0  0  0  0  0  # atno 17321 bound_to 7965
  140.0401  143.5354  152.2721 LP  0  0  0  0  0  0  0  0  0  0  0  0  # atno 17342 bound_to 10162
  139.6179  144.7623  151.2806 LP  0  0  0  0  0  0  0  0  0  0  0  0  # atno 17343 bound_to 10162
  156.7643  130.4808  149.5431 LP  0  0  0  0  0  0  0  0  0  0  0  0  # atno 17370 bound_to 10713
  156.1398  130.6237  151.0451 LP  0  0  0  0  0  0  0  0  0  0  0  0  # atno 17371 bound_to 10713
  140.6871  133.9423  155.7944 LP  0  0  0  0  0  0  0  0  0  0  0  0  # atno 17394 bound_to 11000
  141.0469  134.0541  157.3833 LP  0  0  0  0  0  0  0  0  0  0  0  0  # atno 17395 bound_to 11000

$$$$
