AV-unprocessed.smi:3208|AV-procd|sdf|12261|dock3
  -GOLD-   2272018 93D 1   1.00000     0.00000
 Structure written by MMmdl.
 30 30  0  0  0  0  0  0  0  0  1 V2000
  147.6626  139.6760  153.6375 C   0  0  0  0  0  0  0  0  0  0  0  0
  148.1765  140.3415  154.6827 C   0  0  0  0  0  0  0  0  0  0  0  0
  149.4846  141.1004  154.6572 C   0  0  0  0  0  0  0  0  0  0  0  0
  150.5662  140.2080  154.4175 O   0  0  0  0  0  0  0  0  0  0  0  0
  150.9119  139.3549  155.5064 C   0  0  1  0  0  0  0  0  0  0  0  0
  151.6653  138.1476  154.9280 C   0  0  0  0  0  0  0  0  0  0  0  0
  151.7689  140.1142  156.5326 C   0  0  0  0  0  0  0  0  0  0  0  0
  152.9478  139.7984  156.6969 O   0  0  0  0  0  0  0  0  0  0  0  0
  151.1459  141.1130  157.1853 N   0  0  0  0  0  0  0  0  0  0  0  0
  151.6721  141.9942  158.1697 C   0  0  0  0  0  0  0  0  0  0  0  0
  152.1001  141.5741  159.3869 N   0  0  0  0  0  0  0  0  0  0  0  0
  152.5878  142.4749  160.2648 C   0  0  0  0  0  0  0  0  0  0  0  0
  152.6791  143.8499  159.9854 C   0  0  0  0  0  0  0  0  0  0  0  0
  152.2390  144.3007  158.7288 C   0  0  0  0  0  0  0  0  0  0  0  0
  151.7286  143.3644  157.8072 C   0  0  0  0  0  0  0  0  0  0  0  0
  151.2997  143.7961  156.5824 O   0  0  0  0  0  0  0  0  0  0  0  0
  148.1722  139.6444  152.6856 H   0  0  0  0  0  0  0  0  0  0  0  0
  146.7217  139.1527  153.7223 H   0  0  0  0  0  0  0  0  0  0  0  0
  147.6388  140.3505  155.6195 H   0  0  0  0  0  0  0  0  0  0  0  0
  149.4200  141.8577  153.8754 H   0  0  0  0  0  0  0  0  0  0  0  0
  149.6278  141.6179  155.6071 H   0  0  0  0  0  0  0  0  0  0  0  0
  149.9998  138.9898  155.9830 H   0  0  0  0  0  0  0  0  0  0  0  0
  151.9755  137.4592  155.7149 H   0  0  0  0  0  0  0  0  0  0  0  0
  152.5567  138.4549  154.3798 H   0  0  0  0  0  0  0  0  0  0  0  0
  151.0310  137.5923  154.2367 H   0  0  0  0  0  0  0  0  0  0  0  0
  150.1773  141.2679  156.9455 H   0  0  0  0  0  0  0  0  0  0  0  0
  152.9146  142.0871  161.2184 H   0  0  0  0  0  0  0  0  0  0  0  0
  153.0763  144.5394  160.7158 H   0  0  0  0  0  0  0  0  0  0  0  0
  152.2935  145.3496  158.4768 H   0  0  0  0  0  0  0  0  0  0  0  0
  150.3694  143.9606  156.5526 H   0  0  0  0  0  0  0  0  0  0  0  0
  1  2  2  0  0  0  0
  1 17  1  0  0  0  0
  1 18  1  0  0  0  0
  2  3  1  0  0  0  0
  2 19  1  0  0  0  0
  3  4  1  0  0  0  0
  3 20  1  0  0  0  0
  3 21  1  0  0  0  0
  4  5  1  0  0  0  0
  5  6  1  0  0  0  0
  5  7  1  0  0  0  0
  5 22  1  0  0  0  0
  6 23  1  0  0  0  0
  6 24  1  0  0  0  0
  6 25  1  0  0  0  0
  7  8  2  0  0  0  0
  7  9  1  0  0  0  0
  9 10  1  0  0  0  0
  9 26  1  0  0  0  0
 10 15  1  0  0  0  0
 10 11  2  0  0  0  0
 11 12  1  0  0  0  0
 12 13  2  0  0  0  0
 12 27  1  0  0  0  0
 13 14  1  0  0  0  0
 13 28  1  0  0  0  0
 14 15  2  0  0  0  0
 14 29  1  0  0  0  0
 15 16  1  0  0  0  0
 16 30  1  0  0  0  0
M  END
> <s_m_source_file>
AV-unprocessed.smi

> <i_m_source_file_index>
3208

> <i_lp_mmshare_version>
43012

> <i_f3d_flags>
0

> <s_epik_input>
W0NIMl09W0NIXVtDSDJdT1tDQEhdKFtDSDNdKUMoPU8pW05IXWMxbltjSF1bY0hdW2NIXWMxW09IXQ==

> <s_epik_cmdline>
J2VwaWtfcHl0aG9uJywgJy1waCcsICc3LjAnLCAnLXRuJywgJzgnLCAnLW1hJywgJzIwMCcsICctbWV0YWxfYmluZGluZycsICctaW1hZScsICc8aW5maWxlLm1hZT4nLCAnLW9tYWUnLCAnPG91dGZpbGUubWFlPic=

> <r_lp_tautomer_probability>
0.43658

> <r_epik_Ionization_Penalty>
0.0201706

> <r_epik_Ionization_Penalty_Charging>
0

> <r_epik_Ionization_Penalty_Neutral>
0.0201706

> <r_epik_State_Penalty>
0.426656

> <r_epik_Charging_Adjusted_Penalty>
0.426656

> <i_epik_Tot_Q>
0

> <i_epik_Tot_abs_Q>
0

> <r_epik_Metal_State_Penalty>
0.386934

> <b_epik_Metal_Only>
0

> <s_lp_Force_Field>
OPLS_2005

> <r_lp_Energy>
5.92965

> <b_lp_Chiralities_Consistent>
1

> <s_lp_Variant>
AV-unprocessed.smi:3208-2

> <Gold.Version>
5.8.1

> <Gold.Id.Protein>
6NUR|6NUR_protein|mol2

> <Gold.PLP.Fitness>
43.3596

> <Gold.PLP.PLP>
-36.6110

> <Gold.PLP.part.hbond>
-2.8765

> <Gold.PLP.part.metal>
0.0000

> <Gold.PLP.part.buried>
-3.7234

> <Gold.PLP.part.nonpolar>
-30.3119

> <Gold.PLP.part.repulsive>
0.1967

> <Gold.PLP.ligand.clash>
0.0000

> <Gold.PLP.ligand.torsion>
0.9463

> <Gold.PLP.Chemscore.Hbond>
2.8640

> <Gold.PLP.Chemscore.CHOScore>
0.0000

> <Gold.PLP.Chemscore.Metal>
0.0000

> <Gold.Chemscore.Hbonds>
donor molecule, donor type, donor heavy atom, donor atom, acceptor molecule, acceptor atom, score
      L1  H    16    30       P1  8028  0.96
      P1  H  7989  7998       L1     4  1.00
      P1  H  7997  8010       L1     8  0.78

> <Gold.PLP.Chemscore.Internal.Correction>
0.0491

> <Gold.Rescore>
     Score         DG    S(hbond)    S(metal)    S(lipo)     H(rot)  DE(clash)    DE(int)     intcor
     17.72     -18.87       2.79        0.00      83.85       2.24       0.00       1.15       ----

> <Gold.Chemscore.Fitness>
17.7162

> <Gold.Chemscore.DG>
-18.8722

> <Gold.Chemscore.ZeroCoef>
-5.4800

> <Gold.Chemscore.Hbond>
2.7928

> <Gold.Chemscore.Metal>
0.0000

> <Gold.Chemscore.Lipo>
83.8463

> <Gold.Chemscore.Internal_Hbond>
0.0000

> <Gold.Chemscore.DEClash>
0.0017

> <Gold.Chemscore.DEInternal>
1.1544

> <Gold.Chemscore.Rot>
2.2445

> <Gold.Chemscore.Internal.Correction>
   9.000000E+99

> <Gold.Chemscore.Hbonds>
donor molecule, donor type, donor heavy atom, donor atom, acceptor molecule, acceptor atom, score
      L1  H    16    30       P1  8028  0.92
      P1  H  7989  7998       L1     4  0.70
      P1  H  7997  8010       L1     8  0.77

> <Gold.Chemscore.Hbond.Weighted>
-9.3280

> <Gold.Chemscore.Metal.Weighted>
-0.0000

> <Gold.Chemscore.Lipo.Weighted>
-9.8100

> <Gold.Chemscore.Internal_Hbond.Weighted>
0.0000

> <Gold.Chemscore.DEClash.Weighted>
0.0017

> <Gold.Chemscore.DEInternal.Weighted>
1.1544

> <Gold.Chemscore.Rot.Weighted>
5.7458

> <Gold.Chemscore.Internal.Correction.Weighted>
   9.000000E+99

> <Gold.Protein.RotatedTorsions>
[ 6907 6896 6895 6894 ] final -140.86 input  -60.11 | X-H torsion
[ 7974 7965 7964 7962 ] final   27.25 input  175.53 | X-H torsion
[ 8008 7997 7996 7995 ] final   65.60 input   59.86 | X-H torsion
[ 10167 10162 10161 10158 ] final   15.00 input  -65.29 | X-H torsion
[ 10718 10713 10712 10709 ] final -176.40 input   66.30 | X-H torsion
[ 10763 10752 10751 10750 ] final  147.90 input  -60.55 | X-H torsion
[ 11005 11000 10999 10996 ] final  121.09 input  -57.11 | X-H torsion

> <Gold.Protein.ActiveResidues>
 VAL166  LYS551  ARG553  GLY616  TRP617  ASP618  TYR619  PRO620  LYS621  CYS622 
 ASP623  PHE694  ASN695  SER759  ASP760  ASP761  ALA762  ILE779  LEU786  VAL792 
 PHE793  MET794  SER795  GLU796  ALA797  LYS798  CYS799  TRP800  GLU811  SER814 

> <Gold.Protein.RotatedAtoms>
  151.0662  133.5503  159.2630 H   0  0  0  0  0  0  0  0  0  0  0  0  # atno 6907 bound_to 6896
  151.2460  135.0605  159.9053 H   0  0  0  0  0  0  0  0  0  0  0  0  # atno 6908 bound_to 6896
  152.5405  134.0429  159.8129 H   0  0  0  0  0  0  0  0  0  0  0  0  # atno 6909 bound_to 6896
  146.1794  139.7216  142.8911 H   0  0  0  0  0  0  0  0  0  0  0  0  # atno 7974 bound_to 7965
  155.6642  140.3497  155.4794 H   0  0  0  0  0  0  0  0  0  0  0  0  # atno 8008 bound_to 7997
  155.9743  140.1162  157.0807 H   0  0  0  0  0  0  0  0  0  0  0  0  # atno 8009 bound_to 7997
  154.4174  140.1151  156.5335 H   0  0  0  0  0  0  0  0  0  0  0  0  # atno 8010 bound_to 7997
  140.5897  143.8819  150.6862 H   0  0  0  0  0  0  0  0  0  0  0  0  # atno 10167 bound_to 10162
  156.8141  130.9596  151.3114 H   0  0  0  0  0  0  0  0  0  0  0  0  # atno 10718 bound_to 10713
  154.0460  135.2885  155.3348 H   0  0  0  0  0  0  0  0  0  0  0  0  # atno 10763 bound_to 10752
  154.6899  135.5230  153.8381 H   0  0  0  0  0  0  0  0  0  0  0  0  # atno 10764 bound_to 10752
  153.0580  135.6603  154.0660 H   0  0  0  0  0  0  0  0  0  0  0  0  # atno 10765 bound_to 10752
  139.9212  134.9637  156.7906 H   0  0  0  0  0  0  0  0  0  0  0  0  # atno 11005 bound_to 11000
  145.4120  141.0397  143.3012 LP  0  0  0  0  0  0  0  0  0  0  0  0  # atno 17320 bound_to 7965
  144.8290  139.5661  143.6952 LP  0  0  0  0  0  0  0  0  0  0  0  0  # atno 17321 bound_to 7965
  140.2339  143.3714  152.1543 LP  0  0  0  0  0  0  0  0  0  0  0  0  # atno 17342 bound_to 10162
  139.5220  144.7053  151.5373 LP  0  0  0  0  0  0  0  0  0  0  0  0  # atno 17343 bound_to 10162
  157.6491  130.8869  149.9597 LP  0  0  0  0  0  0  0  0  0  0  0  0  # atno 17370 bound_to 10713
  156.1027  130.3654  150.0189 LP  0  0  0  0  0  0  0  0  0  0  0  0  # atno 17371 bound_to 10713
  140.6470  133.9766  155.7736 LP  0  0  0  0  0  0  0  0  0  0  0  0  # atno 17394 bound_to 11000
  141.0733  134.0172  157.3494 LP  0  0  0  0  0  0  0  0  0  0  0  0  # atno 17395 bound_to 11000

$$$$
