#       Name:                AV-unprocessed.smi:3318
#       Creating user name   scv26
#       Creation time:       Fri Mar 27 19:10:05 2020


#       File generated by GOLD software.
#

@<TRIPOS>MOLECULE
AV-unprocessed.smi:3318
    46    47     1
SMALL
NO_CHARGES


@<TRIPOS>ATOM
      1 ****        -6.0693  -2.4672  -1.0130 C.3            1 S1                 0.0000
      2 ****        -4.5575  -2.2550  -1.1489 C.3            1 S1                 0.0000
      3 ****        -4.0262  -1.1917  -0.1715 C.3            1 S1                 0.0000
      4 ****        -2.5467  -1.0657  -0.2148 N.4            1 S1                 1.0000
      5 ****        -1.9976  -0.4665   1.0293 C.3            1 S1                 0.0000
      6 ****        -0.4589  -0.4696   1.0191 C.3            1 S1                 0.0000
      7 ****         0.0974   0.2680  -0.2102 C.3            1 S1                 0.0000
      8 ****         1.5772   0.2047  -0.2127 N.4            1 S1                 1.0000
      9 ****         2.2502   1.0988  -1.1804 C.3            1 S1                 0.0000
     10 ****         3.7765   1.0801  -1.0007 C.3            1 S1                 0.0000
     11 ****         4.2199   1.5801   0.3627 C.ar           1 S1                 0.0000
     12 ****         4.6683   0.6793   1.3525 C.ar           1 S1                 0.0000
     13 ****         5.0684   1.1983   2.5993 C.ar           1 S1                 0.0000
     14 ****         5.0011   2.5893   2.8080 C.ar           1 S1                 0.0000
     15 ****         4.5366   3.4038   1.7563 C.ar           1 S1                 0.0000
     16 ****         4.1497   2.9158   0.5576 N.ar           1 S1                 0.0000
     17 ****        -0.5135  -0.3517  -1.4823 C.3            1 S1                 0.0000
     18 ****        -2.0516  -0.3532  -1.4229 C.3            1 S1                 0.0000
     19 ****        -6.4201  -3.2226  -1.7164 H              1 S1                 0.0000
     20 ****        -6.6166  -1.5459  -1.2141 H              1 S1                 0.0000
     21 ****        -6.3325  -2.8017  -0.0091 H              1 S1                 0.0000
     22 ****        -4.0475  -3.2028  -0.9725 H              1 S1                 0.0000
     23 ****        -4.3394  -1.9737  -2.1787 H              1 S1                 0.0000
     24 ****        -4.4898  -0.2224  -0.3617 H              1 S1                 0.0000
     25 ****        -4.3277  -1.4841   0.8355 H              1 S1                 0.0000
     26 ****        -2.3724   0.5523   1.1412 H              1 S1                 0.0000
     27 ****        -2.3480  -1.0294   1.8955 H              1 S1                 0.0000
     28 ****        -0.0869  -0.0054   1.9335 H              1 S1                 0.0000
     29 ****        -0.1000  -1.5002   1.0287 H              1 S1                 0.0000
     30 ****        -0.1983   1.3164  -0.1429 H              1 S1                 0.0000
     31 ****         1.8946   0.4736   0.7083 H              1 S1                 0.0000
     32 ****         2.0080   0.7856  -2.1957 H              1 S1                 0.0000
     33 ****         1.8755   2.1165  -1.0615 H              1 S1                 0.0000
     34 ****         4.1588   0.0710  -1.1616 H              1 S1                 0.0000
     35 ****         4.2412   1.7034  -1.7660 H              1 S1                 0.0000
     36 ****         4.7111  -0.3835   1.1636 H              1 S1                 0.0000
     37 ****         5.4211   0.5417   3.3809 H              1 S1                 0.0000
     38 ****         5.3015   3.0222   3.7508 H              1 S1                 0.0000
     39 ****         4.4738   4.4748   1.8807 H              1 S1                 0.0000
     40 ****        -0.1979   0.1993  -2.3683 H              1 S1                 0.0000
     41 ****        -0.1536  -1.3739  -1.6082 H              1 S1                 0.0000
     42 ****        -2.4347  -0.8257  -2.3266 H              1 S1                 0.0000
     43 ****        -2.4268   0.6714  -1.4211 H              1 S1                 0.0000
     44 ****        -2.1861  -2.0084  -0.2566 H              1 S1                 0.0000
     45 ****         1.8693  -0.7468  -0.3843 H              1 S1                 0.0000
     46 ****         3.8210   3.5248  -0.1643 LP             1 S1                 0.0000
@<TRIPOS>BOND
    1    1    2 1     
    2    1   19 1     
    3    1   20 1     
    4    1   21 1     
    5    2    3 1     
    6    2   22 1     
    7    2   23 1     
    8    3    4 1     
    9    3   24 1     
   10    3   25 1     
   11    4   18 1     
   12    4    5 1     
   13    4   44 1     
   14    5    6 1     
   15    5   26 1     
   16    5   27 1     
   17    6    7 1     
   18    6   28 1     
   19    6   29 1     
   20    7    8 1     
   21    7   17 1     
   22    7   30 1     
   23    8    9 1     
   24    8   31 1     
   25    8   45 1     
   26    9   10 1     
   27    9   32 1     
   28    9   33 1     
   29   10   11 1     
   30   10   34 1     
   31   10   35 1     
   32   11   16 ar    
   33   11   12 ar    
   34   12   13 ar    
   35   12   36 1     
   36   13   14 ar    
   37   13   37 1     
   38   14   15 ar    
   39   14   38 1     
   40   15   16 ar    
   41   15   39 1     
   42   17   18 1     
   43   17   40 1     
   44   17   41 1     
   45   18   42 1     
   46   18   43 1     
   47   16   46 1     
@<TRIPOS>SUBSTRUCTURE
      1 S1             1
@<TRIPOS>SET
LONE_PAIRS      STATIC     ATOMS    <user>   **** ""
1 46
DONOR_HYDROGENS      STATIC     ATOMS    <user>   **** ""
3 44 31 45
ATOM$BLUE        STATIC     ATOMS    COLORGROUP SYSTEM
1 46
ATOM$RED        STATIC     ATOMS    COLORGROUP SYSTEM
3 44 31 45
