AV-unprocessed.smi:2088|AV-procd|sdf|8526|dock9
  -GOLD-   2272011243D 1   1.00000     0.00000
 Structure written by MMmdl.
 33 34  0  0  0  0  0  0  0  0  1 V2000
  152.4901  139.6055  156.3150 O   0  0  0  0  0  0  0  0  0  0  0  0
  151.4423  140.2381  156.1822 C   0  0  0  0  0  0  0  0  0  0  0  0
  150.5084  139.9330  155.0094 C   0  0  0  0  0  0  0  0  0  0  0  0
  149.2827  140.7061  155.1008 N   0  0  0  0  0  0  0  0  0  0  0  0
  148.6298  141.3986  154.1036 C   0  0  0  0  0  0  0  0  0  0  0  0
  147.5200  141.9641  154.6621 C   0  0  0  0  0  0  0  0  0  0  0  0
  147.5736  141.5586  156.0274 C   0  0  0  0  0  0  0  0  0  0  0  0
  146.6078  141.8843  157.1362 C   0  0  0  0  0  0  0  0  0  0  0  0
  146.0849  140.7651  157.6371 F   0  0  0  0  0  0  0  0  0  0  0  0
  147.2375  142.5375  158.1128 F   0  0  0  0  0  0  0  0  0  0  0  0
  145.6199  142.6471  156.6683 F   0  0  0  0  0  0  0  0  0  0  0  0
  148.6356  140.8050  156.2819 N   0  0  0  0  0  0  0  0  0  0  0  0
  151.0535  141.2071  157.0252 N   0  0  0  0  0  0  0  0  0  0  0  0
  151.7980  141.6425  158.2014 C   0  0  0  0  0  0  0  0  0  0  0  0
  151.2726  142.9812  158.7475 C   0  0  2  0  0  0  0  0  0  0  0  0
  151.9754  144.2021  158.1608 C   0  0  0  0  0  0  0  0  0  0  0  0
  151.6815  145.2502  159.2098 C   0  0  0  0  0  0  0  0  0  0  0  0
  151.7609  144.4435  160.5047 C   0  0  0  0  0  0  0  0  0  0  0  0
  151.5087  143.0853  160.1484 O   0  0  0  0  0  0  0  0  0  0  0  0
  150.9985  140.1389  154.0560 H   0  0  0  0  0  0  0  0  0  0  0  0
  150.2539  138.8726  155.0158 H   0  0  0  0  0  0  0  0  0  0  0  0
  149.0040  141.4282  153.0907 H   0  0  0  0  0  0  0  0  0  0  0  0
  146.7791  142.5755  154.1688 H   0  0  0  0  0  0  0  0  0  0  0  0
  150.1797  141.6773  156.8389 H   0  0  0  0  0  0  0  0  0  0  0  0
  151.7190  140.8692  158.9658 H   0  0  0  0  0  0  0  0  0  0  0  0
  152.8574  141.7255  157.9536 H   0  0  0  0  0  0  0  0  0  0  0  0
  150.1991  143.0747  158.5741 H   0  0  0  0  0  0  0  0  0  0  0  0
  153.0510  144.0326  158.0919 H   0  0  0  0  0  0  0  0  0  0  0  0
  151.6052  144.4716  157.1713 H   0  0  0  0  0  0  0  0  0  0  0  0
  152.3774  146.0892  159.1858 H   0  0  0  0  0  0  0  0  0  0  0  0
  150.6723  145.6403  159.0721 H   0  0  0  0  0  0  0  0  0  0  0  0
  152.7589  144.5083  160.9392 H   0  0  0  0  0  0  0  0  0  0  0  0
  151.0448  144.7951  161.2479 H   0  0  0  0  0  0  0  0  0  0  0  0
  1  2  2  0  0  0  0
  2  3  1  0  0  0  0
  2 13  1  0  0  0  0
  3  4  1  0  0  0  0
  3 20  1  0  0  0  0
  3 21  1  0  0  0  0
  4 12  1  0  0  0  0
  4  5  1  0  0  0  0
  5  6  2  0  0  0  0
  5 22  1  0  0  0  0
  6  7  1  0  0  0  0
  6 23  1  0  0  0  0
  7  8  1  0  0  0  0
  7 12  2  0  0  0  0
  8  9  1  0  0  0  0
  8 10  1  0  0  0  0
  8 11  1  0  0  0  0
 13 14  1  0  0  0  0
 13 24  1  0  0  0  0
 14 15  1  0  0  0  0
 14 25  1  0  0  0  0
 14 26  1  0  0  0  0
 15 19  1  0  0  0  0
 15 16  1  0  0  0  0
 15 27  1  0  0  0  0
 16 17  1  0  0  0  0
 16 28  1  0  0  0  0
 16 29  1  0  0  0  0
 17 18  1  0  0  0  0
 17 30  1  0  0  0  0
 17 31  1  0  0  0  0
 18 19  1  0  0  0  0
 18 32  1  0  0  0  0
 18 33  1  0  0  0  0
M  END
> <s_m_source_file>
AV-unprocessed.smi

> <i_m_source_file_index>
2088

> <i_lp_mmshare_version>
43012

> <i_f3d_flags>
0

> <s_epik_input>
TzFbQ0gyXVtDSDJdW0NIMl1bQ0BIXTFbQ0gyXVtOSF1DKD1PKVtDSDJdbjJbY0hdW2NIXWMobjIpQyhGKShGKUY=

> <s_epik_cmdline>
J2VwaWtfcHl0aG9uJywgJy1waCcsICc3LjAnLCAnLXRuJywgJzgnLCAnLW1hJywgJzIwMCcsICctbWV0YWxfYmluZGluZycsICctaW1hZScsICc8aW5maWxlLm1hZT4nLCAnLW9tYWUnLCAnPG91dGZpbGUubWFlPic=

> <r_lp_tautomer_probability>
1

> <r_epik_Ionization_Penalty>
2.25732e-07

> <r_epik_Ionization_Penalty_Charging>
0

> <r_epik_Ionization_Penalty_Neutral>
2.25732e-07

> <r_epik_State_Penalty>
-0

> <r_epik_Charging_Adjusted_Penalty>
0

> <i_epik_Tot_Q>
0

> <i_epik_Tot_abs_Q>
0

> <r_epik_Metal_State_Penalty>
-0

> <b_epik_Metal_Only>
0

> <s_lp_Force_Field>
OPLS_2005

> <r_lp_Energy>
20.6352

> <b_lp_Chiralities_Consistent>
1

> <s_lp_Variant>
AV-unprocessed.smi:2088-1

> <Gold.Version>
5.8.1

> <Gold.Id.Protein>
6NUR|6NUR_protein|mol2

> <Gold.PLP.Fitness>
42.6072

> <Gold.PLP.PLP>
-37.9251

> <Gold.PLP.part.hbond>
-1.0000

> <Gold.PLP.part.metal>
0.0000

> <Gold.PLP.part.buried>
-3.7785

> <Gold.PLP.part.nonpolar>
-32.8160

> <Gold.PLP.part.repulsive>
0.1577

> <Gold.PLP.ligand.clash>
0.0000

> <Gold.PLP.ligand.torsion>
0.6649

> <Gold.PLP.Chemscore.Hbond>
1.0000

> <Gold.PLP.Chemscore.CHOScore>
1.0000

> <Gold.PLP.Chemscore.Metal>
0.0000

> <Gold.Chemscore.Hbonds>
donor molecule, donor type, donor heavy atom, donor atom, acceptor molecule, acceptor atom, score
      P1  H  7997  8010       L1     1  1.00
      L1  C     5    22       P1  7957  1.00

> <Gold.PLP.Chemscore.Internal.Correction>
0.0118

> <Gold.Rescore>
     Score         DG    S(hbond)    S(metal)    S(lipo)     H(rot)  DE(clash)    DE(int)     intcor
     13.17     -13.85       1.00        0.00      84.48       1.89       0.06       0.62       ----

> <Gold.Chemscore.Fitness>
13.1702

> <Gold.Chemscore.DG>
-13.8510

> <Gold.Chemscore.ZeroCoef>
-5.4800

> <Gold.Chemscore.Hbond>
0.9975

> <Gold.Chemscore.Metal>
0.0000

> <Gold.Chemscore.Lipo>
84.4842

> <Gold.Chemscore.Internal_Hbond>
0.0000

> <Gold.Chemscore.DEClash>
0.0586

> <Gold.Chemscore.DEInternal>
0.6222

> <Gold.Chemscore.Rot>
1.8928

> <Gold.Chemscore.Internal.Correction>
   9.000000E+99

> <Gold.Chemscore.Hbonds>
donor molecule, donor type, donor heavy atom, donor atom, acceptor molecule, acceptor atom, score
      P1  H  7997  8010       L1     1  1.00

> <Gold.Chemscore.Hbond.Weighted>
-3.3318

> <Gold.Chemscore.Metal.Weighted>
-0.0000

> <Gold.Chemscore.Lipo.Weighted>
-9.8847

> <Gold.Chemscore.Internal_Hbond.Weighted>
0.0000

> <Gold.Chemscore.DEClash.Weighted>
0.0586

> <Gold.Chemscore.DEInternal.Weighted>
0.6222

> <Gold.Chemscore.Rot.Weighted>
4.8455

> <Gold.Chemscore.Internal.Correction.Weighted>
   9.000000E+99

> <Gold.Protein.RotatedTorsions>
[ 6907 6896 6895 6894 ] final -118.66 input  -60.11 | X-H torsion
[ 7974 7965 7964 7962 ] final   28.94 input  175.53 | X-H torsion
[ 8008 7997 7996 7995 ] final   77.89 input   59.86 | X-H torsion
[ 10167 10162 10161 10158 ] final  175.44 input  -65.29 | X-H torsion
[ 10718 10713 10712 10709 ] final   44.60 input   66.30 | X-H torsion
[ 10763 10752 10751 10750 ] final  133.77 input  -60.55 | X-H torsion
[ 11005 11000 10999 10996 ] final  170.12 input  -57.11 | X-H torsion

> <Gold.Protein.ActiveResidues>
 VAL166  LYS551  ARG553  GLY616  TRP617  ASP618  TYR619  PRO620  LYS621  CYS622 
 ASP623  PHE694  ASN695  SER759  ASP760  ASP761  ALA762  ILE779  LEU786  VAL792 
 PHE793  MET794  SER795  GLU796  ALA797  LYS798  CYS799  TRP800  GLU811  SER814 

> <Gold.Protein.RotatedAtoms>
  150.8238  133.8206  159.3127 H   0  0  0  0  0  0  0  0  0  0  0  0  # atno 6907 bound_to 6896
  151.5957  135.1049  160.0058 H   0  0  0  0  0  0  0  0  0  0  0  0  # atno 6908 bound_to 6896
  152.4325  133.7262  159.6618 H   0  0  0  0  0  0  0  0  0  0  0  0  # atno 6909 bound_to 6896
  146.1700  139.6988  142.8974 H   0  0  0  0  0  0  0  0  0  0  0  0  # atno 7974 bound_to 7965
  155.8480  140.3459  155.5675 H   0  0  0  0  0  0  0  0  0  0  0  0  # atno 8008 bound_to 7997
  155.8068  140.0893  157.1946 H   0  0  0  0  0  0  0  0  0  0  0  0  # atno 8009 bound_to 7997
  154.4007  140.1455  156.3327 H   0  0  0  0  0  0  0  0  0  0  0  0  # atno 8010 bound_to 7997
  139.5177  144.3031  152.0360 H   0  0  0  0  0  0  0  0  0  0  0  0  # atno 10167 bound_to 10162
  157.4285  130.8011  149.7581 H   0  0  0  0  0  0  0  0  0  0  0  0  # atno 10718 bound_to 10713
  153.8126  135.3127  155.3402 H   0  0  0  0  0  0  0  0  0  0  0  0  # atno 10763 bound_to 10752
  154.8045  135.4706  154.0361 H   0  0  0  0  0  0  0  0  0  0  0  0  # atno 10764 bound_to 10752
  153.1744  135.6883  153.8652 H   0  0  0  0  0  0  0  0  0  0  0  0  # atno 10765 bound_to 10752
  140.3050  134.7564  157.3946 H   0  0  0  0  0  0  0  0  0  0  0  0  # atno 11005 bound_to 11000
  145.4366  141.0419  143.2881 LP  0  0  0  0  0  0  0  0  0  0  0  0  # atno 17320 bound_to 7965
  144.8149  139.5895  143.7013 LP  0  0  0  0  0  0  0  0  0  0  0  0  # atno 17321 bound_to 7965
  140.2478  144.4201  150.6234 LP  0  0  0  0  0  0  0  0  0  0  0  0  # atno 17342 bound_to 10162
  140.6246  143.2180  151.6624 LP  0  0  0  0  0  0  0  0  0  0  0  0  # atno 17343 bound_to 10162
  155.9905  130.3944  150.3026 LP  0  0  0  0  0  0  0  0  0  0  0  0  # atno 17370 bound_to 10713
  157.1180  131.0239  151.3021 LP  0  0  0  0  0  0  0  0  0  0  0  0  # atno 17371 bound_to 10713
  140.1075  134.5389  155.8296 LP  0  0  0  0  0  0  0  0  0  0  0  0  # atno 17394 bound_to 11000
  141.2120  133.6714  156.6627 LP  0  0  0  0  0  0  0  0  0  0  0  0  # atno 17395 bound_to 11000

$$$$
