AV-unprocessed.smi:2488|AV-procd|sdf|9794|dock4
  -GOLD-   2272013433D 1   1.00000     0.00000
 Structure written by MMmdl.
 33 34  0  0  0  0  0  0  0  0  1 V2000
  152.9106  141.0033  159.3936 C   0  0  0  0  0  0  0  0  0  0  0  0
  152.1286  139.7396  159.0175 C   0  0  0  0  0  0  0  0  0  0  0  0
  151.7879  139.6918  157.5395 C   0  0  0  0  0  0  0  0  0  0  0  0
  152.8029  139.4159  156.6906 N   0  0  0  0  0  0  0  0  0  0  0  0
  152.5067  139.3831  155.3895 C   0  0  0  0  0  0  0  0  0  0  0  0
  151.3101  139.5970  154.8374 N   0  0  0  0  0  0  0  0  0  0  0  0
  150.2786  139.8724  155.6729 C   0  0  0  0  0  0  0  0  0  0  0  0
  148.9998  140.1200  155.1322 N   0  0  0  0  0  0  0  0  0  0  0  0
  148.9458  141.4646  154.5623 C   0  0  0  0  0  0  0  0  0  0  0  0
  147.5204  141.8100  154.1114 C   0  0  0  0  0  0  0  0  0  0  0  0
  147.0776  140.8262  153.1876 O   0  0  0  0  0  0  0  0  0  0  0  0
  147.0087  139.5396  153.7897 C   0  0  0  0  0  0  0  0  0  0  0  0
  148.4064  139.0808  154.2709 C   0  0  2  0  0  0  0  0  0  0  0  0
  148.2487  137.6800  154.8998 C   0  0  0  0  0  0  0  0  0  0  0  0
  148.7253  136.6223  154.2346 N   0  0  0  0  0  0  0  0  0  0  0  0
  147.6853  137.5569  155.9851 O   0  0  0  0  0  0  0  0  0  0  0  0
  150.4789  139.9371  157.0711 C   0  0  0  0  0  0  0  0  0  0  0  0
  149.4614  140.2165  157.9220 F   0  0  0  0  0  0  0  0  0  0  0  0
  153.1396  141.0158  160.4592 H   0  0  0  0  0  0  0  0  0  0  0  0
  152.3368  141.9021  159.1652 H   0  0  0  0  0  0  0  0  0  0  0  0
  153.8539  141.0600  158.8496 H   0  0  0  0  0  0  0  0  0  0  0  0
  152.7112  138.8548  159.2771 H   0  0  0  0  0  0  0  0  0  0  0  0
  151.2126  139.6834  159.6062 H   0  0  0  0  0  0  0  0  0  0  0  0
  153.3192  139.1631  154.7130 H   0  0  0  0  0  0  0  0  0  0  0  0
  149.2805  142.2062  155.2891 H   0  0  0  0  0  0  0  0  0  0  0  0
  149.6266  141.5245  153.7110 H   0  0  0  0  0  0  0  0  0  0  0  0
  146.8409  141.8670  154.9635 H   0  0  0  0  0  0  0  0  0  0  0  0
  147.5057  142.7854  153.6253 H   0  0  0  0  0  0  0  0  0  0  0  0
  146.2952  139.5627  154.6160 H   0  0  0  0  0  0  0  0  0  0  0  0
  146.6102  138.8421  153.0516 H   0  0  0  0  0  0  0  0  0  0  0  0
  149.0386  138.9742  153.3872 H   0  0  0  0  0  0  0  0  0  0  0  0
  148.6289  135.6967  154.6266 H   0  0  0  0  0  0  0  0  0  0  0  0
  149.1762  136.7539  153.3410 H   0  0  0  0  0  0  0  0  0  0  0  0
  1  2  1  0  0  0  0
  1 19  1  0  0  0  0
  1 20  1  0  0  0  0
  1 21  1  0  0  0  0
  2  3  1  0  0  0  0
  2 22  1  0  0  0  0
  2 23  1  0  0  0  0
  3 17  1  0  0  0  0
  3  4  2  0  0  0  0
  4  5  1  0  0  0  0
  5  6  2  0  0  0  0
  5 24  1  0  0  0  0
  6  7  1  0  0  0  0
  7  8  1  0  0  0  0
  7 17  2  0  0  0  0
  8 13  1  0  0  0  0
  8  9  1  0  0  0  0
  9 10  1  0  0  0  0
  9 25  1  0  0  0  0
  9 26  1  0  0  0  0
 10 11  1  0  0  0  0
 10 27  1  0  0  0  0
 10 28  1  0  0  0  0
 11 12  1  0  0  0  0
 12 13  1  0  0  0  0
 12 29  1  0  0  0  0
 12 30  1  0  0  0  0
 13 14  1  0  0  0  0
 13 31  1  0  0  0  0
 14 15  1  0  0  0  0
 14 16  2  0  0  0  0
 15 32  1  0  0  0  0
 15 33  1  0  0  0  0
 17 18  1  0  0  0  0
M  END
> <s_m_source_file>
AV-unprocessed.smi

> <i_m_source_file_index>
2488

> <i_lp_mmshare_version>
43012

> <i_f3d_flags>
0

> <s_epik_input>
W0NIM11bQ0gyXWMxbltjSF1uYyhjMUYpTjJbQ0gyXVtDSDJdT1tDSDJdW0NASF0yQyg9TylbTkgyXQ==

> <s_epik_cmdline>
J2VwaWtfcHl0aG9uJywgJy1waCcsICc3LjAnLCAnLXRuJywgJzgnLCAnLW1hJywgJzIwMCcsICctbWV0YWxfYmluZGluZycsICctaW1hZScsICc8aW5maWxlLm1hZT4nLCAnLW9tYWUnLCAnPG91dGZpbGUubWFlPic=

> <r_lp_tautomer_probability>
1

> <r_epik_Ionization_Penalty>
2.73136e-05

> <r_epik_Ionization_Penalty_Charging>
0

> <r_epik_Ionization_Penalty_Neutral>
2.73136e-05

> <r_epik_State_Penalty>
-0

> <r_epik_Charging_Adjusted_Penalty>
0

> <i_epik_Tot_Q>
0

> <i_epik_Tot_abs_Q>
0

> <r_epik_Metal_State_Penalty>
-0

> <b_epik_Metal_Only>
0

> <s_lp_Force_Field>
OPLS_2005

> <r_lp_Energy>
13.0675

> <b_lp_Chiralities_Consistent>
1

> <s_lp_Variant>
AV-unprocessed.smi:2488-2

> <Gold.Version>
5.8.1

> <Gold.Id.Protein>
6NUR|6NUR_protein|mol2

> <Gold.PLP.Fitness>
34.4541

> <Gold.PLP.PLP>
-26.5616

> <Gold.PLP.part.hbond>
-3.0000

> <Gold.PLP.part.metal>
0.0000

> <Gold.PLP.part.buried>
-4.1977

> <Gold.PLP.part.nonpolar>
-19.7034

> <Gold.PLP.part.repulsive>
0.3383

> <Gold.PLP.ligand.clash>
0.0000

> <Gold.PLP.ligand.torsion>
0.6093

> <Gold.PLP.Chemscore.Hbond>
2.9760

> <Gold.PLP.Chemscore.CHOScore>
0.0000

> <Gold.PLP.Chemscore.Metal>
0.0000

> <Gold.Chemscore.Hbonds>
donor molecule, donor type, donor heavy atom, donor atom, acceptor molecule, acceptor atom, score
      L1  H    15    33       P1  7948  0.75
      P1  H  7989  7998       L1     6  1.00
      P1  H  7997  8010       L1     4  0.75

> <Gold.PLP.Chemscore.Internal.Correction>
0.1831

> <Gold.Rescore>
     Score         DG    S(hbond)    S(metal)    S(lipo)     H(rot)  DE(clash)    DE(int)     intcor
     12.73     -13.30       2.02        0.00      49.78       1.86       0.23       0.35       ----

> <Gold.Chemscore.Fitness>
12.7264

> <Gold.Chemscore.DG>
-13.3049

> <Gold.Chemscore.ZeroCoef>
-5.4800

> <Gold.Chemscore.Hbond>
2.0233

> <Gold.Chemscore.Metal>
0.0000

> <Gold.Chemscore.Lipo>
49.7783

> <Gold.Chemscore.Internal_Hbond>
0.0000

> <Gold.Chemscore.DEClash>
0.2258

> <Gold.Chemscore.DEInternal>
0.3528

> <Gold.Chemscore.Rot>
1.8582

> <Gold.Chemscore.Internal.Correction>
   9.000000E+99

> <Gold.Chemscore.Hbonds>
donor molecule, donor type, donor heavy atom, donor atom, acceptor molecule, acceptor atom, score
      L1  H    15    33       P1  7948  0.72
      P1  H  7989  7998       L1     6  0.41
      P1  H  7997  8010       L1     4  0.09

> <Gold.Chemscore.Hbond.Weighted>
-6.7579

> <Gold.Chemscore.Metal.Weighted>
-0.0000

> <Gold.Chemscore.Lipo.Weighted>
-5.8241

> <Gold.Chemscore.Internal_Hbond.Weighted>
0.0000

> <Gold.Chemscore.DEClash.Weighted>
0.2258

> <Gold.Chemscore.DEInternal.Weighted>
0.3528

> <Gold.Chemscore.Rot.Weighted>
4.7570

> <Gold.Chemscore.Internal.Correction.Weighted>
   9.000000E+99

> <Gold.Protein.RotatedTorsions>
[ 6907 6896 6895 6894 ] final   63.99 input  -60.11 | X-H torsion
[ 7974 7965 7964 7962 ] final   13.04 input  175.53 | X-H torsion
[ 8008 7997 7996 7995 ] final   70.38 input   59.86 | X-H torsion
[ 10167 10162 10161 10158 ] final   38.03 input  -65.29 | X-H torsion
[ 10718 10713 10712 10709 ] final -117.28 input   66.30 | X-H torsion
[ 10763 10752 10751 10750 ] final    8.22 input  -60.55 | X-H torsion
[ 11005 11000 10999 10996 ] final  115.11 input  -57.11 | X-H torsion

> <Gold.Protein.ActiveResidues>
 VAL166  LYS551  ARG553  GLY616  TRP617  ASP618  TYR619  PRO620  LYS621  CYS622 
 ASP623  PHE694  ASN695  SER759  ASP760  ASP761  ALA762  ILE779  LEU786  VAL792 
 PHE793  MET794  SER795  GLU796  ALA797  LYS798  CYS799  TRP800  GLU811  SER814 

> <Gold.Protein.RotatedAtoms>
  152.4296  134.5802  159.9945 H   0  0  0  0  0  0  0  0  0  0  0  0  # atno 6907 bound_to 6896
  151.5929  133.3359  159.3039 H   0  0  0  0  0  0  0  0  0  0  0  0  # atno 6908 bound_to 6896
  150.8188  134.7421  159.6819 H   0  0  0  0  0  0  0  0  0  0  0  0  # atno 6909 bound_to 6896
  146.2338  139.9248  142.8505 H   0  0  0  0  0  0  0  0  0  0  0  0  # atno 7974 bound_to 7965
  155.7380  140.3491  155.5090 H   0  0  0  0  0  0  0  0  0  0  0  0  # atno 8008 bound_to 7997
  155.9121  140.1052  157.1293 H   0  0  0  0  0  0  0  0  0  0  0  0  # atno 8009 bound_to 7997
  154.4057  140.1266  156.4557 H   0  0  0  0  0  0  0  0  0  0  0  0  # atno 8010 bound_to 7997
  140.3976  144.1768  150.6132 H   0  0  0  0  0  0  0  0  0  0  0  0  # atno 10167 bound_to 10162
  156.1023  130.6182  150.9144 H   0  0  0  0  0  0  0  0  0  0  0  0  # atno 10718 bound_to 10713
  153.2274  135.6888  153.7929 H   0  0  0  0  0  0  0  0  0  0  0  0  # atno 10763 bound_to 10752
  153.7106  135.3283  155.3246 H   0  0  0  0  0  0  0  0  0  0  0  0  # atno 10764 bound_to 10752
  154.8298  135.4589  154.1146 H   0  0  0  0  0  0  0  0  0  0  0  0  # atno 10765 bound_to 10752
  139.9000  134.9579  156.6995 H   0  0  0  0  0  0  0  0  0  0  0  0  # atno 11005 bound_to 11000
  145.2102  140.9892  143.4105 LP  0  0  0  0  0  0  0  0  0  0  0  0  # atno 17320 bound_to 7965
  144.9698  139.3892  143.6314 LP  0  0  0  0  0  0  0  0  0  0  0  0  # atno 17321 bound_to 7965
  140.4774  143.2391  151.9003 LP  0  0  0  0  0  0  0  0  0  0  0  0  # atno 17342 bound_to 10162
  139.4786  144.5305  151.8673 LP  0  0  0  0  0  0  0  0  0  0  0  0  # atno 17343 bound_to 10162
  157.6194  131.0931  150.8649 LP  0  0  0  0  0  0  0  0  0  0  0  0  # atno 17370 bound_to 10713
  156.8775  130.5167  149.5293 LP  0  0  0  0  0  0  0  0  0  0  0  0  # atno 17371 bound_to 10713
  140.7162  133.9180  155.8116 LP  0  0  0  0  0  0  0  0  0  0  0  0  # atno 17394 bound_to 11000
  141.0263  134.0819  157.4065 LP  0  0  0  0  0  0  0  0  0  0  0  0  # atno 17395 bound_to 11000

$$$$
